GAC.pdb
     RDKit          3D

 16 15  0  0  1  0  0  0  0  0999 V2000
   12.1434  -15.6720   19.5228 N   0  0  0  0  0  0  0  0  0  0  0  0
   11.0558  -16.3538   20.1550 C   0  0  0  0  0  0  0  0  0  0  0  0
   10.1074  -15.3937   20.8150 C   0  0  0  0  0  0  0  0  0  0  0  0
   10.4990  -14.2898   21.2658 O   0  0  0  0  0  0  0  0  0  0  0  0
    6.3971  -15.1904   21.5872 C   0  0  0  0  0  0  0  0  0  0  0  0
    7.8614  -14.8593   21.7454 C   0  0  2  0  0  0  0  0  0  0  0  0
    8.7196  -15.6844   20.9634 N   0  0  0  0  0  0  0  0  0  0  0  0
    8.1832  -14.8973   23.2010 C   0  0  0  0  0  0  0  0  0  0  0  0
    8.8077  -15.8403   23.7421 O   0  0  0  0  0  0  0  0  0  0  0  0
    7.7643  -13.8139   24.0229 N   0  0  0  0  0  0  0  0  0  0  0  0
    7.9736  -13.7962   25.4585 C   0  0  1  0  0  0  0  0  0  0  0  0
    7.3251  -12.5704   26.0872 C   0  0  0  0  0  0  0  0  0  0  0  0
    7.7313  -12.4898   27.8675 S   0  0  0  0  0  0  0  0  0  0  0  0
    7.4122  -15.0529   26.0195 C   0  0  0  0  0  0  0  0  0  0  0  0
    6.2401  -15.6258   25.5438 O   0  0  0  0  0  0  0  0  0  0  0  0
    7.9837  -15.6676   26.9695 O   0  0  0  0  0  0  0  0  0  0  0  0
  2  1  1  0
  3  2  1  0
  4  3  2  0
  6  5  1  1
  6  8  1  0
  6  7  1  0
  7  3  1  0
  8  9  2  0
 10 11  1  0
 10  8  1  0
 11 12  1  1
 12 13  1  0
 14 15  1  0
 14 11  1  0
 16 14  2  0
M  END
$$$$
