GAC.pdb
     RDKit          3D

 16 15  0  0  1  0  0  0  0  0999 V2000
    8.5470  -17.2522   16.3780 N   0  0  0  0  0  0  0  0  0  0  0  0
    7.5893  -16.3797   16.9853 C   0  0  0  0  0  0  0  0  0  0  0  0
    8.1210  -15.7656   18.2490 C   0  0  0  0  0  0  0  0  0  0  0  0
    9.0121  -16.3304   18.9287 O   0  0  0  0  0  0  0  0  0  0  0  0
    7.6265  -12.5538   20.2167 C   0  0  0  0  0  0  0  0  0  0  0  0
    8.1358  -13.9499   19.9516 C   0  0  2  0  0  0  0  0  0  0  0  0
    7.6437  -14.5153   18.7404 N   0  0  0  0  0  0  0  0  0  0  0  0
    7.8299  -14.7825   21.1504 C   0  0  0  0  0  0  0  0  0  0  0  0
    6.7714  -15.4425   21.2764 O   0  0  0  0  0  0  0  0  0  0  0  0
    8.7811  -14.8357   22.2073 N   0  0  0  0  0  0  0  0  0  0  0  0
    8.5871  -15.6496   23.3926 C   0  0  1  0  0  0  0  0  0  0  0  0
    9.9041  -15.8650   24.1257 C   0  0  0  0  0  0  0  0  0  0  0  0
   11.1428  -16.5853   22.9911 S   0  0  0  0  0  0  0  0  0  0  0  0
    7.5907  -14.9676   24.2594 C   0  0  0  0  0  0  0  0  0  0  0  0
    6.9183  -15.6219   25.2832 O   0  0  0  0  0  0  0  0  0  0  0  0
    7.3047  -13.7426   24.1028 O   0  0  0  0  0  0  0  0  0  0  0  0
  2  1  1  0
  3  2  1  0
  4  3  2  0
  6  5  1  1
  6  8  1  0
  6  7  1  0
  7  3  1  0
  8  9  2  0
 10 11  1  0
 10  8  1  0
 11 12  1  1
 12 13  1  0
 14 15  1  0
 14 11  1  0
 16 14  2  0
M  END
$$$$
