GAC.pdb
     RDKit          3D

 16 15  0  0  1  0  0  0  0  0999 V2000
    1.2464  -19.4819   21.4153 N   0  0  0  0  0  0  0  0  0  0  0  0
    2.2977  -18.5364   21.1967 C   0  0  0  0  0  0  0  0  0  0  0  0
    3.5473  -18.9141   21.9401 C   0  0  0  0  0  0  0  0  0  0  0  0
    3.5887  -18.9185   23.1945 O   0  0  0  0  0  0  0  0  0  0  0  0
    6.8789  -20.4954   21.1455 C   0  0  0  0  0  0  0  0  0  0  0  0
    5.9149  -19.6815   21.9744 C   0  0  2  0  0  0  0  0  0  0  0  0
    4.7459  -19.2857   21.2634 N   0  0  0  0  0  0  0  0  0  0  0  0
    6.6671  -18.5286   22.5480 C   0  0  0  0  0  0  0  0  0  0  0  0
    6.7855  -17.4261   21.9627 O   0  0  0  0  0  0  0  0  0  0  0  0
    7.2834  -18.6793   23.8216 N   0  0  0  0  0  0  0  0  0  0  0  0
    8.0792  -17.6316   24.4332 C   0  0  1  0  0  0  0  0  0  0  0  0
    7.2032  -16.6877   25.2457 C   0  0  0  0  0  0  0  0  0  0  0  0
    6.3079  -17.6197   26.5382 S   0  0  0  0  0  0  0  0  0  0  0  0
    9.1124  -18.2778   25.2842 C   0  0  0  0  0  0  0  0  0  0  0  0
   10.1599  -17.5685   25.8568 O   0  0  0  0  0  0  0  0  0  0  0  0
    9.0854  -19.5211   25.5299 O   0  0  0  0  0  0  0  0  0  0  0  0
  2  1  1  0
  3  2  1  0
  4  3  2  0
  6  5  1  6
  6  8  1  0
  6  7  1  0
  7  3  1  0
  8  9  2  0
 10 11  1  0
 10  8  1  0
 11 12  1  1
 12 13  1  0
 14 15  1  0
 14 11  1  0
 16 14  2  0
M  END
$$$$
