NDH.pdb
     RDKit          3D

 27 27  0  0  1  0  0  0  0  0999 V2000
    8.3893  -12.4037   18.0813 N   0  0  0  0  0  0  0  0  0  0  0  0
    7.8156  -13.6966   17.9483 C   0  0  0  0  0  0  0  0  0  0  0  0
    7.3781  -14.0362   16.8212 O   0  0  0  0  0  0  0  0  0  0  0  0
    7.6981  -14.6717   19.0480 C   0  0  0  0  0  0  0  0  0  0  0  0
    8.0189  -14.0556   20.3941 C   0  0  2  0  0  0  0  0  0  0  0  0
    9.2804  -13.3463   20.3685 N   0  0  0  0  0  0  0  0  0  0  0  0
    8.0824  -15.0753   21.4638 C   0  0  0  0  0  0  0  0  0  0  0  0
    7.1040  -15.8309   21.6719 O   0  0  0  0  0  0  0  0  0  0  0  0
    9.2417  -15.2407   22.2921 N   0  0  0  0  0  0  0  0  0  0  0  0
    9.7164  -16.5478   22.6903 C   0  0  1  0  0  0  0  0  0  0  0  0
   10.8544  -16.9965   21.8157 C   0  0  0  0  0  0  0  0  0  0  0  0
   11.3809  -18.3288   22.1880 C   0  0  0  0  0  0  0  0  0  0  0  0
   11.5899  -18.7039   23.3646 O   0  0  0  0  0  0  0  0  0  0  0  0
   10.2423  -16.5060   24.0938 C   0  0  0  0  0  0  0  0  0  0  0  0
   10.8759  -17.4803   24.5600 O   0  0  0  0  0  0  0  0  0  0  0  0
   11.6599  -19.2168   21.1694 O   0  0  0  0  0  0  0  0  0  0  0  0
   10.0474  -15.3838   24.9338 N   0  0  0  0  0  0  0  0  0  0  0  0
    9.3328  -15.4665   26.2195 C   0  0  1  0  0  0  0  0  0  0  0  0
    7.8638  -15.5436   25.9935 C   0  0  0  0  0  0  0  0  0  0  0  0
    7.2636  -14.1994   25.9127 C   0  0  0  0  0  0  0  0  0  0  0  0
    7.9922  -12.9988   26.0670 C   0  0  0  0  0  0  0  0  0  0  0  0
    7.1865  -11.9425   25.9438 N   0  0  0  0  0  0  0  0  0  0  0  0
    5.9588  -12.4256   25.7144 C   0  0  0  0  0  0  0  0  0  0  0  0
    6.0148  -13.7647   25.6978 N   0  0  0  0  0  0  0  0  0  0  0  0
    9.7787  -16.7785   26.8232 C   0  0  0  0  0  0  0  0  0  0  0  0
   10.3217  -17.6757   26.1036 O   0  0  0  0  0  0  0  0  0  0  0  0
    9.5963  -17.0035   28.1636 O   0  0  0  0  0  0  0  0  0  0  0  0
  2  3  2  0
  2  1  1  0
  4  2  1  0
  5  4  1  0
  5  6  1  6
  7  8  2  0
  7  5  1  0
  9  7  1  0
 10  9  1  0
 10 11  1  6
 12 11  1  0
 13 12  2  0
 14 10  1  0
 14 17  1  0
 15 14  2  0
 16 12  1  0
 18 17  1  0
 18 25  1  0
 18 19  1  6
 20 19  1  0
 21 20  2  0
 22 21  1  0
 23 22  1  0
 23 24  2  0
 24 20  1  0
 25 27  1  0
 26 25  2  0
M  END
$$$$
