NDH.pdb
     RDKit          3D

 27 27  0  0  1  0  0  0  0  0999 V2000
    9.0758  -13.7799   19.5407 N   0  0  0  0  0  0  0  0  0  0  0  0
    7.7069  -13.5797   19.8634 C   0  0  0  0  0  0  0  0  0  0  0  0
    6.9836  -12.9833   19.0278 O   0  0  0  0  0  0  0  0  0  0  0  0
    7.0740  -14.0262   21.1181 C   0  0  0  0  0  0  0  0  0  0  0  0
    8.0619  -14.7005   22.0475 C   0  0  2  0  0  0  0  0  0  0  0  0
    8.8121  -15.7352   21.3679 N   0  0  0  0  0  0  0  0  0  0  0  0
    7.3896  -15.3077   23.2168 C   0  0  0  0  0  0  0  0  0  0  0  0
    6.6210  -14.6192   23.9286 O   0  0  0  0  0  0  0  0  0  0  0  0
    7.5837  -16.6818   23.5797 N   0  0  0  0  0  0  0  0  0  0  0  0
    6.9398  -17.2651   24.7362 C   0  0  1  0  0  0  0  0  0  0  0  0
    6.2342  -18.5422   24.3724 C   0  0  0  0  0  0  0  0  0  0  0  0
    6.9429  -19.3193   23.3308 C   0  0  0  0  0  0  0  0  0  0  0  0
    7.8811  -20.1172   23.5586 O   0  0  0  0  0  0  0  0  0  0  0  0
    7.9592  -17.6178   25.7777 C   0  0  0  0  0  0  0  0  0  0  0  0
    7.6417  -18.3330   26.7553 O   0  0  0  0  0  0  0  0  0  0  0  0
    6.5422  -19.1527   22.0211 O   0  0  0  0  0  0  0  0  0  0  0  0
    9.2977  -17.1648   25.6996 N   0  0  0  0  0  0  0  0  0  0  0  0
   10.3466  -17.6175   26.6299 C   0  0  1  0  0  0  0  0  0  0  0  0
   11.2094  -16.4749   27.0361 C   0  0  0  0  0  0  0  0  0  0  0  0
   10.4057  -15.3630   27.5759 C   0  0  0  0  0  0  0  0  0  0  0  0
    9.5590  -14.5476   26.7921 C   0  0  0  0  0  0  0  0  0  0  0  0
    8.9616  -13.6268   27.5505 N   0  0  0  0  0  0  0  0  0  0  0  0
    9.3976  -13.8235   28.8014 C   0  0  0  0  0  0  0  0  0  0  0  0
   10.2534  -14.8550   28.8061 N   0  0  0  0  0  0  0  0  0  0  0  0
    9.5966  -18.0905   27.8539 C   0  0  0  0  0  0  0  0  0  0  0  0
    8.3254  -18.0646   27.8896 O   0  0  0  0  0  0  0  0  0  0  0  0
   10.2955  -18.5542   28.9388 O   0  0  0  0  0  0  0  0  0  0  0  0
  2  3  2  0
  2  1  1  0
  4  2  1  0
  5  4  1  0
  5  6  1  6
  7  8  2  0
  7  5  1  0
  9  7  1  0
 10  9  1  0
 10 11  1  6
 12 11  1  0
 13 12  2  0
 14 10  1  0
 14 17  1  0
 15 14  2  0
 16 12  1  0
 18 17  1  0
 18 25  1  0
 18 19  1  1
 20 19  1  0
 21 20  2  0
 22 21  1  0
 23 22  1  0
 23 24  2  0
 24 20  1  0
 25 27  1  0
 26 25  2  0
M  END
$$$$
