NDH.pdb
     RDKit          3D

 27 27  0  0  1  0  0  0  0  0999 V2000
    9.0819  -18.1983   13.0517 N   0  0  0  0  0  0  0  0  0  0  0  0
    8.6288  -17.4198   14.1504 C   0  0  0  0  0  0  0  0  0  0  0  0
    8.2218  -16.2542   13.9212 O   0  0  0  0  0  0  0  0  0  0  0  0
    8.6036  -17.8889   15.5481 C   0  0  0  0  0  0  0  0  0  0  0  0
    9.4098  -16.9931   16.4656 C   0  0  2  0  0  0  0  0  0  0  0  0
   10.7807  -16.8675   16.0183 N   0  0  0  0  0  0  0  0  0  0  0  0
    9.4206  -17.4980   17.8559 C   0  0  0  0  0  0  0  0  0  0  0  0
    8.3432  -17.6522   18.4779 O   0  0  0  0  0  0  0  0  0  0  0  0
   10.6386  -17.8264   18.5387 N   0  0  0  0  0  0  0  0  0  0  0  0
   10.6460  -18.2837   19.9111 C   0  0  1  0  0  0  0  0  0  0  0  0
   11.2542  -19.6547   20.0182 C   0  0  0  0  0  0  0  0  0  0  0  0
   11.2415  -20.1880   21.3989 C   0  0  0  0  0  0  0  0  0  0  0  0
   10.2584  -20.1264   22.1725 O   0  0  0  0  0  0  0  0  0  0  0  0
   11.4831  -17.3735   20.7591 C   0  0  0  0  0  0  0  0  0  0  0  0
   12.5261  -17.8008   21.3045 O   0  0  0  0  0  0  0  0  0  0  0  0
   12.3907  -20.7937   21.8641 O   0  0  0  0  0  0  0  0  0  0  0  0
   11.1346  -16.0187   20.9739 N   0  0  0  0  0  0  0  0  0  0  0  0
   10.4017  -15.5652   22.1687 C   0  0  1  0  0  0  0  0  0  0  0  0
    8.9823  -16.0084   22.1071 C   0  0  0  0  0  0  0  0  0  0  0  0
    8.1882  -15.1389   21.2199 C   0  0  0  0  0  0  0  0  0  0  0  0
    8.7327  -14.0826   20.4558 C   0  0  0  0  0  0  0  0  0  0  0  0
    7.7776  -13.4731   19.7513 N   0  0  0  0  0  0  0  0  0  0  0  0
    6.6321  -14.1047   20.0380 C   0  0  0  0  0  0  0  0  0  0  0  0
    6.8860  -15.0908   20.9096 N   0  0  0  0  0  0  0  0  0  0  0  0
   11.0629  -16.2854   23.3214 C   0  0  0  0  0  0  0  0  0  0  0  0
   11.4216  -15.6532   24.3651 O   0  0  0  0  0  0  0  0  0  0  0  0
   11.2775  -17.6374   23.2410 O   0  0  0  0  0  0  0  0  0  0  0  0
  2  3  2  0
  2  1  1  0
  4  2  1  0
  5  4  1  0
  5  6  1  6
  7  8  2  0
  7  5  1  0
  9  7  1  0
 10  9  1  0
 10 11  1  6
 12 11  1  0
 13 12  2  0
 14 10  1  0
 14 17  1  0
 15 14  2  0
 16 12  1  0
 18 17  1  0
 18 25  1  0
 18 19  1  6
 20 19  1  0
 21 20  2  0
 22 21  1  0
 23 22  1  0
 23 24  2  0
 24 20  1  0
 25 27  1  0
 26 25  2  0
M  END
$$$$
