NDH.pdb
     RDKit          3D

 27 27  0  0  1  0  0  0  0  0999 V2000
   10.9170  -16.4763   19.3699 N   0  0  0  0  0  0  0  0  0  0  0  0
    9.6133  -16.7586   19.8585 C   0  0  0  0  0  0  0  0  0  0  0  0
    8.6819  -16.8759   19.0244 O   0  0  0  0  0  0  0  0  0  0  0  0
    9.2771  -16.9241   21.2846 C   0  0  0  0  0  0  0  0  0  0  0  0
   10.4793  -16.7165   22.1824 C   0  0  2  0  0  0  0  0  0  0  0  0
   11.6864  -17.2512   21.5889 N   0  0  0  0  0  0  0  0  0  0  0  0
   10.2930  -17.3514   23.5054 C   0  0  0  0  0  0  0  0  0  0  0  0
    9.2793  -17.0862   24.1937 O   0  0  0  0  0  0  0  0  0  0  0  0
   11.2437  -18.2788   24.0471 N   0  0  0  0  0  0  0  0  0  0  0  0
   11.0617  -18.8890   25.3460 C   0  0  1  0  0  0  0  0  0  0  0  0
   11.9049  -20.1265   25.4821 C   0  0  0  0  0  0  0  0  0  0  0  0
   11.6656  -20.8543   26.7486 C   0  0  0  0  0  0  0  0  0  0  0  0
   10.5561  -21.3166   27.1007 O   0  0  0  0  0  0  0  0  0  0  0  0
   11.4984  -17.9487   26.4292 C   0  0  0  0  0  0  0  0  0  0  0  0
   12.6249  -17.4044   26.3766 O   0  0  0  0  0  0  0  0  0  0  0  0
   12.7379  -21.0350   27.5980 O   0  0  0  0  0  0  0  0  0  0  0  0
   10.6701  -17.6436   27.5354 N   0  0  0  0  0  0  0  0  0  0  0  0
   11.1234  -16.8116   28.6636 C   0  0  1  0  0  0  0  0  0  0  0  0
   10.0756  -15.8215   29.0332 C   0  0  0  0  0  0  0  0  0  0  0  0
    9.8737  -14.8303   27.9605 C   0  0  0  0  0  0  0  0  0  0  0  0
   10.7168  -14.7035   26.8339 C   0  0  0  0  0  0  0  0  0  0  0  0
   10.2881  -13.7243   26.0356 N   0  0  0  0  0  0  0  0  0  0  0  0
    9.1927  -13.2148   26.6135 C   0  0  0  0  0  0  0  0  0  0  0  0
    8.9552  -13.8772   27.7543 N   0  0  0  0  0  0  0  0  0  0  0  0
   11.2761  -17.7774   29.8162 C   0  0  0  0  0  0  0  0  0  0  0  0
   11.0046  -19.0116   29.6724 O   0  0  0  0  0  0  0  0  0  0  0  0
   11.7139  -17.3171   31.0315 O   0  0  0  0  0  0  0  0  0  0  0  0
  2  3  2  0
  2  1  1  0
  4  2  1  0
  5  4  1  0
  5  6  1  6
  7  8  2  0
  7  5  1  0
  9  7  1  0
 10  9  1  0
 10 11  1  6
 12 11  1  0
 13 12  2  0
 14 10  1  0
 14 17  1  0
 15 14  2  0
 16 12  1  0
 18 17  1  0
 18 25  1  0
 18 19  1  1
 20 19  1  0
 21 20  2  0
 22 21  1  0
 23 22  1  0
 23 24  2  0
 24 20  1  0
 25 27  1  0
 26 25  2  0
M  END
$$$$
