NDH.pdb
     RDKit          3D

 27 27  0  0  1  0  0  0  0  0999 V2000
    7.1743  -12.5052   17.4674 N   0  0  0  0  0  0  0  0  0  0  0  0
    7.8074  -13.7768   17.4893 C   0  0  0  0  0  0  0  0  0  0  0  0
    8.4829  -14.1183   16.4872 O   0  0  0  0  0  0  0  0  0  0  0  0
    7.7255  -14.7277   18.6132 C   0  0  0  0  0  0  0  0  0  0  0  0
    8.6867  -14.3760   19.7299 C   0  0  2  0  0  0  0  0  0  0  0  0
    9.9844  -13.9934   19.2153 N   0  0  0  0  0  0  0  0  0  0  0  0
    8.8746  -15.5037   20.6685 C   0  0  0  0  0  0  0  0  0  0  0  0
    7.8819  -16.0391   21.2157 O   0  0  0  0  0  0  0  0  0  0  0  0
   10.1732  -16.0229   20.9868 N   0  0  0  0  0  0  0  0  0  0  0  0
   10.3587  -17.0681   21.9695 C   0  0  1  0  0  0  0  0  0  0  0  0
   11.7303  -17.6743   21.8580 C   0  0  0  0  0  0  0  0  0  0  0  0
   11.9301  -18.8264   22.7656 C   0  0  0  0  0  0  0  0  0  0  0  0
   11.0292  -19.6308   23.0973 O   0  0  0  0  0  0  0  0  0  0  0  0
   10.2473  -16.5061   23.3551 C   0  0  0  0  0  0  0  0  0  0  0  0
   10.9463  -15.5249   23.6966 O   0  0  0  0  0  0  0  0  0  0  0  0
   13.1945  -19.0266   23.2805 O   0  0  0  0  0  0  0  0  0  0  0  0
    9.3635  -17.0521   24.3163 N   0  0  0  0  0  0  0  0  0  0  0  0
    9.3132  -16.5789   25.7107 C   0  0  1  0  0  0  0  0  0  0  0  0
    7.9222  -16.2013   26.0814 C   0  0  0  0  0  0  0  0  0  0  0  0
    7.6425  -14.7932   25.7458 C   0  0  0  0  0  0  0  0  0  0  0  0
    8.6164  -13.8861   25.2715 C   0  0  0  0  0  0  0  0  0  0  0  0
    8.0735  -12.6870   25.0541 N   0  0  0  0  0  0  0  0  0  0  0  0
    6.7774  -12.7928   25.3740 C   0  0  0  0  0  0  0  0  0  0  0  0
    6.5317  -14.0454   25.7830 N   0  0  0  0  0  0  0  0  0  0  0  0
    9.7037  -17.7816   26.5388 C   0  0  0  0  0  0  0  0  0  0  0  0
    9.9638  -18.8970   25.9856 O   0  0  0  0  0  0  0  0  0  0  0  0
    9.7795  -17.6681   27.9032 O   0  0  0  0  0  0  0  0  0  0  0  0
  2  3  2  0
  2  1  1  0
  4  2  1  0
  5  4  1  0
  5  6  1  6
  7  8  2  0
  7  5  1  0
  9  7  1  0
 10  9  1  0
 10 11  1  1
 12 11  1  0
 13 12  2  0
 14 10  1  0
 14 17  1  0
 15 14  2  0
 16 12  1  0
 18 17  1  0
 18 25  1  0
 18 19  1  1
 20 19  1  0
 21 20  2  0
 22 21  1  0
 23 22  1  0
 23 24  2  0
 24 20  1  0
 25 27  1  0
 26 25  2  0
M  END
$$$$
