NDH.pdb
     RDKit          3D

 27 27  0  0  1  0  0  0  0  0999 V2000
    7.8599  -19.7184   11.5634 N   0  0  0  0  0  0  0  0  0  0  0  0
    8.2881  -18.6088   12.3403 C   0  0  0  0  0  0  0  0  0  0  0  0
    8.9941  -17.7332   11.7817 O   0  0  0  0  0  0  0  0  0  0  0  0
    7.9589  -18.4136   13.7642 C   0  0  0  0  0  0  0  0  0  0  0  0
    9.1264  -17.8506   14.5482 C   0  0  2  0  0  0  0  0  0  0  0  0
   10.2772  -18.7269   14.4936 N   0  0  0  0  0  0  0  0  0  0  0  0
    8.7788  -17.6303   15.9689 C   0  0  0  0  0  0  0  0  0  0  0  0
    7.8558  -16.8394   16.2758 O   0  0  0  0  0  0  0  0  0  0  0  0
    9.4681  -18.2978   17.0352 N   0  0  0  0  0  0  0  0  0  0  0  0
    9.1464  -18.0535   18.4242 C   0  0  1  0  0  0  0  0  0  0  0  0
    8.6526  -19.3077   19.0908 C   0  0  0  0  0  0  0  0  0  0  0  0
    7.3223  -19.7373   18.6042 C   0  0  0  0  0  0  0  0  0  0  0  0
    7.1392  -20.5526   17.6712 O   0  0  0  0  0  0  0  0  0  0  0  0
   10.3703  -17.6202   19.1742 C   0  0  0  0  0  0  0  0  0  0  0  0
   11.4480  -18.2430   19.0375 O   0  0  0  0  0  0  0  0  0  0  0  0
    6.2096  -19.2029   19.2208 O   0  0  0  0  0  0  0  0  0  0  0  0
   10.3576  -16.5097   20.0513 N   0  0  0  0  0  0  0  0  0  0  0  0
   10.8787  -16.5766   21.4277 C   0  0  1  0  0  0  0  0  0  0  0  0
    9.7986  -16.9681   22.3738 C   0  0  0  0  0  0  0  0  0  0  0  0
   10.3274  -17.1726   23.7347 C   0  0  0  0  0  0  0  0  0  0  0  0
   11.6829  -16.9926   24.0904 C   0  0  0  0  0  0  0  0  0  0  0  0
   11.8653  -17.2492   25.3868 N   0  0  0  0  0  0  0  0  0  0  0  0
   10.6673  -17.5896   25.8792 C   0  0  0  0  0  0  0  0  0  0  0  0
    9.7621  -17.5412   24.8919 N   0  0  0  0  0  0  0  0  0  0  0  0
   11.8974  -17.6929   21.3991 C   0  0  0  0  0  0  0  0  0  0  0  0
   11.5397  -18.8963   21.1955 O   0  0  0  0  0  0  0  0  0  0  0  0
   13.2237  -17.4039   21.5938 O   0  0  0  0  0  0  0  0  0  0  0  0
  2  3  2  0
  2  1  1  0
  4  2  1  0
  5  4  1  0
  5  6  1  1
  7  8  2  0
  7  5  1  0
  9  7  1  0
 10  9  1  0
 10 11  1  1
 12 11  1  0
 13 12  2  0
 14 10  1  0
 14 17  1  0
 15 14  2  0
 16 12  1  0
 18 17  1  0
 18 25  1  0
 18 19  1  1
 20 19  1  0
 21 20  2  0
 22 21  1  0
 23 22  1  0
 23 24  2  0
 24 20  1  0
 25 27  1  0
 26 25  2  0
M  END
$$$$
