NDH.pdb
     RDKit          3D

 27 27  0  0  1  0  0  0  0  0999 V2000
    8.4117  -12.5387   18.2583 N   0  0  0  0  0  0  0  0  0  0  0  0
    8.4532  -13.9460   18.4482 C   0  0  0  0  0  0  0  0  0  0  0  0
    9.5742  -14.5119   18.4324 O   0  0  0  0  0  0  0  0  0  0  0  0
    7.2648  -14.7918   18.6636 C   0  0  0  0  0  0  0  0  0  0  0  0
    7.1151  -15.2079   20.1123 C   0  0  2  0  0  0  0  0  0  0  0  0
    7.0753  -14.0612   20.9948 N   0  0  0  0  0  0  0  0  0  0  0  0
    8.2203  -16.0893   20.5477 C   0  0  0  0  0  0  0  0  0  0  0  0
    8.4778  -17.1376   19.9101 O   0  0  0  0  0  0  0  0  0  0  0  0
    9.0286  -15.7897   21.6941 N   0  0  0  0  0  0  0  0  0  0  0  0
   10.1580  -16.6122   22.0691 C   0  0  1  0  0  0  0  0  0  0  0  0
   11.2048  -16.6133   20.9896 C   0  0  0  0  0  0  0  0  0  0  0  0
   11.9281  -17.9005   20.8853 C   0  0  0  0  0  0  0  0  0  0  0  0
   11.6789  -18.9110   21.5821 O   0  0  0  0  0  0  0  0  0  0  0  0
   10.8123  -16.0675   23.3033 C   0  0  0  0  0  0  0  0  0  0  0  0
   11.0901  -14.8492   23.3854 O   0  0  0  0  0  0  0  0  0  0  0  0
   12.9453  -17.9923   19.9575 O   0  0  0  0  0  0  0  0  0  0  0  0
   11.1369  -16.8931   24.4059 N   0  0  0  0  0  0  0  0  0  0  0  0
   11.1221  -16.4063   25.7964 C   0  0  1  0  0  0  0  0  0  0  0  0
    9.7438  -16.0091   26.1933 C   0  0  0  0  0  0  0  0  0  0  0  0
    9.7190  -15.4550   27.5592 C   0  0  0  0  0  0  0  0  0  0  0  0
   10.7934  -14.7480   28.1441 C   0  0  0  0  0  0  0  0  0  0  0  0
   10.4844  -14.3686   29.3853 N   0  0  0  0  0  0  0  0  0  0  0  0
    9.2418  -14.8097   29.6194 C   0  0  0  0  0  0  0  0  0  0  0  0
    8.7966  -15.4526   28.5307 N   0  0  0  0  0  0  0  0  0  0  0  0
   11.5167  -17.6055   26.6275 C   0  0  0  0  0  0  0  0  0  0  0  0
   11.2815  -18.7870   26.2194 O   0  0  0  0  0  0  0  0  0  0  0  0
   12.1369  -17.4170   27.8359 O   0  0  0  0  0  0  0  0  0  0  0  0
  2  3  2  0
  2  1  1  0
  4  2  1  0
  5  4  1  0
  5  6  1  1
  7  8  2  0
  7  5  1  0
  9  7  1  0
 10  9  1  0
 10 11  1  6
 12 11  1  0
 13 12  2  0
 14 10  1  0
 14 17  1  0
 15 14  2  0
 16 12  1  0
 18 17  1  0
 18 25  1  0
 18 19  1  1
 20 19  1  0
 21 20  2  0
 22 21  1  0
 23 22  1  0
 23 24  2  0
 24 20  1  0
 25 27  1  0
 26 25  2  0
M  END
$$$$
