NDH.pdb
     RDKit          3D

 27 27  0  0  1  0  0  0  0  0999 V2000
    7.7136  -11.9888   17.9306 N   0  0  0  0  0  0  0  0  0  0  0  0
    7.7266  -13.4074   17.8561 C   0  0  0  0  0  0  0  0  0  0  0  0
    7.2350  -13.9504   16.8361 O   0  0  0  0  0  0  0  0  0  0  0  0
    8.2803  -14.2902   18.8993 C   0  0  0  0  0  0  0  0  0  0  0  0
    9.6532  -14.8152   18.5333 C   0  0  2  0  0  0  0  0  0  0  0  0
    9.6545  -15.4390   17.2271 N   0  0  0  0  0  0  0  0  0  0  0  0
   10.1443  -15.8029   19.5188 C   0  0  0  0  0  0  0  0  0  0  0  0
   10.1115  -15.5393   20.7440 O   0  0  0  0  0  0  0  0  0  0  0  0
   10.6683  -17.0785   19.1242 N   0  0  0  0  0  0  0  0  0  0  0  0
   11.2175  -18.0097   20.0854 C   0  0  1  0  0  0  0  0  0  0  0  0
   11.3264  -19.3890   19.4966 C   0  0  0  0  0  0  0  0  0  0  0  0
   10.0139  -19.9703   19.1356 C   0  0  0  0  0  0  0  0  0  0  0  0
    8.9980  -19.9332   19.8672 O   0  0  0  0  0  0  0  0  0  0  0  0
   12.6049  -17.5973   20.4765 C   0  0  0  0  0  0  0  0  0  0  0  0
   13.5608  -17.7676   19.6857 O   0  0  0  0  0  0  0  0  0  0  0  0
    9.9033  -20.5950   17.9103 O   0  0  0  0  0  0  0  0  0  0  0  0
   12.8858  -17.0093   21.7328 N   0  0  0  0  0  0  0  0  0  0  0  0
   14.2151  -16.4802   22.0846 C   0  0  1  0  0  0  0  0  0  0  0  0
   14.2687  -15.0116   21.8495 C   0  0  0  0  0  0  0  0  0  0  0  0
   14.6330  -14.7060   20.4540 C   0  0  0  0  0  0  0  0  0  0  0  0
   14.9012  -15.6885   19.4747 C   0  0  0  0  0  0  0  0  0  0  0  0
   15.2027  -15.1169   18.3076 N   0  0  0  0  0  0  0  0  0  0  0  0
   15.1370  -13.7938   18.5041 C   0  0  0  0  0  0  0  0  0  0  0  0
   14.7985  -13.5603   19.7798 N   0  0  0  0  0  0  0  0  0  0  0  0
   14.3413  -16.7168   23.5721 C   0  0  0  0  0  0  0  0  0  0  0  0
   13.3555  -17.1500   24.2489 O   0  0  0  0  0  0  0  0  0  0  0  0
   15.5340  -16.4621   24.1991 O   0  0  0  0  0  0  0  0  0  0  0  0
  2  3  2  0
  2  1  1  0
  4  2  1  0
  5  4  1  0
  5  6  1  6
  7  8  2  0
  7  5  1  0
  9  7  1  0
 10  9  1  0
 10 11  1  6
 12 11  1  0
 13 12  2  0
 14 10  1  0
 14 17  1  0
 15 14  2  0
 16 12  1  0
 18 17  1  0
 18 25  1  0
 18 19  1  1
 20 19  1  0
 21 20  2  0
 22 21  1  0
 23 22  1  0
 23 24  2  0
 24 20  1  0
 25 27  1  0
 26 25  2  0
M  END
$$$$
