NDH.pdb
     RDKit          3D

 27 27  0  0  1  0  0  0  0  0999 V2000
   12.7558  -16.1492   14.8602 N   0  0  0  0  0  0  0  0  0  0  0  0
   12.9467  -17.5461   14.6856 C   0  0  0  0  0  0  0  0  0  0  0  0
   13.5516  -17.9361   13.6565 O   0  0  0  0  0  0  0  0  0  0  0  0
   12.4811  -18.5743   15.6343 C   0  0  0  0  0  0  0  0  0  0  0  0
   11.7336  -17.9730   16.8066 C   0  0  2  0  0  0  0  0  0  0  0  0
   10.8470  -16.9096   16.3844 N   0  0  0  0  0  0  0  0  0  0  0  0
   12.6570  -17.4290   17.8261 C   0  0  0  0  0  0  0  0  0  0  0  0
   13.4547  -18.1900   18.4228 O   0  0  0  0  0  0  0  0  0  0  0  0
   12.6795  -16.0364   18.1693 N   0  0  0  0  0  0  0  0  0  0  0  0
   13.5486  -15.5180   19.2030 C   0  0  1  0  0  0  0  0  0  0  0  0
   14.1446  -14.1995   18.7936 C   0  0  0  0  0  0  0  0  0  0  0  0
   15.2254  -14.3382   17.7918 C   0  0  0  0  0  0  0  0  0  0  0  0
   15.2250  -13.7837   16.6687 O   0  0  0  0  0  0  0  0  0  0  0  0
   12.7711  -15.2676   20.4603 C   0  0  0  0  0  0  0  0  0  0  0  0
   13.2985  -14.6565   21.4176 O   0  0  0  0  0  0  0  0  0  0  0  0
   16.3057  -15.1322   18.1183 O   0  0  0  0  0  0  0  0  0  0  0  0
   11.4336  -15.7038   20.6137 N   0  0  0  0  0  0  0  0  0  0  0  0
   10.6406  -15.4289   21.8245 C   0  0  1  0  0  0  0  0  0  0  0  0
    9.1923  -15.3514   21.4908 C   0  0  0  0  0  0  0  0  0  0  0  0
    8.9362  -14.3375   20.4516 C   0  0  0  0  0  0  0  0  0  0  0  0
    9.9338  -13.5028   19.9000 C   0  0  0  0  0  0  0  0  0  0  0  0
    9.4086  -12.6871   18.9841 N   0  0  0  0  0  0  0  0  0  0  0  0
    8.1010  -12.9705   18.9278 C   0  0  0  0  0  0  0  0  0  0  0  0
    7.8307  -13.9502   19.8016 N   0  0  0  0  0  0  0  0  0  0  0  0
   10.8497  -16.6403   22.7040 C   0  0  0  0  0  0  0  0  0  0  0  0
   11.5030  -17.6468   22.2821 O   0  0  0  0  0  0  0  0  0  0  0  0
   10.3296  -16.6536   23.9727 O   0  0  0  0  0  0  0  0  0  0  0  0
  2  3  2  0
  2  1  1  0
  4  2  1  0
  5  4  1  0
  5  6  1  6
  7  8  2  0
  7  5  1  0
  9  7  1  0
 10  9  1  0
 10 11  1  6
 12 11  1  0
 13 12  2  0
 14 10  1  0
 14 17  1  0
 15 14  2  0
 16 12  1  0
 18 17  1  0
 18 25  1  0
 18 19  1  6
 20 19  1  0
 21 20  2  0
 22 21  1  0
 23 22  1  0
 23 24  2  0
 24 20  1  0
 25 27  1  0
 26 25  2  0
M  END
$$$$
