NDH.pdb
     RDKit          3D

 27 27  0  0  1  0  0  0  0  0999 V2000
    7.3515  -14.2345   15.9640 N   0  0  0  0  0  0  0  0  0  0  0  0
    7.9132  -13.7929   17.1919 C   0  0  0  0  0  0  0  0  0  0  0  0
    8.6305  -12.7622   17.1771 O   0  0  0  0  0  0  0  0  0  0  0  0
    7.7109  -14.4649   18.4887 C   0  0  0  0  0  0  0  0  0  0  0  0
    8.9268  -14.3538   19.3852 C   0  0  2  0  0  0  0  0  0  0  0  0
   10.1572  -14.4486   18.6286 N   0  0  0  0  0  0  0  0  0  0  0  0
    8.9403  -15.4055   20.4252 C   0  0  0  0  0  0  0  0  0  0  0  0
    7.9382  -15.5787   21.1583 O   0  0  0  0  0  0  0  0  0  0  0  0
   10.0766  -16.2552   20.6361 N   0  0  0  0  0  0  0  0  0  0  0  0
   10.0892  -17.2738   21.6631 C   0  0  1  0  0  0  0  0  0  0  0  0
   11.2683  -18.1919   21.4960 C   0  0  0  0  0  0  0  0  0  0  0  0
   10.9629  -19.3832   20.6723 C   0  0  0  0  0  0  0  0  0  0  0  0
    9.9382  -20.0913   20.8042 O   0  0  0  0  0  0  0  0  0  0  0  0
   10.2206  -16.6459   23.0183 C   0  0  0  0  0  0  0  0  0  0  0  0
   11.1601  -15.8536   23.2586 O   0  0  0  0  0  0  0  0  0  0  0  0
   11.8689  -19.7367   19.6934 O   0  0  0  0  0  0  0  0  0  0  0  0
    9.3048  -16.9182   24.0623 N   0  0  0  0  0  0  0  0  0  0  0  0
    9.4603  -16.3694   25.4207 C   0  0  1  0  0  0  0  0  0  0  0  0
    8.1315  -16.0333   26.0006 C   0  0  0  0  0  0  0  0  0  0  0  0
    7.6044  -14.7767   25.4378 C   0  0  0  0  0  0  0  0  0  0  0  0
    8.3470  -13.9134   24.6015 C   0  0  0  0  0  0  0  0  0  0  0  0
    7.6124  -12.8575   24.2475 N   0  0  0  0  0  0  0  0  0  0  0  0
    6.4169  -13.0134   24.8306 C   0  0  0  0  0  0  0  0  0  0  0  0
    6.4221  -14.1542   25.5341 N   0  0  0  0  0  0  0  0  0  0  0  0
   10.0454  -17.5047   26.2290 C   0  0  0  0  0  0  0  0  0  0  0  0
   10.3175  -17.3539   27.4623 O   0  0  0  0  0  0  0  0  0  0  0  0
   10.2847  -18.7124   25.6252 O   0  0  0  0  0  0  0  0  0  0  0  0
  2  3  2  0
  2  1  1  0
  4  2  1  0
  5  4  1  0
  5  6  1  6
  7  8  2  0
  7  5  1  0
  9  7  1  0
 10  9  1  0
 10 11  1  6
 12 11  1  0
 13 12  2  0
 14 10  1  0
 14 17  1  0
 15 14  2  0
 16 12  1  0
 18 17  1  0
 18 25  1  0
 18 19  1  1
 20 19  1  0
 21 20  2  0
 22 21  1  0
 23 22  1  0
 23 24  2  0
 24 20  1  0
 25 27  1  0
 26 25  2  0
M  END
$$$$
