NDH.pdb
     RDKit          3D

 27 27  0  0  1  0  0  0  0  0999 V2000
    7.7880  -14.1541   14.2595 N   0  0  0  0  0  0  0  0  0  0  0  0
    8.3720  -15.4099   14.5761 C   0  0  0  0  0  0  0  0  0  0  0  0
    9.0472  -15.9883   13.6892 O   0  0  0  0  0  0  0  0  0  0  0  0
    8.2392  -16.0839   15.8808 C   0  0  0  0  0  0  0  0  0  0  0  0
    9.3939  -15.7655   16.8081 C   0  0  2  0  0  0  0  0  0  0  0  0
   10.6687  -16.0833   16.2003 N   0  0  0  0  0  0  0  0  0  0  0  0
    9.2926  -16.5047   18.0853 C   0  0  0  0  0  0  0  0  0  0  0  0
    8.2588  -16.4083   18.7879 O   0  0  0  0  0  0  0  0  0  0  0  0
   10.3502  -17.3461   18.5657 N   0  0  0  0  0  0  0  0  0  0  0  0
   10.2483  -18.0618   19.8187 C   0  0  1  0  0  0  0  0  0  0  0  0
   10.7535  -19.4709   19.6762 C   0  0  0  0  0  0  0  0  0  0  0  0
   10.6967  -20.2375   20.9411 C   0  0  0  0  0  0  0  0  0  0  0  0
    9.6566  -20.4130   21.6164 O   0  0  0  0  0  0  0  0  0  0  0  0
   11.0968  -17.4036   20.8652 C   0  0  0  0  0  0  0  0  0  0  0  0
   11.9419  -18.0709   21.5043 O   0  0  0  0  0  0  0  0  0  0  0  0
   11.8694  -20.7960   21.4069 O   0  0  0  0  0  0  0  0  0  0  0  0
   10.9792  -16.0261   21.1678 N   0  0  0  0  0  0  0  0  0  0  0  0
   10.2976  -15.5322   22.3769 C   0  0  1  0  0  0  0  0  0  0  0  0
    8.8321  -15.7729   22.2824 C   0  0  0  0  0  0  0  0  0  0  0  0
    8.1731  -14.7450   21.4562 C   0  0  0  0  0  0  0  0  0  0  0  0
    8.8459  -13.6441   20.8804 C   0  0  0  0  0  0  0  0  0  0  0  0
    7.9950  -12.8845   20.1884 N   0  0  0  0  0  0  0  0  0  0  0  0
    6.7921  -13.4624   20.3004 C   0  0  0  0  0  0  0  0  0  0  0  0
    6.9081  -14.5648   21.0539 N   0  0  0  0  0  0  0  0  0  0  0  0
   10.8371  -16.3891   23.4991 C   0  0  0  0  0  0  0  0  0  0  0  0
   10.5454  -16.1353   24.7108 O   0  0  0  0  0  0  0  0  0  0  0  0
   11.6500  -17.4541   23.2067 O   0  0  0  0  0  0  0  0  0  0  0  0
  2  3  2  0
  2  1  1  0
  4  2  1  0
  5  4  1  0
  5  6  1  6
  7  8  2  0
  7  5  1  0
  9  7  1  0
 10  9  1  0
 10 11  1  6
 12 11  1  0
 13 12  2  0
 14 10  1  0
 14 17  1  0
 15 14  2  0
 16 12  1  0
 18 17  1  0
 18 25  1  0
 18 19  1  6
 20 19  1  0
 21 20  2  0
 22 21  1  0
 23 22  1  0
 23 24  2  0
 24 20  1  0
 25 27  1  0
 26 25  2  0
M  END
$$$$
