NDH.pdb
     RDKit          3D

 27 27  0  0  1  0  0  0  0  0999 V2000
    9.0185  -14.5107   16.3411 N   0  0  0  0  0  0  0  0  0  0  0  0
    8.5441  -13.8060   17.4797 C   0  0  0  0  0  0  0  0  0  0  0  0
    8.0872  -12.6485   17.3106 O   0  0  0  0  0  0  0  0  0  0  0  0
    8.5512  -14.3429   18.8529 C   0  0  0  0  0  0  0  0  0  0  0  0
    9.1032  -15.7523   18.9121 C   0  0  2  0  0  0  0  0  0  0  0  0
    8.2793  -16.6790   18.1653 N   0  0  0  0  0  0  0  0  0  0  0  0
    9.2082  -16.2431   20.3034 C   0  0  0  0  0  0  0  0  0  0  0  0
    8.1740  -16.4058   20.9932 O   0  0  0  0  0  0  0  0  0  0  0  0
   10.4710  -16.5480   20.9115 N   0  0  0  0  0  0  0  0  0  0  0  0
   10.5650  -17.0722   22.2565 C   0  0  1  0  0  0  0  0  0  0  0  0
   11.9501  -17.5848   22.5387 C   0  0  0  0  0  0  0  0  0  0  0  0
   12.2795  -18.8121   21.7797 C   0  0  0  0  0  0  0  0  0  0  0  0
   13.1964  -18.8945   20.9303 O   0  0  0  0  0  0  0  0  0  0  0  0
   10.2939  -15.9896   23.2578 C   0  0  0  0  0  0  0  0  0  0  0  0
   11.0558  -14.9992   23.3387 O   0  0  0  0  0  0  0  0  0  0  0  0
   11.5251  -19.9410   22.0252 O   0  0  0  0  0  0  0  0  0  0  0  0
    9.1857  -16.0421   24.1366 N   0  0  0  0  0  0  0  0  0  0  0  0
    8.8230  -14.9262   25.0276 C   0  0  1  0  0  0  0  0  0  0  0  0
    7.3483  -14.7260   25.0357 C   0  0  0  0  0  0  0  0  0  0  0  0
    6.9579  -13.6623   25.9790 C   0  0  0  0  0  0  0  0  0  0  0  0
    7.8780  -12.8344   26.6603 C   0  0  0  0  0  0  0  0  0  0  0  0
    7.2362  -11.9664   27.4442 N   0  0  0  0  0  0  0  0  0  0  0  0
    5.9283  -12.2093   27.2892 C   0  0  0  0  0  0  0  0  0  0  0  0
    5.7736  -13.2165   26.4186 N   0  0  0  0  0  0  0  0  0  0  0  0
    9.2363  -15.3860   26.4069 C   0  0  0  0  0  0  0  0  0  0  0  0
    9.1951  -14.5905   27.3984 O   0  0  0  0  0  0  0  0  0  0  0  0
    9.6597  -16.6772   26.5913 O   0  0  0  0  0  0  0  0  0  0  0  0
  2  3  2  0
  2  1  1  0
  4  2  1  0
  5  4  1  0
  5  6  1  6
  7  8  2  0
  7  5  1  0
  9  7  1  0
 10  9  1  0
 10 11  1  1
 12 11  1  0
 13 12  2  0
 14 10  1  0
 14 17  1  0
 15 14  2  0
 16 12  1  0
 18 17  1  0
 18 25  1  0
 18 19  1  1
 20 19  1  0
 21 20  2  0
 22 21  1  0
 23 22  1  0
 23 24  2  0
 24 20  1  0
 25 27  1  0
 26 25  2  0
M  END
$$$$
