LEP.pdb
     RDKit          3D

 25 25  0  0  1  0  0  0  0  0999 V2000
    8.6202  -12.5105   19.0403 C   0  0  0  0  0  0  0  0  0  0  0  0
    7.7718  -13.6661   19.5614 C   0  0  2  0  0  0  0  0  0  0  0  0
    6.8416  -13.1315   20.5950 C   0  0  0  0  0  0  0  0  0  0  0  0
    8.7306  -14.7068   20.0802 C   0  0  0  0  0  0  0  0  0  0  0  0
    8.0336  -15.9831   20.4874 C   0  0  2  0  0  0  0  0  0  0  0  0
    6.9931  -16.3715   19.5952 N   0  0  0  0  0  0  0  0  0  0  0  0
    7.4575  -15.7571   21.8356 C   0  0  0  0  0  0  0  0  0  0  0  0
    6.3829  -15.0897   21.9195 O   0  0  0  0  0  0  0  0  0  0  0  0
    8.0271  -16.2354   23.0214 N   0  0  0  0  0  0  0  0  0  0  0  0
    7.4465  -15.8219   24.3387 C   0  0  1  0  0  0  0  0  0  0  0  0
    7.2459  -17.1823   25.0056 C   0  0  0  0  0  0  0  0  0  0  0  0
    6.5511  -18.1682   24.1316 C   0  0  0  0  0  0  0  0  0  0  0  0
    6.5040  -19.5103   24.8123 C   0  0  0  0  0  0  0  0  0  0  0  0
    7.1815  -19.7349   25.8338 O   0  0  0  0  0  0  0  0  0  0  0  0
    8.4133  -14.9986   25.0553 C   0  0  0  0  0  0  0  0  0  0  0  0
    9.6160  -15.0262   24.6407 O   0  0  0  0  0  0  0  0  0  0  0  0
    5.6944  -20.4777   24.2757 O   0  0  0  0  0  0  0  0  0  0  0  0
    8.0964  -14.1935   26.1495 N   0  0  0  0  0  0  0  0  0  0  0  0
    6.7328  -14.0614   26.6954 C   0  0  0  0  0  0  0  0  0  0  0  0
    6.6536  -12.5657   26.9159 C   0  0  0  0  0  0  0  0  0  0  0  0
    8.0725  -12.1524   27.2395 C   0  0  0  0  0  0  0  0  0  0  0  0
    8.9093  -13.3889   27.0203 C   0  0  1  0  0  0  0  0  0  0  0  0
    9.0583  -14.0575   28.3585 C   0  0  0  0  0  0  0  0  0  0  0  0
    9.9338  -13.6513   29.3357 O   0  0  0  0  0  0  0  0  0  0  0  0
    8.3246  -15.0524   28.5828 O   0  0  0  0  0  0  0  0  0  0  0  0
  2  1  1  1
  2  3  1  0
  4  2  1  0
  5  4  1  0
  5  7  1  0
  5  6  1  6
  7  8  2  0
  9  7  1  0
  9 10  1  0
 10 11  1  1
 11 12  1  0
 12 13  1  0
 13 17  1  0
 14 13  2  0
 15 10  1  0
 15 16  2  0
 18 15  1  0
 19 18  1  0
 20 19  1  0
 21 22  1  0
 21 20  1  0
 22 18  1  0
 22 23  1  1
 24 23  1  0
 25 23  2  0
M  END
$$$$
