LEP.pdb
     RDKit          3D

 25 25  0  0  1  0  0  0  0  0999 V2000
    7.6885  -12.1521   19.2127 C   0  0  0  0  0  0  0  0  0  0  0  0
    8.1535  -13.3623   20.0163 C   0  0  2  0  0  0  0  0  0  0  0  0
    9.6408  -13.4198   19.9526 C   0  0  0  0  0  0  0  0  0  0  0  0
    7.4684  -14.5658   19.4213 C   0  0  0  0  0  0  0  0  0  0  0  0
    7.8235  -15.8464   20.1385 C   0  0  2  0  0  0  0  0  0  0  0  0
    7.2127  -17.0023   19.5726 N   0  0  0  0  0  0  0  0  0  0  0  0
    7.3753  -15.7001   21.5450 C   0  0  0  0  0  0  0  0  0  0  0  0
    6.1580  -15.4151   21.7552 O   0  0  0  0  0  0  0  0  0  0  0  0
    8.2135  -15.8574   22.6550 N   0  0  0  0  0  0  0  0  0  0  0  0
    7.6321  -15.7956   24.0339 C   0  0  1  0  0  0  0  0  0  0  0  0
    7.6015  -17.2788   24.4011 C   0  0  0  0  0  0  0  0  0  0  0  0
    7.1144  -17.5312   25.7858 C   0  0  0  0  0  0  0  0  0  0  0  0
    7.1415  -19.0084   26.0756 C   0  0  0  0  0  0  0  0  0  0  0  0
    8.2195  -19.6311   26.1306 O   0  0  0  0  0  0  0  0  0  0  0  0
    8.5250  -15.0357   24.9007 C   0  0  0  0  0  0  0  0  0  0  0  0
    9.7626  -15.0433   24.6050 O   0  0  0  0  0  0  0  0  0  0  0  0
    5.9460  -19.6483   26.2771 O   0  0  0  0  0  0  0  0  0  0  0  0
    8.1034  -14.3104   26.0152 N   0  0  0  0  0  0  0  0  0  0  0  0
    6.7117  -14.3035   26.5032 C   0  0  0  0  0  0  0  0  0  0  0  0
    6.5132  -12.8300   26.7888 C   0  0  0  0  0  0  0  0  0  0  0  0
    7.8827  -12.3327   27.1963 C   0  0  0  0  0  0  0  0  0  0  0  0
    8.8169  -13.4939   26.9589 C   0  0  1  0  0  0  0  0  0  0  0  0
    8.9576  -14.2155   28.2701 C   0  0  0  0  0  0  0  0  0  0  0  0
    9.7687  -13.8038   29.2993 O   0  0  0  0  0  0  0  0  0  0  0  0
    8.2802  -15.2630   28.4192 O   0  0  0  0  0  0  0  0  0  0  0  0
  2  1  1  6
  2  3  1  0
  4  2  1  0
  5  4  1  0
  5  7  1  0
  5  6  1  6
  7  8  2  0
  9  7  1  0
  9 10  1  0
 10 11  1  1
 11 12  1  0
 12 13  1  0
 13 17  1  0
 14 13  2  0
 15 10  1  0
 15 16  2  0
 18 15  1  0
 19 18  1  0
 20 19  1  0
 21 22  1  0
 21 20  1  0
 22 18  1  0
 22 23  1  1
 24 23  1  0
 25 23  2  0
M  END
$$$$
