LEP.pdb
     RDKit          3D

 25 25  0  0  1  0  0  0  0  0999 V2000
    9.7155  -13.3271   19.6995 C   0  0  0  0  0  0  0  0  0  0  0  0
    8.2933  -13.5335   19.1881 C   0  0  2  0  0  0  0  0  0  0  0  0
    7.7350  -12.2035   18.8157 C   0  0  0  0  0  0  0  0  0  0  0  0
    7.5347  -14.2294   20.2889 C   0  0  0  0  0  0  0  0  0  0  0  0
    8.1269  -15.5738   20.6386 C   0  0  2  0  0  0  0  0  0  0  0  0
    7.5337  -16.6575   19.9293 N   0  0  0  0  0  0  0  0  0  0  0  0
    7.9238  -15.7773   22.0939 C   0  0  0  0  0  0  0  0  0  0  0  0
    6.7486  -15.6553   22.5536 O   0  0  0  0  0  0  0  0  0  0  0  0
    8.9497  -16.0956   22.9914 N   0  0  0  0  0  0  0  0  0  0  0  0
    8.6397  -16.2267   24.4509 C   0  0  1  0  0  0  0  0  0  0  0  0
    8.6312  -17.7467   24.6089 C   0  0  0  0  0  0  0  0  0  0  0  0
    9.7058  -18.4241   23.8314 C   0  0  0  0  0  0  0  0  0  0  0  0
   10.5406  -19.2769   24.7495 C   0  0  0  0  0  0  0  0  0  0  0  0
   10.2244  -19.4309   25.9450 O   0  0  0  0  0  0  0  0  0  0  0  0
    9.7032  -15.6017   25.2282 C   0  0  0  0  0  0  0  0  0  0  0  0
   10.8791  -15.6523   24.7446 O   0  0  0  0  0  0  0  0  0  0  0  0
   11.6583  -19.8788   24.2321 O   0  0  0  0  0  0  0  0  0  0  0  0
    9.5048  -14.9593   26.4505 N   0  0  0  0  0  0  0  0  0  0  0  0
    8.1812  -14.7993   27.0808 C   0  0  0  0  0  0  0  0  0  0  0  0
    8.2513  -13.3577   27.5377 C   0  0  0  0  0  0  0  0  0  0  0  0
    9.7139  -13.1267   27.8479 C   0  0  0  0  0  0  0  0  0  0  0  0
   10.4220  -14.3796   27.3935 C   0  0  1  0  0  0  0  0  0  0  0  0
   10.5577  -15.2658   28.6002 C   0  0  0  0  0  0  0  0  0  0  0  0
    9.8201  -16.4047   28.8134 O   0  0  0  0  0  0  0  0  0  0  0  0
   11.4080  -14.9289   29.4615 O   0  0  0  0  0  0  0  0  0  0  0  0
  2  1  1  1
  2  3  1  0
  4  2  1  0
  5  4  1  0
  5  7  1  0
  5  6  1  6
  7  8  2  0
  9  7  1  0
  9 10  1  0
 10 11  1  1
 11 12  1  0
 12 13  1  0
 13 17  1  0
 14 13  2  0
 15 10  1  0
 15 16  2  0
 18 15  1  0
 19 18  1  0
 20 19  1  0
 21 22  1  0
 21 20  1  0
 22 18  1  0
 22 23  1  1
 24 23  1  0
 25 23  2  0
M  END
$$$$
