LEP.pdb
     RDKit          3D

 25 25  0  0  1  0  0  0  0  0999 V2000
    9.5904  -13.5762   19.2753 C   0  0  0  0  0  0  0  0  0  0  0  0
    8.0965  -13.5570   18.9679 C   0  0  2  0  0  0  0  0  0  0  0  0
    7.7466  -12.2075   18.4428 C   0  0  0  0  0  0  0  0  0  0  0  0
    7.3870  -13.9188   20.2475 C   0  0  0  0  0  0  0  0  0  0  0  0
    7.7196  -15.3147   20.7181 C   0  0  2  0  0  0  0  0  0  0  0  0
    7.0953  -16.3375   19.9476 N   0  0  0  0  0  0  0  0  0  0  0  0
    7.2656  -15.4225   22.1263 C   0  0  0  0  0  0  0  0  0  0  0  0
    6.2744  -14.7194   22.4875 O   0  0  0  0  0  0  0  0  0  0  0  0
    7.8641  -16.2527   23.0812 N   0  0  0  0  0  0  0  0  0  0  0  0
    7.4528  -16.1423   24.5172 C   0  0  1  0  0  0  0  0  0  0  0  0
    7.5154  -17.6071   24.9488 C   0  0  0  0  0  0  0  0  0  0  0  0
    7.1979  -17.8089   26.3899 C   0  0  0  0  0  0  0  0  0  0  0  0
    7.2545  -19.2756   26.7251 C   0  0  0  0  0  0  0  0  0  0  0  0
    6.2572  -20.0069   26.5719 O   0  0  0  0  0  0  0  0  0  0  0  0
    8.4191  -15.3189   25.2342 C   0  0  0  0  0  0  0  0  0  0  0  0
    9.6007  -15.2726   24.7642 O   0  0  0  0  0  0  0  0  0  0  0  0
    8.4347  -19.7830   27.2034 O   0  0  0  0  0  0  0  0  0  0  0  0
    8.1232  -14.5888   26.3854 N   0  0  0  0  0  0  0  0  0  0  0  0
    6.8416  -14.6917   27.1078 C   0  0  0  0  0  0  0  0  0  0  0  0
    6.5479  -13.2325   27.3844 C   0  0  0  0  0  0  0  0  0  0  0  0
    7.9100  -12.5912   27.5340 C   0  0  0  0  0  0  0  0  0  0  0  0
    8.9017  -13.6685   27.1686 C   0  0  1  0  0  0  0  0  0  0  0  0
    9.3356  -14.3160   28.4540 C   0  0  0  0  0  0  0  0  0  0  0  0
    8.9820  -15.5854   28.8414 O   0  0  0  0  0  0  0  0  0  0  0  0
   10.0718  -13.6377   29.2132 O   0  0  0  0  0  0  0  0  0  0  0  0
  2  1  1  1
  2  3  1  0
  4  2  1  0
  5  4  1  0
  5  7  1  0
  5  6  1  6
  7  8  2  0
  9  7  1  0
  9 10  1  0
 10 11  1  1
 11 12  1  0
 12 13  1  0
 13 17  1  0
 14 13  2  0
 15 10  1  0
 15 16  2  0
 18 15  1  0
 19 18  1  0
 20 19  1  0
 21 22  1  0
 21 20  1  0
 22 18  1  0
 22 23  1  1
 24 23  1  0
 25 23  2  0
M  END
$$$$
