LEP.pdb
     RDKit          3D

 25 25  0  0  1  0  0  0  0  0999 V2000
    7.5508  -12.1807   19.3910 C   0  0  0  0  0  0  0  0  0  0  0  0
    8.1077  -13.4207   20.0831 C   0  0  2  0  0  0  0  0  0  0  0  0
    9.5904  -13.4078   19.9388 C   0  0  0  0  0  0  0  0  0  0  0  0
    7.4406  -14.6103   19.4417 C   0  0  0  0  0  0  0  0  0  0  0  0
    7.8138  -15.9121   20.1098 C   0  0  2  0  0  0  0  0  0  0  0  0
    7.2417  -17.0565   19.4832 N   0  0  0  0  0  0  0  0  0  0  0  0
    7.3367  -15.8376   21.5125 C   0  0  0  0  0  0  0  0  0  0  0  0
    6.1162  -15.5586   21.7120 O   0  0  0  0  0  0  0  0  0  0  0  0
    8.1509  -16.0565   22.6298 N   0  0  0  0  0  0  0  0  0  0  0  0
    7.5682  -15.9314   24.0040 C   0  0  1  0  0  0  0  0  0  0  0  0
    7.5268  -17.3973   24.4345 C   0  0  0  0  0  0  0  0  0  0  0  0
    7.0325  -17.5869   25.8266 C   0  0  0  0  0  0  0  0  0  0  0  0
    7.0466  -19.0506   26.1789 C   0  0  0  0  0  0  0  0  0  0  0  0
    5.9973  -19.7227   26.1671 O   0  0  0  0  0  0  0  0  0  0  0  0
    8.4653  -15.1412   24.8386 C   0  0  0  0  0  0  0  0  0  0  0  0
    9.7080  -15.2036   24.5721 O   0  0  0  0  0  0  0  0  0  0  0  0
    8.2469  -19.6222   26.5129 O   0  0  0  0  0  0  0  0  0  0  0  0
    8.0425  -14.3316   25.8930 N   0  0  0  0  0  0  0  0  0  0  0  0
    6.6359  -14.2225   26.3224 C   0  0  0  0  0  0  0  0  0  0  0  0
    6.5087  -12.7266   26.5176 C   0  0  0  0  0  0  0  0  0  0  0  0
    7.8872  -12.2803   26.9528 C   0  0  0  0  0  0  0  0  0  0  0  0
    8.7640  -13.5013   26.8186 C   0  0  1  0  0  0  0  0  0  0  0  0
    8.8145  -14.1528   28.1724 C   0  0  0  0  0  0  0  0  0  0  0  0
    8.1958  -15.3381   28.4867 O   0  0  0  0  0  0  0  0  0  0  0  0
    9.4719  -13.5613   29.0648 O   0  0  0  0  0  0  0  0  0  0  0  0
  2  1  1  6
  2  3  1  0
  4  2  1  0
  5  4  1  0
  5  7  1  0
  5  6  1  6
  7  8  2  0
  9  7  1  0
  9 10  1  0
 10 11  1  1
 11 12  1  0
 12 13  1  0
 13 17  1  0
 14 13  2  0
 15 10  1  0
 15 16  2  0
 18 15  1  0
 19 18  1  0
 20 19  1  0
 21 22  1  0
 21 20  1  0
 22 18  1  0
 22 23  1  1
 24 23  1  0
 25 23  2  0
M  END
$$$$
