LEP.pdb
     RDKit          3D

 25 25  0  0  1  0  0  0  0  0999 V2000
    9.5326  -13.8372   19.5909 C   0  0  0  0  0  0  0  0  0  0  0  0
    8.0805  -13.4766   19.2940 C   0  0  2  0  0  0  0  0  0  0  0  0
    8.0145  -12.0181   18.9974 C   0  0  0  0  0  0  0  0  0  0  0  0
    7.2764  -13.8934   20.4986 C   0  0  0  0  0  0  0  0  0  0  0  0
    7.4236  -15.3634   20.8116 C   0  0  2  0  0  0  0  0  0  0  0  0
    6.4771  -16.1856   20.1352 N   0  0  0  0  0  0  0  0  0  0  0  0
    7.2439  -15.5201   22.2757 C   0  0  0  0  0  0  0  0  0  0  0  0
    6.1232  -15.2014   22.7753 O   0  0  0  0  0  0  0  0  0  0  0  0
    8.2356  -15.9982   23.1402 N   0  0  0  0  0  0  0  0  0  0  0  0
    7.9468  -16.1092   24.6057 C   0  0  1  0  0  0  0  0  0  0  0  0
    7.6970  -17.6111   24.7379 C   0  0  0  0  0  0  0  0  0  0  0  0
    7.4636  -18.0464   26.1429 C   0  0  0  0  0  0  0  0  0  0  0  0
    7.2624  -19.5377   26.1892 C   0  0  0  0  0  0  0  0  0  0  0  0
    8.2065  -20.3191   25.9632 O   0  0  0  0  0  0  0  0  0  0  0  0
    9.1173  -15.6806   25.3621 C   0  0  0  0  0  0  0  0  0  0  0  0
   10.2565  -15.9083   24.8429 O   0  0  0  0  0  0  0  0  0  0  0  0
    6.0108  -20.0109   26.4870 O   0  0  0  0  0  0  0  0  0  0  0  0
    9.0574  -15.0422   26.6010 N   0  0  0  0  0  0  0  0  0  0  0  0
    7.8060  -14.8462   27.3563 C   0  0  0  0  0  0  0  0  0  0  0  0
    7.9652  -13.4112   27.8116 C   0  0  0  0  0  0  0  0  0  0  0  0
    9.4574  -13.2283   27.9811 C   0  0  0  0  0  0  0  0  0  0  0  0
   10.0786  -14.4989   27.4546 C   0  0  1  0  0  0  0  0  0  0  0  0
   10.3010  -15.3986   28.6381 C   0  0  0  0  0  0  0  0  0  0  0  0
   11.3221  -15.2500   29.5447 O   0  0  0  0  0  0  0  0  0  0  0  0
    9.4891  -16.3444   28.7951 O   0  0  0  0  0  0  0  0  0  0  0  0
  2  1  1  1
  2  3  1  0
  4  2  1  0
  5  4  1  0
  5  7  1  0
  5  6  1  6
  7  8  2  0
  9  7  1  0
  9 10  1  0
 10 11  1  6
 11 12  1  0
 12 13  1  0
 13 17  1  0
 14 13  2  0
 15 10  1  0
 15 16  2  0
 18 15  1  0
 19 18  1  0
 20 19  1  0
 21 22  1  0
 21 20  1  0
 22 18  1  0
 22 23  1  1
 24 23  1  0
 25 23  2  0
M  END
$$$$
