LEP.pdb
     RDKit          3D

 25 25  0  0  1  0  0  0  0  0999 V2000
   -2.5044  -29.7501   26.4373 C   0  0  0  0  0  0  0  0  0  0  0  0
   -1.1491  -29.2077   26.8796 C   0  0  2  0  0  0  0  0  0  0  0  0
   -0.4184  -30.2986   27.5835 C   0  0  0  0  0  0  0  0  0  0  0  0
   -1.4258  -28.0018   27.7402 C   0  0  0  0  0  0  0  0  0  0  0  0
   -2.2302  -26.9479   27.0172 C   0  0  2  0  0  0  0  0  0  0  0  0
   -1.4811  -26.2344   26.0377 N   0  0  0  0  0  0  0  0  0  0  0  0
   -2.7234  -25.9939   28.0406 C   0  0  0  0  0  0  0  0  0  0  0  0
   -1.8707  -25.2783   28.6472 O   0  0  0  0  0  0  0  0  0  0  0  0
   -4.0725  -25.8350   28.3782 N   0  0  0  0  0  0  0  0  0  0  0  0
   -4.4524  -24.8907   29.4770 C   0  0  1  0  0  0  0  0  0  0  0  0
   -5.8686  -24.5059   29.0503 C   0  0  0  0  0  0  0  0  0  0  0  0
   -6.5383  -23.5793   30.0047 C   0  0  0  0  0  0  0  0  0  0  0  0
   -7.9100  -23.2245   29.4952 C   0  0  0  0  0  0  0  0  0  0  0  0
   -8.0954  -22.9454   28.2949 O   0  0  0  0  0  0  0  0  0  0  0  0
   -4.4386  -25.6011   30.7502 C   0  0  0  0  0  0  0  0  0  0  0  0
   -4.6933  -26.8475   30.7197 O   0  0  0  0  0  0  0  0  0  0  0  0
   -8.9486  -23.2176   30.3898 O   0  0  0  0  0  0  0  0  0  0  0  0
   -4.1627  -25.0000   31.9784 N   0  0  0  0  0  0  0  0  0  0  0  0
   -3.9455  -23.5509   32.1452 C   0  0  0  0  0  0  0  0  0  0  0  0
   -2.7464  -23.5430   33.0694 C   0  0  0  0  0  0  0  0  0  0  0  0
   -2.9040  -24.7916   33.9090 C   0  0  0  0  0  0  0  0  0  0  0  0
   -4.0771  -25.5298   33.3120 C   0  0  1  0  0  0  0  0  0  0  0  0
   -5.2905  -25.1365   34.1075 C   0  0  0  0  0  0  0  0  0  0  0  0
   -6.2464  -24.2491   33.6770 O   0  0  0  0  0  0  0  0  0  0  0  0
   -5.4252  -25.6648   35.2394 O   0  0  0  0  0  0  0  0  0  0  0  0
  2  1  1  1
  2  3  1  0
  4  2  1  0
  5  4  1  0
  5  7  1  0
  5  6  1  6
  7  8  2  0
  9  7  1  0
  9 10  1  0
 10 11  1  6
 11 12  1  0
 12 13  1  0
 13 17  1  0
 14 13  2  0
 15 10  1  0
 15 16  2  0
 18 15  1  0
 19 18  1  0
 20 19  1  0
 21 22  1  0
 21 20  1  0
 22 18  1  0
 22 23  1  1
 24 23  1  0
 25 23  2  0
M  END
$$$$
