LEP.pdb
     RDKit          3D

 25 25  0  0  1  0  0  0  0  0999 V2000
    4.9304  -12.3040   27.4167 C   0  0  0  0  0  0  0  0  0  0  0  0
    6.4269  -12.5993   27.4247 C   0  0  2  0  0  0  0  0  0  0  0  0
    7.1182  -11.4815   28.1259 C   0  0  0  0  0  0  0  0  0  0  0  0
    6.8418  -12.7691   25.9857 C   0  0  0  0  0  0  0  0  0  0  0  0
    7.1293  -14.2091   25.6330 C   0  0  2  0  0  0  0  0  0  0  0  0
    7.4211  -15.0236   26.7648 N   0  0  0  0  0  0  0  0  0  0  0  0
    8.2978  -14.2117   24.7191 C   0  0  0  0  0  0  0  0  0  0  0  0
    9.1083  -13.2392   24.7864 O   0  0  0  0  0  0  0  0  0  0  0  0
    8.5610  -15.2219   23.7865 N   0  0  0  0  0  0  0  0  0  0  0  0
    9.2008  -14.8709   22.4786 C   0  0  1  0  0  0  0  0  0  0  0  0
   10.4814  -15.7019   22.5513 C   0  0  0  0  0  0  0  0  0  0  0  0
   10.2275  -17.1560   22.7495 C   0  0  0  0  0  0  0  0  0  0  0  0
   11.5062  -17.9283   22.5614 C   0  0  0  0  0  0  0  0  0  0  0  0
   11.5219  -18.9947   21.9167 O   0  0  0  0  0  0  0  0  0  0  0  0
    8.3333  -15.2972   21.3870 C   0  0  0  0  0  0  0  0  0  0  0  0
    7.4653  -16.1889   21.6528 O   0  0  0  0  0  0  0  0  0  0  0  0
   12.6522  -17.4244   23.1197 O   0  0  0  0  0  0  0  0  0  0  0  0
    8.3993  -14.7870   20.0904 N   0  0  0  0  0  0  0  0  0  0  0  0
    9.3898  -13.7827   19.6600 C   0  0  0  0  0  0  0  0  0  0  0  0
    8.5186  -12.8465   18.8498 C   0  0  0  0  0  0  0  0  0  0  0  0
    7.4460  -13.7368   18.2619 C   0  0  0  0  0  0  0  0  0  0  0  0
    7.6558  -15.0893   18.8977 C   0  0  1  0  0  0  0  0  0  0  0  0
    8.4998  -15.8918   17.9473 C   0  0  0  0  0  0  0  0  0  0  0  0
    8.0072  -16.5892   16.8714 O   0  0  0  0  0  0  0  0  0  0  0  0
    9.7370  -15.9150   18.1648 O   0  0  0  0  0  0  0  0  0  0  0  0
  2  1  1  6
  2  3  1  0
  4  2  1  0
  5  4  1  0
  5  7  1  0
  5  6  1  1
  7  8  2  0
  9  7  1  0
  9 10  1  0
 10 11  1  6
 11 12  1  0
 12 13  1  0
 13 17  1  0
 14 13  2  0
 15 10  1  0
 15 16  2  0
 18 15  1  0
 19 18  1  0
 20 19  1  0
 21 22  1  0
 21 20  1  0
 22 18  1  0
 22 23  1  6
 24 23  1  0
 25 23  2  0
M  END
$$$$
