WSS.pdb
     RDKit          3D

 27 28  0  0  1  0  0  0  0  0999 V2000
   26.0877  -22.7858  -12.2932 N   0  0  0  0  0  0  0  0  0  0  0  0
   25.4381  -21.6318  -11.7607 C   0  0  1  0  0  0  0  0  0  0  0  0
   26.3086  -20.4017  -11.7943 C   0  0  0  0  0  0  0  0  0  0  0  0
   27.4763  -20.5930  -10.9031 C   0  0  0  0  0  0  0  0  0  0  0  0
   28.7772  -20.8691  -11.2621 C   0  0  0  0  0  0  0  0  0  0  0  0
   29.5494  -20.9708  -10.1714 N   0  0  0  0  0  0  0  0  0  0  0  0
   28.7601  -20.7627   -9.1040 C   0  0  0  0  0  0  0  0  0  0  0  0
   29.0605  -20.7581   -7.7585 C   0  0  0  0  0  0  0  0  0  0  0  0
   28.0596  -20.5152   -6.8459 C   0  0  0  0  0  0  0  0  0  0  0  0
   26.7703  -20.2783   -7.2613 C   0  0  0  0  0  0  0  0  0  0  0  0
   26.4804  -20.2847   -8.6006 C   0  0  0  0  0  0  0  0  0  0  0  0
   27.4733  -20.5267   -9.5261 C   0  0  0  0  0  0  0  0  0  0  0  0
   24.1440  -21.4367  -12.4259 C   0  0  0  0  0  0  0  0  0  0  0  0
   23.9451  -21.6768  -13.6526 O   0  0  0  0  0  0  0  0  0  0  0  0
   20.9439  -19.3646  -10.6522 O   0  0  0  0  0  0  0  0  0  0  0  0
   20.7483  -20.6402  -11.1366 C   0  0  0  0  0  0  0  0  0  0  0  0
   21.7063  -20.9506  -12.2708 C   0  0  2  0  0  0  0  0  0  0  0  0
   23.0401  -20.9553  -11.6814 N   0  0  0  0  0  0  0  0  0  0  0  0
   21.6750  -19.9262  -13.3239 C   0  0  0  0  0  0  0  0  0  0  0  0
   22.1116  -18.7782  -13.1250 O   0  0  0  0  0  0  0  0  0  0  0  0
   20.6367  -19.1793  -17.9861 O   0  0  0  0  0  0  0  0  0  0  0  0
   20.6815  -20.0444  -16.9210 C   0  0  0  0  0  0  0  0  0  0  0  0
   20.9508  -19.2650  -15.6431 C   0  0  2  0  0  0  0  0  0  0  0  0
   21.1409  -20.2404  -14.5925 N   0  0  0  0  0  0  0  0  0  0  0  0
   19.8227  -18.3702  -15.4188 C   0  0  0  0  0  0  0  0  0  0  0  0
   19.8018  -17.2045  -15.8755 O   0  0  0  0  0  0  0  0  0  0  0  0
   18.7357  -18.8028  -14.6834 O   0  0  0  0  0  0  0  0  0  0  0  0
  2  1  1  6
  3  2  1  0
  4  3  1  0
  5  4  2  0
  6  5  1  0
  7  6  1  0
  7 12  2  0
  8  7  1  0
  9  8  2  0
  9 10  1  0
 10 11  2  0
 11 12  1  0
 12  4  1  0
 13 14  2  0
 13  2  1  0
 16 15  1  0
 17 18  1  0
 17 16  1  1
 18 13  1  0
 19 17  1  0
 20 19  2  0
 22 21  1  0
 23 22  1  6
 23 24  1  0
 24 19  1  0
 25 23  1  0
 26 25  2  0
 27 25  1  0
M  END
$$$$
