WSS.pdb
     RDKit          3D

 27 28  0  0  1  0  0  0  0  0999 V2000
   25.6893  -21.3946   -9.5609 N   0  0  0  0  0  0  0  0  0  0  0  0
   24.8073  -21.3075   -8.4421 C   0  0  1  0  0  0  0  0  0  0  0  0
   24.8600  -19.9657   -7.7576 C   0  0  0  0  0  0  0  0  0  0  0  0
   26.2377  -19.7032   -7.2808 C   0  0  0  0  0  0  0  0  0  0  0  0
   27.2360  -19.0052   -7.9241 C   0  0  0  0  0  0  0  0  0  0  0  0
   28.3455  -18.9809   -7.1725 N   0  0  0  0  0  0  0  0  0  0  0  0
   28.0766  -19.6585   -6.0438 C   0  0  0  0  0  0  0  0  0  0  0  0
   28.8732  -19.9244   -4.9505 C   0  0  0  0  0  0  0  0  0  0  0  0
   28.3574  -20.6517   -3.9024 C   0  0  0  0  0  0  0  0  0  0  0  0
   27.0623  -21.1126   -3.9352 C   0  0  0  0  0  0  0  0  0  0  0  0
   26.2772  -20.8438   -5.0256 C   0  0  0  0  0  0  0  0  0  0  0  0
   26.7810  -20.1164   -6.0831 C   0  0  0  0  0  0  0  0  0  0  0  0
   23.4494  -21.6919   -8.8467 C   0  0  0  0  0  0  0  0  0  0  0  0
   22.9956  -21.5278  -10.0168 O   0  0  0  0  0  0  0  0  0  0  0  0
   20.3690  -22.6378   -6.1642 O   0  0  0  0  0  0  0  0  0  0  0  0
   20.7424  -23.5684   -7.1100 C   0  0  0  0  0  0  0  0  0  0  0  0
   21.3316  -22.8993   -8.3371 C   0  0  2  0  0  0  0  0  0  0  0  0
   22.5771  -22.2801   -7.8992 N   0  0  0  0  0  0  0  0  0  0  0  0
   20.4589  -21.8443   -8.8707 C   0  0  0  0  0  0  0  0  0  0  0  0
   20.5432  -20.6692   -8.4707 O   0  0  0  0  0  0  0  0  0  0  0  0
   18.0724  -22.8609  -12.0016 O   0  0  0  0  0  0  0  0  0  0  0  0
   18.3668  -21.5279  -11.8555 C   0  0  0  0  0  0  0  0  0  0  0  0
   18.5476  -21.2052  -10.3803 C   0  0  2  0  0  0  0  0  0  0  0  0
   19.5010  -22.1593   -9.8590 N   0  0  0  0  0  0  0  0  0  0  0  0
   17.2384  -21.2733   -9.7439 C   0  0  0  0  0  0  0  0  0  0  0  0
   16.3283  -20.4568  -10.0138 O   0  0  0  0  0  0  0  0  0  0  0  0
   16.9751  -22.2602   -8.8132 O   0  0  0  0  0  0  0  0  0  0  0  0
  2  1  1  6
  3  2  1  0
  4  3  1  0
  5  4  2  0
  6  5  1  0
  7  6  1  0
  7 12  2  0
  8  7  1  0
  9  8  2  0
  9 10  1  0
 10 11  2  0
 11 12  1  0
 12  4  1  0
 13 14  2  0
 13  2  1  0
 16 15  1  0
 17 18  1  0
 17 16  1  1
 18 13  1  0
 19 17  1  0
 20 19  2  0
 22 21  1  0
 23 22  1  6
 23 24  1  0
 24 19  1  0
 25 23  1  0
 26 25  2  0
 27 25  1  0
M  END
$$$$
