WSS.pdb
     RDKit          3D

 27 28  0  0  1  0  0  0  0  0999 V2000
   27.3239  -22.2741  -10.7427 N   0  0  0  0  0  0  0  0  0  0  0  0
   26.4100  -21.3283  -10.1882 C   0  0  1  0  0  0  0  0  0  0  0  0
   27.0613  -20.0108   -9.8537 C   0  0  0  0  0  0  0  0  0  0  0  0
   28.1626  -20.2303   -8.8877 C   0  0  0  0  0  0  0  0  0  0  0  0
   29.4622  -20.5989   -9.1570 C   0  0  0  0  0  0  0  0  0  0  0  0
   30.1637  -20.6965   -8.0192 N   0  0  0  0  0  0  0  0  0  0  0  0
   29.3296  -20.3939   -7.0101 C   0  0  0  0  0  0  0  0  0  0  0  0
   29.5530  -20.3461   -5.6505 C   0  0  0  0  0  0  0  0  0  0  0  0
   28.5189  -20.0033   -4.8099 C   0  0  0  0  0  0  0  0  0  0  0  0
   27.2723  -19.7095   -5.3105 C   0  0  0  0  0  0  0  0  0  0  0  0
   27.0588  -19.7594   -6.6631 C   0  0  0  0  0  0  0  0  0  0  0  0
   28.0857  -20.1015   -7.5172 C   0  0  0  0  0  0  0  0  0  0  0  0
   25.2451  -21.1846  -11.0701 C   0  0  0  0  0  0  0  0  0  0  0  0
   25.3281  -21.1032  -12.3304 O   0  0  0  0  0  0  0  0  0  0  0  0
   21.4684  -20.3963   -9.5178 O   0  0  0  0  0  0  0  0  0  0  0  0
   21.5830  -21.3844  -10.4721 C   0  0  0  0  0  0  0  0  0  0  0  0
   22.7742  -21.1383  -11.3782 C   0  0  2  0  0  0  0  0  0  0  0  0
   23.9459  -21.1312  -10.5101 N   0  0  0  0  0  0  0  0  0  0  0  0
   22.6996  -19.8371  -12.0570 C   0  0  0  0  0  0  0  0  0  0  0  0
   23.0895  -18.7935  -11.5029 O   0  0  0  0  0  0  0  0  0  0  0  0
   21.9821  -20.0022  -15.9242 O   0  0  0  0  0  0  0  0  0  0  0  0
   22.4462  -18.7755  -15.5187 C   0  0  0  0  0  0  0  0  0  0  0  0
   22.0097  -18.5144  -14.0854 C   0  0  2  0  0  0  0  0  0  0  0  0
   22.1767  -19.7577  -13.3660 N   0  0  0  0  0  0  0  0  0  0  0  0
   20.6347  -18.0328  -14.1175 C   0  0  0  0  0  0  0  0  0  0  0  0
   20.3278  -16.9422  -14.6508 O   0  0  0  0  0  0  0  0  0  0  0  0
   19.6268  -18.7874  -13.5481 O   0  0  0  0  0  0  0  0  0  0  0  0
  2  1  1  6
  3  2  1  0
  4  3  1  0
  5  4  2  0
  6  5  1  0
  7  6  1  0
  7 12  2  0
  8  7  1  0
  9  8  2  0
  9 10  1  0
 10 11  2  0
 11 12  1  0
 12  4  1  0
 13 14  2  0
 13  2  1  0
 16 15  1  0
 17 18  1  0
 17 16  1  1
 18 13  1  0
 19 17  1  0
 20 19  2  0
 22 21  1  0
 23 22  1  6
 23 24  1  0
 24 19  1  0
 25 23  1  0
 26 25  2  0
 27 25  1  0
M  END
$$$$
