WSS.pdb
     RDKit          3D

 27 28  0  0  1  0  0  0  0  0999 V2000
   21.0851   -8.2215  -18.0377 N   0  0  0  0  0  0  0  0  0  0  0  0
   21.4491   -9.5446  -17.6453 C   0  0  1  0  0  0  0  0  0  0  0  0
   22.1582   -9.5873  -16.3160 C   0  0  0  0  0  0  0  0  0  0  0  0
   22.6484   -8.2332  -15.9690 C   0  0  0  0  0  0  0  0  0  0  0  0
   23.5631   -7.4642  -16.6541 C   0  0  0  0  0  0  0  0  0  0  0  0
   23.7494   -6.2940  -16.0279 N   0  0  0  0  0  0  0  0  0  0  0  0
   22.9619   -6.2954  -14.9391 C   0  0  0  0  0  0  0  0  0  0  0  0
   22.7821   -5.3358  -13.9657 C   0  0  0  0  0  0  0  0  0  0  0  0
   21.9042   -5.5791  -12.9344 C   0  0  0  0  0  0  0  0  0  0  0  0
   21.2086   -6.7633  -12.8663 C   0  0  0  0  0  0  0  0  0  0  0  0
   21.3932   -7.7117  -13.8380 C   0  0  0  0  0  0  0  0  0  0  0  0
   22.2698   -7.4815  -14.8771 C   0  0  0  0  0  0  0  0  0  0  0  0
   20.2723  -10.4211  -17.6958 C   0  0  0  0  0  0  0  0  0  0  0  0
   19.1328  -10.0876  -17.2574 O   0  0  0  0  0  0  0  0  0  0  0  0
   20.5665  -14.2065  -19.4734 O   0  0  0  0  0  0  0  0  0  0  0  0
   19.4478  -13.4160  -19.6276 C   0  0  0  0  0  0  0  0  0  0  0  0
   19.2065  -12.5591  -18.3996 C   0  0  2  0  0  0  0  0  0  0  0  0
   20.3871  -11.7148  -18.2594 N   0  0  0  0  0  0  0  0  0  0  0  0
   19.0704  -13.3622  -17.1765 C   0  0  0  0  0  0  0  0  0  0  0  0
   20.0032  -13.4619  -16.3592 O   0  0  0  0  0  0  0  0  0  0  0  0
   16.0157  -15.5266  -14.2110 O   0  0  0  0  0  0  0  0  0  0  0  0
   16.2349  -14.7579  -15.3272 C   0  0  0  0  0  0  0  0  0  0  0  0
   17.6723  -14.9334  -15.7920 C   0  0  2  0  0  0  0  0  0  0  0  0
   17.8598  -14.0391  -16.9128 N   0  0  0  0  0  0  0  0  0  0  0  0
   17.8672  -16.3394  -16.1216 C   0  0  0  0  0  0  0  0  0  0  0  0
   17.9898  -16.7309  -17.3046 O   0  0  0  0  0  0  0  0  0  0  0  0
   17.9207  -17.2826  -15.1131 O   0  0  0  0  0  0  0  0  0  0  0  0
  2  1  1  1
  3  2  1  0
  4  3  1  0
  5  4  2  0
  6  5  1  0
  7  6  1  0
  7 12  2  0
  8  7  1  0
  9  8  2  0
  9 10  1  0
 10 11  2  0
 11 12  1  0
 12  4  1  0
 13 14  2  0
 13  2  1  0
 16 15  1  0
 17 18  1  0
 17 16  1  6
 18 13  1  0
 19 17  1  0
 20 19  2  0
 22 21  1  0
 23 22  1  6
 23 24  1  0
 24 19  1  0
 25 23  1  0
 26 25  2  0
 27 25  1  0
M  END
$$$$
