WSS.pdb
     RDKit          3D

 27 28  0  0  1  0  0  0  0  0999 V2000
   24.6643  -20.8619  -12.2540 N   0  0  0  0  0  0  0  0  0  0  0  0
   24.2744  -21.0136  -10.8894 C   0  0  1  0  0  0  0  0  0  0  0  0
   24.9965  -20.0670   -9.9650 C   0  0  0  0  0  0  0  0  0  0  0  0
   26.3709  -20.5621   -9.7191 C   0  0  0  0  0  0  0  0  0  0  0  0
   27.1853  -21.2596  -10.5838 C   0  0  0  0  0  0  0  0  0  0  0  0
   28.3603  -21.5314   -9.9993 N   0  0  0  0  0  0  0  0  0  0  0  0
   28.3168  -21.0156   -8.7593 C   0  0  0  0  0  0  0  0  0  0  0  0
   29.2626  -21.0207   -7.7562 C   0  0  0  0  0  0  0  0  0  0  0  0
   28.9735  -20.4147   -6.5551 C   0  0  0  0  0  0  0  0  0  0  0  0
   27.7574  -19.8075   -6.3475 C   0  0  0  0  0  0  0  0  0  0  0  0
   26.8230  -19.8069   -7.3498 C   0  0  0  0  0  0  0  0  0  0  0  0
   27.0990  -20.4105   -8.5583 C   0  0  0  0  0  0  0  0  0  0  0  0
   22.8135  -20.9234  -10.7754 C   0  0  0  0  0  0  0  0  0  0  0  0
   22.1672  -19.8432  -10.9074 O   0  0  0  0  0  0  0  0  0  0  0  0
   20.9217  -23.2367  -12.3120 O   0  0  0  0  0  0  0  0  0  0  0  0
   19.9743  -22.6756  -11.4827 C   0  0  0  0  0  0  0  0  0  0  0  0
   20.6202  -21.9982  -10.2891 C   0  0  2  0  0  0  0  0  0  0  0  0
   22.0595  -22.0906  -10.5038 N   0  0  0  0  0  0  0  0  0  0  0  0
   20.3018  -22.6745   -9.0239 C   0  0  0  0  0  0  0  0  0  0  0  0
   21.1552  -23.3435   -8.4138 O   0  0  0  0  0  0  0  0  0  0  0  0
   16.4264  -22.7722   -8.1798 O   0  0  0  0  0  0  0  0  0  0  0  0
   17.1468  -22.8416   -7.0132 C   0  0  0  0  0  0  0  0  0  0  0  0
   18.5628  -23.3066   -7.3162 C   0  0  2  0  0  0  0  0  0  0  0  0
   19.0034  -22.5693   -8.4796 N   0  0  0  0  0  0  0  0  0  0  0  0
   18.5271  -24.7501   -7.5126 C   0  0  0  0  0  0  0  0  0  0  0  0
   18.5542  -25.2633   -8.6545 O   0  0  0  0  0  0  0  0  0  0  0  0
   18.4611  -25.5929   -6.4196 O   0  0  0  0  0  0  0  0  0  0  0  0
  2  1  1  6
  3  2  1  0
  4  3  1  0
  5  4  2  0
  6  5  1  0
  7  6  1  0
  7 12  2  0
  8  7  1  0
  9  8  2  0
  9 10  1  0
 10 11  2  0
 11 12  1  0
 12  4  1  0
 13 14  2  0
 13  2  1  0
 16 15  1  0
 17 18  1  0
 17 16  1  6
 18 13  1  0
 19 17  1  0
 20 19  2  0
 22 21  1  0
 23 22  1  6
 23 24  1  0
 24 19  1  0
 25 23  1  0
 26 25  2  0
 27 25  1  0
M  END
$$$$
