WSS.pdb
     RDKit          3D

 27 28  0  0  1  0  0  0  0  0999 V2000
   20.0174  -11.3943  -18.7057 N   0  0  0  0  0  0  0  0  0  0  0  0
   20.2399   -9.9962  -18.8881 C   0  0  1  0  0  0  0  0  0  0  0  0
   19.0750   -9.2980  -19.5418 C   0  0  0  0  0  0  0  0  0  0  0  0
   18.9625   -9.7317  -20.9538 C   0  0  0  0  0  0  0  0  0  0  0  0
   18.2833  -10.8219  -21.4514 C   0  0  0  0  0  0  0  0  0  0  0  0
   18.4132  -10.8826  -22.7840 N   0  0  0  0  0  0  0  0  0  0  0  0
   19.1725   -9.8390  -23.1579 C   0  0  0  0  0  0  0  0  0  0  0  0
   19.5996   -9.4481  -24.4091 C   0  0  0  0  0  0  0  0  0  0  0  0
   20.3822   -8.3231  -24.5324 C   0  0  0  0  0  0  0  0  0  0  0  0
   20.7400   -7.5894  -23.4258 C   0  0  0  0  0  0  0  0  0  0  0  0
   20.3113   -7.9849  -22.1858 C   0  0  0  0  0  0  0  0  0  0  0  0
   19.5267   -9.1102  -22.0474 C   0  0  0  0  0  0  0  0  0  0  0  0
   20.6337   -9.3837  -17.6134 C   0  0  0  0  0  0  0  0  0  0  0  0
   19.9449   -9.4678  -16.5549 O   0  0  0  0  0  0  0  0  0  0  0  0
   24.2471   -7.2199  -17.2863 O   0  0  0  0  0  0  0  0  0  0  0  0
   23.7155   -7.9521  -16.2464 C   0  0  0  0  0  0  0  0  0  0  0  0
   22.1997   -7.9615  -16.2990 C   0  0  2  0  0  0  0  0  0  0  0  0
   21.8438   -8.6532  -17.5324 N   0  0  0  0  0  0  0  0  0  0  0  0
   21.6348   -6.6061  -16.3551 C   0  0  0  0  0  0  0  0  0  0  0  0
   21.5020   -6.0033  -17.4354 O   0  0  0  0  0  0  0  0  0  0  0  0
   19.0925   -3.3410  -13.9656 O   0  0  0  0  0  0  0  0  0  0  0  0
   19.7345   -4.5545  -13.9620 C   0  0  0  0  0  0  0  0  0  0  0  0
   20.7204   -4.6123  -15.1186 C   0  0  2  0  0  0  0  0  0  0  0  0
   21.2303   -5.9648  -15.1641 N   0  0  0  0  0  0  0  0  0  0  0  0
   21.7459   -3.6041  -14.8828 C   0  0  0  0  0  0  0  0  0  0  0  0
   22.7790   -3.8534  -14.2207 O   0  0  0  0  0  0  0  0  0  0  0  0
   21.5913   -2.3307  -15.3967 O   0  0  0  0  0  0  0  0  0  0  0  0
  2  1  1  1
  3  2  1  0
  4  3  1  0
  5  4  2  0
  6  5  1  0
  7  6  1  0
  7 12  2  0
  8  7  1  0
  9  8  2  0
  9 10  1  0
 10 11  2  0
 11 12  1  0
 12  4  1  0
 13 14  2  0
 13  2  1  0
 16 15  1  0
 17 18  1  0
 17 16  1  6
 18 13  1  0
 19 17  1  0
 20 19  2  0
 22 21  1  0
 23 22  1  1
 23 24  1  0
 24 19  1  0
 25 23  1  0
 26 25  2  0
 27 25  1  0
M  END
$$$$
