WSS.pdb
     RDKit          3D

 27 28  0  0  1  0  0  0  0  0999 V2000
   24.8781  -10.4118  -15.0808 N   0  0  0  0  0  0  0  0  0  0  0  0
   24.4373   -9.3553  -15.9333 C   0  0  1  0  0  0  0  0  0  0  0  0
   24.6120   -9.6716  -17.3966 C   0  0  0  0  0  0  0  0  0  0  0  0
   26.0537   -9.8099  -17.7079 C   0  0  0  0  0  0  0  0  0  0  0  0
   26.7730  -10.9717  -17.8821 C   0  0  0  0  0  0  0  0  0  0  0  0
   28.0548  -10.6892  -18.1534 N   0  0  0  0  0  0  0  0  0  0  0  0
   28.1753   -9.3509  -18.1571 C   0  0  0  0  0  0  0  0  0  0  0  0
   29.2778   -8.5541  -18.3814 C   0  0  0  0  0  0  0  0  0  0  0  0
   29.1415   -7.1859  -18.3294 C   0  0  0  0  0  0  0  0  0  0  0  0
   27.9230   -6.6094  -18.0575 C   0  0  0  0  0  0  0  0  0  0  0  0
   26.8323   -7.4087  -17.8358 C   0  0  0  0  0  0  0  0  0  0  0  0
   26.9542   -8.7812  -17.8847 C   0  0  0  0  0  0  0  0  0  0  0  0
   23.0610   -8.9779  -15.5886 C   0  0  0  0  0  0  0  0  0  0  0  0
   22.0988   -9.7994  -15.5532 O   0  0  0  0  0  0  0  0  0  0  0  0
   22.4703   -5.7478  -13.3857 O   0  0  0  0  0  0  0  0  0  0  0  0
   21.4831   -6.7032  -13.4988 C   0  0  0  0  0  0  0  0  0  0  0  0
   21.4033   -7.2466  -14.9126 C   0  0  2  0  0  0  0  0  0  0  0  0
   22.7630   -7.6301  -15.2740 N   0  0  0  0  0  0  0  0  0  0  0  0
   20.9421   -6.2355  -15.8740 C   0  0  0  0  0  0  0  0  0  0  0  0
   21.7467   -5.5618  -16.5424 O   0  0  0  0  0  0  0  0  0  0  0  0
   17.2975   -6.4574  -17.6223 O   0  0  0  0  0  0  0  0  0  0  0  0
   17.5208   -5.2470  -17.0142 C   0  0  0  0  0  0  0  0  0  0  0  0
   19.0173   -4.9933  -16.9192 C   0  0  2  0  0  0  0  0  0  0  0  0
   19.5588   -6.0156  -16.0515 N   0  0  0  0  0  0  0  0  0  0  0  0
   19.2103   -3.6369  -16.4230 C   0  0  0  0  0  0  0  0  0  0  0  0
   19.2741   -3.3831  -15.1984 O   0  0  0  0  0  0  0  0  0  0  0  0
   19.3283   -2.5874  -17.3140 O   0  0  0  0  0  0  0  0  0  0  0  0
  2  1  1  1
  3  2  1  0
  4  3  1  0
  5  4  2  0
  6  5  1  0
  7  6  1  0
  7 12  2  0
  8  7  1  0
  9  8  2  0
  9 10  1  0
 10 11  2  0
 11 12  1  0
 12  4  1  0
 13 14  2  0
 13  2  1  0
 16 15  1  0
 17 18  1  0
 17 16  1  1
 18 13  1  0
 19 17  1  0
 20 19  2  0
 22 21  1  0
 23 22  1  1
 23 24  1  0
 24 19  1  0
 25 23  1  0
 26 25  2  0
 27 25  1  0
M  END
$$$$
