WSS.pdb
     RDKit          3D

 27 28  0  0  1  0  0  0  0  0999 V2000
   16.6127   -9.0583  -11.7908 N   0  0  0  0  0  0  0  0  0  0  0  0
   15.7961   -8.0256  -11.2394 C   0  0  1  0  0  0  0  0  0  0  0  0
   15.6470   -8.1326   -9.7433 C   0  0  0  0  0  0  0  0  0  0  0  0
   14.6345   -9.1631   -9.4158 C   0  0  0  0  0  0  0  0  0  0  0  0
   14.8043  -10.5292   -9.3669 C   0  0  0  0  0  0  0  0  0  0  0  0
   13.6539  -11.1296   -9.0317 N   0  0  0  0  0  0  0  0  0  0  0  0
   12.7355  -10.1635   -8.8619 C   0  0  0  0  0  0  0  0  0  0  0  0
   11.4039  -10.2481   -8.5150 C   0  0  0  0  0  0  0  0  0  0  0  0
   10.6626   -9.0942   -8.4032 C   0  0  0  0  0  0  0  0  0  0  0  0
   11.2344   -7.8649   -8.6326 C   0  0  0  0  0  0  0  0  0  0  0  0
   12.5586   -7.7897   -8.9770 C   0  0  0  0  0  0  0  0  0  0  0  0
   13.3134   -8.9377   -9.0928 C   0  0  0  0  0  0  0  0  0  0  0  0
   16.2908   -6.7135  -11.6740 C   0  0  0  0  0  0  0  0  0  0  0  0
   17.4910   -6.3370  -11.5333 O   0  0  0  0  0  0  0  0  0  0  0  0
   14.2143   -4.5599  -14.4105 O   0  0  0  0  0  0  0  0  0  0  0  0
   15.5555   -4.3539  -14.1679 C   0  0  0  0  0  0  0  0  0  0  0  0
   15.8724   -4.4784  -12.6898 C   0  0  2  0  0  0  0  0  0  0  0  0
   15.4012   -5.7982  -12.2867 N   0  0  0  0  0  0  0  0  0  0  0  0
   15.1673   -3.4741  -11.8813 C   0  0  0  0  0  0  0  0  0  0  0  0
   14.0232   -3.6840  -11.4399 O   0  0  0  0  0  0  0  0  0  0  0  0
   16.1292   -1.7752   -8.8776 O   0  0  0  0  0  0  0  0  0  0  0  0
   14.9128   -1.5756   -9.4820 C   0  0  0  0  0  0  0  0  0  0  0  0
   15.1259   -1.1451  -10.9251 C   0  0  2  0  0  0  0  0  0  0  0  0
   15.7921   -2.2413  -11.5927 N   0  0  0  0  0  0  0  0  0  0  0  0
   15.8954    0.0923  -10.9136 C   0  0  0  0  0  0  0  0  0  0  0  0
   17.0557    0.1543  -11.3802 O   0  0  0  0  0  0  0  0  0  0  0  0
   15.3456    1.2407  -10.3765 O   0  0  0  0  0  0  0  0  0  0  0  0
  2  1  1  1
  3  2  1  0
  4  3  1  0
  5  4  2  0
  6  5  1  0
  7  6  1  0
  7 12  2  0
  8  7  1  0
  9  8  2  0
  9 10  1  0
 10 11  2  0
 11 12  1  0
 12  4  1  0
 13 14  2  0
 13  2  1  0
 16 15  1  0
 17 18  1  0
 17 16  1  6
 18 13  1  0
 19 17  1  0
 20 19  2  0
 22 21  1  0
 23 22  1  1
 23 24  1  0
 24 19  1  0
 25 23  1  0
 26 25  2  0
 27 25  1  0
M  END
$$$$
