WSS.pdb
     RDKit          3D

 27 28  0  0  1  0  0  0  0  0999 V2000
   25.4930  -19.0768  -11.1451 N   0  0  0  0  0  0  0  0  0  0  0  0
   25.6944  -20.4496  -11.4799 C   0  0  1  0  0  0  0  0  0  0  0  0
   25.5852  -21.3655  -10.2878 C   0  0  0  0  0  0  0  0  0  0  0  0
   26.3839  -20.8203   -9.1656 C   0  0  0  0  0  0  0  0  0  0  0  0
   25.9517  -20.0200   -8.1311 C   0  0  0  0  0  0  0  0  0  0  0  0
   26.9699  -19.7324   -7.3084 N   0  0  0  0  0  0  0  0  0  0  0  0
   28.0628  -20.3401   -7.8002 C   0  0  0  0  0  0  0  0  0  0  0  0
   29.3597  -20.3608   -7.3328 C   0  0  0  0  0  0  0  0  0  0  0  0
   30.3144  -21.0680   -8.0269 C   0  0  0  0  0  0  0  0  0  0  0  0
   29.9887  -21.7503   -9.1755 C   0  0  0  0  0  0  0  0  0  0  0  0
   28.6974  -21.7246   -9.6332 C   0  0  0  0  0  0  0  0  0  0  0  0
   27.7305  -21.0199   -8.9479 C   0  0  0  0  0  0  0  0  0  0  0  0
   24.7999  -20.8310  -12.5798 C   0  0  0  0  0  0  0  0  0  0  0  0
   23.5674  -20.5447  -12.6100 O   0  0  0  0  0  0  0  0  0  0  0  0
   26.1617  -23.5428  -15.2990 O   0  0  0  0  0  0  0  0  0  0  0  0
   25.3176  -22.5870  -15.8226 C   0  0  0  0  0  0  0  0  0  0  0  0
   24.4243  -21.9949  -14.7493 C   0  0  2  0  0  0  0  0  0  0  0  0
   25.3145  -21.5586  -13.6799 N   0  0  0  0  0  0  0  0  0  0  0  0
   23.4904  -22.9835  -14.1925 C   0  0  0  0  0  0  0  0  0  0  0  0
   23.6391  -23.4417  -13.0454 O   0  0  0  0  0  0  0  0  0  0  0  0
   19.3841  -22.4661  -13.2669 O   0  0  0  0  0  0  0  0  0  0  0  0
   20.5807  -22.3011  -13.9195 C   0  0  0  0  0  0  0  0  0  0  0  0
   21.0729  -23.6471  -14.4284 C   0  0  2  0  0  0  0  0  0  0  0  0
   22.3974  -23.4298  -14.9668 N   0  0  0  0  0  0  0  0  0  0  0  0
   20.1111  -24.1333  -15.4092 C   0  0  0  0  0  0  0  0  0  0  0  0
   20.1896  -23.8274  -16.6209 O   0  0  0  0  0  0  0  0  0  0  0  0
   19.0756  -24.9564  -15.0095 O   0  0  0  0  0  0  0  0  0  0  0  0
  2  1  1  1
  3  2  1  0
  4  3  1  0
  5  4  2  0
  6  5  1  0
  7  6  1  0
  7 12  2  0
  8  7  1  0
  9  8  2  0
  9 10  1  0
 10 11  2  0
 11 12  1  0
 12  4  1  0
 13 14  2  0
 13  2  1  0
 16 15  1  0
 17 18  1  0
 17 16  1  6
 18 13  1  0
 19 17  1  0
 20 19  2  0
 22 21  1  0
 23 22  1  6
 23 24  1  0
 24 19  1  0
 25 23  1  0
 26 25  2  0
 27 25  1  0
M  END
$$$$
