WSS.pdb
     RDKit          3D

 27 28  0  0  1  0  0  0  0  0999 V2000
   25.3185  -18.7892  -10.6287 N   0  0  0  0  0  0  0  0  0  0  0  0
   26.1321  -19.8981  -11.0104 C   0  0  1  0  0  0  0  0  0  0  0  0
   25.9883  -21.0771  -10.0825 C   0  0  0  0  0  0  0  0  0  0  0  0
   26.2398  -20.6470   -8.6875 C   0  0  0  0  0  0  0  0  0  0  0  0
   25.3122  -20.3896   -7.7022 C   0  0  0  0  0  0  0  0  0  0  0  0
   25.9266  -20.0244   -6.5684 N   0  0  0  0  0  0  0  0  0  0  0  0
   27.2486  -20.0421   -6.8086 C   0  0  0  0  0  0  0  0  0  0  0  0
   28.3109  -19.7502   -5.9797 C   0  0  0  0  0  0  0  0  0  0  0  0
   29.5932  -19.8446   -6.4699 C   0  0  0  0  0  0  0  0  0  0  0  0
   29.8234  -20.2254   -7.7710 C   0  0  0  0  0  0  0  0  0  0  0  0
   28.7619  -20.5139   -8.5881 C   0  0  0  0  0  0  0  0  0  0  0  0
   27.4717  -20.4234   -8.1104 C   0  0  0  0  0  0  0  0  0  0  0  0
   25.8807  -20.2405  -12.4157 C   0  0  0  0  0  0  0  0  0  0  0  0
   24.7579  -20.0933  -12.9812 O   0  0  0  0  0  0  0  0  0  0  0  0
   28.4708  -22.5700  -14.9202 O   0  0  0  0  0  0  0  0  0  0  0  0
   28.1221  -21.2664  -15.2015 C   0  0  0  0  0  0  0  0  0  0  0  0
   26.7517  -20.9314  -14.6443 C   0  0  2  0  0  0  0  0  0  0  0  0
   26.9310  -20.7655  -13.2067 N   0  0  0  0  0  0  0  0  0  0  0  0
   25.7808  -22.0126  -14.8626 C   0  0  0  0  0  0  0  0  0  0  0  0
   25.9939  -23.1679  -14.4528 O   0  0  0  0  0  0  0  0  0  0  0  0
   21.3396  -22.9199  -16.5603 O   0  0  0  0  0  0  0  0  0  0  0  0
   22.3810  -22.0356  -16.4252 C   0  0  0  0  0  0  0  0  0  0  0  0
   23.5944  -22.7600  -15.8632 C   0  0  2  0  0  0  0  0  0  0  0  0
   24.5769  -21.7462  -15.5504 N   0  0  0  0  0  0  0  0  0  0  0  0
   24.0406  -23.7247  -16.8601 C   0  0  0  0  0  0  0  0  0  0  0  0
   24.8035  -23.4013  -17.7989 O   0  0  0  0  0  0  0  0  0  0  0  0
   23.6201  -25.0388  -16.7839 O   0  0  0  0  0  0  0  0  0  0  0  0
  2  1  1  1
  3  2  1  0
  4  3  1  0
  5  4  2  0
  6  5  1  0
  7  6  1  0
  7 12  2  0
  8  7  1  0
  9  8  2  0
  9 10  1  0
 10 11  2  0
 11 12  1  0
 12  4  1  0
 13 14  2  0
 13  2  1  0
 16 15  1  0
 17 18  1  0
 17 16  1  6
 18 13  1  0
 19 17  1  0
 20 19  2  0
 22 21  1  0
 23 22  1  6
 23 24  1  0
 24 19  1  0
 25 23  1  0
 26 25  2  0
 27 25  1  0
M  END
$$$$
