WSS.pdb
     RDKit          3D

 27 28  0  0  1  0  0  0  0  0999 V2000
   21.7822  -21.3968  -15.6417 N   0  0  0  0  0  0  0  0  0  0  0  0
   22.0250  -22.2539  -14.5265 C   0  0  1  0  0  0  0  0  0  0  0  0
   23.2272  -21.8373  -13.7183 C   0  0  0  0  0  0  0  0  0  0  0  0
   24.4054  -21.7096  -14.6072 C   0  0  0  0  0  0  0  0  0  0  0  0
   25.0773  -20.5600  -14.9598 C   0  0  0  0  0  0  0  0  0  0  0  0
   26.0948  -20.8495  -15.7827 N   0  0  0  0  0  0  0  0  0  0  0  0
   26.0901  -22.1802  -15.9687 C   0  0  0  0  0  0  0  0  0  0  0  0
   26.9231  -22.9796  -16.7223 C   0  0  0  0  0  0  0  0  0  0  0  0
   26.7080  -24.3385  -16.7504 C   0  0  0  0  0  0  0  0  0  0  0  0
   25.6762  -24.9030  -16.0380 C   0  0  0  0  0  0  0  0  0  0  0  0
   24.8530  -24.1012  -15.2915 C   0  0  0  0  0  0  0  0  0  0  0  0
   25.0567  -22.7381  -15.2541 C   0  0  0  0  0  0  0  0  0  0  0  0
   20.8057  -22.3779  -13.7183 C   0  0  0  0  0  0  0  0  0  0  0  0
   20.1664  -21.3861  -13.2604 O   0  0  0  0  0  0  0  0  0  0  0  0
   18.4221  -25.6229  -14.0419 O   0  0  0  0  0  0  0  0  0  0  0  0
   18.0338  -24.3831  -13.5811 C   0  0  0  0  0  0  0  0  0  0  0  0
   19.0682  -23.7982  -12.6384 C   0  0  2  0  0  0  0  0  0  0  0  0
   20.2929  -23.6630  -13.4182 N   0  0  0  0  0  0  0  0  0  0  0  0
   19.3469  -24.6819  -11.4979 C   0  0  0  0  0  0  0  0  0  0  0  0
   20.1521  -25.6258  -11.5908 O   0  0  0  0  0  0  0  0  0  0  0  0
   16.9097  -24.3136   -8.2539 O   0  0  0  0  0  0  0  0  0  0  0  0
   18.2170  -24.5863   -7.9355 C   0  0  0  0  0  0  0  0  0  0  0  0
   18.8869  -25.2985   -9.1003 C   0  0  2  0  0  0  0  0  0  0  0  0
   18.6932  -24.4643  -10.2656 N   0  0  0  0  0  0  0  0  0  0  0  0
   18.2896  -26.6224   -9.2182 C   0  0  0  0  0  0  0  0  0  0  0  0
   17.4985  -26.9113  -10.1448 O   0  0  0  0  0  0  0  0  0  0  0  0
   18.5928  -27.6003   -8.2900 O   0  0  0  0  0  0  0  0  0  0  0  0
  2  1  1  6
  3  2  1  0
  4  3  1  0
  5  4  2  0
  6  5  1  0
  7  6  1  0
  7 12  2  0
  8  7  1  0
  9  8  2  0
  9 10  1  0
 10 11  2  0
 11 12  1  0
 12  4  1  0
 13 14  2  0
 13  2  1  0
 16 15  1  0
 17 18  1  0
 17 16  1  6
 18 13  1  0
 19 17  1  0
 20 19  2  0
 22 21  1  0
 23 22  1  1
 23 24  1  0
 24 19  1  0
 25 23  1  0
 26 25  2  0
 27 25  1  0
M  END
$$$$
