WSS.pdb
     RDKit          3D

 27 28  0  0  1  0  0  0  0  0999 V2000
   26.2668  -22.6213  -13.4174 N   0  0  0  0  0  0  0  0  0  0  0  0
   25.5076  -21.5417  -12.8738 C   0  0  1  0  0  0  0  0  0  0  0  0
   26.3248  -20.2901  -12.6800 C   0  0  0  0  0  0  0  0  0  0  0  0
   27.3503  -20.5211  -11.6362 C   0  0  0  0  0  0  0  0  0  0  0  0
   28.7102  -20.6621  -11.8040 C   0  0  0  0  0  0  0  0  0  0  0  0
   29.3075  -20.8565  -10.6201 N   0  0  0  0  0  0  0  0  0  0  0  0
   28.3456  -20.8430   -9.6819 C   0  0  0  0  0  0  0  0  0  0  0  0
   28.4296  -20.9967   -8.3144 C   0  0  0  0  0  0  0  0  0  0  0  0
   27.2809  -20.9422   -7.5589 C   0  0  0  0  0  0  0  0  0  0  0  0
   26.0572  -20.7369   -8.1518 C   0  0  0  0  0  0  0  0  0  0  0  0
   25.9826  -20.5851   -9.5116 C   0  0  0  0  0  0  0  0  0  0  0  0
   27.1255  -20.6376  -10.2811 C   0  0  0  0  0  0  0  0  0  0  0  0
   24.3039  -21.3207  -13.6848 C   0  0  0  0  0  0  0  0  0  0  0  0
   24.3345  -21.0082  -14.9109 O   0  0  0  0  0  0  0  0  0  0  0  0
   20.5530  -21.3379  -11.8932 O   0  0  0  0  0  0  0  0  0  0  0  0
   20.7133  -22.0062  -13.0880 C   0  0  0  0  0  0  0  0  0  0  0  0
   21.8253  -21.3920  -13.9167 C   0  0  2  0  0  0  0  0  0  0  0  0
   23.0257  -21.4573  -13.0914 N   0  0  0  0  0  0  0  0  0  0  0  0
   21.5675  -19.9816  -14.2387 C   0  0  0  0  0  0  0  0  0  0  0  0
   21.8757  -19.0697  -13.4503 O   0  0  0  0  0  0  0  0  0  0  0  0
   20.0566  -19.1597  -17.9692 O   0  0  0  0  0  0  0  0  0  0  0  0
   20.8146  -18.1955  -17.3523 C   0  0  0  0  0  0  0  0  0  0  0  0
   20.6267  -18.2868  -15.8459 C   0  0  2  0  0  0  0  0  0  0  0  0
   20.9579  -19.6423  -15.4662 N   0  0  0  0  0  0  0  0  0  0  0  0
   19.2521  -17.9096  -15.5430 C   0  0  0  0  0  0  0  0  0  0  0  0
   18.4418  -18.7164  -15.0327 O   0  0  0  0  0  0  0  0  0  0  0  0
   18.8119  -16.6294  -15.8200 O   0  0  0  0  0  0  0  0  0  0  0  0
  2  1  1  6
  3  2  1  0
  4  3  1  0
  5  4  2  0
  6  5  1  0
  7  6  1  0
  7 12  2  0
  8  7  1  0
  9  8  2  0
  9 10  1  0
 10 11  2  0
 11 12  1  0
 12  4  1  0
 13 14  2  0
 13  2  1  0
 16 15  1  0
 17 18  1  0
 17 16  1  1
 18 13  1  0
 19 17  1  0
 20 19  2  0
 22 21  1  0
 23 22  1  6
 23 24  1  0
 24 19  1  0
 25 23  1  0
 26 25  2  0
 27 25  1  0
M  END
$$$$
