KWR.pdb
     RDKit          3D

 35 36  0  0  1  0  0  0  0  0999 V2000
   28.7950  -22.7474  -17.4106 N   0  0  0  0  0  0  0  0  0  0  0  0
   28.0210  -21.5745  -17.0654 C   0  0  1  0  0  0  0  0  0  0  0  0
   26.8709  -21.3531  -18.0127 C   0  0  0  0  0  0  0  0  0  0  0  0
   27.2630  -21.5504  -19.4560 C   0  0  0  0  0  0  0  0  0  0  0  0
   27.7763  -20.2783  -20.0865 C   0  0  0  0  0  0  0  0  0  0  0  0
   27.9455  -20.4390  -21.5811 C   0  0  0  0  0  0  0  0  0  0  0  0
   28.5128  -19.2494  -22.1804 N   0  0  0  0  0  0  0  0  0  0  0  0
   27.4606  -21.7781  -15.7097 C   0  0  0  0  0  0  0  0  0  0  0  0
   26.9206  -22.8651  -15.3865 O   0  0  0  0  0  0  0  0  0  0  0  0
   27.5119  -20.7549  -14.7266 N   0  0  0  0  0  0  0  0  0  0  0  0
   27.0033  -20.9774  -13.3998 C   0  0  1  0  0  0  0  0  0  0  0  0
   27.5169  -20.0121  -12.3721 C   0  0  0  0  0  0  0  0  0  0  0  0
   27.9205  -20.6570  -11.1148 C   0  0  0  0  0  0  0  0  0  0  0  0
   28.9108  -21.6325  -10.9880 C   0  0  0  0  0  0  0  0  0  0  0  0
   29.0205  -21.9633   -9.6907 N   0  0  0  0  0  0  0  0  0  0  0  0
   28.1345  -21.2383   -8.9585 C   0  0  0  0  0  0  0  0  0  0  0  0
   27.8941  -21.2507   -7.6048 C   0  0  0  0  0  0  0  0  0  0  0  0
   26.9170  -20.4044   -7.1268 C   0  0  0  0  0  0  0  0  0  0  0  0
   26.1979  -19.5722   -7.9493 C   0  0  0  0  0  0  0  0  0  0  0  0
   26.4742  -19.5943   -9.3001 C   0  0  0  0  0  0  0  0  0  0  0  0
   27.4488  -20.4235   -9.8525 C   0  0  0  0  0  0  0  0  0  0  0  0
   25.5250  -20.8201  -13.4280 C   0  0  0  0  0  0  0  0  0  0  0  0
   25.0428  -19.8112  -14.0026 O   0  0  0  0  0  0  0  0  0  0  0  0
   19.1894  -26.7377  -12.3182 N   0  0  0  0  0  0  0  0  0  0  0  0
   19.1204  -25.5792  -11.5121 C   0  0  0  0  0  0  0  0  0  0  0  0
   18.3816  -25.5708  -10.4439 N   0  0  0  0  0  0  0  0  0  0  0  0
   19.8329  -24.3916  -11.8126 N   0  0  0  0  0  0  0  0  0  0  0  0
   20.5407  -24.2785  -13.0693 C   0  0  0  0  0  0  0  0  0  0  0  0
   21.0951  -22.8433  -13.1164 C   0  0  0  0  0  0  0  0  0  0  0  0
   22.5698  -22.9422  -12.9163 C   0  0  0  0  0  0  0  0  0  0  0  0
   23.2300  -21.5802  -12.9677 C   0  0  2  0  0  0  0  0  0  0  0  0
   24.6613  -21.7642  -12.8332 N   0  0  0  0  0  0  0  0  0  0  0  0
   22.8028  -20.6623  -11.9068 C   0  0  0  0  0  0  0  0  0  0  0  0
   23.4466  -20.5546  -10.8059 O   0  0  0  0  0  0  0  0  0  0  0  0
   21.6843  -19.8468  -12.0066 O   0  0  0  0  0  0  0  0  0  0  0  0
  2  1  1  6
  3  4  1  0
  3  2  1  0
  4  5  1  0
  5  6  1  0
  6  7  1  0
  8 10  1  0
  8  2  1  0
  9  8  2  0
 11 22  1  0
 11 10  1  0
 12 13  1  0
 11 12  1  1
 13 14  2  0
 13 21  1  0
 14 15  1  0
 15 16  1  0
 16 17  2  0
 17 18  1  0
 19 18  2  0
 20 19  1  0
 21 20  2  0
 21 16  1  0
 22 23  2  0
 24 25  1  0
 25 26  2  0
 25 27  1  0
 27 28  1  0
 29 28  1  0
 30 29  1  0
 31 30  1  1
 31 33  1  0
 32 31  1  0
 32 22  1  0
 33 34  2  0
 33 35  1  0
M  END
$$$$
