KWR.pdb
     RDKit          3D

 35 36  0  0  1  0  0  0  0  0999 V2000
   27.1673  -24.1390  -15.5934 N   0  0  0  0  0  0  0  0  0  0  0  0
   26.5708  -22.8212  -15.5561 C   0  0  1  0  0  0  0  0  0  0  0  0
   25.6096  -22.5997  -16.6946 C   0  0  0  0  0  0  0  0  0  0  0  0
   26.3112  -22.2755  -17.9901 C   0  0  0  0  0  0  0  0  0  0  0  0
   26.9113  -20.8902  -17.9826 C   0  0  0  0  0  0  0  0  0  0  0  0
   27.5559  -20.5667  -19.3123 C   0  0  0  0  0  0  0  0  0  0  0  0
   28.0661  -19.2120  -19.3376 N   0  0  0  0  0  0  0  0  0  0  0  0
   25.8122  -22.6975  -14.2901 C   0  0  0  0  0  0  0  0  0  0  0  0
   25.0222  -23.5991  -13.9154 O   0  0  0  0  0  0  0  0  0  0  0  0
   25.9484  -21.5577  -13.4544 N   0  0  0  0  0  0  0  0  0  0  0  0
   25.1623  -21.4191  -12.2580 C   0  0  1  0  0  0  0  0  0  0  0  0
   25.6480  -20.3530  -11.3204 C   0  0  0  0  0  0  0  0  0  0  0  0
   26.8761  -20.7215  -10.6023 C   0  0  0  0  0  0  0  0  0  0  0  0
   28.0651  -21.1450  -11.1983 C   0  0  0  0  0  0  0  0  0  0  0  0
   28.9723  -21.3642  -10.2323 N   0  0  0  0  0  0  0  0  0  0  0  0
   28.4201  -21.0997   -9.0191 C   0  0  0  0  0  0  0  0  0  0  0  0
   28.9717  -21.1908   -7.7630 C   0  0  0  0  0  0  0  0  0  0  0  0
   28.1675  -20.8642   -6.6924 C   0  0  0  0  0  0  0  0  0  0  0  0
   26.8637  -20.4613   -6.8477 C   0  0  0  0  0  0  0  0  0  0  0  0
   26.3540  -20.3849   -8.1267 C   0  0  0  0  0  0  0  0  0  0  0  0
   27.1097  -20.6988   -9.2549 C   0  0  0  0  0  0  0  0  0  0  0  0
   23.7760  -21.0448  -12.6443 C   0  0  0  0  0  0  0  0  0  0  0  0
   23.6124  -20.3402  -13.6725 O   0  0  0  0  0  0  0  0  0  0  0  0
   18.1514  -25.0055  -14.5233 N   0  0  0  0  0  0  0  0  0  0  0  0
   18.0445  -25.1381  -13.1205 C   0  0  0  0  0  0  0  0  0  0  0  0
   17.3182  -26.0851  -12.6082 N   0  0  0  0  0  0  0  0  0  0  0  0
   18.7048  -24.2705  -12.2152 N   0  0  0  0  0  0  0  0  0  0  0  0
   18.0812  -23.0218  -11.8342 C   0  0  0  0  0  0  0  0  0  0  0  0
   18.9795  -21.9083  -12.4018 C   0  0  0  0  0  0  0  0  0  0  0  0
   20.3598  -22.1677  -11.8998 C   0  0  0  0  0  0  0  0  0  0  0  0
   21.3310  -21.1053  -12.3707 C   0  0  2  0  0  0  0  0  0  0  0  0
   22.6540  -21.4565  -11.8943 N   0  0  0  0  0  0  0  0  0  0  0  0
   21.0316  -19.7552  -11.8825 C   0  0  0  0  0  0  0  0  0  0  0  0
   21.4996  -19.3174  -10.7745 O   0  0  0  0  0  0  0  0  0  0  0  0
   20.2302  -18.8544  -12.5698 O   0  0  0  0  0  0  0  0  0  0  0  0
  2  1  1  6
  3  4  1  0
  3  2  1  0
  4  5  1  0
  5  6  1  0
  6  7  1  0
  8 10  1  0
  8  2  1  0
  9  8  2  0
 11 22  1  0
 11 10  1  0
 12 13  1  0
 11 12  1  1
 13 14  2  0
 13 21  1  0
 14 15  1  0
 15 16  1  0
 16 17  2  0
 17 18  1  0
 19 18  2  0
 20 19  1  0
 21 20  2  0
 21 16  1  0
 22 23  2  0
 24 25  1  0
 25 26  2  0
 25 27  1  0
 27 28  1  0
 29 28  1  0
 30 29  1  0
 31 30  1  1
 31 33  1  0
 32 31  1  0
 32 22  1  0
 33 34  2  0
 33 35  1  0
M  END
$$$$
