KWR.pdb
     RDKit          3D

 35 36  0  0  1  0  0  0  0  0999 V2000
   25.7882  -22.4865  -14.4656 N   0  0  0  0  0  0  0  0  0  0  0  0
   25.8425  -21.4361  -13.4718 C   0  0  1  0  0  0  0  0  0  0  0  0
   27.0572  -20.5604  -13.6357 C   0  0  0  0  0  0  0  0  0  0  0  0
   27.4036  -20.3155  -15.0834 C   0  0  0  0  0  0  0  0  0  0  0  0
   28.1931  -21.4550  -15.6814 C   0  0  0  0  0  0  0  0  0  0  0  0
   28.6890  -21.1077  -17.0677 C   0  0  0  0  0  0  0  0  0  0  0  0
   29.4457  -22.1973  -17.6475 N   0  0  0  0  0  0  0  0  0  0  0  0
   24.6423  -20.5846  -13.6394 C   0  0  0  0  0  0  0  0  0  0  0  0
   24.4238  -19.6123  -12.8749 O   0  0  0  0  0  0  0  0  0  0  0  0
   23.6953  -20.8348  -14.6673 N   0  0  0  0  0  0  0  0  0  0  0  0
   22.4671  -20.0899  -14.7393 C   0  0  1  0  0  0  0  0  0  0  0  0
   22.1925  -19.4808  -16.0830 C   0  0  0  0  0  0  0  0  0  0  0  0
   20.9610  -18.6798  -16.1208 C   0  0  0  0  0  0  0  0  0  0  0  0
   20.6438  -17.6424  -15.2425 C   0  0  0  0  0  0  0  0  0  0  0  0
   19.4562  -17.1274  -15.6013 N   0  0  0  0  0  0  0  0  0  0  0  0
   18.9800  -17.7918  -16.6869 C   0  0  0  0  0  0  0  0  0  0  0  0
   17.8091  -17.6113  -17.3846 C   0  0  0  0  0  0  0  0  0  0  0  0
   17.5745  -18.4462  -18.4558 C   0  0  0  0  0  0  0  0  0  0  0  0
   18.4593  -19.4272  -18.8315 C   0  0  0  0  0  0  0  0  0  0  0  0
   19.6206  -19.5705  -18.1018 C   0  0  0  0  0  0  0  0  0  0  0  0
   19.9234  -18.7615  -17.0081 C   0  0  0  0  0  0  0  0  0  0  0  0
   21.3372  -21.0132  -14.4533 C   0  0  0  0  0  0  0  0  0  0  0  0
   21.4088  -22.1941  -14.8786 O   0  0  0  0  0  0  0  0  0  0  0  0
   18.7172  -24.6720   -7.7659 N   0  0  0  0  0  0  0  0  0  0  0  0
   18.8159  -25.3052   -9.0252 C   0  0  0  0  0  0  0  0  0  0  0  0
   19.1819  -26.5489   -9.1032 N   0  0  0  0  0  0  0  0  0  0  0  0
   18.5294  -24.6398  -10.2432 N   0  0  0  0  0  0  0  0  0  0  0  0
   18.1624  -23.2405  -10.2269 C   0  0  0  0  0  0  0  0  0  0  0  0
   17.9888  -22.8301  -11.7003 C   0  0  0  0  0  0  0  0  0  0  0  0
   19.1100  -21.9021  -12.0261 C   0  0  0  0  0  0  0  0  0  0  0  0
   19.1340  -21.5558  -13.5003 C   0  0  2  0  0  0  0  0  0  0  0  0
   20.2011  -20.6011  -13.7249 N   0  0  0  0  0  0  0  0  0  0  0  0
   17.8931  -20.9542  -13.9989 C   0  0  0  0  0  0  0  0  0  0  0  0
   17.4853  -19.8108  -13.5933 O   0  0  0  0  0  0  0  0  0  0  0  0
   17.0717  -21.5634  -14.9371 O   0  0  0  0  0  0  0  0  0  0  0  0
  2  1  1  6
  3  4  1  0
  3  2  1  0
  4  5  1  0
  5  6  1  0
  6  7  1  0
  8 10  1  0
  8  2  1  0
  9  8  2  0
 11 22  1  0
 11 10  1  0
 12 13  1  0
 11 12  1  6
 13 14  2  0
 13 21  1  0
 14 15  1  0
 15 16  1  0
 16 17  2  0
 17 18  1  0
 19 18  2  0
 20 19  1  0
 21 20  2  0
 21 16  1  0
 22 23  2  0
 24 25  1  0
 25 26  2  0
 25 27  1  0
 27 28  1  0
 29 28  1  0
 30 29  1  0
 31 30  1  1
 31 33  1  0
 32 31  1  0
 32 22  1  0
 33 34  2  0
 33 35  1  0
M  END
$$$$
