KWR.pdb
     RDKit          3D

 35 36  0  0  1  0  0  0  0  0999 V2000
   28.8257  -23.3705  -15.2797 N   0  0  0  0  0  0  0  0  0  0  0  0
   28.7154  -21.9860  -14.8735 C   0  0  1  0  0  0  0  0  0  0  0  0
   27.9202  -21.1667  -15.8561 C   0  0  0  0  0  0  0  0  0  0  0  0
   28.6993  -20.8465  -17.1075 C   0  0  0  0  0  0  0  0  0  0  0  0
   29.4678  -22.0398  -17.6220 C   0  0  0  0  0  0  0  0  0  0  0  0
   30.2001  -21.7072  -18.9031 C   0  0  0  0  0  0  0  0  0  0  0  0
   29.7295  -20.4625  -19.4738 N   0  0  0  0  0  0  0  0  0  0  0  0
   28.0101  -21.9453  -13.5718 C   0  0  0  0  0  0  0  0  0  0  0  0
   26.9203  -22.5469  -13.4044 O   0  0  0  0  0  0  0  0  0  0  0  0
   28.5374  -21.2263  -12.4668 N   0  0  0  0  0  0  0  0  0  0  0  0
   27.8549  -21.2100  -11.2009 C   0  0  1  0  0  0  0  0  0  0  0  0
   28.5979  -20.4987  -10.1083 C   0  0  0  0  0  0  0  0  0  0  0  0
   27.8330  -20.3866   -8.8585 C   0  0  0  0  0  0  0  0  0  0  0  0
   26.4406  -20.3727   -8.7612 C   0  0  0  0  0  0  0  0  0  0  0  0
   26.1043  -20.2872   -7.4635 N   0  0  0  0  0  0  0  0  0  0  0  0
   27.2293  -20.2438   -6.7025 C   0  0  0  0  0  0  0  0  0  0  0  0
   27.3647  -20.1503   -5.3374 C   0  0  0  0  0  0  0  0  0  0  0  0
   28.6450  -20.1163   -4.8283 C   0  0  0  0  0  0  0  0  0  0  0  0
   29.7577  -20.1720   -5.6314 C   0  0  0  0  0  0  0  0  0  0  0  0
   29.5725  -20.2656   -6.9947 C   0  0  0  0  0  0  0  0  0  0  0  0
   28.3075  -20.3057   -7.5784 C   0  0  0  0  0  0  0  0  0  0  0  0
   26.5624  -20.4946  -11.3702 C   0  0  0  0  0  0  0  0  0  0  0  0
   26.5640  -19.3948  -11.9793 O   0  0  0  0  0  0  0  0  0  0  0  0
   22.3440  -24.5243  -14.6746 N   0  0  0  0  0  0  0  0  0  0  0  0
   21.2686  -23.6775  -15.0257 C   0  0  0  0  0  0  0  0  0  0  0  0
   20.0768  -24.1685  -15.1848 N   0  0  0  0  0  0  0  0  0  0  0  0
   21.4223  -22.2821  -15.2192 N   0  0  0  0  0  0  0  0  0  0  0  0
   22.6430  -21.6297  -14.7980 C   0  0  0  0  0  0  0  0  0  0  0  0
   22.5455  -21.4944  -13.2678 C   0  0  0  0  0  0  0  0  0  0  0  0
   23.9389  -21.5508  -12.7387 C   0  0  0  0  0  0  0  0  0  0  0  0
   24.1118  -20.6522  -11.5320 C   0  0  2  0  0  0  0  0  0  0  0  0
   25.3494  -21.0139  -10.8703 N   0  0  0  0  0  0  0  0  0  0  0  0
   23.0357  -20.7587  -10.5414 C   0  0  0  0  0  0  0  0  0  0  0  0
   23.1341  -21.5169   -9.5149 O   0  0  0  0  0  0  0  0  0  0  0  0
   21.8415  -20.0575  -10.6320 O   0  0  0  0  0  0  0  0  0  0  0  0
  2  1  1  6
  3  4  1  0
  3  2  1  0
  4  5  1  0
  5  6  1  0
  6  7  1  0
  8 10  1  0
  8  2  1  0
  9  8  2  0
 11 22  1  0
 11 10  1  0
 12 13  1  0
 11 12  1  1
 13 14  2  0
 13 21  1  0
 14 15  1  0
 15 16  1  0
 16 17  2  0
 17 18  1  0
 19 18  2  0
 20 19  1  0
 21 20  2  0
 21 16  1  0
 22 23  2  0
 24 25  1  0
 25 26  2  0
 25 27  1  0
 27 28  1  0
 29 28  1  0
 30 29  1  0
 31 30  1  6
 31 33  1  0
 32 31  1  0
 32 22  1  0
 33 34  2  0
 33 35  1  0
M  END
$$$$
