KWR.pdb
     RDKit          3D

 35 36  0  0  1  0  0  0  0  0999 V2000
   25.6750  -16.6235  -14.2046 N   0  0  0  0  0  0  0  0  0  0  0  0
   26.0462  -17.9008  -14.7743 C   0  0  1  0  0  0  0  0  0  0  0  0
   26.7741  -17.7492  -16.0843 C   0  0  0  0  0  0  0  0  0  0  0  0
   26.7005  -16.3442  -16.6286 C   0  0  0  0  0  0  0  0  0  0  0  0
   26.1459  -16.3046  -18.0322 C   0  0  0  0  0  0  0  0  0  0  0  0
   27.1458  -15.7082  -18.9981 C   0  0  0  0  0  0  0  0  0  0  0  0
   26.8455  -14.3203  -19.2807 N   0  0  0  0  0  0  0  0  0  0  0  0
   26.9573  -18.5789  -13.8237 C   0  0  0  0  0  0  0  0  0  0  0  0
   27.9238  -17.9688  -13.3028 O   0  0  0  0  0  0  0  0  0  0  0  0
   26.7738  -19.9408  -13.4665 N   0  0  0  0  0  0  0  0  0  0  0  0
   27.6943  -20.6046  -12.5831 C   0  0  1  0  0  0  0  0  0  0  0  0
   27.0770  -21.6895  -11.7502 C   0  0  0  0  0  0  0  0  0  0  0  0
   26.5400  -21.2089  -10.4694 C   0  0  0  0  0  0  0  0  0  0  0  0
   25.1855  -21.0951  -10.1523 C   0  0  0  0  0  0  0  0  0  0  0  0
   25.0787  -20.6503   -8.8893 N   0  0  0  0  0  0  0  0  0  0  0  0
   26.3185  -20.4667   -8.3639 C   0  0  0  0  0  0  0  0  0  0  0  0
   26.6880  -20.0215   -7.1166 C   0  0  0  0  0  0  0  0  0  0  0  0
   28.0371  -19.9222   -6.8531 C   0  0  0  0  0  0  0  0  0  0  0  0
   28.9942  -20.2486   -7.7825 C   0  0  0  0  0  0  0  0  0  0  0  0
   28.5758  -20.6906   -9.0199 C   0  0  0  0  0  0  0  0  0  0  0  0
   27.2289  -20.8165   -9.3550 C   0  0  0  0  0  0  0  0  0  0  0  0
   28.7537  -21.2502  -13.4029 C   0  0  0  0  0  0  0  0  0  0  0  0
   28.5434  -21.4094  -14.6321 O   0  0  0  0  0  0  0  0  0  0  0  0
   35.3538  -25.6273  -12.3972 N   0  0  0  0  0  0  0  0  0  0  0  0
   35.5160  -25.4553  -13.7904 C   0  0  0  0  0  0  0  0  0  0  0  0
   36.1383  -26.3549  -14.4906 N   0  0  0  0  0  0  0  0  0  0  0  0
   35.0233  -24.3233  -14.4863 N   0  0  0  0  0  0  0  0  0  0  0  0
   34.3170  -23.2883  -13.7632 C   0  0  0  0  0  0  0  0  0  0  0  0
   32.9063  -23.8436  -13.4972 C   0  0  0  0  0  0  0  0  0  0  0  0
   32.1255  -22.7500  -12.8501 C   0  0  0  0  0  0  0  0  0  0  0  0
   30.9434  -22.3332  -13.7001 C   0  0  2  0  0  0  0  0  0  0  0  0
   29.9739  -21.6826  -12.8416 N   0  0  0  0  0  0  0  0  0  0  0  0
   30.2613  -23.4445  -14.3712 C   0  0  0  0  0  0  0  0  0  0  0  0
   29.3005  -24.0824  -13.8161 O   0  0  0  0  0  0  0  0  0  0  0  0
   30.5942  -23.8893  -15.6429 O   0  0  0  0  0  0  0  0  0  0  0  0
  2  1  1  1
  3  4  1  0
  3  2  1  0
  4  5  1  0
  5  6  1  0
  6  7  1  0
  8 10  1  0
  8  2  1  0
  9  8  2  0
 11 22  1  0
 11 10  1  0
 12 13  1  0
 11 12  1  6
 13 14  2  0
 13 21  1  0
 14 15  1  0
 15 16  1  0
 16 17  2  0
 17 18  1  0
 19 18  2  0
 20 19  1  0
 21 20  2  0
 21 16  1  0
 22 23  2  0
 24 25  1  0
 25 26  2  0
 25 27  1  0
 27 28  1  0
 29 28  1  0
 30 29  1  0
 31 30  1  1
 31 33  1  0
 32 31  1  0
 32 22  1  0
 33 34  2  0
 33 35  1  0
M  END
$$$$
