KWR.pdb
     RDKit          3D

 35 36  0  0  1  0  0  0  0  0999 V2000
   29.2510  -21.9558  -14.5419 N   0  0  0  0  0  0  0  0  0  0  0  0
   28.1769  -20.9918  -14.4373 C   0  0  1  0  0  0  0  0  0  0  0  0
   27.2078  -21.0934  -15.5860 C   0  0  0  0  0  0  0  0  0  0  0  0
   27.7459  -20.4780  -16.8539 C   0  0  0  0  0  0  0  0  0  0  0  0
   28.7609  -21.3659  -17.5326 C   0  0  0  0  0  0  0  0  0  0  0  0
   29.2313  -20.7604  -18.8366 C   0  0  0  0  0  0  0  0  0  0  0  0
   30.1913  -21.6161  -19.5016 N   0  0  0  0  0  0  0  0  0  0  0  0
   27.4317  -21.2702  -13.1879 C   0  0  0  0  0  0  0  0  0  0  0  0
   26.2876  -21.7876  -13.2155 O   0  0  0  0  0  0  0  0  0  0  0  0
   27.9807  -20.9629  -11.9150 N   0  0  0  0  0  0  0  0  0  0  0  0
   27.2895  -21.3200  -10.7054 C   0  0  1  0  0  0  0  0  0  0  0  0
   28.1443  -21.2838   -9.4725 C   0  0  0  0  0  0  0  0  0  0  0  0
   27.4237  -20.8295   -8.2750 C   0  0  0  0  0  0  0  0  0  0  0  0
   26.0404  -20.8802   -8.0959 C   0  0  0  0  0  0  0  0  0  0  0  0
   25.7507  -20.4063   -6.8728 N   0  0  0  0  0  0  0  0  0  0  0  0
   26.8977  -20.0445   -6.2402 C   0  0  0  0  0  0  0  0  0  0  0  0
   27.0796  -19.5092   -4.9869 C   0  0  0  0  0  0  0  0  0  0  0  0
   28.3718  -19.2265   -4.5999 C   0  0  0  0  0  0  0  0  0  0  0  0
   29.4518  -19.4606   -5.4153 C   0  0  0  0  0  0  0  0  0  0  0  0
   29.2204  -19.9987   -6.6637 C   0  0  0  0  0  0  0  0  0  0  0  0
   27.9409  -20.3102   -7.1203 C   0  0  0  0  0  0  0  0  0  0  0  0
   26.1873  -20.3464  -10.4860 C   0  0  0  0  0  0  0  0  0  0  0  0
   26.4442  -19.1202  -10.5905 O   0  0  0  0  0  0  0  0  0  0  0  0
   24.4869  -24.0438  -14.6326 N   0  0  0  0  0  0  0  0  0  0  0  0
   23.2943  -23.6478  -15.2788 C   0  0  0  0  0  0  0  0  0  0  0  0
   22.7069  -24.4511  -16.1135 N   0  0  0  0  0  0  0  0  0  0  0  0
   22.6856  -22.3868  -15.0606 N   0  0  0  0  0  0  0  0  0  0  0  0
   22.2402  -22.0255  -13.7323 C   0  0  0  0  0  0  0  0  0  0  0  0
   22.9697  -20.7163  -13.3816 C   0  0  0  0  0  0  0  0  0  0  0  0
   24.0340  -21.0645  -12.3963 C   0  0  0  0  0  0  0  0  0  0  0  0
   23.7946  -20.3938  -11.0597 C   0  0  2  0  0  0  0  0  0  0  0  0
   24.8765  -20.7604  -10.1677 N   0  0  0  0  0  0  0  0  0  0  0  0
   22.5380  -20.7780  -10.4085 C   0  0  0  0  0  0  0  0  0  0  0  0
   22.4385  -21.8435   -9.7062 O   0  0  0  0  0  0  0  0  0  0  0  0
   21.3720  -20.0308  -10.4969 O   0  0  0  0  0  0  0  0  0  0  0  0
  2  1  1  6
  3  4  1  0
  3  2  1  0
  4  5  1  0
  5  6  1  0
  6  7  1  0
  8 10  1  0
  8  2  1  0
  9  8  2  0
 11 22  1  0
 11 10  1  0
 12 13  1  0
 11 12  1  1
 13 14  2  0
 13 21  1  0
 14 15  1  0
 15 16  1  0
 16 17  2  0
 17 18  1  0
 19 18  2  0
 20 19  1  0
 21 20  2  0
 21 16  1  0
 22 23  2  0
 24 25  1  0
 25 26  2  0
 25 27  1  0
 27 28  1  0
 29 28  1  0
 30 29  1  0
 31 30  1  6
 31 33  1  0
 32 31  1  0
 32 22  1  0
 33 34  2  0
 33 35  1  0
M  END
$$$$
