KWR.pdb
     RDKit          3D

 35 36  0  0  1  0  0  0  0  0999 V2000
   28.8507  -20.2928  -15.4925 N   0  0  0  0  0  0  0  0  0  0  0  0
   28.1822  -21.5515  -15.7427 C   0  0  1  0  0  0  0  0  0  0  0  0
   29.1554  -22.6893  -15.9086 C   0  0  0  0  0  0  0  0  0  0  0  0
   30.0689  -22.5018  -17.0943 C   0  0  0  0  0  0  0  0  0  0  0  0
   29.3046  -22.3963  -18.3920 C   0  0  0  0  0  0  0  0  0  0  0  0
   30.2419  -22.2093  -19.5645 C   0  0  0  0  0  0  0  0  0  0  0  0
   29.5183  -22.1572  -20.8175 N   0  0  0  0  0  0  0  0  0  0  0  0
   27.3236  -21.8544  -14.5744 C   0  0  0  0  0  0  0  0  0  0  0  0
   26.7576  -22.9693  -14.4559 O   0  0  0  0  0  0  0  0  0  0  0  0
   27.1081  -20.8983  -13.5471 N   0  0  0  0  0  0  0  0  0  0  0  0
   26.2641  -21.1987  -12.4219 C   0  0  1  0  0  0  0  0  0  0  0  0
   26.5209  -20.3473  -11.2131 C   0  0  0  0  0  0  0  0  0  0  0  0
   27.7212  -20.7437  -10.4635 C   0  0  0  0  0  0  0  0  0  0  0  0
   28.7979  -21.4640  -10.9832 C   0  0  0  0  0  0  0  0  0  0  0  0
   29.7179  -21.6138  -10.0159 N   0  0  0  0  0  0  0  0  0  0  0  0
   29.2825  -21.0164   -8.8756 C   0  0  0  0  0  0  0  0  0  0  0  0
   29.8871  -20.9257   -7.6441 C   0  0  0  0  0  0  0  0  0  0  0  0
   29.2038  -20.2591   -6.6501 C   0  0  0  0  0  0  0  0  0  0  0  0
   27.9668  -19.6990   -6.8561 C   0  0  0  0  0  0  0  0  0  0  0  0
   27.4000  -19.8152   -8.1078 C   0  0  0  0  0  0  0  0  0  0  0  0
   28.0339  -20.4742   -9.1596 C   0  0  0  0  0  0  0  0  0  0  0  0
   24.8500  -20.9612  -12.8153 C   0  0  0  0  0  0  0  0  0  0  0  0
   24.5910  -19.9685  -13.5418 O   0  0  0  0  0  0  0  0  0  0  0  0
   18.6346  -26.4023  -15.5365 N   0  0  0  0  0  0  0  0  0  0  0  0
   18.0480  -25.1222  -15.4184 C   0  0  0  0  0  0  0  0  0  0  0  0
   16.8691  -24.8965  -15.9146 N   0  0  0  0  0  0  0  0  0  0  0  0
   18.6928  -24.0395  -14.7700 N   0  0  0  0  0  0  0  0  0  0  0  0
   20.0485  -24.1957  -14.2897 C   0  0  0  0  0  0  0  0  0  0  0  0
   20.4829  -22.8076  -13.7860 C   0  0  0  0  0  0  0  0  0  0  0  0
   21.9009  -22.9329  -13.3411 C   0  0  0  0  0  0  0  0  0  0  0  0
   22.4742  -21.5931  -12.9287 C   0  0  2  0  0  0  0  0  0  0  0  0
   23.8049  -21.8127  -12.3983 N   0  0  0  0  0  0  0  0  0  0  0  0
   21.6986  -20.8968  -11.8970 C   0  0  0  0  0  0  0  0  0  0  0  0
   22.0099  -20.9627  -10.6573 O   0  0  0  0  0  0  0  0  0  0  0  0
   20.5820  -20.1207  -12.1741 O   0  0  0  0  0  0  0  0  0  0  0  0
  2  1  1  1
  3  4  1  0
  3  2  1  0
  4  5  1  0
  5  6  1  0
  6  7  1  0
  8 10  1  0
  8  2  1  0
  9  8  2  0
 11 22  1  0
 11 10  1  0
 12 13  1  0
 11 12  1  1
 13 14  2  0
 13 21  1  0
 14 15  1  0
 15 16  1  0
 16 17  2  0
 17 18  1  0
 19 18  2  0
 20 19  1  0
 21 20  2  0
 21 16  1  0
 22 23  2  0
 24 25  1  0
 25 26  2  0
 25 27  1  0
 27 28  1  0
 29 28  1  0
 30 29  1  0
 31 30  1  1
 31 33  1  0
 32 31  1  0
 32 22  1  0
 33 34  2  0
 33 35  1  0
M  END
$$$$
