KWR.pdb
     RDKit          3D

 35 36  0  0  1  0  0  0  0  0999 V2000
   29.0232  -21.7049  -15.0205 N   0  0  0  0  0  0  0  0  0  0  0  0
   28.3613  -20.5739  -14.4069 C   0  0  1  0  0  0  0  0  0  0  0  0
   27.5648  -19.7721  -15.4029 C   0  0  0  0  0  0  0  0  0  0  0  0
   28.3628  -19.4206  -16.6340 C   0  0  0  0  0  0  0  0  0  0  0  0
   28.9157  -18.0171  -16.5737 C   0  0  0  0  0  0  0  0  0  0  0  0
   29.6788  -17.6759  -17.8345 C   0  0  0  0  0  0  0  0  0  0  0  0
   28.8864  -17.9331  -19.0187 N   0  0  0  0  0  0  0  0  0  0  0  0
   27.4222  -21.0916  -13.3853 C   0  0  0  0  0  0  0  0  0  0  0  0
   26.7437  -22.1281  -13.5924 O   0  0  0  0  0  0  0  0  0  0  0  0
   27.2533  -20.4374  -12.1365 N   0  0  0  0  0  0  0  0  0  0  0  0
   26.2849  -20.9047  -11.1813 C   0  0  1  0  0  0  0  0  0  0  0  0
   26.3674  -20.2352   -9.8408 C   0  0  0  0  0  0  0  0  0  0  0  0
   27.5760  -20.5900   -9.0839 C   0  0  0  0  0  0  0  0  0  0  0  0
   28.6139  -21.3984   -9.5503 C   0  0  0  0  0  0  0  0  0  0  0  0
   29.5566  -21.4753   -8.5964 N   0  0  0  0  0  0  0  0  0  0  0  0
   29.1738  -20.7445   -7.5166 C   0  0  0  0  0  0  0  0  0  0  0  0
   29.8168  -20.5433   -6.3180 C   0  0  0  0  0  0  0  0  0  0  0  0
   29.1841  -19.7509   -5.3846 C   0  0  0  0  0  0  0  0  0  0  0  0
   27.9598  -19.1740   -5.6180 C   0  0  0  0  0  0  0  0  0  0  0  0
   27.3532  -19.4040   -6.8348 C   0  0  0  0  0  0  0  0  0  0  0  0
   27.9351  -20.1933   -7.8253 C   0  0  0  0  0  0  0  0  0  0  0  0
   24.9245  -20.6246  -11.7123 C   0  0  0  0  0  0  0  0  0  0  0  0
   24.6914  -19.4833  -12.1850 O   0  0  0  0  0  0  0  0  0  0  0  0
   20.2645  -23.7418  -17.1172 N   0  0  0  0  0  0  0  0  0  0  0  0
   19.1208  -23.5945  -16.3005 C   0  0  0  0  0  0  0  0  0  0  0  0
   17.9551  -23.4003  -16.8393 N   0  0  0  0  0  0  0  0  0  0  0  0
   19.1763  -23.6486  -14.8855 N   0  0  0  0  0  0  0  0  0  0  0  0
   20.4481  -23.8452  -14.2245 C   0  0  0  0  0  0  0  0  0  0  0  0
   20.9116  -22.4489  -13.7720 C   0  0  0  0  0  0  0  0  0  0  0  0
   22.1631  -22.6425  -12.9841 C   0  0  0  0  0  0  0  0  0  0  0  0
   22.6787  -21.3311  -12.4292 C   0  0  2  0  0  0  0  0  0  0  0  0
   23.9019  -21.5968  -11.6988 N   0  0  0  0  0  0  0  0  0  0  0  0
   21.7541  -20.6599  -11.5098 C   0  0  0  0  0  0  0  0  0  0  0  0
   21.8523  -20.7866  -10.2400 O   0  0  0  0  0  0  0  0  0  0  0  0
   20.7139  -19.8443  -11.9324 O   0  0  0  0  0  0  0  0  0  0  0  0
  2  1  1  6
  3  4  1  0
  3  2  1  0
  4  5  1  0
  5  6  1  0
  6  7  1  0
  8 10  1  0
  8  2  1  0
  9  8  2  0
 11 22  1  0
 11 10  1  0
 12 13  1  0
 11 12  1  1
 13 14  2  0
 13 21  1  0
 14 15  1  0
 15 16  1  0
 16 17  2  0
 17 18  1  0
 19 18  2  0
 20 19  1  0
 21 20  2  0
 21 16  1  0
 22 23  2  0
 24 25  1  0
 25 26  2  0
 25 27  1  0
 27 28  1  0
 29 28  1  0
 30 29  1  0
 31 30  1  1
 31 33  1  0
 32 31  1  0
 32 22  1  0
 33 34  2  0
 33 35  1  0
M  END
$$$$
