KWR.pdb
     RDKit          3D

 35 36  0  0  1  0  0  0  0  0999 V2000
   29.1290  -22.8162  -16.6107 N   0  0  0  0  0  0  0  0  0  0  0  0
   28.1377  -21.7643  -16.5423 C   0  0  1  0  0  0  0  0  0  0  0  0
   27.1105  -21.8787  -17.6382 C   0  0  0  0  0  0  0  0  0  0  0  0
   27.5507  -21.2098  -18.9167 C   0  0  0  0  0  0  0  0  0  0  0  0
   28.9576  -21.5944  -19.3065 C   0  0  0  0  0  0  0  0  0  0  0  0
   29.3925  -20.8741  -20.5636 C   0  0  0  0  0  0  0  0  0  0  0  0
   30.7499  -21.2205  -20.9294 N   0  0  0  0  0  0  0  0  0  0  0  0
   27.4332  -21.8823  -15.2448 C   0  0  0  0  0  0  0  0  0  0  0  0
   26.7776  -22.9132  -14.9531 O   0  0  0  0  0  0  0  0  0  0  0  0
   27.4717  -20.8374  -14.2843 N   0  0  0  0  0  0  0  0  0  0  0  0
   26.8267  -20.9823  -13.0070 C   0  0  1  0  0  0  0  0  0  0  0  0
   27.3070  -20.0202  -11.9604 C   0  0  0  0  0  0  0  0  0  0  0  0
   28.1640  -20.6439  -10.9424 C   0  0  0  0  0  0  0  0  0  0  0  0
   29.3570  -21.3229  -11.1955 C   0  0  0  0  0  0  0  0  0  0  0  0
   29.8741  -21.7285  -10.0240 N   0  0  0  0  0  0  0  0  0  0  0  0
   29.0607  -21.3397   -9.0072 C   0  0  0  0  0  0  0  0  0  0  0  0
   29.1885  -21.5399   -7.6529 C   0  0  0  0  0  0  0  0  0  0  0  0
   28.1951  -21.0363   -6.8412 C   0  0  0  0  0  0  0  0  0  0  0  0
   27.1103  -20.3580   -7.3407 C   0  0  0  0  0  0  0  0  0  0  0  0
   27.0251  -20.1814   -8.7056 C   0  0  0  0  0  0  0  0  0  0  0  0
   27.9928  -20.6625   -9.5857 C   0  0  0  0  0  0  0  0  0  0  0  0
   25.3719  -20.7285  -13.1808 C   0  0  0  0  0  0  0  0  0  0  0  0
   25.0138  -19.8453  -14.0007 O   0  0  0  0  0  0  0  0  0  0  0  0
   17.6991  -20.4433  -12.9427 N   0  0  0  0  0  0  0  0  0  0  0  0
   17.8616  -20.8459  -14.2874 C   0  0  0  0  0  0  0  0  0  0  0  0
   16.9925  -20.4899  -15.1845 N   0  0  0  0  0  0  0  0  0  0  0  0
   18.9514  -21.6393  -14.7245 N   0  0  0  0  0  0  0  0  0  0  0  0
   19.9478  -22.0769  -13.7712 C   0  0  0  0  0  0  0  0  0  0  0  0
   21.3111  -21.7046  -14.3812 C   0  0  0  0  0  0  0  0  0  0  0  0
   22.3569  -22.2289  -13.4560 C   0  0  0  0  0  0  0  0  0  0  0  0
   22.9991  -21.1154  -12.6552 C   0  0  2  0  0  0  0  0  0  0  0  0
   24.3961  -21.4462  -12.4571 N   0  0  0  0  0  0  0  0  0  0  0  0
   22.4049  -20.9045  -11.3311 C   0  0  0  0  0  0  0  0  0  0  0  0
   22.9828  -21.2999  -10.2597 O   0  0  0  0  0  0  0  0  0  0  0  0
   21.1875  -20.2685  -11.1325 O   0  0  0  0  0  0  0  0  0  0  0  0
  2  1  1  6
  3  4  1  0
  3  2  1  0
  4  5  1  0
  5  6  1  0
  6  7  1  0
  8 10  1  0
  8  2  1  0
  9  8  2  0
 11 22  1  0
 11 10  1  0
 12 13  1  0
 11 12  1  1
 13 14  2  0
 13 21  1  0
 14 15  1  0
 15 16  1  0
 16 17  2  0
 17 18  1  0
 19 18  2  0
 20 19  1  0
 21 20  2  0
 21 16  1  0
 22 23  2  0
 24 25  1  0
 25 26  2  0
 25 27  1  0
 27 28  1  0
 29 28  1  0
 30 29  1  0
 31 30  1  1
 31 33  1  0
 32 31  1  0
 32 22  1  0
 33 34  2  0
 33 35  1  0
M  END
$$$$
