KWR.pdb
     RDKit          3D

 35 36  0  0  1  0  0  0  0  0999 V2000
   28.6090  -21.8948  -15.5932 N   0  0  0  0  0  0  0  0  0  0  0  0
   28.5662  -20.6618  -14.8370 C   0  0  1  0  0  0  0  0  0  0  0  0
   27.9537  -19.5329  -15.6241 C   0  0  0  0  0  0  0  0  0  0  0  0
   27.0337  -20.0203  -16.7157 C   0  0  0  0  0  0  0  0  0  0  0  0
   27.6097  -19.7903  -18.0921 C   0  0  0  0  0  0  0  0  0  0  0  0
   26.6799  -20.3082  -19.1671 C   0  0  0  0  0  0  0  0  0  0  0  0
   26.0280  -19.2236  -19.8706 N   0  0  0  0  0  0  0  0  0  0  0  0
   27.7261  -20.8884  -13.6384 C   0  0  0  0  0  0  0  0  0  0  0  0
   26.8194  -21.7575  -13.6356 O   0  0  0  0  0  0  0  0  0  0  0  0
   27.9130  -20.1336  -12.4505 N   0  0  0  0  0  0  0  0  0  0  0  0
   27.1512  -20.4195  -11.2645 C   0  0  1  0  0  0  0  0  0  0  0  0
   27.4451  -19.5096  -10.1079 C   0  0  0  0  0  0  0  0  0  0  0  0
   26.8496  -19.9618   -8.8428 C   0  0  0  0  0  0  0  0  0  0  0  0
   25.5169  -20.3365   -8.6647 C   0  0  0  0  0  0  0  0  0  0  0  0
   25.3473  -20.7162   -7.3874 N   0  0  0  0  0  0  0  0  0  0  0  0
   26.5244  -20.6035   -6.7177 C   0  0  0  0  0  0  0  0  0  0  0  0
   26.8168  -20.8732   -5.4016 C   0  0  0  0  0  0  0  0  0  0  0  0
   28.1120  -20.6570   -4.9829 C   0  0  0  0  0  0  0  0  0  0  0  0
   29.0898  -20.1909   -5.8272 C   0  0  0  0  0  0  0  0  0  0  0  0
   28.7496  -19.9346   -7.1387 C   0  0  0  0  0  0  0  0  0  0  0  0
   27.4606  -20.1312   -7.6310 C   0  0  0  0  0  0  0  0  0  0  0  0
   25.7074  -20.2531  -11.5789 C   0  0  0  0  0  0  0  0  0  0  0  0
   25.3199  -19.1490  -12.0385 O   0  0  0  0  0  0  0  0  0  0  0  0
   23.4729  -25.9447  -16.1774 N   0  0  0  0  0  0  0  0  0  0  0  0
   24.1016  -25.9776  -14.9123 C   0  0  0  0  0  0  0  0  0  0  0  0
   25.0811  -26.8014  -14.6918 N   0  0  0  0  0  0  0  0  0  0  0  0
   23.7118  -25.1374  -13.8397 N   0  0  0  0  0  0  0  0  0  0  0  0
   22.5835  -24.2461  -14.0003 C   0  0  0  0  0  0  0  0  0  0  0  0
   23.1260  -22.8265  -13.7555 C   0  0  0  0  0  0  0  0  0  0  0  0
   22.9414  -22.5370  -12.3040 C   0  0  0  0  0  0  0  0  0  0  0  0
   23.4473  -21.1556  -11.9444 C   0  0  2  0  0  0  0  0  0  0  0  0
   24.7738  -21.2915  -11.3766 N   0  0  0  0  0  0  0  0  0  0  0  0
   22.6193  -20.4465  -10.9633 C   0  0  0  0  0  0  0  0  0  0  0  0
   22.6111  -20.7704   -9.7251 O   0  0  0  0  0  0  0  0  0  0  0  0
   21.7904  -19.3824  -11.2898 O   0  0  0  0  0  0  0  0  0  0  0  0
  2  1  1  6
  3  4  1  0
  3  2  1  0
  4  5  1  0
  5  6  1  0
  6  7  1  0
  8 10  1  0
  8  2  1  0
  9  8  2  0
 11 22  1  0
 11 10  1  0
 12 13  1  0
 11 12  1  1
 13 14  2  0
 13 21  1  0
 14 15  1  0
 15 16  1  0
 16 17  2  0
 17 18  1  0
 19 18  2  0
 20 19  1  0
 21 20  2  0
 21 16  1  0
 22 23  2  0
 24 25  1  0
 25 26  2  0
 25 27  1  0
 27 28  1  0
 29 28  1  0
 30 29  1  0
 31 30  1  1
 31 33  1  0
 32 31  1  0
 32 22  1  0
 33 34  2  0
 33 35  1  0
M  END
$$$$
