KWR.pdb
     RDKit          3D

 35 36  0  0  1  0  0  0  0  0999 V2000
   28.5854  -20.6790  -14.6615 N   0  0  0  0  0  0  0  0  0  0  0  0
   27.3302  -21.3856  -14.7987 C   0  0  1  0  0  0  0  0  0  0  0  0
   27.4906  -22.6932  -15.5293 C   0  0  0  0  0  0  0  0  0  0  0  0
   28.3058  -22.5554  -16.7910 C   0  0  0  0  0  0  0  0  0  0  0  0
   29.3720  -23.6187  -16.9002 C   0  0  0  0  0  0  0  0  0  0  0  0
   30.1477  -23.4841  -18.1919 C   0  0  0  0  0  0  0  0  0  0  0  0
   31.2009  -24.4735  -18.2823 N   0  0  0  0  0  0  0  0  0  0  0  0
   26.8212  -21.6834  -13.4401 C   0  0  0  0  0  0  0  0  0  0  0  0
   25.8312  -22.4369  -13.2680 O   0  0  0  0  0  0  0  0  0  0  0  0
   27.4312  -21.1296  -12.2837 N   0  0  0  0  0  0  0  0  0  0  0  0
   26.8194  -21.2623  -10.9889 C   0  0  1  0  0  0  0  0  0  0  0  0
   27.6797  -20.8002   -9.8495 C   0  0  0  0  0  0  0  0  0  0  0  0
   26.9401  -20.6280   -8.5913 C   0  0  0  0  0  0  0  0  0  0  0  0
   25.5669  -20.8173   -8.4282 C   0  0  0  0  0  0  0  0  0  0  0  0
   25.2557  -20.5972   -7.1401 N   0  0  0  0  0  0  0  0  0  0  0  0
   26.3787  -20.2684   -6.4491 C   0  0  0  0  0  0  0  0  0  0  0  0
   26.5333  -19.9570   -5.1189 C   0  0  0  0  0  0  0  0  0  0  0  0
   27.8044  -19.6499   -4.6834 C   0  0  0  0  0  0  0  0  0  0  0  0
   28.8898  -19.6478   -5.5249 C   0  0  0  0  0  0  0  0  0  0  0  0
   28.6861  -19.9668   -6.8509 C   0  0  0  0  0  0  0  0  0  0  0  0
   27.4291  -20.2883   -7.3601 C   0  0  0  0  0  0  0  0  0  0  0  0
   25.5905  -20.4256  -10.9589 C   0  0  0  0  0  0  0  0  0  0  0  0
   25.7201  -19.1757  -10.9213 O   0  0  0  0  0  0  0  0  0  0  0  0
   22.2614  -18.0395  -17.6556 N   0  0  0  0  0  0  0  0  0  0  0  0
   21.6207  -17.3190  -16.6225 C   0  0  0  0  0  0  0  0  0  0  0  0
   20.9885  -16.2167  -16.8911 N   0  0  0  0  0  0  0  0  0  0  0  0
   21.6297  -17.7443  -15.2708 N   0  0  0  0  0  0  0  0  0  0  0  0
   22.3794  -18.9232  -14.8947 C   0  0  0  0  0  0  0  0  0  0  0  0
   22.1597  -19.1010  -13.3816 C   0  0  0  0  0  0  0  0  0  0  0  0
   23.3044  -19.9089  -12.8701 C   0  0  0  0  0  0  0  0  0  0  0  0
   23.1800  -20.1695  -11.3834 C   0  0  2  0  0  0  0  0  0  0  0  0
   24.2989  -20.9935  -10.9719 N   0  0  0  0  0  0  0  0  0  0  0  0
   21.9515  -20.8694  -10.9943 C   0  0  0  0  0  0  0  0  0  0  0  0
   21.8519  -22.1441  -11.0527 O   0  0  0  0  0  0  0  0  0  0  0  0
   20.8138  -20.2193  -10.5372 O   0  0  0  0  0  0  0  0  0  0  0  0
  2  1  1  1
  3  4  1  0
  3  2  1  0
  4  5  1  0
  5  6  1  0
  6  7  1  0
  8 10  1  0
  8  2  1  0
  9  8  2  0
 11 22  1  0
 11 10  1  0
 12 13  1  0
 11 12  1  1
 13 14  2  0
 13 21  1  0
 14 15  1  0
 15 16  1  0
 16 17  2  0
 17 18  1  0
 19 18  2  0
 20 19  1  0
 21 20  2  0
 21 16  1  0
 22 23  2  0
 24 25  1  0
 25 26  2  0
 25 27  1  0
 27 28  1  0
 29 28  1  0
 30 29  1  0
 31 30  1  6
 31 33  1  0
 32 31  1  0
 32 22  1  0
 33 34  2  0
 33 35  1  0
M  END
$$$$
