KWR.pdb
     RDKit          3D

 35 36  0  0  1  0  0  0  0  0999 V2000
   26.6824  -25.7098  -16.8367 N   0  0  0  0  0  0  0  0  0  0  0  0
   25.9406  -24.5026  -17.1305 C   0  0  1  0  0  0  0  0  0  0  0  0
   24.6918  -24.7817  -17.9253 C   0  0  0  0  0  0  0  0  0  0  0  0
   24.9902  -25.2293  -19.3346 C   0  0  0  0  0  0  0  0  0  0  0  0
   26.2614  -26.0395  -19.4186 C   0  0  0  0  0  0  0  0  0  0  0  0
   26.5148  -26.5134  -20.8326 C   0  0  0  0  0  0  0  0  0  0  0  0
   27.7546  -27.2551  -20.9280 N   0  0  0  0  0  0  0  0  0  0  0  0
   25.5338  -23.8906  -15.8445 C   0  0  0  0  0  0  0  0  0  0  0  0
   24.5567  -24.3364  -15.1933 O   0  0  0  0  0  0  0  0  0  0  0  0
   26.2307  -22.7795  -15.3008 N   0  0  0  0  0  0  0  0  0  0  0  0
   25.9552  -22.3132  -13.9684 C   0  0  1  0  0  0  0  0  0  0  0  0
   27.0062  -21.4033  -13.4033 C   0  0  0  0  0  0  0  0  0  0  0  0
   26.7625  -21.0272  -12.0037 C   0  0  0  0  0  0  0  0  0  0  0  0
   26.5197  -21.9187  -10.9575 C   0  0  0  0  0  0  0  0  0  0  0  0
   26.3722  -21.2151   -9.8228 N   0  0  0  0  0  0  0  0  0  0  0  0
   26.5092  -19.8891  -10.0870 C   0  0  0  0  0  0  0  0  0  0  0  0
   26.4307  -18.8105   -9.2380 C   0  0  0  0  0  0  0  0  0  0  0  0
   26.6040  -17.5581   -9.7867 C   0  0  0  0  0  0  0  0  0  0  0  0
   26.8465  -17.3685  -11.1251 C   0  0  0  0  0  0  0  0  0  0  0  0
   26.9168  -18.4804  -11.9378 C   0  0  0  0  0  0  0  0  0  0  0  0
   26.7525  -19.7761  -11.4514 C   0  0  0  0  0  0  0  0  0  0  0  0
   24.6886  -21.5345  -13.9928 C   0  0  0  0  0  0  0  0  0  0  0  0
   24.4795  -20.7650  -14.9647 O   0  0  0  0  0  0  0  0  0  0  0  0
   19.5594  -24.1506   -8.6697 N   0  0  0  0  0  0  0  0  0  0  0  0
   18.7195  -23.8557   -9.7672 C   0  0  0  0  0  0  0  0  0  0  0  0
   17.8244  -24.7141  -10.1528 N   0  0  0  0  0  0  0  0  0  0  0  0
   18.8017  -22.6404  -10.4915 N   0  0  0  0  0  0  0  0  0  0  0  0
   19.9898  -21.8216  -10.3862 C   0  0  0  0  0  0  0  0  0  0  0  0
   20.5778  -21.7425  -11.8065 C   0  0  0  0  0  0  0  0  0  0  0  0
   21.8090  -20.9052  -11.7192 C   0  0  0  0  0  0  0  0  0  0  0  0
   22.5264  -20.8315  -13.0509 C   0  0  2  0  0  0  0  0  0  0  0  0
   23.7278  -21.6375  -12.9646 N   0  0  0  0  0  0  0  0  0  0  0  0
   22.9318  -19.4780  -13.4437 C   0  0  0  0  0  0  0  0  0  0  0  0
   23.7469  -18.7854  -12.7407 O   0  0  0  0  0  0  0  0  0  0  0  0
   22.4742  -18.8461  -14.5914 O   0  0  0  0  0  0  0  0  0  0  0  0
  2  1  1  1
  3  4  1  0
  3  2  1  0
  4  5  1  0
  5  6  1  0
  6  7  1  0
  8 10  1  0
  8  2  1  0
  9  8  2  0
 11 22  1  0
 11 10  1  0
 12 13  1  0
 11 12  1  6
 13 14  2  0
 13 21  1  0
 14 15  1  0
 15 16  1  0
 16 17  2  0
 17 18  1  0
 19 18  2  0
 20 19  1  0
 21 20  2  0
 21 16  1  0
 22 23  2  0
 24 25  1  0
 25 26  2  0
 25 27  1  0
 27 28  1  0
 29 28  1  0
 30 29  1  0
 31 30  1  1
 31 33  1  0
 32 31  1  0
 32 22  1  0
 33 34  2  0
 33 35  1  0
M  END
$$$$
