WIQ.pdb
     RDKit          3D

 32 33  0  0  1  0  0  0  0  0999 V2000
   26.2798  -20.1379  -18.3299 N   0  0  0  0  0  0  0  0  0  0  0  0
   26.3262  -19.4761  -17.0516 C   0  0  1  0  0  0  0  0  0  0  0  0
   25.7539  -18.0914  -17.2035 C   0  0  0  0  0  0  0  0  0  0  0  0
   26.5672  -17.3043  -18.1326 C   0  0  0  0  0  0  0  0  0  0  0  0
   26.0286  -16.4459  -19.0971 C   0  0  0  0  0  0  0  0  0  0  0  0
   27.0356  -15.8525  -19.7608 N   0  0  0  0  0  0  0  0  0  0  0  0
   28.2177  -16.2632  -19.2980 C   0  0  0  0  0  0  0  0  0  0  0  0
   29.5032  -15.9415  -19.6686 C   0  0  0  0  0  0  0  0  0  0  0  0
   30.5692  -16.5403  -19.0102 C   0  0  0  0  0  0  0  0  0  0  0  0
   30.2768  -17.4325  -18.0128 C   0  0  0  0  0  0  0  0  0  0  0  0
   28.9734  -17.7590  -17.6364 C   0  0  0  0  0  0  0  0  0  0  0  0
   27.9243  -17.1667  -18.2859 C   0  0  0  0  0  0  0  0  0  0  0  0
   25.6125  -20.2555  -16.0031 C   0  0  0  0  0  0  0  0  0  0  0  0
   24.6817  -21.0275  -16.3259 O   0  0  0  0  0  0  0  0  0  0  0  0
   26.0119  -21.8258  -10.0055 C   0  0  0  0  0  0  0  0  0  0  0  0
   25.2176  -21.7165  -11.2646 C   0  0  0  0  0  0  0  0  0  0  0  0
   26.0115  -21.0127  -12.3291 C   0  0  2  0  0  0  0  0  0  0  0  0
   26.5380  -19.6979  -11.8549 C   0  0  0  0  0  0  0  0  0  0  0  0
   25.1974  -20.8652  -13.6158 C   0  0  2  0  0  0  0  0  0  0  0  0
   25.9458  -20.1611  -14.6252 N   0  0  0  0  0  0  0  0  0  0  0  0
   23.8901  -20.2172  -13.3338 C   0  0  0  0  0  0  0  0  0  0  0  0
   23.8705  -19.0258  -12.9286 O   0  0  0  0  0  0  0  0  0  0  0  0
   18.7623  -20.2958  -16.7560 N   0  0  0  0  0  0  0  0  0  0  0  0
   18.3526  -19.6629  -15.5630 C   0  0  0  0  0  0  0  0  0  0  0  0
   17.1735  -19.1597  -15.5473 O   0  0  0  0  0  0  0  0  0  0  0  0
   19.2105  -19.5801  -14.3870 C   0  0  0  0  0  0  0  0  0  0  0  0
   20.5795  -20.1479  -14.4973 C   0  0  0  0  0  0  0  0  0  0  0  0
   21.3464  -20.1917  -13.2328 C   0  0  2  0  0  0  0  0  0  0  0  0
   22.6494  -20.8752  -13.4989 N   0  0  0  0  0  0  0  0  0  0  0  0
   20.7404  -20.7682  -12.0393 C   0  0  0  0  0  0  0  0  0  0  0  0
   19.8642  -19.9666  -11.2851 O   0  0  0  0  0  0  0  0  0  0  0  0
   20.9177  -21.9215  -11.6024 O   0  0  0  0  0  0  0  0  0  0  0  0
  2 13  1  0
  2  1  1  6
  3  2  1  0
  4  5  2  0
  4  3  1  0
  6  5  1  0
  7 12  2  0
  7  6  1  0
  8  7  1  0
  9 10  1  0
  9  8  2  0
 10 11  2  0
 11 12  1  0
 12  4  1  0
 13 14  2  0
 15 16  1  0
 17 19  1  0
 17 16  1  0
 17 18  1  1
 19 20  1  6
 20 13  1  0
 21 22  2  0
 21 19  1  0
 23 24  1  0
 24 25  2  0
 24 26  1  0
 26 27  1  0
 28 27  1  6
 28 30  1  0
 28 29  1  0
 29 21  1  0
 30 31  1  0
 32 30  2  0
M  END
$$$$
