WIQ.pdb
     RDKit          3D

 32 33  0  0  1  0  0  0  0  0999 V2000
   27.3959  -21.0561  -16.8625 N   0  0  0  0  0  0  0  0  0  0  0  0
   27.1744  -20.3260  -15.6411 C   0  0  1  0  0  0  0  0  0  0  0  0
   26.2838  -19.1482  -15.9371 C   0  0  0  0  0  0  0  0  0  0  0  0
   26.9183  -18.2649  -16.9176 C   0  0  0  0  0  0  0  0  0  0  0  0
   26.2094  -17.5527  -17.8911 C   0  0  0  0  0  0  0  0  0  0  0  0
   27.0762  -16.8154  -18.6065 N   0  0  0  0  0  0  0  0  0  0  0  0
   28.3246  -16.9920  -18.1699 C   0  0  0  0  0  0  0  0  0  0  0  0
   29.5216  -16.4613  -18.5929 C   0  0  0  0  0  0  0  0  0  0  0  0
   30.6946  -16.8361  -17.9510 C   0  0  0  0  0  0  0  0  0  0  0  0
   30.5930  -17.7277  -16.9160 C   0  0  0  0  0  0  0  0  0  0  0  0
   29.3794  -18.2660  -16.4865 C   0  0  0  0  0  0  0  0  0  0  0  0
   28.2244  -17.8943  -17.1199 C   0  0  0  0  0  0  0  0  0  0  0  0
   26.6023  -21.1958  -14.5769 C   0  0  0  0  0  0  0  0  0  0  0  0
   26.0929  -22.2981  -14.8801 O   0  0  0  0  0  0  0  0  0  0  0  0
   25.3138  -21.1569   -8.4798 C   0  0  0  0  0  0  0  0  0  0  0  0
   24.9508  -21.5071   -9.8847 C   0  0  0  0  0  0  0  0  0  0  0  0
   25.9638  -20.9500  -10.8451 C   0  0  2  0  0  0  0  0  0  0  0  0
   26.1589  -19.4808  -10.6602 C   0  0  0  0  0  0  0  0  0  0  0  0
   25.5996  -21.2947  -12.2904 C   0  0  2  0  0  0  0  0  0  0  0  0
   26.6076  -20.8245  -13.2055 N   0  0  0  0  0  0  0  0  0  0  0  0
   24.2500  -20.7714  -12.6267 C   0  0  0  0  0  0  0  0  0  0  0  0
   24.1290  -19.5709  -12.9845 O   0  0  0  0  0  0  0  0  0  0  0  0
   20.7987  -20.3522  -16.4901 N   0  0  0  0  0  0  0  0  0  0  0  0
   19.6937  -20.8402  -15.7602 C   0  0  0  0  0  0  0  0  0  0  0  0
   18.5287  -20.5930  -16.2348 O   0  0  0  0  0  0  0  0  0  0  0  0
   19.8461  -21.5999  -14.5251 C   0  0  0  0  0  0  0  0  0  0  0  0
   21.2295  -21.9038  -14.0749 C   0  0  0  0  0  0  0  0  0  0  0  0
   21.7446  -21.0350  -12.9937 C   0  0  2  0  0  0  0  0  0  0  0  0
   23.0778  -21.5600  -12.5663 N   0  0  0  0  0  0  0  0  0  0  0  0
   20.9274  -20.7899  -11.8120 C   0  0  0  0  0  0  0  0  0  0  0  0
   21.0479  -21.6750  -10.7251 O   0  0  0  0  0  0  0  0  0  0  0  0
   20.1135  -19.8598  -11.6548 O   0  0  0  0  0  0  0  0  0  0  0  0
  2 13  1  0
  2  1  1  6
  3  2  1  0
  4  5  2  0
  4  3  1  0
  6  5  1  0
  7 12  2  0
  7  6  1  0
  8  7  1  0
  9 10  1  0
  9  8  2  0
 10 11  2  0
 11 12  1  0
 12  4  1  0
 13 14  2  0
 15 16  1  0
 17 19  1  0
 17 16  1  0
 17 18  1  6
 19 20  1  6
 20 13  1  0
 21 22  2  0
 21 19  1  0
 23 24  1  0
 24 25  2  0
 24 26  1  0
 26 27  1  0
 28 27  1  6
 28 30  1  0
 28 29  1  0
 29 21  1  0
 30 31  1  0
 32 30  2  0
M  END
$$$$
