WIQ.pdb
     RDKit          3D

 32 33  0  0  1  0  0  0  0  0999 V2000
   27.3023  -21.9403  -17.0059 N   0  0  0  0  0  0  0  0  0  0  0  0
   26.6117  -20.9499  -16.2209 C   0  0  1  0  0  0  0  0  0  0  0  0
   25.3551  -20.5480  -16.9472 C   0  0  0  0  0  0  0  0  0  0  0  0
   25.6042  -19.3701  -17.7806 C   0  0  0  0  0  0  0  0  0  0  0  0
   26.2851  -18.2336  -17.3309 C   0  0  0  0  0  0  0  0  0  0  0  0
   26.3735  -17.3524  -18.3420 N   0  0  0  0  0  0  0  0  0  0  0  0
   25.7915  -17.8314  -19.4430 C   0  0  0  0  0  0  0  0  0  0  0  0
   25.6313  -17.2907  -20.6980 C   0  0  0  0  0  0  0  0  0  0  0  0
   24.9609  -18.0204  -21.6708 C   0  0  0  0  0  0  0  0  0  0  0  0
   24.4885  -19.2578  -21.3209 C   0  0  0  0  0  0  0  0  0  0  0  0
   24.6509  -19.8067  -20.0484 C   0  0  0  0  0  0  0  0  0  0  0  0
   25.3131  -19.0862  -19.0915 C   0  0  0  0  0  0  0  0  0  0  0  0
   26.3203  -21.4430  -14.8468 C   0  0  0  0  0  0  0  0  0  0  0  0
   25.7137  -22.5264  -14.6892 O   0  0  0  0  0  0  0  0  0  0  0  0
   29.4789  -20.8020  -10.5825 C   0  0  0  0  0  0  0  0  0  0  0  0
   28.4480  -21.3453  -11.5154 C   0  0  0  0  0  0  0  0  0  0  0  0
   27.1170  -20.6927  -11.2677 C   0  0  2  0  0  0  0  0  0  0  0  0
   26.5606  -21.0507   -9.9287 C   0  0  0  0  0  0  0  0  0  0  0  0
   26.1307  -21.0098  -12.3933 C   0  0  2  0  0  0  0  0  0  0  0  0
   26.7065  -20.7258  -13.6827 N   0  0  0  0  0  0  0  0  0  0  0  0
   24.8488  -20.2885  -12.1813 C   0  0  0  0  0  0  0  0  0  0  0  0
   24.7783  -19.0651  -12.4681 O   0  0  0  0  0  0  0  0  0  0  0  0
   21.8510  -20.5975  -16.4328 N   0  0  0  0  0  0  0  0  0  0  0  0
   20.7683  -20.2876  -15.5822 C   0  0  0  0  0  0  0  0  0  0  0  0
   19.6286  -20.0973  -16.1379 O   0  0  0  0  0  0  0  0  0  0  0  0
   20.9135  -20.1910  -14.1347 C   0  0  0  0  0  0  0  0  0  0  0  0
   22.2463  -20.5073  -13.5581 C   0  0  0  0  0  0  0  0  0  0  0  0
   22.3129  -20.4895  -12.0801 C   0  0  2  0  0  0  0  0  0  0  0  0
   23.6872  -20.9107  -11.6683 N   0  0  0  0  0  0  0  0  0  0  0  0
   21.3321  -21.2369  -11.3032 C   0  0  0  0  0  0  0  0  0  0  0  0
   20.0846  -20.6365  -11.0535 O   0  0  0  0  0  0  0  0  0  0  0  0
   21.4808  -22.3772  -10.8237 O   0  0  0  0  0  0  0  0  0  0  0  0
  2 13  1  0
  2  1  1  6
  3  2  1  0
  4  5  2  0
  4  3  1  0
  6  5  1  0
  7 12  2  0
  7  6  1  0
  8  7  1  0
  9 10  1  0
  9  8  2  0
 10 11  2  0
 11 12  1  0
 12  4  1  0
 13 14  2  0
 15 16  1  0
 17 19  1  0
 17 16  1  0
 17 18  1  1
 19 20  1  6
 20 13  1  0
 21 22  2  0
 21 19  1  0
 23 24  1  0
 24 25  2  0
 24 26  1  0
 26 27  1  0
 28 27  1  6
 28 30  1  0
 28 29  1  0
 29 21  1  0
 30 31  1  0
 32 30  2  0
M  END
$$$$
