WIQ.pdb
     RDKit          3D

 32 33  0  0  1  0  0  0  0  0999 V2000
   24.0759  -19.6438  -16.8231 N   0  0  0  0  0  0  0  0  0  0  0  0
   22.6853  -19.5588  -16.4584 C   0  0  1  0  0  0  0  0  0  0  0  0
   21.8506  -20.0069  -17.6292 C   0  0  0  0  0  0  0  0  0  0  0  0
   21.8927  -19.0052  -18.6964 C   0  0  0  0  0  0  0  0  0  0  0  0
   22.6432  -19.1531  -19.8678 C   0  0  0  0  0  0  0  0  0  0  0  0
   22.4408  -18.0797  -20.6512 N   0  0  0  0  0  0  0  0  0  0  0  0
   21.5989  -17.2208  -20.0734 C   0  0  0  0  0  0  0  0  0  0  0  0
   21.1122  -16.0027  -20.4887 C   0  0  0  0  0  0  0  0  0  0  0  0
   20.2403  -15.3036  -19.6645 C   0  0  0  0  0  0  0  0  0  0  0  0
   19.9083  -15.8747  -18.4645 C   0  0  0  0  0  0  0  0  0  0  0  0
   20.4014  -17.1101  -18.0429 C   0  0  0  0  0  0  0  0  0  0  0  0
   21.2597  -17.7980  -18.8574 C   0  0  0  0  0  0  0  0  0  0  0  0
   22.3887  -20.3523  -15.2343 C   0  0  0  0  0  0  0  0  0  0  0  0
   23.0071  -21.4188  -15.0180 O   0  0  0  0  0  0  0  0  0  0  0  0
   21.1346  -19.4859   -9.3998 C   0  0  0  0  0  0  0  0  0  0  0  0
   21.0978  -20.4339  -10.5523 C   0  0  0  0  0  0  0  0  0  0  0  0
   21.2597  -19.6927  -11.8497 C   0  0  2  0  0  0  0  0  0  0  0  0
   20.2512  -18.6011  -11.9983 C   0  0  0  0  0  0  0  0  0  0  0  0
   21.2327  -20.6537  -13.0397 C   0  0  2  0  0  0  0  0  0  0  0  0
   21.4160  -19.9469  -14.2812 N   0  0  0  0  0  0  0  0  0  0  0  0
   19.9828  -21.4575  -13.0320 C   0  0  0  0  0  0  0  0  0  0  0  0
   18.9291  -20.9580  -13.5054 O   0  0  0  0  0  0  0  0  0  0  0  0
   19.3655  -27.7454  -11.4576 N   0  0  0  0  0  0  0  0  0  0  0  0
   18.0640  -27.2656  -11.7175 C   0  0  0  0  0  0  0  0  0  0  0  0
   17.1063  -28.1151  -11.6460 O   0  0  0  0  0  0  0  0  0  0  0  0
   17.7957  -25.8707  -12.0461 C   0  0  0  0  0  0  0  0  0  0  0  0
   18.9541  -24.9402  -12.0783 C   0  0  0  0  0  0  0  0  0  0  0  0
   18.6483  -23.5704  -12.5465 C   0  0  2  0  0  0  0  0  0  0  0  0
   19.9119  -22.7717  -12.5149 N   0  0  0  0  0  0  0  0  0  0  0  0
   17.5855  -22.8073  -11.9044 C   0  0  0  0  0  0  0  0  0  0  0  0
   16.2998  -22.8489  -12.4740 O   0  0  0  0  0  0  0  0  0  0  0  0
   17.6932  -22.1044  -10.8813 O   0  0  0  0  0  0  0  0  0  0  0  0
  2 13  1  0
  2  1  1  6
  3  2  1  0
  4  5  2  0
  4  3  1  0
  6  5  1  0
  7 12  2  0
  7  6  1  0
  8  7  1  0
  9 10  1  0
  9  8  2  0
 10 11  2  0
 11 12  1  0
 12  4  1  0
 13 14  2  0
 15 16  1  0
 17 19  1  0
 17 16  1  0
 17 18  1  6
 19 20  1  6
 20 13  1  0
 21 22  2  0
 21 19  1  0
 23 24  1  0
 24 25  2  0
 24 26  1  0
 26 27  1  0
 28 27  1  1
 28 30  1  0
 28 29  1  0
 29 21  1  0
 30 31  1  0
 32 30  2  0
M  END
$$$$
