WIQ.pdb
     RDKit          3D

 32 33  0  0  1  0  0  0  0  0999 V2000
   27.7280  -21.3706  -10.3398 N   0  0  0  0  0  0  0  0  0  0  0  0
   26.6524  -20.6652   -9.6921 C   0  0  1  0  0  0  0  0  0  0  0  0
   27.2349  -19.5470   -8.8684 C   0  0  0  0  0  0  0  0  0  0  0  0
   28.1836  -20.0788   -7.8879 C   0  0  0  0  0  0  0  0  0  0  0  0
   29.1790  -21.0110   -8.2003 C   0  0  0  0  0  0  0  0  0  0  0  0
   29.8966  -21.2669   -7.0930 N   0  0  0  0  0  0  0  0  0  0  0  0
   29.4404  -20.5613   -6.0565 C   0  0  0  0  0  0  0  0  0  0  0  0
   29.8474  -20.5036   -4.7435 C   0  0  0  0  0  0  0  0  0  0  0  0
   29.1706  -19.6741   -3.8591 C   0  0  0  0  0  0  0  0  0  0  0  0
   28.1182  -18.9481   -4.3511 C   0  0  0  0  0  0  0  0  0  0  0  0
   27.7051  -19.0061   -5.6826 C   0  0  0  0  0  0  0  0  0  0  0  0
   28.3745  -19.8235   -6.5528 C   0  0  0  0  0  0  0  0  0  0  0  0
   25.6538  -20.1631  -10.6753 C   0  0  0  0  0  0  0  0  0  0  0  0
   25.8675  -19.0937  -11.2895 O   0  0  0  0  0  0  0  0  0  0  0  0
   24.3273  -20.3264  -15.8349 C   0  0  0  0  0  0  0  0  0  0  0  0
   23.5515  -20.2164  -14.5643 C   0  0  0  0  0  0  0  0  0  0  0  0
   24.3989  -20.6260  -13.3925 C   0  0  2  0  0  0  0  0  0  0  0  0
   24.9779  -21.9910  -13.5725 C   0  0  0  0  0  0  0  0  0  0  0  0
   23.6182  -20.5110  -12.0819 C   0  0  2  0  0  0  0  0  0  0  0  0
   24.4449  -20.8557  -10.9539 N   0  0  0  0  0  0  0  0  0  0  0  0
   22.3796  -21.3302  -12.1397 C   0  0  0  0  0  0  0  0  0  0  0  0
   22.4751  -22.5840  -12.1917 O   0  0  0  0  0  0  0  0  0  0  0  0
   17.0178  -23.3010  -11.3193 N   0  0  0  0  0  0  0  0  0  0  0  0
   17.7086  -23.0459  -10.1153 C   0  0  0  0  0  0  0  0  0  0  0  0
   17.4475  -23.8128   -9.1217 O   0  0  0  0  0  0  0  0  0  0  0  0
   18.6846  -21.9704   -9.9863 C   0  0  0  0  0  0  0  0  0  0  0  0
   18.8989  -21.0954  -11.1684 C   0  0  0  0  0  0  0  0  0  0  0  0
   19.8504  -21.6179  -12.1738 C   0  0  2  0  0  0  0  0  0  0  0  0
   21.0813  -20.7698  -12.1388 N   0  0  0  0  0  0  0  0  0  0  0  0
   19.4228  -21.7809  -13.5576 C   0  0  0  0  0  0  0  0  0  0  0  0
   18.8314  -23.0014  -13.9313 O   0  0  0  0  0  0  0  0  0  0  0  0
   19.5263  -20.9374  -14.4687 O   0  0  0  0  0  0  0  0  0  0  0  0
  2 13  1  0
  2  1  1  6
  3  2  1  0
  4  5  2  0
  4  3  1  0
  6  5  1  0
  7 12  2  0
  7  6  1  0
  8  7  1  0
  9 10  1  0
  9  8  2  0
 10 11  2  0
 11 12  1  0
 12  4  1  0
 13 14  2  0
 15 16  1  0
 17 19  1  0
 17 16  1  0
 17 18  1  6
 19 20  1  1
 20 13  1  0
 21 22  2  0
 21 19  1  0
 23 24  1  0
 24 25  2  0
 24 26  1  0
 26 27  1  0
 28 27  1  1
 28 30  1  0
 28 29  1  0
 29 21  1  0
 30 31  1  0
 32 30  2  0
M  END
$$$$
