WIQ.pdb
     RDKit          3D

 32 33  0  0  1  0  0  0  0  0999 V2000
   27.7210  -20.3843  -16.2446 N   0  0  0  0  0  0  0  0  0  0  0  0
   26.8192  -19.7715  -15.3037 C   0  0  1  0  0  0  0  0  0  0  0  0
   25.6925  -19.1246  -16.0655 C   0  0  0  0  0  0  0  0  0  0  0  0
   26.1773  -17.9462  -16.7868 C   0  0  0  0  0  0  0  0  0  0  0  0
   26.2516  -17.8686  -18.1817 C   0  0  0  0  0  0  0  0  0  0  0  0
   26.7045  -16.6505  -18.5251 N   0  0  0  0  0  0  0  0  0  0  0  0
   26.9386  -15.9072  -17.4420 C   0  0  0  0  0  0  0  0  0  0  0  0
   27.4088  -14.6216  -17.3033 C   0  0  0  0  0  0  0  0  0  0  0  0
   27.5701  -14.0918  -16.0299 C   0  0  0  0  0  0  0  0  0  0  0  0
   27.2471  -14.8916  -14.9657 C   0  0  0  0  0  0  0  0  0  0  0  0
   26.7701  -16.1953  -15.1058 C   0  0  0  0  0  0  0  0  0  0  0  0
   26.6108  -16.7151  -16.3619 C   0  0  0  0  0  0  0  0  0  0  0  0
   26.3164  -20.7540  -14.3046 C   0  0  0  0  0  0  0  0  0  0  0  0
   26.0251  -21.9164  -14.6659 O   0  0  0  0  0  0  0  0  0  0  0  0
   27.7510  -21.3406   -9.0643 C   0  0  0  0  0  0  0  0  0  0  0  0
   27.2626  -21.5800  -10.4544 C   0  0  0  0  0  0  0  0  0  0  0  0
   25.8414  -21.1138  -10.6012 C   0  0  2  0  0  0  0  0  0  0  0  0
   24.9246  -21.8101   -9.6496 C   0  0  0  0  0  0  0  0  0  0  0  0
   25.3643  -21.2499  -12.0483 C   0  0  2  0  0  0  0  0  0  0  0  0
   26.1482  -20.4261  -12.9324 N   0  0  0  0  0  0  0  0  0  0  0  0
   23.9114  -20.9536  -12.1480 C   0  0  0  0  0  0  0  0  0  0  0  0
   23.5174  -19.7651  -12.0211 O   0  0  0  0  0  0  0  0  0  0  0  0
   19.4231  -24.4444  -15.1431 N   0  0  0  0  0  0  0  0  0  0  0  0
   19.1648  -23.0582  -15.2013 C   0  0  0  0  0  0  0  0  0  0  0  0
   18.2733  -22.6675  -16.0357 O   0  0  0  0  0  0  0  0  0  0  0  0
   19.8617  -22.0966  -14.3554 C   0  0  0  0  0  0  0  0  0  0  0  0
   20.8501  -22.6310  -13.3826 C   0  0  0  0  0  0  0  0  0  0  0  0
   21.4805  -21.6195  -12.5059 C   0  0  2  0  0  0  0  0  0  0  0  0
   22.9338  -21.9483  -12.3814 N   0  0  0  0  0  0  0  0  0  0  0  0
   20.9324  -21.3708  -11.1785 C   0  0  0  0  0  0  0  0  0  0  0  0
   19.6987  -20.7014  -11.0834 O   0  0  0  0  0  0  0  0  0  0  0  0
   21.4493  -21.6936  -10.0918 O   0  0  0  0  0  0  0  0  0  0  0  0
  2 13  1  0
  2  1  1  6
  3  2  1  0
  4  5  2  0
  4  3  1  0
  6  5  1  0
  7 12  2  0
  7  6  1  0
  8  7  1  0
  9 10  1  0
  9  8  2  0
 10 11  2  0
 11 12  1  0
 12  4  1  0
 13 14  2  0
 15 16  1  0
 17 19  1  0
 17 16  1  0
 17 18  1  1
 19 20  1  6
 20 13  1  0
 21 22  2  0
 21 19  1  0
 23 24  1  0
 24 25  2  0
 24 26  1  0
 26 27  1  0
 28 27  1  1
 28 30  1  0
 28 29  1  0
 29 21  1  0
 30 31  1  0
 32 30  2  0
M  END
$$$$
