WIQ.pdb
     RDKit          3D

 32 33  0  0  1  0  0  0  0  0999 V2000
   28.6217  -20.6569  -10.4236 N   0  0  0  0  0  0  0  0  0  0  0  0
   27.2761  -21.0248  -10.0659 C   0  0  1  0  0  0  0  0  0  0  0  0
   26.9109  -20.3301   -8.7805 C   0  0  0  0  0  0  0  0  0  0  0  0
   27.9527  -20.5431   -7.7738 C   0  0  0  0  0  0  0  0  0  0  0  0
   28.9429  -21.5257   -7.8804 C   0  0  0  0  0  0  0  0  0  0  0  0
   29.7580  -21.4377   -6.8152 N   0  0  0  0  0  0  0  0  0  0  0  0
   29.3719  -20.4540   -6.0006 C   0  0  0  0  0  0  0  0  0  0  0  0
   29.8864  -20.0051   -4.8061 C   0  0  0  0  0  0  0  0  0  0  0  0
   29.2644  -18.9489   -4.1534 C   0  0  0  0  0  0  0  0  0  0  0  0
   28.1553  -18.4042   -4.7447 C   0  0  0  0  0  0  0  0  0  0  0  0
   27.6332  -18.8589   -5.9562 C   0  0  0  0  0  0  0  0  0  0  0  0
   28.2485  -19.8993   -6.5983 C   0  0  0  0  0  0  0  0  0  0  0  0
   26.3121  -20.7099  -11.1557 C   0  0  0  0  0  0  0  0  0  0  0  0
   26.4100  -19.6303  -11.7814 O   0  0  0  0  0  0  0  0  0  0  0  0
   23.6833  -22.8534  -15.9985 C   0  0  0  0  0  0  0  0  0  0  0  0
   23.5232  -21.9034  -14.8583 C   0  0  0  0  0  0  0  0  0  0  0  0
   24.4271  -22.2882  -13.7210 C   0  0  2  0  0  0  0  0  0  0  0  0
   24.1642  -23.6794  -13.2452 C   0  0  0  0  0  0  0  0  0  0  0  0
   24.3376  -21.2736  -12.5794 C   0  0  2  0  0  0  0  0  0  0  0  0
   25.2647  -21.5960  -11.5253 N   0  0  0  0  0  0  0  0  0  0  0  0
   22.9405  -21.1688  -12.0839 C   0  0  0  0  0  0  0  0  0  0  0  0
   22.7377  -20.8584  -10.8813 O   0  0  0  0  0  0  0  0  0  0  0  0
   21.4231  -16.4665  -14.2065 N   0  0  0  0  0  0  0  0  0  0  0  0
   20.1611  -16.8276  -13.6883 C   0  0  0  0  0  0  0  0  0  0  0  0
   19.2548  -15.9207  -13.6806 O   0  0  0  0  0  0  0  0  0  0  0  0
   19.8754  -18.1665  -13.1867 C   0  0  0  0  0  0  0  0  0  0  0  0
   20.9585  -19.1794  -13.2846 C   0  0  0  0  0  0  0  0  0  0  0  0
   20.5905  -20.5398  -12.8342 C   0  0  2  0  0  0  0  0  0  0  0  0
   21.8106  -21.4015  -12.9017 N   0  0  0  0  0  0  0  0  0  0  0  0
   19.4792  -21.2361  -13.4701 C   0  0  0  0  0  0  0  0  0  0  0  0
   18.2039  -21.1250  -12.8868 O   0  0  0  0  0  0  0  0  0  0  0  0
   19.5359  -21.9365  -14.4990 O   0  0  0  0  0  0  0  0  0  0  0  0
  2 13  1  0
  2  1  1  6
  3  2  1  0
  4  5  2  0
  4  3  1  0
  6  5  1  0
  7 12  2  0
  7  6  1  0
  8  7  1  0
  9 10  1  0
  9  8  2  0
 10 11  2  0
 11 12  1  0
 12  4  1  0
 13 14  2  0
 15 16  1  0
 17 19  1  0
 17 16  1  0
 17 18  1  1
 19 20  1  1
 20 13  1  0
 21 22  2  0
 21 19  1  0
 23 24  1  0
 24 25  2  0
 24 26  1  0
 26 27  1  0
 28 27  1  6
 28 30  1  0
 28 29  1  0
 29 21  1  0
 30 31  1  0
 32 30  2  0
M  END
$$$$
