WIQ.pdb
     RDKit          3D

 32 33  0  0  1  0  0  0  0  0999 V2000
   25.0599  -20.3669  -13.1204 N   0  0  0  0  0  0  0  0  0  0  0  0
   24.0002  -20.1234  -12.1761 C   0  0  1  0  0  0  0  0  0  0  0  0
   22.6855  -20.4646  -12.8267 C   0  0  0  0  0  0  0  0  0  0  0  0
   22.3189  -19.4358  -13.8021 C   0  0  0  0  0  0  0  0  0  0  0  0
   23.0019  -19.2319  -15.0060 C   0  0  0  0  0  0  0  0  0  0  0  0
   22.3988  -18.2405  -15.6844 N   0  0  0  0  0  0  0  0  0  0  0  0
   21.3519  -17.7677  -15.0057 C   0  0  0  0  0  0  0  0  0  0  0  0
   20.4554  -16.7651  -15.2956 C   0  0  0  0  0  0  0  0  0  0  0  0
   19.4497  -16.4698  -14.3846 C   0  0  0  0  0  0  0  0  0  0  0  0
   19.4058  -17.2048  -13.2295 C   0  0  0  0  0  0  0  0  0  0  0  0
   20.3146  -18.2218  -12.9351 C   0  0  0  0  0  0  0  0  0  0  0  0
   21.3043  -18.5120  -13.8349 C   0  0  0  0  0  0  0  0  0  0  0  0
   24.2040  -20.8845  -10.9130 C   0  0  0  0  0  0  0  0  0  0  0  0
   24.3516  -22.1268  -10.9511 O   0  0  0  0  0  0  0  0  0  0  0  0
   27.1406  -19.1356   -6.9861 C   0  0  0  0  0  0  0  0  0  0  0  0
   26.4610  -20.2140   -7.7630 C   0  0  0  0  0  0  0  0  0  0  0  0
   25.0306  -20.3576   -7.3247 C   0  0  2  0  0  0  0  0  0  0  0  0
   24.9153  -21.0866   -6.0262 C   0  0  0  0  0  0  0  0  0  0  0  0
   24.1832  -21.0116   -8.4177 C   0  0  2  0  0  0  0  0  0  0  0  0
   24.2390  -20.2529   -9.6407 N   0  0  0  0  0  0  0  0  0  0  0  0
   22.7882  -21.2114   -7.9458 C   0  0  0  0  0  0  0  0  0  0  0  0
   22.0228  -20.2166   -7.8547 O   0  0  0  0  0  0  0  0  0  0  0  0
   18.7536  -25.7715   -4.8196 N   0  0  0  0  0  0  0  0  0  0  0  0
   18.9714  -25.6666   -6.2100 C   0  0  0  0  0  0  0  0  0  0  0  0
   19.0671  -26.7630   -6.8677 O   0  0  0  0  0  0  0  0  0  0  0  0
   19.0778  -24.3815   -6.8903 C   0  0  0  0  0  0  0  0  0  0  0  0
   20.4080  -24.0037   -7.4351 C   0  0  0  0  0  0  0  0  0  0  0  0
   20.8713  -22.6446   -7.0783 C   0  0  2  0  0  0  0  0  0  0  0  0
   22.2665  -22.4764   -7.5890 N   0  0  0  0  0  0  0  0  0  0  0  0
   20.8149  -22.2026   -5.6907 C   0  0  0  0  0  0  0  0  0  0  0  0
   21.9735  -22.3338   -4.9035 O   0  0  0  0  0  0  0  0  0  0  0  0
   19.8288  -21.7094   -5.1103 O   0  0  0  0  0  0  0  0  0  0  0  0
  2 13  1  0
  2  1  1  6
  3  2  1  0
  4  5  2  0
  4  3  1  0
  6  5  1  0
  7 12  2  0
  7  6  1  0
  8  7  1  0
  9 10  1  0
  9  8  2  0
 10 11  2  0
 11 12  1  0
 12  4  1  0
 13 14  2  0
 15 16  1  0
 17 19  1  0
 17 16  1  0
 17 18  1  1
 19 20  1  6
 20 13  1  0
 21 22  2  0
 21 19  1  0
 23 24  1  0
 24 25  2  0
 24 26  1  0
 26 27  1  0
 28 27  1  1
 28 30  1  0
 28 29  1  0
 29 21  1  0
 30 31  1  0
 32 30  2  0
M  END
$$$$
