WIQ.pdb
     RDKit          3D

 32 33  0  0  1  0  0  0  0  0999 V2000
   26.4490  -21.8465  -12.8234 N   0  0  0  0  0  0  0  0  0  0  0  0
   26.3622  -20.7521  -11.8914 C   0  0  1  0  0  0  0  0  0  0  0  0
   25.2452  -19.8383  -12.3220 C   0  0  0  0  0  0  0  0  0  0  0  0
   25.5514  -19.2390  -13.6225 C   0  0  0  0  0  0  0  0  0  0  0  0
   24.5753  -18.7660  -14.5061 C   0  0  0  0  0  0  0  0  0  0  0  0
   25.1831  -18.2502  -15.5884 N   0  0  0  0  0  0  0  0  0  0  0  0
   26.5094  -18.3501  -15.4822 C   0  0  0  0  0  0  0  0  0  0  0  0
   27.5227  -17.9726  -16.3329 C   0  0  0  0  0  0  0  0  0  0  0  0
   28.8407  -18.2125  -15.9670 C   0  0  0  0  0  0  0  0  0  0  0  0
   29.0618  -18.8217  -14.7601 C   0  0  0  0  0  0  0  0  0  0  0  0
   28.0346  -19.2045  -13.8969 C   0  0  0  0  0  0  0  0  0  0  0  0
   26.7364  -18.9660  -14.2591 C   0  0  0  0  0  0  0  0  0  0  0  0
   26.1737  -21.2330  -10.4952 C   0  0  0  0  0  0  0  0  0  0  0  0
   25.8266  -22.4171  -10.2856 O   0  0  0  0  0  0  0  0  0  0  0  0
   28.0041  -19.9326   -4.7595 C   0  0  0  0  0  0  0  0  0  0  0  0
   27.0916  -20.6802   -5.6742 C   0  0  0  0  0  0  0  0  0  0  0  0
   27.1455  -20.1020   -7.0604 C   0  0  2  0  0  0  0  0  0  0  0  0
   26.8136  -18.6458   -7.0709 C   0  0  0  0  0  0  0  0  0  0  0  0
   26.2550  -20.8921   -8.0212 C   0  0  2  0  0  0  0  0  0  0  0  0
   26.3731  -20.3926   -9.3670 N   0  0  0  0  0  0  0  0  0  0  0  0
   24.8471  -20.8925   -7.5456 C   0  0  0  0  0  0  0  0  0  0  0  0
   24.2110  -19.8072   -7.5104 O   0  0  0  0  0  0  0  0  0  0  0  0
   19.4787  -23.9287   -8.5812 N   0  0  0  0  0  0  0  0  0  0  0  0
   19.7769  -23.1465   -7.4450 C   0  0  0  0  0  0  0  0  0  0  0  0
   19.1311  -22.0471   -7.3104 O   0  0  0  0  0  0  0  0  0  0  0  0
   20.7641  -23.5536   -6.4523 C   0  0  0  0  0  0  0  0  0  0  0  0
   22.1983  -23.4087   -6.8141 C   0  0  0  0  0  0  0  0  0  0  0  0
   22.7459  -22.0407   -6.6808 C   0  0  2  0  0  0  0  0  0  0  0  0
   24.1735  -22.0625   -7.1249 N   0  0  0  0  0  0  0  0  0  0  0  0
   22.6548  -21.3469   -5.4023 C   0  0  0  0  0  0  0  0  0  0  0  0
   23.5618  -21.7018   -4.3872 O   0  0  0  0  0  0  0  0  0  0  0  0
   21.8415  -20.4521   -5.1020 O   0  0  0  0  0  0  0  0  0  0  0  0
  2 13  1  0
  2  1  1  6
  3  2  1  0
  4  5  2  0
  4  3  1  0
  6  5  1  0
  7 12  2  0
  7  6  1  0
  8  7  1  0
  9 10  1  0
  9  8  2  0
 10 11  2  0
 11 12  1  0
 12  4  1  0
 13 14  2  0
 15 16  1  0
 17 19  1  0
 17 16  1  0
 17 18  1  1
 19 20  1  6
 20 13  1  0
 21 22  2  0
 21 19  1  0
 23 24  1  0
 24 25  2  0
 24 26  1  0
 26 27  1  0
 28 27  1  1
 28 30  1  0
 28 29  1  0
 29 21  1  0
 30 31  1  0
 32 30  2  0
M  END
$$$$
