WIQ.pdb
     RDKit          3D

 32 33  0  0  1  0  0  0  0  0999 V2000
   26.9577  -21.7838  -10.6297 N   0  0  0  0  0  0  0  0  0  0  0  0
   26.1250  -20.9937   -9.7599 C   0  0  1  0  0  0  0  0  0  0  0  0
   26.9270  -19.8229   -9.2559 C   0  0  0  0  0  0  0  0  0  0  0  0
   28.0158  -20.2862   -8.3932 C   0  0  0  0  0  0  0  0  0  0  0  0
   29.0431  -21.1301   -8.8289 C   0  0  0  0  0  0  0  0  0  0  0  0
   29.8946  -21.3389   -7.8100 N   0  0  0  0  0  0  0  0  0  0  0  0
   29.4980  -20.6847   -6.7168 C   0  0  0  0  0  0  0  0  0  0  0  0
   30.0388  -20.6086   -5.4539 C   0  0  0  0  0  0  0  0  0  0  0  0
   29.3972  -19.8474   -4.4858 C   0  0  0  0  0  0  0  0  0  0  0  0
   28.2430  -19.2047   -4.8478 C   0  0  0  0  0  0  0  0  0  0  0  0
   27.6942  -19.2813   -6.1284 C   0  0  0  0  0  0  0  0  0  0  0  0
   28.3289  -20.0312   -7.0814 C   0  0  0  0  0  0  0  0  0  0  0  0
   24.8778  -20.5541  -10.4434 C   0  0  0  0  0  0  0  0  0  0  0  0
   24.4545  -19.3879  -10.2779 O   0  0  0  0  0  0  0  0  0  0  0  0
   25.3030  -20.0683  -14.3127 C   0  0  0  0  0  0  0  0  0  0  0  0
   24.1016  -19.5712  -13.5793 C   0  0  0  0  0  0  0  0  0  0  0  0
   23.1037  -20.6791  -13.3907 C   0  0  2  0  0  0  0  0  0  0  0  0
   21.8096  -20.3873  -14.0770 C   0  0  0  0  0  0  0  0  0  0  0  0
   22.8995  -20.9891  -11.9066 C   0  0  2  0  0  0  0  0  0  0  0  0
   24.1304  -21.4148  -11.2916 N   0  0  0  0  0  0  0  0  0  0  0  0
   21.8104  -21.9841  -11.7272 C   0  0  0  0  0  0  0  0  0  0  0  0
   22.0463  -23.1995  -11.9530 O   0  0  0  0  0  0  0  0  0  0  0  0
   19.3897  -24.1018   -6.9689 N   0  0  0  0  0  0  0  0  0  0  0  0
   18.4846  -24.5955   -7.9327 C   0  0  0  0  0  0  0  0  0  0  0  0
   17.6428  -25.4793   -7.5406 O   0  0  0  0  0  0  0  0  0  0  0  0
   18.4830  -24.1306   -9.3146 C   0  0  0  0  0  0  0  0  0  0  0  0
   19.4603  -23.0729   -9.6820 C   0  0  0  0  0  0  0  0  0  0  0  0
   19.4368  -22.6602  -11.1026 C   0  0  2  0  0  0  0  0  0  0  0  0
   20.5051  -21.6348  -11.3101 N   0  0  0  0  0  0  0  0  0  0  0  0
   18.1947  -22.1816  -11.6960 C   0  0  0  0  0  0  0  0  0  0  0  0
   17.2745  -23.1339  -12.1708 O   0  0  0  0  0  0  0  0  0  0  0  0
   17.8497  -20.9922  -11.8327 O   0  0  0  0  0  0  0  0  0  0  0  0
  2 13  1  0
  2  1  1  6
  3  2  1  0
  4  5  2  0
  4  3  1  0
  6  5  1  0
  7 12  2  0
  7  6  1  0
  8  7  1  0
  9 10  1  0
  9  8  2  0
 10 11  2  0
 11 12  1  0
 12  4  1  0
 13 14  2  0
 15 16  1  0
 17 19  1  0
 17 16  1  0
 17 18  1  1
 19 20  1  6
 20 13  1  0
 21 22  2  0
 21 19  1  0
 23 24  1  0
 24 25  2  0
 24 26  1  0
 26 27  1  0
 28 27  1  1
 28 30  1  0
 28 29  1  0
 29 21  1  0
 30 31  1  0
 32 30  2  0
M  END
$$$$
