WIQ.pdb
     RDKit          3D

 32 33  0  0  1  0  0  0  0  0999 V2000
   16.4665   -4.0601   -8.9457 N   0  0  0  0  0  0  0  0  0  0  0  0
   16.5163   -5.3963   -9.4805 C   0  0  1  0  0  0  0  0  0  0  0  0
   15.1542   -5.7541  -10.0142 C   0  0  0  0  0  0  0  0  0  0  0  0
   14.2461   -6.0800   -8.9128 C   0  0  0  0  0  0  0  0  0  0  0  0
   13.4115   -5.1429   -8.2943 C   0  0  0  0  0  0  0  0  0  0  0  0
   12.6859   -5.7650   -7.3492 N   0  0  0  0  0  0  0  0  0  0  0  0
   12.9855   -7.0642   -7.2976 C   0  0  0  0  0  0  0  0  0  0  0  0
   12.5119   -8.0775   -6.4964 C   0  0  0  0  0  0  0  0  0  0  0  0
   13.0191   -9.3606   -6.6541 C   0  0  0  0  0  0  0  0  0  0  0  0
   13.9783   -9.5488   -7.6138 C   0  0  0  0  0  0  0  0  0  0  0  0
   14.4588   -8.5216   -8.4268 C   0  0  0  0  0  0  0  0  0  0  0  0
   13.9566   -7.2580   -8.2704 C   0  0  0  0  0  0  0  0  0  0  0  0
   17.5700   -5.5320  -10.5232 C   0  0  0  0  0  0  0  0  0  0  0  0
   17.8024   -4.5799  -11.3017 O   0  0  0  0  0  0  0  0  0  0  0  0
   21.2750   -6.8329   -8.8848 C   0  0  0  0  0  0  0  0  0  0  0  0
   21.3291   -6.4091  -10.3151 C   0  0  0  0  0  0  0  0  0  0  0  0
   20.6316   -7.4134  -11.1890 C   0  0  2  0  0  0  0  0  0  0  0  0
   21.5150   -7.9053  -12.2883 C   0  0  0  0  0  0  0  0  0  0  0  0
   19.3150   -6.8524  -11.7295 C   0  0  2  0  0  0  0  0  0  0  0  0
   18.3391   -6.7165  -10.6789 N   0  0  0  0  0  0  0  0  0  0  0  0
   18.8156   -7.6865  -12.8534 C   0  0  0  0  0  0  0  0  0  0  0  0
   18.3011   -8.8076  -12.6040 O   0  0  0  0  0  0  0  0  0  0  0  0
   13.8221   -8.1914  -14.8096 N   0  0  0  0  0  0  0  0  0  0  0  0
   14.4744   -6.9639  -15.0534 C   0  0  0  0  0  0  0  0  0  0  0  0
   13.7319   -5.9271  -15.1845 O   0  0  0  0  0  0  0  0  0  0  0  0
   15.9253   -6.8545  -15.1479 C   0  0  0  0  0  0  0  0  0  0  0  0
   16.7219   -8.0843  -14.8994 C   0  0  0  0  0  0  0  0  0  0  0  0
   18.1467   -8.0007  -15.2896 C   0  0  2  0  0  0  0  0  0  0  0  0
   18.8873   -7.2832  -14.2068 N   0  0  0  0  0  0  0  0  0  0  0  0
   18.5108   -7.4257  -16.5783 C   0  0  0  0  0  0  0  0  0  0  0  0
   18.2792   -8.1899  -17.7366 O   0  0  0  0  0  0  0  0  0  0  0  0
   19.0175   -6.3041  -16.7719 O   0  0  0  0  0  0  0  0  0  0  0  0
  2 13  1  0
  2  1  1  6
  3  2  1  0
  4  5  2  0
  4  3  1  0
  6  5  1  0
  7 12  2  0
  7  6  1  0
  8  7  1  0
  9 10  1  0
  9  8  2  0
 10 11  2  0
 11 12  1  0
 12  4  1  0
 13 14  2  0
 15 16  1  0
 17 19  1  0
 17 16  1  0
 17 18  1  6
 19 20  1  1
 20 13  1  0
 21 22  2  0
 21 19  1  0
 23 24  1  0
 24 25  2  0
 24 26  1  0
 26 27  1  0
 28 27  1  1
 28 30  1  0
 28 29  1  0
 29 21  1  0
 30 31  1  0
 32 30  2  0
M  END
$$$$
