WIQ.pdb
     RDKit          3D

 32 33  0  0  1  0  0  0  0  0999 V2000
   28.5167  -20.7121  -15.5638 N   0  0  0  0  0  0  0  0  0  0  0  0
   27.5378  -20.0093  -14.7752 C   0  0  1  0  0  0  0  0  0  0  0  0
   26.5593  -19.3400  -15.7040 C   0  0  0  0  0  0  0  0  0  0  0  0
   27.1904  -18.1995  -16.3713 C   0  0  0  0  0  0  0  0  0  0  0  0
   27.6633  -18.2372  -17.6874 C   0  0  0  0  0  0  0  0  0  0  0  0
   28.1528  -17.0269  -18.0074 N   0  0  0  0  0  0  0  0  0  0  0  0
   28.0361  -16.1803  -16.9827 C   0  0  0  0  0  0  0  0  0  0  0  0
   28.3999  -14.8605  -16.8451 C   0  0  0  0  0  0  0  0  0  0  0  0
   28.1659  -14.2145  -15.6383 C   0  0  0  0  0  0  0  0  0  0  0  0
   27.5768  -14.9390  -14.6360 C   0  0  0  0  0  0  0  0  0  0  0  0
   27.2075  -16.2774  -14.7752 C   0  0  0  0  0  0  0  0  0  0  0  0
   27.4380  -16.9118  -15.9658 C   0  0  0  0  0  0  0  0  0  0  0  0
   26.8530  -20.9161  -13.8135 C   0  0  0  0  0  0  0  0  0  0  0  0
   26.5731  -22.0878  -14.1532 O   0  0  0  0  0  0  0  0  0  0  0  0
   26.8123  -20.5639   -8.3166 C   0  0  0  0  0  0  0  0  0  0  0  0
   26.6864  -21.1452   -9.6857 C   0  0  0  0  0  0  0  0  0  0  0  0
   25.3945  -20.7170  -10.3233 C   0  0  2  0  0  0  0  0  0  0  0  0
   24.2074  -21.2655   -9.6016 C   0  0  0  0  0  0  0  0  0  0  0  0
   25.3687  -21.0768  -11.8100 C   0  0  2  0  0  0  0  0  0  0  0  0
   26.4950  -20.5044  -12.5016 N   0  0  0  0  0  0  0  0  0  0  0  0
   24.0742  -20.6767  -12.4204 C   0  0  0  0  0  0  0  0  0  0  0  0
   23.9107  -19.4834  -12.7854 O   0  0  0  0  0  0  0  0  0  0  0  0
   19.1284  -19.3178  -16.0680 N   0  0  0  0  0  0  0  0  0  0  0  0
   20.4729  -19.7182  -15.9141 C   0  0  0  0  0  0  0  0  0  0  0  0
   21.3634  -18.7975  -15.9691 O   0  0  0  0  0  0  0  0  0  0  0  0
   20.8549  -21.1079  -15.6937 C   0  0  0  0  0  0  0  0  0  0  0  0
   22.0211  -21.3649  -14.8090 C   0  0  0  0  0  0  0  0  0  0  0  0
   21.7649  -21.1873  -13.3626 C   0  0  2  0  0  0  0  0  0  0  0  0
   23.0012  -21.5764  -12.6169 N   0  0  0  0  0  0  0  0  0  0  0  0
   20.6132  -21.8348  -12.7474 C   0  0  0  0  0  0  0  0  0  0  0  0
   19.3314  -21.3437  -13.0554 O   0  0  0  0  0  0  0  0  0  0  0  0
   20.6397  -22.7991  -11.9589 O   0  0  0  0  0  0  0  0  0  0  0  0
  2 13  1  0
  2  1  1  6
  3  2  1  0
  4  5  2  0
  4  3  1  0
  6  5  1  0
  7 12  2  0
  7  6  1  0
  8  7  1  0
  9 10  1  0
  9  8  2  0
 10 11  2  0
 11 12  1  0
 12  4  1  0
 13 14  2  0
 15 16  1  0
 17 19  1  0
 17 16  1  0
 17 18  1  1
 19 20  1  6
 20 13  1  0
 21 22  2  0
 21 19  1  0
 23 24  1  0
 24 25  2  0
 24 26  1  0
 26 27  1  0
 28 27  1  6
 28 30  1  0
 28 29  1  0
 29 21  1  0
 30 31  1  0
 32 30  2  0
M  END
$$$$
