MIN.pdb
     RDKit          3D

 25 24  0  0  1  0  0  0  0  0999 V2000
   24.1091  -17.2983  -17.8819 C   0  0  0  0  0  0  0  0  0  0  0  0
   25.6591  -17.8532  -18.5614 S   0  0  0  0  0  0  0  0  0  0  0  0
   26.6999  -18.7834  -17.4551 C   0  0  0  0  0  0  0  0  0  0  0  0
   25.9328  -19.2954  -16.2866 C   0  0  0  0  0  0  0  0  0  0  0  0
   26.7285  -19.9064  -15.1896 C   0  0  2  0  0  0  0  0  0  0  0  0
   27.7624  -20.7996  -15.6890 N   0  0  0  0  0  0  0  0  0  0  0  0
   25.7538  -20.7065  -14.3560 C   0  0  0  0  0  0  0  0  0  0  0  0
   25.5001  -21.8876  -14.6793 O   0  0  0  0  0  0  0  0  0  0  0  0
   26.5606  -20.5039   -9.3198 C   0  0  0  0  0  0  0  0  0  0  0  0
   26.0961  -21.0111  -10.6878 C   0  0  0  0  0  0  0  0  0  0  0  0
   24.6910  -20.5951  -10.9646 C   0  0  2  0  0  0  0  0  0  0  0  0
   23.7262  -21.0165   -9.8824 C   0  0  0  0  0  0  0  0  0  0  0  0
   24.2331  -20.9438  -12.3364 C   0  0  2  0  0  0  0  0  0  0  0  0
   25.1290  -20.1587  -13.2329 N   0  0  0  0  0  0  0  0  0  0  0  0
   22.8739  -20.5677  -12.7025 C   0  0  0  0  0  0  0  0  0  0  0  0
   22.5314  -19.3315  -12.7878 O   0  0  0  0  0  0  0  0  0  0  0  0
   21.1757  -20.7898  -15.9050 N   0  0  0  0  0  0  0  0  0  0  0  0
   20.2432  -21.8180  -15.6283 C   0  0  0  0  0  0  0  0  0  0  0  0
   19.9017  -22.5915  -16.5515 O   0  0  0  0  0  0  0  0  0  0  0  0
   19.7050  -21.9424  -14.2473 C   0  0  0  0  0  0  0  0  0  0  0  0
   20.4539  -21.0205  -13.3074 C   0  0  2  0  0  0  0  0  0  0  0  0
   21.7951  -21.4527  -13.0042 N   0  0  0  0  0  0  0  0  0  0  0  0
   19.6901  -20.6482  -12.1053 C   0  0  0  0  0  0  0  0  0  0  0  0
   18.6830  -19.7043  -12.2537 O   0  0  0  0  0  0  0  0  0  0  0  0
   19.9140  -21.1459  -10.9654 O   0  0  0  0  0  0  0  0  0  0  0  0
  1  2  1  0
  3  2  1  0
  4  5  1  0
  4  3  1  0
  5  6  1  6
  7  5  1  0
  8  7  2  0
  9 10  1  0
 10 11  1  0
 11 13  1  0
 11 12  1  1
 13 14  1  6
 14  7  1  0
 15 22  1  0
 15 13  1  0
 16 15  2  0
 17 18  1  0
 18 19  2  0
 18 20  1  0
 21 20  1  1
 21 23  1  0
 21 22  1  0
 23 24  1  0
 25 23  2  0
M  END
$$$$
