MIN.pdb
     RDKit          3D

 25 24  0  0  1  0  0  0  0  0999 V2000
   17.4848  -10.1724  -21.4401 C   0  0  0  0  0  0  0  0  0  0  0  0
   16.9383  -11.8288  -21.0802 S   0  0  0  0  0  0  0  0  0  0  0  0
   18.0698  -12.8285  -20.1353 C   0  0  0  0  0  0  0  0  0  0  0  0
   18.5649  -12.1029  -18.9335 C   0  0  0  0  0  0  0  0  0  0  0  0
   19.5640  -12.8164  -18.0953 C   0  0  2  0  0  0  0  0  0  0  0  0
   19.0756  -14.1059  -17.6318 N   0  0  0  0  0  0  0  0  0  0  0  0
   19.8183  -11.9317  -16.8963 C   0  0  0  0  0  0  0  0  0  0  0  0
   19.1004  -12.0592  -15.8803 O   0  0  0  0  0  0  0  0  0  0  0  0
   24.2241  -11.9245  -14.5865 C   0  0  0  0  0  0  0  0  0  0  0  0
   22.7378  -11.6896  -14.8695 C   0  0  0  0  0  0  0  0  0  0  0  0
   22.5007  -10.3068  -15.3752 C   0  0  2  0  0  0  0  0  0  0  0  0
   23.0873   -9.2418  -14.4800 C   0  0  0  0  0  0  0  0  0  0  0  0
   21.0838  -10.0520  -15.7505 C   0  0  2  0  0  0  0  0  0  0  0  0
   20.8360  -10.9745  -16.8951 N   0  0  0  0  0  0  0  0  0  0  0  0
   20.7505   -8.7185  -16.2339 C   0  0  0  0  0  0  0  0  0  0  0  0
   21.3135   -8.2375  -17.2849 O   0  0  0  0  0  0  0  0  0  0  0  0
   17.3581   -4.6764  -18.2766 N   0  0  0  0  0  0  0  0  0  0  0  0
   17.7966   -4.9028  -16.9500 C   0  0  0  0  0  0  0  0  0  0  0  0
   17.9678   -3.9213  -16.1920 O   0  0  0  0  0  0  0  0  0  0  0  0
   18.0353   -6.3019  -16.5048 C   0  0  0  0  0  0  0  0  0  0  0  0
   19.5037   -6.5113  -16.1981 C   0  0  2  0  0  0  0  0  0  0  0  0
   19.8119   -7.8109  -15.6564 N   0  0  0  0  0  0  0  0  0  0  0  0
   20.1130   -5.4144  -15.4283 C   0  0  0  0  0  0  0  0  0  0  0  0
   20.8033   -4.4410  -16.1378 O   0  0  0  0  0  0  0  0  0  0  0  0
   20.0333   -5.3287  -14.1700 O   0  0  0  0  0  0  0  0  0  0  0  0
  1  2  1  0
  3  2  1  0
  4  5  1  0
  4  3  1  0
  5  6  1  1
  7  5  1  0
  8  7  2  0
  9 10  1  0
 10 11  1  0
 11 13  1  0
 11 12  1  1
 13 14  1  6
 14  7  1  0
 15 22  1  0
 15 13  1  0
 16 15  2  0
 17 18  1  0
 18 19  2  0
 18 20  1  0
 21 20  1  1
 21 23  1  0
 21 22  1  0
 23 24  1  0
 25 23  2  0
M  END
$$$$
