MIN.pdb
     RDKit          3D

 25 24  0  0  1  0  0  0  0  0999 V2000
   25.6551  -15.2611  -14.4939 C   0  0  0  0  0  0  0  0  0  0  0  0
   27.1603  -15.5717  -15.3939 S   0  0  0  0  0  0  0  0  0  0  0  0
   27.1086  -16.9334  -16.5409 C   0  0  0  0  0  0  0  0  0  0  0  0
   26.5613  -18.1623  -15.9037 C   0  0  0  0  0  0  0  0  0  0  0  0
   27.5260  -18.9974  -15.1409 C   0  0  2  0  0  0  0  0  0  0  0  0
   28.6068  -19.4955  -15.9776 N   0  0  0  0  0  0  0  0  0  0  0  0
   26.7388  -20.1735  -14.6099 C   0  0  0  0  0  0  0  0  0  0  0  0
   26.7107  -21.2366  -15.2680 O   0  0  0  0  0  0  0  0  0  0  0  0
   25.5350  -20.3180   -9.1218 C   0  0  0  0  0  0  0  0  0  0  0  0
   25.2372  -20.1271  -10.6116 C   0  0  0  0  0  0  0  0  0  0  0  0
   25.7054  -21.2992  -11.4060 C   0  0  2  0  0  0  0  0  0  0  0  0
   27.1765  -21.5863  -11.2242 C   0  0  0  0  0  0  0  0  0  0  0  0
   25.2819  -21.2515  -12.8313 C   0  0  2  0  0  0  0  0  0  0  0  0
   26.0414  -20.1022  -13.4014 N   0  0  0  0  0  0  0  0  0  0  0  0
   23.8772  -20.9744  -13.1016 C   0  0  0  0  0  0  0  0  0  0  0  0
   23.4179  -19.7751  -13.0430 O   0  0  0  0  0  0  0  0  0  0  0  0
   18.8616  -21.9834  -16.0899 N   0  0  0  0  0  0  0  0  0  0  0  0
   19.3596  -22.2128  -14.7850 C   0  0  0  0  0  0  0  0  0  0  0  0
   18.5840  -22.0917  -13.8099 O   0  0  0  0  0  0  0  0  0  0  0  0
   20.7884  -22.5926  -14.6216 C   0  0  0  0  0  0  0  0  0  0  0  0
   21.5021  -21.5845  -13.7449 C   0  0  2  0  0  0  0  0  0  0  0  0
   22.8715  -21.9253  -13.4515 N   0  0  0  0  0  0  0  0  0  0  0  0
   20.7424  -21.1960  -12.5454 C   0  0  0  0  0  0  0  0  0  0  0  0
   20.9060  -21.9713  -11.4053 O   0  0  0  0  0  0  0  0  0  0  0  0
   19.9615  -20.2029  -12.5162 O   0  0  0  0  0  0  0  0  0  0  0  0
  1  2  1  0
  3  2  1  0
  4  5  1  0
  4  3  1  0
  5  6  1  6
  7  5  1  0
  8  7  2  0
  9 10  1  0
 10 11  1  0
 11 13  1  0
 11 12  1  6
 13 14  1  6
 14  7  1  0
 15 22  1  0
 15 13  1  0
 16 15  2  0
 17 18  1  0
 18 19  2  0
 18 20  1  0
 21 20  1  1
 21 23  1  0
 21 22  1  0
 23 24  1  0
 25 23  2  0
M  END
$$$$
