MIN.pdb
     RDKit          3D

 25 24  0  0  1  0  0  0  0  0999 V2000
   31.6588  -35.9050  -22.2837 C   0  0  0  0  0  0  0  0  0  0  0  0
   32.4496  -36.9806  -21.1048 S   0  0  0  0  0  0  0  0  0  0  0  0
   33.9184  -36.3343  -20.3319 C   0  0  0  0  0  0  0  0  0  0  0  0
   33.6248  -35.1044  -19.5465 C   0  0  0  0  0  0  0  0  0  0  0  0
   34.7977  -34.3746  -18.9975 C   0  0  2  0  0  0  0  0  0  0  0  0
   35.5679  -35.1871  -18.0686 N   0  0  0  0  0  0  0  0  0  0  0  0
   34.2426  -33.1801  -18.2559 C   0  0  0  0  0  0  0  0  0  0  0  0
   34.1536  -33.2228  -17.0092 O   0  0  0  0  0  0  0  0  0  0  0  0
   36.0580  -28.5371  -19.4068 C   0  0  0  0  0  0  0  0  0  0  0  0
   35.3837  -29.6510  -18.6012 C   0  0  0  0  0  0  0  0  0  0  0  0
   33.9142  -29.6807  -18.8542 C   0  0  2  0  0  0  0  0  0  0  0  0
   33.2372  -28.3640  -18.5584 C   0  0  0  0  0  0  0  0  0  0  0  0
   33.2338  -30.8500  -18.2351 C   0  0  2  0  0  0  0  0  0  0  0  0
   33.8262  -32.0289  -18.9292 N   0  0  0  0  0  0  0  0  0  0  0  0
   31.7929  -30.9599  -18.4219 C   0  0  0  0  0  0  0  0  0  0  0  0
   31.2963  -31.2428  -19.5734 O   0  0  0  0  0  0  0  0  0  0  0  0
   26.7895  -31.4826  -18.2159 N   0  0  0  0  0  0  0  0  0  0  0  0
   27.6816  -32.4134  -18.7998 C   0  0  0  0  0  0  0  0  0  0  0  0
   27.2187  -33.3306  -19.5150 O   0  0  0  0  0  0  0  0  0  0  0  0
   29.1392  -32.2648  -18.5430 C   0  0  0  0  0  0  0  0  0  0  0  0
   29.3919  -31.0918  -17.6186 C   0  0  2  0  0  0  0  0  0  0  0  0
   30.7870  -30.7864  -17.4238 N   0  0  0  0  0  0  0  0  0  0  0  0
   28.6417  -31.1586  -16.3539 C   0  0  0  0  0  0  0  0  0  0  0  0
   27.2574  -31.2279  -16.4338 O   0  0  0  0  0  0  0  0  0  0  0  0
   29.2005  -31.1543  -15.2204 O   0  0  0  0  0  0  0  0  0  0  0  0
  1  2  1  0
  3  2  1  0
  4  5  1  0
  4  3  1  0
  5  6  1  1
  7  5  1  0
  8  7  2  0
  9 10  1  0
 10 11  1  0
 11 13  1  0
 11 12  1  1
 13 14  1  6
 14  7  1  0
 15 22  1  0
 15 13  1  0
 16 15  2  0
 17 18  1  0
 18 19  2  0
 18 20  1  0
 21 20  1  1
 21 23  1  0
 21 22  1  0
 23 24  1  0
 25 23  2  0
M  END
$$$$
