MIN.pdb
     RDKit          3D

 25 24  0  0  1  0  0  0  0  0999 V2000
   25.8112  -16.4418  -15.6893 C   0  0  0  0  0  0  0  0  0  0  0  0
   27.3140  -16.9525  -16.4972 S   0  0  0  0  0  0  0  0  0  0  0  0
   28.1055  -18.3961  -15.8174 C   0  0  0  0  0  0  0  0  0  0  0  0
   27.1836  -19.1556  -14.9291 C   0  0  0  0  0  0  0  0  0  0  0  0
   27.7281  -20.3956  -14.3161 C   0  0  2  0  0  0  0  0  0  0  0  0
   28.1062  -21.3844  -15.3138 N   0  0  0  0  0  0  0  0  0  0  0  0
   26.6199  -20.9655  -13.4605 C   0  0  0  0  0  0  0  0  0  0  0  0
   26.0141  -21.9887  -13.8479 O   0  0  0  0  0  0  0  0  0  0  0  0
   27.3215  -20.8759   -8.3317 C   0  0  0  0  0  0  0  0  0  0  0  0
   26.7766  -21.3430   -9.6842 C   0  0  0  0  0  0  0  0  0  0  0  0
   25.5148  -20.6270  -10.0296 C   0  0  2  0  0  0  0  0  0  0  0  0
   24.4106  -20.8587   -9.0263 C   0  0  0  0  0  0  0  0  0  0  0  0
   25.0879  -20.8332  -11.4398 C   0  0  2  0  0  0  0  0  0  0  0  0
   26.2554  -20.3770  -12.2469 N   0  0  0  0  0  0  0  0  0  0  0  0
   23.9487  -20.0577  -11.9128 C   0  0  0  0  0  0  0  0  0  0  0  0
   24.1194  -18.9386  -12.5223 O   0  0  0  0  0  0  0  0  0  0  0  0
   20.7293  -22.5340  -15.6410 N   0  0  0  0  0  0  0  0  0  0  0  0
   21.2660  -21.2999  -15.2024 C   0  0  0  0  0  0  0  0  0  0  0  0
   20.9122  -20.2460  -15.7779 O   0  0  0  0  0  0  0  0  0  0  0  0
   22.2304  -21.3019  -14.0700 C   0  0  0  0  0  0  0  0  0  0  0  0
   21.6606  -20.5354  -12.8945 C   0  0  2  0  0  0  0  0  0  0  0  0
   22.5691  -20.4014  -11.7835 N   0  0  0  0  0  0  0  0  0  0  0  0
   20.3210  -20.9863  -12.4832 C   0  0  0  0  0  0  0  0  0  0  0  0
   19.2293  -20.2927  -12.9877 O   0  0  0  0  0  0  0  0  0  0  0  0
   20.1321  -21.9619  -11.7024 O   0  0  0  0  0  0  0  0  0  0  0  0
  1  2  1  0
  3  2  1  0
  4  5  1  0
  4  3  1  0
  5  6  1  6
  7  5  1  0
  8  7  2  0
  9 10  1  0
 10 11  1  0
 11 13  1  0
 11 12  1  1
 13 14  1  6
 14  7  1  0
 15 22  1  0
 15 13  1  0
 16 15  2  0
 17 18  1  0
 18 19  2  0
 18 20  1  0
 21 20  1  6
 21 23  1  0
 21 22  1  0
 23 24  1  0
 25 23  2  0
M  END
$$$$
