MIN.pdb
     RDKit          3D

 25 24  0  0  1  0  0  0  0  0999 V2000
   17.1685  -32.4498   -9.1726 C   0  0  0  0  0  0  0  0  0  0  0  0
   17.7378  -30.8528   -9.7178 S   0  0  0  0  0  0  0  0  0  0  0  0
   19.3264  -30.8315  -10.5231 C   0  0  0  0  0  0  0  0  0  0  0  0
   20.2371  -31.8651   -9.9592 C   0  0  0  0  0  0  0  0  0  0  0  0
   21.6108  -31.9158  -10.5250 C   0  0  2  0  0  0  0  0  0  0  0  0
   21.6247  -32.3968  -11.8979 N   0  0  0  0  0  0  0  0  0  0  0  0
   22.3877  -32.8832   -9.6616 C   0  0  0  0  0  0  0  0  0  0  0  0
   22.2630  -34.1121   -9.8573 O   0  0  0  0  0  0  0  0  0  0  0  0
   27.4310  -32.7152   -9.2078 C   0  0  0  0  0  0  0  0  0  0  0  0
   25.9829  -33.2095   -9.1520 C   0  0  0  0  0  0  0  0  0  0  0  0
   25.3792  -32.9491   -7.8134 C   0  0  2  0  0  0  0  0  0  0  0  0
   26.2287  -33.4570   -6.6733 C   0  0  0  0  0  0  0  0  0  0  0  0
   23.9529  -33.3620   -7.7204 C   0  0  2  0  0  0  0  0  0  0  0  0
   23.2421  -32.4382   -8.6498 N   0  0  0  0  0  0  0  0  0  0  0  0
   23.2968  -33.2103   -6.4283 C   0  0  0  0  0  0  0  0  0  0  0  0
   23.0094  -32.0454   -5.9667 O   0  0  0  0  0  0  0  0  0  0  0  0
   18.9627  -33.4557   -3.0017 N   0  0  0  0  0  0  0  0  0  0  0  0
   20.3425  -33.1408   -3.0197 C   0  0  0  0  0  0  0  0  0  0  0  0
   20.9198  -32.8825   -1.9393 O   0  0  0  0  0  0  0  0  0  0  0  0
   21.0567  -33.1310   -4.3245 C   0  0  0  0  0  0  0  0  0  0  0  0
   22.2636  -34.0444   -4.2686 C   0  0  2  0  0  0  0  0  0  0  0  0
   22.8987  -34.2586   -5.5447 N   0  0  0  0  0  0  0  0  0  0  0  0
   22.0280  -35.2972   -3.5325 C   0  0  0  0  0  0  0  0  0  0  0  0
   21.9181  -35.2168   -2.1509 O   0  0  0  0  0  0  0  0  0  0  0  0
   21.9252  -36.4213   -4.1009 O   0  0  0  0  0  0  0  0  0  0  0  0
  1  2  1  0
  3  2  1  0
  4  5  1  0
  4  3  1  0
  5  6  1  6
  7  5  1  0
  8  7  2  0
  9 10  1  0
 10 11  1  0
 11 13  1  0
 11 12  1  1
 13 14  1  6
 14  7  1  0
 15 22  1  0
 15 13  1  0
 16 15  2  0
 17 18  1  0
 18 19  2  0
 18 20  1  0
 21 20  1  6
 21 23  1  0
 21 22  1  0
 23 24  1  0
 25 23  2  0
M  END
$$$$
