MIN.pdb
     RDKit          3D

 25 24  0  0  1  0  0  0  0  0999 V2000
   14.9209  -15.0470  -14.3433 C   0  0  0  0  0  0  0  0  0  0  0  0
   16.3096  -14.0376  -14.8171 S   0  0  0  0  0  0  0  0  0  0  0  0
   16.6918  -14.0154  -16.5567 C   0  0  0  0  0  0  0  0  0  0  0  0
   17.8321  -13.1054  -16.8525 C   0  0  0  0  0  0  0  0  0  0  0  0
   18.2496  -13.0096  -18.2760 C   0  0  2  0  0  0  0  0  0  0  0  0
   18.8847  -14.2302  -18.7482 N   0  0  0  0  0  0  0  0  0  0  0  0
   19.2513  -11.8797  -18.3472 C   0  0  0  0  0  0  0  0  0  0  0  0
   20.4724  -12.1476  -18.3815 O   0  0  0  0  0  0  0  0  0  0  0  0
   19.5188   -6.6251  -21.1271 C   0  0  0  0  0  0  0  0  0  0  0  0
   20.0722   -7.3777  -19.9139 C   0  0  0  0  0  0  0  0  0  0  0  0
   19.3089   -8.6355  -19.6699 C   0  0  2  0  0  0  0  0  0  0  0  0
   17.8134   -8.4279  -19.6677 C   0  0  0  0  0  0  0  0  0  0  0  0
   19.8028   -9.4057  -18.4967 C   0  0  2  0  0  0  0  0  0  0  0  0
   18.8464  -10.5429  -18.3755 N   0  0  0  0  0  0  0  0  0  0  0  0
   19.7897   -8.7342  -17.2037 C   0  0  0  0  0  0  0  0  0  0  0  0
   18.6811   -8.4621  -16.6124 O   0  0  0  0  0  0  0  0  0  0  0  0
   20.6972   -6.4089  -12.7792 N   0  0  0  0  0  0  0  0  0  0  0  0
   21.3969   -7.6392  -12.7716 C   0  0  0  0  0  0  0  0  0  0  0  0
   21.9098   -8.0387  -11.7019 O   0  0  0  0  0  0  0  0  0  0  0  0
   21.4944   -8.4140  -14.0376 C   0  0  0  0  0  0  0  0  0  0  0  0
   20.8488   -7.6470  -15.1730 C   0  0  2  0  0  0  0  0  0  0  0  0
   20.9260   -8.3109  -16.4500 N   0  0  0  0  0  0  0  0  0  0  0  0
   21.2527   -6.2331  -15.2410 C   0  0  0  0  0  0  0  0  0  0  0  0
   21.7646   -5.7709  -16.4460 O   0  0  0  0  0  0  0  0  0  0  0  0
   21.1534   -5.4404  -14.2618 O   0  0  0  0  0  0  0  0  0  0  0  0
  1  2  1  0
  3  2  1  0
  4  5  1  0
  4  3  1  0
  5  6  1  1
  7  5  1  0
  8  7  2  0
  9 10  1  0
 10 11  1  0
 11 13  1  0
 11 12  1  1
 13 14  1  1
 14  7  1  0
 15 22  1  0
 15 13  1  0
 16 15  2  0
 17 18  1  0
 18 19  2  0
 18 20  1  0
 21 20  1  1
 21 23  1  0
 21 22  1  0
 23 24  1  0
 25 23  2  0
M  END
$$$$
