MIN.pdb
     RDKit          3D

 25 24  0  0  1  0  0  0  0  0999 V2000
   25.3084  -21.1645   -9.7394 C   0  0  0  0  0  0  0  0  0  0  0  0
   25.9534  -22.1202  -11.0968 S   0  0  0  0  0  0  0  0  0  0  0  0
   25.0929  -21.9420  -12.6461 C   0  0  0  0  0  0  0  0  0  0  0  0
   24.7197  -20.5239  -12.9021 C   0  0  0  0  0  0  0  0  0  0  0  0
   23.9825  -20.2516  -14.1639 C   0  0  2  0  0  0  0  0  0  0  0  0
   24.6046  -20.8875  -15.3149 N   0  0  0  0  0  0  0  0  0  0  0  0
   24.0161  -18.7528  -14.3576 C   0  0  0  0  0  0  0  0  0  0  0  0
   23.5543  -18.0110  -13.4630 O   0  0  0  0  0  0  0  0  0  0  0  0
   28.4814  -16.9554  -15.6790 C   0  0  0  0  0  0  0  0  0  0  0  0
   27.0666  -16.9060  -15.0956 C   0  0  0  0  0  0  0  0  0  0  0  0
   26.0744  -16.4953  -16.1305 C   0  0  2  0  0  0  0  0  0  0  0  0
   26.3400  -15.1183  -16.6898 C   0  0  0  0  0  0  0  0  0  0  0  0
   24.6630  -16.7019  -15.7077 C   0  0  2  0  0  0  0  0  0  0  0  0
   24.5506  -18.1755  -15.5122 N   0  0  0  0  0  0  0  0  0  0  0  0
   23.6212  -16.3456  -16.6620 C   0  0  0  0  0  0  0  0  0  0  0  0
   23.4266  -17.0495  -17.7201 O   0  0  0  0  0  0  0  0  0  0  0  0
   19.9975  -14.3941  -19.5736 N   0  0  0  0  0  0  0  0  0  0  0  0
   19.4869  -15.1688  -18.5048 C   0  0  0  0  0  0  0  0  0  0  0  0
   18.2791  -15.4975  -18.5169 O   0  0  0  0  0  0  0  0  0  0  0  0
   20.4077  -15.5662  -17.4063 C   0  0  0  0  0  0  0  0  0  0  0  0
   21.7553  -14.8979  -17.5839 C   0  0  2  0  0  0  0  0  0  0  0  0
   22.7205  -15.2418  -16.5702 N   0  0  0  0  0  0  0  0  0  0  0  0
   21.6732  -13.4478  -17.8234 C   0  0  0  0  0  0  0  0  0  0  0  0
   21.9528  -12.9940  -19.1053 O   0  0  0  0  0  0  0  0  0  0  0  0
   21.3647  -12.6171  -16.9223 O   0  0  0  0  0  0  0  0  0  0  0  0
  1  2  1  0
  3  2  1  0
  4  5  1  0
  4  3  1  0
  5  6  1  6
  7  5  1  0
  8  7  2  0
  9 10  1  0
 10 11  1  0
 11 13  1  0
 11 12  1  1
 13 14  1  6
 14  7  1  0
 15 22  1  0
 15 13  1  0
 16 15  2  0
 17 18  1  0
 18 19  2  0
 18 20  1  0
 21 20  1  1
 21 23  1  0
 21 22  1  0
 23 24  1  0
 25 23  2  0
M  END
$$$$
