MIN.pdb
     RDKit          3D

 25 24  0  0  1  0  0  0  0  0999 V2000
   18.2915  -33.3362   -5.6835 C   0  0  0  0  0  0  0  0  0  0  0  0
   17.4718  -33.0964   -7.2464 S   0  0  0  0  0  0  0  0  0  0  0  0
   18.5390  -32.9493   -8.6649 C   0  0  0  0  0  0  0  0  0  0  0  0
   19.8583  -33.5949   -8.4236 C   0  0  0  0  0  0  0  0  0  0  0  0
   20.8759  -33.4411   -9.4963 C   0  0  2  0  0  0  0  0  0  0  0  0
   20.5141  -34.1610  -10.7075 N   0  0  0  0  0  0  0  0  0  0  0  0
   22.1588  -34.0230   -8.9480 C   0  0  0  0  0  0  0  0  0  0  0  0
   22.4291  -35.2234   -9.1713 O   0  0  0  0  0  0  0  0  0  0  0  0
   26.5727  -32.3342  -10.3172 C   0  0  0  0  0  0  0  0  0  0  0  0
   25.5130  -33.2510   -9.7002 C   0  0  0  0  0  0  0  0  0  0  0  0
   25.3892  -33.0151   -8.2328 C   0  0  2  0  0  0  0  0  0  0  0  0
   26.7080  -33.1172   -7.5048 C   0  0  0  0  0  0  0  0  0  0  0  0
   24.2992  -33.8050   -7.5994 C   0  0  2  0  0  0  0  0  0  0  0  0
   23.0504  -33.2524   -8.1976 N   0  0  0  0  0  0  0  0  0  0  0  0
   24.1379  -33.6830   -6.1564 C   0  0  0  0  0  0  0  0  0  0  0  0
   23.5251  -32.6758   -5.6436 O   0  0  0  0  0  0  0  0  0  0  0  0
   22.3454  -33.2362   -1.3011 N   0  0  0  0  0  0  0  0  0  0  0  0
   22.5122  -34.4345   -2.0357 C   0  0  0  0  0  0  0  0  0  0  0  0
   22.4251  -35.5302   -1.4365 O   0  0  0  0  0  0  0  0  0  0  0  0
   22.7827  -34.3464   -3.4956 C   0  0  0  0  0  0  0  0  0  0  0  0
   24.2631  -34.5183   -3.7661 C   0  0  2  0  0  0  0  0  0  0  0  0
   24.5998  -34.6006   -5.1651 N   0  0  0  0  0  0  0  0  0  0  0  0
   24.8948  -35.5796   -2.9650 C   0  0  0  0  0  0  0  0  0  0  0  0
   25.2771  -35.2614   -1.6688 O   0  0  0  0  0  0  0  0  0  0  0  0
   25.0989  -36.7463   -3.4057 O   0  0  0  0  0  0  0  0  0  0  0  0
  1  2  1  0
  3  2  1  0
  4  5  1  0
  4  3  1  0
  5  6  1  6
  7  5  1  0
  8  7  2  0
  9 10  1  0
 10 11  1  0
 11 13  1  0
 11 12  1  1
 13 14  1  6
 14  7  1  0
 15 22  1  0
 15 13  1  0
 16 15  2  0
 17 18  1  0
 18 19  2  0
 18 20  1  0
 21 20  1  6
 21 23  1  0
 21 22  1  0
 23 24  1  0
 25 23  2  0
M  END
$$$$
