DAR.pdb
     RDKit          3D

 25 24  0  0  1  0  0  0  0  0999 V2000
   16.1669   -4.5466  -11.6809 N   0  0  0  0  0  0  0  0  0  0  0  0
   17.1517   -5.6218  -11.5349 C   0  0  1  0  0  0  0  0  0  0  0  0
   16.8914   -6.3912  -10.2778 C   0  0  0  0  0  0  0  0  0  0  0  0
   17.2226   -5.6825   -9.0446 C   0  0  0  0  0  0  0  0  0  0  0  0
   17.8188   -4.5707   -9.1450 O   0  0  0  0  0  0  0  0  0  0  0  0
   16.9552   -6.5378  -12.7042 C   0  0  0  0  0  0  0  0  0  0  0  0
   15.8393   -6.8581  -13.1524 O   0  0  0  0  0  0  0  0  0  0  0  0
   16.9193   -6.1660   -7.7858 O   0  0  0  0  0  0  0  0  0  0  0  0
   19.2988   -8.3938  -14.9890 C   0  0  0  0  0  0  0  0  0  0  0  0
   17.9227   -7.9868  -14.4653 C   0  0  2  0  0  0  0  0  0  0  0  0
   18.0983   -7.0892  -13.3621 N   0  0  0  0  0  0  0  0  0  0  0  0
   17.2043   -9.2494  -14.0663 C   0  0  0  0  0  0  0  0  0  0  0  0
   17.3111   -9.6726  -12.8930 O   0  0  0  0  0  0  0  0  0  0  0  0
   10.3581  -11.1969  -10.8964 N   0  0  0  0  0  0  0  0  0  0  0  0
   10.4668  -12.4970  -11.4866 C   0  0  0  0  0  0  0  0  0  0  0  0
    9.6210  -13.4474  -11.2087 N   0  0  0  0  0  0  0  0  0  0  0  0
   11.5429  -12.6901  -12.3883 N   0  0  0  0  0  0  0  0  0  0  0  0
   12.5255  -11.6431  -12.5327 C   0  0  0  0  0  0  0  0  0  0  0  0
   13.5228  -11.9663  -13.6506 C   0  0  0  0  0  0  0  0  0  0  0  0
   14.4859  -10.8461  -13.8343 C   0  0  0  0  0  0  0  0  0  0  0  0
   15.6393  -11.1410  -14.7111 C   0  0  2  0  0  0  0  0  0  0  0  0
   16.4138   -9.9583  -14.9967 N   0  0  0  0  0  0  0  0  0  0  0  0
   15.3579  -11.8866  -15.9495 C   0  0  0  0  0  0  0  0  0  0  0  0
   14.9012  -13.0461  -15.8591 O   0  0  0  0  0  0  0  0  0  0  0  0
   15.5591  -11.4041  -17.2339 O   0  0  0  0  0  0  0  0  0  0  0  0
  2  1  1  6
  2  3  1  0
  3  4  1  0
  4  5  2  0
  4  8  1  0
  6  7  2  0
  6  2  1  0
 10  9  1  1
 10 12  1  0
 10 11  1  0
 11  6  1  0
 12 22  1  0
 13 12  2  0
 15 16  2  0
 15 14  1  0
 17 15  1  0
 18 17  1  0
 19 18  1  0
 21 20  1  6
 20 19  1  0
 22 21  1  0
 23 25  1  0
 23 21  1  0
 24 23  2  0
M  END
$$$$
