DAR.pdb
     RDKit          3D

 25 24  0  0  1  0  0  0  0  0999 V2000
   16.0863  -10.9576  -17.3776 N   0  0  0  0  0  0  0  0  0  0  0  0
   16.0560  -10.2107  -16.1173 C   0  0  1  0  0  0  0  0  0  0  0  0
   16.4901  -11.0904  -14.9869 C   0  0  0  0  0  0  0  0  0  0  0  0
   15.5371  -12.1346  -14.6208 C   0  0  0  0  0  0  0  0  0  0  0  0
   14.3037  -11.8647  -14.7080 O   0  0  0  0  0  0  0  0  0  0  0  0
   17.0468   -9.0959  -16.2618 C   0  0  0  0  0  0  0  0  0  0  0  0
   18.2213   -9.2587  -16.6393 O   0  0  0  0  0  0  0  0  0  0  0  0
   15.9162  -13.3909  -14.1866 O   0  0  0  0  0  0  0  0  0  0  0  0
   16.8971   -5.3800  -15.6901 C   0  0  0  0  0  0  0  0  0  0  0  0
   17.6013   -6.6927  -16.0287 C   0  0  2  0  0  0  0  0  0  0  0  0
   16.6459   -7.7584  -15.9556 N   0  0  0  0  0  0  0  0  0  0  0  0
   18.7261   -6.8647  -15.0414 C   0  0  0  0  0  0  0  0  0  0  0  0
   18.4845   -7.3491  -13.9127 O   0  0  0  0  0  0  0  0  0  0  0  0
   25.4024  -11.5244  -15.8945 N   0  0  0  0  0  0  0  0  0  0  0  0
   23.9950  -11.3749  -16.1123 C   0  0  0  0  0  0  0  0  0  0  0  0
   23.3249  -12.2099  -16.8537 N   0  0  0  0  0  0  0  0  0  0  0  0
   23.3742  -10.2711  -15.4764 N   0  0  0  0  0  0  0  0  0  0  0  0
   24.1758   -9.1170  -15.1476 C   0  0  0  0  0  0  0  0  0  0  0  0
   23.3462   -8.0514  -14.4229 C   0  0  0  0  0  0  0  0  0  0  0  0
   22.1124   -7.7340  -15.1928 C   0  0  0  0  0  0  0  0  0  0  0  0
   21.2169   -6.7362  -14.5693 C   0  0  2  0  0  0  0  0  0  0  0  0
   20.0456   -6.4882  -15.3735 N   0  0  0  0  0  0  0  0  0  0  0  0
   21.8311   -5.4669  -14.1447 C   0  0  0  0  0  0  0  0  0  0  0  0
   21.5056   -4.4167  -14.7383 O   0  0  0  0  0  0  0  0  0  0  0  0
   22.7581   -5.3325  -13.1222 O   0  0  0  0  0  0  0  0  0  0  0  0
  2  1  1  6
  2  3  1  0
  3  4  1  0
  4  5  2  0
  4  8  1  0
  6  7  2  0
  6  2  1  0
 10  9  1  1
 10 12  1  0
 10 11  1  0
 11  6  1  0
 12 22  1  0
 13 12  2  0
 15 16  2  0
 15 14  1  0
 17 15  1  0
 18 17  1  0
 19 18  1  0
 21 20  1  6
 20 19  1  0
 22 21  1  0
 23 25  1  0
 23 21  1  0
 24 23  2  0
M  END
$$$$
