DAR.pdb
     RDKit          3D

 25 24  0  0  1  0  0  0  0  0999 V2000
   22.9188   -9.9027  -15.7179 N   0  0  0  0  0  0  0  0  0  0  0  0
   21.6719   -9.1946  -16.0196 C   0  0  1  0  0  0  0  0  0  0  0  0
   20.5342  -10.1643  -16.0937 C   0  0  0  0  0  0  0  0  0  0  0  0
   20.5204  -11.0043  -17.2882 C   0  0  0  0  0  0  0  0  0  0  0  0
   21.3374  -10.7270  -18.2141 O   0  0  0  0  0  0  0  0  0  0  0  0
   21.4281   -8.2596  -14.8745 C   0  0  0  0  0  0  0  0  0  0  0  0
   21.0274   -8.6265  -13.7549 O   0  0  0  0  0  0  0  0  0  0  0  0
   19.6637  -12.0765  -17.4530 O   0  0  0  0  0  0  0  0  0  0  0  0
   21.8055   -4.5485  -14.3990 C   0  0  0  0  0  0  0  0  0  0  0  0
   21.3245   -5.9431  -14.0025 C   0  0  2  0  0  0  0  0  0  0  0  0
   21.6617   -6.8604  -15.0507 N   0  0  0  0  0  0  0  0  0  0  0  0
   19.8377   -5.8560  -13.7755 C   0  0  0  0  0  0  0  0  0  0  0  0
   19.0593   -5.9791  -14.7481 O   0  0  0  0  0  0  0  0  0  0  0  0
   14.8584   -7.8166   -6.9089 N   0  0  0  0  0  0  0  0  0  0  0  0
   13.8835   -7.2287   -7.7775 C   0  0  0  0  0  0  0  0  0  0  0  0
   12.6062   -7.3581   -7.5594 N   0  0  0  0  0  0  0  0  0  0  0  0
   14.3857   -6.4993   -8.8839 N   0  0  0  0  0  0  0  0  0  0  0  0
   15.7060   -6.8076   -9.3785 C   0  0  0  0  0  0  0  0  0  0  0  0
   16.0631   -5.9395  -10.5899 C   0  0  0  0  0  0  0  0  0  0  0  0
   17.4704   -6.1805  -11.0113 C   0  0  0  0  0  0  0  0  0  0  0  0
   17.9287   -5.3848  -12.1702 C   0  0  2  0  0  0  0  0  0  0  0  0
   19.3136   -5.6387  -12.4827 N   0  0  0  0  0  0  0  0  0  0  0  0
   17.6654   -3.9366  -12.1266 C   0  0  0  0  0  0  0  0  0  0  0  0
   16.4845   -3.5400  -12.2246 O   0  0  0  0  0  0  0  0  0  0  0  0
   18.6333   -2.9541  -11.9830 O   0  0  0  0  0  0  0  0  0  0  0  0
  2  1  1  1
  2  3  1  0
  3  4  1  0
  4  5  2  0
  4  8  1  0
  6  7  2  0
  6  2  1  0
 10  9  1  6
 10 12  1  0
 10 11  1  0
 11  6  1  0
 12 22  1  0
 13 12  2  0
 15 16  2  0
 15 14  1  0
 17 15  1  0
 18 17  1  0
 19 18  1  0
 21 20  1  1
 20 19  1  0
 22 21  1  0
 23 25  1  0
 23 21  1  0
 24 23  2  0
M  END
$$$$
