DAR.pdb
     RDKit          3D

 25 24  0  0  1  0  0  0  0  0999 V2000
   26.1346  -10.1421  -17.4949 N   0  0  0  0  0  0  0  0  0  0  0  0
   25.6421   -8.8984  -18.0929 C   0  0  1  0  0  0  0  0  0  0  0  0
   24.8089   -9.2015  -19.2987 C   0  0  0  0  0  0  0  0  0  0  0  0
   25.5398   -9.7893  -20.4180 C   0  0  0  0  0  0  0  0  0  0  0  0
   26.8039   -9.7993  -20.3571 O   0  0  0  0  0  0  0  0  0  0  0  0
   24.7705   -8.2488  -17.0618 C   0  0  0  0  0  0  0  0  0  0  0  0
   23.9583   -8.8693  -16.3519 O   0  0  0  0  0  0  0  0  0  0  0  0
   24.9210  -10.3284  -21.5302 O   0  0  0  0  0  0  0  0  0  0  0  0
   24.4242   -4.7365  -15.7677 C   0  0  0  0  0  0  0  0  0  0  0  0
   24.0000   -6.1975  -15.9059 C   0  0  2  0  0  0  0  0  0  0  0  0
   24.8569   -6.8361  -16.8608 N   0  0  0  0  0  0  0  0  0  0  0  0
   22.5567   -6.2055  -16.3378 C   0  0  0  0  0  0  0  0  0  0  0  0
   22.2800   -6.1575  -17.5577 O   0  0  0  0  0  0  0  0  0  0  0  0
   16.3857  -11.5606  -14.2546 N   0  0  0  0  0  0  0  0  0  0  0  0
   15.7287  -10.7880  -15.2654 C   0  0  0  0  0  0  0  0  0  0  0  0
   14.6693  -11.2278  -15.8821 N   0  0  0  0  0  0  0  0  0  0  0  0
   16.2939   -9.5212  -15.5552 N   0  0  0  0  0  0  0  0  0  0  0  0
   17.6229   -9.2267  -15.0758 C   0  0  0  0  0  0  0  0  0  0  0  0
   18.0942   -7.8489  -15.5538 C   0  0  0  0  0  0  0  0  0  0  0  0
   19.5326   -7.6449  -15.2291 C   0  0  0  0  0  0  0  0  0  0  0  0
   20.1084   -6.3621  -15.6863 C   0  0  2  0  0  0  0  0  0  0  0  0
   21.5159   -6.2672  -15.3860 N   0  0  0  0  0  0  0  0  0  0  0  0
   19.4073   -5.1350  -15.2724 C   0  0  0  0  0  0  0  0  0  0  0  0
   19.9414   -4.4017  -14.4132 O   0  0  0  0  0  0  0  0  0  0  0  0
   18.1809   -4.7132  -15.7633 O   0  0  0  0  0  0  0  0  0  0  0  0
  2  1  1  1
  2  3  1  0
  3  4  1  0
  4  5  2  0
  4  8  1  0
  6  7  2  0
  6  2  1  0
 10  9  1  6
 10 12  1  0
 10 11  1  0
 11  6  1  0
 12 22  1  0
 13 12  2  0
 15 16  2  0
 15 14  1  0
 17 15  1  0
 18 17  1  0
 19 18  1  0
 21 20  1  1
 20 19  1  0
 22 21  1  0
 23 25  1  0
 23 21  1  0
 24 23  2  0
M  END
$$$$
