DAR.pdb
     RDKit          3D

 25 24  0  0  1  0  0  0  0  0999 V2000
   16.8779  -10.8801  -15.6694 N   0  0  0  0  0  0  0  0  0  0  0  0
   16.5773  -11.4051  -14.3348 C   0  0  1  0  0  0  0  0  0  0  0  0
   17.2193  -12.7447  -14.1519 C   0  0  0  0  0  0  0  0  0  0  0  0
   16.6064  -13.8285  -14.9151 C   0  0  0  0  0  0  0  0  0  0  0  0
   17.1835  -14.2013  -15.9780 O   0  0  0  0  0  0  0  0  0  0  0  0
   17.1852  -10.4472  -13.3561 C   0  0  0  0  0  0  0  0  0  0  0  0
   17.1829  -10.6222  -12.1240 O   0  0  0  0  0  0  0  0  0  0  0  0
   15.4364  -14.4583  -14.5347 O   0  0  0  0  0  0  0  0  0  0  0  0
   18.9560   -7.1445  -13.6904 C   0  0  0  0  0  0  0  0  0  0  0  0
   18.2777   -8.2689  -12.9099 C   0  0  2  0  0  0  0  0  0  0  0  0
   17.8111   -9.2559  -13.8383 N   0  0  0  0  0  0  0  0  0  0  0  0
   17.1538   -7.6506  -12.1199 C   0  0  0  0  0  0  0  0  0  0  0  0
   15.9867   -7.6997  -12.5700 O   0  0  0  0  0  0  0  0  0  0  0  0
   11.1374   -9.7866   -8.0014 N   0  0  0  0  0  0  0  0  0  0  0  0
   11.0488   -8.4660   -7.4550 C   0  0  0  0  0  0  0  0  0  0  0  0
   10.0163   -8.0805   -6.7612 N   0  0  0  0  0  0  0  0  0  0  0  0
   12.1452   -7.6051   -7.7102 N   0  0  0  0  0  0  0  0  0  0  0  0
   13.1918   -8.0559   -8.5957 C   0  0  0  0  0  0  0  0  0  0  0  0
   14.2808   -6.9900   -8.7580 C   0  0  0  0  0  0  0  0  0  0  0  0
   15.3489   -7.4672   -9.6787 C   0  0  0  0  0  0  0  0  0  0  0  0
   16.3952   -6.4740  -10.0026 C   0  0  2  0  0  0  0  0  0  0  0  0
   17.4003   -7.0191  -10.8815 N   0  0  0  0  0  0  0  0  0  0  0  0
   17.0234   -5.7778   -8.8671 C   0  0  0  0  0  0  0  0  0  0  0  0
   18.1045   -6.2168   -8.4201 O   0  0  0  0  0  0  0  0  0  0  0  0
   16.5097   -4.6539   -8.2378 O   0  0  0  0  0  0  0  0  0  0  0  0
  2  1  1  6
  2  3  1  0
  3  4  1  0
  4  5  2  0
  4  8  1  0
  6  7  2  0
  6  2  1  0
 10  9  1  6
 10 12  1  0
 10 11  1  0
 11  6  1  0
 12 22  1  0
 13 12  2  0
 15 16  2  0
 15 14  1  0
 17 15  1  0
 18 17  1  0
 19 18  1  0
 21 20  1  1
 20 19  1  0
 22 21  1  0
 23 25  1  0
 23 21  1  0
 24 23  2  0
M  END
$$$$
