DAR.pdb
     RDKit          3D

 25 24  0  0  1  0  0  0  0  0999 V2000
   15.0902  -21.5567    1.4395 N   0  0  0  0  0  0  0  0  0  0  0  0
   14.5007  -22.8396    1.0477 C   0  0  1  0  0  0  0  0  0  0  0  0
   13.3688  -22.6163    0.0942 C   0  0  0  0  0  0  0  0  0  0  0  0
   12.0656  -22.4208    0.7233 C   0  0  0  0  0  0  0  0  0  0  0  0
   11.9986  -22.5155    1.9836 O   0  0  0  0  0  0  0  0  0  0  0  0
   15.5782  -23.6021    0.3389 C   0  0  0  0  0  0  0  0  0  0  0  0
   16.2994  -23.1154   -0.5509 O   0  0  0  0  0  0  0  0  0  0  0  0
   10.9133  -22.1415    0.0129 O   0  0  0  0  0  0  0  0  0  0  0  0
   17.1704  -26.9428    0.9135 C   0  0  0  0  0  0  0  0  0  0  0  0
   16.9167  -25.6733    0.1026 C   0  0  2  0  0  0  0  0  0  0  0  0
   15.8132  -24.9688    0.6855 N   0  0  0  0  0  0  0  0  0  0  0  0
   16.6393  -26.0966   -1.3164 C   0  0  0  0  0  0  0  0  0  0  0  0
   15.4915  -26.4875   -1.6279 O   0  0  0  0  0  0  0  0  0  0  0  0
   19.6751  -24.9094   -8.7380 N   0  0  0  0  0  0  0  0  0  0  0  0
   18.3621  -25.2488   -9.1975 C   0  0  0  0  0  0  0  0  0  0  0  0
   18.1684  -25.8306  -10.3463 N   0  0  0  0  0  0  0  0  0  0  0  0
   17.2886  -24.9179   -8.3336 N   0  0  0  0  0  0  0  0  0  0  0  0
   17.5803  -24.5711   -6.9634 C   0  0  0  0  0  0  0  0  0  0  0  0
   17.5663  -25.8097   -6.0608 C   0  0  0  0  0  0  0  0  0  0  0  0
   17.6863  -25.4173   -4.6298 C   0  0  0  0  0  0  0  0  0  0  0  0
   17.5275  -26.5189   -3.6565 C   0  0  2  0  0  0  0  0  0  0  0  0
   17.6549  -26.0568   -2.2962 N   0  0  0  0  0  0  0  0  0  0  0  0
   18.3507  -27.7204   -3.8740 C   0  0  0  0  0  0  0  0  0  0  0  0
   17.9846  -28.5487   -4.7348 O   0  0  0  0  0  0  0  0  0  0  0  0
   19.5213  -28.0189   -3.1931 O   0  0  0  0  0  0  0  0  0  0  0  0
  2  1  1  6
  2  3  1  0
  3  4  1  0
  4  5  2  0
  4  8  1  0
  6  7  2  0
  6  2  1  0
 10  9  1  1
 10 12  1  0
 10 11  1  0
 11  6  1  0
 12 22  1  0
 13 12  2  0
 15 16  2  0
 15 14  1  0
 17 15  1  0
 18 17  1  0
 19 18  1  0
 21 20  1  6
 20 19  1  0
 22 21  1  0
 23 25  1  0
 23 21  1  0
 24 23  2  0
M  END
$$$$
