DAR.pdb
     RDKit          3D

 25 24  0  0  1  0  0  0  0  0999 V2000
   17.6068  -12.7097  -17.6758 N   0  0  0  0  0  0  0  0  0  0  0  0
   17.7422  -12.2499  -16.2911 C   0  0  1  0  0  0  0  0  0  0  0  0
   18.7328  -13.1012  -15.5604 C   0  0  0  0  0  0  0  0  0  0  0  0
   18.2761  -14.4559  -15.2621 C   0  0  0  0  0  0  0  0  0  0  0  0
   17.1036  -14.5964  -14.8067 O   0  0  0  0  0  0  0  0  0  0  0  0
   18.2743  -10.8509  -16.3596 C   0  0  0  0  0  0  0  0  0  0  0  0
   19.2461  -10.5137  -17.0599 O   0  0  0  0  0  0  0  0  0  0  0  0
   19.0579  -15.5800  -15.4509 O   0  0  0  0  0  0  0  0  0  0  0  0
   17.3272   -7.6144  -14.6905 C   0  0  0  0  0  0  0  0  0  0  0  0
   18.2098   -8.5064  -15.5615 C   0  0  2  0  0  0  0  0  0  0  0  0
   17.6478   -9.8245  -15.5865 N   0  0  0  0  0  0  0  0  0  0  0  0
   19.5932   -8.4860  -14.9654 C   0  0  0  0  0  0  0  0  0  0  0  0
   20.0104   -9.4907  -14.3459 O   0  0  0  0  0  0  0  0  0  0  0  0
   26.0154  -12.0858  -15.8685 N   0  0  0  0  0  0  0  0  0  0  0  0
   26.7930  -10.8836  -15.8911 C   0  0  0  0  0  0  0  0  0  0  0  0
   28.0894  -10.9095  -16.0121 N   0  0  0  0  0  0  0  0  0  0  0  0
   26.0743   -9.6677  -15.7758 N   0  0  0  0  0  0  0  0  0  0  0  0
   24.6318   -9.7111  -15.7644 C   0  0  0  0  0  0  0  0  0  0  0  0
   24.0342   -8.3088  -15.6061 C   0  0  0  0  0  0  0  0  0  0  0  0
   22.5476   -8.3629  -15.6606 C   0  0  0  0  0  0  0  0  0  0  0  0
   21.8476   -7.3227  -14.8769 C   0  0  2  0  0  0  0  0  0  0  0  0
   20.4226   -7.3512  -15.0976 N   0  0  0  0  0  0  0  0  0  0  0  0
   22.3614   -5.9474  -14.9915 C   0  0  0  0  0  0  0  0  0  0  0  0
   23.1097   -5.5113  -14.0908 O   0  0  0  0  0  0  0  0  0  0  0  0
   22.0819   -5.0760  -16.0334 O   0  0  0  0  0  0  0  0  0  0  0  0
  2  1  1  6
  2  3  1  0
  3  4  1  0
  4  5  2  0
  4  8  1  0
  6  7  2  0
  6  2  1  0
 10  9  1  1
 10 12  1  0
 10 11  1  0
 11  6  1  0
 12 22  1  0
 13 12  2  0
 15 16  2  0
 15 14  1  0
 17 15  1  0
 18 17  1  0
 19 18  1  0
 21 20  1  6
 20 19  1  0
 22 21  1  0
 23 25  1  0
 23 21  1  0
 24 23  2  0
M  END
$$$$
