DAR.pdb
     RDKit          3D

 25 24  0  0  1  0  0  0  0  0999 V2000
   29.7942   -9.8740  -18.3117 N   0  0  0  0  0  0  0  0  0  0  0  0
   29.8954  -11.3345  -18.2512 C   0  0  1  0  0  0  0  0  0  0  0  0
   31.2953  -11.7401  -17.9107 C   0  0  0  0  0  0  0  0  0  0  0  0
   32.2974  -11.3878  -18.9128 C   0  0  0  0  0  0  0  0  0  0  0  0
   33.4821  -11.7939  -18.7307 O   0  0  0  0  0  0  0  0  0  0  0  0
   28.9880  -11.7765  -17.1438 C   0  0  0  0  0  0  0  0  0  0  0  0
   28.8666  -12.9601  -16.7794 O   0  0  0  0  0  0  0  0  0  0  0  0
   32.0147  -10.6377  -20.0389 O   0  0  0  0  0  0  0  0  0  0  0  0
   26.6840  -10.0024  -14.7649 C   0  0  0  0  0  0  0  0  0  0  0  0
   27.2011  -11.2265  -15.5183 C   0  0  2  0  0  0  0  0  0  0  0  0
   28.2057  -10.8028  -16.4485 N   0  0  0  0  0  0  0  0  0  0  0  0
   26.0196  -11.8626  -16.2033 C   0  0  0  0  0  0  0  0  0  0  0  0
   25.7035  -11.4898  -17.3558 O   0  0  0  0  0  0  0  0  0  0  0  0
   22.3136  -19.6025  -14.4989 N   0  0  0  0  0  0  0  0  0  0  0  0
   21.4901  -19.1854  -15.5936 C   0  0  0  0  0  0  0  0  0  0  0  0
   20.5939  -19.9736  -16.1146 N   0  0  0  0  0  0  0  0  0  0  0  0
   21.7039  -17.8701  -16.0757 N   0  0  0  0  0  0  0  0  0  0  0  0
   22.7267  -17.0608  -15.4579 C   0  0  0  0  0  0  0  0  0  0  0  0
   22.7786  -15.6605  -16.0785 C   0  0  0  0  0  0  0  0  0  0  0  0
   23.9712  -14.9146  -15.5910 C   0  0  0  0  0  0  0  0  0  0  0  0
   24.1174  -13.5411  -16.1186 C   0  0  2  0  0  0  0  0  0  0  0  0
   25.2677  -12.8715  -15.5631 N   0  0  0  0  0  0  0  0  0  0  0  0
   22.9297  -12.6734  -16.0483 C   0  0  0  0  0  0  0  0  0  0  0  0
   22.7780  -11.9471  -15.0429 O   0  0  0  0  0  0  0  0  0  0  0  0
   21.9447  -12.5897  -17.0208 O   0  0  0  0  0  0  0  0  0  0  0  0
  2  1  1  1
  2  3  1  0
  3  4  1  0
  4  5  2  0
  4  8  1  0
  6  7  2  0
  6  2  1  0
 10  9  1  6
 10 12  1  0
 10 11  1  0
 11  6  1  0
 12 22  1  0
 13 12  2  0
 15 16  2  0
 15 14  1  0
 17 15  1  0
 18 17  1  0
 19 18  1  0
 21 20  1  1
 20 19  1  0
 22 21  1  0
 23 25  1  0
 23 21  1  0
 24 23  2  0
M  END
$$$$
