DAR.pdb
     RDKit          3D

 25 24  0  0  1  0  0  0  0  0999 V2000
   23.5026  -17.3324  -17.8743 N   0  0  0  0  0  0  0  0  0  0  0  0
   23.1481  -17.1915  -16.4595 C   0  0  1  0  0  0  0  0  0  0  0  0
   21.6899  -17.4669  -16.2642 C   0  0  0  0  0  0  0  0  0  0  0  0
   20.7932  -16.5615  -16.9775 C   0  0  0  0  0  0  0  0  0  0  0  0
   19.7030  -17.0333  -17.4140 O   0  0  0  0  0  0  0  0  0  0  0  0
   23.9332  -18.2319  -15.7205 C   0  0  0  0  0  0  0  0  0  0  0  0
   23.4579  -18.9478  -14.8205 O   0  0  0  0  0  0  0  0  0  0  0  0
   21.0782  -15.2269  -17.1968 O   0  0  0  0  0  0  0  0  0  0  0  0
   26.8423  -20.2705  -16.3188 C   0  0  0  0  0  0  0  0  0  0  0  0
   26.0819  -19.3985  -15.3212 C   0  0  2  0  0  0  0  0  0  0  0  0
   25.3096  -18.4351  -16.0487 N   0  0  0  0  0  0  0  0  0  0  0  0
   27.1035  -18.7515  -14.4228 C   0  0  0  0  0  0  0  0  0  0  0  0
   28.2323  -18.4651  -14.8820 O   0  0  0  0  0  0  0  0  0  0  0  0
   21.5698  -22.1215   -9.3381 N   0  0  0  0  0  0  0  0  0  0  0  0
   22.4910  -21.7188   -8.3184 C   0  0  0  0  0  0  0  0  0  0  0  0
   22.1290  -21.6145   -7.0718 N   0  0  0  0  0  0  0  0  0  0  0  0
   23.8151  -21.4422   -8.7409 N   0  0  0  0  0  0  0  0  0  0  0  0
   24.0296  -20.4069   -9.7231 C   0  0  0  0  0  0  0  0  0  0  0  0
   24.9657  -20.8839  -10.8390 C   0  0  0  0  0  0  0  0  0  0  0  0
   25.2161  -19.7898  -11.8170 C   0  0  0  0  0  0  0  0  0  0  0  0
   26.6376  -19.4399  -12.0244 C   0  0  2  0  0  0  0  0  0  0  0  0
   26.8035  -18.4642  -13.0735 N   0  0  0  0  0  0  0  0  0  0  0  0
   27.5769  -20.5594  -12.2059 C   0  0  0  0  0  0  0  0  0  0  0  0
   27.8220  -21.2990  -11.2290 O   0  0  0  0  0  0  0  0  0  0  0  0
   28.2264  -20.8713  -13.3907 O   0  0  0  0  0  0  0  0  0  0  0  0
  2  1  1  6
  2  3  1  0
  3  4  1  0
  4  5  2  0
  4  8  1  0
  6  7  2  0
  6  2  1  0
 10  9  1  6
 10 12  1  0
 10 11  1  0
 11  6  1  0
 12 22  1  0
 13 12  2  0
 15 16  2  0
 15 14  1  0
 17 15  1  0
 18 17  1  0
 19 18  1  0
 21 20  1  6
 20 19  1  0
 22 21  1  0
 23 25  1  0
 23 21  1  0
 24 23  2  0
M  END
$$$$
