DAR.pdb
     RDKit          3D

 25 24  0  0  1  0  0  0  0  0999 V2000
   20.5356  -16.8534  -15.9843 N   0  0  0  0  0  0  0  0  0  0  0  0
   20.7581  -18.0771  -15.2096 C   0  0  1  0  0  0  0  0  0  0  0  0
   19.5853  -18.9962  -15.3507 C   0  0  0  0  0  0  0  0  0  0  0  0
   18.3323  -18.4805  -14.8062 C   0  0  0  0  0  0  0  0  0  0  0  0
   18.3412  -17.3192  -14.3032 O   0  0  0  0  0  0  0  0  0  0  0  0
   21.9606  -18.7431  -15.8059 C   0  0  0  0  0  0  0  0  0  0  0  0
   22.3571  -19.8764  -15.4790 O   0  0  0  0  0  0  0  0  0  0  0  0
   17.1495  -19.1956  -14.8134 O   0  0  0  0  0  0  0  0  0  0  0  0
   24.5473  -17.6730  -18.3201 C   0  0  0  0  0  0  0  0  0  0  0  0
   23.9424  -18.6225  -17.2876 C   0  0  2  0  0  0  0  0  0  0  0  0
   22.7136  -18.0599  -16.8108 N   0  0  0  0  0  0  0  0  0  0  0  0
   24.9576  -18.7932  -16.1877 C   0  0  0  0  0  0  0  0  0  0  0  0
   25.1298  -17.8688  -15.3613 O   0  0  0  0  0  0  0  0  0  0  0  0
   24.0205  -21.1691   -8.7369 N   0  0  0  0  0  0  0  0  0  0  0  0
   25.3878  -20.7447   -8.7641 C   0  0  0  0  0  0  0  0  0  0  0  0
   25.9669  -20.2349   -7.7150 N   0  0  0  0  0  0  0  0  0  0  0  0
   26.0735  -20.9113   -9.9931 N   0  0  0  0  0  0  0  0  0  0  0  0
   25.4136  -20.5214  -11.2159 C   0  0  0  0  0  0  0  0  0  0  0  0
   26.3216  -20.7375  -12.4314 C   0  0  0  0  0  0  0  0  0  0  0  0
   25.6513  -20.2717  -13.6763 C   0  0  0  0  0  0  0  0  0  0  0  0
   26.4527  -20.3998  -14.9122 C   0  0  2  0  0  0  0  0  0  0  0  0
   25.7142  -19.9801  -16.0778 N   0  0  0  0  0  0  0  0  0  0  0  0
   27.1007  -21.7005  -15.1510 C   0  0  0  0  0  0  0  0  0  0  0  0
   28.0530  -22.0383  -14.4160 O   0  0  0  0  0  0  0  0  0  0  0  0
   26.7386  -22.6020  -16.1405 O   0  0  0  0  0  0  0  0  0  0  0  0
  2  1  1  6
  2  3  1  0
  3  4  1  0
  4  5  2  0
  4  8  1  0
  6  7  2  0
  6  2  1  0
 10  9  1  6
 10 12  1  0
 10 11  1  0
 11  6  1  0
 12 22  1  0
 13 12  2  0
 15 16  2  0
 15 14  1  0
 17 15  1  0
 18 17  1  0
 19 18  1  0
 21 20  1  1
 20 19  1  0
 22 21  1  0
 23 25  1  0
 23 21  1  0
 24 23  2  0
M  END
$$$$
