DAR.pdb
     RDKit          3D

 25 24  0  0  1  0  0  0  0  0999 V2000
   27.4292  -11.9659  -19.3741 N   0  0  0  0  0  0  0  0  0  0  0  0
   26.0094  -12.2823  -19.5505 C   0  0  1  0  0  0  0  0  0  0  0  0
   25.8311  -13.7548  -19.7509 C   0  0  0  0  0  0  0  0  0  0  0  0
   26.5038  -14.3002  -20.9268 C   0  0  0  0  0  0  0  0  0  0  0  0
   27.0986  -13.4895  -21.6953 O   0  0  0  0  0  0  0  0  0  0  0  0
   25.3262  -11.8881  -18.2766 C   0  0  0  0  0  0  0  0  0  0  0  0
   24.1121  -12.0567  -18.0617 O   0  0  0  0  0  0  0  0  0  0  0  0
   26.5194  -15.6471  -21.2366 O   0  0  0  0  0  0  0  0  0  0  0  0
   26.4921  -10.3101  -15.0667 C   0  0  0  0  0  0  0  0  0  0  0  0
   25.4356  -10.8388  -16.0351 C   0  0  2  0  0  0  0  0  0  0  0  0
   26.0895  -11.2819  -17.2309 N   0  0  0  0  0  0  0  0  0  0  0  0
   24.4661   -9.7157  -16.2964 C   0  0  0  0  0  0  0  0  0  0  0  0
   24.7169   -8.8846  -17.1983 O   0  0  0  0  0  0  0  0  0  0  0  0
   16.3042   -9.8983  -18.1756 N   0  0  0  0  0  0  0  0  0  0  0  0
   16.5476   -8.4905  -18.2717 C   0  0  0  0  0  0  0  0  0  0  0  0
   15.7514   -7.7022  -18.9354 N   0  0  0  0  0  0  0  0  0  0  0  0
   17.6997   -8.0047  -17.6046 N   0  0  0  0  0  0  0  0  0  0  0  0
   18.7143   -8.9456  -17.1945 C   0  0  0  0  0  0  0  0  0  0  0  0
   19.9119   -8.2308  -16.5593 C   0  0  0  0  0  0  0  0  0  0  0  0
   21.0178   -9.1923  -16.2970 C   0  0  0  0  0  0  0  0  0  0  0  0
   22.2544   -8.5987  -15.7450 C   0  0  2  0  0  0  0  0  0  0  0  0
   23.2812   -9.5903  -15.5390 N   0  0  0  0  0  0  0  0  0  0  0  0
   22.1073   -7.7505  -14.5502 C   0  0  0  0  0  0  0  0  0  0  0  0
   22.4037   -8.2307  -13.4354 O   0  0  0  0  0  0  0  0  0  0  0  0
   21.6598   -6.4380  -14.5543 O   0  0  0  0  0  0  0  0  0  0  0  0
  2  1  1  1
  2  3  1  0
  3  4  1  0
  4  5  2  0
  4  8  1  0
  6  7  2  0
  6  2  1  0
 10  9  1  1
 10 12  1  0
 10 11  1  0
 11  6  1  0
 12 22  1  0
 13 12  2  0
 15 16  2  0
 15 14  1  0
 17 15  1  0
 18 17  1  0
 19 18  1  0
 21 20  1  1
 20 19  1  0
 22 21  1  0
 23 25  1  0
 23 21  1  0
 24 23  2  0
M  END
$$$$
