DAR.pdb
     RDKit          3D

 25 24  0  0  1  0  0  0  0  0999 V2000
   20.9332   -8.3690  -16.3739 N   0  0  0  0  0  0  0  0  0  0  0  0
   19.8716   -9.1150  -15.6929 C   0  0  1  0  0  0  0  0  0  0  0  0
   20.1259  -10.5860  -15.8000 C   0  0  0  0  0  0  0  0  0  0  0  0
   20.0325  -11.1283  -17.1527 C   0  0  0  0  0  0  0  0  0  0  0  0
   21.0824  -11.1353  -17.8594 O   0  0  0  0  0  0  0  0  0  0  0  0
   19.9385   -8.7233  -14.2482 C   0  0  0  0  0  0  0  0  0  0  0  0
   19.3858   -9.3593  -13.3325 O   0  0  0  0  0  0  0  0  0  0  0  0
   18.8619  -11.6277  -17.6918 O   0  0  0  0  0  0  0  0  0  0  0  0
   21.6144   -5.9290  -12.3697 C   0  0  0  0  0  0  0  0  0  0  0  0
   20.6545   -7.1090  -12.5107 C   0  0  2  0  0  0  0  0  0  0  0  0
   20.6735   -7.5563  -13.8721 N   0  0  0  0  0  0  0  0  0  0  0  0
   19.2910   -6.6300  -12.0853 C   0  0  0  0  0  0  0  0  0  0  0  0
   18.6347   -5.8867  -12.8495 O   0  0  0  0  0  0  0  0  0  0  0  0
   12.6694  -10.8498   -9.0029 N   0  0  0  0  0  0  0  0  0  0  0  0
   12.1272   -9.5335   -8.8480 C   0  0  0  0  0  0  0  0  0  0  0  0
   10.8894   -9.3410   -8.4923 N   0  0  0  0  0  0  0  0  0  0  0  0
   13.0114   -8.4555   -9.1017 N   0  0  0  0  0  0  0  0  0  0  0  0
   14.3505   -8.7463   -9.5546 C   0  0  0  0  0  0  0  0  0  0  0  0
   15.1919   -7.4697   -9.6597 C   0  0  0  0  0  0  0  0  0  0  0  0
   16.5759   -7.7889  -10.1056 C   0  0  0  0  0  0  0  0  0  0  0  0
   17.4515   -6.6200  -10.3363 C   0  0  2  0  0  0  0  0  0  0  0  0
   18.7460   -7.0090  -10.8394 N   0  0  0  0  0  0  0  0  0  0  0  0
   17.5944   -5.6678   -9.2221 C   0  0  0  0  0  0  0  0  0  0  0  0
   18.6212   -5.7267   -8.5126 O   0  0  0  0  0  0  0  0  0  0  0  0
   16.6699   -4.6908   -8.8846 O   0  0  0  0  0  0  0  0  0  0  0  0
  2  1  1  6
  2  3  1  0
  3  4  1  0
  4  5  2  0
  4  8  1  0
  6  7  2  0
  6  2  1  0
 10  9  1  6
 10 12  1  0
 10 11  1  0
 11  6  1  0
 12 22  1  0
 13 12  2  0
 15 16  2  0
 15 14  1  0
 17 15  1  0
 18 17  1  0
 19 18  1  0
 21 20  1  1
 20 19  1  0
 22 21  1  0
 23 25  1  0
 23 21  1  0
 24 23  2  0
M  END
$$$$
