DAR.pdb
     RDKit          3D

 25 24  0  0  1  0  0  0  0  0999 V2000
   27.0601   -9.8715  -21.5543 N   0  0  0  0  0  0  0  0  0  0  0  0
   26.5346  -10.4273  -20.3045 C   0  0  1  0  0  0  0  0  0  0  0  0
   27.5223  -11.3820  -19.7101 C   0  0  0  0  0  0  0  0  0  0  0  0
   27.7405  -12.6008  -20.4845 C   0  0  0  0  0  0  0  0  0  0  0  0
   26.9521  -12.8384  -21.4455 O   0  0  0  0  0  0  0  0  0  0  0  0
   26.3636   -9.2720  -19.3660 C   0  0  0  0  0  0  0  0  0  0  0  0
   26.0065   -9.3910  -18.1799 O   0  0  0  0  0  0  0  0  0  0  0  0
   28.7573  -13.4983  -20.2178 O   0  0  0  0  0  0  0  0  0  0  0  0
   26.8097   -5.5508  -19.6965 C   0  0  0  0  0  0  0  0  0  0  0  0
   26.4024   -6.8278  -18.9638 C   0  0  2  0  0  0  0  0  0  0  0  0
   26.6196   -7.9456  -19.8338 N   0  0  0  0  0  0  0  0  0  0  0  0
   24.9545   -6.6784  -18.5755 C   0  0  0  0  0  0  0  0  0  0  0  0
   24.0680   -7.1781  -19.3046 O   0  0  0  0  0  0  0  0  0  0  0  0
   19.5196  -11.0824  -15.5038 N   0  0  0  0  0  0  0  0  0  0  0  0
   18.6963   -9.9159  -15.3942 C   0  0  0  0  0  0  0  0  0  0  0  0
   17.4215   -9.9995  -15.1415 N   0  0  0  0  0  0  0  0  0  0  0  0
   19.3452   -8.6691  -15.5745 N   0  0  0  0  0  0  0  0  0  0  0  0
   20.6829   -8.6534  -16.1160 C   0  0  0  0  0  0  0  0  0  0  0  0
   21.2500   -7.2302  -16.1567 C   0  0  0  0  0  0  0  0  0  0  0  0
   22.6047   -7.2228  -16.7739 C   0  0  0  0  0  0  0  0  0  0  0  0
   23.2520   -5.8964  -16.8628 C   0  0  2  0  0  0  0  0  0  0  0  0
   24.5867   -5.9847  -17.4022 N   0  0  0  0  0  0  0  0  0  0  0  0
   23.2401   -5.0692  -15.6445 C   0  0  0  0  0  0  0  0  0  0  0  0
   24.3321   -4.7369  -15.1363 O   0  0  0  0  0  0  0  0  0  0  0  0
   22.0992   -4.6170  -14.9989 O   0  0  0  0  0  0  0  0  0  0  0  0
  2  1  1  6
  2  3  1  0
  3  4  1  0
  4  5  2  0
  4  8  1  0
  6  7  2  0
  6  2  1  0
 10  9  1  6
 10 12  1  0
 10 11  1  0
 11  6  1  0
 12 22  1  0
 13 12  2  0
 15 16  2  0
 15 14  1  0
 17 15  1  0
 18 17  1  0
 19 18  1  0
 21 20  1  1
 20 19  1  0
 22 21  1  0
 23 25  1  0
 23 21  1  0
 24 23  2  0
M  END
$$$$
