DAR.pdb
     RDKit          3D

 25 24  0  0  1  0  0  0  0  0999 V2000
   13.5714  -11.8312  -12.3621 N   0  0  0  0  0  0  0  0  0  0  0  0
   14.6344  -11.6934  -11.3630 C   0  0  1  0  0  0  0  0  0  0  0  0
   15.9639  -11.9952  -11.9807 C   0  0  0  0  0  0  0  0  0  0  0  0
   16.1952  -13.4055  -12.2812 C   0  0  0  0  0  0  0  0  0  0  0  0
   15.4198  -14.2558  -11.7546 O   0  0  0  0  0  0  0  0  0  0  0  0
   14.6246  -10.2593  -10.9292 C   0  0  0  0  0  0  0  0  0  0  0  0
   14.6027   -9.2976  -11.7188 O   0  0  0  0  0  0  0  0  0  0  0  0
   17.2125  -13.8498  -13.1048 O   0  0  0  0  0  0  0  0  0  0  0  0
   14.2307   -8.5716   -7.6038 C   0  0  0  0  0  0  0  0  0  0  0  0
   14.5195   -8.5876   -9.1038 C   0  0  2  0  0  0  0  0  0  0  0  0
   14.6401   -9.9494   -9.5337 N   0  0  0  0  0  0  0  0  0  0  0  0
   15.7874   -7.8043   -9.3238 C   0  0  0  0  0  0  0  0  0  0  0  0
   16.8937   -8.3698   -9.1700 O   0  0  0  0  0  0  0  0  0  0  0  0
   21.9069   -7.2863  -13.4820 N   0  0  0  0  0  0  0  0  0  0  0  0
   21.8019   -5.8662  -13.6331 C   0  0  0  0  0  0  0  0  0  0  0  0
   22.5972   -5.2014  -14.4214 N   0  0  0  0  0  0  0  0  0  0  0  0
   20.7861   -5.2271  -12.8795 N   0  0  0  0  0  0  0  0  0  0  0  0
   19.6644   -6.0103  -12.4199 C   0  0  0  0  0  0  0  0  0  0  0  0
   18.5742   -5.1191  -11.8148 C   0  0  0  0  0  0  0  0  0  0  0  0
   17.4083   -5.9373  -11.3818 C   0  0  0  0  0  0  0  0  0  0  0  0
   16.8843   -5.6282  -10.0342 C   0  0  2  0  0  0  0  0  0  0  0  0
   15.7430   -6.4446   -9.7010 N   0  0  0  0  0  0  0  0  0  0  0  0
   16.6116   -4.2119   -9.7370 C   0  0  0  0  0  0  0  0  0  0  0  0
   15.5086   -3.7314  -10.0743 O   0  0  0  0  0  0  0  0  0  0  0  0
   17.4901   -3.3470   -9.1021 O   0  0  0  0  0  0  0  0  0  0  0  0
  2  1  1  6
  2  3  1  0
  3  4  1  0
  4  5  2  0
  4  8  1  0
  6  7  2  0
  6  2  1  0
 10  9  1  1
 10 12  1  0
 10 11  1  0
 11  6  1  0
 12 22  1  0
 13 12  2  0
 15 16  2  0
 15 14  1  0
 17 15  1  0
 18 17  1  0
 19 18  1  0
 21 20  1  6
 20 19  1  0
 22 21  1  0
 23 25  1  0
 23 21  1  0
 24 23  2  0
M  END
$$$$
