DAR.pdb
     RDKit          3D

 25 24  0  0  1  0  0  0  0  0999 V2000
   22.8456   -7.7990  -14.6335 N   0  0  0  0  0  0  0  0  0  0  0  0
   22.3406   -8.4135  -15.8641 C   0  0  1  0  0  0  0  0  0  0  0  0
   22.0236   -7.3562  -16.8750 C   0  0  0  0  0  0  0  0  0  0  0  0
   20.8900   -6.5010  -16.5340 C   0  0  0  0  0  0  0  0  0  0  0  0
   20.2748   -6.7395  -15.4540 O   0  0  0  0  0  0  0  0  0  0  0  0
   23.4506   -9.2665  -16.3981 C   0  0  0  0  0  0  0  0  0  0  0  0
   23.3789   -9.9101  -17.4608 O   0  0  0  0  0  0  0  0  0  0  0  0
   20.4615   -5.4548  -17.3291 O   0  0  0  0  0  0  0  0  0  0  0  0
   26.8619  -10.2001  -15.1136 C   0  0  0  0  0  0  0  0  0  0  0  0
   25.6773  -10.3026  -16.0726 C   0  0  2  0  0  0  0  0  0  0  0  0
   24.6739   -9.3641  -15.6649 N   0  0  0  0  0  0  0  0  0  0  0  0
   25.1833  -11.7250  -16.0233 C   0  0  0  0  0  0  0  0  0  0  0  0
   24.3820  -12.0665  -15.1242 O   0  0  0  0  0  0  0  0  0  0  0  0
   18.6229  -15.1778  -17.5572 N   0  0  0  0  0  0  0  0  0  0  0  0
   19.3117  -14.7994  -16.3602 C   0  0  0  0  0  0  0  0  0  0  0  0
   18.6709  -14.3987  -15.2997 N   0  0  0  0  0  0  0  0  0  0  0  0
   20.7257  -14.8865  -16.3943 N   0  0  0  0  0  0  0  0  0  0  0  0
   21.3817  -15.0514  -17.6691 C   0  0  0  0  0  0  0  0  0  0  0  0
   22.8929  -15.2393  -17.4971 C   0  0  0  0  0  0  0  0  0  0  0  0
   23.5674  -13.9250  -17.3135 C   0  0  0  0  0  0  0  0  0  0  0  0
   25.0382  -13.9828  -17.1740 C   0  0  2  0  0  0  0  0  0  0  0  0
   25.6114  -12.6742  -16.9766 N   0  0  0  0  0  0  0  0  0  0  0  0
   25.7751  -14.7187  -18.2153 C   0  0  0  0  0  0  0  0  0  0  0  0
   26.0899  -14.1167  -19.2640 O   0  0  0  0  0  0  0  0  0  0  0  0
   26.1585  -16.0487  -18.1318 O   0  0  0  0  0  0  0  0  0  0  0  0
  2  1  1  1
  2  3  1  0
  3  4  1  0
  4  5  2  0
  4  8  1  0
  6  7  2  0
  6  2  1  0
 10  9  1  1
 10 12  1  0
 10 11  1  0
 11  6  1  0
 12 22  1  0
 13 12  2  0
 15 16  2  0
 15 14  1  0
 17 15  1  0
 18 17  1  0
 19 18  1  0
 21 20  1  6
 20 19  1  0
 22 21  1  0
 23 25  1  0
 23 21  1  0
 24 23  2  0
M  END
$$$$
