PKM.pdb
     RDKit          3D

 25 25  0  0  1  0  0  0  0  0999 V2000
   25.3849  -23.7053  -14.8219 N   0  0  0  0  0  0  0  0  0  0  0  0
   24.7967  -24.9891  -15.0377 C   0  0  0  0  0  0  0  0  0  0  0  0
   24.2352  -24.9698  -16.4652 C   0  0  0  0  0  0  0  0  0  0  0  0
   25.2141  -23.9697  -17.0969 C   0  0  0  0  0  0  0  0  0  0  0  0
   25.2139  -22.9093  -16.0154 C   0  0  1  0  0  0  0  0  0  0  0  0
   23.8429  -22.2879  -15.9685 C   0  0  0  0  0  0  0  0  0  0  0  0
   23.1679  -22.0876  -17.0122 O   0  0  0  0  0  0  0  0  0  0  0  0
   23.2462  -21.8976  -14.7392 N   0  0  0  0  0  0  0  0  0  0  0  0
   21.9226  -21.3221  -14.6373 C   0  0  1  0  0  0  0  0  0  0  0  0
   21.1969  -21.7874  -13.4174 C   0  0  0  0  0  0  0  0  0  0  0  0
   20.3597  -23.0317  -13.7245 C   0  0  0  0  0  0  0  0  0  0  0  0
   19.7581  -23.4563  -12.3993 C   0  0  0  0  0  0  0  0  0  0  0  0
   18.7052  -24.5217  -12.5621 C   0  0  0  0  0  0  0  0  0  0  0  0
   18.2628  -24.8660  -11.2038 N   0  0  0  0  0  0  0  0  0  0  0  0
   22.0157  -19.8880  -14.8226 C   0  0  0  0  0  0  0  0  0  0  0  0
   22.7110  -19.2226  -14.0114 O   0  0  0  0  0  0  0  0  0  0  0  0
   24.2654  -16.3870  -19.3837 C   0  0  0  0  0  0  0  0  0  0  0  0
   22.9946  -15.2335  -18.8451 S   0  0  0  0  0  0  0  0  0  0  0  0
   22.2818  -15.7903  -17.2942 C   0  0  0  0  0  0  0  0  0  0  0  0
   22.1303  -17.2930  -17.2587 C   0  0  0  0  0  0  0  0  0  0  0  0
   21.5344  -17.7386  -15.9372 C   0  0  2  0  0  0  0  0  0  0  0  0
   21.3795  -19.1560  -15.8579 N   0  0  0  0  0  0  0  0  0  0  0  0
   20.1977  -17.1061  -15.7448 C   0  0  0  0  0  0  0  0  0  0  0  0
   20.0942  -15.8420  -15.2200 O   0  0  0  0  0  0  0  0  0  0  0  0
   19.1691  -17.7734  -16.0810 O   0  0  0  0  0  0  0  0  0  0  0  0
  1  5  1  0
  1  2  1  0
  2  3  1  0
  4  3  1  0
  5  4  1  0
  5  6  1  1
  7  6  2  0
  8  6  1  0
  9  8  1  0
  9 10  1  1
 10 11  1  0
 11 12  1  0
 12 13  1  0
 13 14  1  0
 15 22  1  0
 15  9  1  0
 16 15  2  0
 18 17  1  0
 19 18  1  0
 21 20  1  6
 20 19  1  0
 21 23  1  0
 21 22  1  0
 23 24  1  0
 25 23  2  0
M  END
$$$$
