PKM.pdb
     RDKit          3D

 25 25  0  0  1  0  0  0  0  0999 V2000
   26.2434  -12.4093  -16.7308 N   0  0  0  0  0  0  0  0  0  0  0  0
   27.1927  -11.5306  -17.3370 C   0  0  0  0  0  0  0  0  0  0  0  0
   27.1312  -10.2188  -16.5439 C   0  0  0  0  0  0  0  0  0  0  0  0
   26.7070  -10.7805  -15.1794 C   0  0  0  0  0  0  0  0  0  0  0  0
   25.6083  -11.7199  -15.6313 C   0  0  1  0  0  0  0  0  0  0  0  0
   24.4823  -10.8903  -16.1896 C   0  0  0  0  0  0  0  0  0  0  0  0
   24.6851   -9.9716  -17.0262 O   0  0  0  0  0  0  0  0  0  0  0  0
   23.1341  -11.1073  -15.7960 N   0  0  0  0  0  0  0  0  0  0  0  0
   22.0045  -10.4324  -16.3977 C   0  0  1  0  0  0  0  0  0  0  0  0
   20.7690  -11.2717  -16.3775 C   0  0  0  0  0  0  0  0  0  0  0  0
   20.9349  -12.5044  -17.2700 C   0  0  0  0  0  0  0  0  0  0  0  0
   19.6144  -13.2451  -17.1925 C   0  0  0  0  0  0  0  0  0  0  0  0
   19.5757  -14.4459  -18.1019 C   0  0  0  0  0  0  0  0  0  0  0  0
   18.2395  -15.0352  -17.9394 N   0  0  0  0  0  0  0  0  0  0  0  0
   21.8896   -9.1048  -15.8283 C   0  0  0  0  0  0  0  0  0  0  0  0
   22.0858   -8.9632  -14.5932 O   0  0  0  0  0  0  0  0  0  0  0  0
   22.7389   -1.3669  -16.0872 C   0  0  0  0  0  0  0  0  0  0  0  0
   22.9311   -2.9384  -16.9410 S   0  0  0  0  0  0  0  0  0  0  0  0
   22.1385   -4.2459  -16.0000 C   0  0  0  0  0  0  0  0  0  0  0  0
   22.2182   -5.5740  -16.7158 C   0  0  0  0  0  0  0  0  0  0  0  0
   21.5456   -6.6614  -15.9004 C   0  0  2  0  0  0  0  0  0  0  0  0
   21.5694   -7.9298  -16.5559 N   0  0  0  0  0  0  0  0  0  0  0  0
   20.1247   -6.2925  -15.6376 C   0  0  0  0  0  0  0  0  0  0  0  0
   19.8069   -5.4205  -14.6262 O   0  0  0  0  0  0  0  0  0  0  0  0
   19.2287   -6.8096  -16.3765 O   0  0  0  0  0  0  0  0  0  0  0  0
  1  5  1  0
  1  2  1  0
  2  3  1  0
  4  3  1  0
  5  4  1  0
  5  6  1  6
  7  6  2  0
  8  6  1  0
  9  8  1  0
  9 10  1  1
 10 11  1  0
 11 12  1  0
 12 13  1  0
 13 14  1  0
 15 22  1  0
 15  9  1  0
 16 15  2  0
 18 17  1  0
 19 18  1  0
 21 20  1  6
 20 19  1  0
 21 23  1  0
 21 22  1  0
 23 24  1  0
 25 23  2  0
M  END
$$$$
