PKM.pdb
     RDKit          3D

 25 25  0  0  1  0  0  0  0  0999 V2000
   23.6849  -12.1364  -17.0712 N   0  0  0  0  0  0  0  0  0  0  0  0
   23.1127  -12.6160  -18.2891 C   0  0  0  0  0  0  0  0  0  0  0  0
   23.2642  -11.4817  -19.3108 C   0  0  0  0  0  0  0  0  0  0  0  0
   24.5321  -10.8202  -18.7519 C   0  0  0  0  0  0  0  0  0  0  0  0
   24.1664  -10.7907  -17.2825 C   0  0  1  0  0  0  0  0  0  0  0  0
   23.0056   -9.8476  -17.1072 C   0  0  0  0  0  0  0  0  0  0  0  0
   22.8663   -8.8239  -17.8266 O   0  0  0  0  0  0  0  0  0  0  0  0
   22.0103  -10.0709  -16.1176 N   0  0  0  0  0  0  0  0  0  0  0  0
   20.9210   -9.1554  -15.8549 C   0  0  1  0  0  0  0  0  0  0  0  0
   19.7949   -9.8121  -15.1255 C   0  0  0  0  0  0  0  0  0  0  0  0
   18.7337  -10.3176  -16.1061 C   0  0  0  0  0  0  0  0  0  0  0  0
   17.6433  -10.9288  -15.2483 C   0  0  0  0  0  0  0  0  0  0  0  0
   16.5121  -11.4890  -16.0710 C   0  0  0  0  0  0  0  0  0  0  0  0
   15.5477  -12.0432  -15.1108 N   0  0  0  0  0  0  0  0  0  0  0  0
   21.4537   -7.9458  -15.2608 C   0  0  0  0  0  0  0  0  0  0  0  0
   22.1905   -8.0506  -14.2458 O   0  0  0  0  0  0  0  0  0  0  0  0
   24.5687   -1.4201  -16.7759 C   0  0  0  0  0  0  0  0  0  0  0  0
   24.9754   -3.1034  -16.2898 S   0  0  0  0  0  0  0  0  0  0  0  0
   23.6490   -3.7888  -15.2928 C   0  0  0  0  0  0  0  0  0  0  0  0
   23.0154   -4.9884  -15.9576 C   0  0  0  0  0  0  0  0  0  0  0  0
   21.8640   -5.5155  -15.1230 C   0  0  2  0  0  0  0  0  0  0  0  0
   21.2123   -6.6300  -15.7330 N   0  0  0  0  0  0  0  0  0  0  0  0
   20.8560   -4.4370  -14.9113 C   0  0  0  0  0  0  0  0  0  0  0  0
   20.9975   -3.5441  -13.8785 O   0  0  0  0  0  0  0  0  0  0  0  0
   19.8718   -4.3760  -15.7136 O   0  0  0  0  0  0  0  0  0  0  0  0
  1  5  1  0
  1  2  1  0
  2  3  1  0
  4  3  1  0
  5  4  1  0
  5  6  1  6
  7  6  2  0
  8  6  1  0
  9  8  1  0
  9 10  1  1
 10 11  1  0
 11 12  1  0
 12 13  1  0
 13 14  1  0
 15 22  1  0
 15  9  1  0
 16 15  2  0
 18 17  1  0
 19 18  1  0
 21 20  1  6
 20 19  1  0
 21 23  1  0
 21 22  1  0
 23 24  1  0
 25 23  2  0
M  END
$$$$
