PKM.pdb
     RDKit          3D

 25 25  0  0  1  0  0  0  0  0999 V2000
   27.4732  -20.7598  -15.3078 N   0  0  0  0  0  0  0  0  0  0  0  0
   27.1005  -19.6108  -16.0704 C   0  0  0  0  0  0  0  0  0  0  0  0
   27.6959  -18.3996  -15.3410 C   0  0  0  0  0  0  0  0  0  0  0  0
   28.9145  -19.0784  -14.6993 C   0  0  0  0  0  0  0  0  0  0  0  0
   28.2467  -20.3289  -14.1661 C   0  0  1  0  0  0  0  0  0  0  0  0
   27.2866  -19.9208  -13.0801 C   0  0  0  0  0  0  0  0  0  0  0  0
   27.4780  -18.8960  -12.3743 O   0  0  0  0  0  0  0  0  0  0  0  0
   26.1160  -20.6769  -12.8011 N   0  0  0  0  0  0  0  0  0  0  0  0
   25.1993  -20.3679  -11.7251 C   0  0  1  0  0  0  0  0  0  0  0  0
   23.7959  -20.7654  -12.0474 C   0  0  0  0  0  0  0  0  0  0  0  0
   23.1624  -19.7754  -13.0284 C   0  0  0  0  0  0  0  0  0  0  0  0
   21.7527  -20.2806  -13.2649 C   0  0  0  0  0  0  0  0  0  0  0  0
   20.9906  -19.4201  -14.2390 C   0  0  0  0  0  0  0  0  0  0  0  0
   19.6215  -19.9530  -14.2664 N   0  0  0  0  0  0  0  0  0  0  0  0
   25.7424  -20.8762  -10.4815 C   0  0  0  0  0  0  0  0  0  0  0  0
   26.0085  -22.1038  -10.4009 O   0  0  0  0  0  0  0  0  0  0  0  0
   28.7870  -17.8691   -5.5237 C   0  0  0  0  0  0  0  0  0  0  0  0
   28.7751  -19.5804   -4.9701 S   0  0  0  0  0  0  0  0  0  0  0  0
   27.5975  -20.5279   -5.9391 C   0  0  0  0  0  0  0  0  0  0  0  0
   27.2986  -19.8598   -7.2607 C   0  0  0  0  0  0  0  0  0  0  0  0
   26.3815  -20.7266   -8.1019 C   0  0  2  0  0  0  0  0  0  0  0  0
   26.0047  -20.0958   -9.3263 N   0  0  0  0  0  0  0  0  0  0  0  0
   25.1430  -21.0471   -7.3354 C   0  0  0  0  0  0  0  0  0  0  0  0
   23.9439  -20.4733   -7.6774 O   0  0  0  0  0  0  0  0  0  0  0  0
   25.2378  -21.8622   -6.3644 O   0  0  0  0  0  0  0  0  0  0  0  0
  1  5  1  0
  1  2  1  0
  2  3  1  0
  4  3  1  0
  5  4  1  0
  5  6  1  1
  7  6  2  0
  8  6  1  0
  9  8  1  0
  9 10  1  6
 10 11  1  0
 11 12  1  0
 12 13  1  0
 13 14  1  0
 15 22  1  0
 15  9  1  0
 16 15  2  0
 18 17  1  0
 19 18  1  0
 21 20  1  1
 20 19  1  0
 21 23  1  0
 21 22  1  0
 23 24  1  0
 25 23  2  0
M  END
$$$$
