PKM.pdb
     RDKit          3D

 25 25  0  0  1  0  0  0  0  0999 V2000
   15.7400  -12.8273  -14.4469 N   0  0  0  0  0  0  0  0  0  0  0  0
   15.6282  -13.3906  -15.7549 C   0  0  0  0  0  0  0  0  0  0  0  0
   17.0482  -13.4151  -16.3349 C   0  0  0  0  0  0  0  0  0  0  0  0
   17.8415  -13.5496  -15.0272 C   0  0  0  0  0  0  0  0  0  0  0  0
   17.1259  -12.5042  -14.1971 C   0  0  1  0  0  0  0  0  0  0  0  0
   17.4057  -11.1536  -14.8015 C   0  0  0  0  0  0  0  0  0  0  0  0
   18.1498  -11.0170  -15.8078 O   0  0  0  0  0  0  0  0  0  0  0  0
   16.8403   -9.9668  -14.2615 N   0  0  0  0  0  0  0  0  0  0  0  0
   17.2455   -8.6346  -14.6546 C   0  0  1  0  0  0  0  0  0  0  0  0
   16.2697   -7.5939  -14.2117 C   0  0  0  0  0  0  0  0  0  0  0  0
   14.9393   -7.7456  -14.9537 C   0  0  0  0  0  0  0  0  0  0  0  0
   14.0418   -6.6513  -14.4102 C   0  0  0  0  0  0  0  0  0  0  0  0
   12.6869   -6.6401  -15.0694 C   0  0  0  0  0  0  0  0  0  0  0  0
   12.1186   -7.9776  -14.8519 N   0  0  0  0  0  0  0  0  0  0  0  0
   18.6265   -8.4277  -14.2678 C   0  0  0  0  0  0  0  0  0  0  0  0
   18.9570   -8.6628  -13.0762 O   0  0  0  0  0  0  0  0  0  0  0  0
   23.7624  -11.2845  -15.9110 C   0  0  0  0  0  0  0  0  0  0  0  0
   24.1356  -10.4671  -14.3528 S   0  0  0  0  0  0  0  0  0  0  0  0
   23.1767   -8.9559  -14.2105 C   0  0  0  0  0  0  0  0  0  0  0  0
   21.7498   -9.1570  -14.6641 C   0  0  0  0  0  0  0  0  0  0  0  0
   20.9942   -7.8422  -14.6488 C   0  0  2  0  0  0  0  0  0  0  0  0
   19.6568   -7.9749  -15.1314 N   0  0  0  0  0  0  0  0  0  0  0  0
   21.7039   -6.8397  -15.4944 C   0  0  0  0  0  0  0  0  0  0  0  0
   22.8223   -6.1980  -15.0236 O   0  0  0  0  0  0  0  0  0  0  0  0
   21.2401   -6.6038  -16.6544 O   0  0  0  0  0  0  0  0  0  0  0  0
  1  5  1  0
  1  2  1  0
  2  3  1  0
  4  3  1  0
  5  4  1  0
  5  6  1  6
  7  6  2  0
  8  6  1  0
  9  8  1  0
  9 10  1  1
 10 11  1  0
 11 12  1  0
 12 13  1  0
 13 14  1  0
 15 22  1  0
 15  9  1  0
 16 15  2  0
 18 17  1  0
 19 18  1  0
 21 20  1  6
 20 19  1  0
 21 23  1  0
 21 22  1  0
 23 24  1  0
 25 23  2  0
M  END
$$$$
