PKM.pdb
     RDKit          3D

 25 25  0  0  1  0  0  0  0  0999 V2000
   18.9955  -12.8488  -17.4161 N   0  0  0  0  0  0  0  0  0  0  0  0
   17.6296  -13.2599  -17.4936 C   0  0  0  0  0  0  0  0  0  0  0  0
   16.9039  -12.1866  -18.3150 C   0  0  0  0  0  0  0  0  0  0  0  0
   18.0748  -11.7196  -19.1916 C   0  0  0  0  0  0  0  0  0  0  0  0
   19.1459  -11.6002  -18.1274 C   0  0  1  0  0  0  0  0  0  0  0  0
   18.7578  -10.4831  -17.1950 C   0  0  0  0  0  0  0  0  0  0  0  0
   18.5733   -9.3077  -17.6065 O   0  0  0  0  0  0  0  0  0  0  0  0
   18.5815  -10.7056  -15.8025 N   0  0  0  0  0  0  0  0  0  0  0  0
   18.2888   -9.6537  -14.8531 C   0  0  1  0  0  0  0  0  0  0  0  0
   17.7189  -10.1857  -13.5788 C   0  0  0  0  0  0  0  0  0  0  0  0
   16.8469   -9.1317  -12.8917 C   0  0  0  0  0  0  0  0  0  0  0  0
   16.4344   -9.7435  -11.5674 C   0  0  0  0  0  0  0  0  0  0  0  0
   15.4482   -8.8835  -10.8203 C   0  0  0  0  0  0  0  0  0  0  0  0
   15.2327   -9.5442   -9.5256 N   0  0  0  0  0  0  0  0  0  0  0  0
   19.4481   -8.7931  -14.7295 C   0  0  0  0  0  0  0  0  0  0  0  0
   20.5494   -9.3129  -14.4115 O   0  0  0  0  0  0  0  0  0  0  0  0
   25.4118   -5.6922  -17.4299 C   0  0  0  0  0  0  0  0  0  0  0  0
   23.9042   -6.6708  -17.4991 S   0  0  0  0  0  0  0  0  0  0  0  0
   22.7902   -6.1708  -16.1829 C   0  0  0  0  0  0  0  0  0  0  0  0
   21.5465   -7.0278  -16.1505 C   0  0  0  0  0  0  0  0  0  0  0  0
   20.6796   -6.6662  -14.9598 C   0  0  2  0  0  0  0  0  0  0  0  0
   19.4490   -7.3902  -14.9398 N   0  0  0  0  0  0  0  0  0  0  0  0
   20.3690   -5.2078  -14.9831 C   0  0  0  0  0  0  0  0  0  0  0  0
   19.0952   -4.7709  -15.2488 O   0  0  0  0  0  0  0  0  0  0  0  0
   21.3170   -4.3932  -14.7503 O   0  0  0  0  0  0  0  0  0  0  0  0
  1  5  1  0
  1  2  1  0
  2  3  1  0
  4  3  1  0
  5  4  1  0
  5  6  1  1
  7  6  2  0
  8  6  1  0
  9  8  1  0
  9 10  1  1
 10 11  1  0
 11 12  1  0
 12 13  1  0
 13 14  1  0
 15 22  1  0
 15  9  1  0
 16 15  2  0
 18 17  1  0
 19 18  1  0
 21 20  1  6
 20 19  1  0
 21 23  1  0
 21 22  1  0
 23 24  1  0
 25 23  2  0
M  END
$$$$
