PKM.pdb
     RDKit          3D

 25 25  0  0  1  0  0  0  0  0999 V2000
   27.3101  -18.7991  -16.5653 N   0  0  0  0  0  0  0  0  0  0  0  0
   26.7493  -17.6106  -17.1256 C   0  0  0  0  0  0  0  0  0  0  0  0
   27.0079  -16.4924  -16.1076 C   0  0  0  0  0  0  0  0  0  0  0  0
   28.2963  -17.0356  -15.4733 C   0  0  0  0  0  0  0  0  0  0  0  0
   27.8842  -18.4799  -15.2785 C   0  0  1  0  0  0  0  0  0  0  0  0
   26.7813  -18.5185  -14.2538 C   0  0  0  0  0  0  0  0  0  0  0  0
   26.6365  -17.6061  -13.3984 O   0  0  0  0  0  0  0  0  0  0  0  0
   25.8499  -19.5908  -14.2052 N   0  0  0  0  0  0  0  0  0  0  0  0
   24.8488  -19.7373  -13.1709 C   0  0  1  0  0  0  0  0  0  0  0  0
   23.5877  -20.3484  -13.6881 C   0  0  0  0  0  0  0  0  0  0  0  0
   22.5137  -20.3833  -12.5978 C   0  0  0  0  0  0  0  0  0  0  0  0
   21.3022  -21.0312  -13.2387 C   0  0  0  0  0  0  0  0  0  0  0  0
   20.1253  -21.1013  -12.3006 C   0  0  0  0  0  0  0  0  0  0  0  0
   20.4659  -22.1198  -11.2976 N   0  0  0  0  0  0  0  0  0  0  0  0
   25.4500  -20.3799  -12.0195 C   0  0  0  0  0  0  0  0  0  0  0  0
   26.0193  -21.4906  -12.1822 O   0  0  0  0  0  0  0  0  0  0  0  0
   27.6891  -17.8750   -6.4721 C   0  0  0  0  0  0  0  0  0  0  0  0
   27.5044  -19.5848   -5.9449 S   0  0  0  0  0  0  0  0  0  0  0  0
   26.9493  -20.5926   -7.3231 C   0  0  0  0  0  0  0  0  0  0  0  0
   26.4672  -19.7429   -8.4755 C   0  0  0  0  0  0  0  0  0  0  0  0
   26.0036  -20.6162   -9.6255 C   0  0  2  0  0  0  0  0  0  0  0  0
   25.4523  -19.8560  -10.7013 N   0  0  0  0  0  0  0  0  0  0  0  0
   24.9682  -21.5770   -9.1472 C   0  0  0  0  0  0  0  0  0  0  0  0
   25.3338  -22.7937   -8.6277 O   0  0  0  0  0  0  0  0  0  0  0  0
   23.7481  -21.2313   -9.2373 O   0  0  0  0  0  0  0  0  0  0  0  0
  1  5  1  0
  1  2  1  0
  2  3  1  0
  4  3  1  0
  5  4  1  0
  5  6  1  1
  7  6  2  0
  8  6  1  0
  9  8  1  0
  9 10  1  6
 10 11  1  0
 11 12  1  0
 12 13  1  0
 13 14  1  0
 15 22  1  0
 15  9  1  0
 16 15  2  0
 18 17  1  0
 19 18  1  0
 21 20  1  1
 20 19  1  0
 21 23  1  0
 21 22  1  0
 23 24  1  0
 25 23  2  0
M  END
$$$$
