PKM.pdb
     RDKit          3D

 25 25  0  0  1  0  0  0  0  0999 V2000
   28.4623  -20.2234  -16.1301 N   0  0  0  0  0  0  0  0  0  0  0  0
   27.7749  -19.4522  -17.1168 C   0  0  0  0  0  0  0  0  0  0  0  0
   27.7281  -18.0149  -16.5827 C   0  0  0  0  0  0  0  0  0  0  0  0
   29.0118  -18.0277  -15.7403 C   0  0  0  0  0  0  0  0  0  0  0  0
   28.8293  -19.3555  -15.0349 C   0  0  1  0  0  0  0  0  0  0  0  0
   27.6426  -19.2386  -14.1152 C   0  0  0  0  0  0  0  0  0  0  0  0
   27.4152  -18.1921  -13.4533 O   0  0  0  0  0  0  0  0  0  0  0  0
   26.7216  -20.3085  -13.9517 N   0  0  0  0  0  0  0  0  0  0  0  0
   25.5501  -20.2360  -13.1056 C   0  0  1  0  0  0  0  0  0  0  0  0
   24.3442  -20.8278  -13.7590 C   0  0  0  0  0  0  0  0  0  0  0  0
   23.1152  -20.6917  -12.8565 C   0  0  0  0  0  0  0  0  0  0  0  0
   21.9689  -21.3111  -13.6315 C   0  0  0  0  0  0  0  0  0  0  0  0
   21.0264  -22.0820  -12.7441 C   0  0  0  0  0  0  0  0  0  0  0  0
   19.8703  -22.4272  -13.5827 N   0  0  0  0  0  0  0  0  0  0  0  0
   25.8848  -20.7454  -11.7910 C   0  0  0  0  0  0  0  0  0  0  0  0
   26.4834  -21.8497  -11.7105 O   0  0  0  0  0  0  0  0  0  0  0  0
   29.5276  -19.0995   -6.7374 C   0  0  0  0  0  0  0  0  0  0  0  0
   27.9444  -19.4948   -5.9807 S   0  0  0  0  0  0  0  0  0  0  0  0
   26.9789  -20.5269   -7.0878 C   0  0  0  0  0  0  0  0  0  0  0  0
   26.7216  -19.8388   -8.4080 C   0  0  0  0  0  0  0  0  0  0  0  0
   25.9010  -20.7277   -9.3226 C   0  0  2  0  0  0  0  0  0  0  0  0
   25.5907  -20.0955  -10.5648 N   0  0  0  0  0  0  0  0  0  0  0  0
   24.6231  -21.1031   -8.6518 C   0  0  0  0  0  0  0  0  0  0  0  0
   23.4191  -20.6895   -9.1651 O   0  0  0  0  0  0  0  0  0  0  0  0
   24.6892  -21.8124   -7.5988 O   0  0  0  0  0  0  0  0  0  0  0  0
  1  5  1  0
  1  2  1  0
  2  3  1  0
  4  3  1  0
  5  4  1  0
  5  6  1  1
  7  6  2  0
  8  6  1  0
  9  8  1  0
  9 10  1  6
 10 11  1  0
 11 12  1  0
 12 13  1  0
 13 14  1  0
 15 22  1  0
 15  9  1  0
 16 15  2  0
 18 17  1  0
 19 18  1  0
 21 20  1  1
 20 19  1  0
 21 23  1  0
 21 22  1  0
 23 24  1  0
 25 23  2  0
M  END
$$$$
