PKM.pdb
     RDKit          3D

 25 25  0  0  1  0  0  0  0  0999 V2000
   28.1417  -20.4472  -15.7048 N   0  0  0  0  0  0  0  0  0  0  0  0
   27.4337  -19.7322  -16.7188 C   0  0  0  0  0  0  0  0  0  0  0  0
   27.3911  -18.2683  -16.2621 C   0  0  0  0  0  0  0  0  0  0  0  0
   28.6897  -18.2321  -15.4436 C   0  0  0  0  0  0  0  0  0  0  0  0
   28.5250  -19.5206  -14.6646 C   0  0  1  0  0  0  0  0  0  0  0  0
   27.3545  -19.3577  -13.7312 C   0  0  0  0  0  0  0  0  0  0  0  0
   27.1559  -18.2901  -13.0943 O   0  0  0  0  0  0  0  0  0  0  0  0
   26.4170  -20.4058  -13.5259 N   0  0  0  0  0  0  0  0  0  0  0  0
   25.2674  -20.2941  -12.6544 C   0  0  1  0  0  0  0  0  0  0  0  0
   24.0221  -20.8172  -13.2925 C   0  0  0  0  0  0  0  0  0  0  0  0
   22.8193  -20.6405  -12.3622 C   0  0  0  0  0  0  0  0  0  0  0  0
   21.6226  -21.1503  -13.1410 C   0  0  0  0  0  0  0  0  0  0  0  0
   20.3227  -20.9099  -12.4180 C   0  0  0  0  0  0  0  0  0  0  0  0
   19.2703  -21.4660  -13.2796 N   0  0  0  0  0  0  0  0  0  0  0  0
   25.6040  -20.8425  -11.3560 C   0  0  0  0  0  0  0  0  0  0  0  0
   25.9921  -22.0382  -11.2926 O   0  0  0  0  0  0  0  0  0  0  0  0
   27.9806  -17.7757   -6.3855 C   0  0  0  0  0  0  0  0  0  0  0  0
   28.6862  -19.4300   -6.4107 S   0  0  0  0  0  0  0  0  0  0  0  0
   27.8331  -20.4397   -7.6256 C   0  0  0  0  0  0  0  0  0  0  0  0
   26.4177  -19.9621   -7.8515 C   0  0  0  0  0  0  0  0  0  0  0  0
   25.7235  -20.8215   -8.8905 C   0  0  2  0  0  0  0  0  0  0  0  0
   25.5328  -20.1355  -10.1282 N   0  0  0  0  0  0  0  0  0  0  0  0
   24.3908  -21.2555   -8.3811 C   0  0  0  0  0  0  0  0  0  0  0  0
   24.2987  -22.1641   -7.3564 O   0  0  0  0  0  0  0  0  0  0  0  0
   23.3547  -20.7584   -8.9248 O   0  0  0  0  0  0  0  0  0  0  0  0
  1  5  1  0
  1  2  1  0
  2  3  1  0
  4  3  1  0
  5  4  1  0
  5  6  1  1
  7  6  2  0
  8  6  1  0
  9  8  1  0
  9 10  1  6
 10 11  1  0
 11 12  1  0
 12 13  1  0
 13 14  1  0
 15 22  1  0
 15  9  1  0
 16 15  2  0
 18 17  1  0
 19 18  1  0
 21 20  1  1
 20 19  1  0
 21 23  1  0
 21 22  1  0
 23 24  1  0
 25 23  2  0
M  END
$$$$
