PKM.pdb
     RDKit          3D

 25 25  0  0  1  0  0  0  0  0999 V2000
   28.7875  -21.3627  -16.2248 N   0  0  0  0  0  0  0  0  0  0  0  0
   28.1207  -21.2857  -17.4858 C   0  0  0  0  0  0  0  0  0  0  0  0
   27.2144  -20.0498  -17.4177 C   0  0  0  0  0  0  0  0  0  0  0  0
   28.0328  -19.2035  -16.4321 C   0  0  0  0  0  0  0  0  0  0  0  0
   28.3444  -20.2645  -15.3971 C   0  0  1  0  0  0  0  0  0  0  0  0
   27.0526  -20.6697  -14.7376 C   0  0  0  0  0  0  0  0  0  0  0  0
   26.3181  -21.5743  -15.2144 O   0  0  0  0  0  0  0  0  0  0  0  0
   26.6019  -20.0471  -13.5423 N   0  0  0  0  0  0  0  0  0  0  0  0
   25.4213  -20.4638  -12.8170 C   0  0  1  0  0  0  0  0  0  0  0  0
   25.4098  -19.9503  -11.4143 C   0  0  0  0  0  0  0  0  0  0  0  0
   24.0299  -20.1376  -10.7783 C   0  0  0  0  0  0  0  0  0  0  0  0
   24.2723  -20.9128   -9.4982 C   0  0  0  0  0  0  0  0  0  0  0  0
   22.9910  -21.2537   -8.7824 C   0  0  0  0  0  0  0  0  0  0  0  0
   23.3888  -21.8911   -7.5196 N   0  0  0  0  0  0  0  0  0  0  0  0
   24.2486  -20.1746  -13.6176 C   0  0  0  0  0  0  0  0  0  0  0  0
   24.1464  -19.0346  -14.1410 O   0  0  0  0  0  0  0  0  0  0  0  0
   20.9642  -23.9989  -17.6103 C   0  0  0  0  0  0  0  0  0  0  0  0
   19.7316  -22.7099  -17.3775 S   0  0  0  0  0  0  0  0  0  0  0  0
   20.4322  -21.3596  -16.4240 C   0  0  0  0  0  0  0  0  0  0  0  0
   21.5708  -21.8283  -15.5485 C   0  0  0  0  0  0  0  0  0  0  0  0
   22.0841  -20.6914  -14.6859 C   0  0  2  0  0  0  0  0  0  0  0  0
   23.1868  -21.0817  -13.8669 N   0  0  0  0  0  0  0  0  0  0  0  0
   20.9919  -20.1933  -13.8010 C   0  0  0  0  0  0  0  0  0  0  0  0
   20.0027  -19.3848  -14.3028 O   0  0  0  0  0  0  0  0  0  0  0  0
   21.0106  -20.5413  -12.5784 O   0  0  0  0  0  0  0  0  0  0  0  0
  1  5  1  0
  1  2  1  0
  2  3  1  0
  4  3  1  0
  5  4  1  0
  5  6  1  6
  7  6  2  0
  8  6  1  0
  9  8  1  0
  9 10  1  1
 10 11  1  0
 11 12  1  0
 12 13  1  0
 13 14  1  0
 15 22  1  0
 15  9  1  0
 16 15  2  0
 18 17  1  0
 19 18  1  0
 21 20  1  1
 20 19  1  0
 21 23  1  0
 21 22  1  0
 23 24  1  0
 25 23  2  0
M  END
$$$$
