PKM.pdb
     RDKit          3D

 25 25  0  0  1  0  0  0  0  0999 V2000
   28.2065  -18.9121  -17.6822 N   0  0  0  0  0  0  0  0  0  0  0  0
   27.9738  -18.1542  -18.8705 C   0  0  0  0  0  0  0  0  0  0  0  0
   27.5789  -16.7449  -18.4107 C   0  0  0  0  0  0  0  0  0  0  0  0
   28.3471  -16.6997  -17.0820 C   0  0  0  0  0  0  0  0  0  0  0  0
   27.9749  -18.0627  -16.5366 C   0  0  1  0  0  0  0  0  0  0  0  0
   26.4971  -18.0641  -16.2468 C   0  0  0  0  0  0  0  0  0  0  0  0
   25.9475  -17.1406  -15.5911 O   0  0  0  0  0  0  0  0  0  0  0  0
   25.6521  -19.1122  -16.7019 N   0  0  0  0  0  0  0  0  0  0  0  0
   24.2490  -19.2153  -16.3637 C   0  0  1  0  0  0  0  0  0  0  0  0
   23.4116  -19.5996  -17.5395 C   0  0  0  0  0  0  0  0  0  0  0  0
   23.0450  -18.3679  -18.3713 C   0  0  0  0  0  0  0  0  0  0  0  0
   22.2569  -18.8943  -19.5546 C   0  0  0  0  0  0  0  0  0  0  0  0
   21.8541  -17.7997  -20.5086 C   0  0  0  0  0  0  0  0  0  0  0  0
   21.1027  -18.4572  -21.5867 N   0  0  0  0  0  0  0  0  0  0  0  0
   24.1082  -20.0360  -15.1778 C   0  0  0  0  0  0  0  0  0  0  0  0
   24.9661  -20.9317  -14.9634 O   0  0  0  0  0  0  0  0  0  0  0  0
   27.1555  -21.0873  -10.6175 C   0  0  0  0  0  0  0  0  0  0  0  0
   25.5916  -20.8037   -9.7753 S   0  0  0  0  0  0  0  0  0  0  0  0
   24.2264  -21.1999  -10.8720 C   0  0  0  0  0  0  0  0  0  0  0  0
   24.2608  -20.3625  -12.1290 C   0  0  0  0  0  0  0  0  0  0  0  0
   23.0902  -20.7041  -13.0305 C   0  0  2  0  0  0  0  0  0  0  0  0
   23.0684  -19.9151  -14.2205 N   0  0  0  0  0  0  0  0  0  0  0  0
   21.8080  -20.4911  -12.2993 C   0  0  0  0  0  0  0  0  0  0  0  0
   21.4616  -21.3041  -11.2490 O   0  0  0  0  0  0  0  0  0  0  0  0
   21.0562  -19.5394  -12.6803 O   0  0  0  0  0  0  0  0  0  0  0  0
  1  5  1  0
  1  2  1  0
  2  3  1  0
  4  3  1  0
  5  4  1  0
  5  6  1  6
  7  6  2  0
  8  6  1  0
  9  8  1  0
  9 10  1  6
 10 11  1  0
 11 12  1  0
 12 13  1  0
 13 14  1  0
 15 22  1  0
 15  9  1  0
 16 15  2  0
 18 17  1  0
 19 18  1  0
 21 20  1  1
 20 19  1  0
 21 23  1  0
 21 22  1  0
 23 24  1  0
 25 23  2  0
M  END
$$$$
