PKM.pdb
     RDKit          3D

 25 25  0  0  1  0  0  0  0  0999 V2000
   27.4478  -20.2758  -15.5802 N   0  0  0  0  0  0  0  0  0  0  0  0
   26.8721  -19.2849  -16.4330 C   0  0  0  0  0  0  0  0  0  0  0  0
   27.2530  -17.9262  -15.8309 C   0  0  0  0  0  0  0  0  0  0  0  0
   28.5779  -18.3205  -15.1626 C   0  0  0  0  0  0  0  0  0  0  0  0
   28.1448  -19.6129  -14.5022 C   0  0  1  0  0  0  0  0  0  0  0  0
   27.1386  -19.2786  -13.4328 C   0  0  0  0  0  0  0  0  0  0  0  0
   26.9820  -18.1025  -13.0117 O   0  0  0  0  0  0  0  0  0  0  0  0
   26.3167  -20.2794  -12.8476 N   0  0  0  0  0  0  0  0  0  0  0  0
   25.4342  -20.0380  -11.7266 C   0  0  1  0  0  0  0  0  0  0  0  0
   24.0116  -20.3611  -12.0481 C   0  0  0  0  0  0  0  0  0  0  0  0
   23.9183  -21.6567  -12.8582 C   0  0  0  0  0  0  0  0  0  0  0  0
   22.8398  -21.4128  -13.8954 C   0  0  0  0  0  0  0  0  0  0  0  0
   22.6634  -22.5844  -14.8263 C   0  0  0  0  0  0  0  0  0  0  0  0
   21.6281  -22.1850  -15.7895 N   0  0  0  0  0  0  0  0  0  0  0  0
   25.9867  -20.6710  -10.5460 C   0  0  0  0  0  0  0  0  0  0  0  0
   26.1217  -21.9224  -10.5442 O   0  0  0  0  0  0  0  0  0  0  0  0
   29.6723  -18.9687   -5.3714 C   0  0  0  0  0  0  0  0  0  0  0  0
   28.3303  -19.8501   -4.5604 S   0  0  0  0  0  0  0  0  0  0  0  0
   27.3235  -20.6915   -5.7858 C   0  0  0  0  0  0  0  0  0  0  0  0
   27.2481  -19.9098   -7.0765 C   0  0  0  0  0  0  0  0  0  0  0  0
   26.4769  -20.6860   -8.1267 C   0  0  2  0  0  0  0  0  0  0  0  0
   26.3959  -19.9898   -9.3708 N   0  0  0  0  0  0  0  0  0  0  0  0
   25.0914  -20.9531   -7.6440 C   0  0  0  0  0  0  0  0  0  0  0  0
   24.8511  -21.9527   -6.7346 O   0  0  0  0  0  0  0  0  0  0  0  0
   24.1517  -20.2289   -8.1008 O   0  0  0  0  0  0  0  0  0  0  0  0
  1  5  1  0
  1  2  1  0
  2  3  1  0
  4  3  1  0
  5  4  1  0
  5  6  1  1
  7  6  2  0
  8  6  1  0
  9  8  1  0
  9 10  1  6
 10 11  1  0
 11 12  1  0
 12 13  1  0
 13 14  1  0
 15 22  1  0
 15  9  1  0
 16 15  2  0
 18 17  1  0
 19 18  1  0
 21 20  1  1
 20 19  1  0
 21 23  1  0
 21 22  1  0
 23 24  1  0
 25 23  2  0
M  END
$$$$
