PKM.pdb
     RDKit          3D

 25 25  0  0  1  0  0  0  0  0999 V2000
   25.6617  -12.1668  -16.9745 N   0  0  0  0  0  0  0  0  0  0  0  0
   26.8212  -11.4364  -17.3778 C   0  0  0  0  0  0  0  0  0  0  0  0
   27.0350  -10.3496  -16.3164 C   0  0  0  0  0  0  0  0  0  0  0  0
   26.4232  -11.0696  -15.1061 C   0  0  0  0  0  0  0  0  0  0  0  0
   25.1560  -11.5952  -15.7478 C   0  0  1  0  0  0  0  0  0  0  0  0
   24.2884  -10.4174  -16.1055 C   0  0  0  0  0  0  0  0  0  0  0  0
   24.4234   -9.7985  -17.1935 O   0  0  0  0  0  0  0  0  0  0  0  0
   23.2736   -9.9488  -15.2277 N   0  0  0  0  0  0  0  0  0  0  0  0
   22.2269   -9.0336  -15.6280 C   0  0  1  0  0  0  0  0  0  0  0  0
   20.8737   -9.5032  -15.2039 C   0  0  0  0  0  0  0  0  0  0  0  0
   20.2945  -10.4854  -16.2254 C   0  0  0  0  0  0  0  0  0  0  0  0
   18.8934  -10.8004  -15.7397 C   0  0  0  0  0  0  0  0  0  0  0  0
   18.2198  -11.8569  -16.5767 C   0  0  0  0  0  0  0  0  0  0  0  0
   16.8953  -12.0671  -15.9761 N   0  0  0  0  0  0  0  0  0  0  0  0
   22.5960   -7.6904  -15.2290 C   0  0  0  0  0  0  0  0  0  0  0  0
   23.1416   -7.5270  -14.1065 O   0  0  0  0  0  0  0  0  0  0  0  0
   23.0692   -1.9571  -18.7321 C   0  0  0  0  0  0  0  0  0  0  0  0
   24.1866   -1.8370  -17.3276 S   0  0  0  0  0  0  0  0  0  0  0  0
   23.6745   -2.9787  -16.0401 C   0  0  0  0  0  0  0  0  0  0  0  0
   23.2576   -4.3131  -16.6127 C   0  0  0  0  0  0  0  0  0  0  0  0
   22.7942   -5.2460  -15.5104 C   0  0  2  0  0  0  0  0  0  0  0  0
   22.3920   -6.5226  -16.0080 N   0  0  0  0  0  0  0  0  0  0  0  0
   21.6427   -4.6386  -14.7830 C   0  0  0  0  0  0  0  0  0  0  0  0
   21.8490   -3.9009  -13.6440 O   0  0  0  0  0  0  0  0  0  0  0  0
   20.4760   -4.8273  -15.2515 O   0  0  0  0  0  0  0  0  0  0  0  0
  1  5  1  0
  1  2  1  0
  2  3  1  0
  4  3  1  0
  5  4  1  0
  5  6  1  6
  7  6  2  0
  8  6  1  0
  9  8  1  0
  9 10  1  1
 10 11  1  0
 11 12  1  0
 12 13  1  0
 13 14  1  0
 15 22  1  0
 15  9  1  0
 16 15  2  0
 18 17  1  0
 19 18  1  0
 21 20  1  6
 20 19  1  0
 21 23  1  0
 21 22  1  0
 23 24  1  0
 25 23  2  0
M  END
$$$$
