PKM.pdb
     RDKit          3D

 25 25  0  0  1  0  0  0  0  0999 V2000
   28.6737  -20.0890  -15.3808 N   0  0  0  0  0  0  0  0  0  0  0  0
   27.8025  -20.1619  -16.5105 C   0  0  0  0  0  0  0  0  0  0  0  0
   26.9659  -18.8761  -16.4915 C   0  0  0  0  0  0  0  0  0  0  0  0
   27.9715  -17.9432  -15.8017 C   0  0  0  0  0  0  0  0  0  0  0  0
   28.4192  -18.8532  -14.6768 C   0  0  1  0  0  0  0  0  0  0  0  0
   27.2470  -19.0736  -13.7574 C   0  0  0  0  0  0  0  0  0  0  0  0
   26.5731  -18.1145  -13.2981 O   0  0  0  0  0  0  0  0  0  0  0  0
   26.8465  -20.3794  -13.3647 N   0  0  0  0  0  0  0  0  0  0  0  0
   25.7149  -20.6460  -12.5033 C   0  0  1  0  0  0  0  0  0  0  0  0
   24.8111  -21.6936  -13.0664 C   0  0  0  0  0  0  0  0  0  0  0  0
   23.6484  -21.0548  -13.8303 C   0  0  0  0  0  0  0  0  0  0  0  0
   22.3887  -21.6068  -13.1925 C   0  0  0  0  0  0  0  0  0  0  0  0
   21.1370  -21.0297  -13.8012 C   0  0  0  0  0  0  0  0  0  0  0  0
   20.0196  -21.5497  -13.0011 N   0  0  0  0  0  0  0  0  0  0  0  0
   26.1912  -20.8657  -11.1525 C   0  0  0  0  0  0  0  0  0  0  0  0
   27.0058  -21.8033  -10.9492 O   0  0  0  0  0  0  0  0  0  0  0  0
   29.4828  -19.7609   -4.7797 C   0  0  0  0  0  0  0  0  0  0  0  0
   28.0624  -18.9216   -5.4961 S   0  0  0  0  0  0  0  0  0  0  0  0
   27.1010  -20.0773   -6.4777 C   0  0  0  0  0  0  0  0  0  0  0  0
   26.8453  -19.5476   -7.8693 C   0  0  0  0  0  0  0  0  0  0  0  0
   26.1019  -20.5734   -8.7030 C   0  0  2  0  0  0  0  0  0  0  0  0
   25.8119  -20.1015  -10.0191 N   0  0  0  0  0  0  0  0  0  0  0  0
   24.8172  -20.9334   -8.0368 C   0  0  0  0  0  0  0  0  0  0  0  0
   24.8167  -21.6403   -6.8602 O   0  0  0  0  0  0  0  0  0  0  0  0
   23.7346  -20.5655   -8.5926 O   0  0  0  0  0  0  0  0  0  0  0  0
  1  5  1  0
  1  2  1  0
  2  3  1  0
  4  3  1  0
  5  4  1  0
  5  6  1  1
  7  6  2  0
  8  6  1  0
  9  8  1  0
  9 10  1  6
 10 11  1  0
 11 12  1  0
 12 13  1  0
 13 14  1  0
 15 22  1  0
 15  9  1  0
 16 15  2  0
 18 17  1  0
 19 18  1  0
 21 20  1  1
 20 19  1  0
 21 23  1  0
 21 22  1  0
 23 24  1  0
 25 23  2  0
M  END
$$$$
