NSR.pdb
     RDKit          3D

 26 25  0  0  1  0  0  0  0  0999 V2000
    9.6419  -17.2183   13.6431 N   0  0  0  0  0  0  0  0  0  0  0  0
    9.9419  -15.8415   13.6683 C   0  0  0  0  0  0  0  0  0  0  0  0
   10.3795  -15.2812   12.6210 O   0  0  0  0  0  0  0  0  0  0  0  0
    9.7808  -14.9641   14.8648 C   0  0  0  0  0  0  0  0  0  0  0  0
    9.3128  -15.7583   16.0521 C   0  0  2  0  0  0  0  0  0  0  0  0
    7.9070  -16.0501   15.9377 N   0  0  0  0  0  0  0  0  0  0  0  0
    9.6358  -15.0294   17.3004 C   0  0  0  0  0  0  0  0  0  0  0  0
   10.8455  -14.9118   17.6180 O   0  0  0  0  0  0  0  0  0  0  0  0
    6.7231  -14.1723   20.2413 O   0  0  0  0  0  0  0  0  0  0  0  0
    7.7905  -13.2698   20.0645 C   0  0  0  0  0  0  0  0  0  0  0  0
    8.9819  -13.9615   19.4894 C   0  0  2  0  0  0  0  0  0  0  0  0
    8.6661  -14.4537   18.1637 N   0  0  0  0  0  0  0  0  0  0  0  0
    9.5008  -15.0422   20.3660 C   0  0  0  0  0  0  0  0  0  0  0  0
    9.1748  -16.2301   20.1129 O   0  0  0  0  0  0  0  0  0  0  0  0
   16.6558  -13.4060   20.9703 N   0  0  0  0  0  0  0  0  0  0  0  0
   16.3901  -14.3951   19.9832 C   0  0  0  0  0  0  0  0  0  0  0  0
   17.0132  -14.4216   18.8559 N   0  0  0  0  0  0  0  0  0  0  0  0
   15.3921  -15.3704   20.2953 N   0  0  0  0  0  0  0  0  0  0  0  0
   14.6064  -15.2573   21.4827 C   0  0  0  0  0  0  0  0  0  0  0  0
   13.1780  -15.7696   21.2370 C   0  0  0  0  0  0  0  0  0  0  0  0
   12.3717  -15.4847   22.4649 C   0  0  0  0  0  0  0  0  0  0  0  0
   10.9049  -15.8271   22.3253 C   0  0  2  0  0  0  0  0  0  0  0  0
   10.3411  -14.7937   21.4659 N   0  0  0  0  0  0  0  0  0  0  0  0
   10.1971  -15.8561   23.6294 C   0  0  0  0  0  0  0  0  0  0  0  0
   10.4748  -16.7485   24.4947 O   0  0  0  0  0  0  0  0  0  0  0  0
    9.2173  -14.9510   23.9966 O   0  0  0  0  0  0  0  0  0  0  0  0
  1  2  1  0
  2  3  2  0
  4  5  1  0
  4  2  1  0
  5  6  1  6
  7  5  1  0
  8  7  2  0
  9 10  1  0
 11 10  1  1
 11 13  1  0
 11 12  1  0
 12  7  1  0
 13 14  2  0
 16 15  1  0
 16 17  2  0
 18 16  1  0
 19 18  1  0
 20 19  1  0
 21 20  1  0
 22 21  1  1
 23 22  1  0
 23 13  1  0
 24 22  1  0
 24 26  1  0
 25 24  2  0
M  END
$$$$
