NSR.pdb
     RDKit          3D

 26 25  0  0  1  0  0  0  0  0999 V2000
    7.7793  -13.8428   15.0226 N   0  0  0  0  0  0  0  0  0  0  0  0
    7.8514  -14.3512   16.3350 C   0  0  0  0  0  0  0  0  0  0  0  0
    8.3183  -15.5119   16.5274 O   0  0  0  0  0  0  0  0  0  0  0  0
    7.4091  -13.6105   17.5528 C   0  0  0  0  0  0  0  0  0  0  0  0
    8.5367  -13.4779   18.5379 C   0  0  2  0  0  0  0  0  0  0  0  0
    9.7955  -13.3654   17.8470 N   0  0  0  0  0  0  0  0  0  0  0  0
    8.5134  -14.6194   19.4815 C   0  0  0  0  0  0  0  0  0  0  0  0
    7.5052  -14.7542   20.2187 O   0  0  0  0  0  0  0  0  0  0  0  0
   10.7138  -18.5576   21.3653 O   0  0  0  0  0  0  0  0  0  0  0  0
   10.7238  -17.5133   20.4196 C   0  0  0  0  0  0  0  0  0  0  0  0
    9.6019  -16.5604   20.6680 C   0  0  2  0  0  0  0  0  0  0  0  0
    9.5580  -15.5733   19.6082 N   0  0  0  0  0  0  0  0  0  0  0  0
    9.6716  -15.9233   22.0077 C   0  0  0  0  0  0  0  0  0  0  0  0
    9.4608  -14.6868   22.0970 O   0  0  0  0  0  0  0  0  0  0  0  0
    5.1454  -12.0822   25.9317 N   0  0  0  0  0  0  0  0  0  0  0  0
    6.4879  -12.0504   26.4009 C   0  0  0  0  0  0  0  0  0  0  0  0
    7.0357  -10.9681   26.8346 N   0  0  0  0  0  0  0  0  0  0  0  0
    7.2138  -13.2819   26.3717 N   0  0  0  0  0  0  0  0  0  0  0  0
    6.6576  -14.4433   25.7537 C   0  0  0  0  0  0  0  0  0  0  0  0
    7.6081  -15.6425   25.9017 C   0  0  0  0  0  0  0  0  0  0  0  0
    8.1546  -15.9636   24.5463 C   0  0  0  0  0  0  0  0  0  0  0  0
    9.6505  -16.1885   24.5287 C   0  0  2  0  0  0  0  0  0  0  0  0
    9.9627  -16.6437   23.1798 N   0  0  0  0  0  0  0  0  0  0  0  0
   10.0900  -17.1946   25.5273 C   0  0  0  0  0  0  0  0  0  0  0  0
    9.6827  -18.3989   25.4524 O   0  0  0  0  0  0  0  0  0  0  0  0
   10.9449  -16.9163   26.5788 O   0  0  0  0  0  0  0  0  0  0  0  0
  1  2  1  0
  2  3  2  0
  4  5  1  0
  4  2  1  0
  5  6  1  6
  7  5  1  0
  8  7  2  0
  9 10  1  0
 11 10  1  6
 11 13  1  0
 11 12  1  0
 12  7  1  0
 13 14  2  0
 16 15  1  0
 16 17  2  0
 18 16  1  0
 19 18  1  0
 20 19  1  0
 21 20  1  0
 22 21  1  6
 23 22  1  0
 23 13  1  0
 24 22  1  0
 24 26  1  0
 25 24  2  0
M  END
$$$$
