NSR.pdb
     RDKit          3D

 26 25  0  0  1  0  0  0  0  0999 V2000
    8.8642  -14.4210   16.8145 N   0  0  0  0  0  0  0  0  0  0  0  0
    7.5310  -14.1252   17.1626 C   0  0  0  0  0  0  0  0  0  0  0  0
    6.6013  -14.3930   16.3463 O   0  0  0  0  0  0  0  0  0  0  0  0
    7.1135  -13.5036   18.4536 C   0  0  0  0  0  0  0  0  0  0  0  0
    8.3035  -13.2542   19.3373 C   0  0  2  0  0  0  0  0  0  0  0  0
    9.3202  -12.5316   18.6172 N   0  0  0  0  0  0  0  0  0  0  0  0
    8.8035  -14.5396   19.8778 C   0  0  0  0  0  0  0  0  0  0  0  0
    8.0346  -15.2093   20.6115 O   0  0  0  0  0  0  0  0  0  0  0  0
   12.5008  -16.1989   18.7886 O   0  0  0  0  0  0  0  0  0  0  0  0
   11.4389  -17.0197   19.2172 C   0  0  0  0  0  0  0  0  0  0  0  0
   10.5770  -16.3026   20.2029 C   0  0  2  0  0  0  0  0  0  0  0  0
   10.0975  -15.0655   19.6207 N   0  0  0  0  0  0  0  0  0  0  0  0
   11.2574  -16.0693   21.5022 C   0  0  0  0  0  0  0  0  0  0  0  0
   11.8512  -14.9754   21.6819 O   0  0  0  0  0  0  0  0  0  0  0  0
   10.4516  -16.0225   29.8595 N   0  0  0  0  0  0  0  0  0  0  0  0
   10.3009  -14.7893   29.1668 C   0  0  0  0  0  0  0  0  0  0  0  0
   10.1086  -13.6759   29.7857 N   0  0  0  0  0  0  0  0  0  0  0  0
   10.3719  -14.8350   27.7394 N   0  0  0  0  0  0  0  0  0  0  0  0
   10.7733  -16.0288   27.0659 C   0  0  0  0  0  0  0  0  0  0  0  0
   10.7280  -15.8314   25.5420 C   0  0  0  0  0  0  0  0  0  0  0  0
   11.1528  -17.1151   24.9011 C   0  0  0  0  0  0  0  0  0  0  0  0
   12.0968  -16.9315   23.7334 C   0  0  2  0  0  0  0  0  0  0  0  0
   11.2653  -17.0188   22.5395 N   0  0  0  0  0  0  0  0  0  0  0  0
   13.1656  -17.9605   23.6939 C   0  0  0  0  0  0  0  0  0  0  0  0
   14.0378  -18.0208   24.6199 O   0  0  0  0  0  0  0  0  0  0  0  0
   13.2952  -18.9010   22.6876 O   0  0  0  0  0  0  0  0  0  0  0  0
  1  2  1  0
  2  3  2  0
  4  5  1  0
  4  2  1  0
  5  6  1  6
  7  5  1  0
  8  7  2  0
  9 10  1  0
 11 10  1  6
 11 13  1  0
 11 12  1  0
 12  7  1  0
 13 14  2  0
 16 15  1  0
 16 17  2  0
 18 16  1  0
 19 18  1  0
 20 19  1  0
 21 20  1  0
 22 21  1  1
 23 22  1  0
 23 13  1  0
 24 22  1  0
 24 26  1  0
 25 24  2  0
M  END
$$$$
