NSR.pdb
     RDKit          3D

 26 25  0  0  1  0  0  0  0  0999 V2000
    7.0315  -13.7557   14.7759 N   0  0  0  0  0  0  0  0  0  0  0  0
    8.2563  -13.8490   15.4668 C   0  0  0  0  0  0  0  0  0  0  0  0
    9.3081  -14.1491   14.8298 O   0  0  0  0  0  0  0  0  0  0  0  0
    8.4191  -13.6156   16.9319 C   0  0  0  0  0  0  0  0  0  0  0  0
    8.6610  -14.9100   17.6566 C   0  0  2  0  0  0  0  0  0  0  0  0
    7.5684  -15.8215   17.4334 N   0  0  0  0  0  0  0  0  0  0  0  0
    8.8852  -14.6430   19.0963 C   0  0  0  0  0  0  0  0  0  0  0  0
    9.9610  -14.0882   19.4322 O   0  0  0  0  0  0  0  0  0  0  0  0
    6.5426  -16.4225   22.1342 O   0  0  0  0  0  0  0  0  0  0  0  0
    7.0618  -15.1303   22.3477 C   0  0  0  0  0  0  0  0  0  0  0  0
    8.2933  -14.9108   21.5330 C   0  0  2  0  0  0  0  0  0  0  0  0
    7.9622  -14.9738   20.1238 N   0  0  0  0  0  0  0  0  0  0  0  0
    9.3903  -15.8496   21.8806 C   0  0  0  0  0  0  0  0  0  0  0  0
    9.4914  -16.9225   21.2325 O   0  0  0  0  0  0  0  0  0  0  0  0
   16.6237  -13.8744   20.4500 N   0  0  0  0  0  0  0  0  0  0  0  0
   15.6719  -14.2232   19.4521 C   0  0  0  0  0  0  0  0  0  0  0  0
   15.8845  -14.0100   18.1994 N   0  0  0  0  0  0  0  0  0  0  0  0
   14.4556  -14.8270   19.8996 N   0  0  0  0  0  0  0  0  0  0  0  0
   14.1927  -14.9941   21.2936 C   0  0  0  0  0  0  0  0  0  0  0  0
   12.8523  -15.7154   21.5086 C   0  0  0  0  0  0  0  0  0  0  0  0
   12.6645  -15.9034   22.9811 C   0  0  0  0  0  0  0  0  0  0  0  0
   11.3388  -16.5303   23.3525 C   0  0  2  0  0  0  0  0  0  0  0  0
   10.3205  -15.5895   22.9028 N   0  0  0  0  0  0  0  0  0  0  0  0
   11.2088  -16.7730   24.8109 C   0  0  0  0  0  0  0  0  0  0  0  0
   10.4326  -16.0527   25.5184 O   0  0  0  0  0  0  0  0  0  0  0  0
   11.8932  -17.7633   25.4928 O   0  0  0  0  0  0  0  0  0  0  0  0
  1  2  1  0
  2  3  2  0
  4  5  1  0
  4  2  1  0
  5  6  1  1
  7  5  1  0
  8  7  2  0
  9 10  1  0
 11 10  1  1
 11 13  1  0
 11 12  1  0
 12  7  1  0
 13 14  2  0
 16 15  1  0
 16 17  2  0
 18 16  1  0
 19 18  1  0
 20 19  1  0
 21 20  1  0
 22 21  1  1
 23 22  1  0
 23 13  1  0
 24 22  1  0
 24 26  1  0
 25 24  2  0
M  END
$$$$
