NSR.pdb
     RDKit          3D

 26 25  0  0  1  0  0  0  0  0999 V2000
  -11.0184  -26.0207   31.4891 N   0  0  0  0  0  0  0  0  0  0  0  0
  -10.5376  -24.7661   31.9145 C   0  0  0  0  0  0  0  0  0  0  0  0
  -11.3326  -23.9501   32.4664 O   0  0  0  0  0  0  0  0  0  0  0  0
   -9.1255  -24.3075   31.7631 C   0  0  0  0  0  0  0  0  0  0  0  0
   -8.2584  -25.4120   31.2268 C   0  0  2  0  0  0  0  0  0  0  0  0
   -8.1656  -26.4856   32.1824 N   0  0  0  0  0  0  0  0  0  0  0  0
   -6.9296  -24.8709   30.8586 C   0  0  0  0  0  0  0  0  0  0  0  0
   -6.8849  -23.9425   30.0134 O   0  0  0  0  0  0  0  0  0  0  0  0
   -3.3252  -26.6201   32.0919 O   0  0  0  0  0  0  0  0  0  0  0  0
   -3.3763  -25.2149   32.0038 C   0  0  0  0  0  0  0  0  0  0  0  0
   -4.4147  -24.7811   31.0230 C   0  0  2  0  0  0  0  0  0  0  0  0
   -5.7004  -25.3335   31.3989 N   0  0  0  0  0  0  0  0  0  0  0  0
   -4.0616  -25.1198   29.6208 C   0  0  0  0  0  0  0  0  0  0  0  0
   -4.6018  -26.1242   29.0907 O   0  0  0  0  0  0  0  0  0  0  0  0
   -1.4739  -19.6153   23.4673 N   0  0  0  0  0  0  0  0  0  0  0  0
   -1.3445  -20.8337   22.7446 C   0  0  0  0  0  0  0  0  0  0  0  0
   -1.0950  -20.8565   21.4809 N   0  0  0  0  0  0  0  0  0  0  0  0
   -1.5042  -22.0464   23.4851 N   0  0  0  0  0  0  0  0  0  0  0  0
   -1.8738  -22.0167   24.8645 C   0  0  0  0  0  0  0  0  0  0  0  0
   -2.0707  -23.4433   25.4024 C   0  0  0  0  0  0  0  0  0  0  0  0
   -2.5517  -23.3375   26.8154 C   0  0  0  0  0  0  0  0  0  0  0  0
   -2.7608  -24.6748   27.4910 C   0  0  2  0  0  0  0  0  0  0  0  0
   -3.1499  -24.3654   28.8611 N   0  0  0  0  0  0  0  0  0  0  0  0
   -1.5403  -25.5191   27.4795 C   0  0  0  0  0  0  0  0  0  0  0  0
   -0.6846  -25.4293   28.4186 O   0  0  0  0  0  0  0  0  0  0  0  0
   -1.2453  -26.4366   26.4869 O   0  0  0  0  0  0  0  0  0  0  0  0
  1  2  1  0
  2  3  2  0
  4  5  1  0
  4  2  1  0
  5  6  1  1
  7  5  1  0
  8  7  2  0
  9 10  1  0
 11 10  1  1
 11 13  1  0
 11 12  1  0
 12  7  1  0
 13 14  2  0
 16 15  1  0
 16 17  2  0
 18 16  1  0
 19 18  1  0
 20 19  1  0
 21 20  1  0
 22 21  1  6
 23 22  1  0
 23 13  1  0
 24 22  1  0
 24 26  1  0
 25 24  2  0
M  END
$$$$
