NSR.pdb
     RDKit          3D

 26 25  0  0  1  0  0  0  0  0999 V2000
    8.2766  -12.2921   13.8868 N   0  0  0  0  0  0  0  0  0  0  0  0
    7.8028  -13.5809   14.2041 C   0  0  0  0  0  0  0  0  0  0  0  0
    7.5579  -14.4005   13.2709 O   0  0  0  0  0  0  0  0  0  0  0  0
    7.5591  -14.0730   15.5918 C   0  0  0  0  0  0  0  0  0  0  0  0
    8.6785  -14.9667   16.0473 C   0  0  2  0  0  0  0  0  0  0  0  0
    8.8482  -16.0647   15.1308 N   0  0  0  0  0  0  0  0  0  0  0  0
    8.4209  -15.4251   17.4321 C   0  0  0  0  0  0  0  0  0  0  0  0
    8.3264  -14.5548   18.3330 O   0  0  0  0  0  0  0  0  0  0  0  0
    6.7274  -19.0561   18.3714 O   0  0  0  0  0  0  0  0  0  0  0  0
    7.7960  -18.6815   19.2097 C   0  0  0  0  0  0  0  0  0  0  0  0
    8.0096  -17.2046   19.1711 C   0  0  2  0  0  0  0  0  0  0  0  0
    8.2736  -16.7864   17.8091 N   0  0  0  0  0  0  0  0  0  0  0  0
    9.0760  -16.7511   20.0999 C   0  0  0  0  0  0  0  0  0  0  0  0
   10.2759  -16.8785   19.7457 O   0  0  0  0  0  0  0  0  0  0  0  0
    5.5443  -11.6862   25.6885 N   0  0  0  0  0  0  0  0  0  0  0  0
    6.4291  -12.4890   26.4606 C   0  0  0  0  0  0  0  0  0  0  0  0
    6.6809  -12.2338   27.6980 N   0  0  0  0  0  0  0  0  0  0  0  0
    7.0351  -13.6036   25.8010 N   0  0  0  0  0  0  0  0  0  0  0  0
    7.9136  -13.4069   24.6922 C   0  0  0  0  0  0  0  0  0  0  0  0
    8.4257  -14.7559   24.1619 C   0  0  0  0  0  0  0  0  0  0  0  0
    9.2489  -14.4857   22.9420 C   0  0  0  0  0  0  0  0  0  0  0  0
    9.8165  -15.7323   22.2999 C   0  0  2  0  0  0  0  0  0  0  0  0
    8.8010  -16.1853   21.3576 N   0  0  0  0  0  0  0  0  0  0  0  0
   10.1165  -16.7990   23.2872 C   0  0  0  0  0  0  0  0  0  0  0  0
    9.3299  -17.7912   23.4244 O   0  0  0  0  0  0  0  0  0  0  0  0
   11.2318  -16.8019   24.1059 O   0  0  0  0  0  0  0  0  0  0  0  0
  1  2  1  0
  2  3  2  0
  4  5  1  0
  4  2  1  0
  5  6  1  6
  7  5  1  0
  8  7  2  0
  9 10  1  0
 11 10  1  6
 11 13  1  0
 11 12  1  0
 12  7  1  0
 13 14  2  0
 16 15  1  0
 16 17  2  0
 18 16  1  0
 19 18  1  0
 20 19  1  0
 21 20  1  0
 22 21  1  1
 23 22  1  0
 23 13  1  0
 24 22  1  0
 24 26  1  0
 25 24  2  0
M  END
$$$$
