NSR.pdb
     RDKit          3D

 26 25  0  0  1  0  0  0  0  0999 V2000
    6.3154  -21.4268   12.9257 N   0  0  0  0  0  0  0  0  0  0  0  0
    5.9467  -20.0961   13.2077 C   0  0  0  0  0  0  0  0  0  0  0  0
    5.9250  -19.2451   12.2708 O   0  0  0  0  0  0  0  0  0  0  0  0
    5.5684  -19.5935   14.5610 C   0  0  0  0  0  0  0  0  0  0  0  0
    6.1402  -18.2247   14.8031 C   0  0  2  0  0  0  0  0  0  0  0  0
    6.9674  -17.8235   13.6943 N   0  0  0  0  0  0  0  0  0  0  0  0
    6.8768  -18.2102   16.0881 C   0  0  0  0  0  0  0  0  0  0  0  0
    8.0316  -17.7159   16.0998 O   0  0  0  0  0  0  0  0  0  0  0  0
    5.2583  -19.8044   19.5795 O   0  0  0  0  0  0  0  0  0  0  0  0
    6.1515  -18.7221   19.7051 C   0  0  0  0  0  0  0  0  0  0  0  0
    7.1026  -18.6813   18.5552 C   0  0  2  0  0  0  0  0  0  0  0  0
    6.3626  -18.7196   17.3100 N   0  0  0  0  0  0  0  0  0  0  0  0
    8.1284  -19.7535   18.6162 C   0  0  0  0  0  0  0  0  0  0  0  0
    7.9668  -20.7810   17.9093 O   0  0  0  0  0  0  0  0  0  0  0  0
   15.4272  -20.9841   20.9459 N   0  0  0  0  0  0  0  0  0  0  0  0
   15.8686  -21.4685   19.6834 C   0  0  0  0  0  0  0  0  0  0  0  0
   16.8950  -22.2384   19.5667 N   0  0  0  0  0  0  0  0  0  0  0  0
   15.1192  -21.0623   18.5354 N   0  0  0  0  0  0  0  0  0  0  0  0
   13.9906  -20.1971   18.6685 C   0  0  0  0  0  0  0  0  0  0  0  0
   12.7621  -20.9818   19.1567 C   0  0  0  0  0  0  0  0  0  0  0  0
   11.5761  -20.0732   19.0746 C   0  0  0  0  0  0  0  0  0  0  0  0
   10.2858  -20.7095   19.5422 C   0  0  2  0  0  0  0  0  0  0  0  0
    9.2720  -19.6684   19.4301 N   0  0  0  0  0  0  0  0  0  0  0  0
   10.3649  -21.2042   20.9393 C   0  0  0  0  0  0  0  0  0  0  0  0
    9.9216  -20.4962   21.9006 O   0  0  0  0  0  0  0  0  0  0  0  0
   10.9050  -22.4269   21.2960 O   0  0  0  0  0  0  0  0  0  0  0  0
  1  2  1  0
  2  3  2  0
  4  5  1  0
  4  2  1  0
  5  6  1  6
  7  5  1  0
  8  7  2  0
  9 10  1  0
 11 10  1  1
 11 13  1  0
 11 12  1  0
 12  7  1  0
 13 14  2  0
 16 15  1  0
 16 17  2  0
 18 16  1  0
 19 18  1  0
 20 19  1  0
 21 20  1  0
 22 21  1  1
 23 22  1  0
 23 13  1  0
 24 22  1  0
 24 26  1  0
 25 24  2  0
M  END
$$$$
