NSR.pdb
     RDKit          3D

 26 25  0  0  1  0  0  0  0  0999 V2000
   12.1129  -17.3951   11.3988 N   0  0  0  0  0  0  0  0  0  0  0  0
   12.1168  -16.6644   12.6040 C   0  0  0  0  0  0  0  0  0  0  0  0
   12.8842  -15.6647   12.7224 O   0  0  0  0  0  0  0  0  0  0  0  0
   11.2644  -16.9826   13.7869 C   0  0  0  0  0  0  0  0  0  0  0  0
   12.1111  -17.3320   14.9786 C   0  0  2  0  0  0  0  0  0  0  0  0
   12.7347  -18.6168   14.7913 N   0  0  0  0  0  0  0  0  0  0  0  0
   11.2885  -17.2806   16.2094 C   0  0  0  0  0  0  0  0  0  0  0  0
   10.8233  -16.1680   16.5612 O   0  0  0  0  0  0  0  0  0  0  0  0
   10.8308  -20.5363   18.8195 O   0  0  0  0  0  0  0  0  0  0  0  0
    9.7120  -19.7133   18.5827 C   0  0  0  0  0  0  0  0  0  0  0  0
   10.1376  -18.3378   18.1886 C   0  0  2  0  0  0  0  0  0  0  0  0
   10.9906  -18.4084   17.0195 N   0  0  0  0  0  0  0  0  0  0  0  0
   10.7886  -17.5951   19.2978 C   0  0  0  0  0  0  0  0  0  0  0  0
   12.0448  -17.5545   19.3383 O   0  0  0  0  0  0  0  0  0  0  0  0
    6.2959  -13.2923   19.1220 N   0  0  0  0  0  0  0  0  0  0  0  0
    7.3481  -12.4950   19.6518 C   0  0  0  0  0  0  0  0  0  0  0  0
    8.1436  -11.8212   18.8949 N   0  0  0  0  0  0  0  0  0  0  0  0
    7.4894  -12.4708   21.0744 N   0  0  0  0  0  0  0  0  0  0  0  0
    7.8714  -13.6460   21.7907 C   0  0  0  0  0  0  0  0  0  0  0  0
    9.1217  -14.2809   21.1608 C   0  0  0  0  0  0  0  0  0  0  0  0
    9.5546  -15.4107   22.0412 C   0  0  0  0  0  0  0  0  0  0  0  0
   10.6578  -16.2590   21.4481 C   0  0  2  0  0  0  0  0  0  0  0  0
   10.0602  -16.9354   20.3037 N   0  0  0  0  0  0  0  0  0  0  0  0
   11.1968  -17.2519   22.4105 C   0  0  0  0  0  0  0  0  0  0  0  0
   10.7108  -18.4279   22.4647 O   0  0  0  0  0  0  0  0  0  0  0  0
   12.2309  -16.9907   23.2916 O   0  0  0  0  0  0  0  0  0  0  0  0
  1  2  1  0
  2  3  2  0
  4  5  1  0
  4  2  1  0
  5  6  1  6
  7  5  1  0
  8  7  2  0
  9 10  1  0
 11 10  1  1
 11 13  1  0
 11 12  1  0
 12  7  1  0
 13 14  2  0
 16 15  1  0
 16 17  2  0
 18 16  1  0
 19 18  1  0
 20 19  1  0
 21 20  1  0
 22 21  1  1
 23 22  1  0
 23 13  1  0
 24 22  1  0
 24 26  1  0
 25 24  2  0
M  END
$$$$
