NSR.pdb
     RDKit          3D

 26 25  0  0  1  0  0  0  0  0999 V2000
    5.3512  -20.1450   15.1574 N   0  0  0  0  0  0  0  0  0  0  0  0
    6.3318  -19.4396   15.8835 C   0  0  0  0  0  0  0  0  0  0  0  0
    6.8346  -18.3882   15.3896 O   0  0  0  0  0  0  0  0  0  0  0  0
    6.8407  -19.8433   17.2271 C   0  0  0  0  0  0  0  0  0  0  0  0
    8.3392  -19.9603   17.2192 C   0  0  2  0  0  0  0  0  0  0  0  0
    8.7460  -21.1449   16.5081 N   0  0  0  0  0  0  0  0  0  0  0  0
    8.8503  -19.9357   18.6092 C   0  0  0  0  0  0  0  0  0  0  0  0
    8.3783  -19.0773   19.3956 O   0  0  0  0  0  0  0  0  0  0  0  0
   12.3318  -21.9547   19.9061 O   0  0  0  0  0  0  0  0  0  0  0  0
   11.2011  -21.9432   20.7465 C   0  0  0  0  0  0  0  0  0  0  0  0
   10.3446  -20.7524   20.4693 C   0  0  2  0  0  0  0  0  0  0  0  0
    9.8409  -20.8203   19.1124 N   0  0  0  0  0  0  0  0  0  0  0  0
   11.0408  -19.4670   20.7316 C   0  0  0  0  0  0  0  0  0  0  0  0
   11.5967  -18.8773   19.7701 O   0  0  0  0  0  0  0  0  0  0  0  0
    7.0403  -13.0441   19.8943 N   0  0  0  0  0  0  0  0  0  0  0  0
    8.2902  -12.4164   20.1531 C   0  0  0  0  0  0  0  0  0  0  0  0
    8.5242  -11.1942   19.8198 N   0  0  0  0  0  0  0  0  0  0  0  0
    9.2886  -13.2052   20.8055 N   0  0  0  0  0  0  0  0  0  0  0  0
    9.2027  -14.6309   20.8143 C   0  0  0  0  0  0  0  0  0  0  0  0
   10.3688  -15.2381   21.6108 C   0  0  0  0  0  0  0  0  0  0  0  0
   10.2417  -16.7276   21.5452 C   0  0  0  0  0  0  0  0  0  0  0  0
   11.3521  -17.4673   22.2581 C   0  0  2  0  0  0  0  0  0  0  0  0
   11.1043  -18.8817   22.0087 N   0  0  0  0  0  0  0  0  0  0  0  0
   11.3753  -17.1971   23.7173 C   0  0  0  0  0  0  0  0  0  0  0  0
   10.7762  -17.9760   24.5274 O   0  0  0  0  0  0  0  0  0  0  0  0
   12.0248  -16.1197   24.2929 O   0  0  0  0  0  0  0  0  0  0  0  0
  1  2  1  0
  2  3  2  0
  4  5  1  0
  4  2  1  0
  5  6  1  1
  7  5  1  0
  8  7  2  0
  9 10  1  0
 11 10  1  6
 11 13  1  0
 11 12  1  0
 12  7  1  0
 13 14  2  0
 16 15  1  0
 16 17  2  0
 18 16  1  0
 19 18  1  0
 20 19  1  0
 21 20  1  0
 22 21  1  6
 23 22  1  0
 23 13  1  0
 24 22  1  0
 24 26  1  0
 25 24  2  0
M  END
$$$$
