NSR.pdb
     RDKit          3D

 26 25  0  0  1  0  0  0  0  0999 V2000
    7.3996  -13.7663   13.6896 N   0  0  0  0  0  0  0  0  0  0  0  0
    8.3701  -14.3740   14.5111 C   0  0  0  0  0  0  0  0  0  0  0  0
    9.0433  -15.3476   14.0623 O   0  0  0  0  0  0  0  0  0  0  0  0
    8.6783  -13.9506   15.9087 C   0  0  0  0  0  0  0  0  0  0  0  0
    8.6287  -15.1239   16.8469 C   0  0  2  0  0  0  0  0  0  0  0  0
    7.3527  -15.7855   16.7556 N   0  0  0  0  0  0  0  0  0  0  0  0
    8.9319  -14.6752   18.2256 C   0  0  0  0  0  0  0  0  0  0  0  0
   10.1121  -14.3343   18.4882 O   0  0  0  0  0  0  0  0  0  0  0  0
    6.3111  -15.3057   21.4937 O   0  0  0  0  0  0  0  0  0  0  0  0
    7.0919  -14.1334   21.4585 C   0  0  0  0  0  0  0  0  0  0  0  0
    8.3305  -14.3436   20.6521 C   0  0  2  0  0  0  0  0  0  0  0  0
    7.9744  -14.6050   19.2721 N   0  0  0  0  0  0  0  0  0  0  0  0
    9.2045  -15.4100   21.2039 C   0  0  0  0  0  0  0  0  0  0  0  0
    9.2451  -16.5195   20.6133 O   0  0  0  0  0  0  0  0  0  0  0  0
   13.0453  -15.7234   18.2563 N   0  0  0  0  0  0  0  0  0  0  0  0
   13.9413  -14.9316   19.0267 C   0  0  0  0  0  0  0  0  0  0  0  0
   14.5917  -13.9429   18.5175 N   0  0  0  0  0  0  0  0  0  0  0  0
   14.0934  -15.2806   20.4049 N   0  0  0  0  0  0  0  0  0  0  0  0
   13.9562  -16.6358   20.8348 C   0  0  0  0  0  0  0  0  0  0  0  0
   12.5051  -16.9270   21.2505 C   0  0  0  0  0  0  0  0  0  0  0  0
   12.1937  -16.0843   22.4471 C   0  0  0  0  0  0  0  0  0  0  0  0
   10.7913  -16.2763   22.9809 C   0  0  2  0  0  0  0  0  0  0  0  0
    9.9882  -15.2317   22.3579 N   0  0  0  0  0  0  0  0  0  0  0  0
   10.7217  -16.1676   24.4594 C   0  0  0  0  0  0  0  0  0  0  0  0
   10.3339  -15.0865   25.0096 O   0  0  0  0  0  0  0  0  0  0  0  0
   11.0585  -17.1925   25.3256 O   0  0  0  0  0  0  0  0  0  0  0  0
  1  2  1  0
  2  3  2  0
  4  5  1  0
  4  2  1  0
  5  6  1  1
  7  5  1  0
  8  7  2  0
  9 10  1  0
 11 10  1  1
 11 13  1  0
 11 12  1  0
 12  7  1  0
 13 14  2  0
 16 15  1  0
 16 17  2  0
 18 16  1  0
 19 18  1  0
 20 19  1  0
 21 20  1  0
 22 21  1  6
 23 22  1  0
 23 13  1  0
 24 22  1  0
 24 26  1  0
 25 24  2  0
M  END
$$$$
