NSR.pdb
     RDKit          3D

 26 25  0  0  1  0  0  0  0  0999 V2000
    8.9585  -19.2057   15.8070 N   0  0  0  0  0  0  0  0  0  0  0  0
    9.2399  -19.6695   17.1077 C   0  0  0  0  0  0  0  0  0  0  0  0
    9.3271  -20.9146   17.3185 O   0  0  0  0  0  0  0  0  0  0  0  0
    9.4501  -18.7861   18.2921 C   0  0  0  0  0  0  0  0  0  0  0  0
    9.2359  -17.3434   17.9287 C   0  0  2  0  0  0  0  0  0  0  0  0
   10.3307  -16.8602   17.1273 N   0  0  0  0  0  0  0  0  0  0  0  0
    9.0426  -16.5410   19.1587 C   0  0  0  0  0  0  0  0  0  0  0  0
   10.0602  -16.2355   19.8290 O   0  0  0  0  0  0  0  0  0  0  0  0
    5.3175  -16.0642   20.9825 O   0  0  0  0  0  0  0  0  0  0  0  0
    6.1897  -14.9589   21.0326 C   0  0  0  0  0  0  0  0  0  0  0  0
    7.6101  -15.3955   20.8894 C   0  0  2  0  0  0  0  0  0  0  0  0
    7.7802  -16.0937   19.6312 N   0  0  0  0  0  0  0  0  0  0  0  0
    8.0816  -16.2116   22.0371 C   0  0  0  0  0  0  0  0  0  0  0  0
    8.1135  -17.4626   21.9123 O   0  0  0  0  0  0  0  0  0  0  0  0
   10.2290  -13.1099   29.9673 N   0  0  0  0  0  0  0  0  0  0  0  0
   10.6273  -14.4658   30.1291 C   0  0  0  0  0  0  0  0  0  0  0  0
   11.1802  -14.8920   31.2118 N   0  0  0  0  0  0  0  0  0  0  0  0
   10.3871  -15.3473   29.0292 N   0  0  0  0  0  0  0  0  0  0  0  0
    9.9637  -14.8379   27.7638 C   0  0  0  0  0  0  0  0  0  0  0  0
    9.6980  -15.9883   26.7792 C   0  0  0  0  0  0  0  0  0  0  0  0
    9.2505  -15.3880   25.4836 C   0  0  0  0  0  0  0  0  0  0  0  0
    8.8168  -16.4089   24.4551 C   0  0  2  0  0  0  0  0  0  0  0  0
    8.4940  -15.6452   23.2564 N   0  0  0  0  0  0  0  0  0  0  0  0
    7.6408  -17.2004   24.8947 C   0  0  0  0  0  0  0  0  0  0  0  0
    7.7991  -18.3000   25.5174 O   0  0  0  0  0  0  0  0  0  0  0  0
    6.3287  -16.8220   24.6727 O   0  0  0  0  0  0  0  0  0  0  0  0
  1  2  1  0
  2  3  2  0
  4  5  1  0
  4  2  1  0
  5  6  1  1
  7  5  1  0
  8  7  2  0
  9 10  1  0
 11 10  1  1
 11 13  1  0
 11 12  1  0
 12  7  1  0
 13 14  2  0
 16 15  1  0
 16 17  2  0
 18 16  1  0
 19 18  1  0
 20 19  1  0
 21 20  1  0
 22 21  1  1
 23 22  1  0
 23 13  1  0
 24 22  1  0
 24 26  1  0
 25 24  2  0
M  END
$$$$
