RQT.pdb
     RDKit          3D

 28 27  0  0  1  0  0  0  0  0999 V2000
    9.4440  -14.3675   14.6508 N   0  0  0  0  0  0  0  0  0  0  0  0
    8.3440  -14.2315   15.5737 C   0  0  0  0  0  0  0  0  0  0  0  0
    7.7237  -13.1254   15.6533 N   0  0  0  0  0  0  0  0  0  0  0  0
    7.9443  -15.3145   16.3933 N   0  0  0  0  0  0  0  0  0  0  0  0
    7.5381  -15.0229   17.7781 C   0  0  0  0  0  0  0  0  0  0  0  0
    8.4280  -13.9161   18.2642 C   0  0  0  0  0  0  0  0  0  0  0  0
    8.9316  -14.0358   19.6533 C   0  0  0  0  0  0  0  0  0  0  0  0
    8.5020  -15.2477   20.4239 C   0  0  2  0  0  0  0  0  0  0  0  0
    7.1096  -15.4961   20.2318 N   0  0  0  0  0  0  0  0  0  0  0  0
    8.8200  -14.9802   21.8602 C   0  0  0  0  0  0  0  0  0  0  0  0
   10.0185  -14.6562   22.1329 O   0  0  0  0  0  0  0  0  0  0  0  0
    6.9987  -12.8362   16.3100 N   0  0  0  0  0  0  0  0  0  0  0  0
    5.8134  -11.8934   26.3362 C   0  0  0  0  0  0  0  0  0  0  0  0
    6.9140  -12.4704   27.0394 O   0  0  0  0  0  0  0  0  0  0  0  0
    7.0941  -12.0727   28.1966 C   0  0  0  0  0  0  0  0  0  0  0  0
    7.7145  -13.4524   26.3577 C   0  0  0  0  0  0  0  0  0  0  0  0
    7.4581  -13.7906   24.9487 C   0  0  1  0  0  0  0  0  0  0  0  0
    8.2796  -14.8423   24.3021 N   0  0  0  0  0  0  0  0  0  0  0  0
    7.9018  -15.0616   22.9072 C   0  0  0  0  0  0  0  0  0  0  0  0
    8.5019  -16.0774   25.0550 O   0  0  0  0  0  0  0  0  0  0  0  0
    7.5153  -16.7572   25.4186 C   0  0  0  0  0  0  0  0  0  0  0  0
   10.2023  -18.9723   23.8512 C   0  0  2  0  0  0  0  0  0  0  0  0
   10.9077  -18.6953   25.1398 O   0  0  0  0  0  0  0  0  0  0  0  0
   12.1118  -18.0680   24.8626 C   0  0  2  0  0  0  0  0  0  0  0  0
   10.1013  -17.7679   26.0412 N   0  0  0  0  0  0  0  0  0  0  0  0
    9.8027  -16.5180   25.3795 C   0  0  0  0  0  0  0  0  0  0  0  0
   10.7609  -17.5721   27.3421 O   0  0  0  0  0  0  0  0  0  0  0  0
   11.2205  -16.4605   27.6597 O   0  0  0  0  0  0  0  0  0  0  0  0
  2  1  1  0
  3  2  2  0
  4  2  1  0
  5  6  1  0
  5  4  1  0
  6  7  1  0
  8  7  1  0
  8  9  1  1
 10  8  1  0
 10 11  2  0
 12 13  1  0
 13 14  2  0
 13 15  1  0
 15 16  1  0
 17 16  1  6
 17 18  1  0
 18 10  1  0
 19 17  1  0
 20 19  2  0
 22 21  1  6
 22 24  1  0
 23 22  1  0
 24 26  1  0
 24 25  1  1
 25 19  1  0
 26 28  1  0
 27 26  2  0
M  END
$$$$
