RQT.pdb
     RDKit          3D

 28 27  0  0  1  0  0  0  0  0999 V2000
    8.1862  -12.5385   17.9103 N   0  0  0  0  0  0  0  0  0  0  0  0
    9.0709  -13.1101   18.8956 C   0  0  0  0  0  0  0  0  0  0  0  0
   10.2654  -12.6868   18.9884 N   0  0  0  0  0  0  0  0  0  0  0  0
    8.6270  -14.1375   19.7628 N   0  0  0  0  0  0  0  0  0  0  0  0
    7.5061  -14.9828   19.3193 C   0  0  0  0  0  0  0  0  0  0  0  0
    6.3478  -14.6711   20.2218 C   0  0  0  0  0  0  0  0  0  0  0  0
    6.4618  -15.1335   21.6256 C   0  0  0  0  0  0  0  0  0  0  0  0
    6.5892  -16.6117   21.8402 C   0  0  2  0  0  0  0  0  0  0  0  0
    5.3950  -17.2813   21.4368 N   0  0  0  0  0  0  0  0  0  0  0  0
    6.8683  -16.8135   23.2952 C   0  0  0  0  0  0  0  0  0  0  0  0
    5.9166  -16.5712   24.1021 O   0  0  0  0  0  0  0  0  0  0  0  0
   11.0370  -13.0458   19.5507 N   0  0  0  0  0  0  0  0  0  0  0  0
    8.9529  -21.6169   26.2303 C   0  0  0  0  0  0  0  0  0  0  0  0
   10.0854  -20.7931   25.9518 O   0  0  0  0  0  0  0  0  0  0  0  0
   11.1925  -21.3391   26.0289 C   0  0  0  0  0  0  0  0  0  0  0  0
    9.8538  -19.4150   25.6097 C   0  0  0  0  0  0  0  0  0  0  0  0
    8.4938  -18.8531   25.6154 C   0  0  1  0  0  0  0  0  0  0  0  0
    8.3046  -17.4276   25.2532 N   0  0  0  0  0  0  0  0  0  0  0  0
    8.0873  -17.2439   23.8194 C   0  0  0  0  0  0  0  0  0  0  0  0
    9.2311  -16.4580   25.8391 O   0  0  0  0  0  0  0  0  0  0  0  0
   10.2331  -16.0959   25.1815 C   0  0  0  0  0  0  0  0  0  0  0  0
    9.0647  -12.9069   26.7630 C   0  0  2  0  0  0  0  0  0  0  0  0
    9.2758  -13.6592   28.0376 O   0  0  0  0  0  0  0  0  0  0  0  0
    8.0441  -13.8840   28.6313 C   0  0  2  0  0  0  0  0  0  0  0  0
    9.9257  -15.0163   27.7955 N   0  0  0  0  0  0  0  0  0  0  0  0
    9.0196  -15.9232   27.1278 C   0  0  0  0  0  0  0  0  0  0  0  0
   10.4728  -15.5820   29.0391 O   0  0  0  0  0  0  0  0  0  0  0  0
   10.0687  -16.6769   29.4699 O   0  0  0  0  0  0  0  0  0  0  0  0
  2  1  1  0
  3  2  2  0
  4  2  1  0
  5  6  1  0
  5  4  1  0
  6  7  1  0
  8  7  1  0
  8  9  1  1
 10  8  1  0
 10 11  2  0
 12 13  1  0
 13 14  2  0
 13 15  1  0
 15 16  1  0
 17 16  1  1
 17 18  1  0
 18 10  1  0
 19 17  1  0
 20 19  2  0
 22 21  1  1
 22 24  1  0
 23 22  1  0
 24 26  1  0
 24 25  1  1
 25 19  1  0
 26 28  1  0
 27 26  2  0
M  END
$$$$
