RQT.pdb
     RDKit          3D

 28 27  0  0  1  0  0  0  0  0999 V2000
    6.6416  -20.8303   17.8714 N   0  0  0  0  0  0  0  0  0  0  0  0
    6.2564  -21.0120   19.2494 C   0  0  0  0  0  0  0  0  0  0  0  0
    6.2524  -22.1791   19.7519 N   0  0  0  0  0  0  0  0  0  0  0  0
    5.8826  -19.9071   20.0519 N   0  0  0  0  0  0  0  0  0  0  0  0
    5.8096  -18.5814   19.4156 C   0  0  0  0  0  0  0  0  0  0  0  0
    7.2144  -18.0565   19.3508 C   0  0  0  0  0  0  0  0  0  0  0  0
    7.7478  -17.4435   20.5906 C   0  0  0  0  0  0  0  0  0  0  0  0
    8.1650  -16.0061   20.5064 C   0  0  2  0  0  0  0  0  0  0  0  0
    9.2628  -15.8548   19.6069 N   0  0  0  0  0  0  0  0  0  0  0  0
    8.5273  -15.5805   21.8932 C   0  0  0  0  0  0  0  0  0  0  0  0
    9.6873  -15.8957   22.3066 O   0  0  0  0  0  0  0  0  0  0  0  0
    6.0285  -22.4732   20.7027 N   0  0  0  0  0  0  0  0  0  0  0  0
    5.6311  -11.4853   25.9987 C   0  0  0  0  0  0  0  0  0  0  0  0
    6.7278  -12.0363   26.7281 O   0  0  0  0  0  0  0  0  0  0  0  0
    6.9584  -11.5333   27.8342 C   0  0  0  0  0  0  0  0  0  0  0  0
    7.4672  -13.1153   26.1288 C   0  0  0  0  0  0  0  0  0  0  0  0
    7.2152  -13.5229   24.7375 C   0  0  2  0  0  0  0  0  0  0  0  0
    8.0327  -14.6114   24.1493 N   0  0  0  0  0  0  0  0  0  0  0  0
    7.6887  -14.8703   22.7524 C   0  0  0  0  0  0  0  0  0  0  0  0
    8.2095  -15.8245   24.9486 O   0  0  0  0  0  0  0  0  0  0  0  0
    7.2153  -16.5453   25.1930 C   0  0  0  0  0  0  0  0  0  0  0  0
    9.9666  -18.7910   24.1294 C   0  0  2  0  0  0  0  0  0  0  0  0
   10.6095  -18.3735   25.4129 O   0  0  0  0  0  0  0  0  0  0  0  0
   11.7979  -17.7218   25.1245 C   0  0  2  0  0  0  0  0  0  0  0  0
    9.7325  -17.4068   26.1997 N   0  0  0  0  0  0  0  0  0  0  0  0
    9.4747  -16.1987   25.4493 C   0  0  0  0  0  0  0  0  0  0  0  0
   10.2931  -17.1323   27.5325 O   0  0  0  0  0  0  0  0  0  0  0  0
   10.6229  -15.9774   27.8567 O   0  0  0  0  0  0  0  0  0  0  0  0
  2  1  1  0
  3  2  2  0
  4  2  1  0
  5  6  1  0
  5  4  1  0
  6  7  1  0
  8  7  1  0
  8  9  1  6
 10  8  1  0
 10 11  2  0
 12 13  1  0
 13 14  2  0
 13 15  1  0
 15 16  1  0
 17 16  1  6
 17 18  1  0
 18 10  1  0
 19 17  1  0
 20 19  2  0
 22 21  1  1
 22 24  1  0
 23 22  1  0
 24 26  1  0
 24 25  1  1
 25 19  1  0
 26 28  1  0
 27 26  2  0
M  END
$$$$
