RQT.pdb
     RDKit          3D

 28 27  0  0  1  0  0  0  0  0999 V2000
    9.1478  -12.9120   20.3648 N   0  0  0  0  0  0  0  0  0  0  0  0
    8.5956  -13.0142   19.0364 C   0  0  0  0  0  0  0  0  0  0  0  0
    8.7667  -12.0642   18.2100 N   0  0  0  0  0  0  0  0  0  0  0  0
    7.8648  -14.1598   18.6387 N   0  0  0  0  0  0  0  0  0  0  0  0
    8.1962  -15.4474   19.2710 C   0  0  0  0  0  0  0  0  0  0  0  0
    7.5805  -15.4265   20.6399 C   0  0  0  0  0  0  0  0  0  0  0  0
    7.6601  -16.6852   21.4187 C   0  0  0  0  0  0  0  0  0  0  0  0
    8.9158  -17.4908   21.2716 C   0  0  2  0  0  0  0  0  0  0  0  0
    8.6547  -18.7004   20.5604 N   0  0  0  0  0  0  0  0  0  0  0  0
    9.4179  -17.7625   22.6535 C   0  0  0  0  0  0  0  0  0  0  0  0
    9.4424  -18.9770   23.0278 O   0  0  0  0  0  0  0  0  0  0  0  0
    8.3615  -11.9322   17.2832 N   0  0  0  0  0  0  0  0  0  0  0  0
   13.8485  -19.9410   25.4767 C   0  0  0  0  0  0  0  0  0  0  0  0
   13.6310  -19.0496   24.3827 O   0  0  0  0  0  0  0  0  0  0  0  0
   14.2726  -19.2812   23.3511 C   0  0  0  0  0  0  0  0  0  0  0  0
   12.6983  -17.9691   24.5635 C   0  0  0  0  0  0  0  0  0  0  0  0
   11.2900  -18.2343   24.8977 C   0  0  1  0  0  0  0  0  0  0  0  0
   10.3268  -17.1068   24.8936 N   0  0  0  0  0  0  0  0  0  0  0  0
    9.8553  -16.7853   23.5478 C   0  0  0  0  0  0  0  0  0  0  0  0
   10.6663  -15.9315   25.6968 O   0  0  0  0  0  0  0  0  0  0  0  0
   11.5873  -15.1748   25.3135 C   0  0  0  0  0  0  0  0  0  0  0  0
    8.8056  -12.9171   26.2774 C   0  0  2  0  0  0  0  0  0  0  0  0
    8.9921  -13.5134   27.6355 O   0  0  0  0  0  0  0  0  0  0  0  0
    7.8694  -14.2619   27.9513 C   0  0  2  0  0  0  0  0  0  0  0  0
   10.1970  -14.4453   27.6866 N   0  0  0  0  0  0  0  0  0  0  0  0
    9.9788  -15.6331   26.8926 C   0  0  0  0  0  0  0  0  0  0  0  0
   10.5791  -14.7577   29.0730 O   0  0  0  0  0  0  0  0  0  0  0  0
   10.5619  -15.9308   29.4870 O   0  0  0  0  0  0  0  0  0  0  0  0
  2  1  1  0
  3  2  2  0
  4  2  1  0
  5  6  1  0
  5  4  1  0
  6  7  1  0
  8  7  1  0
  8  9  1  1
 10  8  1  0
 10 11  2  0
 12 13  1  0
 13 14  2  0
 13 15  1  0
 15 16  1  0
 17 16  1  1
 17 18  1  0
 18 10  1  0
 19 17  1  0
 20 19  2  0
 22 21  1  1
 22 24  1  0
 23 22  1  0
 24 26  1  0
 24 25  1  1
 25 19  1  0
 26 28  1  0
 27 26  2  0
M  END
$$$$
