RQT.pdb
     RDKit          3D

 28 27  0  0  1  0  0  0  0  0999 V2000
    7.0620  -14.2412   15.9141 N   0  0  0  0  0  0  0  0  0  0  0  0
    7.3668  -13.2996   16.9633 C   0  0  0  0  0  0  0  0  0  0  0  0
    6.4216  -12.7762   17.6320 N   0  0  0  0  0  0  0  0  0  0  0  0
    8.7063  -12.9497   17.2598 N   0  0  0  0  0  0  0  0  0  0  0  0
    9.6467  -14.0309   17.5977 C   0  0  0  0  0  0  0  0  0  0  0  0
    9.9679  -13.8826   19.0564 C   0  0  0  0  0  0  0  0  0  0  0  0
    9.3114  -14.8406   19.9777 C   0  0  0  0  0  0  0  0  0  0  0  0
    9.9321  -16.2006   20.0903 C   0  0  2  0  0  0  0  0  0  0  0  0
    9.3143  -17.1102   19.1803 N   0  0  0  0  0  0  0  0  0  0  0  0
    9.7570  -16.6380   21.5093 C   0  0  0  0  0  0  0  0  0  0  0  0
    8.6314  -17.1391   21.8217 O   0  0  0  0  0  0  0  0  0  0  0  0
    6.4666  -12.1117   18.4045 N   0  0  0  0  0  0  0  0  0  0  0  0
   12.9662  -20.3934   24.9045 C   0  0  0  0  0  0  0  0  0  0  0  0
   13.3003  -19.6299   23.7452 O   0  0  0  0  0  0  0  0  0  0  0  0
   14.2950  -20.0025   23.1115 C   0  0  0  0  0  0  0  0  0  0  0  0
   12.4678  -18.5052   23.4108 C   0  0  0  0  0  0  0  0  0  0  0  0
   11.3100  -18.1473   24.2455 C   0  0  1  0  0  0  0  0  0  0  0  0
   10.5010  -16.9596   23.8793 N   0  0  0  0  0  0  0  0  0  0  0  0
   10.7333  -16.5342   22.5003 C   0  0  0  0  0  0  0  0  0  0  0  0
   10.4581  -15.8554   24.8387 O   0  0  0  0  0  0  0  0  0  0  0  0
   11.4144  -15.0485   24.8846 C   0  0  0  0  0  0  0  0  0  0  0  0
    7.7570  -13.1353   25.4665 C   0  0  2  0  0  0  0  0  0  0  0  0
    7.9361  -13.9508   26.7065 O   0  0  0  0  0  0  0  0  0  0  0  0
    6.9510  -14.9247   26.7453 C   0  0  2  0  0  0  0  0  0  0  0  0
    9.2856  -14.6586   26.7312 N   0  0  0  0  0  0  0  0  0  0  0  0
    9.3636  -15.6807   25.7122 C   0  0  0  0  0  0  0  0  0  0  0  0
    9.5987  -15.1766   28.0726 O   0  0  0  0  0  0  0  0  0  0  0  0
    9.7278  -16.3987   28.2668 O   0  0  0  0  0  0  0  0  0  0  0  0
  2  1  1  0
  3  2  2  0
  4  2  1  0
  5  6  1  0
  5  4  1  0
  6  7  1  0
  8  7  1  0
  8  9  1  6
 10  8  1  0
 10 11  2  0
 12 13  1  0
 13 14  2  0
 13 15  1  0
 15 16  1  0
 17 16  1  6
 17 18  1  0
 18 10  1  0
 19 17  1  0
 20 19  2  0
 22 21  1  1
 22 24  1  0
 23 22  1  0
 24 26  1  0
 24 25  1  1
 25 19  1  0
 26 28  1  0
 27 26  2  0
M  END
$$$$
