RQT.pdb
     RDKit          3D

 28 27  0  0  1  0  0  0  0  0999 V2000
    8.5002  -12.0371   19.3440 N   0  0  0  0  0  0  0  0  0  0  0  0
    8.7531  -13.4096   18.9799 C   0  0  0  0  0  0  0  0  0  0  0  0
    9.9206  -13.7593   18.6202 N   0  0  0  0  0  0  0  0  0  0  0  0
    7.7180  -14.3747   19.0179 N   0  0  0  0  0  0  0  0  0  0  0  0
    6.8133  -14.3756   20.1794 C   0  0  0  0  0  0  0  0  0  0  0  0
    6.9908  -15.7002   20.8629 C   0  0  0  0  0  0  0  0  0  0  0  0
    5.7512  -16.4074   21.2640 C   0  0  0  0  0  0  0  0  0  0  0  0
    5.9207  -17.7383   21.9328 C   0  0  2  0  0  0  0  0  0  0  0  0
    4.7205  -18.5045   21.8355 N   0  0  0  0  0  0  0  0  0  0  0  0
    6.2831  -17.4619   23.3568 C   0  0  0  0  0  0  0  0  0  0  0  0
    5.3580  -17.0246   24.1109 O   0  0  0  0  0  0  0  0  0  0  0  0
   10.2482  -14.6618   18.2759 N   0  0  0  0  0  0  0  0  0  0  0  0
   10.3198  -20.4343   27.1724 C   0  0  0  0  0  0  0  0  0  0  0  0
    9.9490  -19.2894   27.9408 O   0  0  0  0  0  0  0  0  0  0  0  0
   10.4050  -19.2288   29.0889 C   0  0  0  0  0  0  0  0  0  0  0  0
    9.0875  -18.3125   27.3297 C   0  0  0  0  0  0  0  0  0  0  0  0
    8.6262  -18.4745   25.9417 C   0  0  1  0  0  0  0  0  0  0  0  0
    7.8460  -17.3816   25.3126 N   0  0  0  0  0  0  0  0  0  0  0  0
    7.5517  -17.6491   23.9059 C   0  0  0  0  0  0  0  0  0  0  0  0
    8.2822  -16.0094   25.5741 O   0  0  0  0  0  0  0  0  0  0  0  0
    9.0859  -15.4629   24.7848 C   0  0  0  0  0  0  0  0  0  0  0  0
    7.3001  -11.6389   27.5173 C   0  0  2  0  0  0  0  0  0  0  0  0
    6.9418  -13.0452   27.1580 O   0  0  0  0  0  0  0  0  0  0  0  0
    6.2713  -13.0380   25.9453 C   0  0  1  0  0  0  0  0  0  0  0  0
    8.1772  -13.9229   26.9968 N   0  0  0  0  0  0  0  0  0  0  0  0
    7.8171  -15.2899   26.6955 C   0  0  0  0  0  0  0  0  0  0  0  0
    9.0682  -13.8200   28.1635 O   0  0  0  0  0  0  0  0  0  0  0  0
    9.2840  -14.8091   28.8865 O   0  0  0  0  0  0  0  0  0  0  0  0
  2  1  1  0
  3  2  2  0
  4  2  1  0
  5  6  1  0
  5  4  1  0
  6  7  1  0
  8  7  1  0
  8  9  1  1
 10  8  1  0
 10 11  2  0
 12 13  1  0
 13 14  2  0
 13 15  1  0
 15 16  1  0
 17 16  1  1
 17 18  1  0
 18 10  1  0
 19 17  1  0
 20 19  2  0
 22 21  1  1
 22 24  1  0
 23 22  1  0
 24 26  1  0
 24 25  1  1
 25 19  1  0
 26 28  1  0
 27 26  2  0
M  END
$$$$
