RQT.pdb
     RDKit          3D

 28 27  0  0  1  0  0  0  0  0999 V2000
    7.1462  -13.7688   20.2107 N   0  0  0  0  0  0  0  0  0  0  0  0
    7.8944  -13.1558   19.1408 C   0  0  0  0  0  0  0  0  0  0  0  0
    7.3187  -12.3323   18.3630 N   0  0  0  0  0  0  0  0  0  0  0  0
    9.2634  -13.4585   18.9444 N   0  0  0  0  0  0  0  0  0  0  0  0
    9.6827  -14.8666   19.0398 C   0  0  0  0  0  0  0  0  0  0  0  0
   10.4156  -15.0108   20.3419 C   0  0  0  0  0  0  0  0  0  0  0  0
   10.9317  -16.3629   20.6627 C   0  0  0  0  0  0  0  0  0  0  0  0
   10.0542  -17.2363   21.5080 C   0  0  2  0  0  0  0  0  0  0  0  0
    8.7430  -17.3188   20.9502 N   0  0  0  0  0  0  0  0  0  0  0  0
   10.0333  -16.6317   22.8753 C   0  0  0  0  0  0  0  0  0  0  0  0
   11.1578  -16.4374   23.4351 O   0  0  0  0  0  0  0  0  0  0  0  0
    7.6795  -11.8707   17.5280 N   0  0  0  0  0  0  0  0  0  0  0  0
    6.0904  -12.4973   25.6263 C   0  0  0  0  0  0  0  0  0  0  0  0
    7.0411  -12.8172   26.6424 O   0  0  0  0  0  0  0  0  0  0  0  0
    7.0400  -12.0896   27.6425 C   0  0  0  0  0  0  0  0  0  0  0  0
    7.9119  -13.9419   26.4265 C   0  0  0  0  0  0  0  0  0  0  0  0
    7.9557  -14.6247   25.1237 C   0  0  2  0  0  0  0  0  0  0  0  0
    8.9119  -15.7416   24.9306 N   0  0  0  0  0  0  0  0  0  0  0  0
    8.8777  -16.2716   23.5687 C   0  0  0  0  0  0  0  0  0  0  0  0
    8.9539  -16.7753   25.9656 O   0  0  0  0  0  0  0  0  0  0  0  0
    7.8805  -17.2691   26.3798 C   0  0  0  0  0  0  0  0  0  0  0  0
   10.9779  -19.9829   25.8256 C   0  0  2  0  0  0  0  0  0  0  0  0
   11.3333  -19.3046   27.1095 O   0  0  0  0  0  0  0  0  0  0  0  0
   12.5440  -18.6502   26.9472 C   0  0  2  0  0  0  0  0  0  0  0  0
   10.2954  -18.2621   27.5078 N   0  0  0  0  0  0  0  0  0  0  0  0
   10.1768  -17.2267   26.5063 C   0  0  0  0  0  0  0  0  0  0  0  0
   10.5632  -17.7192   28.8492 O   0  0  0  0  0  0  0  0  0  0  0  0
   10.8530  -16.5191   29.0019 O   0  0  0  0  0  0  0  0  0  0  0  0
  2  1  1  0
  3  2  2  0
  4  2  1  0
  5  6  1  0
  5  4  1  0
  6  7  1  0
  8  7  1  0
  8  9  1  6
 10  8  1  0
 10 11  2  0
 12 13  1  0
 13 14  2  0
 13 15  1  0
 15 16  1  0
 17 16  1  6
 17 18  1  0
 18 10  1  0
 19 17  1  0
 20 19  2  0
 22 21  1  1
 22 24  1  0
 23 22  1  0
 24 26  1  0
 24 25  1  1
 25 19  1  0
 26 28  1  0
 27 26  2  0
M  END
$$$$
