RQT.pdb
     RDKit          3D

 28 27  0  0  1  0  0  0  0  0999 V2000
    7.0699  -13.5639   14.7426 N   0  0  0  0  0  0  0  0  0  0  0  0
    8.4788  -13.8290   14.9014 C   0  0  0  0  0  0  0  0  0  0  0  0
    9.2430  -13.7937   13.8868 N   0  0  0  0  0  0  0  0  0  0  0  0
    9.0237  -14.1280   16.1734 N   0  0  0  0  0  0  0  0  0  0  0  0
    8.1750  -14.8440   17.1402 C   0  0  0  0  0  0  0  0  0  0  0  0
    7.8217  -13.8586   18.2160 C   0  0  0  0  0  0  0  0  0  0  0  0
    8.5691  -13.9767   19.4908 C   0  0  0  0  0  0  0  0  0  0  0  0
    8.2477  -15.1598   20.3535 C   0  0  2  0  0  0  0  0  0  0  0  0
    6.8701  -15.5117   20.2283 N   0  0  0  0  0  0  0  0  0  0  0  0
    8.5921  -14.7760   21.7569 C   0  0  0  0  0  0  0  0  0  0  0  0
    9.7956  -14.4333   21.9803 O   0  0  0  0  0  0  0  0  0  0  0  0
   10.2498  -13.9470   13.8297 N   0  0  0  0  0  0  0  0  0  0  0  0
    5.6871  -11.5727   26.2702 C   0  0  0  0  0  0  0  0  0  0  0  0
    6.7498  -12.2075   26.9818 O   0  0  0  0  0  0  0  0  0  0  0  0
    6.9143  -11.8503   28.1544 C   0  0  0  0  0  0  0  0  0  0  0  0
    7.5335  -13.1963   26.2903 C   0  0  0  0  0  0  0  0  0  0  0  0
    7.3093  -13.4753   24.8630 C   0  0  1  0  0  0  0  0  0  0  0  0
    8.1133  -14.5325   24.2035 N   0  0  0  0  0  0  0  0  0  0  0  0
    7.6931  -14.7691   22.8235 C   0  0  0  0  0  0  0  0  0  0  0  0
    8.3623  -15.7582   24.9634 O   0  0  0  0  0  0  0  0  0  0  0  0
    7.3968  -16.4951   25.2676 C   0  0  0  0  0  0  0  0  0  0  0  0
   12.3073  -17.2738   24.8499 C   0  0  2  0  0  0  0  0  0  0  0  0
   11.0698  -18.1023   24.9808 O   0  0  0  0  0  0  0  0  0  0  0  0
   11.4037  -19.3120   25.5685 C   0  0  1  0  0  0  0  0  0  0  0  0
   10.0276  -17.4309   25.8673 N   0  0  0  0  0  0  0  0  0  0  0  0
    9.6654  -16.1268   25.3603 C   0  0  0  0  0  0  0  0  0  0  0  0
   10.4621  -17.3873   27.2727 O   0  0  0  0  0  0  0  0  0  0  0  0
   10.6184  -16.2991   27.8552 O   0  0  0  0  0  0  0  0  0  0  0  0
  2  1  1  0
  3  2  2  0
  4  2  1  0
  5  6  1  0
  5  4  1  0
  6  7  1  0
  8  7  1  0
  8  9  1  1
 10  8  1  0
 10 11  2  0
 12 13  1  0
 13 14  2  0
 13 15  1  0
 15 16  1  0
 17 16  1  6
 17 18  1  0
 18 10  1  0
 19 17  1  0
 20 19  2  0
 22 21  1  6
 22 24  1  0
 23 22  1  0
 24 26  1  0
 24 25  1  6
 25 19  1  0
 26 28  1  0
 27 26  2  0
M  END
$$$$
