RQT.pdb
     RDKit          3D

 28 27  0  0  1  0  0  0  0  0999 V2000
    8.6141  -13.0864   17.0380 N   0  0  0  0  0  0  0  0  0  0  0  0
    8.2714  -12.8762   18.4232 C   0  0  0  0  0  0  0  0  0  0  0  0
    8.9261  -12.0322   19.1114 N   0  0  0  0  0  0  0  0  0  0  0  0
    7.2139  -13.5974   19.0282 N   0  0  0  0  0  0  0  0  0  0  0  0
    7.4917  -14.9601   19.5115 C   0  0  0  0  0  0  0  0  0  0  0  0
    8.0258  -14.8217   20.9075 C   0  0  0  0  0  0  0  0  0  0  0  0
    9.2119  -15.6442   21.2451 C   0  0  0  0  0  0  0  0  0  0  0  0
    8.9754  -16.8446   22.1113 C   0  0  2  0  0  0  0  0  0  0  0  0
    7.6059  -17.2425   22.0532 N   0  0  0  0  0  0  0  0  0  0  0  0
    9.3783  -16.4608   23.4991 C   0  0  0  0  0  0  0  0  0  0  0  0
   10.5955  -16.1403   23.6764 O   0  0  0  0  0  0  0  0  0  0  0  0
    8.7609  -11.7070   20.0640 N   0  0  0  0  0  0  0  0  0  0  0  0
    7.5203  -12.1859   26.3093 C   0  0  0  0  0  0  0  0  0  0  0  0
    6.6014  -13.1724   25.8392 O   0  0  0  0  0  0  0  0  0  0  0  0
    5.5463  -12.7501   25.3511 C   0  0  0  0  0  0  0  0  0  0  0  0
    6.9683  -14.5575   25.9688 C   0  0  0  0  0  0  0  0  0  0  0  0
    8.2750  -14.9444   26.5238 C   0  0  1  0  0  0  0  0  0  0  0  0
    8.9815  -16.1141   25.9478 N   0  0  0  0  0  0  0  0  0  0  0  0
    8.5193  -16.4315   24.5978 C   0  0  0  0  0  0  0  0  0  0  0  0
    9.1468  -17.2876   26.8065 O   0  0  0  0  0  0  0  0  0  0  0  0
    8.1302  -17.8922   27.2172 C   0  0  0  0  0  0  0  0  0  0  0  0
   10.5586  -20.4914   26.0154 C   0  0  2  0  0  0  0  0  0  0  0  0
   11.3863  -20.0090   27.1631 O   0  0  0  0  0  0  0  0  0  0  0  0
   12.5517  -19.4473   26.6667 C   0  0  2  0  0  0  0  0  0  0  0  0
   10.6660  -18.9372   27.9724 N   0  0  0  0  0  0  0  0  0  0  0  0
   10.4258  -17.7516   27.1813 C   0  0  0  0  0  0  0  0  0  0  0  0
   11.3748  -18.6416   29.2278 O   0  0  0  0  0  0  0  0  0  0  0  0
   11.8614  -17.5149   29.4318 O   0  0  0  0  0  0  0  0  0  0  0  0
  2  1  1  0
  3  2  2  0
  4  2  1  0
  5  6  1  0
  5  4  1  0
  6  7  1  0
  8  7  1  0
  8  9  1  1
 10  8  1  0
 10 11  2  0
 12 13  1  0
 13 14  2  0
 13 15  1  0
 15 16  1  0
 17 16  1  6
 17 18  1  0
 18 10  1  0
 19 17  1  0
 20 19  2  0
 22 21  1  1
 22 24  1  0
 23 22  1  0
 24 26  1  0
 24 25  1  1
 25 19  1  0
 26 28  1  0
 27 26  2  0
M  END
$$$$
