RQT.pdb
     RDKit          3D

 28 27  0  0  1  0  0  0  0  0999 V2000
    8.5447  -14.1265   16.4328 N   0  0  0  0  0  0  0  0  0  0  0  0
    8.2649  -13.4834   17.6931 C   0  0  0  0  0  0  0  0  0  0  0  0
    8.5439  -12.2533   17.8464 N   0  0  0  0  0  0  0  0  0  0  0  0
    7.6826  -14.2040   18.7638 N   0  0  0  0  0  0  0  0  0  0  0  0
    7.5659  -15.6658   18.6332 C   0  0  0  0  0  0  0  0  0  0  0  0
    8.9195  -16.2356   18.9437 C   0  0  0  0  0  0  0  0  0  0  0  0
    9.5339  -15.8161   20.2259 C   0  0  0  0  0  0  0  0  0  0  0  0
    9.2384  -16.6660   21.4249 C   0  0  2  0  0  0  0  0  0  0  0  0
    7.9544  -17.2770   21.3019 N   0  0  0  0  0  0  0  0  0  0  0  0
    9.3079  -15.7673   22.6178 C   0  0  0  0  0  0  0  0  0  0  0  0
   10.4167  -15.1850   22.8351 O   0  0  0  0  0  0  0  0  0  0  0  0
    8.4364  -11.6636   18.6718 N   0  0  0  0  0  0  0  0  0  0  0  0
    5.6045  -13.6538   26.8220 C   0  0  0  0  0  0  0  0  0  0  0  0
    6.5545  -12.5880   26.8082 O   0  0  0  0  0  0  0  0  0  0  0  0
    6.5002  -11.7931   27.7541 C   0  0  0  0  0  0  0  0  0  0  0  0
    7.4849  -12.5231   25.7126 C   0  0  0  0  0  0  0  0  0  0  0  0
    7.4443  -13.5153   24.6267 C   0  0  2  0  0  0  0  0  0  0  0  0
    8.3837  -14.6620   24.6668 N   0  0  0  0  0  0  0  0  0  0  0  0
    8.2515  -15.5284   23.4969 C   0  0  0  0  0  0  0  0  0  0  0  0
    8.4998  -15.3902   25.9309 O   0  0  0  0  0  0  0  0  0  0  0  0
    7.4688  -15.8650   26.4594 C   0  0  0  0  0  0  0  0  0  0  0  0
   10.2414  -18.4946   26.6699 C   0  0  2  0  0  0  0  0  0  0  0  0
   10.8400  -17.5001   27.6120 O   0  0  0  0  0  0  0  0  0  0  0  0
   12.0393  -17.0510   27.0827 C   0  0  2  0  0  0  0  0  0  0  0  0
    9.9383  -16.2868   27.8058 N   0  0  0  0  0  0  0  0  0  0  0  0
    9.7473  -15.5684   26.5662 C   0  0  0  0  0  0  0  0  0  0  0  0
   10.4270  -15.4190   28.8893 O   0  0  0  0  0  0  0  0  0  0  0  0
   10.7125  -14.2283   28.6689 O   0  0  0  0  0  0  0  0  0  0  0  0
  2  1  1  0
  3  2  2  0
  4  2  1  0
  5  6  1  0
  5  4  1  0
  6  7  1  0
  8  7  1  0
  8  9  1  6
 10  8  1  0
 10 11  2  0
 12 13  1  0
 13 14  2  0
 13 15  1  0
 15 16  1  0
 17 16  1  6
 17 18  1  0
 18 10  1  0
 19 17  1  0
 20 19  2  0
 22 21  1  1
 22 24  1  0
 23 22  1  0
 24 26  1  0
 24 25  1  1
 25 19  1  0
 26 28  1  0
 27 26  2  0
M  END
$$$$
