RQT.pdb
     RDKit          3D

 28 27  0  0  1  0  0  0  0  0999 V2000
    7.6469  -12.2556   18.1132 N   0  0  0  0  0  0  0  0  0  0  0  0
    8.9122  -12.7580   18.5894 C   0  0  0  0  0  0  0  0  0  0  0  0
    9.8666  -11.9487   18.8103 N   0  0  0  0  0  0  0  0  0  0  0  0
    9.1066  -14.1421   18.8152 N   0  0  0  0  0  0  0  0  0  0  0  0
    7.9492  -15.0389   18.6614 C   0  0  0  0  0  0  0  0  0  0  0  0
    7.7613  -15.7302   19.9805 C   0  0  0  0  0  0  0  0  0  0  0  0
    8.9169  -16.5072   20.4890 C   0  0  0  0  0  0  0  0  0  0  0  0
    8.6054  -17.7804   21.2164 C   0  0  2  0  0  0  0  0  0  0  0  0
    7.3558  -18.3141   20.7798 N   0  0  0  0  0  0  0  0  0  0  0  0
    8.5830  -17.4494   22.6743 C   0  0  0  0  0  0  0  0  0  0  0  0
    7.4639  -17.1039   23.1683 O   0  0  0  0  0  0  0  0  0  0  0  0
   10.8319  -12.1440   19.0760 N   0  0  0  0  0  0  0  0  0  0  0  0
   12.4565  -19.6171   27.1977 C   0  0  0  0  0  0  0  0  0  0  0  0
   11.6884  -20.2474   26.1723 O   0  0  0  0  0  0  0  0  0  0  0  0
   11.9029  -21.4516   25.9887 C   0  0  0  0  0  0  0  0  0  0  0  0
   10.7412  -19.4455   25.4445 C   0  0  0  0  0  0  0  0  0  0  0  0
   10.5835  -18.0117   25.7356 C   0  0  2  0  0  0  0  0  0  0  0  0
    9.6020  -17.2239   24.9514 N   0  0  0  0  0  0  0  0  0  0  0  0
    9.6934  -17.4934   23.5176 C   0  0  0  0  0  0  0  0  0  0  0  0
    9.4676  -15.8036   25.2778 O   0  0  0  0  0  0  0  0  0  0  0  0
   10.2620  -14.9815   24.7672 C   0  0  0  0  0  0  0  0  0  0  0  0
    5.8813  -14.2334   27.0830 C   0  0  2  0  0  0  0  0  0  0  0  0
    6.9052  -13.4537   26.3223 O   0  0  0  0  0  0  0  0  0  0  0  0
    6.8578  -12.1325   26.7375 C   0  0  1  0  0  0  0  0  0  0  0  0
    8.3169  -13.9674   26.5789 N   0  0  0  0  0  0  0  0  0  0  0  0
    8.4632  -15.3414   26.1548 C   0  0  0  0  0  0  0  0  0  0  0  0
    8.7182  -13.7656   27.9804 O   0  0  0  0  0  0  0  0  0  0  0  0
    9.0235  -14.7342   28.6989 O   0  0  0  0  0  0  0  0  0  0  0  0
  2  1  1  0
  3  2  2  0
  4  2  1  0
  5  6  1  0
  5  4  1  0
  6  7  1  0
  8  7  1  0
  8  9  1  6
 10  8  1  0
 10 11  2  0
 12 13  1  0
 13 14  2  0
 13 15  1  0
 15 16  1  0
 17 16  1  1
 17 18  1  0
 18 10  1  0
 19 17  1  0
 20 19  2  0
 22 21  1  6
 22 24  1  0
 23 22  1  0
 24 26  1  0
 24 25  1  6
 25 19  1  0
 26 28  1  0
 27 26  2  0
M  END
$$$$
