RQT.pdb
     RDKit          3D

 28 27  0  0  1  0  0  0  0  0999 V2000
    8.1218  -16.8924   15.2129 N   0  0  0  0  0  0  0  0  0  0  0  0
    9.2571  -16.3644   15.9288 C   0  0  0  0  0  0  0  0  0  0  0  0
   10.2958  -17.0814   16.0763 N   0  0  0  0  0  0  0  0  0  0  0  0
    9.2313  -15.0564   16.4702 N   0  0  0  0  0  0  0  0  0  0  0  0
    7.9307  -14.3742   16.5729 C   0  0  0  0  0  0  0  0  0  0  0  0
    7.4419  -14.5875   17.9761 C   0  0  0  0  0  0  0  0  0  0  0  0
    7.2842  -13.3733   18.8118 C   0  0  0  0  0  0  0  0  0  0  0  0
    8.3978  -13.0627   19.7662 C   0  0  2  0  0  0  0  0  0  0  0  0
    9.6605  -13.3894   19.1863 N   0  0  0  0  0  0  0  0  0  0  0  0
    8.1387  -13.8591   21.0048 C   0  0  0  0  0  0  0  0  0  0  0  0
    6.9934  -13.7313   21.5412 O   0  0  0  0  0  0  0  0  0  0  0  0
   11.1544  -16.8785   16.5882 N   0  0  0  0  0  0  0  0  0  0  0  0
   10.1955  -19.5533   22.7970 C   0  0  0  0  0  0  0  0  0  0  0  0
   11.0826  -18.5129   22.3857 O   0  0  0  0  0  0  0  0  0  0  0  0
   12.2304  -18.8595   22.0820 C   0  0  0  0  0  0  0  0  0  0  0  0
   10.5803  -17.1650   22.3578 C   0  0  0  0  0  0  0  0  0  0  0  0
    9.2016  -16.8634   22.7742 C   0  0  1  0  0  0  0  0  0  0  0  0
    8.7642  -15.4479   22.8374 N   0  0  0  0  0  0  0  0  0  0  0  0
    9.0575  -14.7213   21.6033 C   0  0  0  0  0  0  0  0  0  0  0  0
    9.0858  -14.7001   24.0536 O   0  0  0  0  0  0  0  0  0  0  0  0
   10.1643  -14.0672   24.1145 C   0  0  0  0  0  0  0  0  0  0  0  0
    7.0644  -11.9023   25.6457 C   0  0  2  0  0  0  0  0  0  0  0  0
    7.2082  -13.0030   26.6470 O   0  0  0  0  0  0  0  0  0  0  0  0
    6.0781  -13.8033   26.5946 C   0  0  2  0  0  0  0  0  0  0  0  0
    8.4136  -13.8872   26.3505 N   0  0  0  0  0  0  0  0  0  0  0  0
    8.2074  -14.6773   25.1579 C   0  0  0  0  0  0  0  0  0  0  0  0
    8.7782  -14.7105   27.5146 O   0  0  0  0  0  0  0  0  0  0  0  0
    8.7683  -15.9524   27.4417 O   0  0  0  0  0  0  0  0  0  0  0  0
  2  1  1  0
  3  2  2  0
  4  2  1  0
  5  6  1  0
  5  4  1  0
  6  7  1  0
  8  7  1  0
  8  9  1  6
 10  8  1  0
 10 11  2  0
 12 13  1  0
 13 14  2  0
 13 15  1  0
 15 16  1  0
 17 16  1  6
 17 18  1  0
 18 10  1  0
 19 17  1  0
 20 19  2  0
 22 21  1  1
 22 24  1  0
 23 22  1  0
 24 26  1  0
 24 25  1  1
 25 19  1  0
 26 28  1  0
 27 26  2  0
M  END
$$$$
