QTK.pdb
     RDKit          3D

 26 25  0  0  1  0  0  0  0  0999 V2000
   20.9958  -18.4236  -18.0681 N   0  0  0  0  0  0  0  0  0  0  0  0
   21.1983  -17.2581  -18.8933 C   0  0  0  0  0  0  0  0  0  0  0  0
   20.2688  -16.8530  -19.6266 O   0  0  0  0  0  0  0  0  0  0  0  0
   22.5143  -16.6169  -18.8092 C   0  0  0  0  0  0  0  0  0  0  0  0
   23.3947  -17.1366  -17.7225 C   0  0  0  0  0  0  0  0  0  0  0  0
   24.6950  -17.7407  -18.2172 C   0  0  2  0  0  0  0  0  0  0  0  0
   24.5841  -18.2523  -19.5523 N   0  0  0  0  0  0  0  0  0  0  0  0
   25.0504  -18.8106  -17.2326 C   0  0  0  0  0  0  0  0  0  0  0  0
   24.4282  -19.8976  -17.3313 O   0  0  0  0  0  0  0  0  0  0  0  0
   28.5798  -20.0677  -16.5186 C   0  0  0  0  0  0  0  0  0  0  0  0
   27.9161  -19.6901  -15.2133 C   0  0  1  0  0  0  0  0  0  0  0  0
   28.3893  -18.5066  -14.6844 O   0  0  0  0  0  0  0  0  0  0  0  0
   26.4161  -19.7417  -15.3306 C   0  0  2  0  0  0  0  0  0  0  0  0
   26.0156  -18.6770  -16.2271 N   0  0  0  0  0  0  0  0  0  0  0  0
   25.7439  -19.6461  -14.0112 C   0  0  0  0  0  0  0  0  0  0  0  0
   25.2026  -18.5256  -13.7418 O   0  0  0  0  0  0  0  0  0  0  0  0
   25.6889  -20.7107  -13.0880 N   0  0  0  0  0  0  0  0  0  0  0  0
   24.9859  -20.4846  -11.8159 C   0  0  1  0  0  0  0  0  0  0  0  0
   23.5074  -20.4018  -12.0651 C   0  0  0  0  0  0  0  0  0  0  0  0
   22.7767  -20.2354  -10.7704 C   0  0  0  0  0  0  0  0  0  0  0  0
   21.2616  -20.2772  -10.9762 C   0  0  0  0  0  0  0  0  0  0  0  0
   20.6422  -19.9811   -9.6265 C   0  0  0  0  0  0  0  0  0  0  0  0
   19.1979  -19.9933   -9.7810 N   0  0  0  0  0  0  0  0  0  0  0  0
   25.4119  -21.4531  -10.8140 C   0  0  0  0  0  0  0  0  0  0  0  0
   25.1141  -21.1842   -9.4598 O   0  0  0  0  0  0  0  0  0  0  0  0
   26.0178  -22.4906  -11.1015 O   0  0  0  0  0  0  0  0  0  0  0  0
  1  2  1  0
  2  3  2  0
  4  5  1  0
  4  2  1  0
  5  6  1  0
  6  8  1  0
  6  7  1  6
  8 14  1  0
  9  8  2  0
 11 12  1  0
 11 10  1  6
 13 11  1  0
 13 14  1  6
 15 13  1  0
 15 16  2  0
 17 15  1  0
 18 17  1  0
 18 19  1  6
 19 20  1  0
 20 21  1  0
 22 21  1  0
 22 23  1  0
 24 18  1  0
 25 24  1  0
 26 24  2  0
M  END
$$$$
