QTK.pdb
     RDKit          3D

 26 25  0  0  1  0  0  0  0  0999 V2000
   16.3483  -12.6834  -18.6369 N   0  0  0  0  0  0  0  0  0  0  0  0
   16.8556  -14.0152  -18.8585 C   0  0  0  0  0  0  0  0  0  0  0  0
   16.1353  -14.8614  -19.4338 O   0  0  0  0  0  0  0  0  0  0  0  0
   18.2150  -14.2861  -18.3805 C   0  0  0  0  0  0  0  0  0  0  0  0
   18.9754  -13.0796  -17.9418 C   0  0  0  0  0  0  0  0  0  0  0  0
   20.4273  -13.3552  -17.6005 C   0  0  2  0  0  0  0  0  0  0  0  0
   20.6320  -14.6966  -17.1367 N   0  0  0  0  0  0  0  0  0  0  0  0
   20.8055  -12.3393  -16.5683 C   0  0  0  0  0  0  0  0  0  0  0  0
   20.2158  -12.4129  -15.4614 O   0  0  0  0  0  0  0  0  0  0  0  0
   24.1202  -11.7098  -15.1105 C   0  0  0  0  0  0  0  0  0  0  0  0
   23.6311  -10.3793  -15.6374 C   0  0  1  0  0  0  0  0  0  0  0  0
   24.2787   -9.9782  -16.7880 O   0  0  0  0  0  0  0  0  0  0  0  0
   22.1300  -10.3576  -15.7509 C   0  0  2  0  0  0  0  0  0  0  0  0
   21.7583  -11.3308  -16.7570 N   0  0  0  0  0  0  0  0  0  0  0  0
   21.6077   -9.0037  -16.0605 C   0  0  0  0  0  0  0  0  0  0  0  0
   21.0843   -8.8586  -17.2120 O   0  0  0  0  0  0  0  0  0  0  0  0
   21.6708   -7.9214  -15.1586 N   0  0  0  0  0  0  0  0  0  0  0  0
   21.1718   -6.6146  -15.6138 C   0  0  1  0  0  0  0  0  0  0  0  0
   19.7542   -6.7544  -16.0892 C   0  0  0  0  0  0  0  0  0  0  0  0
   19.2448   -5.4364  -16.5803 C   0  0  0  0  0  0  0  0  0  0  0  0
   17.8079   -5.5501  -17.0924 C   0  0  0  0  0  0  0  0  0  0  0  0
   17.4206   -4.1691  -17.5780 C   0  0  0  0  0  0  0  0  0  0  0  0
   16.0701   -4.2402  -18.1084 N   0  0  0  0  0  0  0  0  0  0  0  0
   21.4088   -5.5930  -14.6022 C   0  0  0  0  0  0  0  0  0  0  0  0
   21.2608   -4.2393  -14.9764 O   0  0  0  0  0  0  0  0  0  0  0  0
   21.7313   -5.8638  -13.4408 O   0  0  0  0  0  0  0  0  0  0  0  0
  1  2  1  0
  2  3  2  0
  4  5  1  0
  4  2  1  0
  5  6  1  0
  6  8  1  0
  6  7  1  1
  8 14  1  0
  9  8  2  0
 11 12  1  0
 11 10  1  6
 13 11  1  0
 13 14  1  6
 15 13  1  0
 15 16  2  0
 17 15  1  0
 18 17  1  0
 18 19  1  1
 19 20  1  0
 20 21  1  0
 22 21  1  0
 22 23  1  0
 24 18  1  0
 25 24  1  0
 26 24  2  0
M  END
$$$$
