QTK.pdb
     RDKit          3D

 26 25  0  0  1  0  0  0  0  0999 V2000
   22.1138  -21.1607  -11.9359 N   0  0  0  0  0  0  0  0  0  0  0  0
   21.5019  -21.2994  -10.6372 C   0  0  0  0  0  0  0  0  0  0  0  0
   20.3980  -21.8797  -10.5348 O   0  0  0  0  0  0  0  0  0  0  0  0
   22.2391  -20.7351   -9.5024 C   0  0  0  0  0  0  0  0  0  0  0  0
   23.5116  -20.0451   -9.8643 C   0  0  0  0  0  0  0  0  0  0  0  0
   24.7043  -20.9739   -9.9868 C   0  0  2  0  0  0  0  0  0  0  0  0
   25.3578  -21.1892   -8.7286 N   0  0  0  0  0  0  0  0  0  0  0  0
   25.6147  -20.3412  -10.9924 C   0  0  0  0  0  0  0  0  0  0  0  0
   26.2927  -19.3589  -10.6005 O   0  0  0  0  0  0  0  0  0  0  0  0
   28.6466  -21.2010  -12.6998 C   0  0  0  0  0  0  0  0  0  0  0  0
   27.6150  -20.9943  -13.7861 C   0  0  1  0  0  0  0  0  0  0  0  0
   27.1496  -22.1755  -14.3268 O   0  0  0  0  0  0  0  0  0  0  0  0
   26.5205  -20.0676  -13.3279 C   0  0  2  0  0  0  0  0  0  0  0  0
   25.7546  -20.7689  -12.3183 N   0  0  0  0  0  0  0  0  0  0  0  0
   25.6713  -19.5995  -14.4511 C   0  0  0  0  0  0  0  0  0  0  0  0
   24.5422  -20.1749  -14.5730 O   0  0  0  0  0  0  0  0  0  0  0  0
   26.0596  -18.5823  -15.3474 N   0  0  0  0  0  0  0  0  0  0  0  0
   25.1402  -18.2418  -16.4440 C   0  0  1  0  0  0  0  0  0  0  0  0
   25.4217  -16.8465  -16.9226 C   0  0  0  0  0  0  0  0  0  0  0  0
   24.5108  -16.4992  -18.0572 C   0  0  0  0  0  0  0  0  0  0  0  0
   24.7917  -15.0918  -18.5866 C   0  0  0  0  0  0  0  0  0  0  0  0
   23.7649  -14.8334  -19.6692 C   0  0  0  0  0  0  0  0  0  0  0  0
   23.9527  -13.4770  -20.1539 N   0  0  0  0  0  0  0  0  0  0  0  0
   25.1502  -19.2818  -17.4647 C   0  0  0  0  0  0  0  0  0  0  0  0
   23.9353  -19.5836  -18.1187 O   0  0  0  0  0  0  0  0  0  0  0  0
   26.1712  -19.9034  -17.7764 O   0  0  0  0  0  0  0  0  0  0  0  0
  1  2  1  0
  2  3  2  0
  4  5  1  0
  4  2  1  0
  5  6  1  0
  6  8  1  0
  6  7  1  1
  8 14  1  0
  9  8  2  0
 11 12  1  0
 11 10  1  1
 13 11  1  0
 13 14  1  1
 15 13  1  0
 15 16  2  0
 17 15  1  0
 18 17  1  0
 18 19  1  6
 19 20  1  0
 20 21  1  0
 22 21  1  0
 22 23  1  0
 24 18  1  0
 25 24  1  0
 26 24  2  0
M  END
$$$$
