QTK.pdb
     RDKit          3D

 26 25  0  0  1  0  0  0  0  0999 V2000
   14.2400  -14.2618  -13.9850 N   0  0  0  0  0  0  0  0  0  0  0  0
   13.7047  -13.5184  -15.0990 C   0  0  0  0  0  0  0  0  0  0  0  0
   13.0006  -14.1056  -15.9506 O   0  0  0  0  0  0  0  0  0  0  0  0
   14.0339  -12.0906  -15.1521 C   0  0  0  0  0  0  0  0  0  0  0  0
   14.8253  -11.5879  -13.9914 C   0  0  0  0  0  0  0  0  0  0  0  0
   16.0213  -10.7402  -14.3804 C   0  0  2  0  0  0  0  0  0  0  0  0
   17.0862  -11.5238  -14.9358 N   0  0  0  0  0  0  0  0  0  0  0  0
   16.4400  -10.0256  -13.1336 C   0  0  0  0  0  0  0  0  0  0  0  0
   16.7454  -10.7423  -12.1480 O   0  0  0  0  0  0  0  0  0  0  0  0
   19.3826   -8.2368  -12.6832 C   0  0  0  0  0  0  0  0  0  0  0  0
   18.3099   -7.2453  -12.2918 C   0  0  1  0  0  0  0  0  0  0  0  0
   18.0906   -6.2749  -13.2481 O   0  0  0  0  0  0  0  0  0  0  0  0
   17.0553   -7.9484  -11.8466 C   0  0  2  0  0  0  0  0  0  0  0  0
   16.5108   -8.6335  -13.0006 N   0  0  0  0  0  0  0  0  0  0  0  0
   16.0754   -7.0182  -11.2330 C   0  0  0  0  0  0  0  0  0  0  0  0
   15.1213   -6.6384  -11.9856 O   0  0  0  0  0  0  0  0  0  0  0  0
   16.1649   -6.5626   -9.9014 N   0  0  0  0  0  0  0  0  0  0  0  0
   15.2631   -5.4790   -9.4815 C   0  0  1  0  0  0  0  0  0  0  0  0
   14.4136   -5.9464   -8.3348 C   0  0  0  0  0  0  0  0  0  0  0  0
   13.4580   -4.8687   -7.9308 C   0  0  0  0  0  0  0  0  0  0  0  0
   12.6256   -5.2880   -6.7179 C   0  0  0  0  0  0  0  0  0  0  0  0
   11.6007   -4.1931   -6.5083 C   0  0  0  0  0  0  0  0  0  0  0  0
   10.7339   -4.5909   -5.4127 N   0  0  0  0  0  0  0  0  0  0  0  0
   16.0080   -4.2457   -9.2639 C   0  0  0  0  0  0  0  0  0  0  0  0
   17.4142   -4.3273   -9.1598 O   0  0  0  0  0  0  0  0  0  0  0  0
   15.4613   -3.1420   -9.1679 O   0  0  0  0  0  0  0  0  0  0  0  0
  1  2  1  0
  2  3  2  0
  4  5  1  0
  4  2  1  0
  5  6  1  0
  6  8  1  0
  6  7  1  1
  8 14  1  0
  9  8  2  0
 11 12  1  0
 11 10  1  6
 13 11  1  0
 13 14  1  6
 15 13  1  0
 15 16  2  0
 17 15  1  0
 18 17  1  0
 18 19  1  1
 19 20  1  0
 20 21  1  0
 22 21  1  0
 22 23  1  0
 24 18  1  0
 25 24  1  0
 26 24  2  0
M  END
$$$$
