QTK.pdb
     RDKit          3D

 26 25  0  0  1  0  0  0  0  0999 V2000
   25.7078  -21.9256  -11.0485 N   0  0  0  0  0  0  0  0  0  0  0  0
   25.9540  -21.8344  -12.4667 C   0  0  0  0  0  0  0  0  0  0  0  0
   27.1100  -21.5870  -12.8769 O   0  0  0  0  0  0  0  0  0  0  0  0
   24.8000  -22.0444  -13.3465 C   0  0  0  0  0  0  0  0  0  0  0  0
   24.2064  -20.7958  -13.9079 C   0  0  0  0  0  0  0  0  0  0  0  0
   22.7971  -20.5110  -13.4251 C   0  0  2  0  0  0  0  0  0  0  0  0
   22.1681  -21.6723  -12.8666 N   0  0  0  0  0  0  0  0  0  0  0  0
   22.0549  -19.9863  -14.6144 C   0  0  0  0  0  0  0  0  0  0  0  0
   21.9412  -20.7622  -15.5959 O   0  0  0  0  0  0  0  0  0  0  0  0
   18.5913  -19.3078  -14.9129 C   0  0  0  0  0  0  0  0  0  0  0  0
   19.2831  -18.0057  -15.2488 C   0  0  1  0  0  0  0  0  0  0  0  0
   19.2502  -17.0899  -14.2171 O   0  0  0  0  0  0  0  0  0  0  0  0
   20.6643  -18.2489  -15.7963 C   0  0  2  0  0  0  0  0  0  0  0  0
   21.4900  -18.7079  -14.6986 N   0  0  0  0  0  0  0  0  0  0  0  0
   21.2284  -17.0460  -16.4572 C   0  0  0  0  0  0  0  0  0  0  0  0
   22.0704  -16.3786  -15.7741 O   0  0  0  0  0  0  0  0  0  0  0  0
   20.8760  -16.6379  -17.7603 N   0  0  0  0  0  0  0  0  0  0  0  0
   21.4863  -15.4071  -18.2860 C   0  0  1  0  0  0  0  0  0  0  0  0
   21.5840  -15.4923  -19.7820 C   0  0  0  0  0  0  0  0  0  0  0  0
   22.2048  -14.2456  -20.3281 C   0  0  0  0  0  0  0  0  0  0  0  0
   22.3676  -14.3234  -21.8470 C   0  0  0  0  0  0  0  0  0  0  0  0
   23.0150  -13.0218  -22.2711 C   0  0  0  0  0  0  0  0  0  0  0  0
   23.2266  -13.0706  -23.7073 N   0  0  0  0  0  0  0  0  0  0  0  0
   20.8092  -14.2307  -17.7557 C   0  0  0  0  0  0  0  0  0  0  0  0
   21.5987  -13.1213  -17.3808 O   0  0  0  0  0  0  0  0  0  0  0  0
   19.5826  -14.1678  -17.6230 O   0  0  0  0  0  0  0  0  0  0  0  0
  1  2  1  0
  2  3  2  0
  4  5  1  0
  4  2  1  0
  5  6  1  0
  6  8  1  0
  6  7  1  6
  8 14  1  0
  9  8  2  0
 11 12  1  0
 11 10  1  1
 13 11  1  0
 13 14  1  1
 15 13  1  0
 15 16  2  0
 17 15  1  0
 18 17  1  0
 18 19  1  6
 19 20  1  0
 20 21  1  0
 22 21  1  0
 22 23  1  0
 24 18  1  0
 25 24  1  0
 26 24  2  0
M  END
$$$$
