QTK.pdb
     RDKit          3D

 26 25  0  0  1  0  0  0  0  0999 V2000
   25.5813  -25.9443  -15.7126 N   0  0  0  0  0  0  0  0  0  0  0  0
   25.8188  -24.5642  -16.0575 C   0  0  0  0  0  0  0  0  0  0  0  0
   25.5066  -24.1509  -17.1965 O   0  0  0  0  0  0  0  0  0  0  0  0
   26.4248  -23.7247  -15.0191 C   0  0  0  0  0  0  0  0  0  0  0  0
   25.4637  -22.8594  -14.2750 C   0  0  0  0  0  0  0  0  0  0  0  0
   24.8141  -21.7848  -15.1256 C   0  0  2  0  0  0  0  0  0  0  0  0
   25.7353  -20.7478  -15.4893 N   0  0  0  0  0  0  0  0  0  0  0  0
   23.6674  -21.2609  -14.3187 C   0  0  0  0  0  0  0  0  0  0  0  0
   23.9546  -20.6671  -13.2494 O   0  0  0  0  0  0  0  0  0  0  0  0
   19.1973  -19.4018  -14.1744 C   0  0  0  0  0  0  0  0  0  0  0  0
   20.4517  -19.9231  -14.8390 C   0  0  1  0  0  0  0  0  0  0  0  0
   21.2257  -18.9268  -15.3981 O   0  0  0  0  0  0  0  0  0  0  0  0
   21.2162  -20.8363  -13.9180 C   0  0  2  0  0  0  0  0  0  0  0  0
   22.3196  -21.3896  -14.6755 N   0  0  0  0  0  0  0  0  0  0  0  0
   20.3555  -21.8919  -13.3290 C   0  0  0  0  0  0  0  0  0  0  0  0
   19.9014  -22.7588  -14.1433 O   0  0  0  0  0  0  0  0  0  0  0  0
   20.0395  -21.9607  -11.9563 N   0  0  0  0  0  0  0  0  0  0  0  0
   19.1297  -23.0274  -11.5110 C   0  0  1  0  0  0  0  0  0  0  0  0
   19.1468  -23.1110  -10.0118 C   0  0  0  0  0  0  0  0  0  0  0  0
   18.1902  -24.1620   -9.5450 C   0  0  0  0  0  0  0  0  0  0  0  0
   18.2632  -24.3480   -8.0284 C   0  0  0  0  0  0  0  0  0  0  0  0
   17.2679  -25.4369   -7.6866 C   0  0  0  0  0  0  0  0  0  0  0  0
   17.2526  -25.5963   -6.2428 N   0  0  0  0  0  0  0  0  0  0  0  0
   17.8182  -22.8750  -12.1277 C   0  0  0  0  0  0  0  0  0  0  0  0
   17.1656  -24.0356  -12.5985 O   0  0  0  0  0  0  0  0  0  0  0  0
   17.2611  -21.7795  -12.2530 O   0  0  0  0  0  0  0  0  0  0  0  0
  1  2  1  0
  2  3  2  0
  4  5  1  0
  4  2  1  0
  5  6  1  0
  6  8  1  0
  6  7  1  1
  8 14  1  0
  9  8  2  0
 11 12  1  0
 11 10  1  1
 13 11  1  0
 13 14  1  6
 15 13  1  0
 15 16  2  0
 17 15  1  0
 18 17  1  0
 18 19  1  1
 19 20  1  0
 20 21  1  0
 22 21  1  0
 22 23  1  0
 24 18  1  0
 25 24  1  0
 26 24  2  0
M  END
$$$$
