QTK.pdb
     RDKit          3D

 26 25  0  0  1  0  0  0  0  0999 V2000
   23.3332  -21.0970   -7.7432 N   0  0  0  0  0  0  0  0  0  0  0  0
   23.5084  -20.5201   -9.0534 C   0  0  0  0  0  0  0  0  0  0  0  0
   22.7462  -20.8629   -9.9848 O   0  0  0  0  0  0  0  0  0  0  0  0
   24.5961  -19.5480   -9.2008 C   0  0  0  0  0  0  0  0  0  0  0  0
   25.9342  -20.1450   -9.4826 C   0  0  0  0  0  0  0  0  0  0  0  0
   25.9014  -21.2951  -10.4707 C   0  0  2  0  0  0  0  0  0  0  0  0
   27.1576  -21.9824  -10.5478 N   0  0  0  0  0  0  0  0  0  0  0  0
   25.5069  -20.6955  -11.7843 C   0  0  0  0  0  0  0  0  0  0  0  0
   26.0530  -19.6075  -12.0947 O   0  0  0  0  0  0  0  0  0  0  0  0
   26.1368  -22.1268  -14.9586 C   0  0  0  0  0  0  0  0  0  0  0  0
   24.6543  -21.8290  -14.9825 C   0  0  1  0  0  0  0  0  0  0  0  0
   23.8703  -22.9590  -14.8703 O   0  0  0  0  0  0  0  0  0  0  0  0
   24.3004  -20.7483  -13.9959 C   0  0  2  0  0  0  0  0  0  0  0  0
   24.5838  -21.2620  -12.6717 N   0  0  0  0  0  0  0  0  0  0  0  0
   22.8930  -20.2986  -14.1333 C   0  0  0  0  0  0  0  0  0  0  0  0
   22.0781  -20.7456  -13.2633 O   0  0  0  0  0  0  0  0  0  0  0  0
   22.4507  -19.4302  -15.1526 N   0  0  0  0  0  0  0  0  0  0  0  0
   21.0219  -19.0821  -15.1899 C   0  0  1  0  0  0  0  0  0  0  0  0
   20.8089  -17.9273  -16.1258 C   0  0  0  0  0  0  0  0  0  0  0  0
   19.3756  -17.5000  -16.0967 C   0  0  0  0  0  0  0  0  0  0  0  0
   19.1359  -16.2911  -17.0026 C   0  0  0  0  0  0  0  0  0  0  0  0
   17.8791  -15.6199  -16.4900 C   0  0  0  0  0  0  0  0  0  0  0  0
   17.6627  -14.4132  -17.2692 N   0  0  0  0  0  0  0  0  0  0  0  0
   20.2108  -20.2663  -15.4410 C   0  0  0  0  0  0  0  0  0  0  0  0
   18.9927  -20.3995  -14.7387 O   0  0  0  0  0  0  0  0  0  0  0  0
   20.5452  -21.1497  -16.2373 O   0  0  0  0  0  0  0  0  0  0  0  0
  1  2  1  0
  2  3  2  0
  4  5  1  0
  4  2  1  0
  5  6  1  0
  6  8  1  0
  6  7  1  6
  8 14  1  0
  9  8  2  0
 11 12  1  0
 11 10  1  1
 13 11  1  0
 13 14  1  1
 15 13  1  0
 15 16  2  0
 17 15  1  0
 18 17  1  0
 18 19  1  6
 19 20  1  0
 20 21  1  0
 22 21  1  0
 22 23  1  0
 24 18  1  0
 25 24  1  0
 26 24  2  0
M  END
$$$$
