QTK.pdb
     RDKit          3D

 26 25  0  0  1  0  0  0  0  0999 V2000
   18.0904  -11.9164  -20.1634 N   0  0  0  0  0  0  0  0  0  0  0  0
   19.0442  -12.8327  -20.7386 C   0  0  0  0  0  0  0  0  0  0  0  0
   18.6944  -13.5731  -21.6848 O   0  0  0  0  0  0  0  0  0  0  0  0
   20.3898  -12.8282  -20.1562 C   0  0  0  0  0  0  0  0  0  0  0  0
   20.5620  -11.9175  -18.9869 C   0  0  0  0  0  0  0  0  0  0  0  0
   21.9576  -11.9321  -18.3932 C   0  0  2  0  0  0  0  0  0  0  0  0
   22.4397  -13.2639  -18.1690 N   0  0  0  0  0  0  0  0  0  0  0  0
   21.8709  -11.1441  -17.1236 C   0  0  0  0  0  0  0  0  0  0  0  0
   21.4231  -11.7455  -16.1156 O   0  0  0  0  0  0  0  0  0  0  0  0
   22.7200  -11.2572  -14.5777 C   0  0  0  0  0  0  0  0  0  0  0  0
   23.2386   -9.8587  -14.8274 C   0  0  1  0  0  0  0  0  0  0  0  0
   24.5581   -9.8313  -15.2300 O   0  0  0  0  0  0  0  0  0  0  0  0
   22.3148   -9.0895  -15.7338 C   0  0  2  0  0  0  0  0  0  0  0  0
   22.2513   -9.8029  -16.9927 N   0  0  0  0  0  0  0  0  0  0  0  0
   22.7426   -7.6796  -15.9095 C   0  0  0  0  0  0  0  0  0  0  0  0
   23.5236   -7.4525  -16.8889 O   0  0  0  0  0  0  0  0  0  0  0  0
   22.3288   -6.6306  -15.0625 N   0  0  0  0  0  0  0  0  0  0  0  0
   22.7772   -5.2671  -15.3843 C   0  0  1  0  0  0  0  0  0  0  0  0
   22.0099   -4.7504  -16.5672 C   0  0  0  0  0  0  0  0  0  0  0  0
   22.3662   -3.3207  -16.8259 C   0  0  0  0  0  0  0  0  0  0  0  0
   21.7156   -2.8082  -18.1119 C   0  0  0  0  0  0  0  0  0  0  0  0
   22.1623   -1.3698  -18.2687 C   0  0  0  0  0  0  0  0  0  0  0  0
   21.7034   -0.8939  -19.5621 N   0  0  0  0  0  0  0  0  0  0  0  0
   22.7598   -4.4261  -14.1944 C   0  0  0  0  0  0  0  0  0  0  0  0
   22.1711   -4.9462  -13.0207 O   0  0  0  0  0  0  0  0  0  0  0  0
   23.2360   -3.2864  -14.1737 O   0  0  0  0  0  0  0  0  0  0  0  0
  1  2  1  0
  2  3  2  0
  4  5  1  0
  4  2  1  0
  5  6  1  0
  6  8  1  0
  6  7  1  1
  8 14  1  0
  9  8  2  0
 11 12  1  0
 11 10  1  6
 13 11  1  0
 13 14  1  6
 15 13  1  0
 15 16  2  0
 17 15  1  0
 18 17  1  0
 18 19  1  6
 19 20  1  0
 20 21  1  0
 22 21  1  0
 22 23  1  0
 24 18  1  0
 25 24  1  0
 26 24  2  0
M  END
$$$$
