QTK.pdb
     RDKit          3D

 26 25  0  0  1  0  0  0  0  0999 V2000
   18.9560  -20.1440  -15.6678 N   0  0  0  0  0  0  0  0  0  0  0  0
   19.7758  -21.2283  -16.1498 C   0  0  0  0  0  0  0  0  0  0  0  0
   19.2303  -22.2576  -16.6068 O   0  0  0  0  0  0  0  0  0  0  0  0
   21.2274  -21.0387  -16.0668 C   0  0  0  0  0  0  0  0  0  0  0  0
   21.6551  -19.7167  -15.5229 C   0  0  0  0  0  0  0  0  0  0  0  0
   23.1590  -19.5487  -15.4203 C   0  0  2  0  0  0  0  0  0  0  0  0
   23.7511  -20.4896  -14.5145 N   0  0  0  0  0  0  0  0  0  0  0  0
   23.3845  -18.1335  -14.9881 C   0  0  0  0  0  0  0  0  0  0  0  0
   23.2036  -17.8794  -13.7711 O   0  0  0  0  0  0  0  0  0  0  0  0
   26.3114  -16.4319  -14.4811 C   0  0  0  0  0  0  0  0  0  0  0  0
   25.5925  -15.5902  -15.5115 C   0  0  1  0  0  0  0  0  0  0  0  0
   26.0754  -15.7672  -16.7919 O   0  0  0  0  0  0  0  0  0  0  0  0
   24.0998  -15.7529  -15.4014 C   0  0  2  0  0  0  0  0  0  0  0  0
   23.7775  -17.0947  -15.8409 N   0  0  0  0  0  0  0  0  0  0  0  0
   23.3621  -14.7192  -16.1691 C   0  0  0  0  0  0  0  0  0  0  0  0
   22.9822  -15.0577  -17.3361 O   0  0  0  0  0  0  0  0  0  0  0  0
   23.0817  -13.4313  -15.6677 N   0  0  0  0  0  0  0  0  0  0  0  0
   22.3556  -12.4951  -16.5395 C   0  0  1  0  0  0  0  0  0  0  0  0
   21.6658  -11.4577  -15.7011 C   0  0  0  0  0  0  0  0  0  0  0  0
   20.9309  -10.4940  -16.5780 C   0  0  0  0  0  0  0  0  0  0  0  0
   20.1428   -9.4771  -15.7507 C   0  0  0  0  0  0  0  0  0  0  0  0
   19.4255   -8.5874  -16.7441 C   0  0  0  0  0  0  0  0  0  0  0  0
   18.4659   -7.7780  -16.0133 N   0  0  0  0  0  0  0  0  0  0  0  0
   23.2284  -11.9899  -17.5913 C   0  0  0  0  0  0  0  0  0  0  0  0
   24.5445  -11.6160  -17.2410 O   0  0  0  0  0  0  0  0  0  0  0  0
   22.8642  -11.8774  -18.7664 O   0  0  0  0  0  0  0  0  0  0  0  0
  1  2  1  0
  2  3  2  0
  4  5  1  0
  4  2  1  0
  5  6  1  0
  6  8  1  0
  6  7  1  1
  8 14  1  0
  9  8  2  0
 11 12  1  0
 11 10  1  1
 13 11  1  0
 13 14  1  6
 15 13  1  0
 15 16  2  0
 17 15  1  0
 18 17  1  0
 18 19  1  1
 19 20  1  0
 20 21  1  0
 22 21  1  0
 22 23  1  0
 24 18  1  0
 25 24  1  0
 26 24  2  0
M  END
$$$$
