QTK.pdb
     RDKit          3D

 26 25  0  0  1  0  0  0  0  0999 V2000
   22.9565  -20.8625  -11.1605 N   0  0  0  0  0  0  0  0  0  0  0  0
   22.2776  -20.9428   -9.8906 C   0  0  0  0  0  0  0  0  0  0  0  0
   21.0823  -21.3113   -9.8528 O   0  0  0  0  0  0  0  0  0  0  0  0
   23.0599  -20.5770   -8.7056 C   0  0  0  0  0  0  0  0  0  0  0  0
   24.4296  -20.0613   -8.9954 C   0  0  0  0  0  0  0  0  0  0  0  0
   25.3327  -21.0634   -9.6886 C   0  0  2  0  0  0  0  0  0  0  0  0
   26.3777  -21.5395   -8.8297 N   0  0  0  0  0  0  0  0  0  0  0  0
   25.8726  -20.3620  -10.8957 C   0  0  0  0  0  0  0  0  0  0  0  0
   26.5417  -19.3187  -10.6900 O   0  0  0  0  0  0  0  0  0  0  0  0
   28.3958  -21.0820  -13.2275 C   0  0  0  0  0  0  0  0  0  0  0  0
   27.1571  -20.9153  -14.0789 C   0  0  1  0  0  0  0  0  0  0  0  0
   26.6549  -22.1114  -14.5494 O   0  0  0  0  0  0  0  0  0  0  0  0
   26.1303  -20.0610  -13.3842 C   0  0  2  0  0  0  0  0  0  0  0  0
   25.6814  -20.7890  -12.2154 N   0  0  0  0  0  0  0  0  0  0  0  0
   25.0066  -19.6904  -14.2796 C   0  0  0  0  0  0  0  0  0  0  0  0
   23.9578  -20.4056  -14.1823 O   0  0  0  0  0  0  0  0  0  0  0  0
   25.0625  -18.6181  -15.1939 N   0  0  0  0  0  0  0  0  0  0  0  0
   23.8725  -18.3502  -16.0160 C   0  0  1  0  0  0  0  0  0  0  0  0
   23.9260  -16.9426  -16.5362 C   0  0  0  0  0  0  0  0  0  0  0  0
   22.7194  -16.6583  -17.3736 C   0  0  0  0  0  0  0  0  0  0  0  0
   22.7805  -15.2557  -17.9810 C   0  0  0  0  0  0  0  0  0  0  0  0
   21.5174  -15.0933  -18.8002 C   0  0  0  0  0  0  0  0  0  0  0  0
   21.5000  -13.7443  -19.3389 N   0  0  0  0  0  0  0  0  0  0  0  0
   23.6928  -19.3948  -17.0160 C   0  0  0  0  0  0  0  0  0  0  0  0
   22.3758  -19.8004  -17.3249 O   0  0  0  0  0  0  0  0  0  0  0  0
   24.6399  -19.9337  -17.5980 O   0  0  0  0  0  0  0  0  0  0  0  0
  1  2  1  0
  2  3  2  0
  4  5  1  0
  4  2  1  0
  5  6  1  0
  6  8  1  0
  6  7  1  1
  8 14  1  0
  9  8  2  0
 11 12  1  0
 11 10  1  1
 13 11  1  0
 13 14  1  1
 15 13  1  0
 15 16  2  0
 17 15  1  0
 18 17  1  0
 18 19  1  6
 19 20  1  0
 20 21  1  0
 22 21  1  0
 22 23  1  0
 24 18  1  0
 25 24  1  0
 26 24  2  0
M  END
$$$$
