QTK.pdb
     RDKit          3D

 26 25  0  0  1  0  0  0  0  0999 V2000
   20.3122  -12.2388  -18.1418 N   0  0  0  0  0  0  0  0  0  0  0  0
   19.3374  -13.2808  -18.3518 C   0  0  0  0  0  0  0  0  0  0  0  0
   19.7117  -14.4007  -18.7660 O   0  0  0  0  0  0  0  0  0  0  0  0
   17.9420  -12.9413  -18.0560 C   0  0  0  0  0  0  0  0  0  0  0  0
   17.7330  -11.5627  -17.5249 C   0  0  0  0  0  0  0  0  0  0  0  0
   17.6603  -11.4884  -16.0118 C   0  0  2  0  0  0  0  0  0  0  0  0
   16.5290  -12.1956  -15.4860 N   0  0  0  0  0  0  0  0  0  0  0  0
   17.6186  -10.0306  -15.6748 C   0  0  0  0  0  0  0  0  0  0  0  0
   16.5927   -9.3984  -16.0299 O   0  0  0  0  0  0  0  0  0  0  0  0
   16.6669   -8.4057  -13.0639 C   0  0  0  0  0  0  0  0  0  0  0  0
   18.0868   -7.9000  -13.1866 C   0  0  1  0  0  0  0  0  0  0  0  0
   18.9561   -8.4967  -12.2964 O   0  0  0  0  0  0  0  0  0  0  0  0
   18.5596   -7.9469  -14.6153 C   0  0  2  0  0  0  0  0  0  0  0  0
   18.6338   -9.3411  -15.0006 N   0  0  0  0  0  0  0  0  0  0  0  0
   19.8523   -7.2434  -14.8046 C   0  0  0  0  0  0  0  0  0  0  0  0
   20.8993   -7.9505  -14.6476 O   0  0  0  0  0  0  0  0  0  0  0  0
   19.9518   -5.8768  -15.1381 N   0  0  0  0  0  0  0  0  0  0  0  0
   21.2960   -5.3066  -15.3158 C   0  0  1  0  0  0  0  0  0  0  0  0
   21.2482   -4.2149  -16.3457 C   0  0  0  0  0  0  0  0  0  0  0  0
   22.6083   -3.6189  -16.5262 C   0  0  0  0  0  0  0  0  0  0  0  0
   22.5718   -2.4266  -17.4837 C   0  0  0  0  0  0  0  0  0  0  0  0
   24.0034   -1.9546  -17.6276 C   0  0  0  0  0  0  0  0  0  0  0  0
   24.0174   -0.8327  -18.5502 N   0  0  0  0  0  0  0  0  0  0  0  0
   21.8756   -4.9457  -14.0284 C   0  0  0  0  0  0  0  0  0  0  0  0
   23.2667   -5.1161  -13.8539 O   0  0  0  0  0  0  0  0  0  0  0  0
   21.2025   -4.5008  -13.0929 O   0  0  0  0  0  0  0  0  0  0  0  0
  1  2  1  0
  2  3  2  0
  4  5  1  0
  4  2  1  0
  5  6  1  0
  6  8  1  0
  6  7  1  6
  8 14  1  0
  9  8  2  0
 11 12  1  0
 11 10  1  6
 13 11  1  0
 13 14  1  1
 15 13  1  0
 15 16  2  0
 17 15  1  0
 18 17  1  0
 18 19  1  6
 19 20  1  0
 20 21  1  0
 22 21  1  0
 22 23  1  0
 24 18  1  0
 25 24  1  0
 26 24  2  0
M  END
$$$$
