QTK.pdb
     RDKit          3D

 26 25  0  0  1  0  0  0  0  0999 V2000
   20.1088  -17.4983  -12.9084 N   0  0  0  0  0  0  0  0  0  0  0  0
   19.2719  -18.2225  -13.8331 C   0  0  0  0  0  0  0  0  0  0  0  0
   18.6779  -19.2545  -13.4486 O   0  0  0  0  0  0  0  0  0  0  0  0
   19.1762  -17.6806  -15.1922 C   0  0  0  0  0  0  0  0  0  0  0  0
   19.9642  -16.4352  -15.4256 C   0  0  0  0  0  0  0  0  0  0  0  0
   19.8836  -15.9108  -16.8465 C   0  0  2  0  0  0  0  0  0  0  0  0
   20.6193  -16.7251  -17.7696 N   0  0  0  0  0  0  0  0  0  0  0  0
   20.4036  -14.5082  -16.7956 C   0  0  0  0  0  0  0  0  0  0  0  0
   21.5656  -14.3208  -17.2351 O   0  0  0  0  0  0  0  0  0  0  0  0
   21.5590  -12.5844  -18.3520 C   0  0  0  0  0  0  0  0  0  0  0  0
   20.4096  -11.7469  -17.8377 C   0  0  1  0  0  0  0  0  0  0  0  0
   19.2881  -11.8108  -18.6392 O   0  0  0  0  0  0  0  0  0  0  0  0
   20.1317  -12.0366  -16.3867 C   0  0  2  0  0  0  0  0  0  0  0  0
   19.6881  -13.4125  -16.2977 N   0  0  0  0  0  0  0  0  0  0  0  0
   19.1486  -11.0917  -15.8014 C   0  0  0  0  0  0  0  0  0  0  0  0
   17.9714  -11.5462  -15.6330 O   0  0  0  0  0  0  0  0  0  0  0  0
   19.4646   -9.7651  -15.4423 N   0  0  0  0  0  0  0  0  0  0  0  0
   18.4121   -8.9515  -14.8145 C   0  0  1  0  0  0  0  0  0  0  0  0
   17.9283   -9.6302  -13.5655 C   0  0  0  0  0  0  0  0  0  0  0  0
   16.8343   -8.8276  -12.9356 C   0  0  0  0  0  0  0  0  0  0  0  0
   16.2705   -9.5285  -11.6984 C   0  0  0  0  0  0  0  0  0  0  0  0
   15.1617   -8.6392  -11.1759 C   0  0  0  0  0  0  0  0  0  0  0  0
   14.4687   -9.3564  -10.1198 N   0  0  0  0  0  0  0  0  0  0  0  0
   18.8520   -7.5707  -14.6621 C   0  0  0  0  0  0  0  0  0  0  0  0
   17.8681   -6.5578  -14.6387 O   0  0  0  0  0  0  0  0  0  0  0  0
   20.0417   -7.2556  -14.5538 O   0  0  0  0  0  0  0  0  0  0  0  0
  1  2  1  0
  2  3  2  0
  4  5  1  0
  4  2  1  0
  5  6  1  0
  6  8  1  0
  6  7  1  6
  8 14  1  0
  9  8  2  0
 11 12  1  0
 11 10  1  6
 13 11  1  0
 13 14  1  6
 15 13  1  0
 15 16  2  0
 17 15  1  0
 18 17  1  0
 18 19  1  1
 19 20  1  0
 20 21  1  0
 22 21  1  0
 22 23  1  0
 24 18  1  0
 25 24  1  0
 26 24  2  0
M  END
$$$$
