MYA.pdb
     RDKit          3D

 26 26  0  0  1  0  0  0  0  0999 V2000
   31.8554  -21.9213   -8.4080 C   0  0  0  0  0  0  0  0  0  0  0  0
   32.4594  -22.8942   -9.7912 S   0  0  0  0  0  0  0  0  0  0  0  0
   31.6830  -22.4264  -11.3541 C   0  0  0  0  0  0  0  0  0  0  0  0
   30.5498  -21.4429  -11.1573 C   0  0  0  0  0  0  0  0  0  0  0  0
   29.7999  -21.3606  -12.4678 C   0  0  2  0  0  0  0  0  0  0  0  0
   30.7444  -20.9286  -13.4732 N   0  0  0  0  0  0  0  0  0  0  0  0
   28.6864  -20.3945  -12.4183 C   0  0  0  0  0  0  0  0  0  0  0  0
   28.8118  -19.1659  -12.2254 O   0  0  0  0  0  0  0  0  0  0  0  0
   28.7451  -16.3115  -17.0323 O   0  0  0  0  0  0  0  0  0  0  0  0
   27.9837  -17.1998  -16.2843 C   0  0  0  0  0  0  0  0  0  0  0  0
   27.0976  -16.7151  -15.3513 C   0  0  0  0  0  0  0  0  0  0  0  0
   26.3340  -17.6136  -14.6017 C   0  0  0  0  0  0  0  0  0  0  0  0
   26.4629  -18.9663  -14.7904 C   0  0  0  0  0  0  0  0  0  0  0  0
   25.6571  -19.8955  -13.9984 C   0  0  0  0  0  0  0  0  0  0  0  0
   26.2035  -20.0967  -12.5822 C   0  0  2  0  0  0  0  0  0  0  0  0
   27.3651  -20.9340  -12.6095 N   0  0  0  0  0  0  0  0  0  0  0  0
   25.1325  -20.7823  -11.8287 C   0  0  0  0  0  0  0  0  0  0  0  0
   24.7014  -21.8922  -12.2009 O   0  0  0  0  0  0  0  0  0  0  0  0
   27.3536  -19.4407  -15.7275 C   0  0  0  0  0  0  0  0  0  0  0  0
   28.1286  -18.5612  -16.4898 C   0  0  0  0  0  0  0  0  0  0  0  0
   23.2741  -20.2107   -8.6402 C   0  0  0  0  0  0  0  0  0  0  0  0
   23.4742  -20.8311  -10.0103 C   0  0  2  0  0  0  0  0  0  0  0  0
   24.5828  -20.1845  -10.6728 N   0  0  0  0  0  0  0  0  0  0  0  0
   22.2420  -20.7200  -10.8280 C   0  0  0  0  0  0  0  0  0  0  0  0
   22.1791  -19.9406  -11.8091 O   0  0  0  0  0  0  0  0  0  0  0  0
   21.1222  -21.4795  -10.5266 O   0  0  0  0  0  0  0  0  0  0  0  0
  2  1  1  0
  3  2  1  0
  4  5  1  0
  4  3  1  0
  5  6  1  6
  5  7  1  0
  7  8  2  0
  9 10  1  0
 10 20  2  0
 10 11  1  0
 11 12  2  0
 12 13  1  0
 13 14  1  0
 15 14  1  6
 15 17  1  0
 16  7  1  0
 16 15  1  0
 17 18  2  0
 19 13  2  0
 20 19  1  0
 22 21  1  1
 22 24  1  0
 23 22  1  0
 23 17  1  0
 24 26  1  0
 25 24  2  0
M  END
$$$$
