MYA.pdb
     RDKit          3D

 26 26  0  0  1  0  0  0  0  0999 V2000
   16.6652   -7.2205  -21.5868 C   0  0  0  0  0  0  0  0  0  0  0  0
   18.4091   -6.8477  -21.7978 S   0  0  0  0  0  0  0  0  0  0  0  0
   19.4745   -8.0210  -20.9305 C   0  0  0  0  0  0  0  0  0  0  0  0
   20.9415   -7.7739  -21.2079 C   0  0  0  0  0  0  0  0  0  0  0  0
   21.7197   -8.8365  -20.4651 C   0  0  2  0  0  0  0  0  0  0  0  0
   21.3146  -10.1158  -21.0026 N   0  0  0  0  0  0  0  0  0  0  0  0
   21.4454   -8.8238  -19.0158 C   0  0  0  0  0  0  0  0  0  0  0  0
   20.6135   -9.5559  -18.4376 O   0  0  0  0  0  0  0  0  0  0  0  0
   24.6949  -13.6860  -16.6481 O   0  0  0  0  0  0  0  0  0  0  0  0
   24.3895  -12.3367  -16.5280 C   0  0  0  0  0  0  0  0  0  0  0  0
   24.8332  -11.4531  -17.4835 C   0  0  0  0  0  0  0  0  0  0  0  0
   24.5227  -10.0966  -17.3575 C   0  0  0  0  0  0  0  0  0  0  0  0
   23.7833   -9.6456  -16.2936 C   0  0  0  0  0  0  0  0  0  0  0  0
   23.4658   -8.2225  -16.1743 C   0  0  0  0  0  0  0  0  0  0  0  0
   22.1168   -7.8607  -16.8018 C   0  0  2  0  0  0  0  0  0  0  0  0
   22.2074   -7.8876  -18.2307 N   0  0  0  0  0  0  0  0  0  0  0  0
   21.8236   -6.4800  -16.3631 C   0  0  0  0  0  0  0  0  0  0  0  0
   22.4098   -5.5084  -16.8814 O   0  0  0  0  0  0  0  0  0  0  0  0
   23.3442  -10.5394  -15.3425 C   0  0  0  0  0  0  0  0  0  0  0  0
   23.6421  -11.9016  -15.4469 C   0  0  0  0  0  0  0  0  0  0  0  0
   19.3201   -4.8609  -14.1119 C   0  0  0  0  0  0  0  0  0  0  0  0
   20.5713   -4.8830  -14.9698 C   0  0  2  0  0  0  0  0  0  0  0  0
   20.8712   -6.2448  -15.3465 N   0  0  0  0  0  0  0  0  0  0  0  0
   21.7182   -4.2768  -14.2511 C   0  0  0  0  0  0  0  0  0  0  0  0
   22.5517   -4.9863  -13.6380 O   0  0  0  0  0  0  0  0  0  0  0  0
   21.8987   -2.9024  -14.2390 O   0  0  0  0  0  0  0  0  0  0  0  0
  2  1  1  0
  3  2  1  0
  4  5  1  0
  4  3  1  0
  5  6  1  6
  5  7  1  0
  7  8  2  0
  9 10  1  0
 10 20  2  0
 10 11  1  0
 11 12  2  0
 12 13  1  0
 13 14  1  0
 15 14  1  1
 15 17  1  0
 16  7  1  0
 16 15  1  0
 17 18  2  0
 19 13  2  0
 20 19  1  0
 22 21  1  1
 22 24  1  0
 23 22  1  0
 23 17  1  0
 24 26  1  0
 25 24  2  0
M  END
$$$$
