MYA.pdb
     RDKit          3D

 26 26  0  0  1  0  0  0  0  0999 V2000
   29.8450   -9.7709  -17.9449 C   0  0  0  0  0  0  0  0  0  0  0  0
   29.2450  -11.1298  -16.9359 S   0  0  0  0  0  0  0  0  0  0  0  0
   27.8422  -11.9818  -17.6912 C   0  0  0  0  0  0  0  0  0  0  0  0
   27.2508  -13.0315  -16.7755 C   0  0  0  0  0  0  0  0  0  0  0  0
   26.1107  -13.6838  -17.5246 C   0  0  2  0  0  0  0  0  0  0  0  0
   26.6090  -14.0396  -18.8340 N   0  0  0  0  0  0  0  0  0  0  0  0
   24.9557  -12.7807  -17.6871 C   0  0  0  0  0  0  0  0  0  0  0  0
   24.8025  -11.9763  -18.6314 O   0  0  0  0  0  0  0  0  0  0  0  0
   16.7950   -9.8364  -16.5307 O   0  0  0  0  0  0  0  0  0  0  0  0
   17.9775  -10.5553  -16.4163 C   0  0  0  0  0  0  0  0  0  0  0  0
   18.6312  -10.9709  -17.5523 C   0  0  0  0  0  0  0  0  0  0  0  0
   19.8208  -11.6938  -17.4311 C   0  0  0  0  0  0  0  0  0  0  0  0
   20.3356  -11.9888  -16.1942 C   0  0  0  0  0  0  0  0  0  0  0  0
   21.5819  -12.7466  -16.0823 C   0  0  0  0  0  0  0  0  0  0  0  0
   22.7753  -12.0227  -16.7117 C   0  0  2  0  0  0  0  0  0  0  0  0
   23.9425  -12.8513  -16.6663 N   0  0  0  0  0  0  0  0  0  0  0  0
   23.0041  -10.8216  -15.8810 C   0  0  0  0  0  0  0  0  0  0  0  0
   23.5715  -10.9111  -14.7736 O   0  0  0  0  0  0  0  0  0  0  0  0
   19.6724  -11.5676  -15.0631 C   0  0  0  0  0  0  0  0  0  0  0  0
   18.4805  -10.8428  -15.1589 C   0  0  0  0  0  0  0  0  0  0  0  0
   23.5989   -7.3602  -16.3157 C   0  0  0  0  0  0  0  0  0  0  0  0
   22.8338   -8.3940  -15.5108 C   0  0  2  0  0  0  0  0  0  0  0  0
   22.5803   -9.5528  -16.3350 N   0  0  0  0  0  0  0  0  0  0  0  0
   21.5612   -7.8313  -14.9977 C   0  0  0  0  0  0  0  0  0  0  0  0
   20.4672   -8.0733  -15.5621 O   0  0  0  0  0  0  0  0  0  0  0  0
   21.5491   -7.0190  -13.8745 O   0  0  0  0  0  0  0  0  0  0  0  0
  2  1  1  0
  3  2  1  0
  4  5  1  0
  4  3  1  0
  5  6  1  6
  5  7  1  0
  7  8  2  0
  9 10  1  0
 10 20  2  0
 10 11  1  0
 11 12  2  0
 12 13  1  0
 13 14  1  0
 15 14  1  1
 15 17  1  0
 16  7  1  0
 16 15  1  0
 17 18  2  0
 19 13  2  0
 20 19  1  0
 22 21  1  6
 22 24  1  0
 23 22  1  0
 23 17  1  0
 24 26  1  0
 25 24  2  0
M  END
$$$$
