MYA.pdb
     RDKit          3D

 26 26  0  0  1  0  0  0  0  0999 V2000
   15.5178  -15.3647  -15.0957 C   0  0  0  0  0  0  0  0  0  0  0  0
   16.9487  -14.3649  -14.6744 S   0  0  0  0  0  0  0  0  0  0  0  0
   16.8920  -12.7263  -15.4332 C   0  0  0  0  0  0  0  0  0  0  0  0
   18.1249  -11.9074  -15.1177 C   0  0  0  0  0  0  0  0  0  0  0  0
   17.9414  -10.5569  -15.7725 C   0  0  2  0  0  0  0  0  0  0  0  0
   17.8481  -10.7829  -17.1972 N   0  0  0  0  0  0  0  0  0  0  0  0
   19.0727   -9.6471  -15.5107 C   0  0  0  0  0  0  0  0  0  0  0  0
   19.4780   -9.3161  -14.3756 O   0  0  0  0  0  0  0  0  0  0  0  0
   26.0721   -4.7045  -17.5237 O   0  0  0  0  0  0  0  0  0  0  0  0
   25.0340   -5.6263  -17.5523 C   0  0  0  0  0  0  0  0  0  0  0  0
   25.0445   -6.6871  -16.6776 C   0  0  0  0  0  0  0  0  0  0  0  0
   23.9971   -7.6114  -16.7108 C   0  0  0  0  0  0  0  0  0  0  0  0
   22.9666   -7.4669  -17.6047 C   0  0  0  0  0  0  0  0  0  0  0  0
   21.8766   -8.4424  -17.6284 C   0  0  0  0  0  0  0  0  0  0  0  0
   20.8266   -8.1856  -16.5440 C   0  0  2  0  0  0  0  0  0  0  0  0
   19.7433   -9.1140  -16.6681 N   0  0  0  0  0  0  0  0  0  0  0  0
   20.3200   -6.8183  -16.7867 C   0  0  0  0  0  0  0  0  0  0  0  0
   19.8160   -6.5110  -17.8857 O   0  0  0  0  0  0  0  0  0  0  0  0
   22.9663   -6.4007  -18.4762 C   0  0  0  0  0  0  0  0  0  0  0  0
   24.0032   -5.4627  -18.4620 C   0  0  0  0  0  0  0  0  0  0  0  0
   18.7037   -4.2258  -15.1743 C   0  0  0  0  0  0  0  0  0  0  0  0
   19.9158   -4.5070  -16.0425 C   0  0  2  0  0  0  0  0  0  0  0  0
   20.4019   -5.8398  -15.7711 N   0  0  0  0  0  0  0  0  0  0  0  0
   20.9828   -3.5049  -15.8047 C   0  0  0  0  0  0  0  0  0  0  0  0
   21.9959   -3.7821  -15.1186 O   0  0  0  0  0  0  0  0  0  0  0  0
   20.8865   -2.2290  -16.3381 O   0  0  0  0  0  0  0  0  0  0  0  0
  2  1  1  0
  3  2  1  0
  4  5  1  0
  4  3  1  0
  5  6  1  6
  5  7  1  0
  7  8  2  0
  9 10  1  0
 10 20  2  0
 10 11  1  0
 11 12  2  0
 12 13  1  0
 13 14  1  0
 15 14  1  6
 15 17  1  0
 16  7  1  0
 16 15  1  0
 17 18  2  0
 19 13  2  0
 20 19  1  0
 22 21  1  1
 22 24  1  0
 23 22  1  0
 23 17  1  0
 24 26  1  0
 25 24  2  0
M  END
$$$$
