MYA.pdb
     RDKit          3D

 26 26  0  0  1  0  0  0  0  0999 V2000
   23.6759  -10.8462  -24.0289 C   0  0  0  0  0  0  0  0  0  0  0  0
   25.2504  -11.4588  -23.4205 S   0  0  0  0  0  0  0  0  0  0  0  0
   25.6379  -10.8413  -21.7674 C   0  0  0  0  0  0  0  0  0  0  0  0
   24.3933  -10.4800  -20.9861 C   0  0  0  0  0  0  0  0  0  0  0  0
   24.8376   -9.6591  -19.7965 C   0  0  2  0  0  0  0  0  0  0  0  0
   25.6762  -10.5089  -18.9814 N   0  0  0  0  0  0  0  0  0  0  0  0
   23.7013   -9.1921  -18.9801 C   0  0  0  0  0  0  0  0  0  0  0  0
   22.6787   -8.6314  -19.4297 O   0  0  0  0  0  0  0  0  0  0  0  0
   20.9602  -15.2037  -17.4232 O   0  0  0  0  0  0  0  0  0  0  0  0
   21.3705  -13.9588  -16.9648 C   0  0  0  0  0  0  0  0  0  0  0  0
   22.6532  -13.7973  -16.4967 C   0  0  0  0  0  0  0  0  0  0  0  0
   23.0606  -12.5422  -16.0370 C   0  0  0  0  0  0  0  0  0  0  0  0
   22.1940  -11.4789  -16.0501 C   0  0  0  0  0  0  0  0  0  0  0  0
   22.6341  -10.1705  -15.5656 C   0  0  0  0  0  0  0  0  0  0  0  0
   22.7134   -9.1215  -16.6781 C   0  0  2  0  0  0  0  0  0  0  0  0
   23.8036   -9.4109  -17.5605 N   0  0  0  0  0  0  0  0  0  0  0  0
   22.9697   -7.8325  -16.0016 C   0  0  0  0  0  0  0  0  0  0  0  0
   24.1130   -7.5419  -15.5958 O   0  0  0  0  0  0  0  0  0  0  0  0
   20.9116  -11.6520  -16.5211 C   0  0  0  0  0  0  0  0  0  0  0  0
   20.4808  -12.8982  -16.9864 C   0  0  0  0  0  0  0  0  0  0  0  0
   21.2262   -4.5987  -15.6616 C   0  0  0  0  0  0  0  0  0  0  0  0
   22.2014   -5.6491  -15.1638 C   0  0  2  0  0  0  0  0  0  0  0  0
   21.9168   -6.9112  -15.8062 N   0  0  0  0  0  0  0  0  0  0  0  0
   22.1261   -5.7865  -13.6891 C   0  0  0  0  0  0  0  0  0  0  0  0
   21.6106   -6.7976  -13.1543 O   0  0  0  0  0  0  0  0  0  0  0  0
   22.6268   -4.7949  -12.8599 O   0  0  0  0  0  0  0  0  0  0  0  0
  2  1  1  0
  3  2  1  0
  4  5  1  0
  4  3  1  0
  5  6  1  1
  5  7  1  0
  7  8  2  0
  9 10  1  0
 10 20  2  0
 10 11  1  0
 11 12  2  0
 12 13  1  0
 13 14  1  0
 15 14  1  1
 15 17  1  0
 16  7  1  0
 16 15  1  0
 17 18  2  0
 19 13  2  0
 20 19  1  0
 22 21  1  6
 22 24  1  0
 23 22  1  0
 23 17  1  0
 24 26  1  0
 25 24  2  0
M  END
$$$$
