MYA.pdb
     RDKit          3D

 26 26  0  0  1  0  0  0  0  0999 V2000
   28.1221  -14.2351  -15.3593 C   0  0  0  0  0  0  0  0  0  0  0  0
   27.5077  -12.6263  -15.8682 S   0  0  0  0  0  0  0  0  0  0  0  0
   25.7770  -12.6811  -16.3838 C   0  0  0  0  0  0  0  0  0  0  0  0
   25.2506  -11.3143  -16.7642 C   0  0  0  0  0  0  0  0  0  0  0  0
   23.7931  -11.4849  -17.1294 C   0  0  2  0  0  0  0  0  0  0  0  0
   23.7452  -12.2973  -18.3242 N   0  0  0  0  0  0  0  0  0  0  0  0
   23.1286  -10.1973  -17.4057 C   0  0  0  0  0  0  0  0  0  0  0  0
   23.1228   -9.6171  -18.5127 O   0  0  0  0  0  0  0  0  0  0  0  0
   17.2919  -11.1202  -20.2215 O   0  0  0  0  0  0  0  0  0  0  0  0
   18.0101  -10.5084  -19.2026 C   0  0  0  0  0  0  0  0  0  0  0  0
   18.5089  -11.2702  -18.1723 C   0  0  0  0  0  0  0  0  0  0  0  0
   19.2310  -10.6492  -17.1499 C   0  0  0  0  0  0  0  0  0  0  0  0
   19.4431   -9.2940  -17.1687 C   0  0  0  0  0  0  0  0  0  0  0  0
   20.2008   -8.6571  -16.0915 C   0  0  0  0  0  0  0  0  0  0  0  0
   21.6616   -8.3949  -16.4681 C   0  0  2  0  0  0  0  0  0  0  0  0
   22.4420   -9.5836  -16.2987 N   0  0  0  0  0  0  0  0  0  0  0  0
   22.1436   -7.3633  -15.5256 C   0  0  0  0  0  0  0  0  0  0  0  0
   22.3920   -7.6514  -14.3375 O   0  0  0  0  0  0  0  0  0  0  0  0
   18.9389   -8.5408  -18.2054 C   0  0  0  0  0  0  0  0  0  0  0  0
   18.2132   -9.1395  -19.2399 C   0  0  0  0  0  0  0  0  0  0  0  0
   23.1681   -3.7727  -15.7805 C   0  0  0  0  0  0  0  0  0  0  0  0
   22.8629   -5.0602  -15.0380 C   0  0  2  0  0  0  0  0  0  0  0  0
   22.3292   -6.0328  -15.9628 N   0  0  0  0  0  0  0  0  0  0  0  0
   21.9096   -4.8191  -13.9278 C   0  0  0  0  0  0  0  0  0  0  0  0
   20.6807   -5.0301  -14.0667 O   0  0  0  0  0  0  0  0  0  0  0  0
   22.3557   -4.3516  -12.7014 O   0  0  0  0  0  0  0  0  0  0  0  0
  2  1  1  0
  3  2  1  0
  4  5  1  0
  4  3  1  0
  5  6  1  6
  5  7  1  0
  7  8  2  0
  9 10  1  0
 10 20  2  0
 10 11  1  0
 11 12  2  0
 12 13  1  0
 13 14  1  0
 15 14  1  1
 15 17  1  0
 16  7  1  0
 16 15  1  0
 17 18  2  0
 19 13  2  0
 20 19  1  0
 22 21  1  6
 22 24  1  0
 23 22  1  0
 23 17  1  0
 24 26  1  0
 25 24  2  0
M  END
$$$$
