MYA.pdb
     RDKit          3D

 26 26  0  0  1  0  0  0  0  0999 V2000
   26.3001  -33.9483  -13.2069 C   0  0  0  0  0  0  0  0  0  0  0  0
   27.4127  -33.8255  -14.6110 S   0  0  0  0  0  0  0  0  0  0  0  0
   26.9519  -32.4932  -15.7410 C   0  0  0  0  0  0  0  0  0  0  0  0
   27.7967  -32.4910  -16.9966 C   0  0  0  0  0  0  0  0  0  0  0  0
   29.1153  -31.8401  -16.6441 C   0  0  2  0  0  0  0  0  0  0  0  0
   28.8636  -30.4255  -16.4854 N   0  0  0  0  0  0  0  0  0  0  0  0
   30.1321  -32.0247  -17.6966 C   0  0  0  0  0  0  0  0  0  0  0  0
   29.9046  -32.4687  -18.8427 O   0  0  0  0  0  0  0  0  0  0  0  0
   32.3392  -26.0753  -21.1100 O   0  0  0  0  0  0  0  0  0  0  0  0
   32.6413  -27.2060  -20.3626 C   0  0  0  0  0  0  0  0  0  0  0  0
   33.4872  -28.1570  -20.8830 C   0  0  0  0  0  0  0  0  0  0  0  0
   33.7878  -29.2926  -20.1263 C   0  0  0  0  0  0  0  0  0  0  0  0
   33.2474  -29.4622  -18.8769 C   0  0  0  0  0  0  0  0  0  0  0  0
   33.5707  -30.6562  -18.0959 C   0  0  0  0  0  0  0  0  0  0  0  0
   32.5550  -31.7854  -18.2902 C   0  0  2  0  0  0  0  0  0  0  0  0
   31.4811  -31.6581  -17.3513 N   0  0  0  0  0  0  0  0  0  0  0  0
   33.2875  -33.0400  -18.0176 C   0  0  0  0  0  0  0  0  0  0  0  0
   33.5619  -33.3768  -16.8482 O   0  0  0  0  0  0  0  0  0  0  0  0
   32.4013  -28.5034  -18.3657 C   0  0  0  0  0  0  0  0  0  0  0  0
   32.0857  -27.3585  -19.1038 C   0  0  0  0  0  0  0  0  0  0  0  0
   33.4591  -36.2789  -19.2140 C   0  0  0  0  0  0  0  0  0  0  0  0
   34.3466  -35.1252  -18.7857 C   0  0  2  0  0  0  0  0  0  0  0  0
   33.6869  -33.8754  -19.0845 N   0  0  0  0  0  0  0  0  0  0  0  0
   35.6658  -35.1921  -19.4598 C   0  0  0  0  0  0  0  0  0  0  0  0
   36.0296  -34.3055  -20.2695 O   0  0  0  0  0  0  0  0  0  0  0  0
   36.5352  -36.2426  -19.2102 O   0  0  0  0  0  0  0  0  0  0  0  0
  2  1  1  0
  3  2  1  0
  4  5  1  0
  4  3  1  0
  5  6  1  6
  5  7  1  0
  7  8  2  0
  9 10  1  0
 10 20  2  0
 10 11  1  0
 11 12  2  0
 12 13  1  0
 13 14  1  0
 15 14  1  1
 15 17  1  0
 16  7  1  0
 16 15  1  0
 17 18  2  0
 19 13  2  0
 20 19  1  0
 22 21  1  6
 22 24  1  0
 23 22  1  0
 23 17  1  0
 24 26  1  0
 25 24  2  0
M  END
$$$$
