MYA.pdb
     RDKit          3D

 26 26  0  0  1  0  0  0  0  0999 V2000
   29.9132  -12.3821  -16.8380 C   0  0  0  0  0  0  0  0  0  0  0  0
   28.6015  -12.7911  -15.6818 S   0  0  0  0  0  0  0  0  0  0  0  0
   26.9704  -12.7820  -16.4587 C   0  0  0  0  0  0  0  0  0  0  0  0
   26.5738  -11.4028  -16.9388 C   0  0  0  0  0  0  0  0  0  0  0  0
   25.2171  -11.5329  -17.5937 C   0  0  2  0  0  0  0  0  0  0  0  0
   25.3864  -12.3643  -18.7640 N   0  0  0  0  0  0  0  0  0  0  0  0
   24.6688  -10.2296  -18.0142 C   0  0  0  0  0  0  0  0  0  0  0  0
   25.0659   -9.5692  -18.9983 O   0  0  0  0  0  0  0  0  0  0  0  0
   20.9108  -10.7716  -23.0849 O   0  0  0  0  0  0  0  0  0  0  0  0
   21.0588  -10.2459  -21.8082 C   0  0  0  0  0  0  0  0  0  0  0  0
   21.2122  -11.0957  -20.7382 C   0  0  0  0  0  0  0  0  0  0  0  0
   21.3609  -10.5610  -19.4559 C   0  0  0  0  0  0  0  0  0  0  0  0
   21.3545   -9.2032  -19.2606 C   0  0  0  0  0  0  0  0  0  0  0  0
   21.5110   -8.6572  -17.9124 C   0  0  0  0  0  0  0  0  0  0  0  0
   22.9770   -8.4471  -17.5236 C   0  0  2  0  0  0  0  0  0  0  0  0
   23.5957   -9.7007  -17.2127 N   0  0  0  0  0  0  0  0  0  0  0  0
   22.9570   -7.6050  -16.3090 C   0  0  0  0  0  0  0  0  0  0  0  0
   22.7573   -8.1104  -15.1861 O   0  0  0  0  0  0  0  0  0  0  0  0
   21.2001   -8.3613  -20.3394 C   0  0  0  0  0  0  0  0  0  0  0  0
   21.0497   -8.8727  -21.6321 C   0  0  0  0  0  0  0  0  0  0  0  0
   23.6318   -4.0117  -15.5190 C   0  0  0  0  0  0  0  0  0  0  0  0
   23.1449   -5.4136  -15.2035 C   0  0  2  0  0  0  0  0  0  0  0  0
   23.1650   -6.2112  -16.4076 N   0  0  0  0  0  0  0  0  0  0  0  0
   21.7812   -5.3832  -14.6215 C   0  0  0  0  0  0  0  0  0  0  0  0
   20.7658   -5.5869  -15.3296 O   0  0  0  0  0  0  0  0  0  0  0  0
   21.5936   -5.1274  -13.2720 O   0  0  0  0  0  0  0  0  0  0  0  0
  2  1  1  0
  3  2  1  0
  4  5  1  0
  4  3  1  0
  5  6  1  6
  5  7  1  0
  7  8  2  0
  9 10  1  0
 10 20  2  0
 10 11  1  0
 11 12  2  0
 12 13  1  0
 13 14  1  0
 15 14  1  1
 15 17  1  0
 16  7  1  0
 16 15  1  0
 17 18  2  0
 19 13  2  0
 20 19  1  0
 22 21  1  6
 22 24  1  0
 23 22  1  0
 23 17  1  0
 24 26  1  0
 25 24  2  0
M  END
$$$$
