MYA.pdb
     RDKit          3D

 26 26  0  0  1  0  0  0  0  0999 V2000
   29.0021  -15.7559  -17.1888 C   0  0  0  0  0  0  0  0  0  0  0  0
   27.7923  -17.0307  -16.8199 S   0  0  0  0  0  0  0  0  0  0  0  0
   28.3888  -18.2117  -15.5897 C   0  0  0  0  0  0  0  0  0  0  0  0
   27.2903  -19.1296  -15.0990 C   0  0  0  0  0  0  0  0  0  0  0  0
   27.8474  -19.9013  -13.9240 C   0  0  2  0  0  0  0  0  0  0  0  0
   28.9211  -20.7281  -14.4272 N   0  0  0  0  0  0  0  0  0  0  0  0
   26.8367  -20.7706  -13.2926 C   0  0  0  0  0  0  0  0  0  0  0  0
   26.5995  -21.9520  -13.6250 O   0  0  0  0  0  0  0  0  0  0  0  0
   29.2309  -20.6913   -6.7382 O   0  0  0  0  0  0  0  0  0  0  0  0
   28.1314  -20.5972   -7.5811 C   0  0  0  0  0  0  0  0  0  0  0  0
   27.9828  -21.5020   -8.6058 C   0  0  0  0  0  0  0  0  0  0  0  0
   26.8744  -21.4025   -9.4507 C   0  0  0  0  0  0  0  0  0  0  0  0
   25.9412  -20.4144   -9.2647 C   0  0  0  0  0  0  0  0  0  0  0  0
   24.7857  -20.3221  -10.1571 C   0  0  0  0  0  0  0  0  0  0  0  0
   25.0533  -20.9250  -11.5389 C   0  0  2  0  0  0  0  0  0  0  0  0
   26.0797  -20.1894  -12.2144 N   0  0  0  0  0  0  0  0  0  0  0  0
   23.7883  -20.7897  -12.2914 C   0  0  0  0  0  0  0  0  0  0  0  0
   23.3964  -19.6723  -12.6839 O   0  0  0  0  0  0  0  0  0  0  0  0
   26.1001  -19.5135   -8.2353 C   0  0  0  0  0  0  0  0  0  0  0  0
   27.2008  -19.5928   -7.3766 C   0  0  0  0  0  0  0  0  0  0  0  0
   21.5975  -23.0631  -14.1822 C   0  0  0  0  0  0  0  0  0  0  0  0
   21.8277  -21.7842  -13.3989 C   0  0  2  0  0  0  0  0  0  0  0  0
   23.0054  -21.9308  -12.5757 N   0  0  0  0  0  0  0  0  0  0  0  0
   20.6469  -21.4530  -12.5649 C   0  0  0  0  0  0  0  0  0  0  0  0
   20.7179  -21.4363  -11.3125 O   0  0  0  0  0  0  0  0  0  0  0  0
   19.4280  -21.1518  -13.1524 O   0  0  0  0  0  0  0  0  0  0  0  0
  2  1  1  0
  3  2  1  0
  4  5  1  0
  4  3  1  0
  5  6  1  6
  5  7  1  0
  7  8  2  0
  9 10  1  0
 10 20  2  0
 10 11  1  0
 11 12  2  0
 12 13  1  0
 13 14  1  0
 15 14  1  1
 15 17  1  0
 16  7  1  0
 16 15  1  0
 17 18  2  0
 19 13  2  0
 20 19  1  0
 22 21  1  1
 22 24  1  0
 23 22  1  0
 23 17  1  0
 24 26  1  0
 25 24  2  0
M  END
$$$$
