MYA.pdb
     RDKit          3D

 26 26  0  0  1  0  0  0  0  0999 V2000
   29.1317  -19.0017  -16.8844 C   0  0  0  0  0  0  0  0  0  0  0  0
   27.4237  -18.4825  -17.0779 S   0  0  0  0  0  0  0  0  0  0  0  0
   26.3395  -19.8450  -17.5599 C   0  0  0  0  0  0  0  0  0  0  0  0
   25.6743  -20.4956  -16.3665 C   0  0  0  0  0  0  0  0  0  0  0  0
   26.7753  -21.0544  -15.4936 C   0  0  2  0  0  0  0  0  0  0  0  0
   27.2765  -22.2422  -16.1475 N   0  0  0  0  0  0  0  0  0  0  0  0
   26.2940  -21.4220  -14.1485 C   0  0  0  0  0  0  0  0  0  0  0  0
   25.7785  -22.5202  -13.8474 O   0  0  0  0  0  0  0  0  0  0  0  0
   25.8825  -20.9110   -5.4181 O   0  0  0  0  0  0  0  0  0  0  0  0
   26.0575  -20.5844   -6.7564 C   0  0  0  0  0  0  0  0  0  0  0  0
   25.1245  -20.9904   -7.6813 C   0  0  0  0  0  0  0  0  0  0  0  0
   25.3057  -20.6587   -9.0265 C   0  0  0  0  0  0  0  0  0  0  0  0
   26.4010  -19.9359   -9.4259 C   0  0  0  0  0  0  0  0  0  0  0  0
   26.5781  -19.5959  -10.8377 C   0  0  0  0  0  0  0  0  0  0  0  0
   26.0023  -20.6563  -11.7803 C   0  0  2  0  0  0  0  0  0  0  0  0
   26.4408  -20.4217  -13.1232 N   0  0  0  0  0  0  0  0  0  0  0  0
   24.5339  -20.4987  -11.7181 C   0  0  0  0  0  0  0  0  0  0  0  0
   23.9392  -20.4935  -10.6215 O   0  0  0  0  0  0  0  0  0  0  0  0
   27.3292  -19.5346   -8.4911 C   0  0  0  0  0  0  0  0  0  0  0  0
   27.1697  -19.8543   -7.1392 C   0  0  0  0  0  0  0  0  0  0  0  0
   21.8214  -19.7128  -14.1650 C   0  0  0  0  0  0  0  0  0  0  0  0
   22.3578  -20.1453  -12.8133 C   0  0  2  0  0  0  0  0  0  0  0  0
   23.7844  -20.3516  -12.9065 N   0  0  0  0  0  0  0  0  0  0  0  0
   21.6825  -21.3798  -12.3448 C   0  0  0  0  0  0  0  0  0  0  0  0
   20.5859  -21.3321  -11.7373 O   0  0  0  0  0  0  0  0  0  0  0  0
   22.2499  -22.6247  -12.5682 O   0  0  0  0  0  0  0  0  0  0  0  0
  2  1  1  0
  3  2  1  0
  4  5  1  0
  4  3  1  0
  5  6  1  6
  5  7  1  0
  7  8  2  0
  9 10  1  0
 10 20  2  0
 10 11  1  0
 11 12  2  0
 12 13  1  0
 13 14  1  0
 15 14  1  1
 15 17  1  0
 16  7  1  0
 16 15  1  0
 17 18  2  0
 19 13  2  0
 20 19  1  0
 22 21  1  6
 22 24  1  0
 23 22  1  0
 23 17  1  0
 24 26  1  0
 25 24  2  0
M  END
$$$$
