MYA.pdb
     RDKit          3D

 26 26  0  0  1  0  0  0  0  0999 V2000
   48.7801  -12.9533   -4.5428 C   0  0  0  0  0  0  0  0  0  0  0  0
   47.6519  -11.7103   -5.1805 S   0  0  0  0  0  0  0  0  0  0  0  0
   46.1548  -12.4353   -5.8857 C   0  0  0  0  0  0  0  0  0  0  0  0
   45.2625  -11.3940   -6.5258 C   0  0  0  0  0  0  0  0  0  0  0  0
   44.0242  -12.1102   -7.0160 C   0  0  2  0  0  0  0  0  0  0  0  0
   44.4386  -13.0018   -8.0757 N   0  0  0  0  0  0  0  0  0  0  0  0
   43.0111  -11.1801   -7.5491 C   0  0  0  0  0  0  0  0  0  0  0  0
   43.0129  -10.7043   -8.7049 O   0  0  0  0  0  0  0  0  0  0  0  0
   35.5684   -6.5059   -7.6693 O   0  0  0  0  0  0  0  0  0  0  0  0
   36.5658   -7.4216   -7.3608 C   0  0  0  0  0  0  0  0  0  0  0  0
   37.0111   -7.5284   -6.0643 C   0  0  0  0  0  0  0  0  0  0  0  0
   38.0147   -8.4516   -5.7598 C   0  0  0  0  0  0  0  0  0  0  0  0
   38.5537   -9.2457   -6.7400 C   0  0  0  0  0  0  0  0  0  0  0  0
   39.6041  -10.2079   -6.4068 C   0  0  0  0  0  0  0  0  0  0  0  0
   40.9595   -9.8424   -7.0182 C   0  0  2  0  0  0  0  0  0  0  0  0
   41.9505  -10.8080   -6.6489 N   0  0  0  0  0  0  0  0  0  0  0  0
   41.3242   -8.5318   -6.4401 C   0  0  0  0  0  0  0  0  0  0  0  0
   41.5492   -8.4143   -5.2186 O   0  0  0  0  0  0  0  0  0  0  0  0
   38.1002   -9.1302   -8.0351 C   0  0  0  0  0  0  0  0  0  0  0  0
   37.0968   -8.2138   -8.3644 C   0  0  0  0  0  0  0  0  0  0  0  0
   42.5367   -5.2876   -7.6859 C   0  0  0  0  0  0  0  0  0  0  0  0
   41.7727   -6.1230   -6.6757 C   0  0  2  0  0  0  0  0  0  0  0  0
   41.4223   -7.3923   -7.2692 N   0  0  0  0  0  0  0  0  0  0  0  0
   40.5572   -5.4122   -6.2104 C   0  0  0  0  0  0  0  0  0  0  0  0
   39.4707   -5.5043   -6.8310 O   0  0  0  0  0  0  0  0  0  0  0  0
   40.5916   -4.6234   -5.0710 O   0  0  0  0  0  0  0  0  0  0  0  0
  2  1  1  0
  3  2  1  0
  4  5  1  0
  4  3  1  0
  5  6  1  6
  5  7  1  0
  7  8  2  0
  9 10  1  0
 10 20  2  0
 10 11  1  0
 11 12  2  0
 12 13  1  0
 13 14  1  0
 15 14  1  1
 15 17  1  0
 16  7  1  0
 16 15  1  0
 17 18  2  0
 19 13  2  0
 20 19  1  0
 22 21  1  6
 22 24  1  0
 23 22  1  0
 23 17  1  0
 24 26  1  0
 25 24  2  0
M  END
$$$$
