MYA.pdb
     RDKit          3D

 26 26  0  0  1  0  0  0  0  0999 V2000
   25.5979  -18.9403  -19.9534 C   0  0  0  0  0  0  0  0  0  0  0  0
   24.2572  -19.1421  -21.1309 S   0  0  0  0  0  0  0  0  0  0  0  0
   22.7280  -18.3566  -20.5754 C   0  0  0  0  0  0  0  0  0  0  0  0
   22.9611  -17.4027  -19.4240 C   0  0  0  0  0  0  0  0  0  0  0  0
   21.9875  -17.7796  -18.3301 C   0  0  2  0  0  0  0  0  0  0  0  0
   20.9700  -16.7534  -18.2926 N   0  0  0  0  0  0  0  0  0  0  0  0
   22.6323  -17.8554  -17.0056 C   0  0  0  0  0  0  0  0  0  0  0  0
   23.0503  -16.8734  -16.3550 O   0  0  0  0  0  0  0  0  0  0  0  0
   25.7146  -21.3258   -9.5893 O   0  0  0  0  0  0  0  0  0  0  0  0
   25.0344  -21.1260  -10.7833 C   0  0  0  0  0  0  0  0  0  0  0  0
   25.4682  -21.7576  -11.9250 C   0  0  0  0  0  0  0  0  0  0  0  0
   24.7796  -21.5530  -13.1235 C   0  0  0  0  0  0  0  0  0  0  0  0
   23.6819  -20.7314  -13.1666 C   0  0  0  0  0  0  0  0  0  0  0  0
   22.9707  -20.5261  -14.4284 C   0  0  0  0  0  0  0  0  0  0  0  0
   23.5758  -19.4026  -15.2747 C   0  0  2  0  0  0  0  0  0  0  0  0
   22.7790  -19.1724  -16.4422 N   0  0  0  0  0  0  0  0  0  0  0  0
   24.9111  -19.8822  -15.6891 C   0  0  0  0  0  0  0  0  0  0  0  0
   25.0283  -20.8701  -16.4419 O   0  0  0  0  0  0  0  0  0  0  0  0
   23.2563  -20.1037  -12.0170 C   0  0  0  0  0  0  0  0  0  0  0  0
   23.9288  -20.2930  -10.8058 C   0  0  0  0  0  0  0  0  0  0  0  0
   28.4120  -18.6202  -15.3777 C   0  0  0  0  0  0  0  0  0  0  0  0
   27.3624  -19.6602  -15.7225 C   0  0  2  0  0  0  0  0  0  0  0  0
   26.0751  -19.2232  -15.2346 N   0  0  0  0  0  0  0  0  0  0  0  0
   27.7160  -20.9812  -15.1488 C   0  0  0  0  0  0  0  0  0  0  0  0
   27.1009  -21.4479  -14.1599 O   0  0  0  0  0  0  0  0  0  0  0  0
   28.7414  -21.7378  -15.6944 O   0  0  0  0  0  0  0  0  0  0  0  0
  2  1  1  0
  3  2  1  0
  4  5  1  0
  4  3  1  0
  5  6  1  1
  5  7  1  0
  7  8  2  0
  9 10  1  0
 10 20  2  0
 10 11  1  0
 11 12  2  0
 12 13  1  0
 13 14  1  0
 15 14  1  1
 15 17  1  0
 16  7  1  0
 16 15  1  0
 17 18  2  0
 19 13  2  0
 20 19  1  0
 22 21  1  1
 22 24  1  0
 23 22  1  0
 23 17  1  0
 24 26  1  0
 25 24  2  0
M  END
$$$$
