MYA.pdb
     RDKit          3D

 26 26  0  0  1  0  0  0  0  0999 V2000
   16.4816  -14.2110  -20.3160 C   0  0  0  0  0  0  0  0  0  0  0  0
   16.7167  -12.8776  -19.1363 S   0  0  0  0  0  0  0  0  0  0  0  0
   18.4017  -12.8213  -18.4868 C   0  0  0  0  0  0  0  0  0  0  0  0
   18.6591  -11.5714  -17.6734 C   0  0  0  0  0  0  0  0  0  0  0  0
   20.1197  -11.5882  -17.2823 C   0  0  2  0  0  0  0  0  0  0  0  0
   20.3847  -12.8746  -16.6785 N   0  0  0  0  0  0  0  0  0  0  0  0
   20.4530  -10.5309  -16.3093 C   0  0  0  0  0  0  0  0  0  0  0  0
   20.4169  -10.6634  -15.0669 O   0  0  0  0  0  0  0  0  0  0  0  0
   26.6832  -11.2536  -15.3148 O   0  0  0  0  0  0  0  0  0  0  0  0
   25.6623  -10.3498  -15.5778 C   0  0  0  0  0  0  0  0  0  0  0  0
   25.0615   -9.6832  -14.5361 C   0  0  0  0  0  0  0  0  0  0  0  0
   24.0349   -8.7748  -14.8067 C   0  0  0  0  0  0  0  0  0  0  0  0
   23.6266   -8.5465  -16.0963 C   0  0  0  0  0  0  0  0  0  0  0  0
   22.5503   -7.5928  -16.3649 C   0  0  0  0  0  0  0  0  0  0  0  0
   21.1659   -8.1464  -16.0164 C   0  0  2  0  0  0  0  0  0  0  0  0
   20.8467   -9.2596  -16.8589 N   0  0  0  0  0  0  0  0  0  0  0  0
   20.2121   -7.0496  -16.2845 C   0  0  0  0  0  0  0  0  0  0  0  0
   19.9729   -6.6841  -17.4531 O   0  0  0  0  0  0  0  0  0  0  0  0
   24.2353   -9.2198  -17.1320 C   0  0  0  0  0  0  0  0  0  0  0  0
   25.2648  -10.1336  -16.8862 C   0  0  0  0  0  0  0  0  0  0  0  0
   17.4847   -5.4149  -14.4540 C   0  0  0  0  0  0  0  0  0  0  0  0
   18.5749   -5.3830  -15.5087 C   0  0  2  0  0  0  0  0  0  0  0  0
   19.5576   -6.3999  -15.2144 N   0  0  0  0  0  0  0  0  0  0  0  0
   19.2123   -4.0455  -15.5726 C   0  0  0  0  0  0  0  0  0  0  0  0
   18.5556   -3.0253  -15.8916 O   0  0  0  0  0  0  0  0  0  0  0  0
   20.5581   -3.8887  -15.2795 O   0  0  0  0  0  0  0  0  0  0  0  0
  2  1  1  0
  3  2  1  0
  4  5  1  0
  4  3  1  0
  5  6  1  1
  5  7  1  0
  7  8  2  0
  9 10  1  0
 10 20  2  0
 10 11  1  0
 11 12  2  0
 12 13  1  0
 13 14  1  0
 15 14  1  6
 15 17  1  0
 16  7  1  0
 16 15  1  0
 17 18  2  0
 19 13  2  0
 20 19  1  0
 22 21  1  1
 22 24  1  0
 23 22  1  0
 23 17  1  0
 24 26  1  0
 25 24  2  0
M  END
$$$$
