MYA.pdb
     RDKit          3D

 26 26  0  0  1  0  0  0  0  0999 V2000
   26.5551   -8.7367  -21.8052 C   0  0  0  0  0  0  0  0  0  0  0  0
   25.2191   -8.5686  -20.6172 S   0  0  0  0  0  0  0  0  0  0  0  0
   23.5914   -8.7458  -21.3809 C   0  0  0  0  0  0  0  0  0  0  0  0
   22.4686   -8.4932  -20.3982 C   0  0  0  0  0  0  0  0  0  0  0  0
   22.5305   -9.5912  -19.3604 C   0  0  2  0  0  0  0  0  0  0  0  0
   22.0709  -10.8053  -19.9962 N   0  0  0  0  0  0  0  0  0  0  0  0
   21.6701   -9.3122  -18.1952 C   0  0  0  0  0  0  0  0  0  0  0  0
   20.4333   -9.4895  -18.1590 O   0  0  0  0  0  0  0  0  0  0  0  0
   21.0295  -14.8600  -15.5133 O   0  0  0  0  0  0  0  0  0  0  0  0
   21.3023  -13.5142  -15.3067 C   0  0  0  0  0  0  0  0  0  0  0  0
   20.2679  -12.6086  -15.2808 C   0  0  0  0  0  0  0  0  0  0  0  0
   20.5484  -11.2557  -15.0723 C   0  0  0  0  0  0  0  0  0  0  0  0
   21.8403  -10.8298  -14.8948 C   0  0  0  0  0  0  0  0  0  0  0  0
   22.1193   -9.4102  -14.6777 C   0  0  0  0  0  0  0  0  0  0  0  0
   21.6088   -8.5240  -15.8172 C   0  0  2  0  0  0  0  0  0  0  0  0
   22.3302   -8.7970  -17.0237 N   0  0  0  0  0  0  0  0  0  0  0  0
   21.8779   -7.1320  -15.3990 C   0  0  0  0  0  0  0  0  0  0  0  0
   23.0312   -6.6601  -15.4586 O   0  0  0  0  0  0  0  0  0  0  0  0
   22.8685  -11.7455  -14.9229 C   0  0  0  0  0  0  0  0  0  0  0  0
   22.6129  -13.1045  -15.1298 C   0  0  0  0  0  0  0  0  0  0  0  0
   19.8195   -4.1998  -14.3330 C   0  0  0  0  0  0  0  0  0  0  0  0
   21.1184   -4.9607  -14.5226 C   0  0  2  0  0  0  0  0  0  0  0  0
   20.8261   -6.3168  -14.9248 N   0  0  0  0  0  0  0  0  0  0  0  0
   21.9266   -4.9487  -13.2792 C   0  0  0  0  0  0  0  0  0  0  0  0
   21.9135   -5.9192  -12.4842 O   0  0  0  0  0  0  0  0  0  0  0  0
   22.7215   -3.8580  -12.9628 O   0  0  0  0  0  0  0  0  0  0  0  0
  2  1  1  0
  3  2  1  0
  4  5  1  0
  4  3  1  0
  5  6  1  6
  5  7  1  0
  7  8  2  0
  9 10  1  0
 10 20  2  0
 10 11  1  0
 11 12  2  0
 12 13  1  0
 13 14  1  0
 15 14  1  1
 15 17  1  0
 16  7  1  0
 16 15  1  0
 17 18  2  0
 19 13  2  0
 20 19  1  0
 22 21  1  1
 22 24  1  0
 23 22  1  0
 23 17  1  0
 24 26  1  0
 25 24  2  0
M  END
$$$$
