HVN.pdb
     RDKit          3D

 26 26  0  0  1  0  0  0  0  0999 V2000
    9.4387  -17.0824   15.9970 N   0  0  0  0  0  0  0  0  0  0  0  0
    8.3959  -16.8501   16.9524 C   0  0  1  0  0  0  0  0  0  0  0  0
    7.6560  -18.1144   17.3262 C   0  0  0  0  0  0  0  0  0  0  0  0
    6.7957  -18.4870   16.1723 C   0  0  0  0  0  0  0  0  0  0  0  0
    6.7808  -17.8082   14.9767 C   0  0  0  0  0  0  0  0  0  0  0  0
    5.8867  -18.4396   14.1951 N   0  0  0  0  0  0  0  0  0  0  0  0
    5.3738  -19.4719   14.8964 C   0  0  0  0  0  0  0  0  0  0  0  0
    5.9230  -19.5183   16.1217 N   0  0  0  0  0  0  0  0  0  0  0  0
    8.9789  -16.3111   18.2508 C   0  0  0  0  0  0  0  0  0  0  0  0
   10.1166  -16.6710   18.6093 O   0  0  0  0  0  0  0  0  0  0  0  0
    7.8276  -13.1809   22.0557 C   0  0  0  0  0  0  0  0  0  0  0  0
    7.4292  -13.8196   20.7288 C   0  0  1  0  0  0  0  0  0  0  0  0
    7.4612  -12.6275   19.7481 C   0  0  0  0  0  0  0  0  0  0  0  0
    8.4958  -14.7898   20.2652 C   0  0  2  0  0  0  0  0  0  0  0  0
    8.1995  -15.4210   18.9965 N   0  0  0  0  0  0  0  0  0  0  0  0
    8.7377  -15.8596   21.2195 C   0  0  0  0  0  0  0  0  0  0  0  0
    7.9121  -16.7911   21.4616 O   0  0  0  0  0  0  0  0  0  0  0  0
   12.0079  -19.9537   23.2113 N   0  0  0  0  0  0  0  0  0  0  0  0
   12.0502  -18.5585   23.5912 C   0  0  0  0  0  0  0  0  0  0  0  0
   12.5422  -18.3044   24.7050 O   0  0  0  0  0  0  0  0  0  0  0  0
   11.5065  -17.6168   22.6140 C   0  0  0  0  0  0  0  0  0  0  0  0
   10.1907  -17.0017   22.9286 C   0  0  2  0  0  0  0  0  0  0  0  0
    9.9462  -15.9215   21.9516 N   0  0  0  0  0  0  0  0  0  0  0  0
   10.1840  -16.4029   24.2665 C   0  0  0  0  0  0  0  0  0  0  0  0
    9.8906  -17.0892   25.4258 O   0  0  0  0  0  0  0  0  0  0  0  0
   10.4632  -15.1721   24.3895 O   0  0  0  0  0  0  0  0  0  0  0  0
  2  1  1  6
  2  9  1  0
  3  4  1  0
  3  2  1  0
  4  8  1  0
  5  4  2  0
  5  6  1  0
  6  7  1  0
  8  7  2  0
  9 10  2  0
 12 11  1  1
 12 13  1  0
 12 14  1  0
 14 16  1  0
 15  9  1  0
 14 15  1  6
 16 23  1  0
 16 17  2  0
 18 19  1  0
 19 20  2  0
 19 21  1  0
 22 21  1  6
 22 24  1  0
 23 22  1  0
 24 26  2  0
 24 25  1  0
M  END
$$$$
