HVN.pdb
     RDKit          3D

 26 26  0  0  1  0  0  0  0  0999 V2000
    9.7495  -13.3487   20.9381 N   0  0  0  0  0  0  0  0  0  0  0  0
    8.5938  -13.6650   21.7244 C   0  0  1  0  0  0  0  0  0  0  0  0
    7.7974  -14.8159   21.1528 C   0  0  0  0  0  0  0  0  0  0  0  0
    7.3976  -14.4407   19.7709 C   0  0  0  0  0  0  0  0  0  0  0  0
    7.8534  -13.3192   19.1190 C   0  0  0  0  0  0  0  0  0  0  0  0
    7.2735  -13.3258   17.9055 N   0  0  0  0  0  0  0  0  0  0  0  0
    6.4882  -14.4200   17.8235 C   0  0  0  0  0  0  0  0  0  0  0  0
    6.5511  -15.1226   18.9670 N   0  0  0  0  0  0  0  0  0  0  0  0
    9.0085  -14.1009   23.1223 C   0  0  0  0  0  0  0  0  0  0  0  0
   10.0791  -14.7183   23.2808 O   0  0  0  0  0  0  0  0  0  0  0  0
    7.3601  -11.7557   26.1818 C   0  0  0  0  0  0  0  0  0  0  0  0
    7.3424  -13.2541   26.4685 C   0  0  1  0  0  0  0  0  0  0  0  0
    5.9499  -13.6865   25.9605 C   0  0  0  0  0  0  0  0  0  0  0  0
    8.3595  -13.9717   25.6058 C   0  0  2  0  0  0  0  0  0  0  0  0
    8.1561  -13.7844   24.1848 N   0  0  0  0  0  0  0  0  0  0  0  0
    8.3853  -15.4064   25.8402 C   0  0  0  0  0  0  0  0  0  0  0  0
    7.4478  -16.1937   25.5095 O   0  0  0  0  0  0  0  0  0  0  0  0
   10.0507  -17.7172   24.0539 N   0  0  0  0  0  0  0  0  0  0  0  0
   11.1148  -18.1298   24.9427 C   0  0  0  0  0  0  0  0  0  0  0  0
   12.1554  -18.5452   24.4025 O   0  0  0  0  0  0  0  0  0  0  0  0
   10.8330  -18.0065   26.3720 C   0  0  0  0  0  0  0  0  0  0  0  0
    9.5008  -17.4697   26.7537 C   0  0  2  0  0  0  0  0  0  0  0  0
    9.4934  -16.0207   26.4686 N   0  0  0  0  0  0  0  0  0  0  0  0
    9.2420  -17.6439   28.1859 C   0  0  0  0  0  0  0  0  0  0  0  0
    8.9351  -18.8490   28.7814 O   0  0  0  0  0  0  0  0  0  0  0  0
    9.2979  -16.6314   28.9472 O   0  0  0  0  0  0  0  0  0  0  0  0
  2  1  1  6
  2  9  1  0
  3  4  1  0
  3  2  1  0
  4  8  1  0
  5  4  2  0
  5  6  1  0
  6  7  1  0
  8  7  2  0
  9 10  2  0
 12 11  1  6
 12 13  1  0
 12 14  1  0
 14 16  1  0
 15  9  1  0
 14 15  1  6
 16 23  1  0
 16 17  2  0
 18 19  1  0
 19 20  2  0
 19 21  1  0
 22 21  1  1
 22 24  1  0
 23 22  1  0
 24 26  2  0
 24 25  1  0
M  END
$$$$
