HVN.pdb
     RDKit          3D

 26 26  0  0  1  0  0  0  0  0999 V2000
   11.0305  -17.0925   17.1787 N   0  0  0  0  0  0  0  0  0  0  0  0
    9.9909  -17.0874   18.1652 C   0  0  1  0  0  0  0  0  0  0  0  0
    9.9768  -18.3457   19.0033 C   0  0  0  0  0  0  0  0  0  0  0  0
   10.4819  -19.4555   18.1526 C   0  0  0  0  0  0  0  0  0  0  0  0
   11.3864  -20.3984   18.5805 C   0  0  0  0  0  0  0  0  0  0  0  0
   11.5927  -21.2239   17.5388 N   0  0  0  0  0  0  0  0  0  0  0  0
   10.8349  -20.7941   16.5085 C   0  0  0  0  0  0  0  0  0  0  0  0
   10.1404  -19.7015   16.8679 N   0  0  0  0  0  0  0  0  0  0  0  0
   10.1957  -15.9395   19.1433 C   0  0  0  0  0  0  0  0  0  0  0  0
   11.3506  -15.6300   19.4937 O   0  0  0  0  0  0  0  0  0  0  0  0
    7.3573  -13.0373   18.7966 C   0  0  0  0  0  0  0  0  0  0  0  0
    7.6530  -13.3341   20.2636 C   0  0  1  0  0  0  0  0  0  0  0  0
    6.5506  -14.3474   20.6401 C   0  0  0  0  0  0  0  0  0  0  0  0
    8.9744  -14.0610   20.4022 C   0  0  2  0  0  0  0  0  0  0  0  0
    9.0604  -15.2717   19.6133 N   0  0  0  0  0  0  0  0  0  0  0  0
    9.2712  -14.4336   21.7759 C   0  0  0  0  0  0  0  0  0  0  0  0
    8.9151  -13.7539   22.7855 O   0  0  0  0  0  0  0  0  0  0  0  0
    9.8545  -17.2840   25.9513 N   0  0  0  0  0  0  0  0  0  0  0  0
    8.6166  -17.1178   25.2214 C   0  0  0  0  0  0  0  0  0  0  0  0
    7.5881  -17.5464   25.7742 O   0  0  0  0  0  0  0  0  0  0  0  0
    8.7296  -16.4636   23.9189 C   0  0  0  0  0  0  0  0  0  0  0  0
   10.0981  -16.1191   23.4527 C   0  0  2  0  0  0  0  0  0  0  0  0
    9.9953  -15.6125   22.0693 N   0  0  0  0  0  0  0  0  0  0  0  0
   10.9709  -17.2966   23.4328 C   0  0  0  0  0  0  0  0  0  0  0  0
   11.8880  -17.6033   24.4156 O   0  0  0  0  0  0  0  0  0  0  0  0
   10.8948  -18.1005   22.4552 O   0  0  0  0  0  0  0  0  0  0  0  0
  2  1  1  6
  2  9  1  0
  3  4  1  0
  3  2  1  0
  4  8  1  0
  5  4  2  0
  5  6  1  0
  6  7  1  0
  8  7  2  0
  9 10  2  0
 12 11  1  6
 12 13  1  0
 12 14  1  0
 14 16  1  0
 15  9  1  0
 14 15  1  6
 16 23  1  0
 16 17  2  0
 18 19  1  0
 19 20  2  0
 19 21  1  0
 22 21  1  6
 22 24  1  0
 23 22  1  0
 24 26  2  0
 24 25  1  0
M  END
$$$$
