HVN.pdb
     RDKit          3D

 26 26  0  0  1  0  0  0  0  0999 V2000
    9.0678  -15.5329   14.1130 N   0  0  0  0  0  0  0  0  0  0  0  0
    8.7811  -15.9780   15.4449 C   0  0  1  0  0  0  0  0  0  0  0  0
    9.0653  -17.4499   15.6411 C   0  0  0  0  0  0  0  0  0  0  0  0
    8.1202  -18.2069   14.7784 C   0  0  0  0  0  0  0  0  0  0  0  0
    6.7978  -18.4170   15.0906 C   0  0  0  0  0  0  0  0  0  0  0  0
    6.2797  -19.1336   14.0771 N   0  0  0  0  0  0  0  0  0  0  0  0
    7.2599  -19.3521   13.1759 C   0  0  0  0  0  0  0  0  0  0  0  0
    8.4059  -18.7870   13.5911 N   0  0  0  0  0  0  0  0  0  0  0  0
    9.6628  -15.2477   16.4476 C   0  0  0  0  0  0  0  0  0  0  0  0
   10.8745  -15.0933   16.2019 O   0  0  0  0  0  0  0  0  0  0  0  0
    7.6366  -12.5663   18.8167 C   0  0  0  0  0  0  0  0  0  0  0  0
    8.6435  -13.3770   19.6269 C   0  0  1  0  0  0  0  0  0  0  0  0
    7.7796  -14.5147   20.2128 C   0  0  0  0  0  0  0  0  0  0  0  0
    9.6574  -14.0313   18.7116 C   0  0  2  0  0  0  0  0  0  0  0  0
    9.0647  -14.7743   17.6197 N   0  0  0  0  0  0  0  0  0  0  0  0
   10.5401  -14.9493   19.4131 C   0  0  0  0  0  0  0  0  0  0  0  0
   10.3485  -16.2009   19.4815 O   0  0  0  0  0  0  0  0  0  0  0  0
   15.7793  -16.4102   20.5812 N   0  0  0  0  0  0  0  0  0  0  0  0
   15.0801  -15.4418   21.3972 C   0  0  0  0  0  0  0  0  0  0  0  0
   15.4772  -15.3184   22.5695 O   0  0  0  0  0  0  0  0  0  0  0  0
   13.9887  -14.7256   20.7390 C   0  0  0  0  0  0  0  0  0  0  0  0
   12.6784  -15.4218   20.6543 C   0  0  2  0  0  0  0  0  0  0  0  0
   11.6975  -14.4807   20.0772 N   0  0  0  0  0  0  0  0  0  0  0  0
   12.1926  -15.8150   21.9802 C   0  0  0  0  0  0  0  0  0  0  0  0
   11.1569  -15.1945   22.6462 O   0  0  0  0  0  0  0  0  0  0  0  0
   12.7480  -16.7882   22.5736 O   0  0  0  0  0  0  0  0  0  0  0  0
  2  1  1  6
  2  9  1  0
  3  4  1  0
  3  2  1  0
  4  8  1  0
  5  4  2  0
  5  6  1  0
  6  7  1  0
  8  7  2  0
  9 10  2  0
 12 11  1  6
 12 13  1  0
 12 14  1  0
 14 16  1  0
 15  9  1  0
 14 15  1  6
 16 23  1  0
 16 17  2  0
 18 19  1  0
 19 20  2  0
 19 21  1  0
 22 21  1  1
 22 24  1  0
 23 22  1  0
 24 26  2  0
 24 25  1  0
M  END
$$$$
