HVN.pdb
     RDKit          3D

 26 26  0  0  1  0  0  0  0  0999 V2000
    9.0317  -14.9647   20.7231 N   0  0  0  0  0  0  0  0  0  0  0  0
    8.2758  -15.5865   21.7701 C   0  0  1  0  0  0  0  0  0  0  0  0
    8.3932  -17.0937   21.7573 C   0  0  0  0  0  0  0  0  0  0  0  0
    8.0059  -17.5612   20.4002 C   0  0  0  0  0  0  0  0  0  0  0  0
    6.7671  -17.3513   19.8419 C   0  0  0  0  0  0  0  0  0  0  0  0
    6.8027  -17.9146   18.6210 N   0  0  0  0  0  0  0  0  0  0  0  0
    8.0281  -18.4507   18.4437 C   0  0  0  0  0  0  0  0  0  0  0  0
    8.7871  -18.2429   19.5327 N   0  0  0  0  0  0  0  0  0  0  0  0
    8.7920  -15.1414   23.1308 C   0  0  0  0  0  0  0  0  0  0  0  0
    9.9999  -15.2779   23.4042 O   0  0  0  0  0  0  0  0  0  0  0  0
    7.2967  -12.7080   27.2877 C   0  0  0  0  0  0  0  0  0  0  0  0
    6.9290  -13.3128   25.9362 C   0  0  1  0  0  0  0  0  0  0  0  0
    6.7705  -12.0703   25.0333 C   0  0  0  0  0  0  0  0  0  0  0  0
    8.0902  -14.1083   25.3771 C   0  0  2  0  0  0  0  0  0  0  0  0
    7.8731  -14.5897   24.0292 N   0  0  0  0  0  0  0  0  0  0  0  0
    8.4210  -15.2686   26.1885 C   0  0  0  0  0  0  0  0  0  0  0  0
    7.6077  -16.2070   26.4451 O   0  0  0  0  0  0  0  0  0  0  0  0
   12.3079  -16.9411   24.8317 N   0  0  0  0  0  0  0  0  0  0  0  0
   11.3747  -17.6192   25.7046 C   0  0  0  0  0  0  0  0  0  0  0  0
   10.7024  -18.5315   25.1918 O   0  0  0  0  0  0  0  0  0  0  0  0
   11.3380  -17.1453   27.0871 C   0  0  0  0  0  0  0  0  0  0  0  0
   10.0478  -16.5947   27.5781 C   0  0  2  0  0  0  0  0  0  0  0  0
    9.7095  -15.4181   26.7523 N   0  0  0  0  0  0  0  0  0  0  0  0
   10.1499  -16.1479   28.9705 C   0  0  0  0  0  0  0  0  0  0  0  0
   10.1809  -14.8270   29.3647 O   0  0  0  0  0  0  0  0  0  0  0  0
   10.2163  -17.0177   29.8908 O   0  0  0  0  0  0  0  0  0  0  0  0
  2  1  1  6
  2  9  1  0
  3  4  1  0
  3  2  1  0
  4  8  1  0
  5  4  2  0
  5  6  1  0
  6  7  1  0
  8  7  2  0
  9 10  2  0
 12 11  1  1
 12 13  1  0
 12 14  1  0
 14 16  1  0
 15  9  1  0
 14 15  1  6
 16 23  1  0
 16 17  2  0
 18 19  1  0
 19 20  2  0
 19 21  1  0
 22 21  1  6
 22 24  1  0
 23 22  1  0
 24 26  2  0
 24 25  1  0
M  END
$$$$
