HVN.pdb
     RDKit          3D

 26 26  0  0  1  0  0  0  0  0999 V2000
    9.9333  -14.5078   20.6737 N   0  0  0  0  0  0  0  0  0  0  0  0
    8.6703  -14.1797   21.2666 C   0  0  1  0  0  0  0  0  0  0  0  0
    7.5172  -14.9206   20.6286 C   0  0  0  0  0  0  0  0  0  0  0  0
    7.4328  -14.4814   19.2108 C   0  0  0  0  0  0  0  0  0  0  0  0
    7.4377  -13.1648   18.8147 C   0  0  0  0  0  0  0  0  0  0  0  0
    7.3481  -13.1738   17.4727 N   0  0  0  0  0  0  0  0  0  0  0  0
    7.2905  -14.4591   17.0663 C   0  0  0  0  0  0  0  0  0  0  0  0
    7.3416  -15.2832   18.1261 N   0  0  0  0  0  0  0  0  0  0  0  0
    8.6569  -14.5766   22.7357 C   0  0  0  0  0  0  0  0  0  0  0  0
    9.4996  -15.3905   23.1598 O   0  0  0  0  0  0  0  0  0  0  0  0
    6.4319  -13.2350   27.0724 C   0  0  0  0  0  0  0  0  0  0  0  0
    6.4221  -13.2174   25.5469 C   0  0  1  0  0  0  0  0  0  0  0  0
    6.7699  -11.7499   25.2161 C   0  0  0  0  0  0  0  0  0  0  0  0
    7.5522  -14.0638   24.9990 C   0  0  2  0  0  0  0  0  0  0  0  0
    7.6835  -14.0012   23.5587 N   0  0  0  0  0  0  0  0  0  0  0  0
    7.4237  -15.4695   25.3476 C   0  0  0  0  0  0  0  0  0  0  0  0
    6.4595  -16.2046   24.9765 O   0  0  0  0  0  0  0  0  0  0  0  0
    8.4026  -20.3107   26.6636 N   0  0  0  0  0  0  0  0  0  0  0  0
    8.8437  -19.7679   25.3973 C   0  0  0  0  0  0  0  0  0  0  0  0
    9.2467  -20.5897   24.5550 O   0  0  0  0  0  0  0  0  0  0  0  0
    8.7606  -18.3144   25.2651 C   0  0  0  0  0  0  0  0  0  0  0  0
    8.2992  -17.5534   26.4555 C   0  0  2  0  0  0  0  0  0  0  0  0
    8.3993  -16.1133   26.1439 N   0  0  0  0  0  0  0  0  0  0  0  0
    9.1457  -17.8172   27.6227 C   0  0  0  0  0  0  0  0  0  0  0  0
   10.0286  -16.9083   28.1663 O   0  0  0  0  0  0  0  0  0  0  0  0
    9.0785  -18.9513   28.1858 O   0  0  0  0  0  0  0  0  0  0  0  0
  2  1  1  6
  2  9  1  0
  3  4  1  0
  3  2  1  0
  4  8  1  0
  5  4  2  0
  5  6  1  0
  6  7  1  0
  8  7  2  0
  9 10  2  0
 12 11  1  1
 12 13  1  0
 12 14  1  0
 14 16  1  0
 15  9  1  0
 14 15  1  6
 16 23  1  0
 16 17  2  0
 18 19  1  0
 19 20  2  0
 19 21  1  0
 22 21  1  6
 22 24  1  0
 23 22  1  0
 24 26  2  0
 24 25  1  0
M  END
$$$$
