HVN.pdb
     RDKit          3D

 26 26  0  0  1  0  0  0  0  0999 V2000
    9.1565  -13.0546   20.8735 N   0  0  0  0  0  0  0  0  0  0  0  0
    8.0685  -13.6919   21.5549 C   0  0  1  0  0  0  0  0  0  0  0  0
    7.6069  -14.9542   20.8627 C   0  0  0  0  0  0  0  0  0  0  0  0
    7.2818  -14.5997   19.4559 C   0  0  0  0  0  0  0  0  0  0  0  0
    6.5429  -13.4980   19.0943 C   0  0  0  0  0  0  0  0  0  0  0  0
    6.4661  -13.5189   17.7516 N   0  0  0  0  0  0  0  0  0  0  0  0
    7.1391  -14.6023   17.3113 C   0  0  0  0  0  0  0  0  0  0  0  0
    7.6511  -15.2838   18.3498 N   0  0  0  0  0  0  0  0  0  0  0  0
    8.4963  -14.1174   22.9521 C   0  0  0  0  0  0  0  0  0  0  0  0
    9.5643  -14.7408   23.1042 O   0  0  0  0  0  0  0  0  0  0  0  0
    7.1666  -13.4235   27.7818 C   0  0  0  0  0  0  0  0  0  0  0  0
    6.8211  -13.2820   26.3026 C   0  0  1  0  0  0  0  0  0  0  0  0
    6.9035  -11.7574   26.0728 C   0  0  0  0  0  0  0  0  0  0  0  0
    7.8998  -13.9079   25.4433 C   0  0  2  0  0  0  0  0  0  0  0  0
    7.6584  -13.7847   24.0212 N   0  0  0  0  0  0  0  0  0  0  0  0
    8.0867  -15.3238   25.7158 C   0  0  0  0  0  0  0  0  0  0  0  0
    7.1599  -16.1862   25.6424 O   0  0  0  0  0  0  0  0  0  0  0  0
   12.4549  -19.2221   26.5260 N   0  0  0  0  0  0  0  0  0  0  0  0
   11.1045  -19.1492   26.0124 C   0  0  0  0  0  0  0  0  0  0  0  0
   10.4872  -20.2257   25.9279 O   0  0  0  0  0  0  0  0  0  0  0  0
   10.6317  -17.8128   25.6548 C   0  0  0  0  0  0  0  0  0  0  0  0
    9.5238  -17.2483   26.4689 C   0  0  2  0  0  0  0  0  0  0  0  0
    9.3531  -15.8317   26.0880 N   0  0  0  0  0  0  0  0  0  0  0  0
    9.8339  -17.2909   27.9009 C   0  0  0  0  0  0  0  0  0  0  0  0
    9.5856  -18.3719   28.7200 O   0  0  0  0  0  0  0  0  0  0  0  0
   10.3660  -16.2762   28.4441 O   0  0  0  0  0  0  0  0  0  0  0  0
  2  1  1  6
  2  9  1  0
  3  4  1  0
  3  2  1  0
  4  8  1  0
  5  4  2  0
  5  6  1  0
  6  7  1  0
  8  7  2  0
  9 10  2  0
 12 11  1  1
 12 13  1  0
 12 14  1  0
 14 16  1  0
 15  9  1  0
 14 15  1  6
 16 23  1  0
 16 17  2  0
 18 19  1  0
 19 20  2  0
 19 21  1  0
 22 21  1  6
 22 24  1  0
 23 22  1  0
 24 26  2  0
 24 25  1  0
M  END
$$$$
