HVN.pdb
     RDKit          3D

 26 26  0  0  1  0  0  0  0  0999 V2000
   10.1373  -15.9914   15.6800 N   0  0  0  0  0  0  0  0  0  0  0  0
    9.1464  -16.2465   16.6835 C   0  0  1  0  0  0  0  0  0  0  0  0
    8.7751  -17.7090   16.7772 C   0  0  0  0  0  0  0  0  0  0  0  0
    8.0104  -18.0560   15.5503 C   0  0  0  0  0  0  0  0  0  0  0  0
    6.6444  -18.2088   15.5162 C   0  0  0  0  0  0  0  0  0  0  0  0
    6.3305  -18.5169   14.2451 N   0  0  0  0  0  0  0  0  0  0  0  0
    7.4734  -18.5500   13.5286 C   0  0  0  0  0  0  0  0  0  0  0  0
    8.5236  -18.2677   14.3176 N   0  0  0  0  0  0  0  0  0  0  0  0
    9.6752  -15.8636   18.0582 C   0  0  0  0  0  0  0  0  0  0  0  0
   10.8012  -16.2601   18.4154 O   0  0  0  0  0  0  0  0  0  0  0  0
    7.7409  -12.5474   19.6491 C   0  0  0  0  0  0  0  0  0  0  0  0
    8.0618  -13.6002   20.7056 C   0  0  1  0  0  0  0  0  0  0  0  0
    6.7503  -14.4099   20.7961 C   0  0  0  0  0  0  0  0  0  0  0  0
    9.1245  -14.5533   20.1996 C   0  0  2  0  0  0  0  0  0  0  0  0
    8.8613  -15.0706   18.8734 N   0  0  0  0  0  0  0  0  0  0  0  0
    9.3101  -15.7036   21.0692 C   0  0  0  0  0  0  0  0  0  0  0  0
    9.1092  -16.9024   20.7083 O   0  0  0  0  0  0  0  0  0  0  0  0
   12.9305  -18.8643   22.2853 N   0  0  0  0  0  0  0  0  0  0  0  0
   12.8777  -17.5514   22.8905 C   0  0  0  0  0  0  0  0  0  0  0  0
   13.6917  -17.3321   23.8050 O   0  0  0  0  0  0  0  0  0  0  0  0
   11.8691  -16.6420   22.3491 C   0  0  0  0  0  0  0  0  0  0  0  0
   10.5712  -16.5672   23.0693 C   0  0  2  0  0  0  0  0  0  0  0  0
    9.7398  -15.5420   22.4070 N   0  0  0  0  0  0  0  0  0  0  0  0
   10.7544  -16.1594   24.4652 C   0  0  0  0  0  0  0  0  0  0  0  0
   10.3398  -14.9514   24.9849 O   0  0  0  0  0  0  0  0  0  0  0  0
   11.3312  -16.9551   25.2664 O   0  0  0  0  0  0  0  0  0  0  0  0
  2  1  1  6
  2  9  1  0
  3  4  1  0
  3  2  1  0
  4  8  1  0
  5  4  2  0
  5  6  1  0
  6  7  1  0
  8  7  2  0
  9 10  2  0
 12 11  1  6
 12 13  1  0
 12 14  1  0
 14 16  1  0
 15  9  1  0
 14 15  1  6
 16 23  1  0
 16 17  2  0
 18 19  1  0
 19 20  2  0
 19 21  1  0
 22 21  1  6
 22 24  1  0
 23 22  1  0
 24 26  2  0
 24 25  1  0
M  END
$$$$
