HVN.pdb
     RDKit          3D

 26 26  0  0  1  0  0  0  0  0999 V2000
    7.9482  -17.1640   16.4950 N   0  0  0  0  0  0  0  0  0  0  0  0
    9.3349  -16.8203   16.3806 C   0  0  1  0  0  0  0  0  0  0  0  0
    9.6473  -16.0771   15.1015 C   0  0  0  0  0  0  0  0  0  0  0  0
    9.6860  -17.0765   14.0015 C   0  0  0  0  0  0  0  0  0  0  0  0
   10.8236  -17.7427   13.6111 C   0  0  0  0  0  0  0  0  0  0  0  0
   10.4595  -18.5513   12.5997 N   0  0  0  0  0  0  0  0  0  0  0  0
    9.1387  -18.3804   12.3828 C   0  0  0  0  0  0  0  0  0  0  0  0
    8.6419  -17.4724   13.2395 N   0  0  0  0  0  0  0  0  0  0  0  0
    9.7438  -15.8887   17.5124 C   0  0  0  0  0  0  0  0  0  0  0  0
   10.9250  -15.5002   17.5917 O   0  0  0  0  0  0  0  0  0  0  0  0
    7.9419  -13.1523   21.3129 C   0  0  0  0  0  0  0  0  0  0  0  0
    7.7056  -13.9047   20.0069 C   0  0  1  0  0  0  0  0  0  0  0  0
    7.6652  -12.7721   18.9582 C   0  0  0  0  0  0  0  0  0  0  0  0
    8.9034  -14.7667   19.6666 C   0  0  2  0  0  0  0  0  0  0  0  0
    8.7600  -15.5033   18.4286 N   0  0  0  0  0  0  0  0  0  0  0  0
    9.2085  -15.7414   20.7014 C   0  0  0  0  0  0  0  0  0  0  0  0
    8.4288  -16.6833   21.0375 O   0  0  0  0  0  0  0  0  0  0  0  0
   11.5302  -18.9689   20.5610 N   0  0  0  0  0  0  0  0  0  0  0  0
   12.3884  -17.8435   20.8603 C   0  0  0  0  0  0  0  0  0  0  0  0
   13.2349  -17.5501   19.9974 O   0  0  0  0  0  0  0  0  0  0  0  0
   12.1525  -17.1883   22.1457 C   0  0  0  0  0  0  0  0  0  0  0  0
   10.7704  -16.7149   22.4187 C   0  0  2  0  0  0  0  0  0  0  0  0
   10.4311  -15.6903   21.4107 N   0  0  0  0  0  0  0  0  0  0  0  0
   10.6680  -16.0907   23.7410 C   0  0  0  0  0  0  0  0  0  0  0  0
   10.4788  -16.7843   24.9175 O   0  0  0  0  0  0  0  0  0  0  0  0
   10.7559  -14.8290   23.8326 O   0  0  0  0  0  0  0  0  0  0  0  0
  2  1  1  1
  2  9  1  0
  3  4  1  0
  3  2  1  0
  4  8  1  0
  5  4  2  0
  5  6  1  0
  6  7  1  0
  8  7  2  0
  9 10  2  0
 12 11  1  1
 12 13  1  0
 12 14  1  0
 14 16  1  0
 15  9  1  0
 14 15  1  6
 16 23  1  0
 16 17  2  0
 18 19  1  0
 19 20  2  0
 19 21  1  0
 22 21  1  6
 22 24  1  0
 23 22  1  0
 24 26  2  0
 24 25  1  0
M  END
$$$$
