MHQ.pdb
     RDKit          3D

 28 28  0  0  1  0  0  0  0  0999 V2000
   28.3335  -12.5218  -14.4446 C   0  0  0  0  0  0  0  0  0  0  0  0
   27.6591  -13.6717  -15.6421 S   0  0  0  0  0  0  0  0  0  0  0  0
   27.7164  -13.0919  -17.3203 C   0  0  0  0  0  0  0  0  0  0  0  0
   26.6504  -12.1137  -17.6613 C   0  0  0  0  0  0  0  0  0  0  0  0
   26.6214  -11.6575  -19.0934 C   0  0  2  0  0  0  0  0  0  0  0  0
   27.8576  -10.9647  -19.4257 N   0  0  0  0  0  0  0  0  0  0  0  0
   25.5084  -10.6778  -19.3191 C   0  0  0  0  0  0  0  0  0  0  0  0
   25.7098   -9.4672  -19.1810 O   0  0  0  0  0  0  0  0  0  0  0  0
   24.2112  -11.0808  -19.6908 N   0  0  0  0  0  0  0  0  0  0  0  0
   23.0516  -10.3440  -19.9442 C   0  0  1  0  0  0  0  0  0  0  0  0
   21.9817  -10.8927  -20.8351 C   0  0  0  0  0  0  0  0  0  0  0  0
   20.8671   -9.9687  -21.1282 C   0  0  0  0  0  0  0  0  0  0  0  0
   20.9241   -8.8931  -22.0475 C   0  0  0  0  0  0  0  0  0  0  0  0
   19.7475   -8.2621  -22.0715 N   0  0  0  0  0  0  0  0  0  0  0  0
   18.9482   -8.8945  -21.2047 C   0  0  0  0  0  0  0  0  0  0  0  0
   19.6328   -9.9129  -20.6488 N   0  0  0  0  0  0  0  0  0  0  0  0
   22.4726   -9.7457  -18.7412 C   0  0  0  0  0  0  0  0  0  0  0  0
   22.6953  -10.3590  -17.6394 O   0  0  0  0  0  0  0  0  0  0  0  0
   22.1374   -9.8728  -14.4774 N   0  0  0  0  0  0  0  0  0  0  0  0
   21.8806   -8.5099  -14.0934 C   0  0  0  0  0  0  0  0  0  0  0  0
   21.4900   -8.1954  -12.9461 O   0  0  0  0  0  0  0  0  0  0  0  0
   22.0988   -7.4707  -15.1233 C   0  0  0  0  0  0  0  0  0  0  0  0
   22.5126   -8.1448  -16.4106 C   0  0  0  0  0  0  0  0  0  0  0  0
   21.3800   -7.9786  -17.4089 C   0  0  2  0  0  0  0  0  0  0  0  0
   21.6927   -8.5539  -18.6900 N   0  0  0  0  0  0  0  0  0  0  0  0
   21.0381   -6.5302  -17.5706 C   0  0  0  0  0  0  0  0  0  0  0  0
   21.6537   -5.7907  -18.3745 O   0  0  0  0  0  0  0  0  0  0  0  0
   20.0172   -5.9817  -16.8183 O   0  0  0  0  0  0  0  0  0  0  0  0
  2  1  1  0
  3  2  1  0
  4  3  1  0
  5  4  1  0
  5  6  1  1
  7  5  1  0
  8  7  2  0
  9  7  1  0
 10  9  1  0
 10 11  1  1
 11 12  1  0
 12 13  2  0
 12 16  1  0
 13 14  1  0
 14 15  1  0
 16 15  2  0
 17 18  2  0
 17 10  1  0
 20 21  2  0
 20 19  1  0
 22 20  1  0
 24 23  1  1
 23 22  1  0
 24 25  1  0
 25 17  1  0
 26 28  1  0
 26 24  1  0
 27 26  2  0
M  END
$$$$
