MHQ.pdb
     RDKit          3D

 28 28  0  0  1  0  0  0  0  0999 V2000
   23.2979  -14.3702  -19.4785 C   0  0  0  0  0  0  0  0  0  0  0  0
   25.0427  -14.1376  -19.8141 S   0  0  0  0  0  0  0  0  0  0  0  0
   26.0820  -15.4407  -19.1998 C   0  0  0  0  0  0  0  0  0  0  0  0
   25.3378  -16.6283  -18.7044 C   0  0  0  0  0  0  0  0  0  0  0  0
   26.1582  -17.6456  -17.9616 C   0  0  2  0  0  0  0  0  0  0  0  0
   27.2351  -18.1382  -18.8078 N   0  0  0  0  0  0  0  0  0  0  0  0
   25.3252  -18.8372  -17.5930 C   0  0  0  0  0  0  0  0  0  0  0  0
   24.7745  -19.5055  -18.4734 O   0  0  0  0  0  0  0  0  0  0  0  0
   25.1353  -19.2421  -16.2576 N   0  0  0  0  0  0  0  0  0  0  0  0
   24.4355  -20.3197  -15.7093 C   0  0  1  0  0  0  0  0  0  0  0  0
   25.1508  -21.3628  -14.9094 C   0  0  0  0  0  0  0  0  0  0  0  0
   26.0874  -22.2130  -15.6724 C   0  0  0  0  0  0  0  0  0  0  0  0
   26.2567  -22.1765  -17.0778 C   0  0  0  0  0  0  0  0  0  0  0  0
   27.1793  -23.0710  -17.4408 N   0  0  0  0  0  0  0  0  0  0  0  0
   27.6008  -23.6723  -16.3223 C   0  0  0  0  0  0  0  0  0  0  0  0
   26.9380  -23.1478  -15.2732 N   0  0  0  0  0  0  0  0  0  0  0  0
   23.1874  -19.9257  -15.0554 C   0  0  0  0  0  0  0  0  0  0  0  0
   23.2951  -19.1173  -14.0683 O   0  0  0  0  0  0  0  0  0  0  0  0
   17.1214  -20.1154  -16.6380 N   0  0  0  0  0  0  0  0  0  0  0  0
   17.0812  -19.4554  -15.3599 C   0  0  0  0  0  0  0  0  0  0  0  0
   16.0160  -19.0404  -14.8491 O   0  0  0  0  0  0  0  0  0  0  0  0
   18.3698  -19.2806  -14.6548 C   0  0  0  0  0  0  0  0  0  0  0  0
   19.4659  -19.9003  -15.4897 C   0  0  0  0  0  0  0  0  0  0  0  0
   20.7493  -19.8606  -14.6783 C   0  0  2  0  0  0  0  0  0  0  0  0
   21.8786  -20.3578  -15.4181 N   0  0  0  0  0  0  0  0  0  0  0  0
   20.5872  -20.6405  -13.4109 C   0  0  0  0  0  0  0  0  0  0  0  0
   20.8741  -21.8592  -13.3425 O   0  0  0  0  0  0  0  0  0  0  0  0
   20.1087  -20.0105  -12.2780 O   0  0  0  0  0  0  0  0  0  0  0  0
  2  1  1  0
  3  2  1  0
  4  3  1  0
  5  4  1  0
  5  6  1  6
  7  5  1  0
  8  7  2  0
  9  7  1  0
 10  9  1  0
 10 11  1  1
 11 12  1  0
 12 13  2  0
 12 16  1  0
 13 14  1  0
 14 15  1  0
 16 15  2  0
 17 18  2  0
 17 10  1  0
 20 21  2  0
 20 19  1  0
 22 20  1  0
 24 23  1  6
 23 22  1  0
 24 25  1  0
 25 17  1  0
 26 28  1  0
 26 24  1  0
 27 26  2  0
M  END
$$$$
