MHQ.pdb
     RDKit          3D

 28 28  0  0  1  0  0  0  0  0999 V2000
   27.8842  -35.2678  -23.0276 C   0  0  0  0  0  0  0  0  0  0  0  0
   29.3733  -36.0220  -23.6794 S   0  0  0  0  0  0  0  0  0  0  0  0
   30.8791  -35.3444  -23.0244 C   0  0  0  0  0  0  0  0  0  0  0  0
   30.7222  -34.6816  -21.7031 C   0  0  0  0  0  0  0  0  0  0  0  0
   31.7284  -33.6094  -21.3906 C   0  0  2  0  0  0  0  0  0  0  0  0
   33.0647  -34.1811  -21.3120 N   0  0  0  0  0  0  0  0  0  0  0  0
   31.4498  -32.9890  -20.0538 C   0  0  0  0  0  0  0  0  0  0  0  0
   31.8890  -33.5103  -19.0241 O   0  0  0  0  0  0  0  0  0  0  0  0
   30.6924  -31.8102  -19.9113 N   0  0  0  0  0  0  0  0  0  0  0  0
   30.3395  -31.0695  -18.7806 C   0  0  1  0  0  0  0  0  0  0  0  0
   30.7527  -29.6372  -18.6506 C   0  0  0  0  0  0  0  0  0  0  0  0
   32.2101  -29.4012  -18.6019 C   0  0  0  0  0  0  0  0  0  0  0  0
   33.1982  -30.4153  -18.6256 C   0  0  0  0  0  0  0  0  0  0  0  0
   34.4112  -29.8596  -18.5686 N   0  0  0  0  0  0  0  0  0  0  0  0
   34.2309  -28.5351  -18.5097 C   0  0  0  0  0  0  0  0  0  0  0  0
   32.9088  -28.2772  -18.5305 N   0  0  0  0  0  0  0  0  0  0  0  0
   28.9417  -31.2471  -18.3865 C   0  0  0  0  0  0  0  0  0  0  0  0
   28.0772  -31.2083  -19.3303 O   0  0  0  0  0  0  0  0  0  0  0  0
   23.7686  -33.9555  -13.9252 N   0  0  0  0  0  0  0  0  0  0  0  0
   25.1073  -33.4820  -14.1589 C   0  0  0  0  0  0  0  0  0  0  0  0
   26.0124  -33.5686  -13.2980 O   0  0  0  0  0  0  0  0  0  0  0  0
   25.3834  -32.8767  -15.4800 C   0  0  0  0  0  0  0  0  0  0  0  0
   26.8106  -32.3814  -15.4964 C   0  0  0  0  0  0  0  0  0  0  0  0
   27.0736  -31.7617  -16.8580 C   0  0  2  0  0  0  0  0  0  0  0  0
   28.4653  -31.4577  -17.0599 N   0  0  0  0  0  0  0  0  0  0  0  0
   26.2511  -30.5232  -17.0329 C   0  0  0  0  0  0  0  0  0  0  0  0
   26.6730  -29.3943  -16.6870 O   0  0  0  0  0  0  0  0  0  0  0  0
   24.9900  -30.6142  -17.5899 O   0  0  0  0  0  0  0  0  0  0  0  0
  2  1  1  0
  3  2  1  0
  4  3  1  0
  5  4  1  0
  5  6  1  1
  7  5  1  0
  8  7  2  0
  9  7  1  0
 10  9  1  0
 10 11  1  6
 11 12  1  0
 12 13  2  0
 12 16  1  0
 13 14  1  0
 14 15  1  0
 16 15  2  0
 17 18  2  0
 17 10  1  0
 20 21  2  0
 20 19  1  0
 22 20  1  0
 24 23  1  1
 23 22  1  0
 24 25  1  0
 25 17  1  0
 26 28  1  0
 26 24  1  0
 27 26  2  0
M  END
$$$$
