MHQ.pdb
     RDKit          3D

 28 28  0  0  1  0  0  0  0  0999 V2000
   29.2575  -18.4488   -5.8308 C   0  0  0  0  0  0  0  0  0  0  0  0
   27.8168  -19.1459   -5.0249 S   0  0  0  0  0  0  0  0  0  0  0  0
   26.8429  -20.2065   -6.0652 C   0  0  0  0  0  0  0  0  0  0  0  0
   26.6574  -19.6958   -7.4489 C   0  0  0  0  0  0  0  0  0  0  0  0
   25.9005  -20.6017   -8.3796 C   0  0  2  0  0  0  0  0  0  0  0  0
   26.6080  -21.8636   -8.5391 N   0  0  0  0  0  0  0  0  0  0  0  0
   25.7955  -19.9948   -9.7472 C   0  0  0  0  0  0  0  0  0  0  0  0
   25.4600  -18.8136   -9.8778 O   0  0  0  0  0  0  0  0  0  0  0  0
   26.0681  -20.7247  -10.9203 N   0  0  0  0  0  0  0  0  0  0  0  0
   26.0182  -20.3603  -12.2681 C   0  0  1  0  0  0  0  0  0  0  0  0
   27.2615  -20.3556  -13.1009 C   0  0  0  0  0  0  0  0  0  0  0  0
   27.1007  -19.8369  -14.4747 C   0  0  0  0  0  0  0  0  0  0  0  0
   25.8624  -19.5141  -15.0811 C   0  0  0  0  0  0  0  0  0  0  0  0
   26.0742  -19.0728  -16.3236 N   0  0  0  0  0  0  0  0  0  0  0  0
   27.3961  -19.1034  -16.5282 C   0  0  0  0  0  0  0  0  0  0  0  0
   27.9959  -19.5628  -15.4127 N   0  0  0  0  0  0  0  0  0  0  0  0
   24.9071  -20.9772  -12.9928 C   0  0  0  0  0  0  0  0  0  0  0  0
   24.8534  -22.2563  -12.9664 O   0  0  0  0  0  0  0  0  0  0  0  0
   20.9950  -19.3780  -11.5782 N   0  0  0  0  0  0  0  0  0  0  0  0
   21.0169  -18.5191  -12.7326 C   0  0  0  0  0  0  0  0  0  0  0  0
   20.8040  -17.2873  -12.6600 O   0  0  0  0  0  0  0  0  0  0  0  0
   21.3061  -19.1554  -14.0363 C   0  0  0  0  0  0  0  0  0  0  0  0
   21.4633  -20.6430  -13.8241 C   0  0  0  0  0  0  0  0  0  0  0  0
   22.8366  -21.0442  -14.3343 C   0  0  2  0  0  0  0  0  0  0  0  0
   23.8916  -20.2864  -13.7159 N   0  0  0  0  0  0  0  0  0  0  0  0
   22.9036  -20.8908  -15.8218 C   0  0  0  0  0  0  0  0  0  0  0  0
   22.2685  -21.6469  -16.5944 O   0  0  0  0  0  0  0  0  0  0  0  0
   23.6841  -19.8914  -16.3706 O   0  0  0  0  0  0  0  0  0  0  0  0
  2  1  1  0
  3  2  1  0
  4  3  1  0
  5  4  1  0
  5  6  1  6
  7  5  1  0
  8  7  2  0
  9  7  1  0
 10  9  1  0
 10 11  1  6
 11 12  1  0
 12 13  2  0
 12 16  1  0
 13 14  1  0
 14 15  1  0
 16 15  2  0
 17 18  2  0
 17 10  1  0
 20 21  2  0
 20 19  1  0
 22 20  1  0
 24 23  1  1
 23 22  1  0
 24 25  1  0
 25 17  1  0
 26 28  1  0
 26 24  1  0
 27 26  2  0
M  END
$$$$
