MHQ.pdb
     RDKit          3D

 28 28  0  0  1  0  0  0  0  0999 V2000
   28.6930  -20.8104   -8.8348 C   0  0  0  0  0  0  0  0  0  0  0  0
   29.3564  -20.8795  -10.4980 S   0  0  0  0  0  0  0  0  0  0  0  0
   28.1980  -21.4443  -11.7207 C   0  0  0  0  0  0  0  0  0  0  0  0
   26.7753  -21.3406  -11.3027 C   0  0  0  0  0  0  0  0  0  0  0  0
   25.7682  -21.8559  -12.2926 C   0  0  2  0  0  0  0  0  0  0  0  0
   26.1461  -21.4668  -13.6433 N   0  0  0  0  0  0  0  0  0  0  0  0
   24.4160  -21.2589  -12.0385 C   0  0  0  0  0  0  0  0  0  0  0  0
   23.9130  -21.3185  -10.9122 O   0  0  0  0  0  0  0  0  0  0  0  0
   23.6722  -20.6166  -13.0473 N   0  0  0  0  0  0  0  0  0  0  0  0
   22.3892  -20.0639  -13.0397 C   0  0  1  0  0  0  0  0  0  0  0  0
   22.0012  -19.0292  -14.0487 C   0  0  0  0  0  0  0  0  0  0  0  0
   20.6699  -18.4204  -13.8505 C   0  0  0  0  0  0  0  0  0  0  0  0
   19.5034  -18.7645  -14.5756 C   0  0  0  0  0  0  0  0  0  0  0  0
   18.4761  -18.0268  -14.1471 N   0  0  0  0  0  0  0  0  0  0  0  0
   18.9451  -17.2296  -13.1803 C   0  0  0  0  0  0  0  0  0  0  0  0
   20.2590  -17.4773  -13.0148 N   0  0  0  0  0  0  0  0  0  0  0  0
   21.3310  -21.0618  -12.8823 C   0  0  0  0  0  0  0  0  0  0  0  0
   21.4373  -22.1187  -13.5975 O   0  0  0  0  0  0  0  0  0  0  0  0
   19.4371  -23.8380   -8.0994 N   0  0  0  0  0  0  0  0  0  0  0  0
   18.5943  -24.5000   -9.0597 C   0  0  0  0  0  0  0  0  0  0  0  0
   17.9420  -25.5328   -8.7848 O   0  0  0  0  0  0  0  0  0  0  0  0
   18.5235  -23.9053  -10.4122 C   0  0  0  0  0  0  0  0  0  0  0  0
   19.4587  -22.7200  -10.4689 C   0  0  0  0  0  0  0  0  0  0  0  0
   19.3441  -22.1013  -11.8513 C   0  0  2  0  0  0  0  0  0  0  0  0
   20.2066  -20.9610  -12.0124 N   0  0  0  0  0  0  0  0  0  0  0  0
   17.9261  -21.7107  -12.1300 C   0  0  0  0  0  0  0  0  0  0  0  0
   17.5162  -20.5386  -11.9566 O   0  0  0  0  0  0  0  0  0  0  0  0
   17.0347  -22.6601  -12.5918 O   0  0  0  0  0  0  0  0  0  0  0  0
  2  1  1  0
  3  2  1  0
  4  3  1  0
  5  4  1  0
  5  6  1  6
  7  5  1  0
  8  7  2  0
  9  7  1  0
 10  9  1  0
 10 11  1  6
 11 12  1  0
 12 13  2  0
 12 16  1  0
 13 14  1  0
 14 15  1  0
 16 15  2  0
 17 18  2  0
 17 10  1  0
 20 21  2  0
 20 19  1  0
 22 20  1  0
 24 23  1  1
 23 22  1  0
 24 25  1  0
 25 17  1  0
 26 28  1  0
 26 24  1  0
 27 26  2  0
M  END
$$$$
