MHQ.pdb
     RDKit          3D

 28 28  0  0  1  0  0  0  0  0999 V2000
   19.0214  -12.2249  -24.8183 C   0  0  0  0  0  0  0  0  0  0  0  0
   19.8164  -11.1531  -23.6224 S   0  0  0  0  0  0  0  0  0  0  0  0
   19.1115  -11.2307  -21.9937 C   0  0  0  0  0  0  0  0  0  0  0  0
   19.7917  -10.3639  -20.9959 C   0  0  0  0  0  0  0  0  0  0  0  0
   20.1911  -11.0394  -19.7137 C   0  0  2  0  0  0  0  0  0  0  0  0
   19.3960  -12.2414  -19.5096 N   0  0  0  0  0  0  0  0  0  0  0  0
   19.9282  -10.1481  -18.5364 C   0  0  0  0  0  0  0  0  0  0  0  0
   18.8191   -9.6255  -18.3891 O   0  0  0  0  0  0  0  0  0  0  0  0
   20.9095   -9.8708  -17.5650 N   0  0  0  0  0  0  0  0  0  0  0  0
   20.8613   -9.1122  -16.3929 C   0  0  1  0  0  0  0  0  0  0  0  0
   21.5459   -9.5884  -15.1504 C   0  0  0  0  0  0  0  0  0  0  0  0
   21.3940   -8.7138  -13.9696 C   0  0  0  0  0  0  0  0  0  0  0  0
   20.4104   -8.8715  -12.9633 C   0  0  0  0  0  0  0  0  0  0  0  0
   20.5540   -7.9144  -12.0432 N   0  0  0  0  0  0  0  0  0  0  0  0
   21.5885   -7.1573  -12.4264 C   0  0  0  0  0  0  0  0  0  0  0  0
   22.0800   -7.6486  -13.5806 N   0  0  0  0  0  0  0  0  0  0  0  0
   21.1144   -7.6885  -16.6150 C   0  0  0  0  0  0  0  0  0  0  0  0
   21.9992   -7.4004  -17.4947 O   0  0  0  0  0  0  0  0  0  0  0  0
   22.1585   -4.8583  -19.8561 N   0  0  0  0  0  0  0  0  0  0  0  0
   21.7744   -3.5822  -19.3133 C   0  0  0  0  0  0  0  0  0  0  0  0
   22.1762   -2.4975  -19.7927 O   0  0  0  0  0  0  0  0  0  0  0  0
   20.8684   -3.5963  -18.1440 C   0  0  0  0  0  0  0  0  0  0  0  0
   20.5089   -5.0293  -17.8279 C   0  0  0  0  0  0  0  0  0  0  0  0
   20.7674   -5.2595  -16.3490 C   0  0  2  0  0  0  0  0  0  0  0  0
   20.4691   -6.6081  -15.9461 N   0  0  0  0  0  0  0  0  0  0  0  0
   19.9724   -4.2944  -15.5260 C   0  0  0  0  0  0  0  0  0  0  0  0
   18.7921   -4.5362  -15.1788 O   0  0  0  0  0  0  0  0  0  0  0  0
   20.5447   -3.1001  -15.1319 O   0  0  0  0  0  0  0  0  0  0  0  0
  2  1  1  0
  3  2  1  0
  4  3  1  0
  5  4  1  0
  5  6  1  1
  7  5  1  0
  8  7  2  0
  9  7  1  0
 10  9  1  0
 10 11  1  1
 11 12  1  0
 12 13  2  0
 12 16  1  0
 13 14  1  0
 14 15  1  0
 16 15  2  0
 17 18  2  0
 17 10  1  0
 20 21  2  0
 20 19  1  0
 22 20  1  0
 24 23  1  6
 23 22  1  0
 24 25  1  0
 25 17  1  0
 26 28  1  0
 26 24  1  0
 27 26  2  0
M  END
$$$$
