MHQ.pdb
     RDKit          3D

 28 28  0  0  1  0  0  0  0  0999 V2000
   13.8494  -14.7458  -19.5960 C   0  0  0  0  0  0  0  0  0  0  0  0
   14.2724  -13.5496  -18.3306 S   0  0  0  0  0  0  0  0  0  0  0  0
   16.0176  -13.2784  -18.1397 C   0  0  0  0  0  0  0  0  0  0  0  0
   16.3657  -12.2708  -17.1038 C   0  0  0  0  0  0  0  0  0  0  0  0
   17.8352  -12.0255  -16.9039 C   0  0  2  0  0  0  0  0  0  0  0  0
   18.4758  -13.2177  -16.3684 N   0  0  0  0  0  0  0  0  0  0  0  0
   18.0627  -10.9319  -15.9030 C   0  0  0  0  0  0  0  0  0  0  0  0
   17.1832  -10.6472  -15.0843 O   0  0  0  0  0  0  0  0  0  0  0  0
   19.2614  -10.1947  -15.8492 N   0  0  0  0  0  0  0  0  0  0  0  0
   19.6538   -9.1264  -15.0389 C   0  0  1  0  0  0  0  0  0  0  0  0
   20.9821   -9.1426  -14.3499 C   0  0  0  0  0  0  0  0  0  0  0  0
   21.2762   -7.9598  -13.5153 C   0  0  0  0  0  0  0  0  0  0  0  0
   20.9341   -7.8255  -12.1478 C   0  0  0  0  0  0  0  0  0  0  0  0
   21.3453   -6.6371  -11.6982 N   0  0  0  0  0  0  0  0  0  0  0  0
   21.9338   -6.0140  -12.7257 C   0  0  0  0  0  0  0  0  0  0  0  0
   21.8843   -6.8184  -13.8052 N   0  0  0  0  0  0  0  0  0  0  0  0
   19.3945   -7.8185  -15.6412 C   0  0  0  0  0  0  0  0  0  0  0  0
   19.6820   -7.6991  -16.8832 O   0  0  0  0  0  0  0  0  0  0  0  0
   14.7683   -3.9437  -15.1042 N   0  0  0  0  0  0  0  0  0  0  0  0
   15.5205   -3.3172  -16.1590 C   0  0  0  0  0  0  0  0  0  0  0  0
   15.0572   -2.3851  -16.8549 O   0  0  0  0  0  0  0  0  0  0  0  0
   16.8898   -3.8233  -16.3978 C   0  0  0  0  0  0  0  0  0  0  0  0
   17.1343   -5.0048  -15.4884 C   0  0  0  0  0  0  0  0  0  0  0  0
   18.5470   -5.5027  -15.7402 C   0  0  2  0  0  0  0  0  0  0  0  0
   18.8555   -6.6805  -14.9737 N   0  0  0  0  0  0  0  0  0  0  0  0
   19.5398   -4.4238  -15.4382 C   0  0  0  0  0  0  0  0  0  0  0  0
   20.0594   -4.3013  -14.3037 O   0  0  0  0  0  0  0  0  0  0  0  0
   19.9017   -3.5321  -16.4297 O   0  0  0  0  0  0  0  0  0  0  0  0
  2  1  1  0
  3  2  1  0
  4  3  1  0
  5  4  1  0
  5  6  1  1
  7  5  1  0
  8  7  2  0
  9  7  1  0
 10  9  1  0
 10 11  1  6
 11 12  1  0
 12 13  2  0
 12 16  1  0
 13 14  1  0
 14 15  1  0
 16 15  2  0
 17 18  2  0
 17 10  1  0
 20 21  2  0
 20 19  1  0
 22 20  1  0
 24 23  1  1
 23 22  1  0
 24 25  1  0
 25 17  1  0
 26 28  1  0
 26 24  1  0
 27 26  2  0
M  END
$$$$
