MHQ.pdb
     RDKit          3D

 28 28  0  0  1  0  0  0  0  0999 V2000
   29.4657  -19.6906  -11.6258 C   0  0  0  0  0  0  0  0  0  0  0  0
   27.9702  -19.6690  -12.6127 S   0  0  0  0  0  0  0  0  0  0  0  0
   28.0008  -18.5060  -13.9551 C   0  0  0  0  0  0  0  0  0  0  0  0
   26.7093  -18.3821  -14.6806 C   0  0  0  0  0  0  0  0  0  0  0  0
   25.9988  -19.6754  -14.9676 C   0  0  2  0  0  0  0  0  0  0  0  0
   26.7729  -20.4775  -15.9035 N   0  0  0  0  0  0  0  0  0  0  0  0
   24.6712  -19.4222  -15.6180 C   0  0  0  0  0  0  0  0  0  0  0  0
   24.5925  -19.3120  -16.8454 O   0  0  0  0  0  0  0  0  0  0  0  0
   23.4788  -19.3011  -14.8786 N   0  0  0  0  0  0  0  0  0  0  0  0
   22.1611  -19.0699  -15.2812 C   0  0  1  0  0  0  0  0  0  0  0  0
   21.0476  -19.9274  -14.7672 C   0  0  0  0  0  0  0  0  0  0  0  0
   20.9300  -21.2574  -15.3991 C   0  0  0  0  0  0  0  0  0  0  0  0
   21.6762  -21.6921  -16.5214 C   0  0  0  0  0  0  0  0  0  0  0  0
   21.3262  -22.9423  -16.8345 N   0  0  0  0  0  0  0  0  0  0  0  0
   20.3888  -23.3163  -15.9560 C   0  0  0  0  0  0  0  0  0  0  0  0
   20.1631  -22.2973  -15.1041 N   0  0  0  0  0  0  0  0  0  0  0  0
   21.7872  -17.6558  -15.2510 C   0  0  0  0  0  0  0  0  0  0  0  0
   21.7589  -17.1013  -14.0971 O   0  0  0  0  0  0  0  0  0  0  0  0
   23.2225  -12.3308  -17.3795 N   0  0  0  0  0  0  0  0  0  0  0  0
   23.3862  -13.4863  -18.2214 C   0  0  0  0  0  0  0  0  0  0  0  0
   23.9234  -13.4264  -19.3508 O   0  0  0  0  0  0  0  0  0  0  0  0
   22.8873  -14.7755  -17.6948 C   0  0  0  0  0  0  0  0  0  0  0  0
   22.2853  -14.5398  -16.3293 C   0  0  0  0  0  0  0  0  0  0  0  0
   21.0976  -15.4740  -16.1756 C   0  0  2  0  0  0  0  0  0  0  0  0
   21.4568  -16.8520  -16.3805 N   0  0  0  0  0  0  0  0  0  0  0  0
   20.0053  -15.0860  -17.1229 C   0  0  0  0  0  0  0  0  0  0  0  0
   19.4321  -13.9731  -17.0520 O   0  0  0  0  0  0  0  0  0  0  0  0
   19.6089  -15.9710  -18.1071 O   0  0  0  0  0  0  0  0  0  0  0  0
  2  1  1  0
  3  2  1  0
  4  3  1  0
  5  4  1  0
  5  6  1  6
  7  5  1  0
  8  7  2  0
  9  7  1  0
 10  9  1  0
 10 11  1  1
 11 12  1  0
 12 13  2  0
 12 16  1  0
 13 14  1  0
 14 15  1  0
 16 15  2  0
 17 18  2  0
 17 10  1  0
 20 21  2  0
 20 19  1  0
 22 20  1  0
 24 23  1  6
 23 22  1  0
 24 25  1  0
 25 17  1  0
 26 28  1  0
 26 24  1  0
 27 26  2  0
M  END
$$$$
