MHQ.pdb
     RDKit          3D

 28 28  0  0  1  0  0  0  0  0999 V2000
   28.4700  -20.6026  -15.3686 C   0  0  0  0  0  0  0  0  0  0  0  0
   28.2428  -22.2769  -15.9652 S   0  0  0  0  0  0  0  0  0  0  0  0
   26.5571  -22.8365  -15.9389 C   0  0  0  0  0  0  0  0  0  0  0  0
   25.7970  -22.5324  -17.1796 C   0  0  0  0  0  0  0  0  0  0  0  0
   24.8200  -21.3943  -17.0804 C   0  0  2  0  0  0  0  0  0  0  0  0
   25.5202  -20.1556  -16.7738 N   0  0  0  0  0  0  0  0  0  0  0  0
   23.8461  -21.6226  -15.9628 C   0  0  0  0  0  0  0  0  0  0  0  0
   23.1165  -22.6189  -15.9693 O   0  0  0  0  0  0  0  0  0  0  0  0
   23.7195  -20.7336  -14.8779 N   0  0  0  0  0  0  0  0  0  0  0  0
   22.8615  -20.7372  -13.7754 C   0  0  1  0  0  0  0  0  0  0  0  0
   23.2121  -19.9743  -12.5367 C   0  0  0  0  0  0  0  0  0  0  0  0
   24.1336  -20.6625  -11.6096 C   0  0  0  0  0  0  0  0  0  0  0  0
   24.6200  -21.9816  -11.7782 C   0  0  0  0  0  0  0  0  0  0  0  0
   25.4299  -22.2931  -10.7631 N   0  0  0  0  0  0  0  0  0  0  0  0
   25.4757  -21.2247   -9.9590 C   0  0  0  0  0  0  0  0  0  0  0  0
   24.6950  -20.2579  -10.4793 N   0  0  0  0  0  0  0  0  0  0  0  0
   21.4581  -20.5322  -14.1346 C   0  0  0  0  0  0  0  0  0  0  0  0
   21.2387  -19.9298  -15.2430 O   0  0  0  0  0  0  0  0  0  0  0  0
   17.8191  -23.9669  -16.3216 N   0  0  0  0  0  0  0  0  0  0  0  0
   16.8602  -22.9020  -16.1902 C   0  0  0  0  0  0  0  0  0  0  0  0
   15.7499  -22.9200  -16.7688 O   0  0  0  0  0  0  0  0  0  0  0  0
   17.2396  -21.7606  -15.3292 C   0  0  0  0  0  0  0  0  0  0  0  0
   18.6428  -21.9867  -14.8169 C   0  0  0  0  0  0  0  0  0  0  0  0
   19.0135  -20.8063  -13.9358 C   0  0  2  0  0  0  0  0  0  0  0  0
   20.3284  -20.9407  -13.3677 N   0  0  0  0  0  0  0  0  0  0  0  0
   18.0026  -20.6342  -12.8452 C   0  0  0  0  0  0  0  0  0  0  0  0
   18.0831  -21.2623  -11.7630 O   0  0  0  0  0  0  0  0  0  0  0  0
   16.9466  -19.7614  -13.0247 O   0  0  0  0  0  0  0  0  0  0  0  0
  2  1  1  0
  3  2  1  0
  4  3  1  0
  5  4  1  0
  5  6  1  1
  7  5  1  0
  8  7  2  0
  9  7  1  0
 10  9  1  0
 10 11  1  1
 11 12  1  0
 12 13  2  0
 12 16  1  0
 13 14  1  0
 14 15  1  0
 16 15  2  0
 17 18  2  0
 17 10  1  0
 20 21  2  0
 20 19  1  0
 22 20  1  0
 24 23  1  1
 23 22  1  0
 24 25  1  0
 25 17  1  0
 26 28  1  0
 26 24  1  0
 27 26  2  0
M  END
$$$$
