MHQ.pdb
     RDKit          3D

 28 28  0  0  1  0  0  0  0  0999 V2000
   36.7497  -25.6031  -16.3887 C   0  0  0  0  0  0  0  0  0  0  0  0
   35.3184  -26.3270  -15.5896 S   0  0  0  0  0  0  0  0  0  0  0  0
   34.4509  -25.2179  -14.5066 C   0  0  0  0  0  0  0  0  0  0  0  0
   33.4026  -24.4076  -15.1805 C   0  0  0  0  0  0  0  0  0  0  0  0
   32.1752  -25.1613  -15.6106 C   0  0  2  0  0  0  0  0  0  0  0  0
   32.5302  -26.1922  -16.5749 N   0  0  0  0  0  0  0  0  0  0  0  0
   31.2024  -24.2499  -16.2980 C   0  0  0  0  0  0  0  0  0  0  0  0
   30.6904  -23.3103  -15.6816 O   0  0  0  0  0  0  0  0  0  0  0  0
   30.8348  -24.4170  -17.6472 N   0  0  0  0  0  0  0  0  0  0  0  0
   29.9645  -23.6916  -18.4646 C   0  0  1  0  0  0  0  0  0  0  0  0
   30.4093  -23.2093  -19.8095 C   0  0  0  0  0  0  0  0  0  0  0  0
   29.4722  -22.2967  -20.4960 C   0  0  0  0  0  0  0  0  0  0  0  0
   28.9078  -21.1311  -19.9235 C   0  0  0  0  0  0  0  0  0  0  0  0
   28.1068  -20.5385  -20.8127 N   0  0  0  0  0  0  0  0  0  0  0  0
   28.1414  -21.2819  -21.9247 C   0  0  0  0  0  0  0  0  0  0  0  0
   28.9626  -22.3299  -21.7190 N   0  0  0  0  0  0  0  0  0  0  0  0
   28.6220  -24.2687  -18.5351 C   0  0  0  0  0  0  0  0  0  0  0  0
   28.5467  -25.5432  -18.4370 O   0  0  0  0  0  0  0  0  0  0  0  0
   25.8974  -27.8379  -16.6907 N   0  0  0  0  0  0  0  0  0  0  0  0
   25.0072  -27.1708  -17.6035 C   0  0  0  0  0  0  0  0  0  0  0  0
   24.5011  -27.7470  -18.5933 O   0  0  0  0  0  0  0  0  0  0  0  0
   24.7039  -25.7498  -17.3261 C   0  0  0  0  0  0  0  0  0  0  0  0
   26.0019  -24.9776  -17.2831 C   0  0  0  0  0  0  0  0  0  0  0  0
   26.1550  -24.2489  -18.6068 C   0  0  2  0  0  0  0  0  0  0  0  0
   27.4059  -23.5441  -18.7006 N   0  0  0  0  0  0  0  0  0  0  0  0
   25.0177  -23.2972  -18.8109 C   0  0  0  0  0  0  0  0  0  0  0  0
   25.1412  -22.0656  -18.6106 O   0  0  0  0  0  0  0  0  0  0  0  0
   23.7925  -23.7778  -19.2315 O   0  0  0  0  0  0  0  0  0  0  0  0
  2  1  1  0
  3  2  1  0
  4  3  1  0
  5  4  1  0
  5  6  1  6
  7  5  1  0
  8  7  2  0
  9  7  1  0
 10  9  1  0
 10 11  1  6
 11 12  1  0
 12 13  2  0
 12 16  1  0
 13 14  1  0
 14 15  1  0
 16 15  2  0
 17 18  2  0
 17 10  1  0
 20 21  2  0
 20 19  1  0
 22 20  1  0
 24 23  1  1
 23 22  1  0
 24 25  1  0
 25 17  1  0
 26 28  1  0
 26 24  1  0
 27 26  2  0
M  END
$$$$
