KHR.pdb
     RDKit          3D

 31 31  0  0  1  0  0  0  0  0999 V2000
   26.3139  -23.0720  -16.6054 N   0  0  0  0  0  0  0  0  0  0  0  0
   26.9108  -21.8673  -16.1312 C   0  0  1  0  0  0  0  0  0  0  0  0
   27.7847  -21.1166  -17.0266 C   0  0  0  0  0  0  0  0  0  0  0  0
   28.5184  -21.8085  -18.0778 C   0  0  0  0  0  0  0  0  0  0  0  0
   29.6615  -22.6813  -17.9602 C   0  0  0  0  0  0  0  0  0  0  0  0
   30.3787  -23.3062  -19.0710 C   0  0  0  0  0  0  0  0  0  0  0  0
   31.4613  -22.3169  -19.4330 N   0  0  0  0  0  0  0  0  0  0  0  0
   25.7705  -21.0165  -15.6034 C   0  0  0  0  0  0  0  0  0  0  0  0
   26.0149  -19.8621  -15.2223 O   0  0  0  0  0  0  0  0  0  0  0  0
   24.4506  -21.4807  -15.5283 N   0  0  0  0  0  0  0  0  0  0  0  0
   23.3387  -20.6245  -15.0842 C   0  0  1  0  0  0  0  0  0  0  0  0
   23.1438  -19.6053  -16.1541 C   0  0  0  0  0  0  0  0  0  0  0  0
   22.4514  -18.4260  -15.5481 C   0  0  0  0  0  0  0  0  0  0  0  0
   22.9938  -17.2447  -15.1151 C   0  0  0  0  0  0  0  0  0  0  0  0
   22.0071  -16.4712  -14.6429 N   0  0  0  0  0  0  0  0  0  0  0  0
   20.8463  -17.1376  -14.7672 C   0  0  0  0  0  0  0  0  0  0  0  0
   21.1186  -18.3355  -15.3218 N   0  0  0  0  0  0  0  0  0  0  0  0
   22.1949  -21.4796  -14.8118 C   0  0  0  0  0  0  0  0  0  0  0  0
   21.8403  -22.3279  -15.6694 O   0  0  0  0  0  0  0  0  0  0  0  0
   18.7910  -24.0901   -7.0986 N   0  0  0  0  0  0  0  0  0  0  0  0
   18.0075  -24.7563   -8.0973 C   0  0  0  0  0  0  0  0  0  0  0  0
   17.1304  -25.6383   -7.7745 N   0  0  0  0  0  0  0  0  0  0  0  0
   18.1896  -24.4478   -9.4769 N   0  0  0  0  0  0  0  0  0  0  0  0
   19.1629  -23.4628   -9.8819 C   0  0  0  0  0  0  0  0  0  0  0  0
   19.1491  -23.4615  -11.4096 C   0  0  0  0  0  0  0  0  0  0  0  0
   20.1977  -22.4590  -11.8327 C   0  0  0  0  0  0  0  0  0  0  0  0
   20.3410  -22.3490  -13.3245 C   0  0  2  0  0  0  0  0  0  0  0  0
   21.4155  -21.4405  -13.6214 N   0  0  0  0  0  0  0  0  0  0  0  0
   19.0619  -21.9572  -13.9182 C   0  0  0  0  0  0  0  0  0  0  0  0
   18.2169  -22.8548  -14.5429 O   0  0  0  0  0  0  0  0  0  0  0  0
   18.7041  -20.7558  -13.8649 O   0  0  0  0  0  0  0  0  0  0  0  0
  2  1  1  6
  3  2  1  0
  3  4  1  0
  4  5  1  0
  5  6  1  0
  6  7  1  0
  8 10  1  0
  8  2  1  0
  9  8  2  0
 11 10  1  0
 11 12  1  6
 12 13  1  0
 13 17  1  0
 14 13  2  0
 14 15  1  0
 15 16  1  0
 17 16  2  0
 18 11  1  0
 19 18  2  0
 21 20  1  0
 21 22  2  0
 23 21  1  0
 24 23  1  0
 25 26  1  0
 25 24  1  0
 27 28  1  0
 27 26  1  1
 28 18  1  0
 29 30  1  0
 29 27  1  0
 31 29  2  0
M  END
$$$$
