KHR.pdb
     RDKit          3D

 31 31  0  0  1  0  0  0  0  0999 V2000
   24.2053  -19.0057  -17.5611 N   0  0  0  0  0  0  0  0  0  0  0  0
   24.0029  -20.4106  -17.4280 C   0  0  1  0  0  0  0  0  0  0  0  0
   25.0781  -21.3155  -17.8209 C   0  0  0  0  0  0  0  0  0  0  0  0
   25.5089  -21.3746  -19.2112 C   0  0  0  0  0  0  0  0  0  0  0  0
   24.8546  -20.8491  -20.3850 C   0  0  0  0  0  0  0  0  0  0  0  0
   25.3381  -20.9693  -21.7600 C   0  0  0  0  0  0  0  0  0  0  0  0
   26.4477  -19.9498  -21.8664 N   0  0  0  0  0  0  0  0  0  0  0  0
   23.5666  -20.6349  -15.9920 C   0  0  0  0  0  0  0  0  0  0  0  0
   24.1600  -21.4876  -15.3150 O   0  0  0  0  0  0  0  0  0  0  0  0
   22.5198  -19.9181  -15.3974 N   0  0  0  0  0  0  0  0  0  0  0  0
   22.0499  -20.1983  -14.0309 C   0  0  1  0  0  0  0  0  0  0  0  0
   21.9263  -18.8767  -13.3530 C   0  0  0  0  0  0  0  0  0  0  0  0
   21.3428  -19.1068  -11.9950 C   0  0  0  0  0  0  0  0  0  0  0  0
   21.8657  -19.8204  -10.9488 C   0  0  0  0  0  0  0  0  0  0  0  0
   21.0060  -19.7630   -9.9229 N   0  0  0  0  0  0  0  0  0  0  0  0
   19.9454  -19.0263  -10.2961 C   0  0  0  0  0  0  0  0  0  0  0  0
   20.1517  -18.6242  -11.5659 N   0  0  0  0  0  0  0  0  0  0  0  0
   20.8244  -20.9745  -14.1280 C   0  0  0  0  0  0  0  0  0  0  0  0
   20.0185  -20.7411  -15.0645 O   0  0  0  0  0  0  0  0  0  0  0  0
   20.9395  -27.4257  -11.0826 N   0  0  0  0  0  0  0  0  0  0  0  0
   20.1733  -27.7937  -12.2369 C   0  0  0  0  0  0  0  0  0  0  0  0
   20.5985  -28.6839  -13.0605 N   0  0  0  0  0  0  0  0  0  0  0  0
   18.9155  -27.1734  -12.4919 N   0  0  0  0  0  0  0  0  0  0  0  0
   18.4523  -26.0927  -11.6558 C   0  0  0  0  0  0  0  0  0  0  0  0
   18.1660  -24.9249  -12.5984 C   0  0  0  0  0  0  0  0  0  0  0  0
   19.3202  -23.9640  -12.4302 C   0  0  0  0  0  0  0  0  0  0  0  0
   19.2218  -22.7612  -13.3255 C   0  0  2  0  0  0  0  0  0  0  0  0
   20.4435  -22.0091  -13.2277 N   0  0  0  0  0  0  0  0  0  0  0  0
   18.0280  -21.9858  -12.9853 C   0  0  0  0  0  0  0  0  0  0  0  0
   16.8086  -22.1705  -13.6091 O   0  0  0  0  0  0  0  0  0  0  0  0
   18.1006  -21.1108  -12.0889 O   0  0  0  0  0  0  0  0  0  0  0  0
  2  1  1  1
  3  2  1  0
  3  4  1  0
  4  5  1  0
  5  6  1  0
  6  7  1  0
  8 10  1  0
  8  2  1  0
  9  8  2  0
 11 10  1  0
 11 12  1  6
 12 13  1  0
 13 17  1  0
 14 13  2  0
 14 15  1  0
 15 16  1  0
 17 16  2  0
 18 11  1  0
 19 18  2  0
 21 20  1  0
 21 22  2  0
 23 21  1  0
 24 23  1  0
 25 26  1  0
 25 24  1  0
 27 28  1  0
 27 26  1  1
 28 18  1  0
 29 30  1  0
 29 27  1  0
 31 29  2  0
M  END
$$$$
