KHR.pdb
     RDKit          3D

 31 31  0  0  1  0  0  0  0  0999 V2000
   19.5640  -21.1371  -11.9419 N   0  0  0  0  0  0  0  0  0  0  0  0
   20.0807  -19.8131  -11.8298 C   0  0  1  0  0  0  0  0  0  0  0  0
   21.1806  -19.5645  -10.9038 C   0  0  0  0  0  0  0  0  0  0  0  0
   20.9838  -19.7494   -9.4723 C   0  0  0  0  0  0  0  0  0  0  0  0
   20.5081  -20.9147   -8.7668 C   0  0  0  0  0  0  0  0  0  0  0  0
   20.3365  -21.0275   -7.3189 C   0  0  0  0  0  0  0  0  0  0  0  0
   19.9356  -22.4660   -7.0915 N   0  0  0  0  0  0  0  0  0  0  0  0
   20.4168  -19.3755  -13.2433 C   0  0  0  0  0  0  0  0  0  0  0  0
   20.5703  -20.2436  -14.1155 O   0  0  0  0  0  0  0  0  0  0  0  0
   20.5614  -18.0298  -13.6058 N   0  0  0  0  0  0  0  0  0  0  0  0
   20.8280  -17.6116  -14.9917 C   0  0  1  0  0  0  0  0  0  0  0  0
   20.2943  -16.2258  -15.1193 C   0  0  0  0  0  0  0  0  0  0  0  0
   18.8287  -16.3195  -15.4029 C   0  0  0  0  0  0  0  0  0  0  0  0
   18.0639  -17.4404  -15.5930 C   0  0  0  0  0  0  0  0  0  0  0  0
   16.7996  -17.0593  -15.8194 N   0  0  0  0  0  0  0  0  0  0  0  0
   16.7447  -15.7169  -15.7768 C   0  0  0  0  0  0  0  0  0  0  0  0
   17.9881  -15.2635  -15.5217 N   0  0  0  0  0  0  0  0  0  0  0  0
   22.2522  -17.7645  -15.2405 C   0  0  0  0  0  0  0  0  0  0  0  0
   23.0739  -17.1199  -14.5402 O   0  0  0  0  0  0  0  0  0  0  0  0
   27.7159  -24.3114  -15.9856 N   0  0  0  0  0  0  0  0  0  0  0  0
   28.4424  -23.2366  -16.5956 C   0  0  0  0  0  0  0  0  0  0  0  0
   29.6577  -23.3921  -16.9835 N   0  0  0  0  0  0  0  0  0  0  0  0
   27.8228  -21.9668  -16.7843 N   0  0  0  0  0  0  0  0  0  0  0  0
   26.4569  -21.7531  -16.3718 C   0  0  0  0  0  0  0  0  0  0  0  0
   26.1242  -20.3109  -16.7505 C   0  0  0  0  0  0  0  0  0  0  0  0
   24.6912  -20.0905  -16.3242 C   0  0  0  0  0  0  0  0  0  0  0  0
   24.2219  -18.6794  -16.5398 C   0  0  2  0  0  0  0  0  0  0  0  0
   22.8175  -18.6067  -16.2390 N   0  0  0  0  0  0  0  0  0  0  0  0
   24.5527  -18.2487  -17.8989 C   0  0  0  0  0  0  0  0  0  0  0  0
   25.7229  -17.5835  -18.2127 O   0  0  0  0  0  0  0  0  0  0  0  0
   23.7469  -18.4875  -18.8305 O   0  0  0  0  0  0  0  0  0  0  0  0
  2  1  1  6
  3  2  1  0
  3  4  1  0
  4  5  1  0
  5  6  1  0
  6  7  1  0
  8 10  1  0
  8  2  1  0
  9  8  2  0
 11 10  1  0
 11 12  1  1
 12 13  1  0
 13 17  1  0
 14 13  2  0
 14 15  1  0
 15 16  1  0
 17 16  2  0
 18 11  1  0
 19 18  2  0
 21 20  1  0
 21 22  2  0
 23 21  1  0
 24 23  1  0
 25 26  1  0
 25 24  1  0
 27 28  1  0
 27 26  1  6
 28 18  1  0
 29 30  1  0
 29 27  1  0
 31 29  2  0
M  END
$$$$
