KHR.pdb
     RDKit          3D

 31 31  0  0  1  0  0  0  0  0999 V2000
   20.1386  -14.0500  -17.0449 N   0  0  0  0  0  0  0  0  0  0  0  0
   19.5317  -12.9627  -17.7389 C   0  0  1  0  0  0  0  0  0  0  0  0
   18.2318  -13.1693  -18.3687 C   0  0  0  0  0  0  0  0  0  0  0  0
   17.2604  -14.0662  -17.7574 C   0  0  0  0  0  0  0  0  0  0  0  0
   15.9707  -14.4795  -18.2556 C   0  0  0  0  0  0  0  0  0  0  0  0
   15.0244  -15.3515  -17.5606 C   0  0  0  0  0  0  0  0  0  0  0  0
   13.8164  -15.4047  -18.4660 N   0  0  0  0  0  0  0  0  0  0  0  0
   19.5123  -11.8026  -16.7610 C   0  0  0  0  0  0  0  0  0  0  0  0
   18.7947  -11.8846  -15.7530 O   0  0  0  0  0  0  0  0  0  0  0  0
   20.2722  -10.6404  -16.9488 N   0  0  0  0  0  0  0  0  0  0  0  0
   20.3047   -9.5520  -15.9583 C   0  0  1  0  0  0  0  0  0  0  0  0
   21.6817   -8.9839  -16.0078 C   0  0  0  0  0  0  0  0  0  0  0  0
   21.7711   -7.8992  -14.9817 C   0  0  0  0  0  0  0  0  0  0  0  0
   21.9155   -8.0154  -13.6241 C   0  0  0  0  0  0  0  0  0  0  0  0
   21.9506   -6.7859  -13.0933 N   0  0  0  0  0  0  0  0  0  0  0  0
   21.8314   -5.8887  -14.0872 C   0  0  0  0  0  0  0  0  0  0  0  0
   21.7212   -6.5710  -15.2444 N   0  0  0  0  0  0  0  0  0  0  0  0
   19.2287   -8.6264  -16.2733 C   0  0  0  0  0  0  0  0  0  0  0  0
   18.9332   -8.4096  -17.4760 O   0  0  0  0  0  0  0  0  0  0  0  0
   11.2062   -7.6343  -13.3259 N   0  0  0  0  0  0  0  0  0  0  0  0
   11.4035   -6.4693  -14.1376 C   0  0  0  0  0  0  0  0  0  0  0  0
   10.4332   -5.6669  -14.3952 N   0  0  0  0  0  0  0  0  0  0  0  0
   12.6908   -6.1787  -14.6762 N   0  0  0  0  0  0  0  0  0  0  0  0
   13.8066   -7.0545  -14.4125 C   0  0  0  0  0  0  0  0  0  0  0  0
   14.9854   -6.4814  -15.1975 C   0  0  0  0  0  0  0  0  0  0  0  0
   16.1506   -7.4055  -14.9288 C   0  0  0  0  0  0  0  0  0  0  0  0
   17.4103   -6.9869  -15.6331 C   0  0  2  0  0  0  0  0  0  0  0  0
   18.4548   -7.9207  -15.3094 N   0  0  0  0  0  0  0  0  0  0  0  0
   17.7350   -5.6022  -15.2877 C   0  0  0  0  0  0  0  0  0  0  0  0
   17.2386   -4.5172  -15.9853 O   0  0  0  0  0  0  0  0  0  0  0  0
   18.4971   -5.3754  -14.3170 O   0  0  0  0  0  0  0  0  0  0  0  0
  2  1  1  1
  3  2  1  0
  3  4  1  0
  4  5  1  0
  5  6  1  0
  6  7  1  0
  8 10  1  0
  8  2  1  0
  9  8  2  0
 11 10  1  0
 11 12  1  6
 12 13  1  0
 13 17  1  0
 14 13  2  0
 14 15  1  0
 15 16  1  0
 17 16  2  0
 18 11  1  0
 19 18  2  0
 21 20  1  0
 21 22  2  0
 23 21  1  0
 24 23  1  0
 25 26  1  0
 25 24  1  0
 27 28  1  0
 27 26  1  1
 28 18  1  0
 29 30  1  0
 29 27  1  0
 31 29  2  0
M  END
$$$$
