KHR.pdb
     RDKit          3D

 31 31  0  0  1  0  0  0  0  0999 V2000
   25.3742  -21.4683  -17.1776 N   0  0  0  0  0  0  0  0  0  0  0  0
   24.0351  -20.9822  -17.2292 C   0  0  1  0  0  0  0  0  0  0  0  0
   23.1258  -21.5332  -18.2286 C   0  0  0  0  0  0  0  0  0  0  0  0
   23.3818  -21.3145  -19.6458 C   0  0  0  0  0  0  0  0  0  0  0  0
   23.8092  -20.1086  -20.3132 C   0  0  0  0  0  0  0  0  0  0  0  0
   23.9096  -19.9211  -21.7601 C   0  0  0  0  0  0  0  0  0  0  0  0
   25.1398  -20.6996  -22.1629 N   0  0  0  0  0  0  0  0  0  0  0  0
   23.4860  -21.1222  -15.8216 C   0  0  0  0  0  0  0  0  0  0  0  0
   23.6998  -22.1739  -15.2003 O   0  0  0  0  0  0  0  0  0  0  0  0
   22.7465  -20.1119  -15.1927 N   0  0  0  0  0  0  0  0  0  0  0  0
   22.1580  -20.2834  -13.8544 C   0  0  1  0  0  0  0  0  0  0  0  0
   21.8268  -18.9148  -13.3657 C   0  0  0  0  0  0  0  0  0  0  0  0
   21.2088  -19.0454  -12.0098 C   0  0  0  0  0  0  0  0  0  0  0  0
   21.7578  -19.5612  -10.8654 C   0  0  0  0  0  0  0  0  0  0  0  0
   20.8493  -19.4808   -9.8840 N   0  0  0  0  0  0  0  0  0  0  0  0
   19.7321  -18.9234  -10.3819 C   0  0  0  0  0  0  0  0  0  0  0  0
   19.9523  -18.6567  -11.6846 N   0  0  0  0  0  0  0  0  0  0  0  0
   21.0357  -21.2001  -13.9718 C   0  0  0  0  0  0  0  0  0  0  0  0
   20.3787  -21.2375  -15.0432 O   0  0  0  0  0  0  0  0  0  0  0  0
   20.2779  -29.1067  -12.6438 N   0  0  0  0  0  0  0  0  0  0  0  0
   20.3729  -28.3303  -11.4425 C   0  0  0  0  0  0  0  0  0  0  0  0
   20.9851  -28.7815  -10.4065 N   0  0  0  0  0  0  0  0  0  0  0  0
   19.7854  -27.0332  -11.3772 N   0  0  0  0  0  0  0  0  0  0  0  0
   19.0305  -26.5173  -12.4931 C   0  0  0  0  0  0  0  0  0  0  0  0
   18.5750  -25.1183  -12.0816 C   0  0  0  0  0  0  0  0  0  0  0  0
   19.7813  -24.2236  -12.2495 C   0  0  0  0  0  0  0  0  0  0  0  0
   19.5005  -23.0046  -13.0821 C   0  0  2  0  0  0  0  0  0  0  0  0
   20.6004  -22.0880  -12.9480 N   0  0  0  0  0  0  0  0  0  0  0  0
   18.2096  -22.4300  -12.7009 C   0  0  0  0  0  0  0  0  0  0  0  0
   17.0516  -22.6353  -13.4269 O   0  0  0  0  0  0  0  0  0  0  0  0
   18.1364  -21.7170  -11.6711 O   0  0  0  0  0  0  0  0  0  0  0  0
  2  1  1  1
  3  2  1  0
  3  4  1  0
  4  5  1  0
  5  6  1  0
  6  7  1  0
  8 10  1  0
  8  2  1  0
  9  8  2  0
 11 10  1  0
 11 12  1  6
 12 13  1  0
 13 17  1  0
 14 13  2  0
 14 15  1  0
 15 16  1  0
 17 16  2  0
 18 11  1  0
 19 18  2  0
 21 20  1  0
 21 22  2  0
 23 21  1  0
 24 23  1  0
 25 26  1  0
 25 24  1  0
 27 28  1  0
 27 26  1  1
 28 18  1  0
 29 30  1  0
 29 27  1  0
 31 29  2  0
M  END
$$$$
