KHR.pdb
     RDKit          3D

 31 31  0  0  1  0  0  0  0  0999 V2000
   26.0350  -23.9536  -17.7536 N   0  0  0  0  0  0  0  0  0  0  0  0
   27.3289  -24.0167  -17.1583 C   0  0  1  0  0  0  0  0  0  0  0  0
   28.5016  -24.0292  -18.0264 C   0  0  0  0  0  0  0  0  0  0  0  0
   28.8502  -25.2368  -18.7626 C   0  0  0  0  0  0  0  0  0  0  0  0
   28.1122  -25.9053  -19.8070 C   0  0  0  0  0  0  0  0  0  0  0  0
   28.5539  -27.0888  -20.5438 C   0  0  0  0  0  0  0  0  0  0  0  0
   29.8561  -26.6751  -21.1880 N   0  0  0  0  0  0  0  0  0  0  0  0
   27.3795  -22.8842  -16.1496 C   0  0  0  0  0  0  0  0  0  0  0  0
   28.4628  -22.6146  -15.6099 O   0  0  0  0  0  0  0  0  0  0  0  0
   26.2521  -22.1285  -15.8016 N   0  0  0  0  0  0  0  0  0  0  0  0
   26.3212  -20.9979  -14.8616 C   0  0  1  0  0  0  0  0  0  0  0  0
   25.7497  -19.8231  -15.5791 C   0  0  0  0  0  0  0  0  0  0  0  0
   26.7905  -19.3057  -16.5205 C   0  0  0  0  0  0  0  0  0  0  0  0
   26.8038  -19.3503  -17.8899 C   0  0  0  0  0  0  0  0  0  0  0  0
   27.9298  -18.7682  -18.3236 N   0  0  0  0  0  0  0  0  0  0  0  0
   28.6339  -18.3535  -17.2562 C   0  0  0  0  0  0  0  0  0  0  0  0
   27.9358  -18.6829  -16.1513 N   0  0  0  0  0  0  0  0  0  0  0  0
   25.6342  -21.3866  -13.6407 C   0  0  0  0  0  0  0  0  0  0  0  0
   24.6224  -22.1297  -13.7116 O   0  0  0  0  0  0  0  0  0  0  0  0
   27.7390  -18.9098   -5.6610 N   0  0  0  0  0  0  0  0  0  0  0  0
   28.1357  -19.8936   -6.6252 C   0  0  0  0  0  0  0  0  0  0  0  0
   29.3419  -20.3354   -6.6661 N   0  0  0  0  0  0  0  0  0  0  0  0
   27.1901  -20.4032   -7.5622 N   0  0  0  0  0  0  0  0  0  0  0  0
   25.8753  -19.8180   -7.6633 C   0  0  0  0  0  0  0  0  0  0  0  0
   25.1214  -20.6539   -8.6962 C   0  0  0  0  0  0  0  0  0  0  0  0
   25.8519  -20.4542  -10.0040 C   0  0  0  0  0  0  0  0  0  0  0  0
   25.2116  -21.1789  -11.1541 C   0  0  2  0  0  0  0  0  0  0  0  0
   26.0180  -20.9878  -12.3293 N   0  0  0  0  0  0  0  0  0  0  0  0
   23.8277  -20.7304  -11.3144 C   0  0  0  0  0  0  0  0  0  0  0  0
   22.7491  -21.4190  -10.7922 O   0  0  0  0  0  0  0  0  0  0  0  0
   23.5955  -19.6751  -11.9522 O   0  0  0  0  0  0  0  0  0  0  0  0
  2  1  1  6
  3  2  1  0
  3  4  1  0
  4  5  1  0
  5  6  1  0
  6  7  1  0
  8 10  1  0
  8  2  1  0
  9  8  2  0
 11 10  1  0
 11 12  1  6
 12 13  1  0
 13 17  1  0
 14 13  2  0
 14 15  1  0
 15 16  1  0
 17 16  2  0
 18 11  1  0
 19 18  2  0
 21 20  1  0
 21 22  2  0
 23 21  1  0
 24 23  1  0
 25 26  1  0
 25 24  1  0
 27 28  1  0
 27 26  1  1
 28 18  1  0
 29 30  1  0
 29 27  1  0
 31 29  2  0
M  END
$$$$
