KHR.pdb
     RDKit          3D

 31 31  0  0  1  0  0  0  0  0999 V2000
   21.4013  -24.9820  -16.1195 N   0  0  0  0  0  0  0  0  0  0  0  0
   22.3526  -25.1965  -15.0797 C   0  0  1  0  0  0  0  0  0  0  0  0
   23.7589  -24.9116  -15.3445 C   0  0  0  0  0  0  0  0  0  0  0  0
   24.4149  -25.4976  -16.5056 C   0  0  0  0  0  0  0  0  0  0  0  0
   25.0436  -24.8333  -17.6217 C   0  0  0  0  0  0  0  0  0  0  0  0
   25.6371  -25.4912  -18.7852 C   0  0  0  0  0  0  0  0  0  0  0  0
   25.9931  -24.3623  -19.7236 N   0  0  0  0  0  0  0  0  0  0  0  0
   21.8340  -24.4321  -13.8758 C   0  0  0  0  0  0  0  0  0  0  0  0
   22.5499  -24.3526  -12.8665 O   0  0  0  0  0  0  0  0  0  0  0  0
   20.5781  -23.8111  -13.8561 N   0  0  0  0  0  0  0  0  0  0  0  0
   20.1083  -23.0207  -12.7067 C   0  0  1  0  0  0  0  0  0  0  0  0
   19.6295  -21.7225  -13.2608 C   0  0  0  0  0  0  0  0  0  0  0  0
   20.8282  -20.9099  -13.6353 C   0  0  0  0  0  0  0  0  0  0  0  0
   21.6721  -20.2036  -12.8192 C   0  0  0  0  0  0  0  0  0  0  0  0
   22.6121  -19.6245  -13.5781 N   0  0  0  0  0  0  0  0  0  0  0  0
   22.3827  -19.9488  -14.8623 C   0  0  0  0  0  0  0  0  0  0  0  0
   21.2896  -20.7364  -14.8974 N   0  0  0  0  0  0  0  0  0  0  0  0
   19.1139  -23.8085  -11.9966 C   0  0  0  0  0  0  0  0  0  0  0  0
   18.2850  -24.4910  -12.6508 O   0  0  0  0  0  0  0  0  0  0  0  0
   18.3132  -25.9133   -3.4160 N   0  0  0  0  0  0  0  0  0  0  0  0
   18.7339  -26.7715   -4.4843 C   0  0  0  0  0  0  0  0  0  0  0  0
   19.3450  -27.8770   -4.2472 N   0  0  0  0  0  0  0  0  0  0  0  0
   18.4781  -26.4101   -5.8392 N   0  0  0  0  0  0  0  0  0  0  0  0
   17.7026  -25.2329   -6.1463 C   0  0  0  0  0  0  0  0  0  0  0  0
   17.2654  -25.3855   -7.6022 C   0  0  0  0  0  0  0  0  0  0  0  0
   18.2842  -24.6285   -8.4224 C   0  0  0  0  0  0  0  0  0  0  0  0
   17.9593  -24.6028   -9.8893 C   0  0  2  0  0  0  0  0  0  0  0  0
   18.9915  -23.8781  -10.5802 N   0  0  0  0  0  0  0  0  0  0  0  0
   16.6197  -24.0491  -10.0911 C   0  0  0  0  0  0  0  0  0  0  0  0
   15.4809  -24.8314  -10.1289 O   0  0  0  0  0  0  0  0  0  0  0  0
   16.4843  -22.8104  -10.2378 O   0  0  0  0  0  0  0  0  0  0  0  0
  2  1  1  6
  3  2  1  0
  3  4  1  0
  4  5  1  0
  5  6  1  0
  6  7  1  0
  8 10  1  0
  8  2  1  0
  9  8  2  0
 11 10  1  0
 11 12  1  6
 12 13  1  0
 13 17  1  0
 14 13  2  0
 14 15  1  0
 15 16  1  0
 17 16  2  0
 18 11  1  0
 19 18  2  0
 21 20  1  0
 21 22  2  0
 23 21  1  0
 24 23  1  0
 25 26  1  0
 25 24  1  0
 27 28  1  0
 27 26  1  1
 28 18  1  0
 29 30  1  0
 29 27  1  0
 31 29  2  0
M  END
$$$$
