KHR.pdb
     RDKit          3D

 31 31  0  0  1  0  0  0  0  0999 V2000
   26.9234  -18.8905  -18.4540 N   0  0  0  0  0  0  0  0  0  0  0  0
   26.5452  -19.9228  -17.5464 C   0  0  1  0  0  0  0  0  0  0  0  0
   27.5812  -20.5727  -16.7506 C   0  0  0  0  0  0  0  0  0  0  0  0
   28.4776  -21.5390  -17.3709 C   0  0  0  0  0  0  0  0  0  0  0  0
   28.1703  -22.5753  -18.3269 C   0  0  0  0  0  0  0  0  0  0  0  0
   29.1278  -23.5182  -18.9040 C   0  0  0  0  0  0  0  0  0  0  0  0
   29.2208  -24.6366  -17.8929 N   0  0  0  0  0  0  0  0  0  0  0  0
   25.4471  -19.3345  -16.6800 C   0  0  0  0  0  0  0  0  0  0  0  0
   25.7421  -18.4495  -15.8631 O   0  0  0  0  0  0  0  0  0  0  0  0
   24.1115  -19.7496  -16.7638 N   0  0  0  0  0  0  0  0  0  0  0  0
   23.0452  -19.1415  -15.9515 C   0  0  1  0  0  0  0  0  0  0  0  0
   21.9396  -18.8104  -16.8946 C   0  0  0  0  0  0  0  0  0  0  0  0
   22.2251  -17.4673  -17.4878 C   0  0  0  0  0  0  0  0  0  0  0  0
   22.0414  -16.2292  -16.9305 C   0  0  0  0  0  0  0  0  0  0  0  0
   22.4311  -15.3022  -17.8157 N   0  0  0  0  0  0  0  0  0  0  0  0
   22.8597  -15.9266  -18.9263 C   0  0  0  0  0  0  0  0  0  0  0  0
   22.7334  -17.2534  -18.7254 N   0  0  0  0  0  0  0  0  0  0  0  0
   22.7080  -20.0706  -14.8853 C   0  0  0  0  0  0  0  0  0  0  0  0
   22.3576  -21.2427  -15.1759 O   0  0  0  0  0  0  0  0  0  0  0  0
   28.0690  -20.1882  -10.5106 N   0  0  0  0  0  0  0  0  0  0  0  0
   27.3430  -20.5367  -11.6965 C   0  0  0  0  0  0  0  0  0  0  0  0
   27.8933  -20.4707  -12.8560 N   0  0  0  0  0  0  0  0  0  0  0  0
   25.9869  -20.9668  -11.6081 N   0  0  0  0  0  0  0  0  0  0  0  0
   25.2984  -20.9534  -10.3404 C   0  0  0  0  0  0  0  0  0  0  0  0
   23.8922  -21.4809  -10.6201 C   0  0  0  0  0  0  0  0  0  0  0  0
   23.1217  -20.3185  -11.2022 C   0  0  0  0  0  0  0  0  0  0  0  0
   22.3681  -20.6768  -12.4519 C   0  0  2  0  0  0  0  0  0  0  0  0
   22.7402  -19.7611  -13.4964 N   0  0  0  0  0  0  0  0  0  0  0  0
   20.9309  -20.6974  -12.1758 C   0  0  0  0  0  0  0  0  0  0  0  0
   20.2665  -21.8258  -11.7337 O   0  0  0  0  0  0  0  0  0  0  0  0
   20.2596  -19.6508  -12.3439 O   0  0  0  0  0  0  0  0  0  0  0  0
  2  1  1  1
  3  2  1  0
  3  4  1  0
  4  5  1  0
  5  6  1  0
  6  7  1  0
  8 10  1  0
  8  2  1  0
  9  8  2  0
 11 10  1  0
 11 12  1  6
 12 13  1  0
 13 17  1  0
 14 13  2  0
 14 15  1  0
 15 16  1  0
 17 16  2  0
 18 11  1  0
 19 18  2  0
 21 20  1  0
 21 22  2  0
 23 21  1  0
 24 23  1  0
 25 26  1  0
 25 24  1  0
 27 28  1  0
 27 26  1  1
 28 18  1  0
 29 30  1  0
 29 27  1  0
 31 29  2  0
M  END
$$$$
