KHR.pdb
     RDKit          3D

 31 31  0  0  1  0  0  0  0  0999 V2000
   27.8028  -18.2763  -17.2603 N   0  0  0  0  0  0  0  0  0  0  0  0
   26.3897  -18.1701  -17.1045 C   0  0  1  0  0  0  0  0  0  0  0  0
   25.5491  -18.1772  -18.2972 C   0  0  0  0  0  0  0  0  0  0  0  0
   25.6344  -17.0832  -19.2552 C   0  0  0  0  0  0  0  0  0  0  0  0
   26.7734  -16.6365  -20.0204 C   0  0  0  0  0  0  0  0  0  0  0  0
   26.7768  -15.5408  -20.9890 C   0  0  0  0  0  0  0  0  0  0  0  0
   28.2101  -15.4475  -21.4568 N   0  0  0  0  0  0  0  0  0  0  0  0
   25.9954  -19.2587  -16.1237 C   0  0  0  0  0  0  0  0  0  0  0  0
   26.1726  -20.4432  -16.4450 O   0  0  0  0  0  0  0  0  0  0  0  0
   25.4384  -18.9819  -14.8682 N   0  0  0  0  0  0  0  0  0  0  0  0
   25.1473  -20.0384  -13.8854 C   0  0  1  0  0  0  0  0  0  0  0  0
   25.8566  -19.6504  -12.6333 C   0  0  0  0  0  0  0  0  0  0  0  0
   27.3219  -19.8604  -12.8483 C   0  0  0  0  0  0  0  0  0  0  0  0
   28.3100  -18.9210  -12.9839 C   0  0  0  0  0  0  0  0  0  0  0  0
   29.4776  -19.5541  -13.1591 N   0  0  0  0  0  0  0  0  0  0  0  0
   29.2517  -20.8790  -13.1374 C   0  0  0  0  0  0  0  0  0  0  0  0
   27.9307  -21.0667  -12.9470 N   0  0  0  0  0  0  0  0  0  0  0  0
   23.7031  -20.1665  -13.7786 C   0  0  0  0  0  0  0  0  0  0  0  0
   22.9970  -19.1305  -13.6833 O   0  0  0  0  0  0  0  0  0  0  0  0
   18.4179  -27.3815  -13.4957 N   0  0  0  0  0  0  0  0  0  0  0  0
   17.6759  -26.2872  -12.9416 C   0  0  0  0  0  0  0  0  0  0  0  0
   16.5178  -26.4688  -12.4148 N   0  0  0  0  0  0  0  0  0  0  0  0
   18.2157  -24.9682  -12.9653 N   0  0  0  0  0  0  0  0  0  0  0  0
   19.5232  -24.7250  -13.5244 C   0  0  0  0  0  0  0  0  0  0  0  0
   19.7110  -23.2088  -13.5105 C   0  0  0  0  0  0  0  0  0  0  0  0
   21.1995  -22.9745  -13.6261 C   0  0  0  0  0  0  0  0  0  0  0  0
   21.5711  -21.5187  -13.6040 C   0  0  2  0  0  0  0  0  0  0  0  0
   22.9943  -21.4008  -13.7721 N   0  0  0  0  0  0  0  0  0  0  0  0
   21.0731  -20.8982  -12.3756 C   0  0  0  0  0  0  0  0  0  0  0  0
   19.8716  -20.2182  -12.3105 O   0  0  0  0  0  0  0  0  0  0  0  0
   21.7575  -20.9794  -11.3271 O   0  0  0  0  0  0  0  0  0  0  0  0
  2  1  1  6
  3  2  1  0
  3  4  1  0
  4  5  1  0
  5  6  1  0
  6  7  1  0
  8 10  1  0
  8  2  1  0
  9  8  2  0
 11 10  1  0
 11 12  1  1
 12 13  1  0
 13 17  1  0
 14 13  2  0
 14 15  1  0
 15 16  1  0
 17 16  2  0
 18 11  1  0
 19 18  2  0
 21 20  1  0
 21 22  2  0
 23 21  1  0
 24 23  1  0
 25 26  1  0
 25 24  1  0
 27 28  1  0
 27 26  1  1
 28 18  1  0
 29 30  1  0
 29 27  1  0
 31 29  2  0
M  END
$$$$
