KHR.pdb
     RDKit          3D

 31 31  0  0  1  0  0  0  0  0999 V2000
   26.5717  -20.7717   -9.1786 N   0  0  0  0  0  0  0  0  0  0  0  0
   27.4187  -20.7863  -10.3253 C   0  0  1  0  0  0  0  0  0  0  0  0
   27.9528  -22.0629  -10.7878 C   0  0  0  0  0  0  0  0  0  0  0  0
   29.2788  -22.4938  -10.3656 C   0  0  0  0  0  0  0  0  0  0  0  0
   30.5198  -21.7580  -10.3883 C   0  0  0  0  0  0  0  0  0  0  0  0
   31.8332  -22.2839  -10.0177 C   0  0  0  0  0  0  0  0  0  0  0  0
   32.7819  -21.1271  -10.2265 N   0  0  0  0  0  0  0  0  0  0  0  0
   26.6552  -20.0598  -11.4170 C   0  0  0  0  0  0  0  0  0  0  0  0
   25.4637  -19.7762  -11.2235 O   0  0  0  0  0  0  0  0  0  0  0  0
   27.2404  -19.6949  -12.6367 N   0  0  0  0  0  0  0  0  0  0  0  0
   26.5504  -18.8410  -13.6171 C   0  0  1  0  0  0  0  0  0  0  0  0
   27.6158  -18.2332  -14.4640 C   0  0  0  0  0  0  0  0  0  0  0  0
   26.9511  -17.4403  -15.5442 C   0  0  0  0  0  0  0  0  0  0  0  0
   26.7099  -17.7995  -16.8442 C   0  0  0  0  0  0  0  0  0  0  0  0
   26.0908  -16.7826  -17.4587 N   0  0  0  0  0  0  0  0  0  0  0  0
   25.9331  -15.7825  -16.5743 C   0  0  0  0  0  0  0  0  0  0  0  0
   26.4603  -16.1855  -15.4012 N   0  0  0  0  0  0  0  0  0  0  0  0
   25.5770  -19.6609  -14.3200 C   0  0  0  0  0  0  0  0  0  0  0  0
   25.9111  -20.8025  -14.7277 O   0  0  0  0  0  0  0  0  0  0  0  0
   17.2109  -21.1449  -12.6748 N   0  0  0  0  0  0  0  0  0  0  0  0
   17.5051  -21.9706  -13.8091 C   0  0  0  0  0  0  0  0  0  0  0  0
   16.6416  -22.8065  -14.2643 N   0  0  0  0  0  0  0  0  0  0  0  0
   18.7712  -21.8764  -14.4571 N   0  0  0  0  0  0  0  0  0  0  0  0
   19.8024  -21.0207  -13.9225 C   0  0  0  0  0  0  0  0  0  0  0  0
   20.9417  -21.0491  -14.9400 C   0  0  0  0  0  0  0  0  0  0  0  0
   22.0363  -20.1830  -14.3608 C   0  0  0  0  0  0  0  0  0  0  0  0
   23.2605  -20.1196  -15.2299 C   0  0  2  0  0  0  0  0  0  0  0  0
   24.2356  -19.2735  -14.5965 N   0  0  0  0  0  0  0  0  0  0  0  0
   22.8908  -19.6807  -16.5763 C   0  0  0  0  0  0  0  0  0  0  0  0
   22.7229  -20.5560  -17.6327 O   0  0  0  0  0  0  0  0  0  0  0  0
   22.7155  -18.4578  -16.7956 O   0  0  0  0  0  0  0  0  0  0  0  0
  2  1  1  1
  3  2  1  0
  3  4  1  0
  4  5  1  0
  5  6  1  0
  6  7  1  0
  8 10  1  0
  8  2  1  0
  9  8  2  0
 11 10  1  0
 11 12  1  6
 12 13  1  0
 13 17  1  0
 14 13  2  0
 14 15  1  0
 15 16  1  0
 17 16  2  0
 18 11  1  0
 19 18  2  0
 21 20  1  0
 21 22  2  0
 23 21  1  0
 24 23  1  0
 25 26  1  0
 25 24  1  0
 27 28  1  0
 27 26  1  1
 28 18  1  0
 29 30  1  0
 29 27  1  0
 31 29  2  0
M  END
$$$$
