KHR.pdb
     RDKit          3D

 31 31  0  0  1  0  0  0  0  0999 V2000
   19.0452  -11.4488  -16.0751 N   0  0  0  0  0  0  0  0  0  0  0  0
   18.0321  -10.5844  -15.5663 C   0  0  1  0  0  0  0  0  0  0  0  0
   16.6824  -11.1107  -15.3916 C   0  0  0  0  0  0  0  0  0  0  0  0
   16.2762  -12.3216  -16.0922 C   0  0  0  0  0  0  0  0  0  0  0  0
   14.9708  -12.9324  -16.1623 C   0  0  0  0  0  0  0  0  0  0  0  0
   14.6280  -14.1337  -16.9226 C   0  0  0  0  0  0  0  0  0  0  0  0
   13.1845  -14.4093  -16.5733 N   0  0  0  0  0  0  0  0  0  0  0  0
   18.5874  -10.0035  -14.2792 C   0  0  0  0  0  0  0  0  0  0  0  0
   18.5838  -10.7064  -13.2576 O   0  0  0  0  0  0  0  0  0  0  0  0
   19.1050   -8.7042  -14.1956 N   0  0  0  0  0  0  0  0  0  0  0  0
   19.6206   -8.1410  -12.9371 C   0  0  1  0  0  0  0  0  0  0  0  0
   20.8203   -7.3350  -13.3012 C   0  0  0  0  0  0  0  0  0  0  0  0
   21.8532   -8.2667  -13.8511 C   0  0  0  0  0  0  0  0  0  0  0  0
   22.4887   -9.3061  -13.2241 C   0  0  0  0  0  0  0  0  0  0  0  0
   23.3380   -9.8714  -14.0923 N   0  0  0  0  0  0  0  0  0  0  0  0
   23.2554   -9.2117  -15.2606 C   0  0  0  0  0  0  0  0  0  0  0  0
   22.3456   -8.2283  -15.1128 N   0  0  0  0  0  0  0  0  0  0  0  0
   18.5397   -7.4094  -12.2968 C   0  0  0  0  0  0  0  0  0  0  0  0
   17.7974   -6.6706  -12.9926 O   0  0  0  0  0  0  0  0  0  0  0  0
   11.8388  -10.0450   -7.9164 N   0  0  0  0  0  0  0  0  0  0  0  0
   11.7035   -8.6182   -7.8839 C   0  0  0  0  0  0  0  0  0  0  0  0
   10.6535   -8.0613   -7.3951 N   0  0  0  0  0  0  0  0  0  0  0  0
   12.7412   -7.7865   -8.3969 N   0  0  0  0  0  0  0  0  0  0  0  0
   13.9640   -8.3686   -8.8942 C   0  0  0  0  0  0  0  0  0  0  0  0
   14.8633   -7.1944   -9.2771 C   0  0  0  0  0  0  0  0  0  0  0  0
   16.1277   -7.8055   -9.8352 C   0  0  0  0  0  0  0  0  0  0  0  0
   17.1258   -6.7803  -10.2944 C   0  0  2  0  0  0  0  0  0  0  0  0
   18.2372   -7.4568  -10.9068 N   0  0  0  0  0  0  0  0  0  0  0  0
   17.5086   -5.9231   -9.1716 C   0  0  0  0  0  0  0  0  0  0  0  0
   16.7280   -4.8723   -8.7279 O   0  0  0  0  0  0  0  0  0  0  0  0
   18.5914   -6.1404   -8.5762 O   0  0  0  0  0  0  0  0  0  0  0  0
  2  1  1  1
  3  2  1  0
  3  4  1  0
  4  5  1  0
  5  6  1  0
  6  7  1  0
  8 10  1  0
  8  2  1  0
  9  8  2  0
 11 10  1  0
 11 12  1  6
 12 13  1  0
 13 17  1  0
 14 13  2  0
 14 15  1  0
 15 16  1  0
 17 16  2  0
 18 11  1  0
 19 18  2  0
 21 20  1  0
 21 22  2  0
 23 21  1  0
 24 23  1  0
 25 26  1  0
 25 24  1  0
 27 28  1  0
 27 26  1  1
 28 18  1  0
 29 30  1  0
 29 27  1  0
 31 29  2  0
M  END
$$$$
