KHR.pdb
     RDKit          3D

 31 31  0  0  1  0  0  0  0  0999 V2000
   27.1187  -18.3529  -17.2625 N   0  0  0  0  0  0  0  0  0  0  0  0
   26.3905  -18.7803  -16.1138 C   0  0  1  0  0  0  0  0  0  0  0  0
   27.1301  -19.2733  -14.9566 C   0  0  0  0  0  0  0  0  0  0  0  0
   28.1007  -20.3478  -15.1161 C   0  0  0  0  0  0  0  0  0  0  0  0
   28.0515  -21.4889  -15.9979 C   0  0  0  0  0  0  0  0  0  0  0  0
   29.0213  -22.5828  -16.0365 C   0  0  0  0  0  0  0  0  0  0  0  0
   28.4265  -23.5887  -16.9936 N   0  0  0  0  0  0  0  0  0  0  0  0
   25.4691  -17.6300  -15.7524 C   0  0  0  0  0  0  0  0  0  0  0  0
   24.7855  -17.7152  -14.7214 O   0  0  0  0  0  0  0  0  0  0  0  0
   25.3577  -16.4736  -16.5356 N   0  0  0  0  0  0  0  0  0  0  0  0
   24.4036  -15.3979  -16.2207 C   0  0  1  0  0  0  0  0  0  0  0  0
   25.0104  -14.1378  -16.7360 C   0  0  0  0  0  0  0  0  0  0  0  0
   24.0476  -13.0224  -16.4785 C   0  0  0  0  0  0  0  0  0  0  0  0
   22.8461  -13.0638  -15.8213 C   0  0  0  0  0  0  0  0  0  0  0  0
   22.3169  -11.8330  -15.8244 N   0  0  0  0  0  0  0  0  0  0  0  0
   23.1588  -11.0085  -16.4711 C   0  0  0  0  0  0  0  0  0  0  0  0
   24.2193  -11.7373  -16.8721 N   0  0  0  0  0  0  0  0  0  0  0  0
   23.1164  -15.7580  -16.7927 C   0  0  0  0  0  0  0  0  0  0  0  0
   23.0772  -16.3433  -17.9048 O   0  0  0  0  0  0  0  0  0  0  0  0
   15.8243  -19.2643  -14.4863 N   0  0  0  0  0  0  0  0  0  0  0  0
   16.1475  -19.8727  -15.7435 C   0  0  0  0  0  0  0  0  0  0  0  0
   15.4538  -20.8506  -16.2062 N   0  0  0  0  0  0  0  0  0  0  0  0
   17.2529  -19.3981  -16.5081 N   0  0  0  0  0  0  0  0  0  0  0  0
   18.4086  -18.8389  -15.8501 C   0  0  0  0  0  0  0  0  0  0  0  0
   18.7330  -17.5461  -16.5968 C   0  0  0  0  0  0  0  0  0  0  0  0
   20.1071  -17.1291  -16.1260 C   0  0  0  0  0  0  0  0  0  0  0  0
   20.5877  -15.8557  -16.7627 C   0  0  2  0  0  0  0  0  0  0  0  0
   21.8554  -15.4984  -16.1855 N   0  0  0  0  0  0  0  0  0  0  0  0
   19.5672  -14.8158  -16.6240 C   0  0  0  0  0  0  0  0  0  0  0  0
   18.4955  -14.6943  -17.4881 O   0  0  0  0  0  0  0  0  0  0  0  0
   19.6570  -13.9908  -15.6828 O   0  0  0  0  0  0  0  0  0  0  0  0
  2  1  1  6
  3  2  1  0
  3  4  1  0
  4  5  1  0
  5  6  1  0
  6  7  1  0
  8 10  1  0
  8  2  1  0
  9  8  2  0
 11 10  1  0
 11 12  1  6
 12 13  1  0
 13 17  1  0
 14 13  2  0
 14 15  1  0
 15 16  1  0
 17 16  2  0
 18 11  1  0
 19 18  2  0
 21 20  1  0
 21 22  2  0
 23 21  1  0
 24 23  1  0
 25 26  1  0
 25 24  1  0
 27 28  1  0
 27 26  1  1
 28 18  1  0
 29 30  1  0
 29 27  1  0
 31 29  2  0
M  END
$$$$
