KHR.pdb
     RDKit          3D

 31 31  0  0  1  0  0  0  0  0999 V2000
   23.0263  -16.4638  -18.0243 N   0  0  0  0  0  0  0  0  0  0  0  0
   21.7856  -15.9331  -17.5644 C   0  0  1  0  0  0  0  0  0  0  0  0
   21.2279  -16.4346  -16.3128 C   0  0  0  0  0  0  0  0  0  0  0  0
   21.4926  -17.8046  -15.8945 C   0  0  0  0  0  0  0  0  0  0  0  0
   21.0531  -18.4882  -14.7022 C   0  0  0  0  0  0  0  0  0  0  0  0
   21.3366  -19.8818  -14.3612 C   0  0  0  0  0  0  0  0  0  0  0  0
   20.6530  -20.0977  -13.0317 N   0  0  0  0  0  0  0  0  0  0  0  0
   21.9577  -14.4255  -17.5471 C   0  0  0  0  0  0  0  0  0  0  0  0
   23.0568  -13.9548  -17.2185 O   0  0  0  0  0  0  0  0  0  0  0  0
   20.9256  -13.5411  -17.8873 N   0  0  0  0  0  0  0  0  0  0  0  0
   21.1280  -12.0849  -17.9594 C   0  0  1  0  0  0  0  0  0  0  0  0
   19.9614  -11.5381  -18.7087 C   0  0  0  0  0  0  0  0  0  0  0  0
   20.1741  -10.0682  -18.8862 C   0  0  0  0  0  0  0  0  0  0  0  0
   21.2423   -9.3048  -18.4945 C   0  0  0  0  0  0  0  0  0  0  0  0
   21.0135   -8.0353  -18.8564 N   0  0  0  0  0  0  0  0  0  0  0  0
   19.8197   -7.9759  -19.4715 C   0  0  0  0  0  0  0  0  0  0  0  0
   19.3053   -9.2215  -19.4896 N   0  0  0  0  0  0  0  0  0  0  0  0
   21.2961  -11.5875  -16.6036 C   0  0  0  0  0  0  0  0  0  0  0  0
   20.6237  -12.0973  -15.6714 O   0  0  0  0  0  0  0  0  0  0  0  0
   26.7203  -11.8569  -17.3949 N   0  0  0  0  0  0  0  0  0  0  0  0
   27.5169  -10.7805  -16.8833 C   0  0  0  0  0  0  0  0  0  0  0  0
   28.4683  -10.2688  -17.5795 N   0  0  0  0  0  0  0  0  0  0  0  0
   27.2639  -10.2547  -15.5828 N   0  0  0  0  0  0  0  0  0  0  0  0
   26.1857  -10.7798  -14.7807 C   0  0  0  0  0  0  0  0  0  0  0  0
   24.9161  -10.0938  -15.2822 C   0  0  0  0  0  0  0  0  0  0  0  0
   23.7852  -10.6581  -14.4537 C   0  0  0  0  0  0  0  0  0  0  0  0
   22.4360  -10.1417  -14.8673 C   0  0  2  0  0  0  0  0  0  0  0  0
   22.1833  -10.5407  -16.2255 N   0  0  0  0  0  0  0  0  0  0  0  0
   22.3743   -8.6941  -14.6610 C   0  0  0  0  0  0  0  0  0  0  0  0
   22.5486   -7.7810  -15.6838 O   0  0  0  0  0  0  0  0  0  0  0  0
   22.1541   -8.2481  -13.5091 O   0  0  0  0  0  0  0  0  0  0  0  0
  2  1  1  1
  3  2  1  0
  3  4  1  0
  4  5  1  0
  5  6  1  0
  6  7  1  0
  8 10  1  0
  8  2  1  0
  9  8  2  0
 11 10  1  0
 11 12  1  1
 12 13  1  0
 13 17  1  0
 14 13  2  0
 14 15  1  0
 15 16  1  0
 17 16  2  0
 18 11  1  0
 19 18  2  0
 21 20  1  0
 21 22  2  0
 23 21  1  0
 24 23  1  0
 25 26  1  0
 25 24  1  0
 27 28  1  0
 27 26  1  6
 28 18  1  0
 29 30  1  0
 29 27  1  0
 31 29  2  0
M  END
$$$$
