KHR.pdb
     RDKit          3D

 31 31  0  0  1  0  0  0  0  0999 V2000
   31.7994  -31.1789  -18.3263 N   0  0  0  0  0  0  0  0  0  0  0  0
   31.7388  -29.8970  -18.9471 C   0  0  1  0  0  0  0  0  0  0  0  0
   31.6168  -29.8249  -20.3993 C   0  0  0  0  0  0  0  0  0  0  0  0
   32.4844  -30.6343  -21.2444 C   0  0  0  0  0  0  0  0  0  0  0  0
   32.2028  -31.8956  -21.8864 C   0  0  0  0  0  0  0  0  0  0  0  0
   33.1086  -32.6256  -22.7725 C   0  0  0  0  0  0  0  0  0  0  0  0
   32.3556  -33.8828  -23.1388 N   0  0  0  0  0  0  0  0  0  0  0  0
   30.6235  -29.1456  -18.2442 C   0  0  0  0  0  0  0  0  0  0  0  0
   29.8069  -29.7874  -17.5670 O   0  0  0  0  0  0  0  0  0  0  0  0
   30.4769  -27.7546  -18.3281 N   0  0  0  0  0  0  0  0  0  0  0  0
   29.4535  -27.0230  -17.5637 C   0  0  1  0  0  0  0  0  0  0  0  0
   29.6896  -25.5756  -17.8296 C   0  0  0  0  0  0  0  0  0  0  0  0
   28.6252  -24.7967  -17.1241 C   0  0  0  0  0  0  0  0  0  0  0  0
   27.5365  -25.2644  -16.4361 C   0  0  0  0  0  0  0  0  0  0  0  0
   26.8483  -24.2159  -15.9651 N   0  0  0  0  0  0  0  0  0  0  0  0
   27.4782  -23.0892  -16.3401 C   0  0  0  0  0  0  0  0  0  0  0  0
   28.5670  -23.4450  -17.0504 N   0  0  0  0  0  0  0  0  0  0  0  0
   28.1499  -27.5323  -17.9573 C   0  0  0  0  0  0  0  0  0  0  0  0
   27.9032  -27.7212  -19.1757 O   0  0  0  0  0  0  0  0  0  0  0  0
   24.6087  -34.5087  -15.9823 N   0  0  0  0  0  0  0  0  0  0  0  0
   25.6443  -33.7716  -16.6451 C   0  0  0  0  0  0  0  0  0  0  0  0
   26.7970  -34.2960  -16.8643 N   0  0  0  0  0  0  0  0  0  0  0  0
   25.4101  -32.4334  -17.0764 N   0  0  0  0  0  0  0  0  0  0  0  0
   24.2562  -31.7066  -16.6057 C   0  0  0  0  0  0  0  0  0  0  0  0
   24.3011  -30.3485  -17.3041 C   0  0  0  0  0  0  0  0  0  0  0  0
   25.6265  -29.7303  -16.9234 C   0  0  0  0  0  0  0  0  0  0  0  0
   25.8031  -28.3372  -17.4583 C   0  0  2  0  0  0  0  0  0  0  0  0
   27.0936  -27.8463  -17.0565 N   0  0  0  0  0  0  0  0  0  0  0  0
   24.6921  -27.4923  -17.0179 C   0  0  0  0  0  0  0  0  0  0  0  0
   24.8589  -26.4110  -16.1734 O   0  0  0  0  0  0  0  0  0  0  0  0
   23.5308  -27.7497  -17.4173 O   0  0  0  0  0  0  0  0  0  0  0  0
  2  1  1  1
  3  2  1  0
  3  4  1  0
  4  5  1  0
  5  6  1  0
  6  7  1  0
  8 10  1  0
  8  2  1  0
  9  8  2  0
 11 10  1  0
 11 12  1  6
 12 13  1  0
 13 17  1  0
 14 13  2  0
 14 15  1  0
 15 16  1  0
 17 16  2  0
 18 11  1  0
 19 18  2  0
 21 20  1  0
 21 22  2  0
 23 21  1  0
 24 23  1  0
 25 26  1  0
 25 24  1  0
 27 28  1  0
 27 26  1  1
 28 18  1  0
 29 30  1  0
 29 27  1  0
 31 29  2  0
M  END
$$$$
