EEA.pdb
     RDKit          3D

 24 23  0  0  1  0  0  0  0  0999 V2000
    9.3045  -15.0874   22.5745 N   0  0  0  0  0  0  0  0  0  0  0  0
    9.4039  -16.5340   22.5312 C   0  0  1  0  0  0  0  0  0  0  0  0
    9.7902  -16.9336   21.1417 C   0  0  0  0  0  0  0  0  0  0  0  0
    9.8127  -18.4022   20.8821 C   0  0  0  0  0  0  0  0  0  0  0  0
   10.1634  -18.7836   19.5075 C   0  0  0  0  0  0  0  0  0  0  0  0
   10.8982  -19.7598   19.2674 O   0  0  0  0  0  0  0  0  0  0  0  0
   10.4551  -17.0389   23.4487 C   0  0  0  0  0  0  0  0  0  0  0  0
   10.5320  -18.2719   23.6400 O   0  0  0  0  0  0  0  0  0  0  0  0
    9.6657  -18.0408   18.4592 O   0  0  0  0  0  0  0  0  0  0  0  0
   11.3612  -16.1912   24.1064 N   0  0  0  0  0  0  0  0  0  0  0  0
   12.2934  -16.7616   25.0861 C   0  0  1  0  0  0  0  0  0  0  0  0
   13.6829  -16.7188   24.5512 C   0  0  0  0  0  0  0  0  0  0  0  0
   14.0080  -15.5701   23.6494 C   0  0  0  0  0  0  0  0  0  0  0  0
   15.3783  -15.6605   23.0969 C   0  0  0  0  0  0  0  0  0  0  0  0
   15.6886  -15.9996   21.9384 O   0  0  0  0  0  0  0  0  0  0  0  0
   12.1037  -16.1366   26.4123 C   0  0  0  0  0  0  0  0  0  0  0  0
   12.8601  -16.4071   27.3706 O   0  0  0  0  0  0  0  0  0  0  0  0
   16.4427  -15.3334   23.9562 O   0  0  0  0  0  0  0  0  0  0  0  0
    9.8143  -13.4973   27.8350 C   0  0  0  0  0  0  0  0  0  0  0  0
   10.7948  -14.6657   28.0003 C   0  0  2  0  0  0  0  0  0  0  0  0
   11.0585  -15.1954   26.6831 N   0  0  0  0  0  0  0  0  0  0  0  0
   10.2315  -15.6713   28.9193 C   0  0  0  0  0  0  0  0  0  0  0  0
   10.3095  -15.5687   30.3008 O   0  0  0  0  0  0  0  0  0  0  0  0
    9.6453  -16.6834   28.4610 O   0  0  0  0  0  0  0  0  0  0  0  0
  2  1  1  6
  2  3  1  0
  3  4  1  0
  4  5  1  0
  5  9  1  0
  6  5  2  0
  7  2  1  0
  7  8  2  0
 10  7  1  0
 11 10  1  0
 11 16  1  0
 11 12  1  6
 13 12  1  0
 13 14  1  0
 14 15  2  0
 16 17  2  0
 16 21  1  0
 18 14  1  0
 20 19  1  6
 20 22  1  0
 21 20  1  0
 22 24  2  0
 22 23  1  0
M  END
$$$$
