EEA.pdb
     RDKit          3D

 24 23  0  0  1  0  0  0  0  0999 V2000
    8.2807  -13.2010   18.8192 N   0  0  0  0  0  0  0  0  0  0  0  0
    8.9172  -14.2406   19.6057 C   0  0  1  0  0  0  0  0  0  0  0  0
   10.3261  -13.8192   19.8825 C   0  0  0  0  0  0  0  0  0  0  0  0
   11.3703  -14.5073   19.0694 C   0  0  0  0  0  0  0  0  0  0  0  0
   12.7523  -14.1117   19.3719 C   0  0  0  0  0  0  0  0  0  0  0  0
   13.0160  -13.2968   20.2757 O   0  0  0  0  0  0  0  0  0  0  0  0
    8.2429  -14.4283   20.9141 C   0  0  0  0  0  0  0  0  0  0  0  0
    7.4826  -13.5244   21.3237 O   0  0  0  0  0  0  0  0  0  0  0  0
   13.7811  -14.6575   18.6354 O   0  0  0  0  0  0  0  0  0  0  0  0
    8.4243  -15.5744   21.7052 N   0  0  0  0  0  0  0  0  0  0  0  0
    7.6400  -15.7259   22.9365 C   0  0  1  0  0  0  0  0  0  0  0  0
    7.3988  -17.1698   23.2118 C   0  0  0  0  0  0  0  0  0  0  0  0
    6.6736  -17.4876   24.4812 C   0  0  0  0  0  0  0  0  0  0  0  0
    6.4862  -18.9436   24.6712 C   0  0  0  0  0  0  0  0  0  0  0  0
    5.4397  -19.5140   25.0357 O   0  0  0  0  0  0  0  0  0  0  0  0
    8.2538  -14.9620   24.0434 C   0  0  0  0  0  0  0  0  0  0  0  0
    9.4857  -15.0029   24.2542 O   0  0  0  0  0  0  0  0  0  0  0  0
    7.5925  -19.7744   24.4179 O   0  0  0  0  0  0  0  0  0  0  0  0
    6.9970  -12.5100   26.6249 C   0  0  0  0  0  0  0  0  0  0  0  0
    8.0680  -13.4567   26.0677 C   0  0  2  0  0  0  0  0  0  0  0  0
    7.4910  -14.1382   24.9329 N   0  0  0  0  0  0  0  0  0  0  0  0
    8.5212  -14.3824   27.1216 C   0  0  0  0  0  0  0  0  0  0  0  0
    8.3109  -15.7531   27.0731 O   0  0  0  0  0  0  0  0  0  0  0  0
    9.1310  -13.9405   28.1269 O   0  0  0  0  0  0  0  0  0  0  0  0
  2  1  1  6
  2  3  1  0
  3  4  1  0
  4  5  1  0
  5  9  1  0
  6  5  2  0
  7  2  1  0
  7  8  2  0
 10  7  1  0
 11 10  1  0
 11 16  1  0
 11 12  1  1
 13 12  1  0
 13 14  1  0
 14 15  2  0
 16 17  2  0
 16 21  1  0
 18 14  1  0
 20 19  1  1
 20 22  1  0
 21 20  1  0
 22 24  2  0
 22 23  1  0
M  END
$$$$
