EEA.pdb
     RDKit          3D

 24 23  0  0  1  0  0  0  0  0999 V2000
    9.8623  -13.8659   19.7050 N   0  0  0  0  0  0  0  0  0  0  0  0
    8.5389  -13.4417   20.1211 C   0  0  1  0  0  0  0  0  0  0  0  0
    7.5509  -13.9425   19.1150 C   0  0  0  0  0  0  0  0  0  0  0  0
    7.6837  -15.3830   18.7511 C   0  0  0  0  0  0  0  0  0  0  0  0
    7.5408  -15.6765   17.3189 C   0  0  0  0  0  0  0  0  0  0  0  0
    7.4545  -14.7686   16.4711 O   0  0  0  0  0  0  0  0  0  0  0  0
    8.1668  -14.0184   21.4366 C   0  0  0  0  0  0  0  0  0  0  0  0
    7.0266  -13.7762   21.8884 O   0  0  0  0  0  0  0  0  0  0  0  0
    7.5014  -16.9904   16.9057 O   0  0  0  0  0  0  0  0  0  0  0  0
    9.0399  -14.8206   22.1893 N   0  0  0  0  0  0  0  0  0  0  0  0
    8.6129  -15.3006   23.5089 C   0  0  1  0  0  0  0  0  0  0  0  0
    9.4422  -16.4682   23.9185 C   0  0  0  0  0  0  0  0  0  0  0  0
    9.2912  -17.7071   23.0935 C   0  0  0  0  0  0  0  0  0  0  0  0
   10.1395  -18.8160   23.5853 C   0  0  0  0  0  0  0  0  0  0  0  0
   10.3412  -19.1217   24.7766 O   0  0  0  0  0  0  0  0  0  0  0  0
    8.5625  -14.1858   24.4785 C   0  0  0  0  0  0  0  0  0  0  0  0
    9.5805  -13.5088   24.7413 O   0  0  0  0  0  0  0  0  0  0  0  0
   10.7865  -19.6092   22.6207 O   0  0  0  0  0  0  0  0  0  0  0  0
    5.9212  -12.1795   26.1724 C   0  0  0  0  0  0  0  0  0  0  0  0
    7.3270  -12.7937   26.1913 C   0  0  2  0  0  0  0  0  0  0  0  0
    7.3644  -13.8133   25.1695 N   0  0  0  0  0  0  0  0  0  0  0  0
    7.6305  -13.3187   27.5350 C   0  0  0  0  0  0  0  0  0  0  0  0
    7.8204  -12.5073   28.6444 O   0  0  0  0  0  0  0  0  0  0  0  0
    7.7289  -14.5574   27.7186 O   0  0  0  0  0  0  0  0  0  0  0  0
  2  1  1  6
  2  3  1  0
  3  4  1  0
  4  5  1  0
  5  9  1  0
  6  5  2  0
  7  2  1  0
  7  8  2  0
 10  7  1  0
 11 10  1  0
 11 16  1  0
 11 12  1  1
 13 12  1  0
 13 14  1  0
 14 15  2  0
 16 17  2  0
 16 21  1  0
 18 14  1  0
 20 19  1  1
 20 22  1  0
 21 20  1  0
 22 24  2  0
 22 23  1  0
M  END
$$$$
