EEA.pdb
     RDKit          3D

 24 23  0  0  1  0  0  0  0  0999 V2000
    2.5685  -21.6326   20.7988 N   0  0  0  0  0  0  0  0  0  0  0  0
    3.4397  -20.4826   20.9502 C   0  0  1  0  0  0  0  0  0  0  0  0
    2.6043  -19.3183   21.3813 C   0  0  0  0  0  0  0  0  0  0  0  0
    1.7699  -18.6994   20.3110 C   0  0  0  0  0  0  0  0  0  0  0  0
    0.5657  -19.4579   19.9469 C   0  0  0  0  0  0  0  0  0  0  0  0
   -0.1729  -19.9659   20.8111 O   0  0  0  0  0  0  0  0  0  0  0  0
    4.4663  -20.7069   21.9979 C   0  0  0  0  0  0  0  0  0  0  0  0
    4.1045  -21.2103   23.0835 O   0  0  0  0  0  0  0  0  0  0  0  0
    0.2477  -19.6097   18.6148 O   0  0  0  0  0  0  0  0  0  0  0  0
    5.8197  -20.3777   21.8188 N   0  0  0  0  0  0  0  0  0  0  0  0
    6.7629  -20.6017   22.9208 C   0  0  1  0  0  0  0  0  0  0  0  0
    7.8198  -21.5626   22.4986 C   0  0  0  0  0  0  0  0  0  0  0  0
    8.8683  -21.8803   23.5175 C   0  0  0  0  0  0  0  0  0  0  0  0
    9.8795  -22.8319   23.0046 C   0  0  0  0  0  0  0  0  0  0  0  0
   10.5941  -23.5918   23.6865 O   0  0  0  0  0  0  0  0  0  0  0  0
    7.2525  -19.3145   23.4583 C   0  0  0  0  0  0  0  0  0  0  0  0
    7.8015  -18.4696   22.7177 O   0  0  0  0  0  0  0  0  0  0  0  0
   10.0594  -22.8922   21.6109 O   0  0  0  0  0  0  0  0  0  0  0  0
    6.8255  -17.3094   26.5584 C   0  0  0  0  0  0  0  0  0  0  0  0
    7.7232  -17.7629   25.3997 C   0  0  2  0  0  0  0  0  0  0  0  0
    7.1326  -18.9557   24.8398 N   0  0  0  0  0  0  0  0  0  0  0  0
    9.0996  -17.9779   25.8819 C   0  0  0  0  0  0  0  0  0  0  0  0
    9.9593  -16.9418   26.2177 O   0  0  0  0  0  0  0  0  0  0  0  0
    9.5471  -19.1450   26.0060 O   0  0  0  0  0  0  0  0  0  0  0  0
  2  1  1  1
  2  3  1  0
  3  4  1  0
  4  5  1  0
  5  9  1  0
  6  5  2  0
  7  2  1  0
  7  8  2  0
 10  7  1  0
 11 10  1  0
 11 16  1  0
 11 12  1  6
 13 12  1  0
 13 14  1  0
 14 15  2  0
 16 17  2  0
 16 21  1  0
 18 14  1  0
 20 19  1  1
 20 22  1  0
 21 20  1  0
 22 24  2  0
 22 23  1  0
M  END
$$$$
