EEA.pdb
     RDKit          3D

 24 23  0  0  1  0  0  0  0  0999 V2000
    9.0248  -17.7025   17.9497 N   0  0  0  0  0  0  0  0  0  0  0  0
    8.4621  -16.9879   19.0798 C   0  0  1  0  0  0  0  0  0  0  0  0
    7.0864  -17.5208   19.3304 C   0  0  0  0  0  0  0  0  0  0  0  0
    6.9929  -19.0016   19.4837 C   0  0  0  0  0  0  0  0  0  0  0  0
    5.6383  -19.5156   19.7263 C   0  0  0  0  0  0  0  0  0  0  0  0
    5.4191  -20.7310   19.8850 O   0  0  0  0  0  0  0  0  0  0  0  0
    9.2557  -17.2039   20.3149 C   0  0  0  0  0  0  0  0  0  0  0  0
    8.9833  -18.1936   21.0285 O   0  0  0  0  0  0  0  0  0  0  0  0
    4.5854  -18.6284   19.7791 O   0  0  0  0  0  0  0  0  0  0  0  0
   10.2941  -16.3454   20.7111 N   0  0  0  0  0  0  0  0  0  0  0  0
   11.0440  -16.6467   21.9362 C   0  0  1  0  0  0  0  0  0  0  0  0
   12.4466  -16.1622   21.8064 C   0  0  0  0  0  0  0  0  0  0  0  0
   13.3556  -16.4557   22.9578 C   0  0  0  0  0  0  0  0  0  0  0  0
   14.7462  -16.0184   22.7010 C   0  0  0  0  0  0  0  0  0  0  0  0
   15.6223  -16.6582   22.0874 O   0  0  0  0  0  0  0  0  0  0  0  0
   10.3131  -16.1645   23.1274 C   0  0  0  0  0  0  0  0  0  0  0  0
    9.9818  -14.9643   23.2428 O   0  0  0  0  0  0  0  0  0  0  0  0
   15.1267  -14.7572   23.1939 O   0  0  0  0  0  0  0  0  0  0  0  0
    7.8914  -17.0187   25.4563 C   0  0  0  0  0  0  0  0  0  0  0  0
    9.3499  -16.5431   25.4354 C   0  0  2  0  0  0  0  0  0  0  0  0
    9.9420  -17.0258   24.2101 N   0  0  0  0  0  0  0  0  0  0  0  0
   10.0542  -17.0218   26.6388 C   0  0  0  0  0  0  0  0  0  0  0  0
    9.7902  -16.5463   27.9152 O   0  0  0  0  0  0  0  0  0  0  0  0
   10.9432  -17.9035   26.5379 O   0  0  0  0  0  0  0  0  0  0  0  0
  2  1  1  6
  2  3  1  0
  3  4  1  0
  4  5  1  0
  5  9  1  0
  6  5  2  0
  7  2  1  0
  7  8  2  0
 10  7  1  0
 11 10  1  0
 11 16  1  0
 11 12  1  6
 13 12  1  0
 13 14  1  0
 14 15  2  0
 16 17  2  0
 16 21  1  0
 18 14  1  0
 20 19  1  1
 20 22  1  0
 21 20  1  0
 22 24  2  0
 22 23  1  0
M  END
$$$$
