EEA.pdb
     RDKit          3D

 24 23  0  0  1  0  0  0  0  0999 V2000
   10.9832  -17.3099   20.6010 N   0  0  0  0  0  0  0  0  0  0  0  0
   11.7034  -17.6587   21.8110 C   0  0  1  0  0  0  0  0  0  0  0  0
   12.9751  -16.8704   21.8403 C   0  0  0  0  0  0  0  0  0  0  0  0
   13.9536  -17.1957   20.7624 C   0  0  0  0  0  0  0  0  0  0  0  0
   15.1924  -16.4069   20.7908 C   0  0  0  0  0  0  0  0  0  0  0  0
   15.4769  -15.6039   19.8826 O   0  0  0  0  0  0  0  0  0  0  0  0
   10.9323  -17.3062   23.0287 C   0  0  0  0  0  0  0  0  0  0  0  0
   10.0546  -16.4206   22.9382 O   0  0  0  0  0  0  0  0  0  0  0  0
   16.0600  -16.5611   21.8501 O   0  0  0  0  0  0  0  0  0  0  0  0
   11.1486  -17.9245   24.2709 N   0  0  0  0  0  0  0  0  0  0  0  0
   10.2379  -17.6326   25.3842 C   0  0  1  0  0  0  0  0  0  0  0  0
    9.9335  -18.8831   26.1340 C   0  0  0  0  0  0  0  0  0  0  0  0
    8.9960  -19.8403   25.4683 C   0  0  0  0  0  0  0  0  0  0  0  0
    8.7029  -21.0191   26.3143 C   0  0  0  0  0  0  0  0  0  0  0  0
    9.2363  -22.1423   26.2297 O   0  0  0  0  0  0  0  0  0  0  0  0
   10.7530  -16.5123   26.1998 C   0  0  0  0  0  0  0  0  0  0  0  0
   11.9514  -16.4656   26.5537 O   0  0  0  0  0  0  0  0  0  0  0  0
    7.7273  -20.8670   27.3160 O   0  0  0  0  0  0  0  0  0  0  0  0
    9.3482  -13.2648   27.5028 C   0  0  0  0  0  0  0  0  0  0  0  0
   10.3875  -14.3931   27.5315 C   0  0  2  0  0  0  0  0  0  0  0  0
    9.9275  -15.4243   26.6314 N   0  0  0  0  0  0  0  0  0  0  0  0
   10.5688  -14.8774   28.9120 C   0  0  0  0  0  0  0  0  0  0  0  0
   11.2999  -14.1901   29.8702 O   0  0  0  0  0  0  0  0  0  0  0  0
   10.0485  -15.9630   29.2707 O   0  0  0  0  0  0  0  0  0  0  0  0
  2  1  1  6
  2  3  1  0
  3  4  1  0
  4  5  1  0
  5  9  1  0
  6  5  2  0
  7  2  1  0
  7  8  2  0
 10  7  1  0
 11 10  1  0
 11 16  1  0
 11 12  1  1
 13 12  1  0
 13 14  1  0
 14 15  2  0
 16 17  2  0
 16 21  1  0
 18 14  1  0
 20 19  1  1
 20 22  1  0
 21 20  1  0
 22 24  2  0
 22 23  1  0
M  END
$$$$
