EEA.pdb
     RDKit          3D

 24 23  0  0  1  0  0  0  0  0999 V2000
   10.4815  -16.6275   20.6575 N   0  0  0  0  0  0  0  0  0  0  0  0
   10.6779  -17.5992   21.7166 C   0  0  1  0  0  0  0  0  0  0  0  0
   12.1484  -17.7327   21.9600 C   0  0  0  0  0  0  0  0  0  0  0  0
   12.9827  -16.5966   21.4721 C   0  0  0  0  0  0  0  0  0  0  0  0
   14.4274  -16.7506   21.6881 C   0  0  0  0  0  0  0  0  0  0  0  0
   14.8996  -17.7494   22.2624 O   0  0  0  0  0  0  0  0  0  0  0  0
   10.0538  -17.1576   22.9882 C   0  0  0  0  0  0  0  0  0  0  0  0
    9.6320  -15.9832   23.0645 O   0  0  0  0  0  0  0  0  0  0  0  0
   15.2796  -15.7635   21.2432 O   0  0  0  0  0  0  0  0  0  0  0  0
    9.9194  -18.0018   24.1024 N   0  0  0  0  0  0  0  0  0  0  0  0
    9.1687  -17.5297   25.2720 C   0  0  1  0  0  0  0  0  0  0  0  0
    8.6381  -18.6912   26.0387 C   0  0  0  0  0  0  0  0  0  0  0  0
    7.9660  -18.3736   27.3371 C   0  0  0  0  0  0  0  0  0  0  0  0
    7.4693  -19.5872   28.0238 C   0  0  0  0  0  0  0  0  0  0  0  0
    7.9760  -20.1319   29.0238 O   0  0  0  0  0  0  0  0  0  0  0  0
    9.9723  -16.5661   26.0537 C   0  0  0  0  0  0  0  0  0  0  0  0
   11.1794  -16.7791   26.3012 O   0  0  0  0  0  0  0  0  0  0  0  0
    6.3114  -20.1936   27.5042 O   0  0  0  0  0  0  0  0  0  0  0  0
    9.4527  -13.0903   27.3916 C   0  0  0  0  0  0  0  0  0  0  0  0
   10.1831  -14.4394   27.4069 C   0  0  2  0  0  0  0  0  0  0  0  0
    9.4308  -15.3450   26.5708 N   0  0  0  0  0  0  0  0  0  0  0  0
   10.3227  -14.9222   28.7927 C   0  0  0  0  0  0  0  0  0  0  0  0
   11.1563  -14.3243   29.7270 O   0  0  0  0  0  0  0  0  0  0  0  0
    9.6684  -15.9225   29.1789 O   0  0  0  0  0  0  0  0  0  0  0  0
  2  1  1  6
  2  3  1  0
  3  4  1  0
  4  5  1  0
  5  9  1  0
  6  5  2  0
  7  2  1  0
  7  8  2  0
 10  7  1  0
 11 10  1  0
 11 16  1  0
 11 12  1  1
 13 12  1  0
 13 14  1  0
 14 15  2  0
 16 17  2  0
 16 21  1  0
 18 14  1  0
 20 19  1  1
 20 22  1  0
 21 20  1  0
 22 24  2  0
 22 23  1  0
M  END
$$$$
