EEA.pdb
     RDKit          3D

 24 23  0  0  1  0  0  0  0  0999 V2000
   12.9965  -19.7511   16.7828 N   0  0  0  0  0  0  0  0  0  0  0  0
   12.7263  -18.4456   17.3547 C   0  0  1  0  0  0  0  0  0  0  0  0
   11.2652  -18.1619   17.1994 C   0  0  0  0  0  0  0  0  0  0  0  0
   10.6751  -18.5492   15.8854 C   0  0  0  0  0  0  0  0  0  0  0  0
    9.2972  -18.0902   15.6649 C   0  0  0  0  0  0  0  0  0  0  0  0
    8.6807  -17.4356   16.5262 O   0  0  0  0  0  0  0  0  0  0  0  0
   13.0360  -18.4079   18.8053 C   0  0  0  0  0  0  0  0  0  0  0  0
   12.7372  -19.4028   19.5008 O   0  0  0  0  0  0  0  0  0  0  0  0
    8.6733  -18.3931   14.4743 O   0  0  0  0  0  0  0  0  0  0  0  0
   13.6478  -17.3052   19.4236 N   0  0  0  0  0  0  0  0  0  0  0  0
   13.9537  -17.3672   20.8577 C   0  0  1  0  0  0  0  0  0  0  0  0
   15.3162  -16.8213   21.1114 C   0  0  0  0  0  0  0  0  0  0  0  0
   15.7561  -16.7824   22.5408 C   0  0  0  0  0  0  0  0  0  0  0  0
   17.1114  -16.2077   22.6956 C   0  0  0  0  0  0  0  0  0  0  0  0
   18.1510  -16.8306   22.9864 O   0  0  0  0  0  0  0  0  0  0  0  0
   12.8663  -16.7550   21.6502 C   0  0  0  0  0  0  0  0  0  0  0  0
   12.6526  -15.5234   21.6146 O   0  0  0  0  0  0  0  0  0  0  0  0
   17.2506  -14.8222   22.4971 O   0  0  0  0  0  0  0  0  0  0  0  0
    9.8695  -17.9821   23.4997 C   0  0  0  0  0  0  0  0  0  0  0  0
   10.9643  -16.9243   23.3091 C   0  0  2  0  0  0  0  0  0  0  0  0
   11.9999  -17.5189   22.4972 N   0  0  0  0  0  0  0  0  0  0  0  0
   11.4575  -16.4664   24.6207 C   0  0  0  0  0  0  0  0  0  0  0  0
   12.7297  -16.7494   25.0969 O   0  0  0  0  0  0  0  0  0  0  0  0
   10.7139  -15.7842   25.3686 O   0  0  0  0  0  0  0  0  0  0  0  0
  2  1  1  1
  2  3  1  0
  3  4  1  0
  4  5  1  0
  5  9  1  0
  6  5  2  0
  7  2  1  0
  7  8  2  0
 10  7  1  0
 11 10  1  0
 11 16  1  0
 11 12  1  6
 13 12  1  0
 13 14  1  0
 14 15  2  0
 16 17  2  0
 16 21  1  0
 18 14  1  0
 20 19  1  1
 20 22  1  0
 21 20  1  0
 22 24  2  0
 22 23  1  0
M  END
$$$$
