EEA.pdb
     RDKit          3D

 24 23  0  0  1  0  0  0  0  0999 V2000
   11.1383  -14.9480   17.4764 N   0  0  0  0  0  0  0  0  0  0  0  0
   11.7328  -15.6132   18.6203 C   0  0  1  0  0  0  0  0  0  0  0  0
   12.8465  -14.7547   19.1321 C   0  0  0  0  0  0  0  0  0  0  0  0
   14.2025  -15.0864   18.6064 C   0  0  0  0  0  0  0  0  0  0  0  0
   15.3060  -14.3348   19.2189 C   0  0  0  0  0  0  0  0  0  0  0  0
   15.6731  -14.5500   20.3891 O   0  0  0  0  0  0  0  0  0  0  0  0
   10.7564  -15.7820   19.7247 C   0  0  0  0  0  0  0  0  0  0  0  0
    9.8529  -14.9273   19.8523 O   0  0  0  0  0  0  0  0  0  0  0  0
   15.9495  -13.3677   18.4778 O   0  0  0  0  0  0  0  0  0  0  0  0
   10.8071  -16.8573   20.6266 N   0  0  0  0  0  0  0  0  0  0  0  0
    9.7132  -17.0373   21.5884 C   0  0  1  0  0  0  0  0  0  0  0  0
    9.3661  -18.4815   21.6998 C   0  0  0  0  0  0  0  0  0  0  0  0
    7.9631  -18.8531   21.3369 C   0  0  0  0  0  0  0  0  0  0  0  0
    7.7279  -20.3119   21.4254 C   0  0  0  0  0  0  0  0  0  0  0  0
    7.3716  -20.9444   22.4385 O   0  0  0  0  0  0  0  0  0  0  0  0
   10.0232  -16.3582   22.8644 C   0  0  0  0  0  0  0  0  0  0  0  0
   11.1823  -16.3578   23.3336 O   0  0  0  0  0  0  0  0  0  0  0  0
    7.9231  -21.0684   20.2557 O   0  0  0  0  0  0  0  0  0  0  0  0
    8.1543  -14.1292   25.2538 C   0  0  0  0  0  0  0  0  0  0  0  0
    9.2999  -15.0988   24.9354 C   0  0  2  0  0  0  0  0  0  0  0  0
    9.0331  -15.6672   23.6351 N   0  0  0  0  0  0  0  0  0  0  0  0
    9.4073  -16.1185   25.9946 C   0  0  0  0  0  0  0  0  0  0  0  0
    9.1519  -17.4658   25.7832 O   0  0  0  0  0  0  0  0  0  0  0  0
    9.7444  -15.7839   27.1574 O   0  0  0  0  0  0  0  0  0  0  0  0
  2  1  1  6
  2  3  1  0
  3  4  1  0
  4  5  1  0
  5  9  1  0
  6  5  2  0
  7  2  1  0
  7  8  2  0
 10  7  1  0
 11 10  1  0
 11 16  1  0
 11 12  1  1
 13 12  1  0
 13 14  1  0
 14 15  2  0
 16 17  2  0
 16 21  1  0
 18 14  1  0
 20 19  1  1
 20 22  1  0
 21 20  1  0
 22 24  2  0
 22 23  1  0
M  END
$$$$
