EEA.pdb
     RDKit          3D

 24 23  0  0  1  0  0  0  0  0999 V2000
   13.4564  -19.1913   17.8725 N   0  0  0  0  0  0  0  0  0  0  0  0
   13.8694  -19.3000   19.2589 C   0  0  1  0  0  0  0  0  0  0  0  0
   14.9886  -18.3337   19.4892 C   0  0  0  0  0  0  0  0  0  0  0  0
   16.2425  -18.6159   18.7322 C   0  0  0  0  0  0  0  0  0  0  0  0
   17.2903  -17.5950   18.8652 C   0  0  0  0  0  0  0  0  0  0  0  0
   17.1224  -16.4296   18.4601 O   0  0  0  0  0  0  0  0  0  0  0  0
   12.7704  -18.9388   20.1881 C   0  0  0  0  0  0  0  0  0  0  0  0
   11.8809  -18.1610   19.7796 O   0  0  0  0  0  0  0  0  0  0  0  0
   18.4882  -17.9381   19.4532 O   0  0  0  0  0  0  0  0  0  0  0  0
   12.6908  -19.4333   21.5001 N   0  0  0  0  0  0  0  0  0  0  0  0
   11.4795  -19.1789   22.2889 C   0  0  1  0  0  0  0  0  0  0  0  0
   10.8755  -20.4690   22.7243 C   0  0  0  0  0  0  0  0  0  0  0  0
   10.9210  -21.5874   21.7317 C   0  0  0  0  0  0  0  0  0  0  0  0
   10.2613  -22.8128   22.2361 C   0  0  0  0  0  0  0  0  0  0  0  0
   10.1602  -23.9001   21.6353 O   0  0  0  0  0  0  0  0  0  0  0  0
   11.7550  -18.2094   23.3704 C   0  0  0  0  0  0  0  0  0  0  0  0
   12.8319  -18.2355   24.0054 O   0  0  0  0  0  0  0  0  0  0  0  0
    9.6887  -22.7550   23.5195 O   0  0  0  0  0  0  0  0  0  0  0  0
    9.8770  -15.3178   24.9172 C   0  0  0  0  0  0  0  0  0  0  0  0
   10.9894  -16.3743   24.9338 C   0  0  2  0  0  0  0  0  0  0  0  0
   10.8225  -17.1929   23.7561 N   0  0  0  0  0  0  0  0  0  0  0  0
   10.9283  -17.1519   26.1847 C   0  0  0  0  0  0  0  0  0  0  0  0
   10.5724  -18.4922   26.2314 O   0  0  0  0  0  0  0  0  0  0  0  0
   11.2061  -16.6035   27.2801 O   0  0  0  0  0  0  0  0  0  0  0  0
  2  1  1  6
  2  3  1  0
  3  4  1  0
  4  5  1  0
  5  9  1  0
  6  5  2  0
  7  2  1  0
  7  8  2  0
 10  7  1  0
 11 10  1  0
 11 16  1  0
 11 12  1  1
 13 12  1  0
 13 14  1  0
 14 15  2  0
 16 17  2  0
 16 21  1  0
 18 14  1  0
 20 19  1  1
 20 22  1  0
 21 20  1  0
 22 24  2  0
 22 23  1  0
M  END
$$$$
