EEA.pdb
     RDKit          3D

 24 23  0  0  1  0  0  0  0  0999 V2000
   11.3577  -16.4572   20.2720 N   0  0  0  0  0  0  0  0  0  0  0  0
   11.9954  -16.8833   21.5034 C   0  0  1  0  0  0  0  0  0  0  0  0
   13.2933  -16.1502   21.6342 C   0  0  0  0  0  0  0  0  0  0  0  0
   14.0613  -16.4282   22.8824 C   0  0  0  0  0  0  0  0  0  0  0  0
   15.3517  -15.7338   22.9841 C   0  0  0  0  0  0  0  0  0  0  0  0
   16.4246  -16.3052   22.7140 O   0  0  0  0  0  0  0  0  0  0  0  0
   11.1722  -16.5479   22.6914 C   0  0  0  0  0  0  0  0  0  0  0  0
   10.5677  -15.4536   22.7034 O   0  0  0  0  0  0  0  0  0  0  0  0
   15.3730  -14.4169   23.3890 O   0  0  0  0  0  0  0  0  0  0  0  0
   11.0464  -17.4061   23.7959 N   0  0  0  0  0  0  0  0  0  0  0  0
   10.0621  -17.0919   24.8383 C   0  0  1  0  0  0  0  0  0  0  0  0
    9.3010  -18.3184   25.2059 C   0  0  0  0  0  0  0  0  0  0  0  0
   10.1175  -19.5278   25.5359 C   0  0  0  0  0  0  0  0  0  0  0  0
    9.2783  -20.6797   25.9358 C   0  0  0  0  0  0  0  0  0  0  0  0
    8.0326  -20.7200   25.9465 O   0  0  0  0  0  0  0  0  0  0  0  0
   10.7037  -16.3809   25.9646 C   0  0  0  0  0  0  0  0  0  0  0  0
   11.8667  -16.6604   26.3293 O   0  0  0  0  0  0  0  0  0  0  0  0
    9.9426  -21.8496   26.3461 O   0  0  0  0  0  0  0  0  0  0  0  0
    9.7524  -13.4998   28.2093 C   0  0  0  0  0  0  0  0  0  0  0  0
   10.6226  -14.7163   27.8673 C   0  0  2  0  0  0  0  0  0  0  0  0
   10.0468  -15.3423   26.7004 N   0  0  0  0  0  0  0  0  0  0  0  0
   10.6978  -15.6247   29.0258 C   0  0  0  0  0  0  0  0  0  0  0  0
   11.4782  -15.3693   30.1443 O   0  0  0  0  0  0  0  0  0  0  0  0
   10.0348  -16.6916   29.0322 O   0  0  0  0  0  0  0  0  0  0  0  0
  2  1  1  6
  2  3  1  0
  3  4  1  0
  4  5  1  0
  5  9  1  0
  6  5  2  0
  7  2  1  0
  7  8  2  0
 10  7  1  0
 11 10  1  0
 11 16  1  0
 11 12  1  1
 13 12  1  0
 13 14  1  0
 14 15  2  0
 16 17  2  0
 16 21  1  0
 18 14  1  0
 20 19  1  1
 20 22  1  0
 21 20  1  0
 22 24  2  0
 22 23  1  0
M  END
$$$$
