EEA.pdb
     RDKit          3D

 24 23  0  0  1  0  0  0  0  0999 V2000
   11.2199  -17.2001   20.4368 N   0  0  0  0  0  0  0  0  0  0  0  0
   11.6904  -16.2377   21.4149 C   0  0  1  0  0  0  0  0  0  0  0  0
   11.4911  -14.8655   20.8522 C   0  0  0  0  0  0  0  0  0  0  0  0
   12.7398  -14.0859   20.6114 C   0  0  0  0  0  0  0  0  0  0  0  0
   13.6263  -14.6384   19.5786 C   0  0  0  0  0  0  0  0  0  0  0  0
   14.6638  -15.2610   19.8725 O   0  0  0  0  0  0  0  0  0  0  0  0
   10.9170  -16.3179   22.6787 C   0  0  0  0  0  0  0  0  0  0  0  0
    9.8042  -15.7504   22.7291 O   0  0  0  0  0  0  0  0  0  0  0  0
   13.2994  -14.4618   18.2517 O   0  0  0  0  0  0  0  0  0  0  0  0
   11.3833  -17.0019   23.8132 N   0  0  0  0  0  0  0  0  0  0  0  0
   10.5158  -17.1075   24.9924 C   0  0  1  0  0  0  0  0  0  0  0  0
   10.6755  -18.4473   25.6232 C   0  0  0  0  0  0  0  0  0  0  0  0
    9.9819  -18.6468   26.9337 C   0  0  0  0  0  0  0  0  0  0  0  0
   10.2877  -19.9640   27.5359 C   0  0  0  0  0  0  0  0  0  0  0  0
   11.0075  -20.1738   28.5315 O   0  0  0  0  0  0  0  0  0  0  0  0
   10.7173  -15.9530   25.8935 C   0  0  0  0  0  0  0  0  0  0  0  0
   11.8648  -15.5490   26.1828 O   0  0  0  0  0  0  0  0  0  0  0  0
    9.7140  -21.0976   26.9323 O   0  0  0  0  0  0  0  0  0  0  0  0
    8.4863  -13.4309   27.5826 C   0  0  0  0  0  0  0  0  0  0  0  0
    9.8147  -14.1895   27.4664 C   0  0  2  0  0  0  0  0  0  0  0  0
    9.6297  -15.2325   26.4850 N   0  0  0  0  0  0  0  0  0  0  0  0
   10.2159  -14.7100   28.7860 C   0  0  0  0  0  0  0  0  0  0  0  0
   10.7790  -13.9192   29.7773 O   0  0  0  0  0  0  0  0  0  0  0  0
   10.0534  -15.9255   29.0582 O   0  0  0  0  0  0  0  0  0  0  0  0
  2  1  1  6
  2  3  1  0
  3  4  1  0
  4  5  1  0
  5  9  1  0
  6  5  2  0
  7  2  1  0
  7  8  2  0
 10  7  1  0
 11 10  1  0
 11 16  1  0
 11 12  1  1
 13 12  1  0
 13 14  1  0
 14 15  2  0
 16 17  2  0
 16 21  1  0
 18 14  1  0
 20 19  1  1
 20 22  1  0
 21 20  1  0
 22 24  2  0
 22 23  1  0
M  END
$$$$
