IGV.pdb
     RDKit          3D

 20 19  0  0  1  0  0  0  0  0999 V2000
    7.8258  -12.4398   18.2254 C   0  0  0  0  0  0  0  0  0  0  0  0
    8.0050  -13.9002   18.5798 C   0  0  0  0  0  0  0  0  0  0  0  0
    7.5911  -14.1664   20.0110 C   0  0  2  0  0  0  0  0  0  0  0  0
    8.5508  -13.3960   20.9010 C   0  0  0  0  0  0  0  0  0  0  0  0
    7.6962  -15.6143   20.3774 C   0  0  2  0  0  0  0  0  0  0  0  0
    6.9647  -16.4305   19.4536 N   0  0  0  0  0  0  0  0  0  0  0  0
    7.3232  -15.9226   21.7557 C   0  0  0  0  0  0  0  0  0  0  0  0
    6.1284  -15.7894   22.1087 O   0  0  0  0  0  0  0  0  0  0  0  0
    8.2309  -16.3732   22.7537 N   0  0  0  0  0  0  0  0  0  0  0  0
    7.8542  -16.4098   24.1455 C   0  0  0  0  0  0  0  0  0  0  0  0
    8.5764  -15.3598   24.9300 C   0  0  0  0  0  0  0  0  0  0  0  0
    9.6240  -14.8558   24.4630 O   0  0  0  0  0  0  0  0  0  0  0  0
    7.3061  -12.1135   26.0765 C   0  0  0  0  0  0  0  0  0  0  0  0
    7.7687  -12.8205   27.3344 C   0  0  1  0  0  0  0  0  0  0  0  0
    6.6109  -13.3768   28.1191 C   0  0  0  0  0  0  0  0  0  0  0  0
    8.7370  -13.9399   27.0020 C   0  0  2  0  0  0  0  0  0  0  0  0
    8.0861  -14.9350   26.1890 N   0  0  0  0  0  0  0  0  0  0  0  0
    9.3136  -14.5483   28.2262 C   0  0  0  0  0  0  0  0  0  0  0  0
   10.2037  -13.9033   29.0473 O   0  0  0  0  0  0  0  0  0  0  0  0
    8.9705  -15.7167   28.5300 O   0  0  0  0  0  0  0  0  0  0  0  0
  2  1  1  0
  3  5  1  0
  3  2  1  0
  3  4  1  1
  5  6  1  6
  7  8  2  0
  7  5  1  0
  9  7  1  0
 10 11  1  0
 10  9  1  0
 11 17  1  0
 12 11  2  0
 14 15  1  6
 14 13  1  0
 16 14  1  0
 16 17  1  1
 18 19  1  0
 18 16  1  0
 20 18  2  0
M  END
$$$$
