IGV.pdb
     RDKit          3D

 20 19  0  0  1  0  0  0  0  0999 V2000
    7.7854  -12.5801   18.1946 C   0  0  0  0  0  0  0  0  0  0  0  0
    7.8680  -14.0389   18.5894 C   0  0  0  0  0  0  0  0  0  0  0  0
    7.3382  -14.2529   19.9909 C   0  0  2  0  0  0  0  0  0  0  0  0
    8.2650  -13.5062   20.9344 C   0  0  0  0  0  0  0  0  0  0  0  0
    7.3483  -15.6952   20.3926 C   0  0  2  0  0  0  0  0  0  0  0  0
    6.5989  -16.4902   19.4647 N   0  0  0  0  0  0  0  0  0  0  0  0
    6.9168  -15.9483   21.7650 C   0  0  0  0  0  0  0  0  0  0  0  0
    5.7189  -15.7499   22.0744 O   0  0  0  0  0  0  0  0  0  0  0  0
    7.7694  -16.4139   22.8040 N   0  0  0  0  0  0  0  0  0  0  0  0
    7.3597  -16.3644   24.1860 C   0  0  0  0  0  0  0  0  0  0  0  0
    8.1810  -15.3813   24.9596 C   0  0  0  0  0  0  0  0  0  0  0  0
    9.3801  -15.2004   24.6453 O   0  0  0  0  0  0  0  0  0  0  0  0
    6.9088  -11.8751   26.0124 C   0  0  0  0  0  0  0  0  0  0  0  0
    7.4782  -12.5563   27.2404 C   0  0  1  0  0  0  0  0  0  0  0  0
    6.3924  -13.0309   28.1685 C   0  0  0  0  0  0  0  0  0  0  0  0
    8.3573  -13.7296   26.8507 C   0  0  2  0  0  0  0  0  0  0  0  0
    7.6146  -14.6586   26.0381 N   0  0  0  0  0  0  0  0  0  0  0  0
    8.9303  -14.4050   28.0409 C   0  0  0  0  0  0  0  0  0  0  0  0
    8.6188  -15.6898   28.4078 O   0  0  0  0  0  0  0  0  0  0  0  0
    9.7448  -13.7690   28.7532 O   0  0  0  0  0  0  0  0  0  0  0  0
  2  1  1  0
  3  5  1  0
  3  2  1  0
  3  4  1  1
  5  6  1  6
  7  8  2  0
  7  5  1  0
  9  7  1  0
 10 11  1  0
 10  9  1  0
 11 17  1  0
 12 11  2  0
 14 15  1  1
 14 13  1  0
 16 14  1  0
 16 17  1  1
 18 19  1  0
 18 16  1  0
 20 18  2  0
M  END
$$$$
