IGV.pdb
     RDKit          3D

 20 19  0  0  1  0  0  0  0  0999 V2000
    9.0990  -12.2488   27.7535 C   0  0  0  0  0  0  0  0  0  0  0  0
    8.8543  -13.7424   27.7512 C   0  0  0  0  0  0  0  0  0  0  0  0
    7.9972  -14.1504   26.5724 C   0  0  2  0  0  0  0  0  0  0  0  0
    6.6745  -13.4167   26.7105 C   0  0  0  0  0  0  0  0  0  0  0  0
    7.7024  -15.6182   26.5599 C   0  0  2  0  0  0  0  0  0  0  0  0
    8.9134  -16.3831   26.5049 N   0  0  0  0  0  0  0  0  0  0  0  0
    6.7685  -16.0432   25.5202 C   0  0  0  0  0  0  0  0  0  0  0  0
    5.6230  -15.5368   25.4851 O   0  0  0  0  0  0  0  0  0  0  0  0
    7.0634  -17.0100   24.5195 N   0  0  0  0  0  0  0  0  0  0  0  0
    6.1548  -17.2561   23.4267 C   0  0  0  0  0  0  0  0  0  0  0  0
    6.7188  -16.7622   22.1316 C   0  0  0  0  0  0  0  0  0  0  0  0
    6.3060  -17.2521   21.0550 O   0  0  0  0  0  0  0  0  0  0  0  0
    6.5745  -13.6145   20.5621 C   0  0  0  0  0  0  0  0  0  0  0  0
    8.0691  -13.8453   20.6578 C   0  0  1  0  0  0  0  0  0  0  0  0
    8.6952  -13.0034   21.7370 C   0  0  0  0  0  0  0  0  0  0  0  0
    8.3761  -15.3081   20.9172 C   0  0  2  0  0  0  0  0  0  0  0  0
    7.7102  -15.7506   22.1154 N   0  0  0  0  0  0  0  0  0  0  0  0
    9.8365  -15.5562   20.9986 C   0  0  0  0  0  0  0  0  0  0  0  0
   10.6890  -15.4266   19.9315 O   0  0  0  0  0  0  0  0  0  0  0  0
   10.3219  -15.9039   22.1026 O   0  0  0  0  0  0  0  0  0  0  0  0
  2  1  1  0
  3  5  1  0
  3  2  1  0
  3  4  1  1
  5  6  1  6
  7  8  2  0
  7  5  1  0
  9  7  1  0
 10 11  1  0
 10  9  1  0
 11 17  1  0
 12 11  2  0
 14 15  1  1
 14 13  1  0
 16 14  1  0
 16 17  1  1
 18 19  1  0
 18 16  1  0
 20 18  2  0
M  END
$$$$
