IGV.pdb
     RDKit          3D

 20 19  0  0  1  0  0  0  0  0999 V2000
    7.5823  -12.2130   19.0082 C   0  0  0  0  0  0  0  0  0  0  0  0
    8.3636  -13.2940   19.7236 C   0  0  0  0  0  0  0  0  0  0  0  0
    7.5093  -13.9812   20.7670 C   0  0  2  0  0  0  0  0  0  0  0  0
    7.1554  -12.9352   21.8098 C   0  0  0  0  0  0  0  0  0  0  0  0
    8.2372  -15.0883   21.4641 C   0  0  2  0  0  0  0  0  0  0  0  0
    8.5777  -16.1349   20.5458 N   0  0  0  0  0  0  0  0  0  0  0  0
    7.5510  -15.6250   22.6367 C   0  0  0  0  0  0  0  0  0  0  0  0
    7.4867  -14.9298   23.6772 O   0  0  0  0  0  0  0  0  0  0  0  0
    6.9346  -16.9056   22.6927 N   0  0  0  0  0  0  0  0  0  0  0  0
    6.1884  -17.3261   23.8531 C   0  0  0  0  0  0  0  0  0  0  0  0
    7.0900  -17.9123   24.8938 C   0  0  0  0  0  0  0  0  0  0  0  0
    6.5888  -18.4742   25.8950 O   0  0  0  0  0  0  0  0  0  0  0  0
   11.2330  -16.9163   24.9126 C   0  0  0  0  0  0  0  0  0  0  0  0
   10.8362  -18.3635   25.1235 C   0  0  1  0  0  0  0  0  0  0  0  0
   11.7805  -19.0698   26.0589 C   0  0  0  0  0  0  0  0  0  0  0  0
    9.4220  -18.4646   25.6630 C   0  0  2  0  0  0  0  0  0  0  0  0
    8.4975  -17.8362   24.7547 N   0  0  0  0  0  0  0  0  0  0  0  0
    9.3104  -17.8813   27.0226 C   0  0  0  0  0  0  0  0  0  0  0  0
    9.5284  -18.5939   28.1745 O   0  0  0  0  0  0  0  0  0  0  0  0
    8.9997  -16.6698   27.1282 O   0  0  0  0  0  0  0  0  0  0  0  0
  2  1  1  0
  3  5  1  0
  3  2  1  0
  3  4  1  1
  5  6  1  6
  7  8  2  0
  7  5  1  0
  9  7  1  0
 10 11  1  0
 10  9  1  0
 11 17  1  0
 12 11  2  0
 14 15  1  1
 14 13  1  0
 16 14  1  0
 16 17  1  6
 18 19  1  0
 18 16  1  0
 20 18  2  0
M  END
$$$$
