IGV.pdb
     RDKit          3D

 20 19  0  0  1  0  0  0  0  0999 V2000
    5.8019  -11.6763   27.0726 C   0  0  0  0  0  0  0  0  0  0  0  0
    5.6339  -12.7895   26.0611 C   0  0  0  0  0  0  0  0  0  0  0  0
    6.9688  -13.4105   25.7102 C   0  0  2  0  0  0  0  0  0  0  0  0
    7.7957  -12.3316   25.0329 C   0  0  0  0  0  0  0  0  0  0  0  0
    6.8348  -14.5500   24.7483 C   0  0  2  0  0  0  0  0  0  0  0  0
    5.9949  -15.5789   25.2874 N   0  0  0  0  0  0  0  0  0  0  0  0
    8.1026  -15.1032   24.2788 C   0  0  0  0  0  0  0  0  0  0  0  0
    8.8870  -14.3691   23.6340 O   0  0  0  0  0  0  0  0  0  0  0  0
    8.5282  -16.4420   24.5009 N   0  0  0  0  0  0  0  0  0  0  0  0
    9.8511  -16.8779   24.1267 C   0  0  0  0  0  0  0  0  0  0  0  0
   10.8077  -16.7490   25.2702 C   0  0  0  0  0  0  0  0  0  0  0  0
   12.0239  -16.9849   25.0836 O   0  0  0  0  0  0  0  0  0  0  0  0
   10.9232  -13.7456   27.5159 C   0  0  0  0  0  0  0  0  0  0  0  0
   10.8841  -14.9421   28.4450 C   0  0  1  0  0  0  0  0  0  0  0  0
    9.5430  -15.0854   29.1132 C   0  0  0  0  0  0  0  0  0  0  0  0
   11.2142  -16.2200   27.6972 C   0  0  2  0  0  0  0  0  0  0  0  0
   10.3497  -16.3643   26.5541 N   0  0  0  0  0  0  0  0  0  0  0  0
   11.1307  -17.4095   28.5799 C   0  0  0  0  0  0  0  0  0  0  0  0
   10.2304  -18.4284   28.3973 O   0  0  0  0  0  0  0  0  0  0  0  0
   11.9259  -17.4911   29.5477 O   0  0  0  0  0  0  0  0  0  0  0  0
  2  1  1  0
  3  5  1  0
  3  2  1  0
  3  4  1  6
  5  6  1  1
  7  8  2  0
  7  5  1  0
  9  7  1  0
 10 11  1  0
 10  9  1  0
 11 17  1  0
 12 11  2  0
 14 15  1  6
 14 13  1  0
 16 14  1  0
 16 17  1  6
 18 19  1  0
 18 16  1  0
 20 18  2  0
M  END
$$$$
