IGV.pdb
     RDKit          3D

 20 19  0  0  1  0  0  0  0  0999 V2000
    5.5986  -11.4781   26.7975 C   0  0  0  0  0  0  0  0  0  0  0  0
    5.4660  -12.6537   25.8536 C   0  0  0  0  0  0  0  0  0  0  0  0
    6.8164  -13.2733   25.5647 C   0  0  2  0  0  0  0  0  0  0  0  0
    7.6519  -12.2121   24.8699 C   0  0  0  0  0  0  0  0  0  0  0  0
    6.7211  -14.4501   24.6441 C   0  0  2  0  0  0  0  0  0  0  0  0
    5.8680  -15.4623   25.1938 N   0  0  0  0  0  0  0  0  0  0  0  0
    8.0070  -15.0134   24.2403 C   0  0  0  0  0  0  0  0  0  0  0  0
    8.8295  -14.2855   23.6373 O   0  0  0  0  0  0  0  0  0  0  0  0
    8.4097  -16.3556   24.4834 N   0  0  0  0  0  0  0  0  0  0  0  0
    9.7333  -16.8133   24.1383 C   0  0  0  0  0  0  0  0  0  0  0  0
   10.6596  -16.7255   25.3104 C   0  0  0  0  0  0  0  0  0  0  0  0
   11.7882  -17.2652   25.2434 O   0  0  0  0  0  0  0  0  0  0  0  0
   11.3669  -14.8979   29.9040 C   0  0  0  0  0  0  0  0  0  0  0  0
   10.4969  -15.0014   28.6677 C   0  0  1  0  0  0  0  0  0  0  0  0
   10.3507  -13.6726   27.9760 C   0  0  0  0  0  0  0  0  0  0  0  0
   11.0593  -16.0185   27.6928 C   0  0  2  0  0  0  0  0  0  0  0  0
   10.2707  -16.0405   26.4876 N   0  0  0  0  0  0  0  0  0  0  0  0
   11.1429  -17.3706   28.2977 C   0  0  0  0  0  0  0  0  0  0  0  0
   12.2794  -17.8728   28.8794 O   0  0  0  0  0  0  0  0  0  0  0  0
   10.1197  -18.0972   28.2778 O   0  0  0  0  0  0  0  0  0  0  0  0
  2  1  1  0
  3  5  1  0
  3  2  1  0
  3  4  1  6
  5  6  1  1
  7  8  2  0
  7  5  1  0
  9  7  1  0
 10 11  1  0
 10  9  1  0
 11 17  1  0
 12 11  2  0
 14 15  1  6
 14 13  1  0
 16 14  1  0
 16 17  1  6
 18 19  1  0
 18 16  1  0
 20 18  2  0
M  END
$$$$
