IGV.pdb
     RDKit          3D

 20 19  0  0  1  0  0  0  0  0999 V2000
    6.9208  -12.3556   26.3576 C   0  0  0  0  0  0  0  0  0  0  0  0
    7.1850  -13.6780   25.6704 C   0  0  0  0  0  0  0  0  0  0  0  0
    7.2612  -13.5039   24.1689 C   0  0  2  0  0  0  0  0  0  0  0  0
    5.8765  -13.0932   23.6990 C   0  0  0  0  0  0  0  0  0  0  0  0
    7.6212  -14.7743   23.4630 C   0  0  2  0  0  0  0  0  0  0  0  0
    6.7542  -15.8442   23.8605 N   0  0  0  0  0  0  0  0  0  0  0  0
    9.0234  -15.1642   23.5880 C   0  0  0  0  0  0  0  0  0  0  0  0
    9.9143  -14.3657   23.2155 O   0  0  0  0  0  0  0  0  0  0  0  0
    9.4691  -16.4092   24.1119 N   0  0  0  0  0  0  0  0  0  0  0  0
   10.8717  -16.7418   24.1582 C   0  0  0  0  0  0  0  0  0  0  0  0
   11.4050  -16.6477   25.5533 C   0  0  0  0  0  0  0  0  0  0  0  0
   12.6261  -16.8385   25.7584 O   0  0  0  0  0  0  0  0  0  0  0  0
   10.4729  -13.7846   27.8515 C   0  0  0  0  0  0  0  0  0  0  0  0
   10.3079  -15.0480   28.6717 C   0  0  1  0  0  0  0  0  0  0  0  0
    8.8575  -15.3776   28.9021 C   0  0  0  0  0  0  0  0  0  0  0  0
   10.9917  -16.2236   27.9996 C   0  0  2  0  0  0  0  0  0  0  0  0
   10.5434  -16.3462   26.6362 N   0  0  0  0  0  0  0  0  0  0  0  0
   10.7721  -17.4865   28.7467 C   0  0  0  0  0  0  0  0  0  0  0  0
   11.3942  -17.7847   29.9326 O   0  0  0  0  0  0  0  0  0  0  0  0
    9.9743  -18.3302   28.2704 O   0  0  0  0  0  0  0  0  0  0  0  0
  2  1  1  0
  3  5  1  0
  3  2  1  0
  3  4  1  6
  5  6  1  1
  7  8  2  0
  7  5  1  0
  9  7  1  0
 10 11  1  0
 10  9  1  0
 11 17  1  0
 12 11  2  0
 14 15  1  6
 14 13  1  0
 16 14  1  0
 16 17  1  6
 18 19  1  0
 18 16  1  0
 20 18  2  0
M  END
$$$$
