IGV.pdb
     RDKit          3D

 20 19  0  0  1  0  0  0  0  0999 V2000
    5.3080  -11.2455   26.5234 C   0  0  0  0  0  0  0  0  0  0  0  0
    5.2579  -12.5427   25.7452 C   0  0  0  0  0  0  0  0  0  0  0  0
    6.6422  -13.1330   25.5839 C   0  0  2  0  0  0  0  0  0  0  0  0
    7.4565  -12.1395   24.7736 C   0  0  0  0  0  0  0  0  0  0  0  0
    6.6283  -14.4278   24.8324 C   0  0  2  0  0  0  0  0  0  0  0  0
    5.8630  -15.4175   25.5320 N   0  0  0  0  0  0  0  0  0  0  0  0
    7.9495  -14.9419   24.4801 C   0  0  0  0  0  0  0  0  0  0  0  0
    8.7513  -14.1969   23.8702 O   0  0  0  0  0  0  0  0  0  0  0  0
    8.4096  -16.2535   24.7820 N   0  0  0  0  0  0  0  0  0  0  0  0
    9.6771  -16.7333   24.2884 C   0  0  0  0  0  0  0  0  0  0  0  0
   10.7138  -16.7334   25.3676 C   0  0  0  0  0  0  0  0  0  0  0  0
   11.8895  -17.0652   25.0901 O   0  0  0  0  0  0  0  0  0  0  0  0
   11.3672  -13.9097   27.8063 C   0  0  0  0  0  0  0  0  0  0  0  0
   11.1692  -15.1578   28.6424 C   0  0  1  0  0  0  0  0  0  0  0  0
    9.8293  -15.1627   29.3281 C   0  0  0  0  0  0  0  0  0  0  0  0
   11.3053  -16.4068   27.7922 C   0  0  2  0  0  0  0  0  0  0  0  0
   10.3762  -16.3631   26.6924 N   0  0  0  0  0  0  0  0  0  0  0  0
   11.1198  -17.6403   28.5956 C   0  0  0  0  0  0  0  0  0  0  0  0
   11.9959  -18.0517   29.5679 O   0  0  0  0  0  0  0  0  0  0  0  0
   10.1069  -18.3484   28.3761 O   0  0  0  0  0  0  0  0  0  0  0  0
  2  1  1  0
  3  5  1  0
  3  2  1  0
  3  4  1  6
  5  6  1  1
  7  8  2  0
  7  5  1  0
  9  7  1  0
 10 11  1  0
 10  9  1  0
 11 17  1  0
 12 11  2  0
 14 15  1  6
 14 13  1  0
 16 14  1  0
 16 17  1  6
 18 19  1  0
 18 16  1  0
 20 18  2  0
M  END
$$$$
