IGV.pdb
     RDKit          3D

 20 19  0  0  1  0  0  0  0  0999 V2000
    5.7695  -11.3670   26.7397 C   0  0  0  0  0  0  0  0  0  0  0  0
    5.6441  -12.6394   25.9298 C   0  0  0  0  0  0  0  0  0  0  0  0
    7.0070  -13.2008   25.5859 C   0  0  2  0  0  0  0  0  0  0  0  0
    7.7018  -12.1731   24.7096 C   0  0  0  0  0  0  0  0  0  0  0  0
    6.9206  -14.4766   24.8071 C   0  0  2  0  0  0  0  0  0  0  0  0
    6.2046  -15.4774   25.5420 N   0  0  0  0  0  0  0  0  0  0  0  0
    8.2043  -14.9917   24.3375 C   0  0  0  0  0  0  0  0  0  0  0  0
    8.9189  -14.2709   23.6027 O   0  0  0  0  0  0  0  0  0  0  0  0
    8.7206  -16.2781   24.6559 N   0  0  0  0  0  0  0  0  0  0  0  0
   10.0608  -16.6593   24.2831 C   0  0  0  0  0  0  0  0  0  0  0  0
   10.9081  -16.9111   25.4907 C   0  0  0  0  0  0  0  0  0  0  0  0
   11.2418  -18.0852   25.7731 O   0  0  0  0  0  0  0  0  0  0  0  0
   10.3436  -13.7153   27.4340 C   0  0  0  0  0  0  0  0  0  0  0  0
   10.6487  -14.8331   28.4106 C   0  0  1  0  0  0  0  0  0  0  0  0
    9.3925  -15.4207   28.9955 C   0  0  0  0  0  0  0  0  0  0  0  0
   11.4557  -15.9306   27.7432 C   0  0  2  0  0  0  0  0  0  0  0  0
   11.3323  -15.8373   26.3111 N   0  0  0  0  0  0  0  0  0  0  0  0
   11.0557  -17.2758   28.2244 C   0  0  0  0  0  0  0  0  0  0  0  0
   10.4061  -18.1987   27.4442 O   0  0  0  0  0  0  0  0  0  0  0  0
   11.3247  -17.5898   29.4094 O   0  0  0  0  0  0  0  0  0  0  0  0
  2  1  1  0
  3  5  1  0
  3  2  1  0
  3  4  1  6
  5  6  1  1
  7  8  2  0
  7  5  1  0
  9  7  1  0
 10 11  1  0
 10  9  1  0
 11 17  1  0
 12 11  2  0
 14 15  1  6
 14 13  1  0
 16 14  1  0
 16 17  1  6
 18 19  1  0
 18 16  1  0
 20 18  2  0
M  END
$$$$
