IGV.pdb
     RDKit          3D

 20 19  0  0  1  0  0  0  0  0999 V2000
    5.8197  -11.7046   27.0546 C   0  0  0  0  0  0  0  0  0  0  0  0
    5.6406  -12.8556   26.0882 C   0  0  0  0  0  0  0  0  0  0  0  0
    6.9452  -13.5921   25.8733 C   0  0  2  0  0  0  0  0  0  0  0  0
    7.8870  -12.6303   25.1698 C   0  0  0  0  0  0  0  0  0  0  0  0
    6.7858  -14.7943   24.9952 C   0  0  2  0  0  0  0  0  0  0  0  0
    5.6699  -15.5901   25.4145 N   0  0  0  0  0  0  0  0  0  0  0  0
    7.9884  -15.6121   24.8579 C   0  0  0  0  0  0  0  0  0  0  0  0
    8.1008  -16.6523   25.5473 O   0  0  0  0  0  0  0  0  0  0  0  0
    9.0688  -15.3142   23.9821 N   0  0  0  0  0  0  0  0  0  0  0  0
   10.1818  -16.2193   23.8329 C   0  0  0  0  0  0  0  0  0  0  0  0
   11.0292  -16.2436   25.0661 C   0  0  0  0  0  0  0  0  0  0  0  0
   12.1658  -16.7685   25.0203 O   0  0  0  0  0  0  0  0  0  0  0  0
   10.8738  -13.2830   27.6987 C   0  0  0  0  0  0  0  0  0  0  0  0
   10.8538  -14.6085   28.4326 C   0  0  1  0  0  0  0  0  0  0  0  0
    9.4924  -14.9121   28.9982 C   0  0  0  0  0  0  0  0  0  0  0  0
   11.2844  -15.7404   27.5191 C   0  0  2  0  0  0  0  0  0  0  0  0
   10.5573  -15.6805   26.2770 N   0  0  0  0  0  0  0  0  0  0  0  0
   11.1177  -17.0637   28.1688 C   0  0  0  0  0  0  0  0  0  0  0  0
   10.2698  -18.0365   27.7030 O   0  0  0  0  0  0  0  0  0  0  0  0
   11.7875  -17.3099   29.2014 O   0  0  0  0  0  0  0  0  0  0  0  0
  2  1  1  0
  3  5  1  0
  3  2  1  0
  3  4  1  6
  5  6  1  1
  7  8  2  0
  7  5  1  0
  9  7  1  0
 10 11  1  0
 10  9  1  0
 11 17  1  0
 12 11  2  0
 14 15  1  6
 14 13  1  0
 16 14  1  0
 16 17  1  6
 18 19  1  0
 18 16  1  0
 20 18  2  0
M  END
$$$$
