IGV.pdb
     RDKit          3D

 20 19  0  0  1  0  0  0  0  0999 V2000
    5.3757  -11.4810   26.9534 C   0  0  0  0  0  0  0  0  0  0  0  0
    5.3074  -12.6885   26.0435 C   0  0  0  0  0  0  0  0  0  0  0  0
    6.6892  -13.2438   25.7734 C   0  0  2  0  0  0  0  0  0  0  0  0
    7.4627  -12.1675   25.0316 C   0  0  0  0  0  0  0  0  0  0  0  0
    6.6568  -14.4608   24.9020 C   0  0  2  0  0  0  0  0  0  0  0  0
    5.8766  -15.5013   25.5048 N   0  0  0  0  0  0  0  0  0  0  0  0
    7.9704  -14.9584   24.5013 C   0  0  0  0  0  0  0  0  0  0  0  0
    8.7617  -14.1858   23.9123 O   0  0  0  0  0  0  0  0  0  0  0  0
    8.4344  -16.2829   24.7324 N   0  0  0  0  0  0  0  0  0  0  0  0
    9.7255  -16.7164   24.2577 C   0  0  0  0  0  0  0  0  0  0  0  0
   10.7583  -16.6243   25.3366 C   0  0  0  0  0  0  0  0  0  0  0  0
   11.9623  -16.8239   25.0534 O   0  0  0  0  0  0  0  0  0  0  0  0
   11.2109  -13.8323   27.7938 C   0  0  0  0  0  0  0  0  0  0  0  0
   11.1130  -15.0911   28.6316 C   0  0  1  0  0  0  0  0  0  0  0  0
    9.7938  -15.1811   29.3506 C   0  0  0  0  0  0  0  0  0  0  0  0
   11.3063  -16.3284   27.7754 C   0  0  2  0  0  0  0  0  0  0  0  0
   10.3857  -16.3148   26.6676 N   0  0  0  0  0  0  0  0  0  0  0  0
   11.1632  -17.5732   28.5698 C   0  0  0  0  0  0  0  0  0  0  0  0
   10.1437  -18.4739   28.3922 O   0  0  0  0  0  0  0  0  0  0  0  0
   12.0201  -17.8188   29.4534 O   0  0  0  0  0  0  0  0  0  0  0  0
  2  1  1  0
  3  5  1  0
  3  2  1  0
  3  4  1  6
  5  6  1  1
  7  8  2  0
  7  5  1  0
  9  7  1  0
 10 11  1  0
 10  9  1  0
 11 17  1  0
 12 11  2  0
 14 15  1  6
 14 13  1  0
 16 14  1  0
 16 17  1  6
 18 19  1  0
 18 16  1  0
 20 18  2  0
M  END
$$$$
