IGV.pdb
     RDKit          3D

 20 19  0  0  1  0  0  0  0  0999 V2000
    5.1943  -11.5962   26.5648 C   0  0  0  0  0  0  0  0  0  0  0  0
    5.2963  -12.9556   25.9073 C   0  0  0  0  0  0  0  0  0  0  0  0
    6.7405  -13.3263   25.6476 C   0  0  2  0  0  0  0  0  0  0  0  0
    7.2198  -12.4622   24.4942 C   0  0  0  0  0  0  0  0  0  0  0  0
    6.8994  -14.7577   25.2383 C   0  0  2  0  0  0  0  0  0  0  0  0
    6.0518  -15.6103   26.0188 N   0  0  0  0  0  0  0  0  0  0  0  0
    8.2769  -15.2436   25.2440 C   0  0  0  0  0  0  0  0  0  0  0  0
    9.0251  -14.9452   26.2038 O   0  0  0  0  0  0  0  0  0  0  0  0
    8.8508  -16.0486   24.2215 N   0  0  0  0  0  0  0  0  0  0  0  0
   10.2557  -15.9671   23.9057 C   0  0  0  0  0  0  0  0  0  0  0  0
   11.0984  -16.3417   25.0843 C   0  0  0  0  0  0  0  0  0  0  0  0
   12.2953  -16.6660   24.9057 O   0  0  0  0  0  0  0  0  0  0  0  0
   11.5188  -14.1090   27.7489 C   0  0  0  0  0  0  0  0  0  0  0  0
   11.2809  -15.3978   28.5097 C   0  0  1  0  0  0  0  0  0  0  0  0
    9.9623  -15.3817   29.2352 C   0  0  0  0  0  0  0  0  0  0  0  0
   11.3295  -16.5940   27.5780 C   0  0  2  0  0  0  0  0  0  0  0  0
   10.5548  -16.3320   26.3922 N   0  0  0  0  0  0  0  0  0  0  0  0
   10.8679  -17.8329   28.2511 C   0  0  0  0  0  0  0  0  0  0  0  0
   11.5674  -18.4586   29.2518 O   0  0  0  0  0  0  0  0  0  0  0  0
    9.7783  -18.3388   27.8875 O   0  0  0  0  0  0  0  0  0  0  0  0
  2  1  1  0
  3  5  1  0
  3  2  1  0
  3  4  1  6
  5  6  1  1
  7  8  2  0
  7  5  1  0
  9  7  1  0
 10 11  1  0
 10  9  1  0
 11 17  1  0
 12 11  2  0
 14 15  1  6
 14 13  1  0
 16 14  1  0
 16 17  1  6
 18 19  1  0
 18 16  1  0
 20 18  2  0
M  END
$$$$
