IGV.pdb
     RDKit          3D

 20 19  0  0  1  0  0  0  0  0999 V2000
    2.4807  -19.4771   22.1704 C   0  0  0  0  0  0  0  0  0  0  0  0
    3.2943  -18.4497   21.4132 C   0  0  0  0  0  0  0  0  0  0  0  0
    4.7311  -18.4370   21.8888 C   0  0  2  0  0  0  0  0  0  0  0  0
    4.7245  -17.8911   23.3061 C   0  0  0  0  0  0  0  0  0  0  0  0
    5.5999  -17.5410   21.0618 C   0  0  2  0  0  0  0  0  0  0  0  0
    5.4938  -17.8672   19.6701 N   0  0  0  0  0  0  0  0  0  0  0  0
    6.9981  -17.4914   21.4816 C   0  0  0  0  0  0  0  0  0  0  0  0
    7.8329  -18.2319   20.9117 O   0  0  0  0  0  0  0  0  0  0  0  0
    7.5000  -16.6484   22.5114 N   0  0  0  0  0  0  0  0  0  0  0  0
    8.9157  -16.5398   22.7653 C   0  0  0  0  0  0  0  0  0  0  0  0
    9.2007  -15.5097   23.8127 C   0  0  0  0  0  0  0  0  0  0  0  0
   10.3884  -15.2668   24.1286 O   0  0  0  0  0  0  0  0  0  0  0  0
    7.2752  -12.4497   27.2462 C   0  0  0  0  0  0  0  0  0  0  0  0
    7.1072  -13.2153   25.9493 C   0  0  1  0  0  0  0  0  0  0  0  0
    6.9801  -12.2906   24.7685 C   0  0  0  0  0  0  0  0  0  0  0  0
    8.2702  -14.1631   25.7249 C   0  0  2  0  0  0  0  0  0  0  0  0
    8.1427  -14.8119   24.4452 N   0  0  0  0  0  0  0  0  0  0  0  0
    8.3837  -15.1607   26.8172 C   0  0  0  0  0  0  0  0  0  0  0  0
    9.1777  -14.9885   27.9228 O   0  0  0  0  0  0  0  0  0  0  0  0
    7.7183  -16.2212   26.7281 O   0  0  0  0  0  0  0  0  0  0  0  0
  2  1  1  0
  3  5  1  0
  3  2  1  0
  3  4  1  1
  5  6  1  6
  7  8  2  0
  7  5  1  0
  9  7  1  0
 10 11  1  0
 10  9  1  0
 11 17  1  0
 12 11  2  0
 14 15  1  6
 14 13  1  0
 16 14  1  0
 16 17  1  6
 18 19  1  0
 18 16  1  0
 20 18  2  0
M  END
$$$$
