NCT.pdb
     RDKit          3D

 22 21  0  0  1  0  0  0  0  0999 V2000
   21.2171  -15.3597  -16.9937 N   0  0  0  0  0  0  0  0  0  0  0  0
   21.2114  -14.2652  -17.8956 C   0  0  0  0  0  0  0  0  0  0  0  0
   22.1827  -14.1999  -18.7119 O   0  0  0  0  0  0  0  0  0  0  0  0
   20.1381  -13.2502  -17.8973 C   0  0  0  0  0  0  0  0  0  0  0  0
   19.1327  -13.4086  -16.7865 C   0  0  2  0  0  0  0  0  0  0  0  0
   18.3052  -14.5685  -17.1959 N   0  0  0  0  0  0  0  0  0  0  0  0
   18.2516  -12.1914  -16.7847 C   0  0  0  0  0  0  0  0  0  0  0  0
   17.3986  -11.9366  -17.6610 O   0  0  0  0  0  0  0  0  0  0  0  0
   18.3451  -11.2200  -15.7384 N   0  0  0  0  0  0  0  0  0  0  0  0
   17.4538  -10.0591  -15.6936 C   0  0  1  0  0  0  0  0  0  0  0  0
   16.5860  -10.2837  -14.4697 C   0  0  0  0  0  0  0  0  0  0  0  0
   15.1548  -11.3081  -14.7502 S   0  0  0  0  0  0  0  0  0  0  0  0
   18.2352   -8.8055  -15.5994 C   0  0  0  0  0  0  0  0  0  0  0  0
   19.2850   -8.8320  -14.8947 O   0  0  0  0  0  0  0  0  0  0  0  0
   20.0290   -4.7226  -17.4799 C   0  0  0  0  0  0  0  0  0  0  0  0
   19.1752   -5.9663  -17.5632 C   0  0  1  0  0  0  0  0  0  0  0  0
   19.8680   -6.9689  -18.2443 O   0  0  0  0  0  0  0  0  0  0  0  0
   18.7365   -6.4109  -16.2122 C   0  0  2  0  0  0  0  0  0  0  0  0
   17.9034   -7.5830  -16.2344 N   0  0  0  0  0  0  0  0  0  0  0  0
   18.1254   -5.3099  -15.4165 C   0  0  0  0  0  0  0  0  0  0  0  0
   18.8721   -4.5094  -14.5912 O   0  0  0  0  0  0  0  0  0  0  0  0
   16.8813   -5.1300  -15.5235 O   0  0  0  0  0  0  0  0  0  0  0  0
  2  1  1  0
  3  2  2  0
  4  2  1  0
  5  4  1  0
  5  6  1  6
  7  5  1  0
  7  9  1  0
  8  7  2  0
 10 11  1  1
 10  9  1  0
 10 13  1  0
 12 11  1  0
 13 19  1  0
 14 13  2  0
 16 15  1  1
 16 17  1  0
 18 16  1  0
 18 19  1  6
 20 18  1  0
 20 21  1  0
 22 20  2  0
M  END
$$$$
