NCT.pdb
     RDKit          3D

 22 21  0  0  1  0  0  0  0  0999 V2000
   16.0114  -14.3849  -16.9555 N   0  0  0  0  0  0  0  0  0  0  0  0
   16.6152  -14.2608  -15.6782 C   0  0  0  0  0  0  0  0  0  0  0  0
   16.4740  -15.2455  -14.8878 O   0  0  0  0  0  0  0  0  0  0  0  0
   17.3723  -13.0574  -15.2772 C   0  0  0  0  0  0  0  0  0  0  0  0
   17.4203  -11.9767  -16.3258 C   0  0  2  0  0  0  0  0  0  0  0  0
   18.4627  -12.4281  -17.2782 N   0  0  0  0  0  0  0  0  0  0  0  0
   17.9105  -10.7175  -15.6684 C   0  0  0  0  0  0  0  0  0  0  0  0
   17.3102  -10.1219  -14.7489 O   0  0  0  0  0  0  0  0  0  0  0  0
   19.1394  -10.1083  -16.0755 N   0  0  0  0  0  0  0  0  0  0  0  0
   19.6557   -8.9120  -15.4072 C   0  0  1  0  0  0  0  0  0  0  0  0
   21.1628   -9.0860  -15.4108 C   0  0  0  0  0  0  0  0  0  0  0  0
   22.0386   -8.0106  -14.2916 S   0  0  0  0  0  0  0  0  0  0  0  0
   19.2348   -7.6898  -16.1283 C   0  0  0  0  0  0  0  0  0  0  0  0
   19.3344   -7.7009  -17.3890 O   0  0  0  0  0  0  0  0  0  0  0  0
   16.1139   -6.1752  -16.9034 C   0  0  0  0  0  0  0  0  0  0  0  0
   16.8829   -5.0663  -16.2239 C   0  0  1  0  0  0  0  0  0  0  0  0
   16.4047   -4.8891  -14.9242 O   0  0  0  0  0  0  0  0  0  0  0  0
   18.3471   -5.3321  -16.2478 C   0  0  2  0  0  0  0  0  0  0  0  0
   18.7297   -6.5130  -15.5217 N   0  0  0  0  0  0  0  0  0  0  0  0
   19.1520   -4.1458  -15.8429 C   0  0  0  0  0  0  0  0  0  0  0  0
   19.1214   -2.9719  -16.5502 O   0  0  0  0  0  0  0  0  0  0  0  0
   19.8751   -4.2513  -14.8145 O   0  0  0  0  0  0  0  0  0  0  0  0
  2  1  1  0
  3  2  2  0
  4  2  1  0
  5  4  1  0
  5  6  1  6
  7  5  1  0
  7  9  1  0
  8  7  2  0
 10 11  1  6
 10  9  1  0
 10 13  1  0
 12 11  1  0
 13 19  1  0
 14 13  2  0
 16 15  1  1
 16 17  1  0
 18 16  1  0
 18 19  1  1
 20 18  1  0
 20 21  1  0
 22 20  2  0
M  END
$$$$
