NCT.pdb
     RDKit          3D

 22 21  0  0  1  0  0  0  0  0999 V2000
   23.8841  -25.9289  -12.5985 N   0  0  0  0  0  0  0  0  0  0  0  0
   23.4621  -24.9543  -13.5385 C   0  0  0  0  0  0  0  0  0  0  0  0
   22.9781  -25.3922  -14.6286 O   0  0  0  0  0  0  0  0  0  0  0  0
   23.5717  -23.5049  -13.2751 C   0  0  0  0  0  0  0  0  0  0  0  0
   24.5712  -22.7899  -14.1468 C   0  0  2  0  0  0  0  0  0  0  0  0
   25.8308  -22.8141  -13.3657 N   0  0  0  0  0  0  0  0  0  0  0  0
   24.1334  -21.3579  -14.2715 C   0  0  0  0  0  0  0  0  0  0  0  0
   23.5793  -20.7076  -13.3601 O   0  0  0  0  0  0  0  0  0  0  0  0
   24.3352  -20.6327  -15.4883 N   0  0  0  0  0  0  0  0  0  0  0  0
   23.8983  -19.2422  -15.6288 C   0  0  1  0  0  0  0  0  0  0  0  0
   25.0169  -18.5598  -16.3933 C   0  0  0  0  0  0  0  0  0  0  0  0
   26.6083  -18.6177  -15.5930 S   0  0  0  0  0  0  0  0  0  0  0  0
   22.6076  -19.1719  -16.3500 C   0  0  0  0  0  0  0  0  0  0  0  0
   22.4909  -19.8769  -17.3934 O   0  0  0  0  0  0  0  0  0  0  0  0
   17.7678  -18.4849  -16.5500 C   0  0  0  0  0  0  0  0  0  0  0  0
   19.0607  -18.5534  -15.7713 C   0  0  1  0  0  0  0  0  0  0  0  0
   19.1235  -19.7572  -15.0670 O   0  0  0  0  0  0  0  0  0  0  0  0
   20.2379  -18.3671  -16.6628 C   0  0  2  0  0  0  0  0  0  0  0  0
   21.4958  -18.3819  -15.9658 N   0  0  0  0  0  0  0  0  0  0  0  0
   20.1058  -17.1744  -17.5454 C   0  0  0  0  0  0  0  0  0  0  0  0
   19.6420  -17.2708  -18.8318 O   0  0  0  0  0  0  0  0  0  0  0  0
   20.4377  -16.0539  -17.0701 O   0  0  0  0  0  0  0  0  0  0  0  0
  2  1  1  0
  3  2  2  0
  4  2  1  0
  5  4  1  0
  5  6  1  1
  7  5  1  0
  7  9  1  0
  8  7  2  0
 10 11  1  6
 10  9  1  0
 10 13  1  0
 12 11  1  0
 13 19  1  0
 14 13  2  0
 16 15  1  6
 16 17  1  0
 18 16  1  0
 18 19  1  1
 20 18  1  0
 20 21  1  0
 22 20  2  0
M  END
$$$$
