NCT.pdb
     RDKit          3D

 22 21  0  0  1  0  0  0  0  0999 V2000
   17.0634  -14.4356  -16.6599 N   0  0  0  0  0  0  0  0  0  0  0  0
   17.2173  -13.0272  -16.7256 C   0  0  0  0  0  0  0  0  0  0  0  0
   16.4035  -12.4037  -17.4761 O   0  0  0  0  0  0  0  0  0  0  0  0
   18.2623  -12.3117  -15.9654 C   0  0  0  0  0  0  0  0  0  0  0  0
   18.6348  -10.9682  -16.5366 C   0  0  2  0  0  0  0  0  0  0  0  0
   19.4399  -11.2856  -17.7402 N   0  0  0  0  0  0  0  0  0  0  0  0
   19.5341  -10.2801  -15.5487 C   0  0  0  0  0  0  0  0  0  0  0  0
   19.2361  -10.0639  -14.3550 O   0  0  0  0  0  0  0  0  0  0  0  0
   20.8312   -9.8171  -15.9365 N   0  0  0  0  0  0  0  0  0  0  0  0
   21.6863   -9.0770  -15.0064 C   0  0  1  0  0  0  0  0  0  0  0  0
   23.0943   -9.5514  -15.3131 C   0  0  0  0  0  0  0  0  0  0  0  0
   23.5433  -11.0952  -14.5440 S   0  0  0  0  0  0  0  0  0  0  0  0
   21.5343   -7.6183  -15.2071 C   0  0  0  0  0  0  0  0  0  0  0  0
   21.6049   -7.1892  -16.3947 O   0  0  0  0  0  0  0  0  0  0  0  0
   20.0078   -3.1317  -14.3660 C   0  0  0  0  0  0  0  0  0  0  0  0
   19.9556   -4.6313  -14.1891 C   0  0  1  0  0  0  0  0  0  0  0  0
   18.9995   -5.1744  -15.0494 O   0  0  0  0  0  0  0  0  0  0  0  0
   21.2969   -5.2449  -14.3877 C   0  0  2  0  0  0  0  0  0  0  0  0
   21.3155   -6.6678  -14.1793 N   0  0  0  0  0  0  0  0  0  0  0  0
   22.3638   -4.5555  -13.6096 C   0  0  0  0  0  0  0  0  0  0  0  0
   22.8108   -5.0364  -12.4062 O   0  0  0  0  0  0  0  0  0  0  0  0
   22.8538   -3.4992  -14.0951 O   0  0  0  0  0  0  0  0  0  0  0  0
  2  1  1  0
  3  2  2  0
  4  2  1  0
  5  4  1  0
  5  6  1  6
  7  5  1  0
  7  9  1  0
  8  7  2  0
 10 11  1  6
 10  9  1  0
 10 13  1  0
 12 11  1  0
 13 19  1  0
 14 13  2  0
 16 15  1  6
 16 17  1  0
 18 16  1  0
 18 19  1  1
 20 18  1  0
 20 21  1  0
 22 20  2  0
M  END
$$$$
