NCT.pdb
     RDKit          3D

 22 21  0  0  1  0  0  0  0  0999 V2000
   15.7672  -13.7131  -14.1235 N   0  0  0  0  0  0  0  0  0  0  0  0
   16.2003  -13.6248  -15.4712 C   0  0  0  0  0  0  0  0  0  0  0  0
   16.0162  -14.6540  -16.1930 O   0  0  0  0  0  0  0  0  0  0  0  0
   16.8308  -12.4064  -16.0188 C   0  0  0  0  0  0  0  0  0  0  0  0
   17.0066  -11.2950  -15.0169 C   0  0  2  0  0  0  0  0  0  0  0  0
   15.6344  -10.7866  -14.7801 N   0  0  0  0  0  0  0  0  0  0  0  0
   17.7965  -10.2000  -15.6764 C   0  0  0  0  0  0  0  0  0  0  0  0
   18.9697  -10.3253  -16.0868 O   0  0  0  0  0  0  0  0  0  0  0  0
   17.2258   -8.9036  -15.8783 N   0  0  0  0  0  0  0  0  0  0  0  0
   17.9819   -7.8298  -16.5259 C   0  0  1  0  0  0  0  0  0  0  0  0
   16.9472   -7.0462  -17.3112 C   0  0  0  0  0  0  0  0  0  0  0  0
   17.4199   -5.3727  -17.7016 S   0  0  0  0  0  0  0  0  0  0  0  0
   18.6660   -6.9916  -15.5157 C   0  0  0  0  0  0  0  0  0  0  0  0
   18.0574   -6.7903  -14.4256 O   0  0  0  0  0  0  0  0  0  0  0  0
   22.4476   -5.1804  -13.1226 C   0  0  0  0  0  0  0  0  0  0  0  0
   21.8078   -6.1336  -14.1048 C   0  0  1  0  0  0  0  0  0  0  0  0
   21.5713   -7.3616  -13.4841 O   0  0  0  0  0  0  0  0  0  0  0  0
   20.5664   -5.5551  -14.6874 C   0  0  2  0  0  0  0  0  0  0  0  0
   19.9442   -6.4000  -15.6710 N   0  0  0  0  0  0  0  0  0  0  0  0
   20.7621   -4.1671  -15.1912 C   0  0  0  0  0  0  0  0  0  0  0  0
   20.5495   -3.0697  -14.3976 O   0  0  0  0  0  0  0  0  0  0  0  0
   21.1350   -4.0250  -16.3881 O   0  0  0  0  0  0  0  0  0  0  0  0
  2  1  1  0
  3  2  2  0
  4  2  1  0
  5  4  1  0
  5  6  1  6
  7  5  1  0
  7  9  1  0
  8  7  2  0
 10 11  1  1
 10  9  1  0
 10 13  1  0
 12 11  1  0
 13 19  1  0
 14 13  2  0
 16 15  1  1
 16 17  1  0
 18 16  1  0
 18 19  1  6
 20 18  1  0
 20 21  1  0
 22 20  2  0
M  END
$$$$
