NCT.pdb
     RDKit          3D

 22 21  0  0  1  0  0  0  0  0999 V2000
   20.7244  -13.3492  -17.9030 N   0  0  0  0  0  0  0  0  0  0  0  0
   19.5687  -13.1862  -17.0972 C   0  0  0  0  0  0  0  0  0  0  0  0
   18.8384  -14.2141  -16.9411 O   0  0  0  0  0  0  0  0  0  0  0  0
   19.2230  -11.8963  -16.4657 C   0  0  0  0  0  0  0  0  0  0  0  0
   20.2050  -10.7876  -16.7418 C   0  0  2  0  0  0  0  0  0  0  0  0
   21.4096  -11.1536  -15.9592 N   0  0  0  0  0  0  0  0  0  0  0  0
   19.6451   -9.5200  -16.1605 C   0  0  0  0  0  0  0  0  0  0  0  0
   18.5750   -9.4501  -15.5200 O   0  0  0  0  0  0  0  0  0  0  0  0
   20.3341   -8.2756  -16.3150 N   0  0  0  0  0  0  0  0  0  0  0  0
   19.8700   -7.0587  -15.6455 C   0  0  1  0  0  0  0  0  0  0  0  0
   20.0402   -7.3420  -14.1649 C   0  0  0  0  0  0  0  0  0  0  0  0
   21.7214   -7.6371  -13.6522 S   0  0  0  0  0  0  0  0  0  0  0  0
   20.6635   -5.8884  -16.0831 C   0  0  0  0  0  0  0  0  0  0  0  0
   21.8714   -6.0949  -16.3959 O   0  0  0  0  0  0  0  0  0  0  0  0
   21.0751   -1.5371  -18.2542 C   0  0  0  0  0  0  0  0  0  0  0  0
   20.1902   -2.6062  -17.6569 C   0  0  1  0  0  0  0  0  0  0  0  0
   19.6048   -3.3579  -18.6773 O   0  0  0  0  0  0  0  0  0  0  0  0
   20.9460   -3.4591  -16.6995 C   0  0  2  0  0  0  0  0  0  0  0  0
   20.1797   -4.5601  -16.1808 N   0  0  0  0  0  0  0  0  0  0  0  0
   21.5897   -2.6695  -15.6128 C   0  0  0  0  0  0  0  0  0  0  0  0
   22.8997   -2.2713  -15.6828 O   0  0  0  0  0  0  0  0  0  0  0  0
   20.8862   -2.3716  -14.6088 O   0  0  0  0  0  0  0  0  0  0  0  0
  2  1  1  0
  3  2  2  0
  4  2  1  0
  5  4  1  0
  5  6  1  1
  7  5  1  0
  7  9  1  0
  8  7  2  0
 10 11  1  1
 10  9  1  0
 10 13  1  0
 12 11  1  0
 13 19  1  0
 14 13  2  0
 16 15  1  6
 16 17  1  0
 18 16  1  0
 18 19  1  1
 20 18  1  0
 20 21  1  0
 22 20  2  0
M  END
$$$$
