NCT.pdb
     RDKit          3D

 22 21  0  0  1  0  0  0  0  0999 V2000
   15.8219  -12.2892  -16.6649 N   0  0  0  0  0  0  0  0  0  0  0  0
   16.6680  -11.1585  -16.5342 C   0  0  0  0  0  0  0  0  0  0  0  0
   16.6950  -10.3554  -17.5184 O   0  0  0  0  0  0  0  0  0  0  0  0
   17.4776  -10.9150  -15.3229 C   0  0  0  0  0  0  0  0  0  0  0  0
   18.6844  -10.0417  -15.5485 C   0  0  2  0  0  0  0  0  0  0  0  0
   19.7613  -10.9862  -15.9302 N   0  0  0  0  0  0  0  0  0  0  0  0
   19.0591   -9.4232  -14.2312 C   0  0  0  0  0  0  0  0  0  0  0  0
   19.0163  -10.0194  -13.1344 O   0  0  0  0  0  0  0  0  0  0  0  0
   19.5025   -8.0648  -14.1587 N   0  0  0  0  0  0  0  0  0  0  0  0
   19.9567   -7.4772  -12.8967 C   0  0  1  0  0  0  0  0  0  0  0  0
   21.2557   -6.7738  -13.2420 C   0  0  0  0  0  0  0  0  0  0  0  0
   21.8350   -5.6308  -12.0033 S   0  0  0  0  0  0  0  0  0  0  0  0
   18.9418   -6.5413  -12.3626 C   0  0  0  0  0  0  0  0  0  0  0  0
   18.6478   -5.5402  -13.0773 O   0  0  0  0  0  0  0  0  0  0  0  0
   15.5237   -6.3378  -12.1813 C   0  0  0  0  0  0  0  0  0  0  0  0
   15.9126   -6.1603  -10.7322 C   0  0  1  0  0  0  0  0  0  0  0  0
   15.6628   -7.3404  -10.0292 O   0  0  0  0  0  0  0  0  0  0  0  0
   17.3297   -5.7240  -10.6036 C   0  0  2  0  0  0  0  0  0  0  0  0
   18.2746   -6.6774  -11.1200 N   0  0  0  0  0  0  0  0  0  0  0  0
   17.6741   -5.2943   -9.2196 C   0  0  0  0  0  0  0  0  0  0  0  0
   17.0390   -4.2461   -8.6054 O   0  0  0  0  0  0  0  0  0  0  0  0
   18.5812   -5.9310   -8.6167 O   0  0  0  0  0  0  0  0  0  0  0  0
  2  1  1  0
  3  2  2  0
  4  2  1  0
  5  4  1  0
  5  6  1  1
  7  5  1  0
  7  9  1  0
  8  7  2  0
 10 11  1  6
 10  9  1  0
 10 13  1  0
 12 11  1  0
 13 19  1  0
 14 13  2  0
 16 15  1  6
 16 17  1  0
 18 16  1  0
 18 19  1  1
 20 18  1  0
 20 21  1  0
 22 20  2  0
M  END
$$$$
