NCT.pdb
     RDKit          3D

 22 21  0  0  1  0  0  0  0  0999 V2000
   18.3329  -14.2083  -15.3300 N   0  0  0  0  0  0  0  0  0  0  0  0
   19.4720  -13.6918  -15.9985 C   0  0  0  0  0  0  0  0  0  0  0  0
   20.4687  -14.4728  -16.1036 O   0  0  0  0  0  0  0  0  0  0  0  0
   19.5093  -12.3218  -16.5498 C   0  0  0  0  0  0  0  0  0  0  0  0
   18.2114  -11.5671  -16.4242 C   0  0  2  0  0  0  0  0  0  0  0  0
   17.3736  -12.0800  -17.5344 N   0  0  0  0  0  0  0  0  0  0  0  0
   18.4939  -10.1158  -16.6922 C   0  0  0  0  0  0  0  0  0  0  0  0
   18.5002   -9.5963  -17.8283 O   0  0  0  0  0  0  0  0  0  0  0  0
   18.7821   -9.2145  -15.6190 N   0  0  0  0  0  0  0  0  0  0  0  0
   18.9183   -7.7746  -15.8480 C   0  0  1  0  0  0  0  0  0  0  0  0
   17.5118   -7.2245  -15.7039 C   0  0  0  0  0  0  0  0  0  0  0  0
   16.6804   -7.6926  -14.1985 S   0  0  0  0  0  0  0  0  0  0  0  0
   19.8528   -7.1772  -14.8678 C   0  0  0  0  0  0  0  0  0  0  0  0
   19.8223   -7.6346  -13.6892 O   0  0  0  0  0  0  0  0  0  0  0  0
   23.2474   -7.6333  -14.3399 C   0  0  0  0  0  0  0  0  0  0  0  0
   23.1379   -6.1344  -14.4953 C   0  0  1  0  0  0  0  0  0  0  0  0
   23.5617   -5.7607  -15.7719 O   0  0  0  0  0  0  0  0  0  0  0  0
   21.7568   -5.6615  -14.2056 C   0  0  2  0  0  0  0  0  0  0  0  0
   20.7765   -6.1386  -15.1435 N   0  0  0  0  0  0  0  0  0  0  0  0
   21.6820   -4.1846  -14.0268 C   0  0  0  0  0  0  0  0  0  0  0  0
   20.9843   -3.3828  -14.8926 O   0  0  0  0  0  0  0  0  0  0  0  0
   22.2879   -3.6820  -13.0410 O   0  0  0  0  0  0  0  0  0  0  0  0
  2  1  1  0
  3  2  2  0
  4  2  1  0
  5  4  1  0
  5  6  1  6
  7  5  1  0
  7  9  1  0
  8  7  2  0
 10 11  1  1
 10  9  1  0
 10 13  1  0
 12 11  1  0
 13 19  1  0
 14 13  2  0
 16 15  1  6
 16 17  1  0
 18 16  1  0
 18 19  1  6
 20 18  1  0
 20 21  1  0
 22 20  2  0
M  END
$$$$
