NCT.pdb
     RDKit          3D

 22 21  0  0  1  0  0  0  0  0999 V2000
   27.1151  -15.2602  -16.1198 N   0  0  0  0  0  0  0  0  0  0  0  0
   26.7464  -14.5967  -17.3179 C   0  0  0  0  0  0  0  0  0  0  0  0
   26.4061  -15.3371  -18.2927 O   0  0  0  0  0  0  0  0  0  0  0  0
   26.7512  -13.1244  -17.4378 C   0  0  0  0  0  0  0  0  0  0  0  0
   27.2067  -12.6128  -18.7797 C   0  0  2  0  0  0  0  0  0  0  0  0
   28.6339  -13.0046  -18.8626 N   0  0  0  0  0  0  0  0  0  0  0  0
   27.1417  -11.1119  -18.7475 C   0  0  0  0  0  0  0  0  0  0  0  0
   26.0967  -10.4549  -18.5562 O   0  0  0  0  0  0  0  0  0  0  0  0
   28.3193  -10.3226  -18.9416 N   0  0  0  0  0  0  0  0  0  0  0  0
   28.2884   -8.8638  -18.8189 C   0  0  1  0  0  0  0  0  0  0  0  0
   29.5189   -8.5174  -18.0019 C   0  0  0  0  0  0  0  0  0  0  0  0
   29.4709   -9.0776  -16.3106 S   0  0  0  0  0  0  0  0  0  0  0  0
   28.3106   -8.2279  -20.1554 C   0  0  0  0  0  0  0  0  0  0  0  0
   29.2388   -8.5722  -20.9425 O   0  0  0  0  0  0  0  0  0  0  0  0
   25.2769   -7.9382  -22.6253 C   0  0  0  0  0  0  0  0  0  0  0  0
   25.9773   -6.6038  -22.5181 C   0  0  1  0  0  0  0  0  0  0  0  0
   25.2041   -5.7255  -21.7567 O   0  0  0  0  0  0  0  0  0  0  0  0
   27.3511   -6.7585  -21.9669 C   0  0  2  0  0  0  0  0  0  0  0  0
   27.3778   -7.2690  -20.6226 N   0  0  0  0  0  0  0  0  0  0  0  0
   28.1682   -5.5210  -22.1074 C   0  0  0  0  0  0  0  0  0  0  0  0
   28.5734   -5.0534  -23.3308 O   0  0  0  0  0  0  0  0  0  0  0  0
   28.4832   -4.9036  -21.0533 O   0  0  0  0  0  0  0  0  0  0  0  0
  2  1  1  0
  3  2  2  0
  4  2  1  0
  5  4  1  0
  5  6  1  1
  7  5  1  0
  7  9  1  0
  8  7  2  0
 10 11  1  1
 10  9  1  0
 10 13  1  0
 12 11  1  0
 13 19  1  0
 14 13  2  0
 16 15  1  1
 16 17  1  0
 18 16  1  0
 18 19  1  1
 20 18  1  0
 20 21  1  0
 22 20  2  0
M  END
$$$$
