NCT.pdb
     RDKit          3D

 22 21  0  0  1  0  0  0  0  0999 V2000
   18.4429  -12.0377  -17.9212 N   0  0  0  0  0  0  0  0  0  0  0  0
   17.5807  -11.6721  -16.8561 C   0  0  0  0  0  0  0  0  0  0  0  0
   16.3950  -12.1256  -16.9073 O   0  0  0  0  0  0  0  0  0  0  0  0
   18.0261  -10.8128  -15.7402 C   0  0  0  0  0  0  0  0  0  0  0  0
   19.4394  -10.3076  -15.8721 C   0  0  2  0  0  0  0  0  0  0  0  0
   20.2807  -11.4202  -15.3703 N   0  0  0  0  0  0  0  0  0  0  0  0
   19.6035   -9.1458  -14.9334 C   0  0  0  0  0  0  0  0  0  0  0  0
   19.4166   -9.2038  -13.6997 O   0  0  0  0  0  0  0  0  0  0  0  0
   19.9983   -7.8597  -15.4205 N   0  0  0  0  0  0  0  0  0  0  0  0
   20.3621   -6.7762  -14.5051 C   0  0  1  0  0  0  0  0  0  0  0  0
   21.6547   -7.2344  -13.8565 C   0  0  0  0  0  0  0  0  0  0  0  0
   22.5550   -5.9532  -13.0053 S   0  0  0  0  0  0  0  0  0  0  0  0
   20.5302   -5.5045  -15.2436 C   0  0  0  0  0  0  0  0  0  0  0  0
   21.2519   -5.5315  -16.2817 O   0  0  0  0  0  0  0  0  0  0  0  0
   18.9919   -1.1765  -16.8321 C   0  0  0  0  0  0  0  0  0  0  0  0
   18.7904   -2.3957  -15.9628 C   0  0  1  0  0  0  0  0  0  0  0  0
   17.8944   -3.2712  -16.5791 O   0  0  0  0  0  0  0  0  0  0  0  0
   20.0874   -3.0549  -15.6491 C   0  0  2  0  0  0  0  0  0  0  0  0
   19.9481   -4.2639  -14.8828 N   0  0  0  0  0  0  0  0  0  0  0  0
   21.0726   -2.1200  -15.0374 C   0  0  0  0  0  0  0  0  0  0  0  0
   22.1025   -1.5755  -15.7601 O   0  0  0  0  0  0  0  0  0  0  0  0
   20.9325   -1.8373  -13.8159 O   0  0  0  0  0  0  0  0  0  0  0  0
  2  1  1  0
  3  2  2  0
  4  2  1  0
  5  4  1  0
  5  6  1  1
  7  5  1  0
  7  9  1  0
  8  7  2  0
 10 11  1  6
 10  9  1  0
 10 13  1  0
 12 11  1  0
 13 19  1  0
 14 13  2  0
 16 15  1  6
 16 17  1  0
 18 16  1  0
 18 19  1  1
 20 18  1  0
 20 21  1  0
 22 20  2  0
M  END
$$$$
