NCT.pdb
     RDKit          3D

 22 21  0  0  1  0  0  0  0  0999 V2000
   25.6329  -13.6008  -15.3923 N   0  0  0  0  0  0  0  0  0  0  0  0
   24.9584  -13.3290  -16.6099 C   0  0  0  0  0  0  0  0  0  0  0  0
   25.4229  -13.8895  -17.6512 O   0  0  0  0  0  0  0  0  0  0  0  0
   23.7765  -12.4454  -16.6766 C   0  0  0  0  0  0  0  0  0  0  0  0
   23.3147  -11.9252  -15.3402 C   0  0  2  0  0  0  0  0  0  0  0  0
   22.6560  -13.0865  -14.6960 N   0  0  0  0  0  0  0  0  0  0  0  0
   22.2646  -10.8796  -15.5900 C   0  0  0  0  0  0  0  0  0  0  0  0
   21.2387  -11.0607  -16.2793 O   0  0  0  0  0  0  0  0  0  0  0  0
   22.3874   -9.5687  -15.0301 N   0  0  0  0  0  0  0  0  0  0  0  0
   21.3399   -8.5615  -15.2098 C   0  0  1  0  0  0  0  0  0  0  0  0
   20.1365   -9.1178  -14.4723 C   0  0  0  0  0  0  0  0  0  0  0  0
   20.4197   -9.4747  -12.7492 S   0  0  0  0  0  0  0  0  0  0  0  0
   21.7730   -7.2559  -14.6632 C   0  0  0  0  0  0  0  0  0  0  0  0
   22.5990   -7.2770  -13.7057 O   0  0  0  0  0  0  0  0  0  0  0  0
   21.6794   -3.7038  -16.9409 C   0  0  0  0  0  0  0  0  0  0  0  0
   22.6129   -4.0062  -15.7921 C   0  0  1  0  0  0  0  0  0  0  0  0
   23.1963   -2.8231  -15.3349 O   0  0  0  0  0  0  0  0  0  0  0  0
   21.9093   -4.7378  -14.7036 C   0  0  2  0  0  0  0  0  0  0  0  0
   21.3392   -5.9888  -15.1259 N   0  0  0  0  0  0  0  0  0  0  0  0
   20.9161   -3.8875  -13.9899 C   0  0  0  0  0  0  0  0  0  0  0  0
   21.2919   -2.7913  -13.2573 O   0  0  0  0  0  0  0  0  0  0  0  0
   19.6991   -4.2077  -14.0784 O   0  0  0  0  0  0  0  0  0  0  0  0
  2  1  1  0
  3  2  2  0
  4  2  1  0
  5  4  1  0
  5  6  1  1
  7  5  1  0
  7  9  1  0
  8  7  2  0
 10 11  1  1
 10  9  1  0
 10 13  1  0
 12 11  1  0
 13 19  1  0
 14 13  2  0
 16 15  1  6
 16 17  1  0
 18 16  1  0
 18 19  1  6
 20 18  1  0
 20 21  1  0
 22 20  2  0
M  END
$$$$
