NCT.pdb
     RDKit          3D

 22 21  0  0  1  0  0  0  0  0999 V2000
   25.3393  -23.4312  -12.2141 N   0  0  0  0  0  0  0  0  0  0  0  0
   25.6168  -22.3117  -11.3888 C   0  0  0  0  0  0  0  0  0  0  0  0
   26.0868  -22.5621  -10.2353 O   0  0  0  0  0  0  0  0  0  0  0  0
   25.3787  -20.9240  -11.8357 C   0  0  0  0  0  0  0  0  0  0  0  0
   24.7042  -20.8117  -13.1782 C   0  0  2  0  0  0  0  0  0  0  0  0
   25.6619  -21.4257  -14.1285 N   0  0  0  0  0  0  0  0  0  0  0  0
   24.5905  -19.3520  -13.5167 C   0  0  0  0  0  0  0  0  0  0  0  0
   23.6581  -18.6110  -13.1399 O   0  0  0  0  0  0  0  0  0  0  0  0
   25.5827  -18.7062  -14.3203 N   0  0  0  0  0  0  0  0  0  0  0  0
   25.4059  -17.3310  -14.7913 C   0  0  1  0  0  0  0  0  0  0  0  0
   26.8141  -16.7826  -14.9235 C   0  0  0  0  0  0  0  0  0  0  0  0
   26.9051  -15.0931  -15.4838 S   0  0  0  0  0  0  0  0  0  0  0  0
   24.6776  -17.3111  -16.0798 C   0  0  0  0  0  0  0  0  0  0  0  0
   24.8395  -18.3017  -16.8491 O   0  0  0  0  0  0  0  0  0  0  0  0
   21.0576  -17.1028  -15.9631 C   0  0  0  0  0  0  0  0  0  0  0  0
   21.7893  -17.4467  -17.2395 C   0  0  1  0  0  0  0  0  0  0  0  0
   20.8731  -17.5974  -18.2820 O   0  0  0  0  0  0  0  0  0  0  0  0
   22.8306  -16.4312  -17.5547 C   0  0  2  0  0  0  0  0  0  0  0  0
   23.8153  -16.2756  -16.5182 N   0  0  0  0  0  0  0  0  0  0  0  0
   22.2497  -15.1239  -17.9698 C   0  0  0  0  0  0  0  0  0  0  0  0
   21.4072  -15.0124  -19.0455 O   0  0  0  0  0  0  0  0  0  0  0  0
   22.5585  -14.1042  -17.2941 O   0  0  0  0  0  0  0  0  0  0  0  0
  2  1  1  0
  3  2  2  0
  4  2  1  0
  5  4  1  0
  5  6  1  6
  7  5  1  0
  7  9  1  0
  8  7  2  0
 10 11  1  6
 10  9  1  0
 10 13  1  0
 12 11  1  0
 13 19  1  0
 14 13  2  0
 16 15  1  1
 16 17  1  0
 18 16  1  0
 18 19  1  1
 20 18  1  0
 20 21  1  0
 22 20  2  0
M  END
$$$$
