CWL.pdb
     RDKit          3D

 29 30  0  0  1  0  0  0  0  0999 V2000
   11.5417  -15.8254   20.2157 N   0  0  0  0  0  0  0  0  0  0  0  0
   10.7695  -16.7948   20.9303 C   0  0  1  0  0  0  0  0  0  0  0  0
   11.3798  -18.1803   20.9179 C   0  0  0  0  0  0  0  0  0  0  0  0
   13.1361  -18.1509   21.3232 S   0  0  0  0  0  0  0  0  0  0  0  0
   10.6454  -16.3818   22.3462 C   0  0  0  0  0  0  0  0  0  0  0  0
   11.4116  -15.4992   22.8484 O   0  0  0  0  0  0  0  0  0  0  0  0
    9.6616  -16.9705   23.1668 N   0  0  0  0  0  0  0  0  0  0  0  0
    9.4766  -16.4881   24.5091 C   0  0  1  0  0  0  0  0  0  0  0  0
    8.0297  -16.3477   24.9025 C   0  0  0  0  0  0  0  0  0  0  0  0
    7.3976  -15.0850   24.5694 C   0  0  0  0  0  0  0  0  0  0  0  0
    6.7936  -14.8288   23.3479 C   0  0  0  0  0  0  0  0  0  0  0  0
    6.3007  -13.5853   23.4125 N   0  0  0  0  0  0  0  0  0  0  0  0
    6.5600  -13.0290   24.6194 C   0  0  0  0  0  0  0  0  0  0  0  0
    6.2874  -11.8060   25.1873 C   0  0  0  0  0  0  0  0  0  0  0  0
    6.7005  -11.5208   26.4750 C   0  0  0  0  0  0  0  0  0  0  0  0
    7.3873  -12.4241   27.2310 C   0  0  0  0  0  0  0  0  0  0  0  0
    7.6616  -13.6603   26.6543 C   0  0  0  0  0  0  0  0  0  0  0  0
    7.2571  -13.9755   25.3601 C   0  0  0  0  0  0  0  0  0  0  0  0
   10.1063  -17.4106   25.4855 C   0  0  0  0  0  0  0  0  0  0  0  0
   10.2361  -18.6162   25.1585 O   0  0  0  0  0  0  0  0  0  0  0  0
   14.7622  -16.1503   28.2163 C   0  0  0  0  0  0  0  0  0  0  0  0
   13.7862  -17.2219   27.8229 C   0  0  2  0  0  0  0  0  0  0  0  0
   13.8034  -17.3334   26.2801 C   0  0  0  0  0  0  0  0  0  0  0  0
   12.3836  -17.0482   28.2086 C   0  0  0  0  0  0  0  0  0  0  0  0
   11.3167  -17.9131   27.6635 C   0  0  2  0  0  0  0  0  0  0  0  0
   10.5590  -17.0009   26.7461 N   0  0  0  0  0  0  0  0  0  0  0  0
   10.3067  -18.4405   28.5753 C   0  0  0  0  0  0  0  0  0  0  0  0
   10.5778  -19.5382   29.3779 O   0  0  0  0  0  0  0  0  0  0  0  0
    9.1611  -17.9532   28.6915 O   0  0  0  0  0  0  0  0  0  0  0  0
  2  1  1  6
  2  3  1  0
  3  4  1  0
  5  6  2  0
  5  2  1  0
  7  5  1  0
  8  7  1  0
  9 10  1  0
  8  9  1  1
 10 11  2  0
 11 12  1  0
 13 12  1  0
 14 13  2  0
 15 14  1  0
 16 17  1  0
 16 15  2  0
 17 18  2  0
 18 10  1  0
 18 13  1  0
 19  8  1  0
 19 20  2  0
 22 21  1  6
 23 22  1  0
 24 22  1  0
 25 24  1  1
 25 26  1  0
 26 19  1  0
 27 25  1  0
 28 27  1  0
 29 27  2  0
M  END
$$$$
