CWL.pdb
     RDKit          3D

 29 30  0  0  1  0  0  0  0  0999 V2000
    5.6774  -16.3595   20.0587 N   0  0  0  0  0  0  0  0  0  0  0  0
    6.5142  -17.2992   20.7394 C   0  0  1  0  0  0  0  0  0  0  0  0
    7.5116  -17.9870   19.8316 C   0  0  0  0  0  0  0  0  0  0  0  0
    8.7699  -16.8492   19.2218 S   0  0  0  0  0  0  0  0  0  0  0  0
    7.2861  -16.6017   21.7922 C   0  0  0  0  0  0  0  0  0  0  0  0
    7.2951  -15.3324   21.8761 O   0  0  0  0  0  0  0  0  0  0  0  0
    8.0316  -17.3473   22.7284 N   0  0  0  0  0  0  0  0  0  0  0  0
    8.6808  -16.6700   23.8185 C   0  0  1  0  0  0  0  0  0  0  0  0
    7.9282  -16.7676   25.1193 C   0  0  0  0  0  0  0  0  0  0  0  0
    7.1475  -15.6034   25.4936 C   0  0  0  0  0  0  0  0  0  0  0  0
    5.7732  -15.6281   25.6756 C   0  0  0  0  0  0  0  0  0  0  0  0
    5.4080  -14.3920   26.0387 N   0  0  0  0  0  0  0  0  0  0  0  0
    6.4841  -13.5723   26.0984 C   0  0  0  0  0  0  0  0  0  0  0  0
    6.6577  -12.2426   26.4054 C   0  0  0  0  0  0  0  0  0  0  0  0
    7.9157  -11.6712   26.3704 C   0  0  0  0  0  0  0  0  0  0  0  0
    9.0264  -12.3875   26.0350 C   0  0  0  0  0  0  0  0  0  0  0  0
    8.8480  -13.7322   25.7253 C   0  0  0  0  0  0  0  0  0  0  0  0
    7.5932  -14.3345   25.7530 C   0  0  0  0  0  0  0  0  0  0  0  0
   10.0318  -17.2365   24.0530 C   0  0  0  0  0  0  0  0  0  0  0  0
   10.1208  -18.4630   24.3075 O   0  0  0  0  0  0  0  0  0  0  0  0
   13.6502  -16.9220   21.2024 C   0  0  0  0  0  0  0  0  0  0  0  0
   13.4168  -15.7920   22.1638 C   0  0  2  0  0  0  0  0  0  0  0  0
   14.4940  -14.7143   21.8968 C   0  0  0  0  0  0  0  0  0  0  0  0
   13.4749  -16.0875   23.5975 C   0  0  0  0  0  0  0  0  0  0  0  0
   12.5621  -17.0654   24.2253 C   0  0  2  0  0  0  0  0  0  0  0  0
   11.2037  -16.4708   24.0038 N   0  0  0  0  0  0  0  0  0  0  0  0
   12.6420  -17.2746   25.6673 C   0  0  0  0  0  0  0  0  0  0  0  0
   13.4725  -18.2495   26.1988 O   0  0  0  0  0  0  0  0  0  0  0  0
   11.9862  -16.6088   26.4979 O   0  0  0  0  0  0  0  0  0  0  0  0
  2  1  1  6
  2  3  1  0
  3  4  1  0
  5  6  2  0
  5  2  1  0
  7  5  1  0
  8  7  1  0
  9 10  1  0
  8  9  1  1
 10 11  2  0
 11 12  1  0
 13 12  1  0
 14 13  2  0
 15 14  1  0
 16 17  1  0
 16 15  2  0
 17 18  2  0
 18 10  1  0
 18 13  1  0
 19  8  1  0
 19 20  2  0
 22 21  1  6
 23 22  1  0
 24 22  1  0
 25 24  1  1
 25 26  1  0
 26 19  1  0
 27 25  1  0
 28 27  1  0
 29 27  2  0
M  END
$$$$
