CWL.pdb
     RDKit          3D

 29 30  0  0  1  0  0  0  0  0999 V2000
    9.8988  -16.1859   19.0937 N   0  0  0  0  0  0  0  0  0  0  0  0
   10.1009  -17.1236   20.1550 C   0  0  1  0  0  0  0  0  0  0  0  0
   11.4871  -17.7322   20.1666 C   0  0  0  0  0  0  0  0  0  0  0  0
   11.6554  -19.0111   21.4258 S   0  0  0  0  0  0  0  0  0  0  0  0
    9.9073  -16.4463   21.4567 C   0  0  0  0  0  0  0  0  0  0  0  0
   10.4808  -15.3419   21.7207 O   0  0  0  0  0  0  0  0  0  0  0  0
    9.0722  -17.0259   22.4339 N   0  0  0  0  0  0  0  0  0  0  0  0
    9.0084  -16.4437   23.7475 C   0  0  1  0  0  0  0  0  0  0  0  0
    7.7054  -16.7033   24.4565 C   0  0  0  0  0  0  0  0  0  0  0  0
    6.9771  -15.5305   24.9028 C   0  0  0  0  0  0  0  0  0  0  0  0
    5.8613  -15.5874   25.7238 C   0  0  0  0  0  0  0  0  0  0  0  0
    5.4783  -14.3235   25.9454 N   0  0  0  0  0  0  0  0  0  0  0  0
    6.2960  -13.4554   25.3043 C   0  0  0  0  0  0  0  0  0  0  0  0
    6.3419  -12.0845   25.1990 C   0  0  0  0  0  0  0  0  0  0  0  0
    7.3217  -11.4696   24.4426 C   0  0  0  0  0  0  0  0  0  0  0  0
    8.2739  -12.1819   23.7755 C   0  0  0  0  0  0  0  0  0  0  0  0
    8.2254  -13.5683   23.8839 C   0  0  0  0  0  0  0  0  0  0  0  0
    7.2508  -14.2146   24.6391 C   0  0  0  0  0  0  0  0  0  0  0  0
   10.0887  -16.9835   24.6094 C   0  0  0  0  0  0  0  0  0  0  0  0
   10.2646  -18.2268   24.6251 O   0  0  0  0  0  0  0  0  0  0  0  0
   10.8901  -13.5736   27.7767 C   0  0  0  0  0  0  0  0  0  0  0  0
    9.6671  -14.4409   27.6883 C   0  0  2  0  0  0  0  0  0  0  0  0
    8.8945  -14.3056   29.0216 C   0  0  0  0  0  0  0  0  0  0  0  0
    9.8581  -15.8762   27.4655 C   0  0  0  0  0  0  0  0  0  0  0  0
   11.1005  -16.4099   26.8696 C   0  0  2  0  0  0  0  0  0  0  0  0
   10.9148  -16.1750   25.4005 N   0  0  0  0  0  0  0  0  0  0  0  0
   11.3755  -17.8386   26.9824 C   0  0  0  0  0  0  0  0  0  0  0  0
   10.6476  -18.7624   26.2481 O   0  0  0  0  0  0  0  0  0  0  0  0
   12.2602  -18.3136   27.7274 O   0  0  0  0  0  0  0  0  0  0  0  0
  2  1  1  6
  2  3  1  0
  3  4  1  0
  5  6  2  0
  5  2  1  0
  7  5  1  0
  8  7  1  0
  9 10  1  0
  8  9  1  1
 10 11  2  0
 11 12  1  0
 13 12  1  0
 14 13  2  0
 15 14  1  0
 16 17  1  0
 16 15  2  0
 17 18  2  0
 18 10  1  0
 18 13  1  0
 19  8  1  0
 19 20  2  0
 22 21  1  1
 23 22  1  0
 24 22  1  0
 25 24  1  1
 25 26  1  0
 26 19  1  0
 27 25  1  0
 28 27  1  0
 29 27  2  0
M  END
$$$$
