CWL.pdb
     RDKit          3D

 29 30  0  0  1  0  0  0  0  0999 V2000
   12.0675  -15.8981   19.2007 N   0  0  0  0  0  0  0  0  0  0  0  0
   11.5144  -16.8568   20.1070 C   0  0  1  0  0  0  0  0  0  0  0  0
   12.5339  -17.8408   20.6406 C   0  0  0  0  0  0  0  0  0  0  0  0
   11.8986  -18.7830   22.0399 S   0  0  0  0  0  0  0  0  0  0  0  0
   10.9287  -16.1558   21.2716 C   0  0  0  0  0  0  0  0  0  0  0  0
   11.5070  -15.1543   21.8015 O   0  0  0  0  0  0  0  0  0  0  0  0
    9.7046  -16.5964   21.8151 N   0  0  0  0  0  0  0  0  0  0  0  0
    9.1448  -15.9109   22.9488 C   0  0  1  0  0  0  0  0  0  0  0  0
    7.6399  -15.9498   22.9907 C   0  0  0  0  0  0  0  0  0  0  0  0
    7.0190  -15.3675   24.1656 C   0  0  0  0  0  0  0  0  0  0  0  0
    6.4385  -16.1174   25.1771 C   0  0  0  0  0  0  0  0  0  0  0  0
    5.9987  -15.2507   26.0984 N   0  0  0  0  0  0  0  0  0  0  0  0
    6.2689  -13.9772   25.7263 C   0  0  0  0  0  0  0  0  0  0  0  0
    6.0329  -12.7452   26.2910 C   0  0  0  0  0  0  0  0  0  0  0  0
    6.4327  -11.5888   25.6483 C   0  0  0  0  0  0  0  0  0  0  0  0
    7.0698  -11.6144   24.4431 C   0  0  0  0  0  0  0  0  0  0  0  0
    7.3075  -12.8618   23.8742 C   0  0  0  0  0  0  0  0  0  0  0  0
    6.9169  -14.0429   24.4990 C   0  0  0  0  0  0  0  0  0  0  0  0
    9.6317  -16.5132   24.2142 C   0  0  0  0  0  0  0  0  0  0  0  0
   10.2708  -17.5921   24.1460 O   0  0  0  0  0  0  0  0  0  0  0  0
   12.3919  -15.0954   28.6304 C   0  0  0  0  0  0  0  0  0  0  0  0
   11.0445  -14.4448   28.5009 C   0  0  2  0  0  0  0  0  0  0  0  0
   10.2013  -14.8552   29.7313 C   0  0  0  0  0  0  0  0  0  0  0  0
   10.2374  -14.7667   27.3214 C   0  0  0  0  0  0  0  0  0  0  0  0
   10.4102  -16.0371   26.5867 C   0  0  2  0  0  0  0  0  0  0  0  0
    9.4125  -15.9371   25.4720 N   0  0  0  0  0  0  0  0  0  0  0  0
   10.0833  -17.2885   27.2625 C   0  0  0  0  0  0  0  0  0  0  0  0
    8.8198  -17.8481   27.1494 O   0  0  0  0  0  0  0  0  0  0  0  0
   10.8964  -17.9231   27.9693 O   0  0  0  0  0  0  0  0  0  0  0  0
  2  1  1  6
  2  3  1  0
  3  4  1  0
  5  6  2  0
  5  2  1  0
  7  5  1  0
  8  7  1  0
  9 10  1  0
  8  9  1  6
 10 11  2  0
 11 12  1  0
 13 12  1  0
 14 13  2  0
 15 14  1  0
 16 17  1  0
 16 15  2  0
 17 18  2  0
 18 10  1  0
 18 13  1  0
 19  8  1  0
 19 20  2  0
 22 21  1  6
 23 22  1  0
 24 22  1  0
 25 24  1  1
 25 26  1  0
 26 19  1  0
 27 25  1  0
 28 27  1  0
 29 27  2  0
M  END
$$$$
