CWL.pdb
     RDKit          3D

 29 30  0  0  1  0  0  0  0  0999 V2000
    9.0565  -20.0247   20.6433 N   0  0  0  0  0  0  0  0  0  0  0  0
    9.0020  -19.5605   21.9954 C   0  0  1  0  0  0  0  0  0  0  0  0
    9.2101  -20.6571   23.0185 C   0  0  0  0  0  0  0  0  0  0  0  0
    9.2035  -20.0206   24.7050 S   0  0  0  0  0  0  0  0  0  0  0  0
   10.0602  -18.5490   22.2140 C   0  0  0  0  0  0  0  0  0  0  0  0
   11.2133  -18.6730   21.6912 O   0  0  0  0  0  0  0  0  0  0  0  0
    9.7985  -17.4193   23.0160 N   0  0  0  0  0  0  0  0  0  0  0  0
   10.8265  -16.4317   23.2066 C   0  0  1  0  0  0  0  0  0  0  0  0
   10.5875  -15.1600   22.4361 C   0  0  0  0  0  0  0  0  0  0  0  0
    9.2006  -14.7730   22.2580 C   0  0  0  0  0  0  0  0  0  0  0  0
    8.2016  -15.0563   23.1767 C   0  0  0  0  0  0  0  0  0  0  0  0
    7.0700  -14.5272   22.6943 N   0  0  0  0  0  0  0  0  0  0  0  0
    7.2944  -13.9165   21.5069 C   0  0  0  0  0  0  0  0  0  0  0  0
    6.4965  -13.2410   20.6127 C   0  0  0  0  0  0  0  0  0  0  0  0
    7.0290  -12.7214   19.4480 C   0  0  0  0  0  0  0  0  0  0  0  0
    8.3497  -12.8521   19.1352 C   0  0  0  0  0  0  0  0  0  0  0  0
    9.1546  -13.5356   20.0414 C   0  0  0  0  0  0  0  0  0  0  0  0
    8.6459  -14.0686   21.2225 C   0  0  0  0  0  0  0  0  0  0  0  0
   10.9325  -16.0601   24.6390 C   0  0  0  0  0  0  0  0  0  0  0  0
   11.9371  -15.4009   25.0043 O   0  0  0  0  0  0  0  0  0  0  0  0
    9.5765  -12.8073   27.5268 C   0  0  0  0  0  0  0  0  0  0  0  0
    8.7575  -13.8656   26.8451 C   0  0  2  0  0  0  0  0  0  0  0  0
    7.2661  -13.4910   27.0142 C   0  0  0  0  0  0  0  0  0  0  0  0
    8.8921  -15.2466   27.3151 C   0  0  0  0  0  0  0  0  0  0  0  0
   10.1064  -16.0435   27.0429 C   0  0  2  0  0  0  0  0  0  0  0  0
    9.9701  -16.4086   25.5951 N   0  0  0  0  0  0  0  0  0  0  0  0
   10.2770  -17.3195   27.7301 C   0  0  0  0  0  0  0  0  0  0  0  0
   10.2425  -18.5147   27.0282 O   0  0  0  0  0  0  0  0  0  0  0  0
   10.4604  -17.4194   28.9629 O   0  0  0  0  0  0  0  0  0  0  0  0
  2  1  1  6
  2  3  1  0
  3  4  1  0
  5  6  2  0
  5  2  1  0
  7  5  1  0
  8  7  1  0
  9 10  1  0
  8  9  1  6
 10 11  2  0
 11 12  1  0
 13 12  1  0
 14 13  2  0
 15 14  1  0
 16 17  1  0
 16 15  2  0
 17 18  2  0
 18 10  1  0
 18 13  1  0
 19  8  1  0
 19 20  2  0
 22 21  1  1
 23 22  1  0
 24 22  1  0
 25 24  1  1
 25 26  1  0
 26 19  1  0
 27 25  1  0
 28 27  1  0
 29 27  2  0
M  END
$$$$
