CWL.pdb
     RDKit          3D

 29 30  0  0  1  0  0  0  0  0999 V2000
    5.1389  -17.4462   20.3722 N   0  0  0  0  0  0  0  0  0  0  0  0
    6.1909  -18.1230   21.0663 C   0  0  1  0  0  0  0  0  0  0  0  0
    6.8763  -19.1860   20.2341 C   0  0  0  0  0  0  0  0  0  0  0  0
    8.6491  -19.2581   20.5532 S   0  0  0  0  0  0  0  0  0  0  0  0
    7.2262  -17.1452   21.4697 C   0  0  0  0  0  0  0  0  0  0  0  0
    7.5709  -16.1908   20.7024 O   0  0  0  0  0  0  0  0  0  0  0  0
    7.8517  -17.2619   22.7279 N   0  0  0  0  0  0  0  0  0  0  0  0
    8.8127  -16.2728   23.1362 C   0  0  1  0  0  0  0  0  0  0  0  0
    8.8294  -16.0297   24.6224 C   0  0  0  0  0  0  0  0  0  0  0  0
    7.7121  -15.2751   25.1581 C   0  0  0  0  0  0  0  0  0  0  0  0
    6.4619  -15.8238   25.3999 C   0  0  0  0  0  0  0  0  0  0  0  0
    5.7027  -14.8474   25.9131 N   0  0  0  0  0  0  0  0  0  0  0  0
    6.4064  -13.6949   26.0124 C   0  0  0  0  0  0  0  0  0  0  0  0
    6.1080  -12.4270   26.4550 C   0  0  0  0  0  0  0  0  0  0  0  0
    7.0631  -11.4285   26.4246 C   0  0  0  0  0  0  0  0  0  0  0  0
    8.3263  -11.6498   25.9614 C   0  0  0  0  0  0  0  0  0  0  0  0
    8.6256  -12.9331   25.5145 C   0  0  0  0  0  0  0  0  0  0  0  0
    7.6841  -13.9583   25.5342 C   0  0  0  0  0  0  0  0  0  0  0  0
   10.1832  -16.6863   22.7467 C   0  0  0  0  0  0  0  0  0  0  0  0
   10.4597  -17.9110   22.7740 O   0  0  0  0  0  0  0  0  0  0  0  0
   14.7803  -13.8879   19.7285 C   0  0  0  0  0  0  0  0  0  0  0  0
   14.1283  -15.1826   20.1211 C   0  0  2  0  0  0  0  0  0  0  0  0
   13.7637  -15.9408   18.8229 C   0  0  0  0  0  0  0  0  0  0  0  0
   12.9022  -15.1191   20.9203 C   0  0  0  0  0  0  0  0  0  0  0  0
   12.5037  -16.2231   21.8181 C   0  0  2  0  0  0  0  0  0  0  0  0
   11.1753  -15.7792   22.3530 N   0  0  0  0  0  0  0  0  0  0  0  0
   13.3094  -16.4874   23.0057 C   0  0  0  0  0  0  0  0  0  0  0  0
   14.3380  -17.4167   22.9741 O   0  0  0  0  0  0  0  0  0  0  0  0
   13.1326  -15.9110   24.1011 O   0  0  0  0  0  0  0  0  0  0  0  0
  2  1  1  6
  2  3  1  0
  3  4  1  0
  5  6  2  0
  5  2  1  0
  7  5  1  0
  8  7  1  0
  9 10  1  0
  8  9  1  1
 10 11  2  0
 11 12  1  0
 13 12  1  0
 14 13  2  0
 15 14  1  0
 16 17  1  0
 16 15  2  0
 17 18  2  0
 18 10  1  0
 18 13  1  0
 19  8  1  0
 19 20  2  0
 22 21  1  6
 23 22  1  0
 24 22  1  0
 25 24  1  6
 25 26  1  0
 26 19  1  0
 27 25  1  0
 28 27  1  0
 29 27  2  0
M  END
$$$$
