CWL.pdb
     RDKit          3D

 29 30  0  0  1  0  0  0  0  0999 V2000
    7.6616  -20.6230   22.0767 N   0  0  0  0  0  0  0  0  0  0  0  0
    7.6816  -19.7502   23.2100 C   0  0  1  0  0  0  0  0  0  0  0  0
    8.2244  -20.4022   24.4640 C   0  0  0  0  0  0  0  0  0  0  0  0
    8.3066  -19.2483   25.8465 S   0  0  0  0  0  0  0  0  0  0  0  0
    8.5384  -18.5793   22.9172 C   0  0  0  0  0  0  0  0  0  0  0  0
    9.5985  -18.6912   22.2228 O   0  0  0  0  0  0  0  0  0  0  0  0
    8.1842  -17.3074   23.4117 N   0  0  0  0  0  0  0  0  0  0  0  0
    8.9362  -16.1524   23.0006 C   0  0  1  0  0  0  0  0  0  0  0  0
    8.1185  -14.8885   22.9557 C   0  0  0  0  0  0  0  0  0  0  0  0
    7.2879  -14.6245   24.1156 C   0  0  0  0  0  0  0  0  0  0  0  0
    6.6751  -15.6192   24.8623 C   0  0  0  0  0  0  0  0  0  0  0  0
    6.0218  -15.0088   25.8591 N   0  0  0  0  0  0  0  0  0  0  0  0
    6.1852  -13.6665   25.7883 C   0  0  0  0  0  0  0  0  0  0  0  0
    5.7351  -12.6071   26.5416 C   0  0  0  0  0  0  0  0  0  0  0  0
    6.0746  -11.3103   26.2050 C   0  0  0  0  0  0  0  0  0  0  0  0
    6.8593  -11.0247   25.1271 C   0  0  0  0  0  0  0  0  0  0  0  0
    7.3134  -12.0981   24.3671 C   0  0  0  0  0  0  0  0  0  0  0  0
    6.9882  -13.4143   24.6829 C   0  0  0  0  0  0  0  0  0  0  0  0
   10.0657  -15.9079   23.9309 C   0  0  0  0  0  0  0  0  0  0  0  0
   11.0374  -15.2308   23.5134 O   0  0  0  0  0  0  0  0  0  0  0  0
   11.2491  -13.3290   27.2965 C   0  0  0  0  0  0  0  0  0  0  0  0
   10.3017  -14.4595   27.5794 C   0  0  2  0  0  0  0  0  0  0  0  0
    9.8549  -14.3434   29.0559 C   0  0  0  0  0  0  0  0  0  0  0  0
   10.7940  -15.8280   27.4035 C   0  0  0  0  0  0  0  0  0  0  0  0
   11.3198  -16.3022   26.1065 C   0  0  2  0  0  0  0  0  0  0  0  0
   10.0970  -16.3947   25.2440 N   0  0  0  0  0  0  0  0  0  0  0  0
   11.9214  -17.6299   26.0363 C   0  0  0  0  0  0  0  0  0  0  0  0
   13.2339  -17.8370   26.4324 O   0  0  0  0  0  0  0  0  0  0  0  0
   11.3124  -18.6419   25.6260 O   0  0  0  0  0  0  0  0  0  0  0  0
  2  1  1  6
  2  3  1  0
  3  4  1  0
  5  6  2  0
  5  2  1  0
  7  5  1  0
  8  7  1  0
  9 10  1  0
  8  9  1  1
 10 11  2  0
 11 12  1  0
 13 12  1  0
 14 13  2  0
 15 14  1  0
 16 17  1  0
 16 15  2  0
 17 18  2  0
 18 10  1  0
 18 13  1  0
 19  8  1  0
 19 20  2  0
 22 21  1  1
 23 22  1  0
 24 22  1  0
 25 24  1  1
 25 26  1  0
 26 19  1  0
 27 25  1  0
 28 27  1  0
 29 27  2  0
M  END
$$$$
