CWL.pdb
     RDKit          3D

 29 30  0  0  1  0  0  0  0  0999 V2000
   11.0515  -16.0953   18.4488 N   0  0  0  0  0  0  0  0  0  0  0  0
   11.1253  -16.9110   19.6217 C   0  0  1  0  0  0  0  0  0  0  0  0
   12.5423  -17.2557   20.0286 C   0  0  0  0  0  0  0  0  0  0  0  0
   12.7201  -18.9981   20.4550 S   0  0  0  0  0  0  0  0  0  0  0  0
   10.5022  -16.1983   20.7595 C   0  0  0  0  0  0  0  0  0  0  0  0
   10.7817  -14.9836   21.0135 O   0  0  0  0  0  0  0  0  0  0  0  0
    9.5778  -16.8676   21.5874 N   0  0  0  0  0  0  0  0  0  0  0  0
    9.0274  -16.1882   22.7294 C   0  0  1  0  0  0  0  0  0  0  0  0
    7.6804  -16.7146   23.1494 C   0  0  0  0  0  0  0  0  0  0  0  0
    6.9199  -15.8726   24.0536 C   0  0  0  0  0  0  0  0  0  0  0  0
    5.8653  -16.3340   24.8264 C   0  0  0  0  0  0  0  0  0  0  0  0
    5.4289  -15.2934   25.5476 N   0  0  0  0  0  0  0  0  0  0  0  0
    6.1539  -14.1830   25.2742 C   0  0  0  0  0  0  0  0  0  0  0  0
    6.1175  -12.8827   25.7218 C   0  0  0  0  0  0  0  0  0  0  0  0
    7.0103  -11.9463   25.2357 C   0  0  0  0  0  0  0  0  0  0  0  0
    7.9542  -12.2624   24.3040 C   0  0  0  0  0  0  0  0  0  0  0  0
    7.9890  -13.5783   23.8531 C   0  0  0  0  0  0  0  0  0  0  0  0
    7.1030  -14.5426   24.3254 C   0  0  0  0  0  0  0  0  0  0  0  0
    9.9307  -16.3195   23.8989 C   0  0  0  0  0  0  0  0  0  0  0  0
   10.7979  -17.2276   23.8750 O   0  0  0  0  0  0  0  0  0  0  0  0
    9.5491  -14.0979   29.6299 C   0  0  0  0  0  0  0  0  0  0  0  0
   10.4191  -14.8535   28.6667 C   0  0  2  0  0  0  0  0  0  0  0  0
   11.8597  -14.3061   28.8015 C   0  0  0  0  0  0  0  0  0  0  0  0
   10.0841  -14.7876   27.2420 C   0  0  0  0  0  0  0  0  0  0  0  0
   10.6516  -15.7420   26.2670 C   0  0  2  0  0  0  0  0  0  0  0  0
    9.8606  -15.4828   25.0200 N   0  0  0  0  0  0  0  0  0  0  0  0
   10.4950  -17.1720   26.5121 C   0  0  0  0  0  0  0  0  0  0  0  0
   11.5937  -17.9689   26.7953 O   0  0  0  0  0  0  0  0  0  0  0  0
    9.3916  -17.7594   26.4841 O   0  0  0  0  0  0  0  0  0  0  0  0
  2  1  1  6
  2  3  1  0
  3  4  1  0
  5  6  2  0
  5  2  1  0
  7  5  1  0
  8  7  1  0
  9 10  1  0
  8  9  1  1
 10 11  2  0
 11 12  1  0
 13 12  1  0
 14 13  2  0
 15 14  1  0
 16 17  1  0
 16 15  2  0
 17 18  2  0
 18 10  1  0
 18 13  1  0
 19  8  1  0
 19 20  2  0
 22 21  1  1
 23 22  1  0
 24 22  1  0
 25 24  1  1
 25 26  1  0
 26 19  1  0
 27 25  1  0
 28 27  1  0
 29 27  2  0
M  END
$$$$
