CWL.pdb
     RDKit          3D

 29 30  0  0  1  0  0  0  0  0999 V2000
    6.7567  -20.3579   22.7864 N   0  0  0  0  0  0  0  0  0  0  0  0
    6.7846  -19.3277   23.7786 C   0  0  1  0  0  0  0  0  0  0  0  0
    6.9553  -19.8525   25.1885 C   0  0  0  0  0  0  0  0  0  0  0  0
    8.6775  -20.2254   25.5689 S   0  0  0  0  0  0  0  0  0  0  0  0
    7.9168  -18.4130   23.5100 C   0  0  0  0  0  0  0  0  0  0  0  0
    8.9384  -18.7974   22.8567 O   0  0  0  0  0  0  0  0  0  0  0  0
    7.8754  -17.0850   23.9820 N   0  0  0  0  0  0  0  0  0  0  0  0
    8.9809  -16.2039   23.7173 C   0  0  1  0  0  0  0  0  0  0  0  0
    8.6086  -14.7452   23.7561 C   0  0  0  0  0  0  0  0  0  0  0  0
    7.5013  -14.3922   24.6246 C   0  0  0  0  0  0  0  0  0  0  0  0
    6.7819  -15.3182   25.3645 C   0  0  0  0  0  0  0  0  0  0  0  0
    5.8661  -14.6316   26.0597 N   0  0  0  0  0  0  0  0  0  0  0  0
    5.9625  -13.3061   25.8010 C   0  0  0  0  0  0  0  0  0  0  0  0
    5.2773  -12.1947   26.2342 C   0  0  0  0  0  0  0  0  0  0  0  0
    5.6127  -10.9366   25.7706 C   0  0  0  0  0  0  0  0  0  0  0  0
    6.6227  -10.7411   24.8757 C   0  0  0  0  0  0  0  0  0  0  0  0
    7.3143  -11.8669   24.4392 C   0  0  0  0  0  0  0  0  0  0  0  0
    6.9990  -13.1458   24.8897 C   0  0  0  0  0  0  0  0  0  0  0  0
   10.0584  -16.4054   24.7171 C   0  0  0  0  0  0  0  0  0  0  0  0
   11.2027  -15.9635   24.4478 O   0  0  0  0  0  0  0  0  0  0  0  0
    9.5126  -14.1833   28.8324 C   0  0  0  0  0  0  0  0  0  0  0  0
   10.6483  -15.1149   28.5197 C   0  0  2  0  0  0  0  0  0  0  0  0
   11.4272  -14.5246   27.3204 C   0  0  0  0  0  0  0  0  0  0  0  0
   10.3230  -16.4974   28.1604 C   0  0  0  0  0  0  0  0  0  0  0  0
   10.9287  -17.1560   26.9844 C   0  0  2  0  0  0  0  0  0  0  0  0
    9.8586  -17.0613   25.9385 N   0  0  0  0  0  0  0  0  0  0  0  0
   11.2434  -18.5789   27.0616 C   0  0  0  0  0  0  0  0  0  0  0  0
   10.6213  -19.4907   26.2225 O   0  0  0  0  0  0  0  0  0  0  0  0
   12.0710  -19.0592   27.8664 O   0  0  0  0  0  0  0  0  0  0  0  0
  2  1  1  6
  2  3  1  0
  3  4  1  0
  5  6  2  0
  5  2  1  0
  7  5  1  0
  8  7  1  0
  9 10  1  0
  8  9  1  1
 10 11  2  0
 11 12  1  0
 13 12  1  0
 14 13  2  0
 15 14  1  0
 16 17  1  0
 16 15  2  0
 17 18  2  0
 18 10  1  0
 18 13  1  0
 19  8  1  0
 19 20  2  0
 22 21  1  6
 23 22  1  0
 24 22  1  0
 25 24  1  1
 25 26  1  0
 26 19  1  0
 27 25  1  0
 28 27  1  0
 29 27  2  0
M  END
$$$$
