CWL.pdb
     RDKit          3D

 29 30  0  0  1  0  0  0  0  0999 V2000
   11.5206  -16.3372   18.6542 N   0  0  0  0  0  0  0  0  0  0  0  0
   10.9867  -17.2454   19.6220 C   0  0  1  0  0  0  0  0  0  0  0  0
   12.0067  -18.2310   20.1515 C   0  0  0  0  0  0  0  0  0  0  0  0
   13.5454  -17.4227   20.6298 S   0  0  0  0  0  0  0  0  0  0  0  0
   10.4681  -16.4844   20.7808 C   0  0  0  0  0  0  0  0  0  0  0  0
   10.9072  -15.3239   21.0614 O   0  0  0  0  0  0  0  0  0  0  0  0
    9.4664  -17.0453   21.5992 N   0  0  0  0  0  0  0  0  0  0  0  0
    8.9487  -16.2872   22.7064 C   0  0  1  0  0  0  0  0  0  0  0  0
    7.5734  -16.7211   23.1403 C   0  0  0  0  0  0  0  0  0  0  0  0
    6.9458  -15.9156   24.1710 C   0  0  0  0  0  0  0  0  0  0  0  0
    6.1258  -16.4384   25.1593 C   0  0  0  0  0  0  0  0  0  0  0  0
    5.7565  -15.4138   25.9385 N   0  0  0  0  0  0  0  0  0  0  0  0
    6.3006  -14.2552   25.4970 C   0  0  0  0  0  0  0  0  0  0  0  0
    6.2385  -12.9474   25.9190 C   0  0  0  0  0  0  0  0  0  0  0  0
    6.9172  -11.9553   25.2369 C   0  0  0  0  0  0  0  0  0  0  0  0
    7.6685  -12.2222   24.1308 C   0  0  0  0  0  0  0  0  0  0  0  0
    7.7298  -13.5458   23.7062 C   0  0  0  0  0  0  0  0  0  0  0  0
    7.0574  -14.5656   24.3739 C   0  0  0  0  0  0  0  0  0  0  0  0
    9.8386  -16.4150   23.8866 C   0  0  0  0  0  0  0  0  0  0  0  0
   10.8216  -17.1920   23.8023 O   0  0  0  0  0  0  0  0  0  0  0  0
    9.7934  -13.8678   29.5476 C   0  0  0  0  0  0  0  0  0  0  0  0
   10.5094  -14.7866   28.5997 C   0  0  2  0  0  0  0  0  0  0  0  0
   11.9921  -14.3485   28.5463 C   0  0  0  0  0  0  0  0  0  0  0  0
   10.0442  -14.8390   27.2115 C   0  0  0  0  0  0  0  0  0  0  0  0
   10.5435  -15.8574   26.2643 C   0  0  2  0  0  0  0  0  0  0  0  0
    9.6335  -15.7136   25.0815 N   0  0  0  0  0  0  0  0  0  0  0  0
   10.4478  -17.2659   26.6336 C   0  0  0  0  0  0  0  0  0  0  0  0
    9.2251  -17.9197   26.6310 O   0  0  0  0  0  0  0  0  0  0  0  0
   11.4330  -17.9594   26.9682 O   0  0  0  0  0  0  0  0  0  0  0  0
  2  1  1  6
  2  3  1  0
  3  4  1  0
  5  6  2  0
  5  2  1  0
  7  5  1  0
  8  7  1  0
  9 10  1  0
  8  9  1  1
 10 11  2  0
 11 12  1  0
 13 12  1  0
 14 13  2  0
 15 14  1  0
 16 17  1  0
 16 15  2  0
 17 18  2  0
 18 10  1  0
 18 13  1  0
 19  8  1  0
 19 20  2  0
 22 21  1  1
 23 22  1  0
 24 22  1  0
 25 24  1  1
 25 26  1  0
 26 19  1  0
 27 25  1  0
 28 27  1  0
 29 27  2  0
M  END
$$$$
