ELG.pdb
     RDKit          3D

 22 21  0  0  1  0  0  0  0  0999 V2000
    9.5490  -15.0579   20.6924 N   0  0  0  0  0  0  0  0  0  0  0  0
    8.3914  -14.8092   21.4905 C   0  0  1  0  0  0  0  0  0  0  0  0
    7.2738  -15.7111   21.1835 C   0  0  0  0  0  0  0  0  0  0  0  0
    7.6831  -17.0768   20.7433 C   0  0  0  0  0  0  0  0  0  0  0  0
    6.6312  -18.0501   20.4784 C   0  0  0  0  0  0  0  0  0  0  0  0
    6.8393  -19.1484   19.9553 O   0  0  0  0  0  0  0  0  0  0  0  0
    8.7171  -14.7347   22.9481 C   0  0  0  0  0  0  0  0  0  0  0  0
    9.8920  -14.9092   23.3699 O   0  0  0  0  0  0  0  0  0  0  0  0
    5.3117  -17.7501   20.8242 O   0  0  0  0  0  0  0  0  0  0  0  0
    7.7646  -11.3532   26.0736 C   0  0  0  0  0  0  0  0  0  0  0  0
    6.5815  -12.2755   25.7319 C   0  0  2  0  0  0  0  0  0  0  0  0
    5.3965  -11.7048   26.4610 C   0  0  0  0  0  0  0  0  0  0  0  0
    6.9209  -13.6681   26.1111 C   0  0  0  0  0  0  0  0  0  0  0  0
    7.9698  -14.3643   25.3458 C   0  0  2  0  0  0  0  0  0  0  0  0
    7.7294  -14.4653   23.9325 N   0  0  0  0  0  0  0  0  0  0  0  0
    8.4048  -15.6234   25.9779 C   0  0  0  0  0  0  0  0  0  0  0  0
    8.6649  -15.5851   27.2104 O   0  0  0  0  0  0  0  0  0  0  0  0
    8.5542  -16.8410   25.3108 N   0  0  0  0  0  0  0  0  0  0  0  0
    8.9363  -18.0374   25.9702 C   0  0  0  0  0  0  0  0  0  0  0  0
   10.3623  -18.2146   26.2864 C   0  0  0  0  0  0  0  0  0  0  0  0
   11.2881  -17.4426   26.0257 O   0  0  0  0  0  0  0  0  0  0  0  0
   10.6826  -19.4048   26.9621 O   0  0  0  0  0  0  0  0  0  0  0  0
  2  7  1  0
  2  1  1  6
  3  2  1  0
  4  3  1  0
  5  4  1  0
  5  6  2  0
  7  8  2  0
  9  5  1  0
 11 10  1  1
 11 13  1  0
 12 11  1  0
 14 13  1  1
 15 14  1  0
 15  7  1  0
 16 17  2  0
 16 14  1  0
 18 16  1  0
 19 18  1  0
 19 20  1  0
 20 22  1  0
 21 20  2  0
M  END
$$$$
