ELG.pdb
     RDKit          3D

 22 21  0  0  1  0  0  0  0  0999 V2000
    6.4939  -16.4332   21.8092 N   0  0  0  0  0  0  0  0  0  0  0  0
    7.9008  -16.4779   22.0489 C   0  0  1  0  0  0  0  0  0  0  0  0
    8.6997  -16.1595   20.8585 C   0  0  0  0  0  0  0  0  0  0  0  0
    8.0292  -16.4685   19.5619 C   0  0  0  0  0  0  0  0  0  0  0  0
    8.8031  -16.3002   18.3385 C   0  0  0  0  0  0  0  0  0  0  0  0
    9.9830  -15.9385   18.3265 O   0  0  0  0  0  0  0  0  0  0  0  0
    8.2916  -15.6921   23.2597 C   0  0  0  0  0  0  0  0  0  0  0  0
    9.1146  -14.7401   23.1891 O   0  0  0  0  0  0  0  0  0  0  0  0
    8.2034  -16.5547   17.1030 O   0  0  0  0  0  0  0  0  0  0  0  0
    7.4816  -12.1825   24.4161 C   0  0  0  0  0  0  0  0  0  0  0  0
    6.9564  -13.3313   25.2945 C   0  0  2  0  0  0  0  0  0  0  0  0
    5.9619  -12.7047   26.2325 C   0  0  0  0  0  0  0  0  0  0  0  0
    8.0988  -13.9948   25.9676 C   0  0  0  0  0  0  0  0  0  0  0  0
    8.2685  -15.4470   25.7863 C   0  0  2  0  0  0  0  0  0  0  0  0
    7.7620  -15.9711   24.5477 N   0  0  0  0  0  0  0  0  0  0  0  0
    7.8811  -16.2256   26.9771 C   0  0  0  0  0  0  0  0  0  0  0  0
    8.2738  -15.7956   28.0947 O   0  0  0  0  0  0  0  0  0  0  0  0
    7.1233  -17.3982   26.9517 N   0  0  0  0  0  0  0  0  0  0  0  0
    7.6973  -18.6806   26.7558 C   0  0  0  0  0  0  0  0  0  0  0  0
    8.7668  -19.0956   27.6771 C   0  0  0  0  0  0  0  0  0  0  0  0
    9.7437  -18.4339   28.0360 O   0  0  0  0  0  0  0  0  0  0  0  0
    8.6404  -20.3965   28.1944 O   0  0  0  0  0  0  0  0  0  0  0  0
  2  7  1  0
  2  1  1  6
  3  2  1  0
  4  3  1  0
  5  4  1  0
  5  6  2  0
  7  8  2  0
  9  5  1  0
 11 10  1  6
 11 13  1  0
 12 11  1  0
 14 13  1  1
 15 14  1  0
 15  7  1  0
 16 17  2  0
 16 14  1  0
 18 16  1  0
 19 18  1  0
 19 20  1  0
 20 22  1  0
 21 20  2  0
M  END
$$$$
