ELG.pdb
     RDKit          3D

 22 21  0  0  1  0  0  0  0  0999 V2000
    9.8345  -18.5440   17.6169 N   0  0  0  0  0  0  0  0  0  0  0  0
    9.2766  -18.5035   18.9307 C   0  0  1  0  0  0  0  0  0  0  0  0
    9.4554  -19.7581   19.6728 C   0  0  0  0  0  0  0  0  0  0  0  0
    9.6110  -20.9685   18.8143 C   0  0  0  0  0  0  0  0  0  0  0  0
    9.6784  -22.2664   19.4739 C   0  0  0  0  0  0  0  0  0  0  0  0
    8.8189  -22.6730   20.2607 O   0  0  0  0  0  0  0  0  0  0  0  0
    9.7117  -17.2914   19.6907 C   0  0  0  0  0  0  0  0  0  0  0  0
   10.8963  -16.8653   19.6282 O   0  0  0  0  0  0  0  0  0  0  0  0
   10.7599  -23.1131   19.2204 O   0  0  0  0  0  0  0  0  0  0  0  0
    8.5536  -12.9889   19.2755 C   0  0  0  0  0  0  0  0  0  0  0  0
    7.5225  -13.8691   20.0030 C   0  0  2  0  0  0  0  0  0  0  0  0
    6.2913  -13.0178   20.1488 C   0  0  0  0  0  0  0  0  0  0  0  0
    8.0977  -14.3384   21.2863 C   0  0  0  0  0  0  0  0  0  0  0  0
    9.1568  -15.3617   21.2440 C   0  0  2  0  0  0  0  0  0  0  0  0
    8.8225  -16.5570   20.5196 N   0  0  0  0  0  0  0  0  0  0  0  0
    9.7770  -15.6040   22.5597 C   0  0  0  0  0  0  0  0  0  0  0  0
    9.0261  -16.0342   23.4758 O   0  0  0  0  0  0  0  0  0  0  0  0
   11.1231  -15.3850   22.8596 N   0  0  0  0  0  0  0  0  0  0  0  0
   11.6609  -15.5679   24.1595 C   0  0  0  0  0  0  0  0  0  0  0  0
   12.4992  -16.7552   24.3884 C   0  0  0  0  0  0  0  0  0  0  0  0
   13.1629  -17.0200   25.3936 O   0  0  0  0  0  0  0  0  0  0  0  0
   12.5324  -17.6782   23.3289 O   0  0  0  0  0  0  0  0  0  0  0  0
  2  7  1  0
  2  1  1  6
  3  2  1  0
  4  3  1  0
  5  4  1  0
  5  6  2  0
  7  8  2  0
  9  5  1  0
 11 10  1  1
 11 13  1  0
 12 11  1  0
 14 13  1  1
 15 14  1  0
 15  7  1  0
 16 17  2  0
 16 14  1  0
 18 16  1  0
 19 18  1  0
 19 20  1  0
 20 22  1  0
 21 20  2  0
M  END
$$$$
