ELG.pdb
     RDKit          3D

 22 21  0  0  1  0  0  0  0  0999 V2000
    7.9922  -15.3072   20.8461 N   0  0  0  0  0  0  0  0  0  0  0  0
    7.5620  -15.7633   22.1290 C   0  0  1  0  0  0  0  0  0  0  0  0
    7.5581  -17.2269   22.2501 C   0  0  0  0  0  0  0  0  0  0  0  0
    6.4071  -17.9005   21.5809 C   0  0  0  0  0  0  0  0  0  0  0  0
    5.1282  -17.9165   22.2796 C   0  0  0  0  0  0  0  0  0  0  0  0
    4.9949  -18.3105   23.4416 O   0  0  0  0  0  0  0  0  0  0  0  0
    8.2817  -15.0726   23.2431 C   0  0  0  0  0  0  0  0  0  0  0  0
    9.4873  -14.7227   23.1310 O   0  0  0  0  0  0  0  0  0  0  0  0
    3.9790  -17.4687   21.6241 O   0  0  0  0  0  0  0  0  0  0  0  0
    7.3185  -11.1858   25.3636 C   0  0  0  0  0  0  0  0  0  0  0  0
    6.4757  -12.3656   25.8784 C   0  0  2  0  0  0  0  0  0  0  0  0
    5.4790  -11.7680   26.8329 C   0  0  0  0  0  0  0  0  0  0  0  0
    7.3715  -13.3798   26.4843 C   0  0  0  0  0  0  0  0  0  0  0  0
    8.2826  -14.1251   25.5983 C   0  0  2  0  0  0  0  0  0  0  0  0
    7.6530  -14.7739   24.4812 N   0  0  0  0  0  0  0  0  0  0  0  0
    9.2351  -14.9759   26.3351 C   0  0  0  0  0  0  0  0  0  0  0  0
    9.7633  -14.4826   27.3675 O   0  0  0  0  0  0  0  0  0  0  0  0
    9.5944  -16.2744   25.9678 N   0  0  0  0  0  0  0  0  0  0  0  0
   10.4751  -17.0758   26.7388 C   0  0  0  0  0  0  0  0  0  0  0  0
   10.6819  -18.4675   26.3083 C   0  0  0  0  0  0  0  0  0  0  0  0
   10.2318  -19.0129   25.2979 O   0  0  0  0  0  0  0  0  0  0  0  0
   11.4863  -19.2445   27.1597 O   0  0  0  0  0  0  0  0  0  0  0  0
  2  7  1  0
  2  1  1  6
  3  2  1  0
  4  3  1  0
  5  4  1  0
  5  6  2  0
  7  8  2  0
  9  5  1  0
 11 10  1  1
 11 13  1  0
 12 11  1  0
 14 13  1  1
 15 14  1  0
 15  7  1  0
 16 17  2  0
 16 14  1  0
 18 16  1  0
 19 18  1  0
 19 20  1  0
 20 22  1  0
 21 20  2  0
M  END
$$$$
