ELG.pdb
     RDKit          3D

 22 21  0  0  1  0  0  0  0  0999 V2000
    8.2248  -14.8848   20.4801 N   0  0  0  0  0  0  0  0  0  0  0  0
    7.6209  -15.3761   21.6771 C   0  0  1  0  0  0  0  0  0  0  0  0
    7.4767  -16.8375   21.6932 C   0  0  0  0  0  0  0  0  0  0  0  0
    8.6393  -17.5807   21.1253 C   0  0  0  0  0  0  0  0  0  0  0  0
    8.5914  -19.0372   21.1456 C   0  0  0  0  0  0  0  0  0  0  0  0
    9.5951  -19.7475   21.2521 O   0  0  0  0  0  0  0  0  0  0  0  0
    8.2736  -14.8256   22.9047 C   0  0  0  0  0  0  0  0  0  0  0  0
    9.4893  -14.4931   22.9111 O   0  0  0  0  0  0  0  0  0  0  0  0
    7.3600  -19.6879   21.0409 O   0  0  0  0  0  0  0  0  0  0  0  0
    7.3402  -11.0703   25.6000 C   0  0  0  0  0  0  0  0  0  0  0  0
    6.3502  -12.2369   25.7615 C   0  0  2  0  0  0  0  0  0  0  0  0
    5.3037  -11.7521   26.7265 C   0  0  0  0  0  0  0  0  0  0  0  0
    7.0847  -13.4440   26.2105 C   0  0  0  0  0  0  0  0  0  0  0  0
    8.0933  -14.0241   25.3067 C   0  0  2  0  0  0  0  0  0  0  0  0
    7.5667  -14.6473   24.1237 N   0  0  0  0  0  0  0  0  0  0  0  0
    9.1074  -14.8271   26.0144 C   0  0  0  0  0  0  0  0  0  0  0  0
    9.5813  -14.3431   27.0771 O   0  0  0  0  0  0  0  0  0  0  0  0
    9.5797  -16.0705   25.5890 N   0  0  0  0  0  0  0  0  0  0  0  0
   10.4912  -16.8478   26.3488 C   0  0  0  0  0  0  0  0  0  0  0  0
   10.8511  -18.1763   25.8286 C   0  0  0  0  0  0  0  0  0  0  0  0
   10.5313  -18.6665   24.7431 O   0  0  0  0  0  0  0  0  0  0  0  0
   11.6498  -18.9573   26.6817 O   0  0  0  0  0  0  0  0  0  0  0  0
  2  7  1  0
  2  1  1  6
  3  2  1  0
  4  3  1  0
  5  4  1  0
  5  6  2  0
  7  8  2  0
  9  5  1  0
 11 10  1  1
 11 13  1  0
 12 11  1  0
 14 13  1  1
 15 14  1  0
 15  7  1  0
 16 17  2  0
 16 14  1  0
 18 16  1  0
 19 18  1  0
 19 20  1  0
 20 22  1  0
 21 20  2  0
M  END
$$$$
