ELG.pdb
     RDKit          3D

 22 21  0  0  1  0  0  0  0  0999 V2000
    5.8699  -19.4940   23.9911 N   0  0  0  0  0  0  0  0  0  0  0  0
    6.5302  -18.6857   24.9656 C   0  0  1  0  0  0  0  0  0  0  0  0
    7.8076  -19.2529   25.4165 C   0  0  0  0  0  0  0  0  0  0  0  0
    7.6853  -20.5418   26.1583 C   0  0  0  0  0  0  0  0  0  0  0  0
    8.5508  -20.7472   27.3128 C   0  0  0  0  0  0  0  0  0  0  0  0
    8.2990  -20.3040   28.4368 O   0  0  0  0  0  0  0  0  0  0  0  0
    6.6276  -17.2557   24.5393 C   0  0  0  0  0  0  0  0  0  0  0  0
    6.6585  -16.9325   23.3215 O   0  0  0  0  0  0  0  0  0  0  0  0
    9.7315  -21.4791   27.1675 O   0  0  0  0  0  0  0  0  0  0  0  0
    7.7966  -11.8165   27.0308 C   0  0  0  0  0  0  0  0  0  0  0  0
    6.9101  -12.4061   25.9201 C   0  0  2  0  0  0  0  0  0  0  0  0
    5.6689  -11.5574   25.8963 C   0  0  0  0  0  0  0  0  0  0  0  0
    6.6651  -13.8415   26.1992 C   0  0  0  0  0  0  0  0  0  0  0  0
    7.0155  -14.8248   25.1596 C   0  0  2  0  0  0  0  0  0  0  0  0
    6.6903  -16.1887   25.4746 N   0  0  0  0  0  0  0  0  0  0  0  0
    8.3751  -14.6348   24.6214 C   0  0  0  0  0  0  0  0  0  0  0  0
    8.6431  -13.5063   24.1287 O   0  0  0  0  0  0  0  0  0  0  0  0
    9.3735  -15.6111   24.6132 N   0  0  0  0  0  0  0  0  0  0  0  0
   10.6597  -15.3909   24.0570 C   0  0  0  0  0  0  0  0  0  0  0  0
   11.6520  -16.4693   24.1888 C   0  0  0  0  0  0  0  0  0  0  0  0
   11.4391  -17.6523   24.4648 O   0  0  0  0  0  0  0  0  0  0  0  0
   12.9865  -16.0852   23.9712 O   0  0  0  0  0  0  0  0  0  0  0  0
  2  7  1  0
  2  1  1  6
  3  2  1  0
  4  3  1  0
  5  4  1  0
  5  6  2  0
  7  8  2  0
  9  5  1  0
 11 10  1  1
 11 13  1  0
 12 11  1  0
 14 13  1  1
 15 14  1  0
 15  7  1  0
 16 17  2  0
 16 14  1  0
 18 16  1  0
 19 18  1  0
 19 20  1  0
 20 22  1  0
 21 20  2  0
M  END
$$$$
