ELG.pdb
     RDKit          3D

 22 21  0  0  1  0  0  0  0  0999 V2000
    7.4781  -17.2545   22.6216 N   0  0  0  0  0  0  0  0  0  0  0  0
    8.8661  -16.9202   22.6458 C   0  0  1  0  0  0  0  0  0  0  0  0
    9.3349  -16.3099   21.3950 C   0  0  0  0  0  0  0  0  0  0  0  0
    9.0741  -17.1248   20.1726 C   0  0  0  0  0  0  0  0  0  0  0  0
    9.5732  -16.6207   18.8995 C   0  0  0  0  0  0  0  0  0  0  0  0
   10.7173  -16.8319   18.4878 O   0  0  0  0  0  0  0  0  0  0  0  0
    9.2371  -16.1415   23.8674 C   0  0  0  0  0  0  0  0  0  0  0  0
   10.3964  -15.6716   24.0215 O   0  0  0  0  0  0  0  0  0  0  0  0
    8.7347  -15.8571   18.0842 O   0  0  0  0  0  0  0  0  0  0  0  0
    8.1154  -12.2317   25.2012 C   0  0  0  0  0  0  0  0  0  0  0  0
    7.0448  -13.2797   25.5513 C   0  0  2  0  0  0  0  0  0  0  0  0
    5.8450  -12.4981   26.0108 C   0  0  0  0  0  0  0  0  0  0  0  0
    7.5892  -14.2167   26.5631 C   0  0  0  0  0  0  0  0  0  0  0  0
    8.6084  -15.1909   26.1358 C   0  0  2  0  0  0  0  0  0  0  0  0
    8.3120  -15.8890   24.9151 N   0  0  0  0  0  0  0  0  0  0  0  0
    9.0715  -16.0596   27.2335 C   0  0  0  0  0  0  0  0  0  0  0  0
    9.4393  -15.4916   28.2966 O   0  0  0  0  0  0  0  0  0  0  0  0
    9.1371  -17.4532   27.1745 N   0  0  0  0  0  0  0  0  0  0  0  0
    9.5359  -18.2516   28.2772 C   0  0  0  0  0  0  0  0  0  0  0  0
   10.9744  -18.5121   28.4439 C   0  0  0  0  0  0  0  0  0  0  0  0
   11.8966  -18.0981   27.7375 O   0  0  0  0  0  0  0  0  0  0  0  0
   11.3126  -19.3270   29.5382 O   0  0  0  0  0  0  0  0  0  0  0  0
  2  7  1  0
  2  1  1  6
  3  2  1  0
  4  3  1  0
  5  4  1  0
  5  6  2  0
  7  8  2  0
  9  5  1  0
 11 10  1  1
 11 13  1  0
 12 11  1  0
 14 13  1  1
 15 14  1  0
 15  7  1  0
 16 17  2  0
 16 14  1  0
 18 16  1  0
 19 18  1  0
 19 20  1  0
 20 22  1  0
 21 20  2  0
M  END
$$$$
