ELG.pdb
     RDKit          3D

 22 21  0  0  1  0  0  0  0  0999 V2000
    7.3994  -16.9844   22.9264 N   0  0  0  0  0  0  0  0  0  0  0  0
    8.7375  -16.5360   22.7088 C   0  0  1  0  0  0  0  0  0  0  0  0
    8.9511  -15.9874   21.3635 C   0  0  0  0  0  0  0  0  0  0  0  0
    8.3160  -16.7740   20.2660 C   0  0  0  0  0  0  0  0  0  0  0  0
    8.4501  -16.2728   18.9040 C   0  0  0  0  0  0  0  0  0  0  0  0
    7.5118  -15.7916   18.2628 O   0  0  0  0  0  0  0  0  0  0  0  0
    9.2161  -15.6376   23.8043 C   0  0  0  0  0  0  0  0  0  0  0  0
   10.3758  -15.1442   23.7917 O   0  0  0  0  0  0  0  0  0  0  0  0
    9.6927  -16.3279   18.2686 O   0  0  0  0  0  0  0  0  0  0  0  0
    7.5070  -11.8719   24.7816 C   0  0  0  0  0  0  0  0  0  0  0  0
    6.8243  -12.9867   25.5931 C   0  0  2  0  0  0  0  0  0  0  0  0
    5.6254  -12.3461   26.2364 C   0  0  0  0  0  0  0  0  0  0  0  0
    7.7987  -13.5621   26.5510 C   0  0  0  0  0  0  0  0  0  0  0  0
    8.8129  -14.4991   26.0372 C   0  0  2  0  0  0  0  0  0  0  0  0
    8.3979  -15.2917   24.9125 N   0  0  0  0  0  0  0  0  0  0  0  0
    9.4827  -15.2653   27.1042 C   0  0  0  0  0  0  0  0  0  0  0  0
    9.9219  -14.6122   28.0884 O   0  0  0  0  0  0  0  0  0  0  0  0
    9.6687  -16.6493   27.0961 N   0  0  0  0  0  0  0  0  0  0  0  0
   10.2255  -17.3567   28.1924 C   0  0  0  0  0  0  0  0  0  0  0  0
   11.6921  -17.4459   28.2707 C   0  0  0  0  0  0  0  0  0  0  0  0
   12.5142  -16.9516   27.4955 O   0  0  0  0  0  0  0  0  0  0  0  0
   12.1901  -18.1818   29.3598 O   0  0  0  0  0  0  0  0  0  0  0  0
  2  7  1  0
  2  1  1  1
  3  2  1  0
  4  3  1  0
  5  4  1  0
  5  6  2  0
  7  8  2  0
  9  5  1  0
 11 10  1  1
 11 13  1  0
 12 11  1  0
 14 13  1  1
 15 14  1  0
 15  7  1  0
 16 17  2  0
 16 14  1  0
 18 16  1  0
 19 18  1  0
 19 20  1  0
 20 22  1  0
 21 20  2  0
M  END
$$$$
