ELG.pdb
     RDKit          3D

 22 21  0  0  1  0  0  0  0  0999 V2000
    8.3118  -17.0165   21.4930 N   0  0  0  0  0  0  0  0  0  0  0  0
    9.6375  -16.7193   21.9326 C   0  0  1  0  0  0  0  0  0  0  0  0
   10.5080  -16.2334   20.8543 C   0  0  0  0  0  0  0  0  0  0  0  0
   10.0928  -16.6567   19.4850 C   0  0  0  0  0  0  0  0  0  0  0  0
   11.1239  -17.1602   18.5865 C   0  0  0  0  0  0  0  0  0  0  0  0
   10.9022  -17.4958   17.4197 O   0  0  0  0  0  0  0  0  0  0  0  0
    9.6463  -15.8475   23.1475 C   0  0  0  0  0  0  0  0  0  0  0  0
   10.7242  -15.4341   23.6533 O   0  0  0  0  0  0  0  0  0  0  0  0
   12.4384  -17.2789   19.0435 O   0  0  0  0  0  0  0  0  0  0  0  0
    5.5407  -12.5827   26.5145 C   0  0  0  0  0  0  0  0  0  0  0  0
    7.0109  -13.0097   26.3621 C   0  0  2  0  0  0  0  0  0  0  0  0
    7.8042  -11.7326   26.3265 C   0  0  0  0  0  0  0  0  0  0  0  0
    7.1530  -13.8526   25.1507 C   0  0  0  0  0  0  0  0  0  0  0  0
    8.3825  -14.6491   24.9945 C   0  0  2  0  0  0  0  0  0  0  0  0
    8.4505  -15.4387   23.7956 N   0  0  0  0  0  0  0  0  0  0  0  0
    8.7578  -15.3763   26.2210 C   0  0  0  0  0  0  0  0  0  0  0  0
    8.9285  -14.6898   27.2639 O   0  0  0  0  0  0  0  0  0  0  0  0
    8.9426  -16.7580   26.3044 N   0  0  0  0  0  0  0  0  0  0  0  0
    9.1228  -17.4367   27.5369 C   0  0  0  0  0  0  0  0  0  0  0  0
   10.5029  -17.6631   27.9939 C   0  0  0  0  0  0  0  0  0  0  0  0
   11.5445  -17.3606   27.4070 O   0  0  0  0  0  0  0  0  0  0  0  0
   10.6240  -18.2968   29.2427 O   0  0  0  0  0  0  0  0  0  0  0  0
  2  7  1  0
  2  1  1  6
  3  2  1  0
  4  3  1  0
  5  4  1  0
  5  6  2  0
  7  8  2  0
  9  5  1  0
 11 10  1  6
 11 13  1  0
 12 11  1  0
 14 13  1  1
 15 14  1  0
 15  7  1  0
 16 17  2  0
 16 14  1  0
 18 16  1  0
 19 18  1  0
 19 20  1  0
 20 22  1  0
 21 20  2  0
M  END
$$$$
