ELG.pdb
     RDKit          3D

 22 21  0  0  1  0  0  0  0  0999 V2000
    8.8311  -14.9506   20.6463 N   0  0  0  0  0  0  0  0  0  0  0  0
    8.2208  -15.5381   21.7958 C   0  0  1  0  0  0  0  0  0  0  0  0
    8.3033  -17.0043   21.8074 C   0  0  0  0  0  0  0  0  0  0  0  0
    9.6928  -17.5459   21.8589 C   0  0  0  0  0  0  0  0  0  0  0  0
    9.8613  -18.9928   21.8106 C   0  0  0  0  0  0  0  0  0  0  0  0
   10.9632  -19.5483   21.8278 O   0  0  0  0  0  0  0  0  0  0  0  0
    8.6851  -14.9026   23.0673 C   0  0  0  0  0  0  0  0  0  0  0  0
    9.8498  -14.4349   23.1824 O   0  0  0  0  0  0  0  0  0  0  0  0
    8.7351  -19.8159   21.7409 O   0  0  0  0  0  0  0  0  0  0  0  0
    7.5245  -11.2719   25.7044 C   0  0  0  0  0  0  0  0  0  0  0  0
    6.4941  -12.4137   25.7456 C   0  0  2  0  0  0  0  0  0  0  0  0
    5.3594  -11.9077   26.5930 C   0  0  0  0  0  0  0  0  0  0  0  0
    7.1443  -13.6416   26.2631 C   0  0  0  0  0  0  0  0  0  0  0  0
    8.2380  -14.2373   25.4760 C   0  0  2  0  0  0  0  0  0  0  0  0
    7.8471  -14.7905   24.2085 N   0  0  0  0  0  0  0  0  0  0  0  0
    9.1124  -15.1145   26.2761 C   0  0  0  0  0  0  0  0  0  0  0  0
    9.4544  -14.6968   27.4149 O   0  0  0  0  0  0  0  0  0  0  0  0
    9.5888  -16.3596   25.8607 N   0  0  0  0  0  0  0  0  0  0  0  0
   10.3642  -17.2041   26.6962 C   0  0  0  0  0  0  0  0  0  0  0  0
   10.7819  -18.5047   26.1496 C   0  0  0  0  0  0  0  0  0  0  0  0
   10.6574  -19.6127   26.6767 O   0  0  0  0  0  0  0  0  0  0  0  0
   11.3889  -18.4549   24.8827 O   0  0  0  0  0  0  0  0  0  0  0  0
  2  7  1  0
  2  1  1  6
  3  2  1  0
  4  3  1  0
  5  4  1  0
  5  6  2  0
  7  8  2  0
  9  5  1  0
 11 10  1  1
 11 13  1  0
 12 11  1  0
 14 13  1  1
 15 14  1  0
 15  7  1  0
 16 17  2  0
 16 14  1  0
 18 16  1  0
 19 18  1  0
 19 20  1  0
 20 22  1  0
 21 20  2  0
M  END
$$$$
