ELG.pdb
     RDKit          3D

 22 21  0  0  1  0  0  0  0  0999 V2000
   10.6239  -17.4483   25.6121 N   0  0  0  0  0  0  0  0  0  0  0  0
    9.3184  -17.9116   25.9584 C   0  0  1  0  0  0  0  0  0  0  0  0
    9.1936  -18.2817   27.3740 C   0  0  0  0  0  0  0  0  0  0  0  0
   10.2622  -19.1968   27.8713 C   0  0  0  0  0  0  0  0  0  0  0  0
   10.2593  -19.5400   29.2877 C   0  0  0  0  0  0  0  0  0  0  0  0
   11.1043  -20.2723   29.8100 O   0  0  0  0  0  0  0  0  0  0  0  0
    8.2467  -16.9816   25.4863 C   0  0  0  0  0  0  0  0  0  0  0  0
    7.0264  -17.2840   25.5758 O   0  0  0  0  0  0  0  0  0  0  0  0
    9.2607  -19.0276   30.1190 O   0  0  0  0  0  0  0  0  0  0  0  0
    5.9140  -13.4883   26.6237 C   0  0  0  0  0  0  0  0  0  0  0  0
    7.3891  -13.2477   26.2588 C   0  0  2  0  0  0  0  0  0  0  0  0
    7.7028  -11.8541   26.7289 C   0  0  0  0  0  0  0  0  0  0  0  0
    7.5742  -13.4589   24.8030 C   0  0  0  0  0  0  0  0  0  0  0  0
    7.5831  -14.8412   24.2935 C   0  0  2  0  0  0  0  0  0  0  0  0
    8.5401  -15.7149   24.9149 N   0  0  0  0  0  0  0  0  0  0  0  0
    7.5641  -14.9128   22.8209 C   0  0  0  0  0  0  0  0  0  0  0  0
    6.6376  -14.2961   22.2297 O   0  0  0  0  0  0  0  0  0  0  0  0
    8.4878  -15.6156   22.0443 N   0  0  0  0  0  0  0  0  0  0  0  0
    8.4492  -15.6274   20.6263 C   0  0  0  0  0  0  0  0  0  0  0  0
    9.5084  -16.3676   19.9228 C   0  0  0  0  0  0  0  0  0  0  0  0
   10.3376  -17.1363   20.4152 O   0  0  0  0  0  0  0  0  0  0  0  0
    9.5626  -16.1602   18.5336 O   0  0  0  0  0  0  0  0  0  0  0  0
  2  7  1  0
  2  1  1  1
  3  2  1  0
  4  3  1  0
  5  4  1  0
  5  6  2  0
  7  8  2  0
  9  5  1  0
 11 10  1  6
 11 13  1  0
 12 11  1  0
 14 13  1  6
 15 14  1  0
 15  7  1  0
 16 17  2  0
 16 14  1  0
 18 16  1  0
 19 18  1  0
 19 20  1  0
 20 22  1  0
 21 20  2  0
M  END
$$$$
