ELG.pdb
     RDKit          3D

 22 21  0  0  1  0  0  0  0  0999 V2000
   10.5163  -18.1196   16.6665 N   0  0  0  0  0  0  0  0  0  0  0  0
    9.6275  -18.0051   17.7782 C   0  0  1  0  0  0  0  0  0  0  0  0
    9.3364  -19.2937   18.4198 C   0  0  0  0  0  0  0  0  0  0  0  0
   10.5307  -20.1618   18.6354 C   0  0  0  0  0  0  0  0  0  0  0  0
   10.3220  -21.4649   19.2539 C   0  0  0  0  0  0  0  0  0  0  0  0
    9.2171  -21.8703   19.6254 O   0  0  0  0  0  0  0  0  0  0  0  0
   10.0593  -16.9428   18.7380 C   0  0  0  0  0  0  0  0  0  0  0  0
   11.2548  -16.5466   18.7873 O   0  0  0  0  0  0  0  0  0  0  0  0
   11.4107  -22.3181   19.4478 O   0  0  0  0  0  0  0  0  0  0  0  0
    8.5002  -12.5489   19.3872 C   0  0  0  0  0  0  0  0  0  0  0  0
    7.6064  -13.6740   19.9372 C   0  0  2  0  0  0  0  0  0  0  0  0
    6.3588  -12.9968   20.4336 C   0  0  0  0  0  0  0  0  0  0  0  0
    8.3496  -14.4259   20.9766 C   0  0  0  0  0  0  0  0  0  0  0  0
    9.4848  -15.2647   20.5542 C   0  0  2  0  0  0  0  0  0  0  0  0
    9.1545  -16.3246   19.6415 N   0  0  0  0  0  0  0  0  0  0  0  0
   10.3450  -15.6788   21.6778 C   0  0  0  0  0  0  0  0  0  0  0  0
   10.7523  -14.7713   22.4516 O   0  0  0  0  0  0  0  0  0  0  0  0
   10.7416  -16.9924   21.9370 N   0  0  0  0  0  0  0  0  0  0  0  0
   11.4523  -17.3645   23.1069 C   0  0  0  0  0  0  0  0  0  0  0  0
   11.6929  -18.7988   23.3299 C   0  0  0  0  0  0  0  0  0  0  0  0
   11.3955  -19.7326   22.5811 O   0  0  0  0  0  0  0  0  0  0  0  0
   12.3352  -19.1176   24.5389 O   0  0  0  0  0  0  0  0  0  0  0  0
  2  7  1  0
  2  1  1  6
  3  2  1  0
  4  3  1  0
  5  4  1  0
  5  6  2  0
  7  8  2  0
  9  5  1  0
 11 10  1  1
 11 13  1  0
 12 11  1  0
 14 13  1  1
 15 14  1  0
 15  7  1  0
 16 17  2  0
 16 14  1  0
 18 16  1  0
 19 18  1  0
 19 20  1  0
 20 22  1  0
 21 20  2  0
M  END
$$$$
