ELG.pdb
     RDKit          3D

 22 21  0  0  1  0  0  0  0  0999 V2000
    7.7065  -17.6181   21.9478 N   0  0  0  0  0  0  0  0  0  0  0  0
    9.0092  -17.0370   21.8829 C   0  0  1  0  0  0  0  0  0  0  0  0
    9.3980  -16.6418   20.5230 C   0  0  0  0  0  0  0  0  0  0  0  0
    8.5777  -17.2594   19.4403 C   0  0  0  0  0  0  0  0  0  0  0  0
    8.8627  -16.8708   18.0649 C   0  0  0  0  0  0  0  0  0  0  0  0
    8.1552  -16.0924   17.4194 O   0  0  0  0  0  0  0  0  0  0  0  0
    9.1943  -15.9535   22.8968 C   0  0  0  0  0  0  0  0  0  0  0  0
   10.2774  -15.3156   22.9882 O   0  0  0  0  0  0  0  0  0  0  0  0
    9.9875  -17.3910   17.4207 O   0  0  0  0  0  0  0  0  0  0  0  0
    5.7758  -12.4920   26.7647 C   0  0  0  0  0  0  0  0  0  0  0  0
    7.1972  -12.9138   26.3535 C   0  0  2  0  0  0  0  0  0  0  0  0
    7.9174  -11.6387   26.0117 C   0  0  0  0  0  0  0  0  0  0  0  0
    7.1157  -13.8885   25.2393 C   0  0  0  0  0  0  0  0  0  0  0  0
    8.3202  -14.6676   24.9036 C   0  0  2  0  0  0  0  0  0  0  0  0
    8.1686  -15.5844   23.8073 N   0  0  0  0  0  0  0  0  0  0  0  0
    8.9826  -15.2439   26.0882 C   0  0  0  0  0  0  0  0  0  0  0  0
    9.3164  -14.4441   27.0030 O   0  0  0  0  0  0  0  0  0  0  0  0
    9.2693  -16.5995   26.2614 N   0  0  0  0  0  0  0  0  0  0  0  0
    9.8603  -17.1157   27.4431 C   0  0  0  0  0  0  0  0  0  0  0  0
   11.1645  -17.7847   27.3157 C   0  0  0  0  0  0  0  0  0  0  0  0
   11.9151  -17.7807   26.3371 O   0  0  0  0  0  0  0  0  0  0  0  0
   11.5822  -18.5035   28.4491 O   0  0  0  0  0  0  0  0  0  0  0  0
  2  7  1  0
  2  1  1  6
  3  2  1  0
  4  3  1  0
  5  4  1  0
  5  6  2  0
  7  8  2  0
  9  5  1  0
 11 10  1  6
 11 13  1  0
 12 11  1  0
 14 13  1  1
 15 14  1  0
 15  7  1  0
 16 17  2  0
 16 14  1  0
 18 16  1  0
 19 18  1  0
 19 20  1  0
 20 22  1  0
 21 20  2  0
M  END
$$$$
