ELG.pdb
     RDKit          3D

 22 21  0  0  1  0  0  0  0  0999 V2000
    8.3162  -14.3234   20.1098 N   0  0  0  0  0  0  0  0  0  0  0  0
    7.5237  -14.8388   21.1799 C   0  0  1  0  0  0  0  0  0  0  0  0
    7.0957  -16.2271   20.9648 C   0  0  0  0  0  0  0  0  0  0  0  0
    8.2088  -17.2203   20.9335 C   0  0  0  0  0  0  0  0  0  0  0  0
    7.8606  -18.6282   20.7895 C   0  0  0  0  0  0  0  0  0  0  0  0
    7.5644  -19.1468   19.7095 O   0  0  0  0  0  0  0  0  0  0  0  0
    8.1593  -14.6084   22.5138 C   0  0  0  0  0  0  0  0  0  0  0  0
    9.4067  -14.4740   22.6341 O   0  0  0  0  0  0  0  0  0  0  0  0
    7.8541  -19.4552   21.9151 O   0  0  0  0  0  0  0  0  0  0  0  0
    7.5764  -11.3459   25.8337 C   0  0  0  0  0  0  0  0  0  0  0  0
    6.4585  -12.3964   25.7158 C   0  0  2  0  0  0  0  0  0  0  0  0
    5.3810  -11.9528   26.6664 C   0  0  0  0  0  0  0  0  0  0  0  0
    7.0159  -13.7393   26.0059 C   0  0  0  0  0  0  0  0  0  0  0  0
    7.9422  -14.3369   25.0285 C   0  0  2  0  0  0  0  0  0  0  0  0
    7.4000  -14.5286   23.7114 N   0  0  0  0  0  0  0  0  0  0  0  0
    8.6673  -15.5051   25.5611 C   0  0  0  0  0  0  0  0  0  0  0  0
    9.3036  -15.3422   26.6367 O   0  0  0  0  0  0  0  0  0  0  0  0
    8.7035  -16.7644   24.9586 N   0  0  0  0  0  0  0  0  0  0  0  0
    9.9102  -17.4764   24.7371 C   0  0  0  0  0  0  0  0  0  0  0  0
   10.9217  -17.4505   25.8053 C   0  0  0  0  0  0  0  0  0  0  0  0
   11.7651  -16.5757   26.0160 O   0  0  0  0  0  0  0  0  0  0  0  0
   10.9066  -18.5575   26.6714 O   0  0  0  0  0  0  0  0  0  0  0  0
  2  7  1  0
  2  1  1  6
  3  2  1  0
  4  3  1  0
  5  4  1  0
  5  6  2  0
  7  8  2  0
  9  5  1  0
 11 10  1  1
 11 13  1  0
 12 11  1  0
 14 13  1  1
 15 14  1  0
 15  7  1  0
 16 17  2  0
 16 14  1  0
 18 16  1  0
 19 18  1  0
 19 20  1  0
 20 22  1  0
 21 20  2  0
M  END
$$$$
