ELG.pdb
     RDKit          3D

 22 21  0  0  1  0  0  0  0  0999 V2000
    9.4782  -15.3338   21.0974 N   0  0  0  0  0  0  0  0  0  0  0  0
    8.6972  -15.9264   22.1356 C   0  0  1  0  0  0  0  0  0  0  0  0
    8.7348  -17.3944   22.1200 C   0  0  0  0  0  0  0  0  0  0  0  0
    8.5055  -18.0055   20.7782 C   0  0  0  0  0  0  0  0  0  0  0  0
    8.5087  -19.4598   20.6833 C   0  0  0  0  0  0  0  0  0  0  0  0
    7.4861  -20.1467   20.7568 O   0  0  0  0  0  0  0  0  0  0  0  0
    8.9982  -15.3342   23.4753 C   0  0  0  0  0  0  0  0  0  0  0  0
   10.1653  -14.9772   23.7900 O   0  0  0  0  0  0  0  0  0  0  0  0
    9.7171  -20.1358   20.4998 O   0  0  0  0  0  0  0  0  0  0  0  0
    7.3666  -11.5883   25.4578 C   0  0  0  0  0  0  0  0  0  0  0  0
    6.3855  -12.7698   25.5514 C   0  0  2  0  0  0  0  0  0  0  0  0
    5.1354  -12.2124   26.1745 C   0  0  0  0  0  0  0  0  0  0  0  0
    7.0152  -13.8695   26.3210 C   0  0  0  0  0  0  0  0  0  0  0  0
    8.1985  -14.5343   25.7480 C   0  0  2  0  0  0  0  0  0  0  0  0
    7.9946  -15.1418   24.4617 N   0  0  0  0  0  0  0  0  0  0  0  0
    8.9040  -15.3919   26.7181 C   0  0  0  0  0  0  0  0  0  0  0  0
    9.1642  -14.8886   27.8438 O   0  0  0  0  0  0  0  0  0  0  0  0
    9.3062  -16.7070   26.4757 N   0  0  0  0  0  0  0  0  0  0  0  0
   10.6260  -17.1652   26.7215 C   0  0  0  0  0  0  0  0  0  0  0  0
   10.8613  -18.6170   26.6795 C   0  0  0  0  0  0  0  0  0  0  0  0
   10.5839  -19.3937   25.7625 O   0  0  0  0  0  0  0  0  0  0  0  0
   11.4721  -19.1581   27.8240 O   0  0  0  0  0  0  0  0  0  0  0  0
  2  7  1  0
  2  1  1  6
  3  2  1  0
  4  3  1  0
  5  4  1  0
  5  6  2  0
  7  8  2  0
  9  5  1  0
 11 10  1  1
 11 13  1  0
 12 11  1  0
 14 13  1  1
 15 14  1  0
 15  7  1  0
 16 17  2  0
 16 14  1  0
 18 16  1  0
 19 18  1  0
 19 20  1  0
 20 22  1  0
 21 20  2  0
M  END
$$$$
