GMK.pdb
     RDKit          3D

 22 21  0  0  1  0  0  0  0  0999 V2000
    6.3162  -16.8613   19.4715 N   0  0  0  0  0  0  0  0  0  0  0  0
    5.9062  -16.7174   20.8411 C   0  0  0  0  0  0  0  0  0  0  0  0
    6.9064  -15.9360   21.6357 C   0  0  0  0  0  0  0  0  0  0  0  0
    8.1010  -15.8228   21.2642 O   0  0  0  0  0  0  0  0  0  0  0  0
    6.8978  -12.2906   28.3550 C   0  0  0  0  0  0  0  0  0  0  0  0
    6.9447  -11.7090   26.6562 S   0  0  0  0  0  0  0  0  0  0  0  0
    7.6844  -12.8051   25.4814 C   0  0  0  0  0  0  0  0  0  0  0  0
    6.8015  -13.6283   24.6297 C   0  0  0  0  0  0  0  0  0  0  0  0
    7.4157  -14.5953   23.6851 C   0  0  2  0  0  0  0  0  0  0  0  0
    6.4912  -15.3081   22.8389 N   0  0  0  0  0  0  0  0  0  0  0  0
    8.1776  -15.6163   24.5414 C   0  0  0  0  0  0  0  0  0  0  0  0
    7.5488  -16.4232   25.2704 O   0  0  0  0  0  0  0  0  0  0  0  0
    9.5819  -15.6784   24.5355 N   0  0  0  0  0  0  0  0  0  0  0  0
   10.3210  -16.7796   25.1788 C   0  0  1  0  0  0  0  0  0  0  0  0
   11.6629  -16.7861   24.4696 C   0  0  0  0  0  0  0  0  0  0  0  0
   11.6837  -17.5077   23.1890 C   0  0  0  0  0  0  0  0  0  0  0  0
   12.9414  -17.3717   22.4210 C   0  0  0  0  0  0  0  0  0  0  0  0
   13.0045  -18.1350   21.1404 C   0  0  0  0  0  0  0  0  0  0  0  0
   14.2163  -18.0090   20.3982 N   0  0  0  0  0  0  0  0  0  0  0  0
   10.5713  -16.4748   26.6047 C   0  0  0  0  0  0  0  0  0  0  0  0
   11.1501  -17.4571   27.3858 O   0  0  0  0  0  0  0  0  0  0  0  0
   10.2850  -15.3935   27.1073 O   0  0  0  0  0  0  0  0  0  0  0  0
  2  3  1  0
  2  1  1  0
  3 10  1  0
  4  3  2  0
  6  5  1  0
  7  6  1  0
  7  8  1  0
  9  8  1  1
  9 11  1  0
 10  9  1  0
 11 12  2  0
 11 13  1  0
 13 14  1  0
 14 15  1  6
 15 16  1  0
 16 17  1  0
 17 18  1  0
 19 18  1  0
 20 14  1  0
 20 21  1  0
 22 20  2  0
M  END
$$$$
