GMK.pdb
     RDKit          3D

 22 21  0  0  1  0  0  0  0  0999 V2000
    4.8846  -19.6943   22.6203 N   0  0  0  0  0  0  0  0  0  0  0  0
    5.3019  -19.1473   23.8818 C   0  0  0  0  0  0  0  0  0  0  0  0
    6.1328  -17.9150   23.6994 C   0  0  0  0  0  0  0  0  0  0  0  0
    6.7814  -17.7068   22.6440 O   0  0  0  0  0  0  0  0  0  0  0  0
    5.9998  -11.4187   26.5366 C   0  0  0  0  0  0  0  0  0  0  0  0
    7.5025  -12.3360   26.8927 S   0  0  0  0  0  0  0  0  0  0  0  0
    7.8656  -13.6823   25.8043 C   0  0  0  0  0  0  0  0  0  0  0  0
    6.9229  -14.8184   25.7468 C   0  0  0  0  0  0  0  0  0  0  0  0
    7.1738  -15.9086   24.7705 C   0  0  2  0  0  0  0  0  0  0  0  0
    6.1869  -16.9594   24.7473 N   0  0  0  0  0  0  0  0  0  0  0  0
    8.5300  -16.5233   25.1432 C   0  0  0  0  0  0  0  0  0  0  0  0
    8.6332  -17.2568   26.1578 O   0  0  0  0  0  0  0  0  0  0  0  0
    9.6810  -16.2875   24.3714 N   0  0  0  0  0  0  0  0  0  0  0  0
   10.9346  -17.0329   24.5846 C   0  0  1  0  0  0  0  0  0  0  0  0
   11.7101  -16.8251   23.2966 C   0  0  0  0  0  0  0  0  0  0  0  0
   11.2219  -17.6006   22.1470 C   0  0  0  0  0  0  0  0  0  0  0  0
   11.2884  -16.8934   20.8488 C   0  0  0  0  0  0  0  0  0  0  0  0
   10.8118  -17.6664   19.6647 C   0  0  0  0  0  0  0  0  0  0  0  0
   10.7851  -16.9577   18.4269 N   0  0  0  0  0  0  0  0  0  0  0  0
   11.7203  -16.4260   25.6816 C   0  0  0  0  0  0  0  0  0  0  0  0
   12.8955  -17.0480   26.0583 O   0  0  0  0  0  0  0  0  0  0  0  0
   11.3659  -15.4035   26.2581 O   0  0  0  0  0  0  0  0  0  0  0  0
  2  3  1  0
  2  1  1  0
  3 10  1  0
  4  3  2  0
  6  5  1  0
  7  6  1  0
  7  8  1  0
  9  8  1  1
  9 11  1  0
 10  9  1  0
 11 12  2  0
 11 13  1  0
 13 14  1  0
 14 15  1  6
 15 16  1  0
 16 17  1  0
 17 18  1  0
 19 18  1  0
 20 14  1  0
 20 21  1  0
 22 20  2  0
M  END
$$$$
