GMK.pdb
     RDKit          3D

 22 21  0  0  1  0  0  0  0  0999 V2000
    5.5045  -19.5795   21.9381 N   0  0  0  0  0  0  0  0  0  0  0  0
    5.2667  -18.9317   23.1985 C   0  0  0  0  0  0  0  0  0  0  0  0
    6.2591  -17.8391   23.4515 C   0  0  0  0  0  0  0  0  0  0  0  0
    7.3405  -17.7700   22.8163 O   0  0  0  0  0  0  0  0  0  0  0  0
    8.4837  -12.8789   28.4263 C   0  0  0  0  0  0  0  0  0  0  0  0
    7.1440  -12.6168   27.2589 S   0  0  0  0  0  0  0  0  0  0  0  0
    7.2595  -13.5050   25.7336 C   0  0  0  0  0  0  0  0  0  0  0  0
    6.3868  -14.6800   25.5324 C   0  0  0  0  0  0  0  0  0  0  0  0
    6.9380  -15.8709   24.8378 C   0  0  2  0  0  0  0  0  0  0  0  0
    5.9674  -16.8579   24.4345 N   0  0  0  0  0  0  0  0  0  0  0  0
    7.9225  -16.5281   25.8149 C   0  0  0  0  0  0  0  0  0  0  0  0
    7.4943  -17.1868   26.7952 O   0  0  0  0  0  0  0  0  0  0  0  0
    9.3132  -16.4145   25.6448 N   0  0  0  0  0  0  0  0  0  0  0  0
   10.2604  -17.3451   26.2848 C   0  0  1  0  0  0  0  0  0  0  0  0
   11.4307  -17.4008   25.3200 C   0  0  0  0  0  0  0  0  0  0  0  0
   11.3938  -18.5176   24.3647 C   0  0  0  0  0  0  0  0  0  0  0  0
   11.9512  -18.2095   23.0289 C   0  0  0  0  0  0  0  0  0  0  0  0
   11.9634  -19.3403   22.0553 C   0  0  0  0  0  0  0  0  0  0  0  0
   12.3452  -19.0103   20.7209 N   0  0  0  0  0  0  0  0  0  0  0  0
   10.7592  -16.7841   27.5597 C   0  0  0  0  0  0  0  0  0  0  0  0
   10.5655  -15.4360   27.7947 O   0  0  0  0  0  0  0  0  0  0  0  0
   11.3308  -17.4683   28.4016 O   0  0  0  0  0  0  0  0  0  0  0  0
  2  3  1  0
  2  1  1  0
  3 10  1  0
  4  3  2  0
  6  5  1  0
  7  6  1  0
  7  8  1  0
  9  8  1  1
  9 11  1  0
 10  9  1  0
 11 12  2  0
 11 13  1  0
 13 14  1  0
 14 15  1  6
 15 16  1  0
 16 17  1  0
 17 18  1  0
 19 18  1  0
 20 14  1  0
 20 21  1  0
 22 20  2  0
M  END
$$$$
