GMK.pdb
     RDKit          3D

 22 21  0  0  1  0  0  0  0  0999 V2000
    4.5678  -19.7357   22.9811 N   0  0  0  0  0  0  0  0  0  0  0  0
    5.5412  -19.5855   24.0273 C   0  0  0  0  0  0  0  0  0  0  0  0
    6.2108  -18.2474   23.9679 C   0  0  0  0  0  0  0  0  0  0  0  0
    6.7358  -17.8187   22.9104 O   0  0  0  0  0  0  0  0  0  0  0  0
    7.4901  -11.2041   25.7654 C   0  0  0  0  0  0  0  0  0  0  0  0
    6.7840  -12.8441   25.5702 S   0  0  0  0  0  0  0  0  0  0  0  0
    7.5137  -14.1242   26.5488 C   0  0  0  0  0  0  0  0  0  0  0  0
    6.9356  -15.4821   26.4808 C   0  0  0  0  0  0  0  0  0  0  0  0
    7.0481  -16.2456   25.2123 C   0  0  2  0  0  0  0  0  0  0  0  0
    6.2515  -17.4451   25.1379 N   0  0  0  0  0  0  0  0  0  0  0  0
    8.5261  -16.6337   25.0673 C   0  0  0  0  0  0  0  0  0  0  0  0
    9.0372  -17.4757   25.8469 O   0  0  0  0  0  0  0  0  0  0  0  0
    9.3407  -16.0668   24.0718 N   0  0  0  0  0  0  0  0  0  0  0  0
   10.6874  -16.5850   23.7710 C   0  0  1  0  0  0  0  0  0  0  0  0
   11.0736  -15.8813   22.4830 C   0  0  0  0  0  0  0  0  0  0  0  0
   11.4912  -16.7724   21.3909 C   0  0  0  0  0  0  0  0  0  0  0  0
   10.6318  -16.7228   20.1871 C   0  0  0  0  0  0  0  0  0  0  0  0
   10.9549  -17.7134   19.1190 C   0  0  0  0  0  0  0  0  0  0  0  0
   10.1572  -17.6404   17.9386 N   0  0  0  0  0  0  0  0  0  0  0  0
   11.6501  -16.1673   24.8139 C   0  0  0  0  0  0  0  0  0  0  0  0
   11.2298  -15.2429   25.7514 O   0  0  0  0  0  0  0  0  0  0  0  0
   12.7924  -16.6095   24.8710 O   0  0  0  0  0  0  0  0  0  0  0  0
  2  3  1  0
  2  1  1  0
  3 10  1  0
  4  3  2  0
  6  5  1  0
  7  6  1  0
  7  8  1  0
  9  8  1  1
  9 11  1  0
 10  9  1  0
 11 12  2  0
 11 13  1  0
 13 14  1  0
 14 15  1  6
 15 16  1  0
 16 17  1  0
 17 18  1  0
 19 18  1  0
 20 14  1  0
 20 21  1  0
 22 20  2  0
M  END
$$$$
