GMK.pdb
     RDKit          3D

 22 21  0  0  1  0  0  0  0  0999 V2000
    4.9183  -20.4909   22.9127 N   0  0  0  0  0  0  0  0  0  0  0  0
    5.5602  -19.9739   24.0897 C   0  0  0  0  0  0  0  0  0  0  0  0
    6.1900  -18.6400   23.8320 C   0  0  0  0  0  0  0  0  0  0  0  0
    6.6615  -18.3393   22.7072 O   0  0  0  0  0  0  0  0  0  0  0  0
    7.1667  -11.1091   26.3641 C   0  0  0  0  0  0  0  0  0  0  0  0
    6.6400  -12.7858   26.7352 S   0  0  0  0  0  0  0  0  0  0  0  0
    7.0736  -14.0170   25.5416 C   0  0  0  0  0  0  0  0  0  0  0  0
    6.6091  -15.4031   25.7556 C   0  0  0  0  0  0  0  0  0  0  0  0
    6.9433  -16.4351   24.7418 C   0  0  2  0  0  0  0  0  0  0  0  0
    6.2543  -17.6933   24.8874 N   0  0  0  0  0  0  0  0  0  0  0  0
    8.4521  -16.6902   24.8611 C   0  0  0  0  0  0  0  0  0  0  0  0
    8.9117  -17.3054   25.8554 O   0  0  0  0  0  0  0  0  0  0  0  0
    9.3524  -16.2497   23.8755 N   0  0  0  0  0  0  0  0  0  0  0  0
   10.7754  -16.6340   23.8848 C   0  0  1  0  0  0  0  0  0  0  0  0
   11.3935  -15.7842   22.7897 C   0  0  0  0  0  0  0  0  0  0  0  0
   12.8311  -16.0017   22.5731 C   0  0  0  0  0  0  0  0  0  0  0  0
   13.1742  -16.6399   21.2827 C   0  0  0  0  0  0  0  0  0  0  0  0
   14.6226  -16.9261   21.0663 C   0  0  0  0  0  0  0  0  0  0  0  0
   14.9844  -17.3546   19.7545 N   0  0  0  0  0  0  0  0  0  0  0  0
   11.4105  -16.2456   25.1634 C   0  0  0  0  0  0  0  0  0  0  0  0
   12.4194  -17.0509   25.6570 O   0  0  0  0  0  0  0  0  0  0  0  0
   11.0742  -15.2461   25.7890 O   0  0  0  0  0  0  0  0  0  0  0  0
  2  3  1  0
  2  1  1  0
  3 10  1  0
  4  3  2  0
  6  5  1  0
  7  6  1  0
  7  8  1  0
  9  8  1  1
  9 11  1  0
 10  9  1  0
 11 12  2  0
 11 13  1  0
 13 14  1  0
 14 15  1  6
 15 16  1  0
 16 17  1  0
 17 18  1  0
 19 18  1  0
 20 14  1  0
 20 21  1  0
 22 20  2  0
M  END
$$$$
