GMK.pdb
     RDKit          3D

 22 21  0  0  1  0  0  0  0  0999 V2000
    7.4853  -15.2651   18.9731 N   0  0  0  0  0  0  0  0  0  0  0  0
    6.7504  -15.0398   20.1871 C   0  0  0  0  0  0  0  0  0  0  0  0
    7.6632  -14.7322   21.3337 C   0  0  0  0  0  0  0  0  0  0  0  0
    8.8968  -14.9613   21.2748 O   0  0  0  0  0  0  0  0  0  0  0  0
    5.5770  -11.9905   27.4580 C   0  0  0  0  0  0  0  0  0  0  0  0
    7.3377  -11.7565   27.1907 S   0  0  0  0  0  0  0  0  0  0  0  0
    8.0778  -12.7838   25.9555 C   0  0  0  0  0  0  0  0  0  0  0  0
    7.2896  -13.1219   24.7526 C   0  0  0  0  0  0  0  0  0  0  0  0
    7.9130  -13.9653   23.7015 C   0  0  2  0  0  0  0  0  0  0  0  0
    7.1177  -14.1671   22.5159 N   0  0  0  0  0  0  0  0  0  0  0  0
    8.1836  -15.3328   24.3441 C   0  0  0  0  0  0  0  0  0  0  0  0
    7.2363  -16.1315   24.5514 O   0  0  0  0  0  0  0  0  0  0  0  0
    9.4810  -15.7270   24.7147 N   0  0  0  0  0  0  0  0  0  0  0  0
    9.7652  -17.0595   25.2772 C   0  0  1  0  0  0  0  0  0  0  0  0
   11.0110  -17.5130   24.5382 C   0  0  0  0  0  0  0  0  0  0  0  0
   11.5726  -18.7918   24.9968 C   0  0  0  0  0  0  0  0  0  0  0  0
   12.8602  -19.1642   24.3692 C   0  0  0  0  0  0  0  0  0  0  0  0
   13.4834  -20.4249   24.8678 C   0  0  0  0  0  0  0  0  0  0  0  0
   13.8161  -21.3920   23.8731 N   0  0  0  0  0  0  0  0  0  0  0  0
   10.1104  -16.9553   26.7121 C   0  0  0  0  0  0  0  0  0  0  0  0
   10.0853  -18.1104   27.4704 O   0  0  0  0  0  0  0  0  0  0  0  0
   10.4135  -15.8914   27.2411 O   0  0  0  0  0  0  0  0  0  0  0  0
  2  3  1  0
  2  1  1  0
  3 10  1  0
  4  3  2  0
  6  5  1  0
  7  6  1  0
  7  8  1  0
  9  8  1  1
  9 11  1  0
 10  9  1  0
 11 12  2  0
 11 13  1  0
 13 14  1  0
 14 15  1  6
 15 16  1  0
 16 17  1  0
 17 18  1  0
 19 18  1  0
 20 14  1  0
 20 21  1  0
 22 20  2  0
M  END
$$$$
