GMK.pdb
     RDKit          3D

 22 21  0  0  1  0  0  0  0  0999 V2000
    7.6585  -16.6513   20.4306 N   0  0  0  0  0  0  0  0  0  0  0  0
    6.9339  -16.5952   21.6701 C   0  0  0  0  0  0  0  0  0  0  0  0
    7.7641  -16.0022   22.7664 C   0  0  0  0  0  0  0  0  0  0  0  0
    9.0138  -15.9155   22.6743 O   0  0  0  0  0  0  0  0  0  0  0  0
    7.9662  -10.7049   26.9733 C   0  0  0  0  0  0  0  0  0  0  0  0
    6.4089  -11.4541   26.4835 S   0  0  0  0  0  0  0  0  0  0  0  0
    6.5267  -12.8655   25.4238 C   0  0  0  0  0  0  0  0  0  0  0  0
    7.1034  -14.1118   25.9685 C   0  0  0  0  0  0  0  0  0  0  0  0
    7.8625  -15.0070   25.0591 C   0  0  2  0  0  0  0  0  0  0  0  0
    7.1196  -15.5267   23.9381 N   0  0  0  0  0  0  0  0  0  0  0  0
    8.3442  -16.1882   25.9129 C   0  0  0  0  0  0  0  0  0  0  0  0
    7.5220  -17.0399   26.3334 O   0  0  0  0  0  0  0  0  0  0  0  0
    9.7004  -16.3503   26.2452 N   0  0  0  0  0  0  0  0  0  0  0  0
   10.1854  -17.5068   27.0198 C   0  0  1  0  0  0  0  0  0  0  0  0
   11.5259  -17.8365   26.3890 C   0  0  0  0  0  0  0  0  0  0  0  0
   11.4583  -18.2959   24.9942 C   0  0  0  0  0  0  0  0  0  0  0  0
   12.7708  -18.4507   24.3281 C   0  0  0  0  0  0  0  0  0  0  0  0
   12.8235  -19.4550   23.2258 C   0  0  0  0  0  0  0  0  0  0  0  0
   14.0565  -19.5340   22.5125 N   0  0  0  0  0  0  0  0  0  0  0  0
   10.4364  -17.1223   28.4262 C   0  0  0  0  0  0  0  0  0  0  0  0
   10.8010  -18.1160   29.3148 O   0  0  0  0  0  0  0  0  0  0  0  0
   10.3322  -15.9662   28.8217 O   0  0  0  0  0  0  0  0  0  0  0  0
  2  3  1  0
  2  1  1  0
  3 10  1  0
  4  3  2  0
  6  5  1  0
  7  6  1  0
  7  8  1  0
  9  8  1  1
  9 11  1  0
 10  9  1  0
 11 12  2  0
 11 13  1  0
 13 14  1  0
 14 15  1  6
 15 16  1  0
 16 17  1  0
 17 18  1  0
 19 18  1  0
 20 14  1  0
 20 21  1  0
 22 20  2  0
M  END
$$$$
