GMK.pdb
     RDKit          3D

 22 21  0  0  1  0  0  0  0  0999 V2000
    4.7921  -19.8546   22.4424 N   0  0  0  0  0  0  0  0  0  0  0  0
    5.3918  -19.4558   23.6857 C   0  0  0  0  0  0  0  0  0  0  0  0
    6.0823  -18.1326   23.5641 C   0  0  0  0  0  0  0  0  0  0  0  0
    6.4038  -17.6564   22.4471 O   0  0  0  0  0  0  0  0  0  0  0  0
    6.0408  -11.4456   26.9777 C   0  0  0  0  0  0  0  0  0  0  0  0
    7.1212  -12.8486   27.2793 S   0  0  0  0  0  0  0  0  0  0  0  0
    7.4314  -13.9010   25.8919 C   0  0  0  0  0  0  0  0  0  0  0  0
    6.8534  -15.2606   25.8932 C   0  0  0  0  0  0  0  0  0  0  0  0
    7.0435  -16.1208   24.6980 C   0  0  2  0  0  0  0  0  0  0  0  0
    6.3794  -17.3998   24.7427 N   0  0  0  0  0  0  0  0  0  0  0  0
    8.5541  -16.3614   24.5705 C   0  0  0  0  0  0  0  0  0  0  0  0
    9.1254  -17.1965   25.3151 O   0  0  0  0  0  0  0  0  0  0  0  0
    9.3326  -15.6647   23.6301 N   0  0  0  0  0  0  0  0  0  0  0  0
   10.6711  -16.1282   23.2223 C   0  0  1  0  0  0  0  0  0  0  0  0
   10.9881  -15.3001   21.9905 C   0  0  0  0  0  0  0  0  0  0  0  0
   12.2721  -15.6131   21.3467 C   0  0  0  0  0  0  0  0  0  0  0  0
   12.5305  -14.8778   20.0886 C   0  0  0  0  0  0  0  0  0  0  0  0
   13.7927  -15.2345   19.3771 C   0  0  0  0  0  0  0  0  0  0  0  0
   13.9368  -14.7060   18.0599 N   0  0  0  0  0  0  0  0  0  0  0  0
   11.6749  -15.7928   24.2561 C   0  0  0  0  0  0  0  0  0  0  0  0
   11.3169  -14.8886   25.2381 O   0  0  0  0  0  0  0  0  0  0  0  0
   12.7979  -16.2850   24.2681 O   0  0  0  0  0  0  0  0  0  0  0  0
  2  3  1  0
  2  1  1  0
  3 10  1  0
  4  3  2  0
  6  5  1  0
  7  6  1  0
  7  8  1  0
  9  8  1  1
  9 11  1  0
 10  9  1  0
 11 12  2  0
 11 13  1  0
 13 14  1  0
 14 15  1  6
 15 16  1  0
 16 17  1  0
 17 18  1  0
 19 18  1  0
 20 14  1  0
 20 21  1  0
 22 20  2  0
M  END
$$$$
