GMK.pdb
     RDKit          3D

 22 21  0  0  1  0  0  0  0  0999 V2000
    5.2111  -19.6759   23.0672 N   0  0  0  0  0  0  0  0  0  0  0  0
    5.4222  -18.2564   23.1367 C   0  0  0  0  0  0  0  0  0  0  0  0
    6.7061  -17.8581   22.4769 C   0  0  0  0  0  0  0  0  0  0  0  0
    7.5321  -18.7129   22.0707 O   0  0  0  0  0  0  0  0  0  0  0  0
    6.9968  -11.3213   20.4825 C   0  0  0  0  0  0  0  0  0  0  0  0
    7.2486  -12.7263   19.3922 S   0  0  0  0  0  0  0  0  0  0  0  0
    7.1944  -14.3206   20.1565 C   0  0  0  0  0  0  0  0  0  0  0  0
    8.2184  -14.6546   21.1676 C   0  0  0  0  0  0  0  0  0  0  0  0
    8.2397  -16.0244   21.7401 C   0  0  2  0  0  0  0  0  0  0  0  0
    6.9944  -16.4788   22.3072 N   0  0  0  0  0  0  0  0  0  0  0  0
    9.3040  -16.0177   22.8461 C   0  0  0  0  0  0  0  0  0  0  0  0
    9.0943  -15.4013   23.9203 O   0  0  0  0  0  0  0  0  0  0  0  0
   10.5280  -16.6917   22.6925 N   0  0  0  0  0  0  0  0  0  0  0  0
   11.5683  -16.6762   23.7365 C   0  0  1  0  0  0  0  0  0  0  0  0
   11.8150  -18.1443   24.0324 C   0  0  0  0  0  0  0  0  0  0  0  0
   12.8428  -18.4074   25.0500 C   0  0  0  0  0  0  0  0  0  0  0  0
   13.1283  -19.8400   25.2870 C   0  0  0  0  0  0  0  0  0  0  0  0
   14.0622  -20.1371   26.4122 C   0  0  0  0  0  0  0  0  0  0  0  0
   14.2208  -21.5156   26.7436 N   0  0  0  0  0  0  0  0  0  0  0  0
   12.8283  -16.1098   23.2067 C   0  0  0  0  0  0  0  0  0  0  0  0
   13.7670  -15.6559   24.1138 O   0  0  0  0  0  0  0  0  0  0  0  0
   13.0617  -16.0320   22.0054 O   0  0  0  0  0  0  0  0  0  0  0  0
  2  3  1  0
  2  1  1  0
  3 10  1  0
  4  3  2  0
  6  5  1  0
  7  6  1  0
  7  8  1  0
  9  8  1  1
  9 11  1  0
 10  9  1  0
 11 12  2  0
 11 13  1  0
 13 14  1  0
 14 15  1  6
 15 16  1  0
 16 17  1  0
 17 18  1  0
 19 18  1  0
 20 14  1  0
 20 21  1  0
 22 20  2  0
M  END
$$$$
