GMK.pdb
     RDKit          3D

 22 21  0  0  1  0  0  0  0  0999 V2000
    4.6284  -19.4683   22.8974 N   0  0  0  0  0  0  0  0  0  0  0  0
    5.0500  -18.8491   24.1236 C   0  0  0  0  0  0  0  0  0  0  0  0
    6.0515  -17.7637   23.8760 C   0  0  0  0  0  0  0  0  0  0  0  0
    6.7162  -17.7096   22.8115 O   0  0  0  0  0  0  0  0  0  0  0  0
    7.4337  -11.2937   26.5612 C   0  0  0  0  0  0  0  0  0  0  0  0
    5.9798  -12.3413   26.6836 S   0  0  0  0  0  0  0  0  0  0  0  0
    6.0004  -13.8140   25.7041 C   0  0  0  0  0  0  0  0  0  0  0  0
    7.2148  -14.6552   25.7184 C   0  0  0  0  0  0  0  0  0  0  0  0
    7.3080  -15.7948   24.7711 C   0  0  2  0  0  0  0  0  0  0  0  0
    6.2526  -16.7721   24.8712 N   0  0  0  0  0  0  0  0  0  0  0  0
    8.6450  -16.4918   25.0586 C   0  0  0  0  0  0  0  0  0  0  0  0
    8.7846  -17.1867   26.0957 O   0  0  0  0  0  0  0  0  0  0  0  0
    9.7380  -16.3753   24.1823 N   0  0  0  0  0  0  0  0  0  0  0  0
   10.9768  -17.1527   24.3660 C   0  0  1  0  0  0  0  0  0  0  0  0
   11.7776  -16.8720   23.1076 C   0  0  0  0  0  0  0  0  0  0  0  0
   13.0851  -17.5409   23.0428 C   0  0  0  0  0  0  0  0  0  0  0  0
   13.8566  -17.2759   21.8080 C   0  0  0  0  0  0  0  0  0  0  0  0
   15.1328  -18.0359   21.6657 C   0  0  0  0  0  0  0  0  0  0  0  0
   15.7915  -17.9185   20.4057 N   0  0  0  0  0  0  0  0  0  0  0  0
   11.7519  -16.6322   25.5137 C   0  0  0  0  0  0  0  0  0  0  0  0
   12.6796  -17.4703   26.1030 O   0  0  0  0  0  0  0  0  0  0  0  0
   11.5987  -15.4972   25.9516 O   0  0  0  0  0  0  0  0  0  0  0  0
  2  3  1  0
  2  1  1  0
  3 10  1  0
  4  3  2  0
  6  5  1  0
  7  6  1  0
  7  8  1  0
  9  8  1  1
  9 11  1  0
 10  9  1  0
 11 12  2  0
 11 13  1  0
 13 14  1  0
 14 15  1  6
 15 16  1  0
 16 17  1  0
 17 18  1  0
 19 18  1  0
 20 14  1  0
 20 21  1  0
 22 20  2  0
M  END
$$$$
