GMK.pdb
     RDKit          3D

 22 21  0  0  1  0  0  0  0  0999 V2000
    7.8524  -13.7870   19.1090 N   0  0  0  0  0  0  0  0  0  0  0  0
    7.0743  -14.4660   20.1080 C   0  0  0  0  0  0  0  0  0  0  0  0
    7.7071  -14.3643   21.4614 C   0  0  0  0  0  0  0  0  0  0  0  0
    8.9532  -14.4119   21.6123 O   0  0  0  0  0  0  0  0  0  0  0  0
    8.2388  -11.8201   28.4665 C   0  0  0  0  0  0  0  0  0  0  0  0
    7.6011  -11.9886   26.7958 S   0  0  0  0  0  0  0  0  0  0  0  0
    6.9347  -13.5724   26.3761 C   0  0  0  0  0  0  0  0  0  0  0  0
    6.4409  -13.7892   25.0006 C   0  0  0  0  0  0  0  0  0  0  0  0
    7.4165  -14.1307   23.9348 C   0  0  2  0  0  0  0  0  0  0  0  0
    6.8751  -14.2100   22.6009 N   0  0  0  0  0  0  0  0  0  0  0  0
    8.0030  -15.5003   24.3039 C   0  0  0  0  0  0  0  0  0  0  0  0
    7.2823  -16.5283   24.2598 O   0  0  0  0  0  0  0  0  0  0  0  0
    9.3451  -15.6437   24.6965 N   0  0  0  0  0  0  0  0  0  0  0  0
    9.9217  -16.9517   25.0561 C   0  0  1  0  0  0  0  0  0  0  0  0
   11.2044  -17.0234   24.2480 C   0  0  0  0  0  0  0  0  0  0  0  0
   11.9987  -18.2434   24.4526 C   0  0  0  0  0  0  0  0  0  0  0  0
   13.2156  -18.3386   23.6159 C   0  0  0  0  0  0  0  0  0  0  0  0
   14.0488  -19.5595   23.8207 C   0  0  0  0  0  0  0  0  0  0  0  0
   15.1579  -19.7131   22.9366 N   0  0  0  0  0  0  0  0  0  0  0  0
   10.2939  -16.9799   26.4878 C   0  0  0  0  0  0  0  0  0  0  0  0
   10.4851  -18.2121   27.0837 O   0  0  0  0  0  0  0  0  0  0  0  0
   10.4358  -15.9589   27.1518 O   0  0  0  0  0  0  0  0  0  0  0  0
  2  3  1  0
  2  1  1  0
  3 10  1  0
  4  3  2  0
  6  5  1  0
  7  6  1  0
  7  8  1  0
  9  8  1  1
  9 11  1  0
 10  9  1  0
 11 12  2  0
 11 13  1  0
 13 14  1  0
 14 15  1  6
 15 16  1  0
 16 17  1  0
 17 18  1  0
 19 18  1  0
 20 14  1  0
 20 21  1  0
 22 20  2  0
M  END
$$$$
