RRP.pdb
     RDKit          3D

 30 30  0  0  1  0  0  0  0  0999 V2000
   24.1026  -21.0650   -9.0448 N   0  0  0  0  0  0  0  0  0  0  0  0
   22.7383  -20.8562   -8.7514 C   0  0  0  0  0  0  0  0  0  0  0  0
   22.3052  -20.4756   -7.6025 N   0  0  0  0  0  0  0  0  0  0  0  0
   21.8010  -21.0797   -9.7868 N   0  0  0  0  0  0  0  0  0  0  0  0
   22.3194  -21.5606  -11.0700 C   0  0  0  0  0  0  0  0  0  0  0  0
   21.1936  -21.8022  -12.0310 C   0  0  0  0  0  0  0  0  0  0  0  0
   20.8219  -20.5785  -12.7651 C   0  0  0  0  0  0  0  0  0  0  0  0
   20.5615  -20.6781  -14.2339 C   0  0  2  0  0  0  0  0  0  0  0  0
   20.0783  -21.9358  -14.7015 N   0  0  0  0  0  0  0  0  0  0  0  0
   21.8182  -20.2578  -14.9155 C   0  0  0  0  0  0  0  0  0  0  0  0
   22.6225  -21.1645  -15.2728 O   0  0  0  0  0  0  0  0  0  0  0  0
   21.2794  -20.3256   -7.4240 N   0  0  0  0  0  0  0  0  0  0  0  0
   23.9114  -12.3845  -14.7330 C   0  0  0  0  0  0  0  0  0  0  0  0
   24.0469  -13.0461  -15.9948 N   0  0  0  0  0  0  0  0  0  0  0  0
   24.0836  -12.3212  -17.0446 N   0  0  0  0  0  0  0  0  0  0  0  0
   24.1329  -14.4403  -16.0357 C   0  0  0  0  0  0  0  0  0  0  0  0
   24.3978  -15.1151  -17.3093 C   0  0  0  0  0  0  0  0  0  0  0  0
   24.5171  -16.5931  -17.1124 C   0  0  0  0  0  0  0  0  0  0  0  0
   23.4107  -17.1788  -16.3373 C   0  0  1  0  0  0  0  0  0  0  0  0
   23.3867  -18.5973  -15.9945 N   0  0  0  0  0  0  0  0  0  0  0  0
   22.1925  -18.9301  -15.1977 C   0  0  0  0  0  0  0  0  0  0  0  0
   24.5280  -19.1824  -15.3103 O   0  0  0  0  0  0  0  0  0  0  0  0
   24.5159  -19.1815  -14.0021 N   0  0  0  0  0  0  0  0  0  0  0  0
   24.1343  -12.6302  -18.0225 C   0  0  0  0  0  0  0  0  0  0  0  0
   25.6615  -19.7587  -15.9233 C   0  0  0  0  0  0  0  0  0  0  0  0
   26.0463  -20.0528  -17.2692 C   0  0  0  0  0  0  0  0  0  0  0  0
   26.4571  -21.5239  -17.1595 C   0  0  1  0  0  0  0  0  0  0  0  0
   27.2090  -21.5224  -15.8537 C   0  0  0  0  0  0  0  0  0  0  0  0
   26.8117  -20.2714  -15.1314 O   0  0  0  0  0  0  0  0  0  0  0  0
   27.8495  -19.2188  -15.1984 O   0  0  0  0  0  0  0  0  0  0  0  0
  2  1  1  0
  3  2  2  0
  4  2  1  0
  5  4  1  0
  6  5  1  0
  7  6  1  0
  8  9  1  1
  8  7  1  0
 10 11  2  0
 10  8  1  0
 12 13  1  0
 13 15  1  0
 13 14  2  0
 15 16  1  0
 17 16  1  0
 17 18  1  0
 19 18  1  6
 19 21  1  0
 19 20  1  0
 20 10  1  0
 21 23  1  0
 22 21  2  0
 23 27  1  0
 24 23  1  0
 25 24  1  0
 25 26  1  0
 26 27  1  0
 27 28  1  1
 28 30  2  0
 28 29  1  0
M  END
$$$$
