RRP.pdb
     RDKit          3D

 30 30  0  0  1  0  0  0  0  0999 V2000
   20.4175  -11.8246  -16.5552 N   0  0  0  0  0  0  0  0  0  0  0  0
   19.9317  -12.8997  -15.7811 C   0  0  0  0  0  0  0  0  0  0  0  0
   18.7513  -12.9379  -15.2734 N   0  0  0  0  0  0  0  0  0  0  0  0
   20.7993  -13.9940  -15.5572 N   0  0  0  0  0  0  0  0  0  0  0  0
   22.1524  -13.9030  -16.1116 C   0  0  0  0  0  0  0  0  0  0  0  0
   22.3098  -14.8495  -17.2642 C   0  0  0  0  0  0  0  0  0  0  0  0
   23.2961  -15.9080  -16.9790 C   0  0  0  0  0  0  0  0  0  0  0  0
   24.6462  -15.5095  -16.4756 C   0  0  2  0  0  0  0  0  0  0  0  0
   25.3570  -14.5616  -17.2693 N   0  0  0  0  0  0  0  0  0  0  0  0
   25.4103  -16.7722  -16.2697 C   0  0  0  0  0  0  0  0  0  0  0  0
   25.6403  -17.4898  -17.2839 O   0  0  0  0  0  0  0  0  0  0  0  0
   18.4349  -13.7456  -14.6783 N   0  0  0  0  0  0  0  0  0  0  0  0
   25.4421  -20.8673   -9.8463 C   0  0  0  0  0  0  0  0  0  0  0  0
   26.4122  -21.5758  -10.6243 N   0  0  0  0  0  0  0  0  0  0  0  0
   26.2919  -22.8434  -10.7124 N   0  0  0  0  0  0  0  0  0  0  0  0
   27.4419  -20.8689  -11.2510 C   0  0  0  0  0  0  0  0  0  0  0  0
   27.4244  -19.4035  -11.2473 C   0  0  0  0  0  0  0  0  0  0  0  0
   26.5312  -18.8805  -12.3272 C   0  0  0  0  0  0  0  0  0  0  0  0
   27.2080  -18.7056  -13.6231 C   0  0  1  0  0  0  0  0  0  0  0  0
   26.4547  -18.5962  -14.8684 N   0  0  0  0  0  0  0  0  0  0  0  0
   25.9012  -17.2407  -15.0361 C   0  0  0  0  0  0  0  0  0  0  0  0
   25.3715  -19.5303  -15.1280 O   0  0  0  0  0  0  0  0  0  0  0  0
   24.1502  -19.0613  -15.1118 N   0  0  0  0  0  0  0  0  0  0  0  0
   26.9080  -23.5023  -11.2028 C   0  0  0  0  0  0  0  0  0  0  0  0
   25.5070  -20.9089  -15.3994 C   0  0  0  0  0  0  0  0  0  0  0  0
   26.6086  -21.8074  -15.5569 C   0  0  0  0  0  0  0  0  0  0  0  0
   26.2701  -22.4823  -16.8891 C   0  0  1  0  0  0  0  0  0  0  0  0
   24.7855  -22.6940  -16.7423 C   0  0  0  0  0  0  0  0  0  0  0  0
   24.3292  -21.7846  -15.6426 O   0  0  0  0  0  0  0  0  0  0  0  0
   24.0895  -22.5016  -14.3706 O   0  0  0  0  0  0  0  0  0  0  0  0
  2  1  1  0
  3  2  2  0
  4  2  1  0
  5  4  1  0
  6  5  1  0
  7  6  1  0
  8  9  1  6
  8  7  1  0
 10 11  2  0
 10  8  1  0
 12 13  1  0
 13 15  1  0
 13 14  2  0
 15 16  1  0
 17 16  1  0
 17 18  1  0
 19 18  1  6
 19 21  1  0
 19 20  1  0
 20 10  1  0
 21 23  1  0
 22 21  2  0
 23 27  1  0
 24 23  1  0
 25 24  1  0
 25 26  1  0
 26 27  1  0
 27 28  1  1
 28 30  2  0
 28 29  1  0
M  END
$$$$
