RRP.pdb
     RDKit          3D

 30 30  0  0  1  0  0  0  0  0999 V2000
   30.3902  -18.3646  -21.0930 N   0  0  0  0  0  0  0  0  0  0  0  0
   29.4857  -17.6214  -20.3053 C   0  0  0  0  0  0  0  0  0  0  0  0
   28.4844  -16.9746  -20.7864 N   0  0  0  0  0  0  0  0  0  0  0  0
   29.6999  -17.5931  -18.9075 N   0  0  0  0  0  0  0  0  0  0  0  0
   29.1255  -18.6852  -18.1176 C   0  0  0  0  0  0  0  0  0  0  0  0
   28.4642  -19.6881  -19.0154 C   0  0  0  0  0  0  0  0  0  0  0  0
   27.7480  -20.7261  -18.2512 C   0  0  0  0  0  0  0  0  0  0  0  0
   28.4100  -21.3086  -17.0439 C   0  0  2  0  0  0  0  0  0  0  0  0
   29.1605  -22.5028  -17.2548 N   0  0  0  0  0  0  0  0  0  0  0  0
   27.3437  -21.4760  -16.0164 C   0  0  0  0  0  0  0  0  0  0  0  0
   26.4016  -22.2773  -16.2748 O   0  0  0  0  0  0  0  0  0  0  0  0
   27.8779  -16.3681  -20.1773 N   0  0  0  0  0  0  0  0  0  0  0  0
   25.5028  -20.4787   -8.1804 C   0  0  0  0  0  0  0  0  0  0  0  0
   24.1910  -20.8538   -8.6125 N   0  0  0  0  0  0  0  0  0  0  0  0
   23.2181  -20.6352   -7.8159 N   0  0  0  0  0  0  0  0  0  0  0  0
   24.0212  -21.4375   -9.8708 C   0  0  0  0  0  0  0  0  0  0  0  0
   25.1846  -21.6508  -10.7360 C   0  0  0  0  0  0  0  0  0  0  0  0
   25.5849  -20.3774  -11.4111 C   0  0  0  0  0  0  0  0  0  0  0  0
   26.5860  -20.5602  -12.4752 C   0  0  1  0  0  0  0  0  0  0  0  0
   26.2116  -21.0468  -13.7993 N   0  0  0  0  0  0  0  0  0  0  0  0
   27.2917  -20.8145  -14.7746 C   0  0  0  0  0  0  0  0  0  0  0  0
   24.9812  -20.5705  -14.4097 O   0  0  0  0  0  0  0  0  0  0  0  0
   25.0565  -19.5178  -15.1828 N   0  0  0  0  0  0  0  0  0  0  0  0
   22.2272  -20.8668   -7.9528 C   0  0  0  0  0  0  0  0  0  0  0  0
   23.6982  -21.1370  -14.2501 C   0  0  0  0  0  0  0  0  0  0  0  0
   23.1676  -22.2617  -13.5434 C   0  0  0  0  0  0  0  0  0  0  0  0
   22.3732  -22.9719  -14.6432 C   0  0  1  0  0  0  0  0  0  0  0  0
   21.7302  -21.8026  -15.3429 C   0  0  0  0  0  0  0  0  0  0  0  0
   22.5003  -20.5834  -14.9369 O   0  0  0  0  0  0  0  0  0  0  0  0
   21.7921  -19.7718  -13.9223 O   0  0  0  0  0  0  0  0  0  0  0  0
  2  1  1  0
  3  2  2  0
  4  2  1  0
  5  4  1  0
  6  5  1  0
  7  6  1  0
  8  9  1  6
  8  7  1  0
 10 11  2  0
 10  8  1  0
 12 13  1  0
 13 15  1  0
 13 14  2  0
 15 16  1  0
 17 16  1  0
 17 18  1  0
 19 18  1  1
 19 21  1  0
 19 20  1  0
 20 10  1  0
 21 23  1  0
 22 21  2  0
 23 27  1  0
 24 23  1  0
 25 24  1  0
 25 26  1  0
 26 27  1  0
 27 28  1  1
 28 30  2  0
 28 29  1  0
M  END
$$$$
