RRP.pdb
     RDKit          3D

 30 30  0  0  1  0  0  0  0  0999 V2000
   47.7615  -12.6754  -13.5421 N   0  0  0  0  0  0  0  0  0  0  0  0
   48.0797  -11.5801  -12.7114 C   0  0  0  0  0  0  0  0  0  0  0  0
   49.1717  -10.9081  -12.8029 N   0  0  0  0  0  0  0  0  0  0  0  0
   47.1370  -11.2064  -11.7255 N   0  0  0  0  0  0  0  0  0  0  0  0
   45.8619  -11.9278  -11.7075 C   0  0  0  0  0  0  0  0  0  0  0  0
   45.5824  -12.4612  -10.3340 C   0  0  0  0  0  0  0  0  0  0  0  0
   45.4307  -11.3807   -9.3421 C   0  0  0  0  0  0  0  0  0  0  0  0
   45.2053  -11.7509   -7.9113 C   0  0  2  0  0  0  0  0  0  0  0  0
   45.2741  -13.1421   -7.6050 N   0  0  0  0  0  0  0  0  0  0  0  0
   43.9040  -11.1411   -7.5168 C   0  0  0  0  0  0  0  0  0  0  0  0
   42.8774  -11.8769   -7.5522 O   0  0  0  0  0  0  0  0  0  0  0  0
   49.4240  -10.1706  -12.0965 N   0  0  0  0  0  0  0  0  0  0  0  0
   42.6432   -5.2027   -1.5040 C   0  0  0  0  0  0  0  0  0  0  0  0
   42.2480   -6.5407   -1.1850 N   0  0  0  0  0  0  0  0  0  0  0  0
   41.7616   -6.7557   -0.0247 N   0  0  0  0  0  0  0  0  0  0  0  0
   42.4052   -7.5509   -2.1377 C   0  0  0  0  0  0  0  0  0  0  0  0
   42.9397   -7.2237   -3.4624 C   0  0  0  0  0  0  0  0  0  0  0  0
   42.9898   -8.4411   -4.3302 C   0  0  0  0  0  0  0  0  0  0  0  0
   42.5620   -8.1976   -5.7179 C   0  0  2  0  0  0  0  0  0  0  0  0
   42.4053   -9.2919   -6.6708 N   0  0  0  0  0  0  0  0  0  0  0  0
   43.7153   -9.8076   -7.1063 C   0  0  0  0  0  0  0  0  0  0  0  0
   41.6139   -9.0804   -7.8718 O   0  0  0  0  0  0  0  0  0  0  0  0
   42.2566   -8.8932   -8.9958 N   0  0  0  0  0  0  0  0  0  0  0  0
   41.3824   -7.6346    0.3468 C   0  0  0  0  0  0  0  0  0  0  0  0
   40.2045   -9.0569   -7.9475 C   0  0  0  0  0  0  0  0  0  0  0  0
   39.1362   -9.2280   -7.0119 C   0  0  0  0  0  0  0  0  0  0  0  0
   38.2723  -10.2778   -7.7166 C   0  0  1  0  0  0  0  0  0  0  0  0
   38.3210   -9.7899   -9.1414 C   0  0  0  0  0  0  0  0  0  0  0  0
   39.4868   -8.8536   -9.2347 O   0  0  0  0  0  0  0  0  0  0  0  0
   39.0780   -7.4316   -9.2490 O   0  0  0  0  0  0  0  0  0  0  0  0
  2  1  1  0
  3  2  2  0
  4  2  1  0
  5  4  1  0
  6  5  1  0
  7  6  1  0
  8  9  1  6
  8  7  1  0
 10 11  2  0
 10  8  1  0
 12 13  1  0
 13 15  1  0
 13 14  2  0
 15 16  1  0
 17 16  1  0
 17 18  1  0
 19 18  1  1
 19 21  1  0
 19 20  1  0
 20 10  1  0
 21 23  1  0
 22 21  2  0
 23 27  1  0
 24 23  1  0
 25 24  1  0
 25 26  1  0
 26 27  1  0
 27 28  1  6
 28 30  2  0
 28 29  1  0
M  END
$$$$
