RRP.pdb
     RDKit          3D

 30 30  0  0  1  0  0  0  0  0999 V2000
   28.4812  -13.8361  -15.3477 N   0  0  0  0  0  0  0  0  0  0  0  0
   28.2345  -15.0291  -16.0597 C   0  0  0  0  0  0  0  0  0  0  0  0
   29.1268  -15.9286  -16.2768 N   0  0  0  0  0  0  0  0  0  0  0  0
   26.9277  -15.2393  -16.5584 N   0  0  0  0  0  0  0  0  0  0  0  0
   25.9243  -14.2121  -16.2676 C   0  0  0  0  0  0  0  0  0  0  0  0
   24.6090  -14.5753  -16.8899 C   0  0  0  0  0  0  0  0  0  0  0  0
   23.5490  -13.6104  -16.5439 C   0  0  0  0  0  0  0  0  0  0  0  0
   22.1721  -13.8395  -17.0792 C   0  0  2  0  0  0  0  0  0  0  0  0
   22.0656  -14.7594  -18.1638 N   0  0  0  0  0  0  0  0  0  0  0  0
   21.6185  -12.4962  -17.4108 C   0  0  0  0  0  0  0  0  0  0  0  0
   22.1668  -11.8519  -18.3493 O   0  0  0  0  0  0  0  0  0  0  0  0
   28.9057  -16.8024  -16.8192 N   0  0  0  0  0  0  0  0  0  0  0  0
   13.4762  -11.2890  -16.8594 C   0  0  0  0  0  0  0  0  0  0  0  0
   14.0681  -11.5566  -15.5841 N   0  0  0  0  0  0  0  0  0  0  0  0
   13.2980  -11.9363  -14.6398 N   0  0  0  0  0  0  0  0  0  0  0  0
   15.4462  -11.3961  -15.4173 C   0  0  0  0  0  0  0  0  0  0  0  0
   16.2647  -10.9291  -16.5397 C   0  0  0  0  0  0  0  0  0  0  0  0
   17.7180  -10.9625  -16.1871 C   0  0  0  0  0  0  0  0  0  0  0  0
   18.6019  -10.5093  -17.2740 C   0  0  1  0  0  0  0  0  0  0  0  0
   20.0546  -10.5316  -17.1351 N   0  0  0  0  0  0  0  0  0  0  0  0
   20.5315  -11.8762  -16.7656 C   0  0  0  0  0  0  0  0  0  0  0  0
   20.6965   -9.5921  -16.2303 O   0  0  0  0  0  0  0  0  0  0  0  0
   21.2144  -10.0700  -15.1280 N   0  0  0  0  0  0  0  0  0  0  0  0
   13.5527  -12.1621  -13.6711 C   0  0  0  0  0  0  0  0  0  0  0  0
   20.8187   -8.1992  -16.4244 C   0  0  0  0  0  0  0  0  0  0  0  0
   20.4287   -7.2806  -17.4491 C   0  0  0  0  0  0  0  0  0  0  0  0
   21.7413   -6.5382  -17.7155 C   0  0  1  0  0  0  0  0  0  0  0  0
   22.2632   -6.3522  -16.3144 C   0  0  0  0  0  0  0  0  0  0  0  0
   21.5235   -7.3254  -15.4483 O   0  0  0  0  0  0  0  0  0  0  0  0
   20.4622   -6.6815  -14.6428 O   0  0  0  0  0  0  0  0  0  0  0  0
  2  1  1  0
  3  2  2  0
  4  2  1  0
  5  4  1  0
  6  5  1  0
  7  6  1  0
  8  9  1  6
  8  7  1  0
 10 11  2  0
 10  8  1  0
 12 13  1  0
 13 15  1  0
 13 14  2  0
 15 16  1  0
 17 16  1  0
 17 18  1  0
 19 18  1  6
 19 21  1  0
 19 20  1  0
 20 10  1  0
 21 23  1  0
 22 21  2  0
 23 27  1  0
 24 23  1  0
 25 24  1  0
 25 26  1  0
 26 27  1  0
 27 28  1  1
 28 30  2  0
 28 29  1  0
M  END
$$$$
