RRP.pdb
     RDKit          3D

 30 30  0  0  1  0  0  0  0  0999 V2000
   21.3007  -25.3891  -16.5211 N   0  0  0  0  0  0  0  0  0  0  0  0
   20.1457  -24.5875  -16.6408 C   0  0  0  0  0  0  0  0  0  0  0  0
   19.0212  -25.0181  -17.0909 N   0  0  0  0  0  0  0  0  0  0  0  0
   20.2394  -23.2346  -16.2392 N   0  0  0  0  0  0  0  0  0  0  0  0
   21.3336  -22.8770  -15.3328 C   0  0  0  0  0  0  0  0  0  0  0  0
   20.7941  -22.5011  -13.9849 C   0  0  0  0  0  0  0  0  0  0  0  0
   21.2955  -21.1892  -13.5355 C   0  0  0  0  0  0  0  0  0  0  0  0
   21.8063  -21.0608  -12.1364 C   0  0  2  0  0  0  0  0  0  0  0  0
   20.9816  -20.3288  -11.2321 N   0  0  0  0  0  0  0  0  0  0  0  0
   23.1830  -20.4996  -12.2388 C   0  0  0  0  0  0  0  0  0  0  0  0
   23.2965  -19.2511  -12.3961 O   0  0  0  0  0  0  0  0  0  0  0  0
   18.1848  -24.3858  -17.1757 N   0  0  0  0  0  0  0  0  0  0  0  0
   30.9076  -23.0235   -8.9653 C   0  0  0  0  0  0  0  0  0  0  0  0
   31.3394  -22.1826  -10.0399 N   0  0  0  0  0  0  0  0  0  0  0  0
   32.5946  -22.0049  -10.1875 N   0  0  0  0  0  0  0  0  0  0  0  0
   30.3889  -21.5935  -10.8779 C   0  0  0  0  0  0  0  0  0  0  0  0
   28.9633  -21.8459  -10.6504 C   0  0  0  0  0  0  0  0  0  0  0  0
   28.1262  -21.0777  -11.6233 C   0  0  0  0  0  0  0  0  0  0  0  0
   26.6777  -21.2572  -11.4297 C   0  0  1  0  0  0  0  0  0  0  0  0
   25.7053  -20.6182  -12.3108 N   0  0  0  0  0  0  0  0  0  0  0  0
   24.3773  -21.2427  -12.1767 C   0  0  0  0  0  0  0  0  0  0  0  0
   25.9880  -20.5275  -13.7339 O   0  0  0  0  0  0  0  0  0  0  0  0
   25.3758  -21.3678  -14.5280 N   0  0  0  0  0  0  0  0  0  0  0  0
   33.0721  -21.4480  -10.9059 C   0  0  0  0  0  0  0  0  0  0  0  0
   26.8671  -19.6123  -14.3522 C   0  0  0  0  0  0  0  0  0  0  0  0
   27.8896  -18.7226  -13.8954 C   0  0  0  0  0  0  0  0  0  0  0  0
   27.4718  -17.4054  -14.5554 C   0  0  1  0  0  0  0  0  0  0  0  0
   27.0609  -17.8805  -15.9250 C   0  0  0  0  0  0  0  0  0  0  0  0
   26.8387  -19.3582  -15.8177 O   0  0  0  0  0  0  0  0  0  0  0  0
   27.9546  -20.1466  -16.3860 O   0  0  0  0  0  0  0  0  0  0  0  0
  2  1  1  0
  3  2  2  0
  4  2  1  0
  5  4  1  0
  6  5  1  0
  7  6  1  0
  8  9  1  1
  8  7  1  0
 10 11  2  0
 10  8  1  0
 12 13  1  0
 13 15  1  0
 13 14  2  0
 15 16  1  0
 17 16  1  0
 17 18  1  0
 19 18  1  1
 19 21  1  0
 19 20  1  0
 20 10  1  0
 21 23  1  0
 22 21  2  0
 23 27  1  0
 24 23  1  0
 25 24  1  0
 25 26  1  0
 26 27  1  0
 27 28  1  6
 28 30  2  0
 28 29  1  0
M  END
$$$$
