RRP.pdb
     RDKit          3D

 30 30  0  0  1  0  0  0  0  0999 V2000
   22.6884  -27.7053  -14.2740 N   0  0  0  0  0  0  0  0  0  0  0  0
   21.9606  -26.5287  -13.9969 C   0  0  0  0  0  0  0  0  0  0  0  0
   22.3831  -25.3463  -14.2725 N   0  0  0  0  0  0  0  0  0  0  0  0
   20.6946  -26.6676  -13.3819 N   0  0  0  0  0  0  0  0  0  0  0  0
   19.9431  -25.4404  -13.1066 C   0  0  0  0  0  0  0  0  0  0  0  0
   19.1441  -25.0359  -14.3097 C   0  0  0  0  0  0  0  0  0  0  0  0
   19.1737  -23.5778  -14.5277 C   0  0  0  0  0  0  0  0  0  0  0  0
   19.2803  -22.6797  -13.3373 C   0  0  2  0  0  0  0  0  0  0  0  0
   18.0498  -22.3075  -12.7200 N   0  0  0  0  0  0  0  0  0  0  0  0
   20.0849  -21.5014  -13.7675 C   0  0  0  0  0  0  0  0  0  0  0  0
   19.4608  -20.4947  -14.2073 O   0  0  0  0  0  0  0  0  0  0  0  0
   23.3820  -25.1708  -14.5517 N   0  0  0  0  0  0  0  0  0  0  0  0
   27.8841  -20.5300  -15.7850 C   0  0  0  0  0  0  0  0  0  0  0  0
   27.4938  -21.9033  -15.6852 N   0  0  0  0  0  0  0  0  0  0  0  0
   28.4137  -22.7869  -15.7298 N   0  0  0  0  0  0  0  0  0  0  0  0
   26.1415  -22.2264  -15.5450 C   0  0  0  0  0  0  0  0  0  0  0  0
   25.1588  -21.1616  -15.3255 C   0  0  0  0  0  0  0  0  0  0  0  0
   24.5205  -21.2974  -13.9795 C   0  0  0  0  0  0  0  0  0  0  0  0
   23.5862  -20.2069  -13.6541 C   0  0  1  0  0  0  0  0  0  0  0  0
   22.2158  -20.2014  -14.1561 N   0  0  0  0  0  0  0  0  0  0  0  0
   21.4894  -21.4102  -13.7283 C   0  0  0  0  0  0  0  0  0  0  0  0
   21.9822  -20.0507  -15.5830 O   0  0  0  0  0  0  0  0  0  0  0  0
   21.5385  -21.0929  -16.2376 N   0  0  0  0  0  0  0  0  0  0  0  0
   28.3109  -23.8071  -15.6750 C   0  0  0  0  0  0  0  0  0  0  0  0
   22.1885  -18.8785  -16.3419 C   0  0  0  0  0  0  0  0  0  0  0  0
   22.6454  -17.5536  -16.0564 C   0  0  0  0  0  0  0  0  0  0  0  0
   21.5382  -16.7020  -16.6841 C   0  0  1  0  0  0  0  0  0  0  0  0
   21.2878  -17.4469  -17.9696 C   0  0  0  0  0  0  0  0  0  0  0  0
   21.8752  -18.8140  -17.7948 O   0  0  0  0  0  0  0  0  0  0  0  0
   23.1693  -18.9736  -18.4945 O   0  0  0  0  0  0  0  0  0  0  0  0
  2  1  1  0
  3  2  2  0
  4  2  1  0
  5  4  1  0
  6  5  1  0
  7  6  1  0
  8  9  1  6
  8  7  1  0
 10 11  2  0
 10  8  1  0
 12 13  1  0
 13 15  1  0
 13 14  2  0
 15 16  1  0
 17 16  1  0
 17 18  1  0
 19 18  1  1
 19 21  1  0
 19 20  1  0
 20 10  1  0
 21 23  1  0
 22 21  2  0
 23 27  1  0
 24 23  1  0
 25 24  1  0
 25 26  1  0
 26 27  1  0
 27 28  1  6
 28 30  2  0
 28 29  1  0
M  END
$$$$
