RRP.pdb
     RDKit          3D

 30 30  0  0  1  0  0  0  0  0999 V2000
   18.3404  -22.1666  -13.2756 N   0  0  0  0  0  0  0  0  0  0  0  0
   19.4169  -23.0766  -13.3391 C   0  0  0  0  0  0  0  0  0  0  0  0
   19.4440  -24.0971  -14.1203 N   0  0  0  0  0  0  0  0  0  0  0  0
   20.5257  -22.8441  -12.4924 N   0  0  0  0  0  0  0  0  0  0  0  0
   20.4678  -21.6712  -11.6163 C   0  0  0  0  0  0  0  0  0  0  0  0
   21.1162  -20.4920  -12.2782 C   0  0  0  0  0  0  0  0  0  0  0  0
   22.0400  -19.7877  -11.3699 C   0  0  0  0  0  0  0  0  0  0  0  0
   23.0788  -20.5850  -10.6485 C   0  0  2  0  0  0  0  0  0  0  0  0
   23.1032  -20.4456   -9.2295 N   0  0  0  0  0  0  0  0  0  0  0  0
   24.3854  -20.2467  -11.2801 C   0  0  0  0  0  0  0  0  0  0  0  0
   24.9109  -19.1371  -10.9812 O   0  0  0  0  0  0  0  0  0  0  0  0
   20.2353  -24.7897  -14.0924 N   0  0  0  0  0  0  0  0  0  0  0  0
   32.6514  -22.1932  -10.2580 C   0  0  0  0  0  0  0  0  0  0  0  0
   31.2301  -22.3193  -10.3691 N   0  0  0  0  0  0  0  0  0  0  0  0
   30.6122  -22.9233   -9.4297 N   0  0  0  0  0  0  0  0  0  0  0  0
   30.5765  -21.7864  -11.4833 C   0  0  0  0  0  0  0  0  0  0  0  0
   29.3126  -21.0654  -11.3087 C   0  0  0  0  0  0  0  0  0  0  0  0
   28.1478  -21.9918  -11.4585 C   0  0  0  0  0  0  0  0  0  0  0  0
   27.3554  -21.7551  -12.6767 C   0  0  2  0  0  0  0  0  0  0  0  0
   26.3907  -20.6630  -12.7590 N   0  0  0  0  0  0  0  0  0  0  0  0
   25.0912  -21.0591  -12.1880 C   0  0  0  0  0  0  0  0  0  0  0  0
   26.1169  -20.0524  -14.0496 O   0  0  0  0  0  0  0  0  0  0  0  0
   25.0577  -20.4602  -14.7002 N   0  0  0  0  0  0  0  0  0  0  0  0
   29.6046  -23.1053   -9.3532 C   0  0  0  0  0  0  0  0  0  0  0  0
   26.8885  -19.0515  -14.6783 C   0  0  0  0  0  0  0  0  0  0  0  0
   28.1213  -18.3883  -14.3852 C   0  0  0  0  0  0  0  0  0  0  0  0
   27.7201  -16.9162  -14.5161 C   0  0  1  0  0  0  0  0  0  0  0  0
   26.8430  -16.9586  -15.7405 C   0  0  0  0  0  0  0  0  0  0  0  0
   26.4491  -18.3906  -15.9367 O   0  0  0  0  0  0  0  0  0  0  0  0
   27.2073  -19.0480  -17.0242 O   0  0  0  0  0  0  0  0  0  0  0  0
  2  1  1  0
  3  2  2  0
  4  2  1  0
  5  4  1  0
  6  5  1  0
  7  6  1  0
  8  9  1  1
  8  7  1  0
 10 11  2  0
 10  8  1  0
 12 13  1  0
 13 15  1  0
 13 14  2  0
 15 16  1  0
 17 16  1  0
 17 18  1  0
 19 18  1  1
 19 21  1  0
 19 20  1  0
 20 10  1  0
 21 23  1  0
 22 21  2  0
 23 27  1  0
 24 23  1  0
 25 24  1  0
 25 26  1  0
 26 27  1  0
 27 28  1  6
 28 30  2  0
 28 29  1  0
M  END
$$$$
