RRP.pdb
     RDKit          3D

 30 30  0  0  1  0  0  0  0  0999 V2000
   31.7374  -23.0627   -9.0262 N   0  0  0  0  0  0  0  0  0  0  0  0
   31.3894  -22.6940  -10.3430 C   0  0  0  0  0  0  0  0  0  0  0  0
   31.9476  -23.1831  -11.3926 N   0  0  0  0  0  0  0  0  0  0  0  0
   30.3661  -21.7317  -10.5080 N   0  0  0  0  0  0  0  0  0  0  0  0
   29.3699  -21.6202   -9.4394 C   0  0  0  0  0  0  0  0  0  0  0  0
   28.1366  -22.3976   -9.7914 C   0  0  0  0  0  0  0  0  0  0  0  0
   26.9120  -21.5910   -9.6352 C   0  0  0  0  0  0  0  0  0  0  0  0
   26.9918  -20.1176   -9.8753 C   0  0  2  0  0  0  0  0  0  0  0  0
   26.7201  -19.2832   -8.7511 N   0  0  0  0  0  0  0  0  0  0  0  0
   26.0982  -19.8288  -11.0323 C   0  0  0  0  0  0  0  0  0  0  0  0
   24.9554  -19.3500  -10.7849 O   0  0  0  0  0  0  0  0  0  0  0  0
   31.6084  -22.9416  -12.3586 N   0  0  0  0  0  0  0  0  0  0  0  0
   25.2219  -16.5550  -17.5806 C   0  0  0  0  0  0  0  0  0  0  0  0
   26.5937  -16.1577  -17.4871 N   0  0  0  0  0  0  0  0  0  0  0  0
   27.1655  -15.7423  -18.5499 N   0  0  0  0  0  0  0  0  0  0  0  0
   27.2510  -16.2364  -16.2565 C   0  0  0  0  0  0  0  0  0  0  0  0
   26.5345  -16.7377  -15.0805 C   0  0  0  0  0  0  0  0  0  0  0  0
   27.1702  -17.9898  -14.5653 C   0  0  0  0  0  0  0  0  0  0  0  0
   26.2958  -19.1721  -14.6393 C   0  0  2  0  0  0  0  0  0  0  0  0
   25.5269  -19.6257  -13.4847 N   0  0  0  0  0  0  0  0  0  0  0  0
   26.4161  -20.0450  -12.3868 C   0  0  0  0  0  0  0  0  0  0  0  0
   24.5417  -20.6807  -13.6570 O   0  0  0  0  0  0  0  0  0  0  0  0
   24.9122  -21.9058  -13.3858 N   0  0  0  0  0  0  0  0  0  0  0  0
   28.1575  -15.5135  -18.6836 C   0  0  0  0  0  0  0  0  0  0  0  0
   23.2094  -20.5136  -14.0925 C   0  0  0  0  0  0  0  0  0  0  0  0
   22.4008  -19.3979  -14.4760 C   0  0  0  0  0  0  0  0  0  0  0  0
   21.1559  -19.6047  -13.6085 C   0  0  1  0  0  0  0  0  0  0  0  0
   20.9664  -21.0956  -13.7173 C   0  0  0  0  0  0  0  0  0  0  0  0
   22.2664  -21.6589  -14.2043 O   0  0  0  0  0  0  0  0  0  0  0  0
   22.2326  -22.0155  -15.6400 O   0  0  0  0  0  0  0  0  0  0  0  0
  2  1  1  0
  3  2  2  0
  4  2  1  0
  5  4  1  0
  6  5  1  0
  7  6  1  0
  8  9  1  1
  8  7  1  0
 10 11  2  0
 10  8  1  0
 12 13  1  0
 13 15  1  0
 13 14  2  0
 15 16  1  0
 17 16  1  0
 17 18  1  0
 19 18  1  1
 19 21  1  0
 19 20  1  0
 20 10  1  0
 21 23  1  0
 22 21  2  0
 23 27  1  0
 24 23  1  0
 25 24  1  0
 25 26  1  0
 26 27  1  0
 27 28  1  6
 28 30  2  0
 28 29  1  0
M  END
$$$$
