RRP.pdb
     RDKit          3D

 30 30  0  0  1  0  0  0  0  0999 V2000
   16.3949  -13.2221  -17.9473 N   0  0  0  0  0  0  0  0  0  0  0  0
   16.9029  -13.8407  -16.7853 C   0  0  0  0  0  0  0  0  0  0  0  0
   16.7119  -13.3920  -15.5959 N   0  0  0  0  0  0  0  0  0  0  0  0
   17.6635  -15.0220  -16.9479 N   0  0  0  0  0  0  0  0  0  0  0  0
   19.1155  -14.8740  -17.0749 C   0  0  0  0  0  0  0  0  0  0  0  0
   19.6005  -15.5354  -18.3305 C   0  0  0  0  0  0  0  0  0  0  0  0
   20.8843  -16.2320  -18.1275 C   0  0  0  0  0  0  0  0  0  0  0  0
   20.9085  -17.4447  -17.2536 C   0  0  2  0  0  0  0  0  0  0  0  0
   19.7808  -17.6252  -16.3995 N   0  0  0  0  0  0  0  0  0  0  0  0
   22.1947  -17.3989  -16.5024 C   0  0  0  0  0  0  0  0  0  0  0  0
   22.6045  -16.2697  -16.1105 O   0  0  0  0  0  0  0  0  0  0  0  0
   17.1967  -13.8160  -14.7642 N   0  0  0  0  0  0  0  0  0  0  0  0
   25.1077  -20.9458   -9.6572 C   0  0  0  0  0  0  0  0  0  0  0  0
   25.8765  -20.9378  -10.8643 N   0  0  0  0  0  0  0  0  0  0  0  0
   27.0941  -21.3145  -10.7954 N   0  0  0  0  0  0  0  0  0  0  0  0
   25.2795  -20.5249  -12.0583 C   0  0  0  0  0  0  0  0  0  0  0  0
   23.8459  -20.2220  -12.0873 C   0  0  0  0  0  0  0  0  0  0  0  0
   23.4047  -19.8742  -13.4736 C   0  0  0  0  0  0  0  0  0  0  0  0
   23.9587  -18.6037  -13.9705 C   0  0  1  0  0  0  0  0  0  0  0  0
   24.2323  -18.3936  -15.3887 N   0  0  0  0  0  0  0  0  0  0  0  0
   23.0006  -18.5102  -16.1893 C   0  0  0  0  0  0  0  0  0  0  0  0
   25.2421  -19.2072  -16.0457 O   0  0  0  0  0  0  0  0  0  0  0  0
   24.8339  -20.0889  -16.9218 N   0  0  0  0  0  0  0  0  0  0  0  0
   27.8157  -21.2505  -11.5231 C   0  0  0  0  0  0  0  0  0  0  0  0
   26.6356  -19.1401  -15.8307 C   0  0  0  0  0  0  0  0  0  0  0  0
   27.4944  -18.3745  -14.9810 C   0  0  0  0  0  0  0  0  0  0  0  0
   28.5170  -17.8308  -15.9828 C   0  0  1  0  0  0  0  0  0  0  0  0
   28.7460  -19.0389  -16.8537 C   0  0  0  0  0  0  0  0  0  0  0  0
   27.5950  -19.9668  -16.6114 O   0  0  0  0  0  0  0  0  0  0  0  0
   27.9531  -21.1048  -15.7360 O   0  0  0  0  0  0  0  0  0  0  0  0
  2  1  1  0
  3  2  2  0
  4  2  1  0
  5  4  1  0
  6  5  1  0
  7  6  1  0
  8  9  1  1
  8  7  1  0
 10 11  2  0
 10  8  1  0
 12 13  1  0
 13 15  1  0
 13 14  2  0
 15 16  1  0
 17 16  1  0
 17 18  1  0
 19 18  1  1
 19 21  1  0
 19 20  1  0
 20 10  1  0
 21 23  1  0
 22 21  2  0
 23 27  1  0
 24 23  1  0
 25 24  1  0
 25 26  1  0
 26 27  1  0
 27 28  1  1
 28 30  2  0
 28 29  1  0
M  END
$$$$
