RRP.pdb
     RDKit          3D

 30 30  0  0  1  0  0  0  0  0999 V2000
   27.8162  -26.6395  -15.0887 N   0  0  0  0  0  0  0  0  0  0  0  0
   28.3106  -25.5405  -15.8227 C   0  0  0  0  0  0  0  0  0  0  0  0
   29.5534  -25.3701  -16.1032 N   0  0  0  0  0  0  0  0  0  0  0  0
   27.3781  -24.5768  -16.2725 N   0  0  0  0  0  0  0  0  0  0  0  0
   25.9900  -24.7267  -15.8285 C   0  0  0  0  0  0  0  0  0  0  0  0
   25.1488  -23.6017  -16.3539 C   0  0  0  0  0  0  0  0  0  0  0  0
   23.7306  -23.7504  -15.9784 C   0  0  0  0  0  0  0  0  0  0  0  0
   23.1924  -25.1265  -15.7511 C   0  0  2  0  0  0  0  0  0  0  0  0
   23.3447  -26.0459  -16.8305 N   0  0  0  0  0  0  0  0  0  0  0  0
   21.7709  -24.9612  -15.3355 C   0  0  0  0  0  0  0  0  0  0  0  0
   20.9207  -24.7198  -16.2385 O   0  0  0  0  0  0  0  0  0  0  0  0
   29.8674  -24.6291  -16.7807 N   0  0  0  0  0  0  0  0  0  0  0  0
   18.8443  -26.6927   -7.7175 C   0  0  0  0  0  0  0  0  0  0  0  0
   18.7252  -25.3085   -8.0611 N   0  0  0  0  0  0  0  0  0  0  0  0
   18.7042  -24.4596   -7.1082 N   0  0  0  0  0  0  0  0  0  0  0  0
   18.6371  -24.9378   -9.4056 C   0  0  0  0  0  0  0  0  0  0  0  0
   18.1243  -25.8938  -10.3909 C   0  0  0  0  0  0  0  0  0  0  0  0
   18.2183  -25.3324  -11.7742 C   0  0  0  0  0  0  0  0  0  0  0  0
   19.5858  -25.3271  -12.3199 C   0  0  2  0  0  0  0  0  0  0  0  0
   19.8613  -24.8854  -13.6834 N   0  0  0  0  0  0  0  0  0  0  0  0
   21.2876  -25.0494  -14.0160 C   0  0  0  0  0  0  0  0  0  0  0  0
   19.4860  -23.5392  -14.0837 O   0  0  0  0  0  0  0  0  0  0  0  0
   20.4003  -22.6067  -14.0053 N   0  0  0  0  0  0  0  0  0  0  0  0
   18.6107  -23.4393   -7.1750 C   0  0  0  0  0  0  0  0  0  0  0  0
   18.2189  -23.1326  -14.5544 C   0  0  0  0  0  0  0  0  0  0  0  0
   16.9914  -23.7982  -14.8645 C   0  0  0  0  0  0  0  0  0  0  0  0
   16.7002  -23.2710  -16.2724 C   0  0  1  0  0  0  0  0  0  0  0  0
   17.0714  -21.8182  -16.1247 C   0  0  0  0  0  0  0  0  0  0  0  0
   17.9214  -21.7154  -14.8953 O   0  0  0  0  0  0  0  0  0  0  0  0
   17.1844  -21.1670  -13.7353 O   0  0  0  0  0  0  0  0  0  0  0  0
  2  1  1  0
  3  2  2  0
  4  2  1  0
  5  4  1  0
  6  5  1  0
  7  6  1  0
  8  9  1  6
  8  7  1  0
 10 11  2  0
 10  8  1  0
 12 13  1  0
 13 15  1  0
 13 14  2  0
 15 16  1  0
 17 16  1  0
 17 18  1  0
 19 18  1  6
 19 21  1  0
 19 20  1  0
 20 10  1  0
 21 23  1  0
 22 21  2  0
 23 27  1  0
 24 23  1  0
 25 24  1  0
 25 26  1  0
 26 27  1  0
 27 28  1  1
 28 30  2  0
 28 29  1  0
M  END
$$$$
