SMP.pdb
     RDKit          3D

 22 22  0  0  1  0  0  0  0  0999 V2000
   28.3958  -17.9381  -17.0142 O   0  0  0  0  0  0  0  0  0  0  0  0
   27.7391  -19.1584  -17.1801 C   0  0  0  0  0  0  0  0  0  0  0  0
   28.5081  -20.1923  -16.4272 C   0  0  2  0  0  0  0  0  0  0  0  0
   29.2473  -21.0424  -17.3116 N   0  0  0  0  0  0  0  0  0  0  0  0
   27.6508  -20.9538  -15.4888 C   0  0  0  0  0  0  0  0  0  0  0  0
   27.0386  -21.9981  -15.8203 O   0  0  0  0  0  0  0  0  0  0  0  0
   24.7037  -21.0072   -8.1623 C   0  0  0  0  0  0  0  0  0  0  0  0
   26.0472  -20.4973   -9.2431 S   0  0  0  0  0  0  0  0  0  0  0  0
   25.6462  -20.9804  -10.9376 C   0  0  0  0  0  0  0  0  0  0  0  0
   26.7458  -20.5878  -11.8787 C   0  0  0  0  0  0  0  0  0  0  0  0
   26.4586  -21.0706  -13.2792 C   0  0  2  0  0  0  0  0  0  0  0  0
   27.4934  -20.5076  -14.1505 N   0  0  0  0  0  0  0  0  0  0  0  0
   25.1263  -20.5113  -13.6439 C   0  0  0  0  0  0  0  0  0  0  0  0
   25.0744  -19.2878  -13.9608 O   0  0  0  0  0  0  0  0  0  0  0  0
   23.9711  -21.3209  -13.6343 N   0  0  0  0  0  0  0  0  0  0  0  0
   23.8922  -22.6569  -13.1138 C   0  0  0  0  0  0  0  0  0  0  0  0
   23.0532  -23.3616  -14.1900 C   0  0  0  0  0  0  0  0  0  0  0  0
   22.2138  -22.2601  -14.7923 C   0  0  0  0  0  0  0  0  0  0  0  0
   22.6534  -20.9839  -14.1215 C   0  0  1  0  0  0  0  0  0  0  0  0
   21.7837  -20.6419  -12.9860 C   0  0  0  0  0  0  0  0  0  0  0  0
   20.5889  -19.9840  -13.1952 O   0  0  0  0  0  0  0  0  0  0  0  0
   22.1082  -20.9391  -11.8133 O   0  0  0  0  0  0  0  0  0  0  0  0
  1  2  1  0
  3  5  1  0
  3  2  1  0
  3  4  1  6
  5  6  2  0
  8  7  1  0
  8  9  1  0
  9 10  1  0
 11 10  1  1
 11 13  1  0
 12  5  1  0
 12 11  1  0
 13 15  1  0
 14 13  2  0
 15 16  1  0
 15 19  1  0
 17 16  1  0
 18 17  1  0
 18 19  1  0
 19 20  1  1
 20 21  1  0
 22 20  2  0
M  END
$$$$
