SMP.pdb
     RDKit          3D

 22 22  0  0  1  0  0  0  0  0999 V2000
   19.3622   -9.7629  -20.7514 O   0  0  0  0  0  0  0  0  0  0  0  0
   18.6383  -10.1942  -19.6388 C   0  0  0  0  0  0  0  0  0  0  0  0
   19.5996  -10.8351  -18.6940 C   0  0  2  0  0  0  0  0  0  0  0  0
   19.3486  -12.2391  -18.5640 N   0  0  0  0  0  0  0  0  0  0  0  0
   19.6451  -10.1407  -17.3860 C   0  0  0  0  0  0  0  0  0  0  0  0
   18.7118  -10.2029  -16.5491 O   0  0  0  0  0  0  0  0  0  0  0  0
   21.5854   -8.7568  -10.8450 C   0  0  0  0  0  0  0  0  0  0  0  0
   21.4614   -9.5477  -12.4551 S   0  0  0  0  0  0  0  0  0  0  0  0
   22.1961   -8.4590  -13.6963 C   0  0  0  0  0  0  0  0  0  0  0  0
   22.1023   -9.0686  -15.0633 C   0  0  0  0  0  0  0  0  0  0  0  0
   20.8378   -8.6362  -15.7639 C   0  0  2  0  0  0  0  0  0  0  0  0
   20.7790   -9.3621  -17.0353 N   0  0  0  0  0  0  0  0  0  0  0  0
   20.9854   -7.1752  -16.0180 C   0  0  0  0  0  0  0  0  0  0  0  0
   21.7077   -6.8233  -16.9951 O   0  0  0  0  0  0  0  0  0  0  0  0
   20.3413   -6.2261  -15.1969 N   0  0  0  0  0  0  0  0  0  0  0  0
   19.4921   -6.5286  -14.0790 C   0  0  0  0  0  0  0  0  0  0  0  0
   18.3477   -5.5236  -14.2759 C   0  0  0  0  0  0  0  0  0  0  0  0
   18.9828   -4.3729  -15.0198 C   0  0  0  0  0  0  0  0  0  0  0  0
   20.4060   -4.7861  -15.2946 C   0  0  1  0  0  0  0  0  0  0  0  0
   21.3273   -4.2666  -14.2729 C   0  0  0  0  0  0  0  0  0  0  0  0
   21.8500   -2.9945  -14.3862 O   0  0  0  0  0  0  0  0  0  0  0  0
   21.6542   -4.9642  -13.2852 O   0  0  0  0  0  0  0  0  0  0  0  0
  1  2  1  0
  3  5  1  0
  3  2  1  0
  3  4  1  1
  5  6  2  0
  8  7  1  0
  8  9  1  0
  9 10  1  0
 11 10  1  1
 11 13  1  0
 12  5  1  0
 12 11  1  0
 13 15  1  0
 14 13  2  0
 15 16  1  0
 15 19  1  0
 17 16  1  0
 18 17  1  0
 18 19  1  0
 19 20  1  1
 20 21  1  0
 22 20  2  0
M  END
$$$$
