SMP.pdb
     RDKit          3D

 22 22  0  0  1  0  0  0  0  0999 V2000
   24.3360  -22.1840  -11.4050 O   0  0  0  0  0  0  0  0  0  0  0  0
   24.8286  -21.6918  -10.1955 C   0  0  0  0  0  0  0  0  0  0  0  0
   25.3971  -20.3367  -10.4562 C   0  0  2  0  0  0  0  0  0  0  0  0
   25.5598  -20.0981  -11.8590 N   0  0  0  0  0  0  0  0  0  0  0  0
   26.6416  -20.0954   -9.6890 C   0  0  0  0  0  0  0  0  0  0  0  0
   27.7833  -20.3433  -10.1477 O   0  0  0  0  0  0  0  0  0  0  0  0
   27.5765  -18.8877   -2.9264 C   0  0  0  0  0  0  0  0  0  0  0  0
   28.1082  -17.5154   -3.9594 S   0  0  0  0  0  0  0  0  0  0  0  0
   28.6101  -18.1606   -5.5710 C   0  0  0  0  0  0  0  0  0  0  0  0
   27.4121  -18.4709   -6.4182 C   0  0  0  0  0  0  0  0  0  0  0  0
   27.7808  -19.3775   -7.5667 C   0  0  2  0  0  0  0  0  0  0  0  0
   26.5728  -19.5631   -8.3749 N   0  0  0  0  0  0  0  0  0  0  0  0
   28.1886  -20.6739   -6.9552 C   0  0  0  0  0  0  0  0  0  0  0  0
   27.2842  -21.5367   -6.7603 O   0  0  0  0  0  0  0  0  0  0  0  0
   29.5333  -20.9232   -6.6097 N   0  0  0  0  0  0  0  0  0  0  0  0
   30.6280  -20.0147   -6.8060 C   0  0  0  0  0  0  0  0  0  0  0  0
   31.7245  -20.9557   -7.3263 C   0  0  0  0  0  0  0  0  0  0  0  0
   31.3767  -22.3007   -6.7343 C   0  0  0  0  0  0  0  0  0  0  0  0
   30.0801  -22.1084   -5.9902 C   0  0  1  0  0  0  0  0  0  0  0  0
   30.3093  -21.8526   -4.5603 C   0  0  0  0  0  0  0  0  0  0  0  0
   30.4937  -22.9026   -3.6841 O   0  0  0  0  0  0  0  0  0  0  0  0
   30.3415  -20.6836   -4.1118 O   0  0  0  0  0  0  0  0  0  0  0  0
  1  2  1  0
  3  5  1  0
  3  2  1  0
  3  4  1  6
  5  6  2  0
  8  7  1  0
  8  9  1  0
  9 10  1  0
 11 10  1  1
 11 13  1  0
 12  5  1  0
 12 11  1  0
 13 15  1  0
 14 13  2  0
 15 16  1  0
 15 19  1  0
 17 16  1  0
 18 17  1  0
 18 19  1  0
 19 20  1  1
 20 21  1  0
 22 20  2  0
M  END
$$$$
