SMP.pdb
     RDKit          3D

 22 22  0  0  1  0  0  0  0  0999 V2000
   27.1203  -18.5835  -16.5855 O   0  0  0  0  0  0  0  0  0  0  0  0
   27.9501  -18.4249  -15.4745 C   0  0  0  0  0  0  0  0  0  0  0  0
   28.6018  -19.7402  -15.2048 C   0  0  2  0  0  0  0  0  0  0  0  0
   29.0627  -20.3539  -16.4139 N   0  0  0  0  0  0  0  0  0  0  0  0
   27.7379  -20.6382  -14.4032 C   0  0  0  0  0  0  0  0  0  0  0  0
   27.1907  -21.6619  -14.8809 O   0  0  0  0  0  0  0  0  0  0  0  0
   27.1318  -20.7512   -7.7589 C   0  0  0  0  0  0  0  0  0  0  0  0
   25.4488  -20.5215   -8.3483 S   0  0  0  0  0  0  0  0  0  0  0  0
   25.3496  -21.0885  -10.0613 C   0  0  0  0  0  0  0  0  0  0  0  0
   26.4610  -20.5047  -10.8817 C   0  0  0  0  0  0  0  0  0  0  0  0
   26.3877  -20.9820  -12.3113 C   0  0  2  0  0  0  0  0  0  0  0  0
   27.4978  -20.3548  -13.0332 N   0  0  0  0  0  0  0  0  0  0  0  0
   25.0879  -20.4865  -12.8460 C   0  0  0  0  0  0  0  0  0  0  0  0
   25.0210  -19.2680  -13.1794 O   0  0  0  0  0  0  0  0  0  0  0  0
   23.9786  -21.3485  -12.9734 N   0  0  0  0  0  0  0  0  0  0  0  0
   23.9039  -22.6926  -12.4735 C   0  0  0  0  0  0  0  0  0  0  0  0
   23.2271  -23.4229  -13.6427 C   0  0  0  0  0  0  0  0  0  0  0  0
   22.4108  -22.3546  -14.3303 C   0  0  0  0  0  0  0  0  0  0  0  0
   22.7105  -21.0672  -13.6060 C   0  0  1  0  0  0  0  0  0  0  0  0
   21.7021  -20.7785  -12.5753 C   0  0  0  0  0  0  0  0  0  0  0  0
   20.5016  -20.1907  -12.9184 O   0  0  0  0  0  0  0  0  0  0  0  0
   21.9113  -21.0587  -11.3726 O   0  0  0  0  0  0  0  0  0  0  0  0
  1  2  1  0
  3  5  1  0
  3  2  1  0
  3  4  1  6
  5  6  2  0
  8  7  1  0
  8  9  1  0
  9 10  1  0
 11 10  1  1
 11 13  1  0
 12  5  1  0
 12 11  1  0
 13 15  1  0
 14 13  2  0
 15 16  1  0
 15 19  1  0
 17 16  1  0
 18 17  1  0
 18 19  1  0
 19 20  1  1
 20 21  1  0
 22 20  2  0
M  END
$$$$
