SMP.pdb
     RDKit          3D

 22 22  0  0  1  0  0  0  0  0999 V2000
   27.3053  -19.6490  -16.9432 O   0  0  0  0  0  0  0  0  0  0  0  0
   28.3784  -19.5760  -16.0536 C   0  0  0  0  0  0  0  0  0  0  0  0
   28.6189  -20.9492  -15.5209 C   0  0  2  0  0  0  0  0  0  0  0  0
   28.9774  -21.8608  -16.5657 N   0  0  0  0  0  0  0  0  0  0  0  0
   27.4847  -21.4380  -14.7024 C   0  0  0  0  0  0  0  0  0  0  0  0
   26.7054  -22.3425  -15.0895 O   0  0  0  0  0  0  0  0  0  0  0  0
   27.0203  -20.2744   -8.3536 C   0  0  0  0  0  0  0  0  0  0  0  0
   25.2644  -20.2805   -8.7409 S   0  0  0  0  0  0  0  0  0  0  0  0
   25.0372  -20.9556  -10.4017 C   0  0  0  0  0  0  0  0  0  0  0  0
   26.2410  -20.6889  -11.2554 C   0  0  0  0  0  0  0  0  0  0  0  0
   26.0519  -21.2417  -12.6466 C   0  0  2  0  0  0  0  0  0  0  0  0
   27.2415  -20.8779  -13.4209 N   0  0  0  0  0  0  0  0  0  0  0  0
   24.8521  -20.5558  -13.2041 C   0  0  0  0  0  0  0  0  0  0  0  0
   25.0030  -19.3767  -13.6369 O   0  0  0  0  0  0  0  0  0  0  0  0
   23.5990  -21.2023  -13.2451 N   0  0  0  0  0  0  0  0  0  0  0  0
   23.2861  -22.4570  -12.6207 C   0  0  0  0  0  0  0  0  0  0  0  0
   22.4596  -23.1513  -13.7131 C   0  0  0  0  0  0  0  0  0  0  0  0
   21.8419  -22.0162  -14.4946 C   0  0  0  0  0  0  0  0  0  0  0  0
   22.3921  -20.7471  -13.8959 C   0  0  1  0  0  0  0  0  0  0  0  0
   21.4779  -20.1813  -12.8926 C   0  0  0  0  0  0  0  0  0  0  0  0
   20.3742  -19.4524  -13.2861 O   0  0  0  0  0  0  0  0  0  0  0  0
   21.6815  -20.3485  -11.6681 O   0  0  0  0  0  0  0  0  0  0  0  0
  1  2  1  0
  3  5  1  0
  3  2  1  0
  3  4  1  6
  5  6  2  0
  8  7  1  0
  8  9  1  0
  9 10  1  0
 11 10  1  1
 11 13  1  0
 12  5  1  0
 12 11  1  0
 13 15  1  0
 14 13  2  0
 15 16  1  0
 15 19  1  0
 17 16  1  0
 18 17  1  0
 18 19  1  0
 19 20  1  1
 20 21  1  0
 22 20  2  0
M  END
$$$$
