SMP.pdb
     RDKit          3D

 22 22  0  0  1  0  0  0  0  0999 V2000
   27.9883  -18.0286  -17.2557 O   0  0  0  0  0  0  0  0  0  0  0  0
   27.3563  -18.5352  -16.1191 C   0  0  0  0  0  0  0  0  0  0  0  0
   28.2501  -19.5751  -15.5299 C   0  0  2  0  0  0  0  0  0  0  0  0
   28.9910  -20.2642  -16.5435 N   0  0  0  0  0  0  0  0  0  0  0  0
   27.5175  -20.4986  -14.6323 C   0  0  0  0  0  0  0  0  0  0  0  0
   26.9552  -21.5433  -15.0419 O   0  0  0  0  0  0  0  0  0  0  0  0
   24.8968  -21.4070   -7.2695 C   0  0  0  0  0  0  0  0  0  0  0  0
   25.8880  -20.3864   -8.3691 S   0  0  0  0  0  0  0  0  0  0  0  0
   25.5526  -20.8748  -10.0763 C   0  0  0  0  0  0  0  0  0  0  0  0
   26.5945  -20.3235  -11.0035 C   0  0  0  0  0  0  0  0  0  0  0  0
   26.3662  -20.7968  -12.4180 C   0  0  2  0  0  0  0  0  0  0  0  0
   27.4283  -20.2165  -13.2439 N   0  0  0  0  0  0  0  0  0  0  0  0
   25.0435  -20.2468  -12.8291 C   0  0  0  0  0  0  0  0  0  0  0  0
   24.9847  -19.0133  -13.1033 O   0  0  0  0  0  0  0  0  0  0  0  0
   23.9047  -21.0755  -12.9077 N   0  0  0  0  0  0  0  0  0  0  0  0
   23.8129  -22.4182  -12.4066 C   0  0  0  0  0  0  0  0  0  0  0  0
   23.0632  -23.1253  -13.5453 C   0  0  0  0  0  0  0  0  0  0  0  0
   22.2488  -22.0316  -14.1942 C   0  0  0  0  0  0  0  0  0  0  0  0
   22.6184  -20.7554  -13.4825 C   0  0  1  0  0  0  0  0  0  0  0  0
   21.6661  -20.4400  -12.4072 C   0  0  0  0  0  0  0  0  0  0  0  0
   20.5117  -19.7354  -12.6816 O   0  0  0  0  0  0  0  0  0  0  0  0
   21.8824  -20.8022  -11.2279 O   0  0  0  0  0  0  0  0  0  0  0  0
  1  2  1  0
  3  5  1  0
  3  2  1  0
  3  4  1  6
  5  6  2  0
  8  7  1  0
  8  9  1  0
  9 10  1  0
 11 10  1  1
 11 13  1  0
 12  5  1  0
 12 11  1  0
 13 15  1  0
 14 13  2  0
 15 16  1  0
 15 19  1  0
 17 16  1  0
 18 17  1  0
 18 19  1  0
 19 20  1  1
 20 21  1  0
 22 20  2  0
M  END
$$$$
