SMP.pdb
     RDKit          3D

 22 22  0  0  1  0  0  0  0  0999 V2000
   14.0023  -21.4101    4.2179 O   0  0  0  0  0  0  0  0  0  0  0  0
   14.9776  -21.7178    3.2681 C   0  0  0  0  0  0  0  0  0  0  0  0
   15.2217  -20.4897    2.4558 C   0  0  2  0  0  0  0  0  0  0  0  0
   15.2726  -20.7892    1.0562 N   0  0  0  0  0  0  0  0  0  0  0  0
   16.4108  -19.7385    2.9215 C   0  0  0  0  0  0  0  0  0  0  0  0
   17.5763  -20.0019    2.5372 O   0  0  0  0  0  0  0  0  0  0  0  0
   19.2632  -12.8573    4.8616 C   0  0  0  0  0  0  0  0  0  0  0  0
   17.7993  -13.8357    4.4970 S   0  0  0  0  0  0  0  0  0  0  0  0
   18.2198  -15.5874    4.6396 C   0  0  0  0  0  0  0  0  0  0  0  0
   17.0704  -16.4488    4.2085 C   0  0  0  0  0  0  0  0  0  0  0  0
   17.4164  -17.9129    4.3262 C   0  0  2  0  0  0  0  0  0  0  0  0
   16.2586  -18.6701    3.8437 N   0  0  0  0  0  0  0  0  0  0  0  0
   17.6253  -18.1724    5.7788 C   0  0  0  0  0  0  0  0  0  0  0  0
   16.6032  -18.4324    6.4775 O   0  0  0  0  0  0  0  0  0  0  0  0
   18.9158  -18.1287    6.3465 N   0  0  0  0  0  0  0  0  0  0  0  0
   20.1137  -17.7223    5.6668 C   0  0  0  0  0  0  0  0  0  0  0  0
   21.1205  -18.7752    6.1528 C   0  0  0  0  0  0  0  0  0  0  0  0
   20.5964  -19.1998    7.5040 C   0  0  0  0  0  0  0  0  0  0  0  0
   19.2964  -18.4626    7.6997 C   0  0  1  0  0  0  0  0  0  0  0  0
   19.4860  -17.2271    8.4744 C   0  0  0  0  0  0  0  0  0  0  0  0
   19.4922  -17.2622    9.8539 O   0  0  0  0  0  0  0  0  0  0  0  0
   19.6446  -16.1249    7.9012 O   0  0  0  0  0  0  0  0  0  0  0  0
  1  2  1  0
  3  5  1  0
  3  2  1  0
  3  4  1  6
  5  6  2  0
  8  7  1  0
  8  9  1  0
  9 10  1  0
 11 10  1  1
 11 13  1  0
 12  5  1  0
 12 11  1  0
 13 15  1  0
 14 13  2  0
 15 16  1  0
 15 19  1  0
 17 16  1  0
 18 17  1  0
 18 19  1  0
 19 20  1  1
 20 21  1  0
 22 20  2  0
M  END
$$$$
