SMP.pdb
     RDKit          3D

 22 22  0  0  1  0  0  0  0  0999 V2000
   30.5403  -10.2593  -17.3833 O   0  0  0  0  0  0  0  0  0  0  0  0
   29.1685  -10.1079  -17.5910 C   0  0  0  0  0  0  0  0  0  0  0  0
   28.5704  -11.4727  -17.6764 C   0  0  2  0  0  0  0  0  0  0  0  0
   29.1244  -12.2200  -18.7653 N   0  0  0  0  0  0  0  0  0  0  0  0
   27.0896  -11.4332  -17.7073 C   0  0  0  0  0  0  0  0  0  0  0  0
   26.4331  -11.3284  -18.7719 O   0  0  0  0  0  0  0  0  0  0  0  0
   23.8080  -16.4759  -15.0147 C   0  0  0  0  0  0  0  0  0  0  0  0
   23.7147  -14.7601  -14.4853 S   0  0  0  0  0  0  0  0  0  0  0  0
   24.3768  -13.7092  -15.7978 C   0  0  0  0  0  0  0  0  0  0  0  0
   24.3755  -12.2689  -15.3799 C   0  0  0  0  0  0  0  0  0  0  0  0
   24.8931  -11.3831  -16.4865 C   0  0  2  0  0  0  0  0  0  0  0  0
   26.3524  -11.5136  -16.4968 N   0  0  0  0  0  0  0  0  0  0  0  0
   24.5088   -9.9918  -16.1157 C   0  0  0  0  0  0  0  0  0  0  0  0
   25.3620   -9.2983  -15.4901 O   0  0  0  0  0  0  0  0  0  0  0  0
   23.2407   -9.4739  -16.4528 N   0  0  0  0  0  0  0  0  0  0  0  0
   22.1808  -10.2072  -17.0861 C   0  0  0  0  0  0  0  0  0  0  0  0
   21.6641   -9.1862  -18.1103 C   0  0  0  0  0  0  0  0  0  0  0  0
   21.9934   -7.8441  -17.5012 C   0  0  0  0  0  0  0  0  0  0  0  0
   22.7462   -8.1351  -16.2283 C   0  0  1  0  0  0  0  0  0  0  0  0
   21.8543   -8.1319  -15.0591 C   0  0  0  0  0  0  0  0  0  0  0  0
   21.5132   -6.9443  -14.4445 O   0  0  0  0  0  0  0  0  0  0  0  0
   21.3891   -9.2005  -14.6004 O   0  0  0  0  0  0  0  0  0  0  0  0
  1  2  1  0
  3  5  1  0
  3  2  1  0
  3  4  1  6
  5  6  2  0
  8  7  1  0
  8  9  1  0
  9 10  1  0
 11 10  1  1
 11 13  1  0
 12  5  1  0
 12 11  1  0
 13 15  1  0
 14 13  2  0
 15 16  1  0
 15 19  1  0
 17 16  1  0
 18 17  1  0
 18 19  1  0
 19 20  1  1
 20 21  1  0
 22 20  2  0
M  END
$$$$
