SMP.pdb
     RDKit          3D

 22 22  0  0  1  0  0  0  0  0999 V2000
   15.5217  -11.9223  -13.8531 O   0  0  0  0  0  0  0  0  0  0  0  0
   16.6638  -11.1370  -14.0172 C   0  0  0  0  0  0  0  0  0  0  0  0
   16.9206  -11.0123  -15.4821 C   0  0  2  0  0  0  0  0  0  0  0  0
   17.2701  -12.2744  -16.0618 N   0  0  0  0  0  0  0  0  0  0  0  0
   17.9087   -9.9514  -15.7882 C   0  0  0  0  0  0  0  0  0  0  0  0
   19.1327  -10.1839  -15.9395 O   0  0  0  0  0  0  0  0  0  0  0  0
   18.6022   -2.4825  -18.2003 C   0  0  0  0  0  0  0  0  0  0  0  0
   17.4946   -3.7950  -17.6679 S   0  0  0  0  0  0  0  0  0  0  0  0
   18.4835   -5.2108  -17.1356 C   0  0  0  0  0  0  0  0  0  0  0  0
   17.6024   -6.3529  -16.7253 C   0  0  0  0  0  0  0  0  0  0  0  0
   18.4237   -7.5450  -16.2994 C   0  0  2  0  0  0  0  0  0  0  0  0
   17.4840   -8.6034  -15.9205 N   0  0  0  0  0  0  0  0  0  0  0  0
   19.2029   -7.1052  -15.1076 C   0  0  0  0  0  0  0  0  0  0  0  0
   18.5956   -7.0581  -13.9989 O   0  0  0  0  0  0  0  0  0  0  0  0
   20.5653   -6.7567  -15.2183 N   0  0  0  0  0  0  0  0  0  0  0  0
   21.2865   -6.5872  -16.4485 C   0  0  0  0  0  0  0  0  0  0  0  0
   22.6145   -7.2899  -16.1306 C   0  0  0  0  0  0  0  0  0  0  0  0
   22.7568   -7.1631  -14.6325 C   0  0  0  0  0  0  0  0  0  0  0  0
   21.4980   -6.4910  -14.1474 C   0  0  1  0  0  0  0  0  0  0  0  0
   21.6801   -5.0386  -14.0053 C   0  0  0  0  0  0  0  0  0  0  0  0
   22.3094   -4.5196  -12.8923 O   0  0  0  0  0  0  0  0  0  0  0  0
   21.2702   -4.2484  -14.8864 O   0  0  0  0  0  0  0  0  0  0  0  0
  1  2  1  0
  3  5  1  0
  3  2  1  0
  3  4  1  1
  5  6  2  0
  8  7  1  0
  8  9  1  0
  9 10  1  0
 11 10  1  1
 11 13  1  0
 12  5  1  0
 12 11  1  0
 13 15  1  0
 14 13  2  0
 15 16  1  0
 15 19  1  0
 17 16  1  0
 18 17  1  0
 18 19  1  0
 19 20  1  6
 20 21  1  0
 22 20  2  0
M  END
$$$$
