SMP.pdb
     RDKit          3D

 22 22  0  0  1  0  0  0  0  0999 V2000
   21.4458  -21.9067  -15.7432 O   0  0  0  0  0  0  0  0  0  0  0  0
   21.0369  -22.2053  -14.4426 C   0  0  0  0  0  0  0  0  0  0  0  0
   21.0775  -20.9392  -13.6534 C   0  0  2  0  0  0  0  0  0  0  0  0
   20.0508  -20.0308  -14.0678 N   0  0  0  0  0  0  0  0  0  0  0  0
   22.4233  -20.3195  -13.6595 C   0  0  0  0  0  0  0  0  0  0  0  0
   22.6842  -19.2639  -14.2865 O   0  0  0  0  0  0  0  0  0  0  0  0
   25.9168  -20.5305   -7.6845 C   0  0  0  0  0  0  0  0  0  0  0  0
   26.2338  -21.3474   -9.2546 S   0  0  0  0  0  0  0  0  0  0  0  0
   25.3297  -20.4783  -10.5557 C   0  0  0  0  0  0  0  0  0  0  0  0
   25.6387  -21.0627  -11.9018 C   0  0  0  0  0  0  0  0  0  0  0  0
   24.8441  -20.3767  -12.9858 C   0  0  2  0  0  0  0  0  0  0  0  0
   23.4853  -20.9226  -12.9361 N   0  0  0  0  0  0  0  0  0  0  0  0
   25.4955  -20.7485  -14.2736 C   0  0  0  0  0  0  0  0  0  0  0  0
   24.9822  -21.6976  -14.9339 O   0  0  0  0  0  0  0  0  0  0  0  0
   26.6401  -20.0640  -14.7332 N   0  0  0  0  0  0  0  0  0  0  0  0
   27.4708  -19.2007  -13.9413 C   0  0  0  0  0  0  0  0  0  0  0  0
   27.7210  -18.0351  -14.9094 C   0  0  0  0  0  0  0  0  0  0  0  0
   27.6040  -18.6551  -16.2814 C   0  0  0  0  0  0  0  0  0  0  0  0
   27.2129  -20.0936  -16.0592 C   0  0  1  0  0  0  0  0  0  0  0  0
   28.3857  -20.9808  -16.0665 C   0  0  0  0  0  0  0  0  0  0  0  0
   29.0566  -21.2412  -17.2440 O   0  0  0  0  0  0  0  0  0  0  0  0
   28.7968  -21.5145  -15.0106 O   0  0  0  0  0  0  0  0  0  0  0  0
  1  2  1  0
  3  5  1  0
  3  2  1  0
  3  4  1  6
  5  6  2  0
  8  7  1  0
  8  9  1  0
  9 10  1  0
 11 10  1  1
 11 13  1  0
 12  5  1  0
 12 11  1  0
 13 15  1  0
 14 13  2  0
 15 16  1  0
 15 19  1  0
 17 16  1  0
 18 17  1  0
 18 19  1  0
 19 20  1  1
 20 21  1  0
 22 20  2  0
M  END
$$$$
