SMP.pdb
     RDKit          3D

 22 22  0  0  1  0  0  0  0  0999 V2000
   20.6170  -13.2524  -19.5944 O   0  0  0  0  0  0  0  0  0  0  0  0
   21.0256  -12.5303  -18.4721 C   0  0  0  0  0  0  0  0  0  0  0  0
   21.0572  -11.0867  -18.8496 C   0  0  2  0  0  0  0  0  0  0  0  0
   22.0184  -10.8362  -19.8813 N   0  0  0  0  0  0  0  0  0  0  0  0
   21.2410  -10.2050  -17.6731 C   0  0  0  0  0  0  0  0  0  0  0  0
   20.5184  -10.2758  -16.6494 O   0  0  0  0  0  0  0  0  0  0  0  0
   26.5964  -11.1865  -14.6329 C   0  0  0  0  0  0  0  0  0  0  0  0
   26.1165   -9.5686  -15.2535 S   0  0  0  0  0  0  0  0  0  0  0  0
   24.3452   -9.5845  -15.6110 C   0  0  0  0  0  0  0  0  0  0  0  0
   23.9103   -8.2807  -16.2113 C   0  0  0  0  0  0  0  0  0  0  0  0
   22.4398   -8.3033  -16.5488 C   0  0  2  0  0  0  0  0  0  0  0  0
   22.2694   -9.2264  -17.6739 N   0  0  0  0  0  0  0  0  0  0  0  0
   22.0914   -6.9170  -16.9704 C   0  0  0  0  0  0  0  0  0  0  0  0
   22.3509   -6.5880  -18.1640 O   0  0  0  0  0  0  0  0  0  0  0  0
   21.4951   -6.0114  -16.0682 N   0  0  0  0  0  0  0  0  0  0  0  0
   21.2718   -6.2508  -14.6700 C   0  0  0  0  0  0  0  0  0  0  0  0
   19.8572   -5.6843  -14.4787 C   0  0  0  0  0  0  0  0  0  0  0  0
   19.7300   -4.6244  -15.5468 C   0  0  0  0  0  0  0  0  0  0  0  0
   21.0058   -4.6809  -16.3474 C   0  0  1  0  0  0  0  0  0  0  0  0
   21.9848   -3.6899  -15.8764 C   0  0  0  0  0  0  0  0  0  0  0  0
   21.8931   -2.3728  -16.2775 O   0  0  0  0  0  0  0  0  0  0  0  0
   22.9160   -4.0195  -15.1063 O   0  0  0  0  0  0  0  0  0  0  0  0
  1  2  1  0
  3  5  1  0
  3  2  1  0
  3  4  1  6
  5  6  2  0
  8  7  1  0
  8  9  1  0
  9 10  1  0
 11 10  1  6
 11 13  1  0
 12  5  1  0
 12 11  1  0
 13 15  1  0
 14 13  2  0
 15 16  1  0
 15 19  1  0
 17 16  1  0
 18 17  1  0
 18 19  1  0
 19 20  1  1
 20 21  1  0
 22 20  2  0
M  END
$$$$
