SMP.pdb
     RDKit          3D

 22 22  0  0  1  0  0  0  0  0999 V2000
   23.9187  -21.9433  -11.1405 O   0  0  0  0  0  0  0  0  0  0  0  0
   24.1703  -21.0928  -10.0628 C   0  0  0  0  0  0  0  0  0  0  0  0
   24.8099  -19.8566  -10.6016 C   0  0  2  0  0  0  0  0  0  0  0  0
   24.7392  -19.8110  -12.0313 N   0  0  0  0  0  0  0  0  0  0  0  0
   26.1895  -19.6737  -10.0931 C   0  0  0  0  0  0  0  0  0  0  0  0
   27.1992  -19.7016  -10.8380 O   0  0  0  0  0  0  0  0  0  0  0  0
   27.4341  -19.6683   -3.5331 C   0  0  0  0  0  0  0  0  0  0  0  0
   28.8295  -18.7902   -4.2506 S   0  0  0  0  0  0  0  0  0  0  0  0
   28.9737  -19.2507   -5.9921 C   0  0  0  0  0  0  0  0  0  0  0  0
   27.6317  -19.2336   -6.6613 C   0  0  0  0  0  0  0  0  0  0  0  0
   27.7540  -19.5615   -8.1292 C   0  0  2  0  0  0  0  0  0  0  0  0
   26.4120  -19.4573   -8.7079 N   0  0  0  0  0  0  0  0  0  0  0  0
   28.2306  -20.9718   -8.1991 C   0  0  0  0  0  0  0  0  0  0  0  0
   27.3548  -21.8845   -8.1869 O   0  0  0  0  0  0  0  0  0  0  0  0
   29.6070  -21.2707   -8.2761 N   0  0  0  0  0  0  0  0  0  0  0  0
   30.6763  -20.3213   -8.1437 C   0  0  0  0  0  0  0  0  0  0  0  0
   31.6281  -20.7656   -9.2640 C   0  0  0  0  0  0  0  0  0  0  0  0
   31.3510  -22.2409   -9.4287 C   0  0  0  0  0  0  0  0  0  0  0  0
   30.2191  -22.5624   -8.4867 C   0  0  1  0  0  0  0  0  0  0  0  0
   30.7139  -23.0850   -7.2043 C   0  0  0  0  0  0  0  0  0  0  0  0
   30.6346  -22.3174   -6.0603 O   0  0  0  0  0  0  0  0  0  0  0  0
   31.2143  -24.2305   -7.1251 O   0  0  0  0  0  0  0  0  0  0  0  0
  1  2  1  0
  3  5  1  0
  3  2  1  0
  3  4  1  6
  5  6  2  0
  8  7  1  0
  8  9  1  0
  9 10  1  0
 11 10  1  1
 11 13  1  0
 12  5  1  0
 12 11  1  0
 13 15  1  0
 14 13  2  0
 15 16  1  0
 15 19  1  0
 17 16  1  0
 18 17  1  0
 18 19  1  0
 19 20  1  1
 20 21  1  0
 22 20  2  0
M  END
$$$$
