SMP.pdb
     RDKit          3D

 22 22  0  0  1  0  0  0  0  0999 V2000
   27.1797  -18.0313  -16.5839 O   0  0  0  0  0  0  0  0  0  0  0  0
   27.9185  -18.1502  -15.4058 C   0  0  0  0  0  0  0  0  0  0  0  0
   28.5010  -19.5239  -15.3735 C   0  0  2  0  0  0  0  0  0  0  0  0
   28.8556  -19.9732  -16.6863 N   0  0  0  0  0  0  0  0  0  0  0  0
   27.6284  -20.4846  -14.6587 C   0  0  0  0  0  0  0  0  0  0  0  0
   27.0801  -21.4600  -15.2272 O   0  0  0  0  0  0  0  0  0  0  0  0
   26.0998  -19.3657   -8.3736 C   0  0  0  0  0  0  0  0  0  0  0  0
   25.3835  -20.9979   -8.6097 S   0  0  0  0  0  0  0  0  0  0  0  0
   25.2236  -21.3125  -10.3820 C   0  0  0  0  0  0  0  0  0  0  0  0
   26.3467  -20.6712  -11.1412 C   0  0  0  0  0  0  0  0  0  0  0  0
   26.2929  -21.0406  -12.6032 C   0  0  2  0  0  0  0  0  0  0  0  0
   27.3808  -20.3208  -13.2705 N   0  0  0  0  0  0  0  0  0  0  0  0
   24.9769  -20.5527  -13.1044 C   0  0  0  0  0  0  0  0  0  0  0  0
   24.8844  -19.3267  -13.4019 O   0  0  0  0  0  0  0  0  0  0  0  0
   23.8805  -21.4299  -13.2398 N   0  0  0  0  0  0  0  0  0  0  0  0
   23.8303  -22.7835  -12.7630 C   0  0  0  0  0  0  0  0  0  0  0  0
   23.1574  -23.5040  -13.9406 C   0  0  0  0  0  0  0  0  0  0  0  0
   22.3198  -22.4368  -14.6041 C   0  0  0  0  0  0  0  0  0  0  0  0
   22.6040  -21.1576  -13.8593 C   0  0  1  0  0  0  0  0  0  0  0  0
   21.5980  -20.9030  -12.8173 C   0  0  0  0  0  0  0  0  0  0  0  0
   20.3766  -20.3513  -13.1461 O   0  0  0  0  0  0  0  0  0  0  0  0
   21.8283  -21.1801  -11.6177 O   0  0  0  0  0  0  0  0  0  0  0  0
  1  2  1  0
  3  5  1  0
  3  2  1  0
  3  4  1  6
  5  6  2  0
  8  7  1  0
  8  9  1  0
  9 10  1  0
 11 10  1  1
 11 13  1  0
 12  5  1  0
 12 11  1  0
 13 15  1  0
 14 13  2  0
 15 16  1  0
 15 19  1  0
 17 16  1  0
 18 17  1  0
 18 19  1  0
 19 20  1  1
 20 21  1  0
 22 20  2  0
M  END
$$$$
