SMP.pdb
     RDKit          3D

 22 22  0  0  1  0  0  0  0  0999 V2000
   21.3141  -22.5594  -12.8327 O   0  0  0  0  0  0  0  0  0  0  0  0
   21.8826  -22.4393  -11.5637 C   0  0  0  0  0  0  0  0  0  0  0  0
   21.6397  -21.0454  -11.0890 C   0  0  2  0  0  0  0  0  0  0  0  0
   20.5841  -20.4177  -11.8259 N   0  0  0  0  0  0  0  0  0  0  0  0
   22.8810  -20.2366  -11.0707 C   0  0  0  0  0  0  0  0  0  0  0  0
   23.1447  -19.3739  -11.9434 O   0  0  0  0  0  0  0  0  0  0  0  0
   27.5213  -20.8818   -6.2767 C   0  0  0  0  0  0  0  0  0  0  0  0
   27.8913  -19.3399   -7.1243 S   0  0  0  0  0  0  0  0  0  0  0  0
   27.2172  -19.4201   -8.7990 C   0  0  0  0  0  0  0  0  0  0  0  0
   25.8309  -19.9920   -8.7893 C   0  0  0  0  0  0  0  0  0  0  0  0
   25.1982  -19.9024  -10.1563 C   0  0  2  0  0  0  0  0  0  0  0  0
   23.8341  -20.4233  -10.0354 N   0  0  0  0  0  0  0  0  0  0  0  0
   26.0046  -20.7877  -11.0435 C   0  0  0  0  0  0  0  0  0  0  0  0
   25.8741  -22.0371  -10.8948 O   0  0  0  0  0  0  0  0  0  0  0  0
   26.8777  -20.2467  -12.0103 N   0  0  0  0  0  0  0  0  0  0  0  0
   27.5441  -18.9780  -11.9168 C   0  0  0  0  0  0  0  0  0  0  0  0
   27.3786  -18.4332  -13.3431 C   0  0  0  0  0  0  0  0  0  0  0  0
   27.2706  -19.6678  -14.2061 C   0  0  0  0  0  0  0  0  0  0  0  0
   27.2869  -20.8421  -13.2615 C   0  0  1  0  0  0  0  0  0  0  0  0
   28.6388  -21.4030  -13.1182 C   0  0  0  0  0  0  0  0  0  0  0  0
   29.3521  -21.2159  -11.9519 O   0  0  0  0  0  0  0  0  0  0  0  0
   29.1666  -22.0577  -14.0464 O   0  0  0  0  0  0  0  0  0  0  0  0
  1  2  1  0
  3  5  1  0
  3  2  1  0
  3  4  1  6
  5  6  2  0
  8  7  1  0
  8  9  1  0
  9 10  1  0
 11 10  1  1
 11 13  1  0
 12  5  1  0
 12 11  1  0
 13 15  1  0
 14 13  2  0
 15 16  1  0
 15 19  1  0
 17 16  1  0
 18 17  1  0
 18 19  1  0
 19 20  1  1
 20 21  1  0
 22 20  2  0
M  END
$$$$
