EDD.pdb
     RDKit          3D

 26 25  0  0  1  0  0  0  0  0999 V2000
   15.8898  -12.9129   16.8633 N   0  0  0  0  0  0  0  0  0  0  0  0
   14.8318  -13.9106   16.7441 C   0  0  1  0  0  0  0  0  0  0  0  0
   15.3334  -15.1967   16.1704 C   0  0  0  0  0  0  0  0  0  0  0  0
   16.5279  -15.7785   16.8410 C   0  0  0  0  0  0  0  0  0  0  0  0
   17.0054  -17.0525   16.3237 C   0  0  0  0  0  0  0  0  0  0  0  0
   18.1833  -17.1971   15.9300 O   0  0  0  0  0  0  0  0  0  0  0  0
   14.2148  -14.1321   18.1011 C   0  0  0  0  0  0  0  0  0  0  0  0
   14.7651  -13.6390   19.1184 O   0  0  0  0  0  0  0  0  0  0  0  0
   16.1521  -18.1404   16.2582 O   0  0  0  0  0  0  0  0  0  0  0  0
   13.0206  -14.8904   18.2436 N   0  0  0  0  0  0  0  0  0  0  0  0
   12.4415  -15.0302   19.5354 C   0  0  1  0  0  0  0  0  0  0  0  0
   11.0871  -15.6737   19.5376 C   0  0  0  0  0  0  0  0  0  0  0  0
   10.4452  -15.7176   20.8465 C   0  0  0  0  0  0  0  0  0  0  0  0
   11.0944  -15.3988   21.8692 O   0  0  0  0  0  0  0  0  0  0  0  0
   13.3330  -15.8682   20.4140 C   0  0  0  0  0  0  0  0  0  0  0  0
   13.9456  -16.8451   19.9336 O   0  0  0  0  0  0  0  0  0  0  0  0
    9.1266  -16.1040   21.0012 O   0  0  0  0  0  0  0  0  0  0  0  0
   13.4662  -15.5385   21.7757 N   0  0  0  0  0  0  0  0  0  0  0  0
   14.4450  -16.1850   22.6535 C   0  0  1  0  0  0  0  0  0  0  0  0
   15.6801  -15.3407   22.6453 C   0  0  0  0  0  0  0  0  0  0  0  0
   16.9379  -16.0619   22.8588 C   0  0  0  0  0  0  0  0  0  0  0  0
   17.0814  -17.2791   23.0902 O   0  0  0  0  0  0  0  0  0  0  0  0
   13.8024  -16.3223   23.9789 C   0  0  0  0  0  0  0  0  0  0  0  0
   14.0494  -17.3789   24.8430 O   0  0  0  0  0  0  0  0  0  0  0  0
   18.1109  -15.3105   22.7981 O   0  0  0  0  0  0  0  0  0  0  0  0
   12.9641  -15.4596   24.4171 O   0  0  0  0  0  0  0  0  0  0  0  0
  2  1  1  1
  2  7  1  0
  3  4  1  0
  3  2  1  0
  4  5  1  0
  5  6  2  0
  7 10  1  0
  7  8  2  0
  9  5  1  0
 10 11  1  0
 11 12  1  6
 12 13  1  0
 13 17  1  0
 14 13  2  0
 15 11  1  0
 15 16  2  0
 18 15  1  0
 19 18  1  0
 19 20  1  1
 21 20  1  0
 22 21  2  0
 23 19  1  0
 24 23  1  0
 25 21  1  0
 26 23  2  0
M  END
$$$$
