EDD.pdb
     RDKit          3D

 26 25  0  0  1  0  0  0  0  0999 V2000
   10.9490  -19.9785   19.0762 N   0  0  0  0  0  0  0  0  0  0  0  0
   11.7835  -18.8080   18.8257 C   0  0  1  0  0  0  0  0  0  0  0  0
   11.3589  -18.0665   17.5991 C   0  0  0  0  0  0  0  0  0  0  0  0
    9.9851  -18.3640   17.1100 C   0  0  0  0  0  0  0  0  0  0  0  0
    9.5537  -17.6519   15.9160 C   0  0  0  0  0  0  0  0  0  0  0  0
    8.5383  -16.9223   15.9220 O   0  0  0  0  0  0  0  0  0  0  0  0
   11.7428  -17.9116   20.0365 C   0  0  0  0  0  0  0  0  0  0  0  0
   12.4258  -16.8560   20.0475 O   0  0  0  0  0  0  0  0  0  0  0  0
   10.2701  -17.7719   14.7377 O   0  0  0  0  0  0  0  0  0  0  0  0
   10.9430  -18.2454   21.1637 N   0  0  0  0  0  0  0  0  0  0  0  0
   11.1469  -17.5470   22.3860 C   0  0  1  0  0  0  0  0  0  0  0  0
    9.9506  -17.5237   23.2898 C   0  0  0  0  0  0  0  0  0  0  0  0
   10.0573  -16.5877   24.4033 C   0  0  0  0  0  0  0  0  0  0  0  0
    9.1176  -16.4890   25.2257 O   0  0  0  0  0  0  0  0  0  0  0  0
   12.2758  -18.1767   23.1594 C   0  0  0  0  0  0  0  0  0  0  0  0
   12.2653  -19.4034   23.3949 O   0  0  0  0  0  0  0  0  0  0  0  0
   11.1747  -15.7940   24.5863 O   0  0  0  0  0  0  0  0  0  0  0  0
   13.3368  -17.3698   23.6110 N   0  0  0  0  0  0  0  0  0  0  0  0
   14.4731  -17.9066   24.3639 C   0  0  1  0  0  0  0  0  0  0  0  0
   15.6646  -17.0619   24.0391 C   0  0  0  0  0  0  0  0  0  0  0  0
   15.9260  -16.8635   22.6108 C   0  0  0  0  0  0  0  0  0  0  0  0
   16.0705  -17.7441   21.7393 O   0  0  0  0  0  0  0  0  0  0  0  0
   14.0815  -17.8955   25.7905 C   0  0  0  0  0  0  0  0  0  0  0  0
   12.9037  -17.3296   26.2560 O   0  0  0  0  0  0  0  0  0  0  0  0
   16.0259  -15.5453   22.1678 O   0  0  0  0  0  0  0  0  0  0  0  0
   14.8186  -18.4161   26.6985 O   0  0  0  0  0  0  0  0  0  0  0  0
  2  1  1  1
  2  7  1  0
  3  4  1  0
  3  2  1  0
  4  5  1  0
  5  6  2  0
  7 10  1  0
  7  8  2  0
  9  5  1  0
 10 11  1  0
 11 12  1  1
 12 13  1  0
 13 17  1  0
 14 13  2  0
 15 11  1  0
 15 16  2  0
 18 15  1  0
 19 18  1  0
 19 20  1  1
 21 20  1  0
 22 21  2  0
 23 19  1  0
 24 23  1  0
 25 21  1  0
 26 23  2  0
M  END
$$$$
