EDD.pdb
     RDKit          3D

 26 25  0  0  1  0  0  0  0  0999 V2000
   11.2922  -14.2276   17.4498 N   0  0  0  0  0  0  0  0  0  0  0  0
   12.0098  -15.3909   17.9605 C   0  0  1  0  0  0  0  0  0  0  0  0
   13.4875  -15.2687   17.7698 C   0  0  0  0  0  0  0  0  0  0  0  0
   14.0356  -13.8876   17.8534 C   0  0  0  0  0  0  0  0  0  0  0  0
   15.4692  -13.7455   17.6456 C   0  0  0  0  0  0  0  0  0  0  0  0
   16.2727  -13.7634   18.6034 O   0  0  0  0  0  0  0  0  0  0  0  0
   11.6693  -15.5734   19.4172 C   0  0  0  0  0  0  0  0  0  0  0  0
   11.6296  -14.5697   20.1733 O   0  0  0  0  0  0  0  0  0  0  0  0
   15.9742  -13.5858   16.3667 O   0  0  0  0  0  0  0  0  0  0  0  0
   11.3933  -16.8646   19.9447 N   0  0  0  0  0  0  0  0  0  0  0  0
   11.1201  -16.9987   21.3343 C   0  0  1  0  0  0  0  0  0  0  0  0
   10.1129  -18.0591   21.6651 C   0  0  0  0  0  0  0  0  0  0  0  0
    9.7552  -18.1280   23.0775 C   0  0  0  0  0  0  0  0  0  0  0  0
   10.2524  -17.3106   23.8861 O   0  0  0  0  0  0  0  0  0  0  0  0
   12.3842  -17.3386   22.0795 C   0  0  0  0  0  0  0  0  0  0  0  0
   12.9653  -18.4232   21.8641 O   0  0  0  0  0  0  0  0  0  0  0  0
    8.8741  -19.0768   23.5628 O   0  0  0  0  0  0  0  0  0  0  0  0
   12.8996  -16.4237   23.0167 N   0  0  0  0  0  0  0  0  0  0  0  0
   14.0954  -16.7007   23.8166 C   0  0  1  0  0  0  0  0  0  0  0  0
   14.9454  -15.4697   23.7921 C   0  0  0  0  0  0  0  0  0  0  0  0
   15.7686  -15.2961   22.5921 C   0  0  0  0  0  0  0  0  0  0  0  0
   16.4433  -14.2956   22.2765 O   0  0  0  0  0  0  0  0  0  0  0  0
   13.6247  -17.0967   25.1620 C   0  0  0  0  0  0  0  0  0  0  0  0
   14.4365  -17.7057   26.1077 O   0  0  0  0  0  0  0  0  0  0  0  0
   15.8076  -16.3646   21.6972 O   0  0  0  0  0  0  0  0  0  0  0  0
   12.4186  -16.8986   25.5425 O   0  0  0  0  0  0  0  0  0  0  0  0
  2  1  1  1
  2  7  1  0
  3  4  1  0
  3  2  1  0
  4  5  1  0
  5  6  2  0
  7 10  1  0
  7  8  2  0
  9  5  1  0
 10 11  1  0
 11 12  1  6
 12 13  1  0
 13 17  1  0
 14 13  2  0
 15 11  1  0
 15 16  2  0
 18 15  1  0
 19 18  1  0
 19 20  1  1
 21 20  1  0
 22 21  2  0
 23 19  1  0
 24 23  1  0
 25 21  1  0
 26 23  2  0
M  END
$$$$
