EDD.pdb
     RDKit          3D

 26 25  0  0  1  0  0  0  0  0999 V2000
   11.1941  -21.1781   18.7352 N   0  0  0  0  0  0  0  0  0  0  0  0
   11.2201  -19.7913   19.1883 C   0  0  1  0  0  0  0  0  0  0  0  0
   10.6721  -18.8536   18.1610 C   0  0  0  0  0  0  0  0  0  0  0  0
   10.9396  -19.2226   16.7443 C   0  0  0  0  0  0  0  0  0  0  0  0
   10.4477  -18.3012   15.7305 C   0  0  0  0  0  0  0  0  0  0  0  0
   11.0547  -17.2417   15.4615 O   0  0  0  0  0  0  0  0  0  0  0  0
   10.4489  -19.6850   20.4786 C   0  0  0  0  0  0  0  0  0  0  0  0
   10.4811  -18.6109   21.1314 O   0  0  0  0  0  0  0  0  0  0  0  0
    9.2838  -18.5863   15.0375 O   0  0  0  0  0  0  0  0  0  0  0  0
    9.6874  -20.7829   20.9649 N   0  0  0  0  0  0  0  0  0  0  0  0
    9.0234  -20.6618   22.2171 C   0  0  1  0  0  0  0  0  0  0  0  0
    7.7606  -21.4630   22.3253 C   0  0  0  0  0  0  0  0  0  0  0  0
    6.7955  -21.2095   21.2616 C   0  0  0  0  0  0  0  0  0  0  0  0
    6.0503  -20.2045   21.3237 O   0  0  0  0  0  0  0  0  0  0  0  0
    9.9324  -21.1125   23.3304 C   0  0  0  0  0  0  0  0  0  0  0  0
    9.9527  -22.3132   23.6745 O   0  0  0  0  0  0  0  0  0  0  0  0
    6.6718  -22.0508   20.1712 O   0  0  0  0  0  0  0  0  0  0  0  0
   10.7542  -20.1689   23.9746 N   0  0  0  0  0  0  0  0  0  0  0  0
   11.5895  -20.5062   25.1299 C   0  0  1  0  0  0  0  0  0  0  0  0
   12.9889  -20.0855   24.8087 C   0  0  0  0  0  0  0  0  0  0  0  0
   13.9819  -20.3487   25.8539 C   0  0  0  0  0  0  0  0  0  0  0  0
   13.7942  -20.9145   26.9495 O   0  0  0  0  0  0  0  0  0  0  0  0
   10.9946  -19.8223   26.2992 C   0  0  0  0  0  0  0  0  0  0  0  0
   10.1668  -18.7139   26.1975 O   0  0  0  0  0  0  0  0  0  0  0  0
   15.2854  -19.9220   25.6037 O   0  0  0  0  0  0  0  0  0  0  0  0
   11.2114  -20.2182   27.4971 O   0  0  0  0  0  0  0  0  0  0  0  0
  2  1  1  6
  2  7  1  0
  3  4  1  0
  3  2  1  0
  4  5  1  0
  5  6  2  0
  7 10  1  0
  7  8  2  0
  9  5  1  0
 10 11  1  0
 11 12  1  6
 12 13  1  0
 13 17  1  0
 14 13  2  0
 15 11  1  0
 15 16  2  0
 18 15  1  0
 19 18  1  0
 19 20  1  6
 21 20  1  0
 22 21  2  0
 23 19  1  0
 24 23  1  0
 25 21  1  0
 26 23  2  0
M  END
$$$$
