EDD.pdb
     RDKit          3D

 26 25  0  0  1  0  0  0  0  0999 V2000
    9.9704  -17.8988   18.3630 N   0  0  0  0  0  0  0  0  0  0  0  0
    9.7031  -19.3062   18.6401 C   0  0  1  0  0  0  0  0  0  0  0  0
    9.2725  -20.0486   17.4161 C   0  0  0  0  0  0  0  0  0  0  0  0
    8.6766  -19.2173   16.3350 C   0  0  0  0  0  0  0  0  0  0  0  0
    8.2343  -19.9249   15.1423 C   0  0  0  0  0  0  0  0  0  0  0  0
    7.2240  -20.6614   15.1570 O   0  0  0  0  0  0  0  0  0  0  0  0
   10.9378  -19.9286   19.2394 C   0  0  0  0  0  0  0  0  0  0  0  0
   10.8928  -21.1141   19.6558 O   0  0  0  0  0  0  0  0  0  0  0  0
    8.9342  -19.7925   13.9554 O   0  0  0  0  0  0  0  0  0  0  0  0
   12.1500  -19.1921   19.3391 N   0  0  0  0  0  0  0  0  0  0  0  0
   13.2852  -19.8084   19.9348 C   0  0  1  0  0  0  0  0  0  0  0  0
   14.5949  -19.4112   19.3221 C   0  0  0  0  0  0  0  0  0  0  0  0
   14.7659  -19.8414   17.9389 C   0  0  0  0  0  0  0  0  0  0  0  0
   15.0133  -18.9946   17.0497 O   0  0  0  0  0  0  0  0  0  0  0  0
   13.3552  -19.4589   21.3983 C   0  0  0  0  0  0  0  0  0  0  0  0
   13.5843  -18.2826   21.7505 O   0  0  0  0  0  0  0  0  0  0  0  0
   14.6632  -21.1697   17.5688 O   0  0  0  0  0  0  0  0  0  0  0  0
   13.1603  -20.4691   22.3587 N   0  0  0  0  0  0  0  0  0  0  0  0
   13.1977  -20.2075   23.7997 C   0  0  1  0  0  0  0  0  0  0  0  0
   12.3932  -21.2763   24.4698 C   0  0  0  0  0  0  0  0  0  0  0  0
   10.9430  -21.1875   24.2775 C   0  0  0  0  0  0  0  0  0  0  0  0
   10.3112  -20.2800   23.7003 O   0  0  0  0  0  0  0  0  0  0  0  0
   14.6245  -20.1760   24.1894 C   0  0  0  0  0  0  0  0  0  0  0  0
   15.0915  -19.5432   25.3321 O   0  0  0  0  0  0  0  0  0  0  0  0
   10.1758  -22.2305   24.7948 O   0  0  0  0  0  0  0  0  0  0  0  0
   15.5313  -20.7403   23.4837 O   0  0  0  0  0  0  0  0  0  0  0  0
  2  1  1  6
  2  7  1  0
  3  4  1  0
  3  2  1  0
  4  5  1  0
  5  6  2  0
  7 10  1  0
  7  8  2  0
  9  5  1  0
 10 11  1  0
 11 12  1  6
 12 13  1  0
 13 17  1  0
 14 13  2  0
 15 11  1  0
 15 16  2  0
 18 15  1  0
 19 18  1  0
 19 20  1  1
 21 20  1  0
 22 21  2  0
 23 19  1  0
 24 23  1  0
 25 21  1  0
 26 23  2  0
M  END
$$$$
