EDD.pdb
     RDKit          3D

 26 25  0  0  1  0  0  0  0  0999 V2000
   15.2475  -20.0687   17.6154 N   0  0  0  0  0  0  0  0  0  0  0  0
   14.6976  -18.7334   17.4067 C   0  0  1  0  0  0  0  0  0  0  0  0
   14.0978  -18.5784   16.0461 C   0  0  0  0  0  0  0  0  0  0  0  0
   14.4122  -19.6627   15.0764 C   0  0  0  0  0  0  0  0  0  0  0  0
   13.8453  -19.5243   13.7430 C   0  0  0  0  0  0  0  0  0  0  0  0
   14.4369  -18.8865   12.8449 O   0  0  0  0  0  0  0  0  0  0  0  0
   13.6765  -18.4531   18.4790 C   0  0  0  0  0  0  0  0  0  0  0  0
   13.1119  -17.3303   18.5169 O   0  0  0  0  0  0  0  0  0  0  0  0
   12.6249  -20.1044   13.4424 O   0  0  0  0  0  0  0  0  0  0  0  0
   13.3454  -19.4415   19.4461 N   0  0  0  0  0  0  0  0  0  0  0  0
   12.4402  -19.1084   20.4917 C   0  0  1  0  0  0  0  0  0  0  0  0
   11.3511  -20.1160   20.7085 C   0  0  0  0  0  0  0  0  0  0  0  0
   10.3719  -19.7337   21.7197 C   0  0  0  0  0  0  0  0  0  0  0  0
    9.8481  -18.5965   21.6804 O   0  0  0  0  0  0  0  0  0  0  0  0
   13.1833  -18.9700   21.7946 C   0  0  0  0  0  0  0  0  0  0  0  0
   14.0380  -19.8203   22.1210 O   0  0  0  0  0  0  0  0  0  0  0  0
    9.9957  -20.5939   22.7348 O   0  0  0  0  0  0  0  0  0  0  0  0
   12.9037  -17.8762   22.6351 N   0  0  0  0  0  0  0  0  0  0  0  0
   13.5787  -17.6736   23.9195 C   0  0  1  0  0  0  0  0  0  0  0  0
   14.3227  -16.3783   23.8348 C   0  0  0  0  0  0  0  0  0  0  0  0
   15.6617  -16.4581   23.2445 C   0  0  0  0  0  0  0  0  0  0  0  0
   16.2528  -17.4820   22.8469 O   0  0  0  0  0  0  0  0  0  0  0  0
   12.5299  -17.7137   24.9622 C   0  0  0  0  0  0  0  0  0  0  0  0
   11.1719  -17.6676   24.6832 O   0  0  0  0  0  0  0  0  0  0  0  0
   16.3606  -15.2593   23.1084 O   0  0  0  0  0  0  0  0  0  0  0  0
   12.8164  -17.7943   26.2073 O   0  0  0  0  0  0  0  0  0  0  0  0
  2  1  1  1
  2  7  1  0
  3  4  1  0
  3  2  1  0
  4  5  1  0
  5  6  2  0
  7 10  1  0
  7  8  2  0
  9  5  1  0
 10 11  1  0
 11 12  1  1
 12 13  1  0
 13 17  1  0
 14 13  2  0
 15 11  1  0
 15 16  2  0
 18 15  1  0
 19 18  1  0
 19 20  1  6
 21 20  1  0
 22 21  2  0
 23 19  1  0
 24 23  1  0
 25 21  1  0
 26 23  2  0
M  END
$$$$
