EDD.pdb
     RDKit          3D

 26 25  0  0  1  0  0  0  0  0999 V2000
   12.8576  -21.3340   18.5904 N   0  0  0  0  0  0  0  0  0  0  0  0
   13.5298  -20.0989   18.2007 C   0  0  1  0  0  0  0  0  0  0  0  0
   13.0073  -19.5575   16.9089 C   0  0  0  0  0  0  0  0  0  0  0  0
   11.5699  -19.1718   16.9068 C   0  0  0  0  0  0  0  0  0  0  0  0
   11.0748  -18.5222   15.7019 C   0  0  0  0  0  0  0  0  0  0  0  0
   11.4690  -17.3847   15.3645 O   0  0  0  0  0  0  0  0  0  0  0  0
   13.3753  -19.0889   19.3084 C   0  0  0  0  0  0  0  0  0  0  0  0
   13.8328  -17.9279   19.1547 O   0  0  0  0  0  0  0  0  0  0  0  0
   10.1466  -19.1616   14.8983 O   0  0  0  0  0  0  0  0  0  0  0  0
   12.7197  -19.4332   20.5222 N   0  0  0  0  0  0  0  0  0  0  0  0
   12.5560  -18.4375   21.5249 C   0  0  1  0  0  0  0  0  0  0  0  0
   11.3856  -18.6649   22.4343 C   0  0  0  0  0  0  0  0  0  0  0  0
   10.0871  -18.5732   21.7762 C   0  0  0  0  0  0  0  0  0  0  0  0
    9.8751  -17.6634   20.9418 O   0  0  0  0  0  0  0  0  0  0  0  0
   13.7857  -18.3696   22.3921 C   0  0  0  0  0  0  0  0  0  0  0  0
   14.2866  -19.4179   22.8510 O   0  0  0  0  0  0  0  0  0  0  0  0
    9.0672  -19.4675   22.0444 O   0  0  0  0  0  0  0  0  0  0  0  0
   14.3602  -17.1168   22.6773 N   0  0  0  0  0  0  0  0  0  0  0  0
   15.4944  -16.9568   23.5906 C   0  0  1  0  0  0  0  0  0  0  0  0
   16.2738  -15.7647   23.1321 C   0  0  0  0  0  0  0  0  0  0  0  0
   16.8616  -15.8728   21.7940 C   0  0  0  0  0  0  0  0  0  0  0  0
   17.6051  -16.7782   21.3658 O   0  0  0  0  0  0  0  0  0  0  0  0
   14.9300  -16.8360   24.9527 C   0  0  0  0  0  0  0  0  0  0  0  0
   13.5762  -16.6739   25.2081 O   0  0  0  0  0  0  0  0  0  0  0  0
   16.5612  -14.8531   20.8918 O   0  0  0  0  0  0  0  0  0  0  0  0
   15.6691  -16.8739   25.9973 O   0  0  0  0  0  0  0  0  0  0  0  0
  2  1  1  1
  2  7  1  0
  3  4  1  0
  3  2  1  0
  4  5  1  0
  5  6  2  0
  7 10  1  0
  7  8  2  0
  9  5  1  0
 10 11  1  0
 11 12  1  1
 12 13  1  0
 13 17  1  0
 14 13  2  0
 15 11  1  0
 15 16  2  0
 18 15  1  0
 19 18  1  0
 19 20  1  6
 21 20  1  0
 22 21  2  0
 23 19  1  0
 24 23  1  0
 25 21  1  0
 26 23  2  0
M  END
$$$$
