EDD.pdb
     RDKit          3D

 26 25  0  0  1  0  0  0  0  0999 V2000
    9.0155  -12.9151   18.5124 N   0  0  0  0  0  0  0  0  0  0  0  0
    9.1630  -14.3653   18.4465 C   0  0  1  0  0  0  0  0  0  0  0  0
   10.4280  -14.7715   17.7614 C   0  0  0  0  0  0  0  0  0  0  0  0
   11.5362  -13.7796   17.8143 C   0  0  0  0  0  0  0  0  0  0  0  0
   12.7617  -14.1389   17.1159 C   0  0  0  0  0  0  0  0  0  0  0  0
   13.8398  -14.2983   17.7289 O   0  0  0  0  0  0  0  0  0  0  0  0
    9.1051  -14.9255   19.8443 C   0  0  0  0  0  0  0  0  0  0  0  0
    9.3639  -14.1777   20.8214 O   0  0  0  0  0  0  0  0  0  0  0  0
   12.7543  -14.3126   15.7427 O   0  0  0  0  0  0  0  0  0  0  0  0
    8.7623  -16.2868   20.0701 N   0  0  0  0  0  0  0  0  0  0  0  0
    8.8155  -16.8016   21.3952 C   0  0  1  0  0  0  0  0  0  0  0  0
    8.0527  -18.0775   21.5920 C   0  0  0  0  0  0  0  0  0  0  0  0
    6.7332  -18.0902   20.9707 C   0  0  0  0  0  0  0  0  0  0  0  0
    5.8546  -17.2862   21.3590 O   0  0  0  0  0  0  0  0  0  0  0  0
   10.2442  -17.0730   21.7877 C   0  0  0  0  0  0  0  0  0  0  0  0
   11.1064  -17.2799   20.9079 O   0  0  0  0  0  0  0  0  0  0  0  0
    6.4127  -18.9707   19.9538 O   0  0  0  0  0  0  0  0  0  0  0  0
   10.5934  -17.0905   23.1510 N   0  0  0  0  0  0  0  0  0  0  0  0
   11.9720  -17.2743   23.6115 C   0  0  1  0  0  0  0  0  0  0  0  0
   12.7711  -16.1146   23.1064 C   0  0  0  0  0  0  0  0  0  0  0  0
   14.2132  -16.3467   22.9881 C   0  0  0  0  0  0  0  0  0  0  0  0
   14.7980  -17.0563   22.1453 O   0  0  0  0  0  0  0  0  0  0  0  0
   11.9166  -17.3879   25.0855 C   0  0  0  0  0  0  0  0  0  0  0  0
   12.8676  -18.0623   25.8370 O   0  0  0  0  0  0  0  0  0  0  0  0
   15.0309  -15.7062   23.9183 O   0  0  0  0  0  0  0  0  0  0  0  0
   10.9709  -16.8620   25.7696 O   0  0  0  0  0  0  0  0  0  0  0  0
  2  1  1  1
  2  7  1  0
  3  4  1  0
  3  2  1  0
  4  5  1  0
  5  6  2  0
  7 10  1  0
  7  8  2  0
  9  5  1  0
 10 11  1  0
 11 12  1  6
 12 13  1  0
 13 17  1  0
 14 13  2  0
 15 11  1  0
 15 16  2  0
 18 15  1  0
 19 18  1  0
 19 20  1  1
 21 20  1  0
 22 21  2  0
 23 19  1  0
 24 23  1  0
 25 21  1  0
 26 23  2  0
M  END
$$$$
