EDD.pdb
     RDKit          3D

 26 25  0  0  1  0  0  0  0  0999 V2000
    8.8186  -16.9547   16.8808 N   0  0  0  0  0  0  0  0  0  0  0  0
    8.1990  -17.8134   17.8847 C   0  0  1  0  0  0  0  0  0  0  0  0
    7.0440  -18.5839   17.3305 C   0  0  0  0  0  0  0  0  0  0  0  0
    6.9009  -18.5535   15.8495 C   0  0  0  0  0  0  0  0  0  0  0  0
    5.7552  -19.2591   15.2943 C   0  0  0  0  0  0  0  0  0  0  0  0
    4.6061  -18.7674   15.3288 O   0  0  0  0  0  0  0  0  0  0  0  0
    9.2452  -18.7423   18.4449 C   0  0  0  0  0  0  0  0  0  0  0  0
    8.9369  -19.5332   19.3724 O   0  0  0  0  0  0  0  0  0  0  0  0
    5.9206  -20.5033   14.7106 O   0  0  0  0  0  0  0  0  0  0  0  0
   10.5735  -18.7343   17.9378 N   0  0  0  0  0  0  0  0  0  0  0  0
   11.5434  -19.5907   18.5290 C   0  0  1  0  0  0  0  0  0  0  0  0
   12.2762  -20.4598   17.5512 C   0  0  0  0  0  0  0  0  0  0  0  0
   12.7078  -19.7701   16.3406 C   0  0  0  0  0  0  0  0  0  0  0  0
   13.1326  -18.5939   16.4122 O   0  0  0  0  0  0  0  0  0  0  0  0
   12.5772  -18.7746   19.2598 C   0  0  0  0  0  0  0  0  0  0  0  0
   12.8070  -17.5976   18.9103 O   0  0  0  0  0  0  0  0  0  0  0  0
   12.6642  -20.3769   15.0989 O   0  0  0  0  0  0  0  0  0  0  0  0
   13.2773  -19.3520   20.3356 N   0  0  0  0  0  0  0  0  0  0  0  0
   14.2659  -18.6117   21.1236 C   0  0  1  0  0  0  0  0  0  0  0  0
   14.0298  -18.9431   22.5634 C   0  0  0  0  0  0  0  0  0  0  0  0
   14.8776  -18.2286   23.5218 C   0  0  0  0  0  0  0  0  0  0  0  0
   15.8155  -17.4472   23.2655 O   0  0  0  0  0  0  0  0  0  0  0  0
   15.5975  -19.0039   20.6124 C   0  0  0  0  0  0  0  0  0  0  0  0
   16.5756  -18.0909   20.2463 O   0  0  0  0  0  0  0  0  0  0  0  0
   14.6129  -18.4403   24.8743 O   0  0  0  0  0  0  0  0  0  0  0  0
   15.9345  -20.2311   20.4736 O   0  0  0  0  0  0  0  0  0  0  0  0
  2  1  1  6
  2  7  1  0
  3  4  1  0
  3  2  1  0
  4  5  1  0
  5  6  2  0
  7 10  1  0
  7  8  2  0
  9  5  1  0
 10 11  1  0
 11 12  1  6
 12 13  1  0
 13 17  1  0
 14 13  2  0
 15 11  1  0
 15 16  2  0
 18 15  1  0
 19 18  1  0
 19 20  1  1
 21 20  1  0
 22 21  2  0
 23 19  1  0
 24 23  1  0
 25 21  1  0
 26 23  2  0
M  END
$$$$
