EDD.pdb
     RDKit          3D

 26 25  0  0  1  0  0  0  0  0999 V2000
    7.9554  -12.2833   18.0914 N   0  0  0  0  0  0  0  0  0  0  0  0
    7.7335  -13.6137   18.6480 C   0  0  1  0  0  0  0  0  0  0  0  0
    7.8880  -14.6870   17.6190 C   0  0  0  0  0  0  0  0  0  0  0  0
    9.1475  -14.6438   16.8274 C   0  0  0  0  0  0  0  0  0  0  0  0
    9.2690  -15.6137   15.7489 C   0  0  0  0  0  0  0  0  0  0  0  0
    8.6629  -15.4647   14.6655 O   0  0  0  0  0  0  0  0  0  0  0  0
    8.6871  -13.8280   19.7951 C   0  0  0  0  0  0  0  0  0  0  0  0
    9.7462  -13.1529   19.8530 O   0  0  0  0  0  0  0  0  0  0  0  0
   10.0684  -16.7327   15.9065 O   0  0  0  0  0  0  0  0  0  0  0  0
    8.4034  -14.7826   20.8100 N   0  0  0  0  0  0  0  0  0  0  0  0
    9.2893  -14.8972   21.9171 C   0  0  1  0  0  0  0  0  0  0  0  0
    8.7362  -15.6793   23.0708 C   0  0  0  0  0  0  0  0  0  0  0  0
    9.5435  -15.6123   24.2837 C   0  0  0  0  0  0  0  0  0  0  0  0
    9.2068  -16.2737   25.2928 O   0  0  0  0  0  0  0  0  0  0  0  0
   10.5647  -15.5757   21.4910 C   0  0  0  0  0  0  0  0  0  0  0  0
   10.5201  -16.6552   20.8641 O   0  0  0  0  0  0  0  0  0  0  0  0
   10.6836  -14.8337   24.3607 O   0  0  0  0  0  0  0  0  0  0  0  0
   11.8009  -14.9813   21.8066 N   0  0  0  0  0  0  0  0  0  0  0  0
   13.0804  -15.5259   21.3456 C   0  0  1  0  0  0  0  0  0  0  0  0
   13.9685  -14.3671   21.0188 C   0  0  0  0  0  0  0  0  0  0  0  0
   15.3034  -14.7158   20.5247 C   0  0  0  0  0  0  0  0  0  0  0  0
   16.3845  -14.6269   21.1405 O   0  0  0  0  0  0  0  0  0  0  0  0
   13.5842  -16.4015   22.4265 C   0  0  0  0  0  0  0  0  0  0  0  0
   14.6370  -17.2898   22.2632 O   0  0  0  0  0  0  0  0  0  0  0  0
   15.3830  -15.2024   19.2205 O   0  0  0  0  0  0  0  0  0  0  0  0
   13.0702  -16.3931   23.5990 O   0  0  0  0  0  0  0  0  0  0  0  0
  2  1  1  6
  2  7  1  0
  3  4  1  0
  3  2  1  0
  4  5  1  0
  5  6  2  0
  7 10  1  0
  7  8  2  0
  9  5  1  0
 10 11  1  0
 11 12  1  1
 12 13  1  0
 13 17  1  0
 14 13  2  0
 15 11  1  0
 15 16  2  0
 18 15  1  0
 19 18  1  0
 19 20  1  1
 21 20  1  0
 22 21  2  0
 23 19  1  0
 24 23  1  0
 25 21  1  0
 26 23  2  0
M  END
$$$$
