EDD.pdb
     RDKit          3D

 26 25  0  0  1  0  0  0  0  0999 V2000
   10.3790  -20.0618   16.3609 N   0  0  0  0  0  0  0  0  0  0  0  0
   11.4317  -19.0541   16.4354 C   0  0  1  0  0  0  0  0  0  0  0  0
   11.5107  -18.2299   15.1907 C   0  0  0  0  0  0  0  0  0  0  0  0
   10.4079  -18.4337   14.2124 C   0  0  0  0  0  0  0  0  0  0  0  0
   10.4380  -17.6011   13.0189 C   0  0  0  0  0  0  0  0  0  0  0  0
    9.4958  -17.6038   12.1968 O   0  0  0  0  0  0  0  0  0  0  0  0
   11.1894  -18.1838   17.6416 C   0  0  0  0  0  0  0  0  0  0  0  0
   11.8955  -17.1581   17.8159 O   0  0  0  0  0  0  0  0  0  0  0  0
   11.5250  -16.7808   12.7703 O   0  0  0  0  0  0  0  0  0  0  0  0
   10.1741  -18.5087   18.5825 N   0  0  0  0  0  0  0  0  0  0  0  0
    9.9247  -17.6189   19.6640 C   0  0  1  0  0  0  0  0  0  0  0  0
    8.5569  -17.7471   20.2650 C   0  0  0  0  0  0  0  0  0  0  0  0
    7.4813  -17.8747   19.2881 C   0  0  0  0  0  0  0  0  0  0  0  0
    7.5279  -17.2192   18.2217 O   0  0  0  0  0  0  0  0  0  0  0  0
   10.9198  -17.8565   20.7695 C   0  0  0  0  0  0  0  0  0  0  0  0
   11.3478  -19.0093   20.9891 O   0  0  0  0  0  0  0  0  0  0  0  0
    6.3964  -18.7054   19.5001 O   0  0  0  0  0  0  0  0  0  0  0  0
   11.3589  -16.7691   21.5477 N   0  0  0  0  0  0  0  0  0  0  0  0
   12.3304  -16.9161   22.6344 C   0  0  1  0  0  0  0  0  0  0  0  0
   13.5032  -16.0466   22.3071 C   0  0  0  0  0  0  0  0  0  0  0  0
   14.6319  -16.1344   23.2377 C   0  0  0  0  0  0  0  0  0  0  0  0
   14.7241  -16.8602   24.2478 O   0  0  0  0  0  0  0  0  0  0  0  0
   11.6273  -16.5556   23.8851 C   0  0  0  0  0  0  0  0  0  0  0  0
   12.0140  -17.0087   25.1378 O   0  0  0  0  0  0  0  0  0  0  0  0
   15.7305  -15.3180   22.9714 O   0  0  0  0  0  0  0  0  0  0  0  0
   10.6010  -15.7904   23.8880 O   0  0  0  0  0  0  0  0  0  0  0  0
  2  1  1  6
  2  7  1  0
  3  4  1  0
  3  2  1  0
  4  5  1  0
  5  6  2  0
  7 10  1  0
  7  8  2  0
  9  5  1  0
 10 11  1  0
 11 12  1  1
 12 13  1  0
 13 17  1  0
 14 13  2  0
 15 11  1  0
 15 16  2  0
 18 15  1  0
 19 18  1  0
 19 20  1  6
 21 20  1  0
 22 21  2  0
 23 19  1  0
 24 23  1  0
 25 21  1  0
 26 23  2  0
M  END
$$$$
