DPA.pdb
     RDKit          3D

 21 21  0  0  1  0  0  0  0  0999 V2000
   24.8965  -21.9288  -11.8151 N   0  0  0  0  0  0  0  0  0  0  0  0
   26.0342  -21.0283  -11.7054 C   0  0  1  0  0  0  0  0  0  0  0  0
   25.6026  -19.5890  -11.8592 C   0  0  0  0  0  0  0  0  0  0  0  0
   25.2128  -19.2578  -13.2376 C   0  0  0  0  0  0  0  0  0  0  0  0
   24.0063  -19.0189  -13.4942 O   0  0  0  0  0  0  0  0  0  0  0  0
   26.6705  -21.2491  -10.3906 C   0  0  0  0  0  0  0  0  0  0  0  0
   25.9649  -21.4446   -9.3612 O   0  0  0  0  0  0  0  0  0  0  0  0
   26.1040  -19.1903  -14.2904 O   0  0  0  0  0  0  0  0  0  0  0  0
   28.0827  -21.2521  -10.2306 N   0  0  0  0  0  0  0  0  0  0  0  0
   29.0835  -21.0554  -11.2960 C   0  0  0  0  0  0  0  0  0  0  0  0
   30.2588  -21.8701  -10.7291 C   0  0  0  0  0  0  0  0  0  0  0  0
   30.2069  -21.3882   -9.2973 C   0  0  0  0  0  0  0  0  0  0  0  0
   28.7611  -21.4728   -8.9778 C   0  0  1  0  0  0  0  0  0  0  0  0
   28.3280  -20.5245   -7.9263 C   0  0  0  0  0  0  0  0  0  0  0  0
   28.0559  -19.3520   -8.2856 O   0  0  0  0  0  0  0  0  0  0  0  0
   27.1097  -20.2569   -4.4465 C   0  0  0  0  0  0  0  0  0  0  0  0
   27.9917  -19.8090   -5.5797 C   0  0  2  0  0  0  0  0  0  0  0  0
   28.2041  -20.8507   -6.5698 N   0  0  0  0  0  0  0  0  0  0  0  0
   29.2780  -19.3166   -5.0249 C   0  0  0  0  0  0  0  0  0  0  0  0
   29.3041  -18.2260   -4.4177 O   0  0  0  0  0  0  0  0  0  0  0  0
   30.4279  -20.0660   -5.1849 O   0  0  0  0  0  0  0  0  0  0  0  0
  2  1  1  1
  2  3  1  0
  3  4  1  0
  4  8  1  0
  5  4  2  0
  6  2  1  0
  7  6  2  0
  9 13  1  0
  9  6  1  0
 10  9  1  0
 11 12  1  0
 11 10  1  0
 12 13  1  0
 13 14  1  1
 14 18  1  0
 15 14  2  0
 17 16  1  1
 17 19  1  0
 18 17  1  0
 19 20  2  0
 19 21  1  0
M  END
$$$$
