DPA.pdb
     RDKit          3D

 21 21  0  0  1  0  0  0  0  0999 V2000
   17.3835  -11.2790  -15.5038 N   0  0  0  0  0  0  0  0  0  0  0  0
   18.0325  -10.4202  -16.4829 C   0  0  1  0  0  0  0  0  0  0  0  0
   17.0505   -9.4392  -17.0784 C   0  0  0  0  0  0  0  0  0  0  0  0
   15.9881  -10.0986  -17.8518 C   0  0  0  0  0  0  0  0  0  0  0  0
   16.2995  -10.8217  -18.8309 O   0  0  0  0  0  0  0  0  0  0  0  0
   19.1413   -9.7121  -15.8107 C   0  0  0  0  0  0  0  0  0  0  0  0
   18.9559   -9.1366  -14.7016 O   0  0  0  0  0  0  0  0  0  0  0  0
   14.6426   -9.9729  -17.5668 O   0  0  0  0  0  0  0  0  0  0  0  0
   20.4445   -9.6506  -16.3743 N   0  0  0  0  0  0  0  0  0  0  0  0
   20.8739  -10.2514  -17.6511 C   0  0  0  0  0  0  0  0  0  0  0  0
   22.3605  -10.5101  -17.3520 C   0  0  0  0  0  0  0  0  0  0  0  0
   22.6995   -9.1902  -16.6978 C   0  0  0  0  0  0  0  0  0  0  0  0
   21.5697   -8.9936  -15.7574 C   0  0  1  0  0  0  0  0  0  0  0  0
   21.2937   -7.5720  -15.4482 C   0  0  0  0  0  0  0  0  0  0  0  0
   20.4948   -6.9637  -16.2029 O   0  0  0  0  0  0  0  0  0  0  0  0
   21.6829   -5.0890  -12.6889 C   0  0  0  0  0  0  0  0  0  0  0  0
   21.4968   -5.4874  -14.1274 C   0  0  2  0  0  0  0  0  0  0  0  0
   21.8626   -6.8710  -14.3774 N   0  0  0  0  0  0  0  0  0  0  0  0
   22.2686   -4.5572  -14.9898 C   0  0  0  0  0  0  0  0  0  0  0  0
   23.3483   -4.9386  -15.4874 O   0  0  0  0  0  0  0  0  0  0  0  0
   21.7873   -3.2848  -15.2323 O   0  0  0  0  0  0  0  0  0  0  0  0
  2  1  1  1
  2  3  1  0
  3  4  1  0
  4  8  1  0
  5  4  2  0
  6  2  1  0
  7  6  2  0
  9 13  1  0
  9  6  1  0
 10  9  1  0
 11 12  1  0
 11 10  1  0
 12 13  1  0
 13 14  1  6
 14 18  1  0
 15 14  2  0
 17 16  1  1
 17 19  1  0
 18 17  1  0
 19 20  2  0
 19 21  1  0
M  END
$$$$
