DPA.pdb
     RDKit          3D

 21 21  0  0  1  0  0  0  0  0999 V2000
   19.2135  -12.7091  -16.8911 N   0  0  0  0  0  0  0  0  0  0  0  0
   20.3622  -11.9021  -17.2741 C   0  0  1  0  0  0  0  0  0  0  0  0
   20.1227  -11.2119  -18.5960 C   0  0  0  0  0  0  0  0  0  0  0  0
   20.0582  -12.1527  -19.7239 C   0  0  0  0  0  0  0  0  0  0  0  0
   19.1127  -12.0622  -20.5462 O   0  0  0  0  0  0  0  0  0  0  0  0
   20.6091  -10.9155  -16.2026 C   0  0  0  0  0  0  0  0  0  0  0  0
   19.6627  -10.2150  -15.7451 O   0  0  0  0  0  0  0  0  0  0  0  0
   20.9881  -13.1499  -19.9436 O   0  0  0  0  0  0  0  0  0  0  0  0
   21.9026  -10.7166  -15.6482 N   0  0  0  0  0  0  0  0  0  0  0  0
   23.1262  -11.4641  -15.9940 C   0  0  0  0  0  0  0  0  0  0  0  0
   23.8974  -11.3666  -14.6666 C   0  0  0  0  0  0  0  0  0  0  0  0
   23.6640   -9.9032  -14.3686 C   0  0  0  0  0  0  0  0  0  0  0  0
   22.2124   -9.7459  -14.6284 C   0  0  1  0  0  0  0  0  0  0  0  0
   21.8238   -8.3718  -15.0200 C   0  0  0  0  0  0  0  0  0  0  0  0
   21.9830   -8.0498  -16.2236 O   0  0  0  0  0  0  0  0  0  0  0  0
   19.6713   -5.5752  -13.9852 C   0  0  0  0  0  0  0  0  0  0  0  0
   20.9310   -6.0969  -14.6207 C   0  0  2  0  0  0  0  0  0  0  0  0
   21.2951   -7.4187  -14.1402 N   0  0  0  0  0  0  0  0  0  0  0  0
   22.0250   -5.1178  -14.3988 C   0  0  0  0  0  0  0  0  0  0  0  0
   22.9356   -5.3917  -13.5897 O   0  0  0  0  0  0  0  0  0  0  0  0
   22.0250   -3.9189  -15.0860 O   0  0  0  0  0  0  0  0  0  0  0  0
  2  1  1  1
  2  3  1  0
  3  4  1  0
  4  8  1  0
  5  4  2  0
  6  2  1  0
  7  6  2  0
  9 13  1  0
  9  6  1  0
 10  9  1  0
 11 12  1  0
 11 10  1  0
 12 13  1  0
 13 14  1  6
 14 18  1  0
 15 14  2  0
 17 16  1  1
 17 19  1  0
 18 17  1  0
 19 20  2  0
 19 21  1  0
M  END
$$$$
