DPA.pdb
     RDKit          3D

 21 21  0  0  1  0  0  0  0  0999 V2000
   26.3080  -21.1430  -14.1177 N   0  0  0  0  0  0  0  0  0  0  0  0
   25.3717  -21.1032  -15.2309 C   0  0  1  0  0  0  0  0  0  0  0  0
   25.3085  -22.4388  -15.9335 C   0  0  0  0  0  0  0  0  0  0  0  0
   26.6069  -22.8508  -16.4868 C   0  0  0  0  0  0  0  0  0  0  0  0
   27.0600  -23.9889  -16.2082 O   0  0  0  0  0  0  0  0  0  0  0  0
   24.0452  -20.7232  -14.7030 C   0  0  0  0  0  0  0  0  0  0  0  0
   23.5438  -21.3420  -13.7225 O   0  0  0  0  0  0  0  0  0  0  0  0
   27.3768  -22.0525  -17.3097 O   0  0  0  0  0  0  0  0  0  0  0  0
   23.2889  -19.6602  -15.2668 N   0  0  0  0  0  0  0  0  0  0  0  0
   23.7131  -18.7724  -16.3655 C   0  0  0  0  0  0  0  0  0  0  0  0
   22.9250  -17.4986  -16.0155 C   0  0  0  0  0  0  0  0  0  0  0  0
   21.5908  -18.1316  -15.6928 C   0  0  0  0  0  0  0  0  0  0  0  0
   21.9731  -19.2714  -14.8242 C   0  0  1  0  0  0  0  0  0  0  0  0
   21.0100  -20.3955  -14.8601 C   0  0  0  0  0  0  0  0  0  0  0  0
   21.1103  -21.2089  -15.8120 O   0  0  0  0  0  0  0  0  0  0  0  0
   18.8910  -22.5215  -12.8359 C   0  0  0  0  0  0  0  0  0  0  0  0
   19.0468  -21.6851  -14.0765 C   0  0  2  0  0  0  0  0  0  0  0  0
   20.0045  -20.6058  -13.9080 N   0  0  0  0  0  0  0  0  0  0  0  0
   17.7144  -21.1705  -14.4823 C   0  0  0  0  0  0  0  0  0  0  0  0
   16.7998  -21.9798  -14.7420 O   0  0  0  0  0  0  0  0  0  0  0  0
   17.5002  -19.8081  -14.5683 O   0  0  0  0  0  0  0  0  0  0  0  0
  2  1  1  1
  2  3  1  0
  3  4  1  0
  4  8  1  0
  5  4  2  0
  6  2  1  0
  7  6  2  0
  9 13  1  0
  9  6  1  0
 10  9  1  0
 11 12  1  0
 11 10  1  0
 12 13  1  0
 13 14  1  6
 14 18  1  0
 15 14  2  0
 17 16  1  1
 17 19  1  0
 18 17  1  0
 19 20  2  0
 19 21  1  0
M  END
$$$$
