DPA.pdb
     RDKit          3D

 21 21  0  0  1  0  0  0  0  0999 V2000
   22.4132   -9.1265  -15.7089 N   0  0  0  0  0  0  0  0  0  0  0  0
   21.2358   -8.2729  -15.6579 C   0  0  1  0  0  0  0  0  0  0  0  0
   21.0094   -7.7454  -14.2609 C   0  0  0  0  0  0  0  0  0  0  0  0
   20.6262   -8.8003  -13.3112 C   0  0  0  0  0  0  0  0  0  0  0  0
   20.6632   -8.5602  -12.0785 O   0  0  0  0  0  0  0  0  0  0  0  0
   21.4301   -7.1636  -16.6141 C   0  0  0  0  0  0  0  0  0  0  0  0
   22.5745   -6.6568  -16.7847 O   0  0  0  0  0  0  0  0  0  0  0  0
   20.2199  -10.0638  -13.6929 O   0  0  0  0  0  0  0  0  0  0  0  0
   20.3537   -6.6284  -17.3724 N   0  0  0  0  0  0  0  0  0  0  0  0
   18.9550   -7.0960  -17.3553 C   0  0  0  0  0  0  0  0  0  0  0  0
   18.5178   -6.7210  -18.7816 C   0  0  0  0  0  0  0  0  0  0  0  0
   19.1129   -5.3332  -18.8503 C   0  0  0  0  0  0  0  0  0  0  0  0
   20.4774   -5.5371  -18.3062 C   0  0  1  0  0  0  0  0  0  0  0  0
   21.0571   -4.3247  -17.6846 C   0  0  0  0  0  0  0  0  0  0  0  0
   20.9620   -4.2163  -16.4368 O   0  0  0  0  0  0  0  0  0  0  0  0
   23.1122   -1.2952  -18.5788 C   0  0  0  0  0  0  0  0  0  0  0  0
   22.2541   -2.1570  -17.6936 C   0  0  2  0  0  0  0  0  0  0  0  0
   21.6983   -3.3017  -18.3946 N   0  0  0  0  0  0  0  0  0  0  0  0
   21.1870   -1.3184  -17.0912 C   0  0  0  0  0  0  0  0  0  0  0  0
   20.0219   -1.4019  -17.5322 O   0  0  0  0  0  0  0  0  0  0  0  0
   21.4917   -0.4580  -16.0537 O   0  0  0  0  0  0  0  0  0  0  0  0
  2  1  1  1
  2  3  1  0
  3  4  1  0
  4  8  1  0
  5  4  2  0
  6  2  1  0
  7  6  2  0
  9 13  1  0
  9  6  1  0
 10  9  1  0
 11 12  1  0
 11 10  1  0
 12 13  1  0
 13 14  1  1
 14 18  1  0
 15 14  2  0
 17 16  1  6
 17 19  1  0
 18 17  1  0
 19 20  2  0
 19 21  1  0
M  END
$$$$
