DPA.pdb
     RDKit          3D

 21 21  0  0  1  0  0  0  0  0999 V2000
   18.9769  -11.6235  -17.5255 N   0  0  0  0  0  0  0  0  0  0  0  0
   20.2301  -10.8853  -17.5679 C   0  0  1  0  0  0  0  0  0  0  0  0
   20.3202  -10.0424  -18.8181 C   0  0  0  0  0  0  0  0  0  0  0  0
   20.4448  -10.8509  -20.0397 C   0  0  0  0  0  0  0  0  0  0  0  0
   19.9204  -10.4396  -21.1047 O   0  0  0  0  0  0  0  0  0  0  0  0
   20.3082  -10.0415  -16.3578 C   0  0  0  0  0  0  0  0  0  0  0  0
   19.3398   -9.2999  -16.0294 O   0  0  0  0  0  0  0  0  0  0  0  0
   21.1144  -12.0576  -20.0946 O   0  0  0  0  0  0  0  0  0  0  0  0
   21.4587  -10.0295  -15.5234 N   0  0  0  0  0  0  0  0  0  0  0  0
   22.6447  -10.8959  -15.6574 C   0  0  0  0  0  0  0  0  0  0  0  0
   23.1060  -10.9665  -14.1916 C   0  0  0  0  0  0  0  0  0  0  0  0
   22.9642   -9.5051  -13.8323 C   0  0  0  0  0  0  0  0  0  0  0  0
   21.6314   -9.1621  -14.3849 C   0  0  1  0  0  0  0  0  0  0  0  0
   21.4840   -7.7315  -14.7373 C   0  0  0  0  0  0  0  0  0  0  0  0
   21.9057   -7.3700  -15.8640 O   0  0  0  0  0  0  0  0  0  0  0  0
   19.6472   -4.6595  -13.7352 C   0  0  0  0  0  0  0  0  0  0  0  0
   20.8290   -5.3793  -14.3252 C   0  0  2  0  0  0  0  0  0  0  0  0
   20.9093   -6.7663  -13.9006 N   0  0  0  0  0  0  0  0  0  0  0  0
   22.0674   -4.6343  -13.9846 C   0  0  0  0  0  0  0  0  0  0  0  0
   22.7567   -5.0065  -13.0123 O   0  0  0  0  0  0  0  0  0  0  0  0
   22.4435   -3.5419  -14.7426 O   0  0  0  0  0  0  0  0  0  0  0  0
  2  1  1  6
  2  3  1  0
  3  4  1  0
  4  8  1  0
  5  4  2  0
  6  2  1  0
  7  6  2  0
  9 13  1  0
  9  6  1  0
 10  9  1  0
 11 12  1  0
 11 10  1  0
 12 13  1  0
 13 14  1  6
 14 18  1  0
 15 14  2  0
 17 16  1  1
 17 19  1  0
 18 17  1  0
 19 20  2  0
 19 21  1  0
M  END
$$$$
