DPA.pdb
     RDKit          3D

 21 21  0  0  1  0  0  0  0  0999 V2000
   22.3106  -20.4431  -10.9835 N   0  0  0  0  0  0  0  0  0  0  0  0
   22.8397  -20.8758  -12.2680 C   0  0  1  0  0  0  0  0  0  0  0  0
   21.8097  -20.7128  -13.3608 C   0  0  0  0  0  0  0  0  0  0  0  0
   20.5719  -21.4583  -13.0896 C   0  0  0  0  0  0  0  0  0  0  0  0
   20.5861  -22.7134  -13.1443 O   0  0  0  0  0  0  0  0  0  0  0  0
   24.0478  -20.0774  -12.5605 C   0  0  0  0  0  0  0  0  0  0  0  0
   23.9660  -18.8280  -12.7279 O   0  0  0  0  0  0  0  0  0  0  0  0
   19.3698  -20.8572  -12.7718 O   0  0  0  0  0  0  0  0  0  0  0  0
   25.3345  -20.6722  -12.6631 N   0  0  0  0  0  0  0  0  0  0  0  0
   25.6829  -22.0653  -12.3264 C   0  0  0  0  0  0  0  0  0  0  0  0
   27.1566  -21.8942  -11.9201 C   0  0  0  0  0  0  0  0  0  0  0  0
   27.6049  -20.9898  -13.0452 C   0  0  0  0  0  0  0  0  0  0  0  0
   26.5203  -19.9799  -13.1026 C   0  0  1  0  0  0  0  0  0  0  0  0
   26.3519  -19.3634  -14.4383 C   0  0  0  0  0  0  0  0  0  0  0  0
   25.5783  -19.9382  -15.2439 O   0  0  0  0  0  0  0  0  0  0  0  0
   26.6684  -16.1490  -16.1898 C   0  0  0  0  0  0  0  0  0  0  0  0
   26.7528  -17.6509  -16.1813 C   0  0  2  0  0  0  0  0  0  0  0  0
   26.9952  -18.1910  -14.8546 N   0  0  0  0  0  0  0  0  0  0  0  0
   27.7996  -18.0811  -17.1425 C   0  0  0  0  0  0  0  0  0  0  0  0
   28.8062  -18.6865  -16.7195 O   0  0  0  0  0  0  0  0  0  0  0  0
   27.6507  -17.8087  -18.4891 O   0  0  0  0  0  0  0  0  0  0  0  0
  2  1  1  1
  2  3  1  0
  3  4  1  0
  4  8  1  0
  5  4  2  0
  6  2  1  0
  7  6  2  0
  9 13  1  0
  9  6  1  0
 10  9  1  0
 11 12  1  0
 11 10  1  0
 12 13  1  0
 13 14  1  6
 14 18  1  0
 15 14  2  0
 17 16  1  1
 17 19  1  0
 18 17  1  0
 19 20  2  0
 19 21  1  0
M  END
$$$$
