DPA.pdb
     RDKit          3D

 21 21  0  0  1  0  0  0  0  0999 V2000
   17.9743   -9.3036  -14.5089 N   0  0  0  0  0  0  0  0  0  0  0  0
   18.9279   -8.4905  -15.2483 C   0  0  1  0  0  0  0  0  0  0  0  0
   18.5481   -8.4028  -16.7076 C   0  0  0  0  0  0  0  0  0  0  0  0
   18.6445   -9.6974  -17.3978 C   0  0  0  0  0  0  0  0  0  0  0  0
   17.6840  -10.0885  -18.1069 O   0  0  0  0  0  0  0  0  0  0  0  0
   18.9631   -7.1482  -14.6323 C   0  0  0  0  0  0  0  0  0  0  0  0
   17.8911   -6.5580  -14.3189 O   0  0  0  0  0  0  0  0  0  0  0  0
   19.7443  -10.5287  -17.3163 O   0  0  0  0  0  0  0  0  0  0  0  0
   20.1864   -6.4745  -14.3688 N   0  0  0  0  0  0  0  0  0  0  0  0
   21.5416   -6.9746  -14.6670 C   0  0  0  0  0  0  0  0  0  0  0  0
   22.3485   -6.2698  -13.5632 C   0  0  0  0  0  0  0  0  0  0  0  0
   21.7391   -4.8909  -13.6736 C   0  0  0  0  0  0  0  0  0  0  0  0
   20.2862   -5.1817  -13.7387 C   0  0  1  0  0  0  0  0  0  0  0  0
   19.5035   -4.1450  -14.4495 C   0  0  0  0  0  0  0  0  0  0  0  0
   19.4337   -4.2337  -15.7005 O   0  0  0  0  0  0  0  0  0  0  0  0
   16.8774   -1.6013  -13.8576 C   0  0  0  0  0  0  0  0  0  0  0  0
   18.0748   -2.1282  -14.6003 C   0  0  2  0  0  0  0  0  0  0  0  0
   18.8430   -3.0826  -13.8195 N   0  0  0  0  0  0  0  0  0  0  0  0
   18.9137   -0.9838  -15.0376 C   0  0  0  0  0  0  0  0  0  0  0  0
   20.0537   -0.8399  -14.5493 O   0  0  0  0  0  0  0  0  0  0  0  0
   18.4274   -0.0935  -15.9759 O   0  0  0  0  0  0  0  0  0  0  0  0
  2  1  1  1
  2  3  1  0
  3  4  1  0
  4  8  1  0
  5  4  2  0
  6  2  1  0
  7  6  2  0
  9 13  1  0
  9  6  1  0
 10  9  1  0
 11 12  1  0
 11 10  1  0
 12 13  1  0
 13 14  1  6
 14 18  1  0
 15 14  2  0
 17 16  1  1
 17 19  1  0
 18 17  1  0
 19 20  2  0
 19 21  1  0
M  END
$$$$
