DPA.pdb
     RDKit          3D

 21 21  0  0  1  0  0  0  0  0999 V2000
   17.8049  -12.0951  -15.8189 N   0  0  0  0  0  0  0  0  0  0  0  0
   17.6638  -10.7841  -16.4342 C   0  0  1  0  0  0  0  0  0  0  0  0
   16.4739  -10.0455  -15.8687 C   0  0  0  0  0  0  0  0  0  0  0  0
   15.1991  -10.7198  -16.1548 C   0  0  0  0  0  0  0  0  0  0  0  0
   15.0178  -11.2369  -17.2853 O   0  0  0  0  0  0  0  0  0  0  0  0
   18.9118  -10.0290  -16.1996 C   0  0  0  0  0  0  0  0  0  0  0  0
   19.3999   -9.9420  -15.0378 O   0  0  0  0  0  0  0  0  0  0  0  0
   14.1666  -10.8245  -15.2435 O   0  0  0  0  0  0  0  0  0  0  0  0
   19.6064   -9.3793  -17.2556 N   0  0  0  0  0  0  0  0  0  0  0  0
   19.2428   -9.4016  -18.6849 C   0  0  0  0  0  0  0  0  0  0  0  0
   20.6297   -9.2327  -19.3285 C   0  0  0  0  0  0  0  0  0  0  0  0
   21.1640   -8.1293  -18.4443 C   0  0  0  0  0  0  0  0  0  0  0  0
   20.8078   -8.6011  -17.0841 C   0  0  1  0  0  0  0  0  0  0  0  0
   20.6366   -7.5072  -16.1010 C   0  0  0  0  0  0  0  0  0  0  0  0
   19.5021   -6.9732  -16.0262 O   0  0  0  0  0  0  0  0  0  0  0  0
   22.2243   -6.0778  -13.0643 C   0  0  0  0  0  0  0  0  0  0  0  0
   21.3805   -5.9731  -14.3053 C   0  0  2  0  0  0  0  0  0  0  0  0
   21.6511   -7.0359  -15.2581 N   0  0  0  0  0  0  0  0  0  0  0  0
   21.5812   -4.6338  -14.9140 C   0  0  0  0  0  0  0  0  0  0  0  0
   22.2821   -4.5283  -15.9419 O   0  0  0  0  0  0  0  0  0  0  0  0
   20.9936   -3.5224  -14.3403 O   0  0  0  0  0  0  0  0  0  0  0  0
  2  1  1  1
  2  3  1  0
  3  4  1  0
  4  8  1  0
  5  4  2  0
  6  2  1  0
  7  6  2  0
  9 13  1  0
  9  6  1  0
 10  9  1  0
 11 12  1  0
 11 10  1  0
 12 13  1  0
 13 14  1  1
 14 18  1  0
 15 14  2  0
 17 16  1  1
 17 19  1  0
 18 17  1  0
 19 20  2  0
 19 21  1  0
M  END
$$$$
