DPA.pdb
     RDKit          3D

 21 21  0  0  1  0  0  0  0  0999 V2000
   17.4876  -12.2494  -15.1485 N   0  0  0  0  0  0  0  0  0  0  0  0
   17.5030  -10.9968  -15.8888 C   0  0  1  0  0  0  0  0  0  0  0  0
   16.2931  -10.1561  -15.5561 C   0  0  0  0  0  0  0  0  0  0  0  0
   15.0326  -10.7830  -15.9801 C   0  0  0  0  0  0  0  0  0  0  0  0
   14.0548  -10.7912  -15.1912 O   0  0  0  0  0  0  0  0  0  0  0  0
   18.7503  -10.2796  -15.5535 C   0  0  0  0  0  0  0  0  0  0  0  0
   19.0428  -10.0296  -14.3504 O   0  0  0  0  0  0  0  0  0  0  0  0
   14.8489  -11.3755  -17.2140 O   0  0  0  0  0  0  0  0  0  0  0  0
   19.6612   -9.8480  -16.5555 N   0  0  0  0  0  0  0  0  0  0  0  0
   19.5384  -10.0802  -18.0069 C   0  0  0  0  0  0  0  0  0  0  0  0
   21.0218  -10.0943  -18.4138 C   0  0  0  0  0  0  0  0  0  0  0  0
   21.4914   -8.8941  -17.6241 C   0  0  0  0  0  0  0  0  0  0  0  0
   20.8775   -9.1200  -16.2930 C   0  0  1  0  0  0  0  0  0  0  0  0
   20.6366   -7.8742  -15.5300 C   0  0  0  0  0  0  0  0  0  0  0  0
   19.5297   -7.3036  -15.6946 O   0  0  0  0  0  0  0  0  0  0  0  0
   21.9006   -5.9897  -12.5888 C   0  0  0  0  0  0  0  0  0  0  0  0
   21.2251   -6.0783  -13.9299 C   0  0  2  0  0  0  0  0  0  0  0  0
   21.5571   -7.2986  -14.6451 N   0  0  0  0  0  0  0  0  0  0  0  0
   21.5694   -4.8722  -14.7246 C   0  0  0  0  0  0  0  0  0  0  0  0
   22.2874   -4.9930  -15.7389 O   0  0  0  0  0  0  0  0  0  0  0  0
   21.0946   -3.6340  -14.3362 O   0  0  0  0  0  0  0  0  0  0  0  0
  2  1  1  1
  2  3  1  0
  3  4  1  0
  4  8  1  0
  5  4  2  0
  6  2  1  0
  7  6  2  0
  9 13  1  0
  9  6  1  0
 10  9  1  0
 11 12  1  0
 11 10  1  0
 12 13  1  0
 13 14  1  6
 14 18  1  0
 15 14  2  0
 17 16  1  1
 17 19  1  0
 18 17  1  0
 19 20  2  0
 19 21  1  0
M  END
$$$$
