MKT.pdb
     RDKit          3D

 25 24  0  0  1  0  0  0  0  0999 V2000
    7.1420  -11.4552   27.2138 C   0  0  0  0  0  0  0  0  0  0  0  0
    5.7177  -11.5428   26.0638 S   0  0  0  0  0  0  0  0  0  0  0  0
    5.5060  -13.2787   25.5761 C   0  0  0  0  0  0  0  0  0  0  0  0
    6.8280  -14.0254   25.6810 C   0  0  0  0  0  0  0  0  0  0  0  0
    6.6750  -15.2994   24.8923 C   0  0  2  0  0  0  0  0  0  0  0  0
    5.6032  -16.0849   25.4703 N   0  0  0  0  0  0  0  0  0  0  0  0
    7.8994  -16.1048   24.8392 C   0  0  0  0  0  0  0  0  0  0  0  0
    8.2177  -16.9674   25.6974 O   0  0  0  0  0  0  0  0  0  0  0  0
    8.8309  -15.9371   23.7576 N   0  0  0  0  0  0  0  0  0  0  0  0
   10.0767  -16.6985   23.6915 C   0  0  1  0  0  0  0  0  0  0  0  0
   10.6957  -16.6290   22.3259 C   0  0  0  0  0  0  0  0  0  0  0  0
    9.9162  -17.2181   21.2230 C   0  0  0  0  0  0  0  0  0  0  0  0
   10.5641  -17.0590   19.8814 C   0  0  0  0  0  0  0  0  0  0  0  0
    9.7563  -17.5259   18.7140 C   0  0  0  0  0  0  0  0  0  0  0  0
   10.1331  -18.7730   18.1440 N   0  0  0  0  0  0  0  0  0  0  0  0
   11.0058  -16.2768   24.7693 C   0  0  0  0  0  0  0  0  0  0  0  0
   11.8410  -15.3754   24.5350 O   0  0  0  0  0  0  0  0  0  0  0  0
   10.9471  -14.3264   27.6658 C   0  0  0  0  0  0  0  0  0  0  0  0
   11.2895  -15.7071   28.2299 C   0  0  1  0  0  0  0  0  0  0  0  0
   10.1051  -16.3365   28.6186 O   0  0  0  0  0  0  0  0  0  0  0  0
   11.9632  -16.4739   27.1030 C   0  0  2  0  0  0  0  0  0  0  0  0
   11.0103  -16.8380   26.0725 N   0  0  0  0  0  0  0  0  0  0  0  0
   12.5525  -17.6991   27.7111 C   0  0  0  0  0  0  0  0  0  0  0  0
   13.4545  -17.6370   28.5828 O   0  0  0  0  0  0  0  0  0  0  0  0
   12.1275  -18.9661   27.3384 O   0  0  0  0  0  0  0  0  0  0  0  0
  2  1  1  0
  3  2  1  0
  4  3  1  0
  5  7  1  0
  5  4  1  0
  5  6  1  1
  7  8  2  0
  9 10  1  0
  9  7  1  0
 10 11  1  6
 11 12  1  0
 12 13  1  0
 13 14  1  0
 15 14  1  0
 16 22  1  0
 16 10  1  0
 17 16  2  0
 19 18  1  6
 19 21  1  0
 20 19  1  0
 21 22  1  6
 23 21  1  0
 23 25  1  0
 24 23  2  0
M  END
$$$$
