MKT.pdb
     RDKit          3D

 25 24  0  0  1  0  0  0  0  0999 V2000
    6.4292  -11.6287   27.3025 C   0  0  0  0  0  0  0  0  0  0  0  0
    7.9312  -12.6359   27.5996 S   0  0  0  0  0  0  0  0  0  0  0  0
    7.6228  -14.2981   26.9377 C   0  0  0  0  0  0  0  0  0  0  0  0
    6.2872  -14.3410   26.2093 C   0  0  0  0  0  0  0  0  0  0  0  0
    6.1642  -15.7133   25.6010 C   0  0  2  0  0  0  0  0  0  0  0  0
    6.4156  -16.7066   26.6256 N   0  0  0  0  0  0  0  0  0  0  0  0
    7.0715  -15.9349   24.4703 C   0  0  0  0  0  0  0  0  0  0  0  0
    7.8282  -16.9329   24.3542 O   0  0  0  0  0  0  0  0  0  0  0  0
    7.1398  -14.9805   23.3979 N   0  0  0  0  0  0  0  0  0  0  0  0
    8.0446  -15.1616   22.2645 C   0  0  1  0  0  0  0  0  0  0  0  0
    7.9497  -14.0214   21.2931 C   0  0  0  0  0  0  0  0  0  0  0  0
    8.7755  -14.1265   20.0773 C   0  0  0  0  0  0  0  0  0  0  0  0
    8.0876  -13.6297   18.8425 C   0  0  0  0  0  0  0  0  0  0  0  0
    8.8461  -13.8017   17.5664 C   0  0  0  0  0  0  0  0  0  0  0  0
    8.1317  -13.5334   16.3664 N   0  0  0  0  0  0  0  0  0  0  0  0
    9.4308  -15.4061   22.7351 C   0  0  0  0  0  0  0  0  0  0  0  0
    9.8918  -14.7039   23.6621 O   0  0  0  0  0  0  0  0  0  0  0  0
   13.3888  -18.1661   23.3485 C   0  0  0  0  0  0  0  0  0  0  0  0
   11.9258  -18.0772   22.9084 C   0  0  1  0  0  0  0  0  0  0  0  0
   11.1178  -18.5374   23.9503 O   0  0  0  0  0  0  0  0  0  0  0  0
   11.6540  -16.6088   22.6230 C   0  0  2  0  0  0  0  0  0  0  0  0
   10.2844  -16.4020   22.1939 N   0  0  0  0  0  0  0  0  0  0  0  0
   12.5956  -16.2008   21.5437 C   0  0  0  0  0  0  0  0  0  0  0  0
   12.3832  -16.4832   20.3385 O   0  0  0  0  0  0  0  0  0  0  0  0
   13.7522  -15.4883   21.8257 O   0  0  0  0  0  0  0  0  0  0  0  0
  2  1  1  0
  3  2  1  0
  4  3  1  0
  5  7  1  0
  5  4  1  0
  5  6  1  1
  7  8  2  0
  9 10  1  0
  9  7  1  0
 10 11  1  6
 11 12  1  0
 12 13  1  0
 13 14  1  0
 15 14  1  0
 16 22  1  0
 16 10  1  0
 17 16  2  0
 19 18  1  1
 19 21  1  0
 20 19  1  0
 21 22  1  6
 23 21  1  0
 23 25  1  0
 24 23  2  0
M  END
$$$$
