MKT.pdb
     RDKit          3D

 25 24  0  0  1  0  0  0  0  0999 V2000
    7.7392  -11.6403   20.1178 C   0  0  0  0  0  0  0  0  0  0  0  0
    7.7817  -12.6588   18.5949 S   0  0  0  0  0  0  0  0  0  0  0  0
    7.8515  -14.4022   19.0967 C   0  0  0  0  0  0  0  0  0  0  0  0
    7.6506  -14.5312   20.5998 C   0  0  0  0  0  0  0  0  0  0  0  0
    7.7081  -16.0008   20.9245 C   0  0  2  0  0  0  0  0  0  0  0  0
    6.5770  -16.6638   20.3074 N   0  0  0  0  0  0  0  0  0  0  0  0
    7.7152  -16.2815   22.3640 C   0  0  0  0  0  0  0  0  0  0  0  0
    6.6917  -16.2610   23.0948 O   0  0  0  0  0  0  0  0  0  0  0  0
    8.9449  -16.6067   23.0329 N   0  0  0  0  0  0  0  0  0  0  0  0
    9.0235  -16.7108   24.4887 C   0  0  1  0  0  0  0  0  0  0  0  0
   10.0902  -17.6757   24.9175 C   0  0  0  0  0  0  0  0  0  0  0  0
   10.2399  -17.8838   26.3685 C   0  0  0  0  0  0  0  0  0  0  0  0
   11.3009  -18.8804   26.7232 C   0  0  0  0  0  0  0  0  0  0  0  0
   11.4191  -19.2093   28.1762 C   0  0  0  0  0  0  0  0  0  0  0  0
   12.3586  -20.2199   28.5203 N   0  0  0  0  0  0  0  0  0  0  0  0
    9.1781  -15.3682   25.1020 C   0  0  0  0  0  0  0  0  0  0  0  0
   10.1694  -14.6693   24.7955 O   0  0  0  0  0  0  0  0  0  0  0  0
    6.8878  -12.2895   25.2693 C   0  0  0  0  0  0  0  0  0  0  0  0
    7.1518  -12.7343   26.7095 C   0  0  1  0  0  0  0  0  0  0  0  0
    6.0877  -13.5340   27.1316 O   0  0  0  0  0  0  0  0  0  0  0  0
    8.4466  -13.5308   26.6801 C   0  0  2  0  0  0  0  0  0  0  0  0
    8.2595  -14.8135   26.0303 N   0  0  0  0  0  0  0  0  0  0  0  0
    8.8590  -13.7303   28.0972 C   0  0  0  0  0  0  0  0  0  0  0  0
    8.9254  -14.8737   28.6124 O   0  0  0  0  0  0  0  0  0  0  0  0
    9.1887  -12.6563   28.9113 O   0  0  0  0  0  0  0  0  0  0  0  0
  2  1  1  0
  3  2  1  0
  4  3  1  0
  5  7  1  0
  5  4  1  0
  5  6  1  6
  7  8  2  0
  9 10  1  0
  9  7  1  0
 10 11  1  6
 11 12  1  0
 12 13  1  0
 13 14  1  0
 15 14  1  0
 16 22  1  0
 16 10  1  0
 17 16  2  0
 19 18  1  6
 19 21  1  0
 20 19  1  0
 21 22  1  1
 23 21  1  0
 23 25  1  0
 24 23  2  0
M  END
$$$$
