MKT.pdb
     RDKit          3D

 25 24  0  0  1  0  0  0  0  0999 V2000
    8.5743  -11.8067   19.4560 C   0  0  0  0  0  0  0  0  0  0  0  0
    7.2878  -12.2252   18.2198 S   0  0  0  0  0  0  0  0  0  0  0  0
    7.6936  -13.8542   17.5284 C   0  0  0  0  0  0  0  0  0  0  0  0
    7.6072  -14.9255   18.6060 C   0  0  0  0  0  0  0  0  0  0  0  0
    9.0203  -15.3270   18.9383 C   0  0  2  0  0  0  0  0  0  0  0  0
    9.5787  -16.0556   17.8171 N   0  0  0  0  0  0  0  0  0  0  0  0
    9.1263  -16.1410   20.1536 C   0  0  0  0  0  0  0  0  0  0  0  0
    8.5474  -15.8740   21.2379 O   0  0  0  0  0  0  0  0  0  0  0  0
    9.9311  -17.3317   20.1604 N   0  0  0  0  0  0  0  0  0  0  0  0
    9.9533  -18.2377   21.3072 C   0  0  1  0  0  0  0  0  0  0  0  0
   10.7151  -19.4949   21.0044 C   0  0  0  0  0  0  0  0  0  0  0  0
   10.0588  -20.4569   20.1016 C   0  0  0  0  0  0  0  0  0  0  0  0
   10.9253  -21.6243   19.7399 C   0  0  0  0  0  0  0  0  0  0  0  0
   10.2936  -22.6481   18.8532 C   0  0  0  0  0  0  0  0  0  0  0  0
   11.0620  -23.8152   18.5894 N   0  0  0  0  0  0  0  0  0  0  0  0
   10.4507  -17.5378   22.5177 C   0  0  0  0  0  0  0  0  0  0  0  0
   11.5491  -16.9411   22.4678 O   0  0  0  0  0  0  0  0  0  0  0  0
    9.1579  -14.6951   24.5812 C   0  0  0  0  0  0  0  0  0  0  0  0
    9.2232  -15.8949   25.5288 C   0  0  1  0  0  0  0  0  0  0  0  0
    7.9639  -16.4968   25.5739 O   0  0  0  0  0  0  0  0  0  0  0  0
   10.2550  -16.8459   24.9435 C   0  0  2  0  0  0  0  0  0  0  0  0
    9.7506  -17.4991   23.7513 N   0  0  0  0  0  0  0  0  0  0  0  0
   10.5501  -17.8579   25.9956 C   0  0  0  0  0  0  0  0  0  0  0  0
   10.2698  -19.0726   25.8426 O   0  0  0  0  0  0  0  0  0  0  0  0
   11.1498  -17.4996   27.1943 O   0  0  0  0  0  0  0  0  0  0  0  0
  2  1  1  0
  3  2  1  0
  4  3  1  0
  5  7  1  0
  5  4  1  0
  5  6  1  6
  7  8  2  0
  9 10  1  0
  9  7  1  0
 10 11  1  6
 11 12  1  0
 12 13  1  0
 13 14  1  0
 15 14  1  0
 16 22  1  0
 16 10  1  0
 17 16  2  0
 19 18  1  6
 19 21  1  0
 20 19  1  0
 21 22  1  6
 23 21  1  0
 23 25  1  0
 24 23  2  0
M  END
$$$$
