MKT.pdb
     RDKit          3D

 25 24  0  0  1  0  0  0  0  0999 V2000
    9.1161  -12.5646   18.2033 C   0  0  0  0  0  0  0  0  0  0  0  0
    7.4463  -12.9981   18.8217 S   0  0  0  0  0  0  0  0  0  0  0  0
    7.6434  -14.2684   20.1037 C   0  0  0  0  0  0  0  0  0  0  0  0
    9.0920  -14.7294   20.1771 C   0  0  0  0  0  0  0  0  0  0  0  0
    9.1525  -15.8192   21.2150 C   0  0  2  0  0  0  0  0  0  0  0  0
    8.0350  -16.7203   21.0171 N   0  0  0  0  0  0  0  0  0  0  0  0
    9.1383  -15.3160   22.5925 C   0  0  0  0  0  0  0  0  0  0  0  0
   10.1203  -14.7692   23.1571 O   0  0  0  0  0  0  0  0  0  0  0  0
    7.9506  -15.4299   23.3936 N   0  0  0  0  0  0  0  0  0  0  0  0
    7.8665  -14.8458   24.7307 C   0  0  1  0  0  0  0  0  0  0  0  0
    6.5441  -14.1734   24.9586 C   0  0  0  0  0  0  0  0  0  0  0  0
    6.3150  -13.6186   26.3043 C   0  0  0  0  0  0  0  0  0  0  0  0
    5.8508  -12.1941   26.2926 C   0  0  0  0  0  0  0  0  0  0  0  0
    5.6123  -11.5809   27.6344 C   0  0  0  0  0  0  0  0  0  0  0  0
    5.1253  -10.2449   27.6403 N   0  0  0  0  0  0  0  0  0  0  0  0
    8.1853  -15.8601   25.7661 C   0  0  0  0  0  0  0  0  0  0  0  0
    8.1828  -15.5221   26.9707 O   0  0  0  0  0  0  0  0  0  0  0  0
    6.9116  -19.5919   26.0748 C   0  0  0  0  0  0  0  0  0  0  0  0
    8.4419  -19.5900   26.0756 C   0  0  1  0  0  0  0  0  0  0  0  0
    8.8890  -19.8876   24.7865 O   0  0  0  0  0  0  0  0  0  0  0  0
    8.8671  -18.1885   26.4839 C   0  0  2  0  0  0  0  0  0  0  0  0
    8.4984  -17.2133   25.4761 N   0  0  0  0  0  0  0  0  0  0  0  0
   10.3471  -18.2207   26.6478 C   0  0  0  0  0  0  0  0  0  0  0  0
   11.1061  -17.5067   25.9468 O   0  0  0  0  0  0  0  0  0  0  0  0
   10.9519  -19.0445   27.5860 O   0  0  0  0  0  0  0  0  0  0  0  0
  2  1  1  0
  3  2  1  0
  4  3  1  0
  5  7  1  0
  5  4  1  0
  5  6  1  1
  7  8  2  0
  9 10  1  0
  9  7  1  0
 10 11  1  1
 11 12  1  0
 12 13  1  0
 13 14  1  0
 15 14  1  0
 16 22  1  0
 16 10  1  0
 17 16  2  0
 19 18  1  6
 19 21  1  0
 20 19  1  0
 21 22  1  6
 23 21  1  0
 23 25  1  0
 24 23  2  0
M  END
$$$$
