MKT.pdb
     RDKit          3D

 25 24  0  0  1  0  0  0  0  0999 V2000
    6.9773  -11.1947   26.6049 C   0  0  0  0  0  0  0  0  0  0  0  0
    6.4235  -12.2752   27.9777 S   0  0  0  0  0  0  0  0  0  0  0  0
    6.0622  -13.9128   27.2820 C   0  0  0  0  0  0  0  0  0  0  0  0
    6.9572  -14.1901   26.0827 C   0  0  0  0  0  0  0  0  0  0  0  0
    6.5333  -15.5207   25.5185 C   0  0  2  0  0  0  0  0  0  0  0  0
    6.7440  -16.5456   26.5210 N   0  0  0  0  0  0  0  0  0  0  0  0
    7.2416  -15.8861   24.2875 C   0  0  0  0  0  0  0  0  0  0  0  0
    7.6726  -17.0403   24.0340 O   0  0  0  0  0  0  0  0  0  0  0  0
    7.4858  -14.8992   23.2716 N   0  0  0  0  0  0  0  0  0  0  0  0
    8.1084  -15.2473   21.9959 C   0  0  1  0  0  0  0  0  0  0  0  0
    7.8836  -14.1829   20.9619 C   0  0  0  0  0  0  0  0  0  0  0  0
    8.4199  -14.4535   19.6164 C   0  0  0  0  0  0  0  0  0  0  0  0
    8.0435  -13.4161   18.6030 C   0  0  0  0  0  0  0  0  0  0  0  0
    8.4161  -13.7278   17.1897 C   0  0  0  0  0  0  0  0  0  0  0  0
    8.0678  -12.7525   16.2153 N   0  0  0  0  0  0  0  0  0  0  0  0
    9.5434  -15.5749   22.1859 C   0  0  0  0  0  0  0  0  0  0  0  0
   10.2723  -14.7754   22.8141 O   0  0  0  0  0  0  0  0  0  0  0  0
   11.5171  -18.5429   23.7805 C   0  0  0  0  0  0  0  0  0  0  0  0
   11.7804  -18.4985   22.2736 C   0  0  1  0  0  0  0  0  0  0  0  0
   10.8703  -19.3448   21.6367 O   0  0  0  0  0  0  0  0  0  0  0  0
   11.5665  -17.0556   21.8449 C   0  0  2  0  0  0  0  0  0  0  0  0
   10.1557  -16.7564   21.6935 N   0  0  0  0  0  0  0  0  0  0  0  0
   12.2680  -16.8875   20.5419 C   0  0  0  0  0  0  0  0  0  0  0  0
   11.6412  -16.6625   19.4771 O   0  0  0  0  0  0  0  0  0  0  0  0
   13.6497  -16.9727   20.4495 O   0  0  0  0  0  0  0  0  0  0  0  0
  2  1  1  0
  3  2  1  0
  4  3  1  0
  5  7  1  0
  5  4  1  0
  5  6  1  1
  7  8  2  0
  9 10  1  0
  9  7  1  0
 10 11  1  6
 11 12  1  0
 12 13  1  0
 13 14  1  0
 15 14  1  0
 16 22  1  0
 16 10  1  0
 17 16  2  0
 19 18  1  1
 19 21  1  0
 20 19  1  0
 21 22  1  6
 23 21  1  0
 23 25  1  0
 24 23  2  0
M  END
$$$$
