MKT.pdb
     RDKit          3D

 25 24  0  0  1  0  0  0  0  0999 V2000
    7.5297  -11.2431   26.7389 C   0  0  0  0  0  0  0  0  0  0  0  0
    6.8670  -12.4549   27.9434 S   0  0  0  0  0  0  0  0  0  0  0  0
    6.2163  -13.8673   27.0066 C   0  0  0  0  0  0  0  0  0  0  0  0
    7.1342  -14.1991   25.8388 C   0  0  0  0  0  0  0  0  0  0  0  0
    6.4341  -15.2487   25.0162 C   0  0  2  0  0  0  0  0  0  0  0  0
    6.3693  -16.4789   25.7792 N   0  0  0  0  0  0  0  0  0  0  0  0
    7.0800  -15.5062   23.7249 C   0  0  0  0  0  0  0  0  0  0  0  0
    7.5653  -16.6155   23.3843 O   0  0  0  0  0  0  0  0  0  0  0  0
    7.1922  -14.4574   22.7487 N   0  0  0  0  0  0  0  0  0  0  0  0
    7.9095  -14.6525   21.4903 C   0  0  1  0  0  0  0  0  0  0  0  0
    7.8211  -13.4405   20.6094 C   0  0  0  0  0  0  0  0  0  0  0  0
    8.6784  -13.4382   19.4110 C   0  0  0  0  0  0  0  0  0  0  0  0
    8.0515  -14.1077   18.2262 C   0  0  0  0  0  0  0  0  0  0  0  0
    8.9122  -14.2052   17.0084 C   0  0  0  0  0  0  0  0  0  0  0  0
    8.3198  -14.8046   15.8631 N   0  0  0  0  0  0  0  0  0  0  0  0
    9.3074  -15.0809   21.7454 C   0  0  0  0  0  0  0  0  0  0  0  0
   10.0445  -14.3618   22.4557 O   0  0  0  0  0  0  0  0  0  0  0  0
   10.8759  -18.3551   23.1756 C   0  0  0  0  0  0  0  0  0  0  0  0
   11.3552  -18.1616   21.7352 C   0  0  1  0  0  0  0  0  0  0  0  0
   10.5199  -18.8899   20.8855 O   0  0  0  0  0  0  0  0  0  0  0  0
   11.2516  -16.6723   21.4470 C   0  0  2  0  0  0  0  0  0  0  0  0
    9.8746  -16.2743   21.2281 N   0  0  0  0  0  0  0  0  0  0  0  0
   12.0593  -16.4159   20.2223 C   0  0  0  0  0  0  0  0  0  0  0  0
   11.5280  -16.0575   19.1422 O   0  0  0  0  0  0  0  0  0  0  0  0
   13.4389  -16.5629   20.2233 O   0  0  0  0  0  0  0  0  0  0  0  0
  2  1  1  0
  3  2  1  0
  4  3  1  0
  5  7  1  0
  5  4  1  0
  5  6  1  1
  7  8  2  0
  9 10  1  0
  9  7  1  0
 10 11  1  1
 11 12  1  0
 12 13  1  0
 13 14  1  0
 15 14  1  0
 16 22  1  0
 16 10  1  0
 17 16  2  0
 19 18  1  1
 19 21  1  0
 20 19  1  0
 21 22  1  6
 23 21  1  0
 23 25  1  0
 24 23  2  0
M  END
$$$$
