MKT.pdb
     RDKit          3D

 25 24  0  0  1  0  0  0  0  0999 V2000
    8.5017  -12.1284   20.8958 C   0  0  0  0  0  0  0  0  0  0  0  0
    7.6113  -13.0599   19.5926 S   0  0  0  0  0  0  0  0  0  0  0  0
    7.5736  -14.8061   20.0880 C   0  0  0  0  0  0  0  0  0  0  0  0
    6.4299  -15.0584   21.0599 C   0  0  0  0  0  0  0  0  0  0  0  0
    6.4870  -16.5162   21.4341 C   0  0  2  0  0  0  0  0  0  0  0  0
    5.2966  -17.1766   20.9373 N   0  0  0  0  0  0  0  0  0  0  0  0
    6.6081  -16.7449   22.8776 C   0  0  0  0  0  0  0  0  0  0  0  0
    5.6864  -16.5365   23.7078 O   0  0  0  0  0  0  0  0  0  0  0  0
    7.8386  -17.2386   23.4324 N   0  0  0  0  0  0  0  0  0  0  0  0
    7.9888  -17.4923   24.8640 C   0  0  1  0  0  0  0  0  0  0  0  0
    8.3362  -18.9265   25.1382 C   0  0  0  0  0  0  0  0  0  0  0  0
    7.3179  -19.7232   25.8448 C   0  0  0  0  0  0  0  0  0  0  0  0
    7.7866  -21.0963   26.2187 C   0  0  0  0  0  0  0  0  0  0  0  0
    6.7641  -21.9752   26.8633 C   0  0  0  0  0  0  0  0  0  0  0  0
    6.1946  -22.9876   26.0430 N   0  0  0  0  0  0  0  0  0  0  0  0
    8.9534  -16.5386   25.4663 C   0  0  0  0  0  0  0  0  0  0  0  0
   10.0326  -16.3100   24.8762 O   0  0  0  0  0  0  0  0  0  0  0  0
    9.0273  -12.8932   26.4005 C   0  0  0  0  0  0  0  0  0  0  0  0
    9.1605  -13.6695   27.7126 C   0  0  1  0  0  0  0  0  0  0  0  0
    7.8938  -13.7963   28.2865 O   0  0  0  0  0  0  0  0  0  0  0  0
    9.7261  -15.0326   27.3468 C   0  0  2  0  0  0  0  0  0  0  0  0
    8.7294  -15.8555   26.6896 N   0  0  0  0  0  0  0  0  0  0  0  0
   10.1591  -15.6723   28.6202 C   0  0  0  0  0  0  0  0  0  0  0  0
    9.6679  -16.7584   29.0156 O   0  0  0  0  0  0  0  0  0  0  0  0
   11.1277  -15.0924   29.4266 O   0  0  0  0  0  0  0  0  0  0  0  0
  2  1  1  0
  3  2  1  0
  4  3  1  0
  5  7  1  0
  5  4  1  0
  5  6  1  1
  7  8  2  0
  9 10  1  0
  9  7  1  0
 10 11  1  6
 11 12  1  0
 12 13  1  0
 13 14  1  0
 15 14  1  0
 16 22  1  0
 16 10  1  0
 17 16  2  0
 19 18  1  6
 19 21  1  0
 20 19  1  0
 21 22  1  1
 23 21  1  0
 23 25  1  0
 24 23  2  0
M  END
$$$$
