MKT.pdb
     RDKit          3D

 25 24  0  0  1  0  0  0  0  0999 V2000
    6.6606  -10.5581   27.8886 C   0  0  0  0  0  0  0  0  0  0  0  0
    5.3957  -11.4616   26.9179 S   0  0  0  0  0  0  0  0  0  0  0  0
    6.1734  -12.0132   25.3728 C   0  0  0  0  0  0  0  0  0  0  0  0
    7.1949  -13.1061   25.6525 C   0  0  0  0  0  0  0  0  0  0  0  0
    6.8785  -14.2490   24.7239 C   0  0  2  0  0  0  0  0  0  0  0  0
    5.6651  -14.9000   25.1752 N   0  0  0  0  0  0  0  0  0  0  0  0
    7.9573  -15.2374   24.6247 C   0  0  0  0  0  0  0  0  0  0  0  0
    8.4549  -15.8442   25.6077 O   0  0  0  0  0  0  0  0  0  0  0  0
    8.5187  -15.5715   23.3445 N   0  0  0  0  0  0  0  0  0  0  0  0
    9.4805  -16.6608   23.1879 C   0  0  1  0  0  0  0  0  0  0  0  0
    9.9202  -16.8096   21.7606 C   0  0  0  0  0  0  0  0  0  0  0  0
    8.9319  -17.3773   20.8267 C   0  0  0  0  0  0  0  0  0  0  0  0
    9.4227  -17.4588   19.4135 C   0  0  0  0  0  0  0  0  0  0  0  0
    8.4840  -18.0929   18.4387 C   0  0  0  0  0  0  0  0  0  0  0  0
    8.8950  -18.0963   17.0774 N   0  0  0  0  0  0  0  0  0  0  0  0
   10.6166  -16.4955   24.1285 C   0  0  0  0  0  0  0  0  0  0  0  0
   11.3512  -15.4881   24.0247 O   0  0  0  0  0  0  0  0  0  0  0  0
   11.1909  -15.6725   27.5880 C   0  0  0  0  0  0  0  0  0  0  0  0
   11.6908  -17.1139   27.4680 C   0  0  1  0  0  0  0  0  0  0  0  0
   10.6485  -17.9776   27.8111 O   0  0  0  0  0  0  0  0  0  0  0  0
   12.0948  -17.3063   26.0149 C   0  0  2  0  0  0  0  0  0  0  0  0
   10.9313  -17.4207   25.1572 N   0  0  0  0  0  0  0  0  0  0  0  0
   12.8989  -18.5586   25.9563 C   0  0  0  0  0  0  0  0  0  0  0  0
   12.5305  -19.5506   25.2799 O   0  0  0  0  0  0  0  0  0  0  0  0
   14.0944  -18.6821   26.6495 O   0  0  0  0  0  0  0  0  0  0  0  0
  2  1  1  0
  3  2  1  0
  4  3  1  0
  5  7  1  0
  5  4  1  0
  5  6  1  1
  7  8  2  0
  9 10  1  0
  9  7  1  0
 10 11  1  6
 11 12  1  0
 12 13  1  0
 13 14  1  0
 15 14  1  0
 16 22  1  0
 16 10  1  0
 17 16  2  0
 19 18  1  6
 19 21  1  0
 20 19  1  0
 21 22  1  6
 23 21  1  0
 23 25  1  0
 24 23  2  0
M  END
$$$$
