MKT.pdb
     RDKit          3D

 25 24  0  0  1  0  0  0  0  0999 V2000
    7.7938  -11.6924   20.0063 C   0  0  0  0  0  0  0  0  0  0  0  0
    8.3857  -12.9765   18.8404 S   0  0  0  0  0  0  0  0  0  0  0  0
    7.3039  -14.4240   19.0154 C   0  0  0  0  0  0  0  0  0  0  0  0
    7.0965  -14.7581   20.4857 C   0  0  0  0  0  0  0  0  0  0  0  0
    8.0930  -15.8319   20.8354 C   0  0  2  0  0  0  0  0  0  0  0  0
    7.7257  -17.0557   20.1517 N   0  0  0  0  0  0  0  0  0  0  0  0
    8.1959  -16.0872   22.2759 C   0  0  0  0  0  0  0  0  0  0  0  0
    7.2368  -15.9871   23.0834 O   0  0  0  0  0  0  0  0  0  0  0  0
    9.4515  -16.4801   22.8545 N   0  0  0  0  0  0  0  0  0  0  0  0
    9.5774  -16.7951   24.2761 C   0  0  1  0  0  0  0  0  0  0  0  0
   10.6642  -17.7996   24.5261 C   0  0  0  0  0  0  0  0  0  0  0  0
   10.8802  -18.1951   25.9290 C   0  0  0  0  0  0  0  0  0  0  0  0
   11.1897  -19.6512   26.0988 C   0  0  0  0  0  0  0  0  0  0  0  0
   11.3048  -20.1272   27.5107 C   0  0  0  0  0  0  0  0  0  0  0  0
   11.4834  -21.5262   27.6926 N   0  0  0  0  0  0  0  0  0  0  0  0
    9.7418  -15.5549   25.0746 C   0  0  0  0  0  0  0  0  0  0  0  0
   10.7059  -14.7964   24.8295 O   0  0  0  0  0  0  0  0  0  0  0  0
    7.0212  -12.8455   26.0332 C   0  0  0  0  0  0  0  0  0  0  0  0
    7.6745  -13.3811   27.3092 C   0  0  1  0  0  0  0  0  0  0  0  0
    6.8581  -14.3806   27.8427 O   0  0  0  0  0  0  0  0  0  0  0  0
    9.0217  -13.9499   26.8931 C   0  0  2  0  0  0  0  0  0  0  0  0
    8.8619  -15.1643   26.1170 N   0  0  0  0  0  0  0  0  0  0  0  0
    9.7704  -14.2391   28.1477 C   0  0  0  0  0  0  0  0  0  0  0  0
   10.1269  -15.4043   28.4519 O   0  0  0  0  0  0  0  0  0  0  0  0
   10.1070  -13.2287   29.0368 O   0  0  0  0  0  0  0  0  0  0  0  0
  2  1  1  0
  3  2  1  0
  4  3  1  0
  5  7  1  0
  5  4  1  0
  5  6  1  6
  7  8  2  0
  9 10  1  0
  9  7  1  0
 10 11  1  6
 11 12  1  0
 12 13  1  0
 13 14  1  0
 15 14  1  0
 16 22  1  0
 16 10  1  0
 17 16  2  0
 19 18  1  6
 19 21  1  0
 20 19  1  0
 21 22  1  1
 23 21  1  0
 23 25  1  0
 24 23  2  0
M  END
$$$$
