MKT.pdb
     RDKit          3D

 25 24  0  0  1  0  0  0  0  0999 V2000
    6.3278  -11.3171   27.8598 C   0  0  0  0  0  0  0  0  0  0  0  0
    6.0098  -11.0315   26.0776 S   0  0  0  0  0  0  0  0  0  0  0  0
    5.7744  -12.6508   25.2910 C   0  0  0  0  0  0  0  0  0  0  0  0
    6.9807  -13.5442   25.5421 C   0  0  0  0  0  0  0  0  0  0  0  0
    6.7001  -14.8594   24.8639 C   0  0  2  0  0  0  0  0  0  0  0  0
    5.5028  -15.4393   25.4385 N   0  0  0  0  0  0  0  0  0  0  0  0
    7.8060  -15.8172   24.9656 C   0  0  0  0  0  0  0  0  0  0  0  0
    8.0422  -16.5215   25.9806 O   0  0  0  0  0  0  0  0  0  0  0  0
    8.7085  -16.0020   23.8624 N   0  0  0  0  0  0  0  0  0  0  0  0
    9.8272  -16.9399   23.9337 C   0  0  1  0  0  0  0  0  0  0  0  0
   10.4889  -17.1143   22.5978 C   0  0  0  0  0  0  0  0  0  0  0  0
   11.6201  -18.0570   22.5455 C   0  0  0  0  0  0  0  0  0  0  0  0
   12.2079  -18.2101   21.1759 C   0  0  0  0  0  0  0  0  0  0  0  0
   13.3358  -19.1838   21.0617 C   0  0  0  0  0  0  0  0  0  0  0  0
   13.8807  -19.3688   19.7613 N   0  0  0  0  0  0  0  0  0  0  0  0
   10.7774  -16.5412   25.0017 C   0  0  0  0  0  0  0  0  0  0  0  0
   11.4920  -15.5281   24.8338 O   0  0  0  0  0  0  0  0  0  0  0  0
   10.7308  -14.8740   27.9912 C   0  0  0  0  0  0  0  0  0  0  0  0
   11.2162  -16.2518   28.4473 C   0  0  1  0  0  0  0  0  0  0  0  0
   10.1097  -17.0060   28.8434 O   0  0  0  0  0  0  0  0  0  0  0  0
   11.8976  -16.8844   27.2442 C   0  0  2  0  0  0  0  0  0  0  0  0
   10.9327  -17.2453   26.2238 N   0  0  0  0  0  0  0  0  0  0  0  0
   12.5979  -18.1018   27.7398 C   0  0  0  0  0  0  0  0  0  0  0  0
   12.3150  -19.2482   27.3121 O   0  0  0  0  0  0  0  0  0  0  0  0
   13.5968  -18.0200   28.6992 O   0  0  0  0  0  0  0  0  0  0  0  0
  2  1  1  0
  3  2  1  0
  4  3  1  0
  5  7  1  0
  5  4  1  0
  5  6  1  1
  7  8  2  0
  9 10  1  0
  9  7  1  0
 10 11  1  6
 11 12  1  0
 12 13  1  0
 13 14  1  0
 15 14  1  0
 16 22  1  0
 16 10  1  0
 17 16  2  0
 19 18  1  6
 19 21  1  0
 20 19  1  0
 21 22  1  6
 23 21  1  0
 23 25  1  0
 24 23  2  0
M  END
$$$$
