QAP.pdb
     RDKit          3D

 22 22  0  0  1  0  0  0  0  0999 V2000
    9.6465  -12.3712   19.0734 N   0  0  0  0  0  0  0  0  0  0  0  0
    9.0922  -13.2998   18.1551 C   0  0  0  0  0  0  0  0  0  0  0  0
    9.7456  -13.5997   17.1264 O   0  0  0  0  0  0  0  0  0  0  0  0
    7.7654  -13.9231   18.3787 C   0  0  0  0  0  0  0  0  0  0  0  0
    7.2652  -13.6094   19.7661 C   0  0  0  0  0  0  0  0  0  0  0  0
    8.0914  -14.4174   20.7577 C   0  0  2  0  0  0  0  0  0  0  0  0
    8.2492  -15.7725   20.2937 N   0  0  0  0  0  0  0  0  0  0  0  0
    7.4986  -14.4202   22.1023 C   0  0  0  0  0  0  0  0  0  0  0  0
    6.9627  -13.3893   22.5723 O   0  0  0  0  0  0  0  0  0  0  0  0
    6.8372  -17.0755   24.6708 C   0  0  0  0  0  0  0  0  0  0  0  0
    6.9724  -15.6237   24.2557 C   0  0  2  0  0  0  0  0  0  0  0  0
    7.5235  -15.5913   22.8910 N   0  0  0  0  0  0  0  0  0  0  0  0
    7.9317  -14.9479   25.1607 C   0  0  0  0  0  0  0  0  0  0  0  0
    9.1792  -15.1546   24.9856 O   0  0  0  0  0  0  0  0  0  0  0  0
    7.5446  -14.0829   26.2143 N   0  0  0  0  0  0  0  0  0  0  0  0
    6.1521  -13.7114   26.5361 C   0  0  0  0  0  0  0  0  0  0  0  0
    6.3411  -12.2429   26.9754 C   0  0  0  0  0  0  0  0  0  0  0  0
    7.5556  -12.4009   27.8396 C   0  0  0  0  0  0  0  0  0  0  0  0
    8.4065  -13.4197   27.1411 C   0  0  1  0  0  0  0  0  0  0  0  0
    9.0166  -14.3691   28.1226 C   0  0  0  0  0  0  0  0  0  0  0  0
   10.0818  -13.8861   28.8699 O   0  0  0  0  0  0  0  0  0  0  0  0
    8.6391  -15.5312   28.3052 O   0  0  0  0  0  0  0  0  0  0  0  0
  2  3  2  0
  2  1  1  0
  4  2  1  0
  5  4  1  0
  6  5  1  0
  6  7  1  6
  8  6  1  0
  8  9  2  0
 11 10  1  1
 11 12  1  0
 12  8  1  0
 13 15  1  0
 13 11  1  0
 14 13  2  0
 15 16  1  0
 16 17  1  0
 18 19  1  0
 18 17  1  0
 19 15  1  0
 19 20  1  1
 20 22  2  0
 20 21  1  0
M  END
$$$$
