QAP.pdb
     RDKit          3D

 22 22  0  0  1  0  0  0  0  0999 V2000
   11.7175  -20.9166   22.6759 N   0  0  0  0  0  0  0  0  0  0  0  0
   12.6098  -20.3243   21.7453 C   0  0  0  0  0  0  0  0  0  0  0  0
   13.7487  -20.8286   21.5911 O   0  0  0  0  0  0  0  0  0  0  0  0
   12.2328  -19.1289   20.9531 C   0  0  0  0  0  0  0  0  0  0  0  0
   11.8031  -18.0084   21.8658 C   0  0  0  0  0  0  0  0  0  0  0  0
   10.3253  -17.7390   21.6163 C   0  0  2  0  0  0  0  0  0  0  0  0
   10.1340  -17.1558   20.3126 N   0  0  0  0  0  0  0  0  0  0  0  0
    9.7394  -16.8640   22.6411 C   0  0  0  0  0  0  0  0  0  0  0  0
    9.8031  -15.6167   22.5364 O   0  0  0  0  0  0  0  0  0  0  0  0
    7.3607  -17.3396   25.4523 C   0  0  0  0  0  0  0  0  0  0  0  0
    8.5090  -16.5748   24.8240 C   0  0  2  0  0  0  0  0  0  0  0  0
    9.0913  -17.4178   23.7670 N   0  0  0  0  0  0  0  0  0  0  0  0
    9.5493  -16.3319   25.8510 C   0  0  0  0  0  0  0  0  0  0  0  0
   10.5663  -17.1029   25.8781 O   0  0  0  0  0  0  0  0  0  0  0  0
    9.4812  -15.2906   26.8098 N   0  0  0  0  0  0  0  0  0  0  0  0
    8.4472  -14.2369   26.8430 C   0  0  0  0  0  0  0  0  0  0  0  0
    9.2828  -13.0299   27.3228 C   0  0  0  0  0  0  0  0  0  0  0  0
   10.0651  -13.6935   28.4158 C   0  0  0  0  0  0  0  0  0  0  0  0
   10.3793  -15.0658   27.8982 C   0  0  1  0  0  0  0  0  0  0  0  0
   10.2265  -16.0910   28.9764 C   0  0  0  0  0  0  0  0  0  0  0  0
    9.1288  -16.9344   28.8766 O   0  0  0  0  0  0  0  0  0  0  0  0
   11.0001  -16.2303   29.9296 O   0  0  0  0  0  0  0  0  0  0  0  0
  2  3  2  0
  2  1  1  0
  4  2  1  0
  5  4  1  0
  6  5  1  0
  6  7  1  6
  8  6  1  0
  8  9  2  0
 11 10  1  1
 11 12  1  0
 12  8  1  0
 13 15  1  0
 13 11  1  0
 14 13  2  0
 15 16  1  0
 16 17  1  0
 18 19  1  0
 18 17  1  0
 19 15  1  0
 19 20  1  1
 20 22  2  0
 20 21  1  0
M  END
$$$$
