QAP.pdb
     RDKit          3D

 22 22  0  0  1  0  0  0  0  0999 V2000
   14.5774  -18.6509   15.0807 N   0  0  0  0  0  0  0  0  0  0  0  0
   14.0855  -17.3424   14.8383 C   0  0  0  0  0  0  0  0  0  0  0  0
   14.4519  -16.7388   13.8007 O   0  0  0  0  0  0  0  0  0  0  0  0
   13.1526  -16.6720   15.7759 C   0  0  0  0  0  0  0  0  0  0  0  0
   12.1975  -17.6745   16.3726 C   0  0  0  0  0  0  0  0  0  0  0  0
   10.8150  -17.4105   15.7914 C   0  0  2  0  0  0  0  0  0  0  0  0
   10.9180  -17.0152   14.4095 N   0  0  0  0  0  0  0  0  0  0  0  0
   10.0814  -16.3853   16.5464 C   0  0  0  0  0  0  0  0  0  0  0  0
   10.3556  -15.1694   16.4156 O   0  0  0  0  0  0  0  0  0  0  0  0
    6.8361  -16.3778   18.3299 C   0  0  0  0  0  0  0  0  0  0  0  0
    8.2005  -15.7564   18.1050 C   0  0  2  0  0  0  0  0  0  0  0  0
    9.0499  -16.7560   17.4368 N   0  0  0  0  0  0  0  0  0  0  0  0
    8.8081  -15.4326   19.4173 C   0  0  0  0  0  0  0  0  0  0  0  0
    9.6835  -16.2303   19.8935 O   0  0  0  0  0  0  0  0  0  0  0  0
    8.4727  -14.2855   20.1787 N   0  0  0  0  0  0  0  0  0  0  0  0
    7.5545  -13.2161   19.7383 C   0  0  0  0  0  0  0  0  0  0  0  0
    8.2408  -11.9771   20.3541 C   0  0  0  0  0  0  0  0  0  0  0  0
    8.5555  -12.5230   21.7141 C   0  0  0  0  0  0  0  0  0  0  0  0
    8.9492  -13.9519   21.4838 C   0  0  1  0  0  0  0  0  0  0  0  0
    8.3726  -14.8413   22.5390 C   0  0  0  0  0  0  0  0  0  0  0  0
    9.0504  -14.8843   23.7494 O   0  0  0  0  0  0  0  0  0  0  0  0
    7.3526  -15.5249   22.4028 O   0  0  0  0  0  0  0  0  0  0  0  0
  2  3  2  0
  2  1  1  0
  4  2  1  0
  5  4  1  0
  6  5  1  0
  6  7  1  6
  8  6  1  0
  8  9  2  0
 11 10  1  1
 11 12  1  0
 12  8  1  0
 13 15  1  0
 13 11  1  0
 14 13  2  0
 15 16  1  0
 16 17  1  0
 18 19  1  0
 18 17  1  0
 19 15  1  0
 19 20  1  1
 20 22  2  0
 20 21  1  0
M  END
$$$$
