QAP.pdb
     RDKit          3D

 22 22  0  0  1  0  0  0  0  0999 V2000
   13.7673  -17.7168   21.8190 N   0  0  0  0  0  0  0  0  0  0  0  0
   13.0916  -18.3942   20.7713 C   0  0  0  0  0  0  0  0  0  0  0  0
   13.7346  -19.2003   20.0559 O   0  0  0  0  0  0  0  0  0  0  0  0
   11.6501  -18.1751   20.5010 C   0  0  0  0  0  0  0  0  0  0  0  0
   11.0964  -17.1222   21.4273 C   0  0  0  0  0  0  0  0  0  0  0  0
    9.6104  -16.9701   21.1317 C   0  0  2  0  0  0  0  0  0  0  0  0
    9.4142  -16.4075   19.8196 N   0  0  0  0  0  0  0  0  0  0  0  0
    8.9269  -16.1405   22.1336 C   0  0  0  0  0  0  0  0  0  0  0  0
    9.0959  -14.8990   22.1659 O   0  0  0  0  0  0  0  0  0  0  0  0
    6.3183  -16.8253   24.7510 C   0  0  0  0  0  0  0  0  0  0  0  0
    7.3544  -15.9340   24.0950 C   0  0  2  0  0  0  0  0  0  0  0  0
    8.0635  -16.7323   23.0816 N   0  0  0  0  0  0  0  0  0  0  0  0
    8.3370  -15.5000   25.1160 C   0  0  0  0  0  0  0  0  0  0  0  0
    9.4550  -16.1128   25.1807 O   0  0  0  0  0  0  0  0  0  0  0  0
    8.1076  -14.4413   26.0296 N   0  0  0  0  0  0  0  0  0  0  0  0
    6.8628  -13.6516   26.1147 C   0  0  0  0  0  0  0  0  0  0  0  0
    7.4306  -12.2569   26.4580 C   0  0  0  0  0  0  0  0  0  0  0  0
    8.4338  -12.6514   27.4995 C   0  0  0  0  0  0  0  0  0  0  0  0
    9.0155  -13.9466   27.0158 C   0  0  1  0  0  0  0  0  0  0  0  0
    9.1959  -14.9067   28.1484 C   0  0  0  0  0  0  0  0  0  0  0  0
    8.3557  -16.0113   28.1623 O   0  0  0  0  0  0  0  0  0  0  0  0
   10.0284  -14.7800   29.0523 O   0  0  0  0  0  0  0  0  0  0  0  0
  2  3  2  0
  2  1  1  0
  4  2  1  0
  5  4  1  0
  6  5  1  0
  6  7  1  6
  8  6  1  0
  8  9  2  0
 11 10  1  1
 11 12  1  0
 12  8  1  0
 13 15  1  0
 13 11  1  0
 14 13  2  0
 15 16  1  0
 16 17  1  0
 18 19  1  0
 18 17  1  0
 19 15  1  0
 19 20  1  1
 20 22  2  0
 20 21  1  0
M  END
$$$$
