QAP.pdb
     RDKit          3D

 22 22  0  0  1  0  0  0  0  0999 V2000
    7.8234  -12.4245   17.8706 N   0  0  0  0  0  0  0  0  0  0  0  0
    8.0579  -13.8178   17.7412 C   0  0  0  0  0  0  0  0  0  0  0  0
    8.3979  -14.2747   16.6228 O   0  0  0  0  0  0  0  0  0  0  0  0
    7.9123  -14.7448   18.8893 C   0  0  0  0  0  0  0  0  0  0  0  0
    9.2475  -14.9753   19.5506 C   0  0  0  0  0  0  0  0  0  0  0  0
    9.0512  -15.9957   20.6637 C   0  0  2  0  0  0  0  0  0  0  0  0
    8.3200  -17.1374   20.1755 N   0  0  0  0  0  0  0  0  0  0  0  0
    8.3577  -15.4234   21.8259 C   0  0  0  0  0  0  0  0  0  0  0  0
    8.1610  -14.1888   21.9152 O   0  0  0  0  0  0  0  0  0  0  0  0
    6.3977  -16.9058   24.6474 C   0  0  0  0  0  0  0  0  0  0  0  0
    7.1144  -15.7385   23.9979 C   0  0  2  0  0  0  0  0  0  0  0  0
    7.8992  -16.2602   22.8670 N   0  0  0  0  0  0  0  0  0  0  0  0
    8.0516  -15.1393   24.9770 C   0  0  0  0  0  0  0  0  0  0  0  0
    9.2786  -15.4890   24.9344 O   0  0  0  0  0  0  0  0  0  0  0  0
    7.6646  -14.1978   25.9630 N   0  0  0  0  0  0  0  0  0  0  0  0
    6.2805  -13.7411   26.2000 C   0  0  0  0  0  0  0  0  0  0  0  0
    6.5256  -12.2609   26.5666 C   0  0  0  0  0  0  0  0  0  0  0  0
    7.6921  -12.4287   27.4927 C   0  0  0  0  0  0  0  0  0  0  0  0
    8.5188  -13.5259   26.8905 C   0  0  1  0  0  0  0  0  0  0  0  0
    9.0367  -14.4466   27.9493 C   0  0  0  0  0  0  0  0  0  0  0  0
   10.0593  -13.9559   28.7492 O   0  0  0  0  0  0  0  0  0  0  0  0
    8.6195  -15.5918   28.1514 O   0  0  0  0  0  0  0  0  0  0  0  0
  2  3  2  0
  2  1  1  0
  4  2  1  0
  5  4  1  0
  6  5  1  0
  6  7  1  6
  8  6  1  0
  8  9  2  0
 11 10  1  1
 11 12  1  0
 12  8  1  0
 13 15  1  0
 13 11  1  0
 14 13  2  0
 15 16  1  0
 16 17  1  0
 18 19  1  0
 18 17  1  0
 19 15  1  0
 19 20  1  1
 20 22  2  0
 20 21  1  0
M  END
$$$$
