QAP.pdb
     RDKit          3D

 22 22  0  0  1  0  0  0  0  0999 V2000
   10.3153  -13.6035   19.0511 N   0  0  0  0  0  0  0  0  0  0  0  0
    9.2897  -13.5598   18.0718 C   0  0  0  0  0  0  0  0  0  0  0  0
    9.6026  -13.6596   16.8604 O   0  0  0  0  0  0  0  0  0  0  0  0
    7.8625  -13.3998   18.4412 C   0  0  0  0  0  0  0  0  0  0  0  0
    7.7038  -13.4127   19.9405 C   0  0  0  0  0  0  0  0  0  0  0  0
    7.6481  -14.8649   20.3952 C   0  0  2  0  0  0  0  0  0  0  0  0
    6.9351  -15.6658   19.4325 N   0  0  0  0  0  0  0  0  0  0  0  0
    7.0251  -15.0093   21.7181 C   0  0  0  0  0  0  0  0  0  0  0  0
    5.8548  -14.6119   21.9259 O   0  0  0  0  0  0  0  0  0  0  0  0
    7.1064  -17.1095   24.5624 C   0  0  0  0  0  0  0  0  0  0  0  0
    7.1981  -15.6533   24.1507 C   0  0  2  0  0  0  0  0  0  0  0  0
    7.7393  -15.6017   22.7827 N   0  0  0  0  0  0  0  0  0  0  0  0
    8.1439  -14.9534   25.0517 C   0  0  0  0  0  0  0  0  0  0  0  0
    9.3957  -15.1146   24.8601 O   0  0  0  0  0  0  0  0  0  0  0  0
    7.7394  -14.1130   26.1186 N   0  0  0  0  0  0  0  0  0  0  0  0
    6.3383  -13.8112   26.4738 C   0  0  0  0  0  0  0  0  0  0  0  0
    6.4657  -12.3372   26.9170 C   0  0  0  0  0  0  0  0  0  0  0  0
    7.7058  -12.4399   27.7526 C   0  0  0  0  0  0  0  0  0  0  0  0
    8.5890  -13.4129   27.0294 C   0  0  1  0  0  0  0  0  0  0  0  0
    9.2666  -14.3360   27.9916 C   0  0  0  0  0  0  0  0  0  0  0  0
   10.3249  -13.8056   28.7161 O   0  0  0  0  0  0  0  0  0  0  0  0
    8.9494  -15.5155   28.1771 O   0  0  0  0  0  0  0  0  0  0  0  0
  2  3  2  0
  2  1  1  0
  4  2  1  0
  5  4  1  0
  6  5  1  0
  6  7  1  6
  8  6  1  0
  8  9  2  0
 11 10  1  1
 11 12  1  0
 12  8  1  0
 13 15  1  0
 13 11  1  0
 14 13  2  0
 15 16  1  0
 16 17  1  0
 18 19  1  0
 18 17  1  0
 19 15  1  0
 19 20  1  1
 20 22  2  0
 20 21  1  0
M  END
$$$$
