QAP.pdb
     RDKit          3D

 22 22  0  0  1  0  0  0  0  0999 V2000
   12.6873  -15.5611   20.2681 N   0  0  0  0  0  0  0  0  0  0  0  0
   12.4239  -14.1753   20.1158 C   0  0  0  0  0  0  0  0  0  0  0  0
   13.3840  -13.3677   20.1493 O   0  0  0  0  0  0  0  0  0  0  0  0
   11.0481  -13.6584   19.9187 C   0  0  0  0  0  0  0  0  0  0  0  0
   10.0619  -14.7977   19.8655 C   0  0  0  0  0  0  0  0  0  0  0  0
    8.6683  -14.2062   19.7021 C   0  0  2  0  0  0  0  0  0  0  0  0
    8.7223  -13.0052   18.9075 N   0  0  0  0  0  0  0  0  0  0  0  0
    8.0326  -13.9166   20.9948 C   0  0  0  0  0  0  0  0  0  0  0  0
    8.0956  -12.7721   21.5017 O   0  0  0  0  0  0  0  0  0  0  0  0
    5.8372  -15.8775   23.3322 C   0  0  0  0  0  0  0  0  0  0  0  0
    6.7178  -14.6878   23.0046 C   0  0  2  0  0  0  0  0  0  0  0  0
    7.3365  -14.9292   21.6908 N   0  0  0  0  0  0  0  0  0  0  0  0
    7.7968  -14.5901   24.0157 C   0  0  0  0  0  0  0  0  0  0  0  0
    8.8828  -15.2277   23.8072 O   0  0  0  0  0  0  0  0  0  0  0  0
    7.6935  -13.8284   25.2063 N   0  0  0  0  0  0  0  0  0  0  0  0
    6.5962  -12.8908   25.5187 C   0  0  0  0  0  0  0  0  0  0  0  0
    7.3685  -11.7867   26.2736 C   0  0  0  0  0  0  0  0  0  0  0  0
    8.2259  -12.6460   27.1529 C   0  0  0  0  0  0  0  0  0  0  0  0
    8.6099  -13.8204   26.3025 C   0  0  1  0  0  0  0  0  0  0  0  0
    8.5571  -15.0904   27.0909 C   0  0  0  0  0  0  0  0  0  0  0  0
    9.5826  -15.2945   28.0036 O   0  0  0  0  0  0  0  0  0  0  0  0
    7.6764  -15.9499   26.9821 O   0  0  0  0  0  0  0  0  0  0  0  0
  2  3  2  0
  2  1  1  0
  4  2  1  0
  5  4  1  0
  6  5  1  0
  6  7  1  6
  8  6  1  0
  8  9  2  0
 11 10  1  1
 11 12  1  0
 12  8  1  0
 13 15  1  0
 13 11  1  0
 14 13  2  0
 15 16  1  0
 16 17  1  0
 18 19  1  0
 18 17  1  0
 19 15  1  0
 19 20  1  1
 20 22  2  0
 20 21  1  0
M  END
$$$$
