QAP.pdb
     RDKit          3D

 22 22  0  0  1  0  0  0  0  0999 V2000
   11.3577  -13.0878   20.1489 N   0  0  0  0  0  0  0  0  0  0  0  0
   10.6965  -13.5797   18.9939 C   0  0  0  0  0  0  0  0  0  0  0  0
   11.3072  -14.3724   18.2364 O   0  0  0  0  0  0  0  0  0  0  0  0
    9.3074  -13.1827   18.6600 C   0  0  0  0  0  0  0  0  0  0  0  0
    8.4393  -13.2232   19.8921 C   0  0  0  0  0  0  0  0  0  0  0  0
    8.2852  -14.6790   20.3112 C   0  0  2  0  0  0  0  0  0  0  0  0
    7.6620  -15.4415   19.2591 N   0  0  0  0  0  0  0  0  0  0  0  0
    7.5101  -14.8210   21.5515 C   0  0  0  0  0  0  0  0  0  0  0  0
    6.3544  -14.3454   21.6470 O   0  0  0  0  0  0  0  0  0  0  0  0
    7.2193  -17.0055   24.3561 C   0  0  0  0  0  0  0  0  0  0  0  0
    7.3697  -15.5493   23.9624 C   0  0  2  0  0  0  0  0  0  0  0  0
    8.0582  -15.4996   22.6621 N   0  0  0  0  0  0  0  0  0  0  0  0
    8.2178  -14.8612   24.9641 C   0  0  0  0  0  0  0  0  0  0  0  0
    9.4763  -15.0736   24.9416 O   0  0  0  0  0  0  0  0  0  0  0  0
    7.7121  -13.9784   25.9506 N   0  0  0  0  0  0  0  0  0  0  0  0
    6.2935  -13.5952   26.0963 C   0  0  0  0  0  0  0  0  0  0  0  0
    6.4380  -12.1211   26.5340 C   0  0  0  0  0  0  0  0  0  0  0  0
    7.5381  -12.2721   27.5408 C   0  0  0  0  0  0  0  0  0  0  0  0
    8.4602  -13.3055   26.9651 C   0  0  1  0  0  0  0  0  0  0  0  0
    8.9409  -14.2430   28.0268 C   0  0  0  0  0  0  0  0  0  0  0  0
    8.3487  -15.4979   28.0578 O   0  0  0  0  0  0  0  0  0  0  0  0
    9.8133  -13.9752   28.8595 O   0  0  0  0  0  0  0  0  0  0  0  0
  2  3  2  0
  2  1  1  0
  4  2  1  0
  5  4  1  0
  6  5  1  0
  6  7  1  6
  8  6  1  0
  8  9  2  0
 11 10  1  1
 11 12  1  0
 12  8  1  0
 13 15  1  0
 13 11  1  0
 14 13  2  0
 15 16  1  0
 16 17  1  0
 18 19  1  0
 18 17  1  0
 19 15  1  0
 19 20  1  1
 20 22  2  0
 20 21  1  0
M  END
$$$$
