QAP.pdb
     RDKit          3D

 22 22  0  0  1  0  0  0  0  0999 V2000
    8.3276  -12.5302   17.5549 N   0  0  0  0  0  0  0  0  0  0  0  0
    8.4462  -13.9258   17.3280 C   0  0  0  0  0  0  0  0  0  0  0  0
    8.8117  -14.3278   16.1967 O   0  0  0  0  0  0  0  0  0  0  0  0
    8.1504  -14.9181   18.3894 C   0  0  0  0  0  0  0  0  0  0  0  0
    7.7422  -14.2197   19.6618 C   0  0  0  0  0  0  0  0  0  0  0  0
    8.4125  -14.9352   20.8269 C   0  0  2  0  0  0  0  0  0  0  0  0
    8.5586  -16.3393   20.5373 N   0  0  0  0  0  0  0  0  0  0  0  0
    7.6719  -14.7635   22.0845 C   0  0  0  0  0  0  0  0  0  0  0  0
    7.2075  -13.6462   22.4111 O   0  0  0  0  0  0  0  0  0  0  0  0
    6.4735  -17.0540   24.8004 C   0  0  0  0  0  0  0  0  0  0  0  0
    6.9250  -15.6935   24.3070 C   0  0  2  0  0  0  0  0  0  0  0  0
    7.4706  -15.8610   22.9500 N   0  0  0  0  0  0  0  0  0  0  0  0
    8.0090  -15.1943   25.1856 C   0  0  0  0  0  0  0  0  0  0  0  0
    9.1990  -15.6047   24.9734 O   0  0  0  0  0  0  0  0  0  0  0  0
    7.8017  -14.2853   26.2529 N   0  0  0  0  0  0  0  0  0  0  0  0
    6.5351  -13.5778   26.5281 C   0  0  0  0  0  0  0  0  0  0  0  0
    7.0691  -12.2180   27.0290 C   0  0  0  0  0  0  0  0  0  0  0  0
    8.1577  -12.7030   27.9381 C   0  0  0  0  0  0  0  0  0  0  0  0
    8.7557  -13.8880   27.2396 C   0  0  1  0  0  0  0  0  0  0  0  0
    9.0533  -14.9859   28.2107 C   0  0  0  0  0  0  0  0  0  0  0  0
   10.1596  -14.8047   29.0288 O   0  0  0  0  0  0  0  0  0  0  0  0
    8.3896  -16.0215   28.3269 O   0  0  0  0  0  0  0  0  0  0  0  0
  2  3  2  0
  2  1  1  0
  4  2  1  0
  5  4  1  0
  6  5  1  0
  6  7  1  6
  8  6  1  0
  8  9  2  0
 11 10  1  1
 11 12  1  0
 12  8  1  0
 13 15  1  0
 13 11  1  0
 14 13  2  0
 15 16  1  0
 16 17  1  0
 18 19  1  0
 18 17  1  0
 19 15  1  0
 19 20  1  1
 20 22  2  0
 20 21  1  0
M  END
$$$$
