QAP.pdb
     RDKit          3D

 22 22  0  0  1  0  0  0  0  0999 V2000
    9.6108  -13.2669   17.7359 N   0  0  0  0  0  0  0  0  0  0  0  0
    8.4671  -14.0318   17.3896 C   0  0  0  0  0  0  0  0  0  0  0  0
    8.4310  -14.5964   16.2693 O   0  0  0  0  0  0  0  0  0  0  0  0
    7.3173  -14.1808   18.3140 C   0  0  0  0  0  0  0  0  0  0  0  0
    7.5410  -13.3693   19.5649 C   0  0  0  0  0  0  0  0  0  0  0  0
    8.2939  -14.2398   20.5619 C   0  0  2  0  0  0  0  0  0  0  0  0
    8.3889  -15.5931   20.0759 N   0  0  0  0  0  0  0  0  0  0  0  0
    7.6655  -14.2337   21.8902 C   0  0  0  0  0  0  0  0  0  0  0  0
    7.2476  -13.1678   22.4003 O   0  0  0  0  0  0  0  0  0  0  0  0
    6.7316  -16.8997   24.3707 C   0  0  0  0  0  0  0  0  0  0  0  0
    6.9999  -15.4560   23.9939 C   0  0  2  0  0  0  0  0  0  0  0  0
    7.5216  -15.4356   22.6175 N   0  0  0  0  0  0  0  0  0  0  0  0
    8.0406  -14.9054   24.8938 C   0  0  0  0  0  0  0  0  0  0  0  0
    9.2529  -15.2589   24.7067 O   0  0  0  0  0  0  0  0  0  0  0  0
    7.7685  -14.0067   25.9552 N   0  0  0  0  0  0  0  0  0  0  0  0
    6.4469  -13.4156   26.2459 C   0  0  0  0  0  0  0  0  0  0  0  0
    6.8616  -12.0064   26.7230 C   0  0  0  0  0  0  0  0  0  0  0  0
    8.0056  -12.3782   27.6172 C   0  0  0  0  0  0  0  0  0  0  0  0
    8.6984  -13.5114   26.9204 C   0  0  1  0  0  0  0  0  0  0  0  0
    9.1125  -14.5656   27.8972 C   0  0  0  0  0  0  0  0  0  0  0  0
   10.2286  -14.2854   28.6731 O   0  0  0  0  0  0  0  0  0  0  0  0
    8.5350  -15.6466   28.0526 O   0  0  0  0  0  0  0  0  0  0  0  0
  2  3  2  0
  2  1  1  0
  4  2  1  0
  5  4  1  0
  6  5  1  0
  6  7  1  6
  8  6  1  0
  8  9  2  0
 11 10  1  1
 11 12  1  0
 12  8  1  0
 13 15  1  0
 13 11  1  0
 14 13  2  0
 15 16  1  0
 16 17  1  0
 18 19  1  0
 18 17  1  0
 19 15  1  0
 19 20  1  1
 20 22  2  0
 20 21  1  0
M  END
$$$$
