QAP.pdb
     RDKit          3D

 22 22  0  0  1  0  0  0  0  0999 V2000
   12.5304  -14.3592   20.9792 N   0  0  0  0  0  0  0  0  0  0  0  0
   11.9347  -14.5317   19.7031 C   0  0  0  0  0  0  0  0  0  0  0  0
   12.1281  -15.6058   19.0833 O   0  0  0  0  0  0  0  0  0  0  0  0
   11.0925  -13.4794   19.0850 C   0  0  0  0  0  0  0  0  0  0  0  0
   10.0029  -13.0533   20.0359 C   0  0  0  0  0  0  0  0  0  0  0  0
    8.8711  -14.0674   19.9392 C   0  0  2  0  0  0  0  0  0  0  0  0
    8.0698  -13.8160   18.7682 N   0  0  0  0  0  0  0  0  0  0  0  0
    8.0166  -14.0619   21.1346 C   0  0  0  0  0  0  0  0  0  0  0  0
    7.1331  -13.1867   21.2909 O   0  0  0  0  0  0  0  0  0  0  0  0
    6.9487  -16.5217   23.6016 C   0  0  0  0  0  0  0  0  0  0  0  0
    7.3374  -15.0799   23.3402 C   0  0  2  0  0  0  0  0  0  0  0  0
    8.1781  -15.0483   22.1322 N   0  0  0  0  0  0  0  0  0  0  0  0
    8.1422  -14.5804   24.4800 C   0  0  0  0  0  0  0  0  0  0  0  0
    9.4040  -14.7734   24.4619 O   0  0  0  0  0  0  0  0  0  0  0  0
    7.5916  -13.8993   25.5941 N   0  0  0  0  0  0  0  0  0  0  0  0
    6.1581  -13.5958   25.7766 C   0  0  0  0  0  0  0  0  0  0  0  0
    6.2424  -12.2155   26.4645 C   0  0  0  0  0  0  0  0  0  0  0  0
    7.3343  -12.5007   27.4510 C   0  0  0  0  0  0  0  0  0  0  0  0
    8.3013  -13.3868   26.7234 C   0  0  1  0  0  0  0  0  0  0  0  0
    8.8026  -14.4768   27.6165 C   0  0  0  0  0  0  0  0  0  0  0  0
    9.7634  -14.1173   28.5513 O   0  0  0  0  0  0  0  0  0  0  0  0
    8.4225  -15.6516   27.5744 O   0  0  0  0  0  0  0  0  0  0  0  0
  2  3  2  0
  2  1  1  0
  4  2  1  0
  5  4  1  0
  6  5  1  0
  6  7  1  6
  8  6  1  0
  8  9  2  0
 11 10  1  1
 11 12  1  0
 12  8  1  0
 13 15  1  0
 13 11  1  0
 14 13  2  0
 15 16  1  0
 16 17  1  0
 18 19  1  0
 18 17  1  0
 19 15  1  0
 19 20  1  1
 20 22  2  0
 20 21  1  0
M  END
$$$$
