QAP.pdb
     RDKit          3D

 22 22  0  0  1  0  0  0  0  0999 V2000
    9.6803  -13.1491   16.8200 N   0  0  0  0  0  0  0  0  0  0  0  0
    8.7630  -13.9801   17.5136 C   0  0  0  0  0  0  0  0  0  0  0  0
    8.9373  -15.2229   17.4966 O   0  0  0  0  0  0  0  0  0  0  0  0
    7.6078  -13.4199   18.2555 C   0  0  0  0  0  0  0  0  0  0  0  0
    7.9363  -13.2947   19.7217 C   0  0  0  0  0  0  0  0  0  0  0  0
    7.9749  -14.6959   20.3164 C   0  0  2  0  0  0  0  0  0  0  0  0
    7.3548  -15.6392   19.4207 N   0  0  0  0  0  0  0  0  0  0  0  0
    7.3225  -14.7594   21.6315 C   0  0  0  0  0  0  0  0  0  0  0  0
    6.1978  -14.2387   21.8186 O   0  0  0  0  0  0  0  0  0  0  0  0
    7.1800  -16.9879   24.3718 C   0  0  0  0  0  0  0  0  0  0  0  0
    7.3246  -15.5163   24.0377 C   0  0  2  0  0  0  0  0  0  0  0  0
    7.9560  -15.4118   22.7120 N   0  0  0  0  0  0  0  0  0  0  0  0
    8.2210  -14.8793   25.0311 C   0  0  0  0  0  0  0  0  0  0  0  0
    9.4790  -15.0652   24.9197 O   0  0  0  0  0  0  0  0  0  0  0  0
    7.7623  -14.0736   26.1029 N   0  0  0  0  0  0  0  0  0  0  0  0
    6.3558  -13.6837   26.3270 C   0  0  0  0  0  0  0  0  0  0  0  0
    6.5390  -12.2528   26.8785 C   0  0  0  0  0  0  0  0  0  0  0  0
    7.6684  -12.5014   27.8321 C   0  0  0  0  0  0  0  0  0  0  0  0
    8.5540  -13.4969   27.1432 C   0  0  1  0  0  0  0  0  0  0  0  0
    9.0530  -14.5251   28.1080 C   0  0  0  0  0  0  0  0  0  0  0  0
   10.0625  -14.1240   28.9719 O   0  0  0  0  0  0  0  0  0  0  0  0
    8.6312  -15.6840   28.1818 O   0  0  0  0  0  0  0  0  0  0  0  0
  2  3  2  0
  2  1  1  0
  4  2  1  0
  5  4  1  0
  6  5  1  0
  6  7  1  6
  8  6  1  0
  8  9  2  0
 11 10  1  1
 11 12  1  0
 12  8  1  0
 13 15  1  0
 13 11  1  0
 14 13  2  0
 15 16  1  0
 16 17  1  0
 18 19  1  0
 18 17  1  0
 19 15  1  0
 19 20  1  1
 20 22  2  0
 20 21  1  0
M  END
$$$$
