GWK.pdb
     RDKit          3D

 28 29  0  0  1  0  0  0  0  0999 V2000
   28.3838  -22.5908  -14.8861 N   0  0  0  0  0  0  0  0  0  0  0  0
   28.1457  -21.3091  -14.2849 C   0  0  0  0  0  0  0  0  0  0  0  0
   27.2430  -21.5251  -13.1027 C   0  0  0  0  0  0  0  0  0  0  0  0
   26.5213  -22.5548  -13.0154 O   0  0  0  0  0  0  0  0  0  0  0  0
   27.1578  -20.5989  -12.0432 N   0  0  0  0  0  0  0  0  0  0  0  0
   26.2726  -20.7112  -10.9281 C   0  0  1  0  0  0  0  0  0  0  0  0
   26.6472  -19.9620   -9.7060 C   0  0  0  0  0  0  0  0  0  0  0  0
   27.8429  -20.4369   -8.9895 C   0  0  0  0  0  0  0  0  0  0  0  0
   28.9373  -21.1314   -9.4432 C   0  0  0  0  0  0  0  0  0  0  0  0
   29.7629  -21.3370   -8.3783 N   0  0  0  0  0  0  0  0  0  0  0  0
   29.2275  -20.7982   -7.2755 C   0  0  0  0  0  0  0  0  0  0  0  0
   29.6499  -20.7310   -5.9609 C   0  0  0  0  0  0  0  0  0  0  0  0
   28.8968  -20.1042   -4.9826 C   0  0  0  0  0  0  0  0  0  0  0  0
   27.7038  -19.5375   -5.3294 C   0  0  0  0  0  0  0  0  0  0  0  0
   27.2841  -19.6042   -6.6353 C   0  0  0  0  0  0  0  0  0  0  0  0
   28.0171  -20.2256   -7.6378 C   0  0  0  0  0  0  0  0  0  0  0  0
   24.8968  -20.2234  -11.3033 C   0  0  0  0  0  0  0  0  0  0  0  0
   24.8077  -19.0942  -11.8201 O   0  0  0  0  0  0  0  0  0  0  0  0
   23.7840  -21.0256  -11.0696 N   0  0  0  0  0  0  0  0  0  0  0  0
   22.4930  -20.6334  -11.6671 C   0  0  1  0  0  0  0  0  0  0  0  0
   22.2474  -21.5275  -12.8677 C   0  0  0  0  0  0  0  0  0  0  0  0
   22.1019  -20.7720  -14.1494 C   0  0  0  0  0  0  0  0  0  0  0  0
   21.9004  -21.7260  -15.3016 C   0  0  0  0  0  0  0  0  0  0  0  0
   21.8749  -21.0656  -16.6458 C   0  0  0  0  0  0  0  0  0  0  0  0
   21.7396  -22.1169  -17.6670 N   0  0  0  0  0  0  0  0  0  0  0  0
   21.4980  -20.8217  -10.5918 C   0  0  0  0  0  0  0  0  0  0  0  0
   20.3808  -20.0198  -10.4344 O   0  0  0  0  0  0  0  0  0  0  0  0
   21.6567  -21.7508   -9.7691 O   0  0  0  0  0  0  0  0  0  0  0  0
  1  2  1  0
  3  4  2  0
  3  2  1  0
  5  3  1  0
  6  5  1  0
  6  7  1  1
  8 16  1  0
  8  7  1  0
  9  8  2  0
 10  9  1  0
 10 11  1  0
 11 16  2  0
 12 11  1  0
 12 13  2  0
 13 14  1  0
 14 15  2  0
 16 15  1  0
 17 18  2  0
 17  6  1  0
 19 17  1  0
 20 21  1  6
 20 19  1  0
 22 23  1  0
 22 21  1  0
 24 23  1  0
 24 25  1  0
 26 20  1  0
 27 26  1  0
 28 26  2  0
M  END
$$$$
