GWK.pdb
     RDKit          3D

 28 29  0  0  1  0  0  0  0  0999 V2000
   20.0313  -22.1514  -14.4271 N   0  0  0  0  0  0  0  0  0  0  0  0
   20.9669  -22.3849  -13.3637 C   0  0  0  0  0  0  0  0  0  0  0  0
   22.3487  -22.2625  -13.9423 C   0  0  0  0  0  0  0  0  0  0  0  0
   22.5722  -21.5278  -14.9418 O   0  0  0  0  0  0  0  0  0  0  0  0
   23.4528  -22.9543  -13.4038 N   0  0  0  0  0  0  0  0  0  0  0  0
   24.7866  -22.8857  -13.9096 C   0  0  1  0  0  0  0  0  0  0  0  0
   25.8637  -22.6789  -12.9134 C   0  0  0  0  0  0  0  0  0  0  0  0
   25.9507  -21.3363  -12.3146 C   0  0  0  0  0  0  0  0  0  0  0  0
   25.5393  -20.8792  -11.0867 C   0  0  0  0  0  0  0  0  0  0  0  0
   25.8412  -19.5515  -11.0212 N   0  0  0  0  0  0  0  0  0  0  0  0
   26.4256  -19.1601  -12.1607 C   0  0  0  0  0  0  0  0  0  0  0  0
   26.9134  -17.9426  -12.5978 C   0  0  0  0  0  0  0  0  0  0  0  0
   27.4847  -17.7915  -13.8500 C   0  0  0  0  0  0  0  0  0  0  0  0
   27.5669  -18.8774  -14.6738 C   0  0  0  0  0  0  0  0  0  0  0  0
   27.0824  -20.0868  -14.2396 C   0  0  0  0  0  0  0  0  0  0  0  0
   26.5045  -20.2691  -12.9901 C   0  0  0  0  0  0  0  0  0  0  0  0
   25.1361  -24.1605  -14.6336 C   0  0  0  0  0  0  0  0  0  0  0  0
   24.4677  -25.1762  -14.3658 O   0  0  0  0  0  0  0  0  0  0  0  0
   26.1724  -24.1741  -15.5622 N   0  0  0  0  0  0  0  0  0  0  0  0
   26.2362  -25.2841  -16.5326 C   0  0  1  0  0  0  0  0  0  0  0  0
   25.2073  -25.0139  -17.6140 C   0  0  0  0  0  0  0  0  0  0  0  0
   24.2687  -26.1558  -17.8375 C   0  0  0  0  0  0  0  0  0  0  0  0
   23.2208  -26.1947  -16.7519 C   0  0  0  0  0  0  0  0  0  0  0  0
   22.2071  -27.2848  -16.9185 C   0  0  0  0  0  0  0  0  0  0  0  0
   22.6384  -28.4352  -16.1080 N   0  0  0  0  0  0  0  0  0  0  0  0
   27.6240  -25.2741  -17.0382 C   0  0  0  0  0  0  0  0  0  0  0  0
   28.2905  -26.4093  -17.4662 O   0  0  0  0  0  0  0  0  0  0  0  0
   28.2472  -24.1904  -17.0899 O   0  0  0  0  0  0  0  0  0  0  0  0
  1  2  1  0
  3  4  2  0
  3  2  1  0
  5  3  1  0
  6  5  1  0
  6  7  1  1
  8 16  1  0
  8  7  1  0
  9  8  2  0
 10  9  1  0
 10 11  1  0
 11 16  2  0
 12 11  1  0
 12 13  2  0
 13 14  1  0
 14 15  2  0
 16 15  1  0
 17 18  2  0
 17  6  1  0
 19 17  1  0
 20 21  1  6
 20 19  1  0
 22 23  1  0
 22 21  1  0
 24 23  1  0
 24 25  1  0
 26 20  1  0
 27 26  1  0
 28 26  2  0
M  END
$$$$
