GWK.pdb
     RDKit          3D

 28 29  0  0  1  0  0  0  0  0999 V2000
   31.5557  -21.4005  -10.2981 N   0  0  0  0  0  0  0  0  0  0  0  0
   30.5436  -20.3842  -10.3575 C   0  0  0  0  0  0  0  0  0  0  0  0
   29.2332  -21.0300  -10.0041 C   0  0  0  0  0  0  0  0  0  0  0  0
   29.1654  -22.2605   -9.7395 O   0  0  0  0  0  0  0  0  0  0  0  0
   28.0270  -20.3022   -9.9508 N   0  0  0  0  0  0  0  0  0  0  0  0
   26.7632  -20.8412   -9.5608 C   0  0  1  0  0  0  0  0  0  0  0  0
   26.1193  -20.2301   -8.3746 C   0  0  0  0  0  0  0  0  0  0  0  0
   27.0168  -19.5701   -7.4114 C   0  0  0  0  0  0  0  0  0  0  0  0
   27.5077  -18.2879   -7.3840 C   0  0  0  0  0  0  0  0  0  0  0  0
   28.3070  -18.1782   -6.2853 N   0  0  0  0  0  0  0  0  0  0  0  0
   28.3354  -19.3423   -5.6241 C   0  0  0  0  0  0  0  0  0  0  0  0
   28.9804  -19.7550   -4.4731 C   0  0  0  0  0  0  0  0  0  0  0  0
   28.8471  -21.0429   -3.9826 C   0  0  0  0  0  0  0  0  0  0  0  0
   28.0557  -21.9278   -4.6571 C   0  0  0  0  0  0  0  0  0  0  0  0
   27.4149  -21.5180   -5.8005 C   0  0  0  0  0  0  0  0  0  0  0  0
   27.5291  -20.2339   -6.3165 C   0  0  0  0  0  0  0  0  0  0  0  0
   25.7684  -20.7037  -10.6846 C   0  0  0  0  0  0  0  0  0  0  0  0
   25.7348  -19.6184  -11.2938 O   0  0  0  0  0  0  0  0  0  0  0  0
   24.9301  -21.7661  -11.0085 N   0  0  0  0  0  0  0  0  0  0  0  0
   24.3039  -21.7893  -12.3445 C   0  0  1  0  0  0  0  0  0  0  0  0
   24.3248  -23.2224  -12.8413 C   0  0  0  0  0  0  0  0  0  0  0  0
   23.5298  -23.4283  -14.0905 C   0  0  0  0  0  0  0  0  0  0  0  0
   24.4425  -23.4783  -15.2917 C   0  0  0  0  0  0  0  0  0  0  0  0
   23.7820  -23.9725  -16.5420 C   0  0  0  0  0  0  0  0  0  0  0  0
   23.2515  -25.3191  -16.2749 N   0  0  0  0  0  0  0  0  0  0  0  0
   22.9373  -21.2678  -12.1383 C   0  0  0  0  0  0  0  0  0  0  0  0
   22.1889  -20.6675  -13.1361 O   0  0  0  0  0  0  0  0  0  0  0  0
   22.4111  -21.3649  -11.0074 O   0  0  0  0  0  0  0  0  0  0  0  0
  1  2  1  0
  3  4  2  0
  3  2  1  0
  5  3  1  0
  6  5  1  0
  6  7  1  1
  8 16  1  0
  8  7  1  0
  9  8  2  0
 10  9  1  0
 10 11  1  0
 11 16  2  0
 12 11  1  0
 12 13  2  0
 13 14  1  0
 14 15  2  0
 16 15  1  0
 17 18  2  0
 17  6  1  0
 19 17  1  0
 20 21  1  1
 20 19  1  0
 22 23  1  0
 22 21  1  0
 24 23  1  0
 24 25  1  0
 26 20  1  0
 27 26  1  0
 28 26  2  0
M  END
$$$$
