GWK.pdb
     RDKit          3D

 28 29  0  0  1  0  0  0  0  0999 V2000
   28.6202  -22.4409  -15.8845 N   0  0  0  0  0  0  0  0  0  0  0  0
   28.1089  -21.2537  -15.2600 C   0  0  0  0  0  0  0  0  0  0  0  0
   27.2036  -21.6859  -14.1406 C   0  0  0  0  0  0  0  0  0  0  0  0
   26.6959  -22.8395  -14.1237 O   0  0  0  0  0  0  0  0  0  0  0  0
   26.8796  -20.8343  -13.0649 N   0  0  0  0  0  0  0  0  0  0  0  0
   25.9646  -21.1538  -12.0159 C   0  0  1  0  0  0  0  0  0  0  0  0
   26.2041  -20.5039  -10.7062 C   0  0  0  0  0  0  0  0  0  0  0  0
   27.4567  -20.8611  -10.0190 C   0  0  0  0  0  0  0  0  0  0  0  0
   28.5699  -21.5202  -10.4797 C   0  0  0  0  0  0  0  0  0  0  0  0
   29.4525  -21.6074   -9.4446 N   0  0  0  0  0  0  0  0  0  0  0  0
   28.9346  -21.0283   -8.3538 C   0  0  0  0  0  0  0  0  0  0  0  0
   29.4097  -20.8502   -7.0678 C   0  0  0  0  0  0  0  0  0  0  0  0
   28.6640  -20.2043   -6.0964 C   0  0  0  0  0  0  0  0  0  0  0  0
   27.4249  -19.7311   -6.4209 C   0  0  0  0  0  0  0  0  0  0  0  0
   26.9529  -19.9079   -7.6983 C   0  0  0  0  0  0  0  0  0  0  0  0
   27.6771  -20.5512   -8.6934 C   0  0  0  0  0  0  0  0  0  0  0  0
   24.5618  -20.7720  -12.4134 C   0  0  0  0  0  0  0  0  0  0  0  0
   24.3852  -19.6293  -12.8749 O   0  0  0  0  0  0  0  0  0  0  0  0
   23.5206  -21.6824  -12.2596 N   0  0  0  0  0  0  0  0  0  0  0  0
   22.1811  -21.3135  -12.7568 C   0  0  1  0  0  0  0  0  0  0  0  0
   21.3314  -22.5700  -12.7753 C   0  0  0  0  0  0  0  0  0  0  0  0
   19.9301  -22.3311  -13.2380 C   0  0  0  0  0  0  0  0  0  0  0  0
   19.5447  -23.3424  -14.2901 C   0  0  0  0  0  0  0  0  0  0  0  0
   18.1855  -23.1237  -14.8804 C   0  0  0  0  0  0  0  0  0  0  0  0
   17.9507  -24.1743  -15.8841 N   0  0  0  0  0  0  0  0  0  0  0  0
   21.6862  -20.2937  -11.8097 C   0  0  0  0  0  0  0  0  0  0  0  0
   20.9297  -19.1989  -12.1907 O   0  0  0  0  0  0  0  0  0  0  0  0
   21.9553  -20.4087  -10.5933 O   0  0  0  0  0  0  0  0  0  0  0  0
  1  2  1  0
  3  4  2  0
  3  2  1  0
  5  3  1  0
  6  5  1  0
  6  7  1  1
  8 16  1  0
  8  7  1  0
  9  8  2  0
 10  9  1  0
 10 11  1  0
 11 16  2  0
 12 11  1  0
 12 13  2  0
 13 14  1  0
 14 15  2  0
 16 15  1  0
 17 18  2  0
 17  6  1  0
 19 17  1  0
 20 21  1  1
 20 19  1  0
 22 23  1  0
 22 21  1  0
 24 23  1  0
 24 25  1  0
 26 20  1  0
 27 26  1  0
 28 26  2  0
M  END
$$$$
