GWK.pdb
     RDKit          3D

 28 29  0  0  1  0  0  0  0  0999 V2000
   29.1636  -21.3091  -15.1855 N   0  0  0  0  0  0  0  0  0  0  0  0
   28.4689  -20.2848  -14.4582 C   0  0  0  0  0  0  0  0  0  0  0  0
   27.5009  -20.9656  -13.5317 C   0  0  0  0  0  0  0  0  0  0  0  0
   27.0884  -22.1334  -13.7662 O   0  0  0  0  0  0  0  0  0  0  0  0
   27.0102  -20.3414  -12.3668 N   0  0  0  0  0  0  0  0  0  0  0  0
   26.0768  -20.9256  -11.4573 C   0  0  1  0  0  0  0  0  0  0  0  0
   26.1919  -20.5196  -10.0370 C   0  0  0  0  0  0  0  0  0  0  0  0
   27.4268  -20.9193   -9.3413 C   0  0  0  0  0  0  0  0  0  0  0  0
   28.4894  -21.6743   -9.7736 C   0  0  0  0  0  0  0  0  0  0  0  0
   29.3768  -21.7615   -8.7426 N   0  0  0  0  0  0  0  0  0  0  0  0
   28.9106  -21.0904   -7.6817 C   0  0  0  0  0  0  0  0  0  0  0  0
   29.4115  -20.8729   -6.4117 C   0  0  0  0  0  0  0  0  0  0  0  0
   28.7209  -20.1268   -5.4718 C   0  0  0  0  0  0  0  0  0  0  0  0
   27.5112  -19.5923   -5.8120 C   0  0  0  0  0  0  0  0  0  0  0  0
   27.0136  -19.8083   -7.0736 C   0  0  0  0  0  0  0  0  0  0  0  0
   27.6827  -20.5516   -8.0370 C   0  0  0  0  0  0  0  0  0  0  0  0
   24.6668  -20.5873  -11.8681 C   0  0  0  0  0  0  0  0  0  0  0  0
   24.4235  -19.4041  -12.1697 O   0  0  0  0  0  0  0  0  0  0  0  0
   23.6920  -21.5799  -11.9004 N   0  0  0  0  0  0  0  0  0  0  0  0
   22.4401  -21.3162  -12.6357 C   0  0  1  0  0  0  0  0  0  0  0  0
   21.7944  -22.6534  -12.9458 C   0  0  0  0  0  0  0  0  0  0  0  0
   20.4380  -22.5280  -13.5615 C   0  0  0  0  0  0  0  0  0  0  0  0
   19.8403  -23.8936  -13.7984 C   0  0  0  0  0  0  0  0  0  0  0  0
   18.4681  -23.8654  -14.3985 C   0  0  0  0  0  0  0  0  0  0  0  0
   17.9534  -25.2442  -14.4226 N   0  0  0  0  0  0  0  0  0  0  0  0
   21.6297  -20.4784  -11.7284 C   0  0  0  0  0  0  0  0  0  0  0  0
   21.8734  -20.3644  -10.3706 O   0  0  0  0  0  0  0  0  0  0  0  0
   20.6668  -19.8293  -12.1940 O   0  0  0  0  0  0  0  0  0  0  0  0
  1  2  1  0
  3  4  2  0
  3  2  1  0
  5  3  1  0
  6  5  1  0
  6  7  1  1
  8 16  1  0
  8  7  1  0
  9  8  2  0
 10  9  1  0
 10 11  1  0
 11 16  2  0
 12 11  1  0
 12 13  2  0
 13 14  1  0
 14 15  2  0
 16 15  1  0
 17 18  2  0
 17  6  1  0
 19 17  1  0
 20 21  1  1
 20 19  1  0
 22 23  1  0
 22 21  1  0
 24 23  1  0
 24 25  1  0
 26 20  1  0
 27 26  1  0
 28 26  2  0
M  END
$$$$
