GWK.pdb
     RDKit          3D

 28 29  0  0  1  0  0  0  0  0999 V2000
   28.4838  -21.6636  -15.3476 N   0  0  0  0  0  0  0  0  0  0  0  0
   28.0897  -20.5955  -14.4731 C   0  0  0  0  0  0  0  0  0  0  0  0
   27.1542  -21.1725  -13.4479 C   0  0  0  0  0  0  0  0  0  0  0  0
   26.6167  -22.2997  -13.6197 O   0  0  0  0  0  0  0  0  0  0  0  0
   26.8334  -20.4918  -12.2558 N   0  0  0  0  0  0  0  0  0  0  0  0
   25.9079  -20.9565  -11.2724 C   0  0  1  0  0  0  0  0  0  0  0  0
   26.1074  -20.4647   -9.8891 C   0  0  0  0  0  0  0  0  0  0  0  0
   27.4070  -20.7713   -9.2679 C   0  0  0  0  0  0  0  0  0  0  0  0
   28.4244  -21.5926   -9.6877 C   0  0  0  0  0  0  0  0  0  0  0  0
   29.4102  -21.5374   -8.7480 N   0  0  0  0  0  0  0  0  0  0  0  0
   29.0491  -20.7133   -7.7562 C   0  0  0  0  0  0  0  0  0  0  0  0
   29.6729  -20.3175   -6.5877 C   0  0  0  0  0  0  0  0  0  0  0  0
   29.0761  -19.4345   -5.7038 C   0  0  0  0  0  0  0  0  0  0  0  0
   27.8365  -18.9428   -5.9974 C   0  0  0  0  0  0  0  0  0  0  0  0
   27.2168  -19.3359   -7.1581 C   0  0  0  0  0  0  0  0  0  0  0  0
   27.7898  -20.2193   -8.0634 C   0  0  0  0  0  0  0  0  0  0  0  0
   24.5034  -20.5612  -11.6501 C   0  0  0  0  0  0  0  0  0  0  0  0
   24.2935  -19.3621  -11.9111 O   0  0  0  0  0  0  0  0  0  0  0  0
   23.4971  -21.5212  -11.6977 N   0  0  0  0  0  0  0  0  0  0  0  0
   22.2598  -21.2108  -12.4396 C   0  0  1  0  0  0  0  0  0  0  0  0
   21.8687  -22.4473  -13.2264 C   0  0  0  0  0  0  0  0  0  0  0  0
   20.5667  -22.3041  -13.9469 C   0  0  0  0  0  0  0  0  0  0  0  0
   20.2906  -23.5308  -14.7818 C   0  0  0  0  0  0  0  0  0  0  0  0
   21.2804  -23.7570  -15.8831 C   0  0  0  0  0  0  0  0  0  0  0  0
   20.8581  -24.9485  -16.6370 N   0  0  0  0  0  0  0  0  0  0  0  0
   21.2712  -20.8464  -11.4043 C   0  0  0  0  0  0  0  0  0  0  0  0
   21.2582  -21.3933  -10.1328 O   0  0  0  0  0  0  0  0  0  0  0  0
   20.3902  -19.9995  -11.6726 O   0  0  0  0  0  0  0  0  0  0  0  0
  1  2  1  0
  3  4  2  0
  3  2  1  0
  5  3  1  0
  6  5  1  0
  6  7  1  1
  8 16  1  0
  8  7  1  0
  9  8  2  0
 10  9  1  0
 10 11  1  0
 11 16  2  0
 12 11  1  0
 12 13  2  0
 13 14  1  0
 14 15  2  0
 16 15  1  0
 17 18  2  0
 17  6  1  0
 19 17  1  0
 20 21  1  1
 20 19  1  0
 22 23  1  0
 22 21  1  0
 24 23  1  0
 24 25  1  0
 26 20  1  0
 27 26  1  0
 28 26  2  0
M  END
$$$$
