GWK.pdb
     RDKit          3D

 28 29  0  0  1  0  0  0  0  0999 V2000
   28.3504  -21.3560  -15.7424 N   0  0  0  0  0  0  0  0  0  0  0  0
   27.5134  -22.5196  -15.8202 C   0  0  0  0  0  0  0  0  0  0  0  0
   26.6460  -22.5354  -14.5928 C   0  0  0  0  0  0  0  0  0  0  0  0
   26.0689  -23.5916  -14.2182 O   0  0  0  0  0  0  0  0  0  0  0  0
   26.4355  -21.3844  -13.8066 N   0  0  0  0  0  0  0  0  0  0  0  0
   25.6687  -21.3456  -12.6024 C   0  0  1  0  0  0  0  0  0  0  0  0
   26.0964  -20.3674  -11.5750 C   0  0  0  0  0  0  0  0  0  0  0  0
   27.3394  -20.6823  -10.8507 C   0  0  0  0  0  0  0  0  0  0  0  0
   28.5381  -21.1725  -11.3077 C   0  0  0  0  0  0  0  0  0  0  0  0
   29.3668  -21.2971  -10.2327 N   0  0  0  0  0  0  0  0  0  0  0  0
   28.7330  -20.9041   -9.1205 C   0  0  0  0  0  0  0  0  0  0  0  0
   29.1159  -20.8354   -7.7939 C   0  0  0  0  0  0  0  0  0  0  0  0
   28.2555  -20.3838   -6.8075 C   0  0  0  0  0  0  0  0  0  0  0  0
   26.9941  -19.9962   -7.1583 C   0  0  0  0  0  0  0  0  0  0  0  0
   26.6136  -20.0642   -8.4761 C   0  0  0  0  0  0  0  0  0  0  0  0
   27.4537  -20.5125   -9.4869 C   0  0  0  0  0  0  0  0  0  0  0  0
   24.2307  -21.0153  -12.9103 C   0  0  0  0  0  0  0  0  0  0  0  0
   24.0112  -20.1848  -13.8115 O   0  0  0  0  0  0  0  0  0  0  0  0
   23.2055  -21.6305  -12.1983 N   0  0  0  0  0  0  0  0  0  0  0  0
   21.8136  -21.4205  -12.6414 C   0  0  1  0  0  0  0  0  0  0  0  0
   20.9512  -22.4760  -11.9757 C   0  0  0  0  0  0  0  0  0  0  0  0
   19.4997  -22.3535  -12.3114 C   0  0  0  0  0  0  0  0  0  0  0  0
   18.7024  -23.4128  -11.5899 C   0  0  0  0  0  0  0  0  0  0  0  0
   17.2360  -23.3887  -11.8946 C   0  0  0  0  0  0  0  0  0  0  0  0
   16.9623  -24.4308  -12.8973 N   0  0  0  0  0  0  0  0  0  0  0  0
   21.4776  -20.0462  -12.2171 C   0  0  0  0  0  0  0  0  0  0  0  0
   20.6991  -19.1825  -12.9680 O   0  0  0  0  0  0  0  0  0  0  0  0
   21.9111  -19.6220  -11.1228 O   0  0  0  0  0  0  0  0  0  0  0  0
  1  2  1  0
  3  4  2  0
  3  2  1  0
  5  3  1  0
  6  5  1  0
  6  7  1  1
  8 16  1  0
  8  7  1  0
  9  8  2  0
 10  9  1  0
 10 11  1  0
 11 16  2  0
 12 11  1  0
 12 13  2  0
 13 14  1  0
 14 15  2  0
 16 15  1  0
 17 18  2  0
 17  6  1  0
 19 17  1  0
 20 21  1  1
 20 19  1  0
 22 23  1  0
 22 21  1  0
 24 23  1  0
 24 25  1  0
 26 20  1  0
 27 26  1  0
 28 26  2  0
M  END
$$$$
