GWK.pdb
     RDKit          3D

 28 29  0  0  1  0  0  0  0  0999 V2000
   28.2946  -21.6682  -14.2736 N   0  0  0  0  0  0  0  0  0  0  0  0
   28.0188  -20.6091  -13.3447 C   0  0  0  0  0  0  0  0  0  0  0  0
   27.2009  -21.1907  -12.2258 C   0  0  0  0  0  0  0  0  0  0  0  0
   26.5399  -22.2518  -12.3873 O   0  0  0  0  0  0  0  0  0  0  0  0
   27.1314  -20.5874  -10.9535 N   0  0  0  0  0  0  0  0  0  0  0  0
   26.1373  -20.8698   -9.9678 C   0  0  1  0  0  0  0  0  0  0  0  0
   26.3669  -20.3103   -8.6152 C   0  0  0  0  0  0  0  0  0  0  0  0
   27.7149  -20.4957   -8.0518 C   0  0  0  0  0  0  0  0  0  0  0  0
   28.8326  -21.0857   -8.5890 C   0  0  0  0  0  0  0  0  0  0  0  0
   29.8248  -21.0087   -7.6576 N   0  0  0  0  0  0  0  0  0  0  0  0
   29.3712  -20.3934   -6.5581 C   0  0  0  0  0  0  0  0  0  0  0  0
   29.9606  -20.0701   -5.3501 C   0  0  0  0  0  0  0  0  0  0  0  0
   29.2623  -19.4186   -4.3476 C   0  0  0  0  0  0  0  0  0  0  0  0
   27.9549  -19.0878   -4.5612 C   0  0  0  0  0  0  0  0  0  0  0  0
   27.3693  -19.4089   -5.7611 C   0  0  0  0  0  0  0  0  0  0  0  0
   28.0436  -20.0615   -6.7848 C   0  0  0  0  0  0  0  0  0  0  0  0
   24.7983  -20.3380  -10.4102 C   0  0  0  0  0  0  0  0  0  0  0  0
   24.6772  -19.1039  -10.5209 O   0  0  0  0  0  0  0  0  0  0  0  0
   23.7527  -21.2162  -10.6786 N   0  0  0  0  0  0  0  0  0  0  0  0
   22.6875  -20.7837  -11.6038 C   0  0  1  0  0  0  0  0  0  0  0  0
   23.1137  -21.1610  -13.0099 C   0  0  0  0  0  0  0  0  0  0  0  0
   21.9643  -21.3498  -13.9470 C   0  0  0  0  0  0  0  0  0  0  0  0
   22.4638  -21.7085  -15.3255 C   0  0  0  0  0  0  0  0  0  0  0  0
   23.1511  -20.5850  -16.0390 C   0  0  0  0  0  0  0  0  0  0  0  0
   23.5202  -21.0576  -17.3832 N   0  0  0  0  0  0  0  0  0  0  0  0
   21.4746  -21.4975  -11.1552 C   0  0  0  0  0  0  0  0  0  0  0  0
   20.2252  -20.9071  -11.0748 O   0  0  0  0  0  0  0  0  0  0  0  0
   21.5615  -22.7014  -10.8259 O   0  0  0  0  0  0  0  0  0  0  0  0
  1  2  1  0
  3  4  2  0
  3  2  1  0
  5  3  1  0
  6  5  1  0
  6  7  1  1
  8 16  1  0
  8  7  1  0
  9  8  2  0
 10  9  1  0
 10 11  1  0
 11 16  2  0
 12 11  1  0
 12 13  2  0
 13 14  1  0
 14 15  2  0
 16 15  1  0
 17 18  2  0
 17  6  1  0
 19 17  1  0
 20 21  1  6
 20 19  1  0
 22 23  1  0
 22 21  1  0
 24 23  1  0
 24 25  1  0
 26 20  1  0
 27 26  1  0
 28 26  2  0
M  END
$$$$
