GWK.pdb
     RDKit          3D

 28 29  0  0  1  0  0  0  0  0999 V2000
   31.4410  -26.2069  -15.4285 N   0  0  0  0  0  0  0  0  0  0  0  0
   30.6919  -25.6876  -16.5375 C   0  0  0  0  0  0  0  0  0  0  0  0
   29.2421  -25.9953  -16.2873 C   0  0  0  0  0  0  0  0  0  0  0  0
   28.8999  -26.9533  -15.5429 O   0  0  0  0  0  0  0  0  0  0  0  0
   28.2027  -25.2380  -16.8648 N   0  0  0  0  0  0  0  0  0  0  0  0
   26.8147  -25.3933  -16.5664 C   0  0  1  0  0  0  0  0  0  0  0  0
   25.9523  -24.2090  -16.7880 C   0  0  0  0  0  0  0  0  0  0  0  0
   24.5696  -24.3055  -16.2902 C   0  0  0  0  0  0  0  0  0  0  0  0
   24.0887  -24.4111  -15.0083 C   0  0  0  0  0  0  0  0  0  0  0  0
   22.7294  -24.4791  -15.0845 N   0  0  0  0  0  0  0  0  0  0  0  0
   22.3411  -24.4202  -16.3647 C   0  0  0  0  0  0  0  0  0  0  0  0
   21.1004  -24.4500  -16.9738 C   0  0  0  0  0  0  0  0  0  0  0  0
   20.9596  -24.3734  -18.3491 C   0  0  0  0  0  0  0  0  0  0  0  0
   22.0796  -24.2654  -19.1226 C   0  0  0  0  0  0  0  0  0  0  0  0
   23.3121  -24.2357  -18.5177 C   0  0  0  0  0  0  0  0  0  0  0  0
   23.4849  -24.3107  -17.1419 C   0  0  0  0  0  0  0  0  0  0  0  0
   26.2212  -26.4961  -17.4049 C   0  0  0  0  0  0  0  0  0  0  0  0
   26.5683  -26.5617  -18.5987 O   0  0  0  0  0  0  0  0  0  0  0  0
   25.3207  -27.3944  -16.8405 N   0  0  0  0  0  0  0  0  0  0  0  0
   24.8492  -28.5289  -17.6580 C   0  0  1  0  0  0  0  0  0  0  0  0
   25.2152  -29.8083  -16.9300 C   0  0  0  0  0  0  0  0  0  0  0  0
   26.6282  -30.2382  -17.1611 C   0  0  0  0  0  0  0  0  0  0  0  0
   26.8958  -31.5551  -16.4737 C   0  0  0  0  0  0  0  0  0  0  0  0
   28.2733  -32.0967  -16.7036 C   0  0  0  0  0  0  0  0  0  0  0  0
   28.3772  -33.3879  -16.0047 N   0  0  0  0  0  0  0  0  0  0  0  0
   23.3907  -28.3319  -17.7851 C   0  0  0  0  0  0  0  0  0  0  0  0
   22.6417  -28.8226  -18.8406 O   0  0  0  0  0  0  0  0  0  0  0  0
   22.7822  -27.6894  -16.9007 O   0  0  0  0  0  0  0  0  0  0  0  0
  1  2  1  0
  3  4  2  0
  3  2  1  0
  5  3  1  0
  6  5  1  0
  6  7  1  6
  8 16  1  0
  8  7  1  0
  9  8  2  0
 10  9  1  0
 10 11  1  0
 11 16  2  0
 12 11  1  0
 12 13  2  0
 13 14  1  0
 14 15  2  0
 16 15  1  0
 17 18  2  0
 17  6  1  0
 19 17  1  0
 20 21  1  1
 20 19  1  0
 22 23  1  0
 22 21  1  0
 24 23  1  0
 24 25  1  0
 26 20  1  0
 27 26  1  0
 28 26  2  0
M  END
$$$$
