GWK.pdb
     RDKit          3D

 28 29  0  0  1  0  0  0  0  0999 V2000
   27.5923  -21.9792  -15.1483 N   0  0  0  0  0  0  0  0  0  0  0  0
   28.1920  -21.5564  -13.9145 C   0  0  0  0  0  0  0  0  0  0  0  0
   27.1605  -21.7152  -12.8329 C   0  0  0  0  0  0  0  0  0  0  0  0
   26.4543  -22.7564  -12.7557 O   0  0  0  0  0  0  0  0  0  0  0  0
   26.9321  -20.7203  -11.8604 N   0  0  0  0  0  0  0  0  0  0  0  0
   26.0157  -20.8365  -10.7713 C   0  0  1  0  0  0  0  0  0  0  0  0
   26.3174  -20.0348   -9.5624 C   0  0  0  0  0  0  0  0  0  0  0  0
   27.6025  -20.3120   -8.8986 C   0  0  0  0  0  0  0  0  0  0  0  0
   28.7610  -20.8600   -9.3920 C   0  0  0  0  0  0  0  0  0  0  0  0
   29.6590  -20.9113   -8.3678 N   0  0  0  0  0  0  0  0  0  0  0  0
   29.1071  -20.4167   -7.2524 C   0  0  0  0  0  0  0  0  0  0  0  0
   29.5799  -20.2466   -5.9645 C   0  0  0  0  0  0  0  0  0  0  0  0
   28.7942  -19.6998   -4.9641 C   0  0  0  0  0  0  0  0  0  0  0  0
   27.5170  -19.3191   -5.2612 C   0  0  0  0  0  0  0  0  0  0  0  0
   27.0473  -19.4880   -6.5406 C   0  0  0  0  0  0  0  0  0  0  0  0
   27.8111  -20.0330   -7.5642 C   0  0  0  0  0  0  0  0  0  0  0  0
   24.6339  -20.4201  -11.2057 C   0  0  0  0  0  0  0  0  0  0  0  0
   24.5389  -19.4218  -11.9436 O   0  0  0  0  0  0  0  0  0  0  0  0
   23.5221  -21.1426  -10.7832 N   0  0  0  0  0  0  0  0  0  0  0  0
   22.2604  -21.0006  -11.5352 C   0  0  1  0  0  0  0  0  0  0  0  0
   21.4445  -22.2600  -11.3133 C   0  0  0  0  0  0  0  0  0  0  0  0
   20.0478  -22.1613  -11.8370 C   0  0  0  0  0  0  0  0  0  0  0  0
   19.9646  -22.7479  -13.2253 C   0  0  0  0  0  0  0  0  0  0  0  0
   18.6134  -22.6280  -13.8605 C   0  0  0  0  0  0  0  0  0  0  0  0
   17.6947  -23.5327  -13.1505 N   0  0  0  0  0  0  0  0  0  0  0  0
   21.6180  -19.7899  -10.9844 C   0  0  0  0  0  0  0  0  0  0  0  0
   20.7553  -18.9851  -11.7083 O   0  0  0  0  0  0  0  0  0  0  0  0
   21.8543  -19.4579   -9.8015 O   0  0  0  0  0  0  0  0  0  0  0  0
  1  2  1  0
  3  4  2  0
  3  2  1  0
  5  3  1  0
  6  5  1  0
  6  7  1  1
  8 16  1  0
  8  7  1  0
  9  8  2  0
 10  9  1  0
 10 11  1  0
 11 16  2  0
 12 11  1  0
 12 13  2  0
 13 14  1  0
 14 15  2  0
 16 15  1  0
 17 18  2  0
 17  6  1  0
 19 17  1  0
 20 21  1  1
 20 19  1  0
 22 23  1  0
 22 21  1  0
 24 23  1  0
 24 25  1  0
 26 20  1  0
 27 26  1  0
 28 26  2  0
M  END
$$$$
