GWK.pdb
     RDKit          3D

 28 29  0  0  1  0  0  0  0  0999 V2000
   28.5826  -22.1449  -15.0438 N   0  0  0  0  0  0  0  0  0  0  0  0
   28.0113  -20.9631  -14.4625 C   0  0  0  0  0  0  0  0  0  0  0  0
   27.0492  -21.4042  -13.3953 C   0  0  0  0  0  0  0  0  0  0  0  0
   26.3530  -22.4453  -13.5376 O   0  0  0  0  0  0  0  0  0  0  0  0
   26.8776  -20.6855  -12.1946 N   0  0  0  0  0  0  0  0  0  0  0  0
   25.8929  -20.9753  -11.2017 C   0  0  1  0  0  0  0  0  0  0  0  0
   26.1502  -20.4516   -9.8398 C   0  0  0  0  0  0  0  0  0  0  0  0
   27.4492  -20.8009   -9.2402 C   0  0  0  0  0  0  0  0  0  0  0  0
   28.4859  -21.5537   -9.7346 C   0  0  0  0  0  0  0  0  0  0  0  0
   29.4613  -21.5835   -8.7828 N   0  0  0  0  0  0  0  0  0  0  0  0
   29.0749  -20.8786   -7.7118 C   0  0  0  0  0  0  0  0  0  0  0  0
   29.6797  -20.6011   -6.5000 C   0  0  0  0  0  0  0  0  0  0  0  0
   29.0577  -19.8301   -5.5326 C   0  0  0  0  0  0  0  0  0  0  0  0
   27.8120  -19.3314   -5.7858 C   0  0  0  0  0  0  0  0  0  0  0  0
   27.2112  -19.6069   -6.9896 C   0  0  0  0  0  0  0  0  0  0  0  0
   27.8096  -20.3764   -7.9785 C   0  0  0  0  0  0  0  0  0  0  0  0
   24.5566  -20.4122  -11.6124 C   0  0  0  0  0  0  0  0  0  0  0  0
   24.5049  -19.2008  -11.8950 O   0  0  0  0  0  0  0  0  0  0  0  0
   23.4378  -21.2380  -11.6655 N   0  0  0  0  0  0  0  0  0  0  0  0
   22.1906  -20.7006  -12.2429 C   0  0  1  0  0  0  0  0  0  0  0  0
   21.9646  -21.3862  -13.5771 C   0  0  0  0  0  0  0  0  0  0  0  0
   21.2319  -22.6840  -13.4600 C   0  0  0  0  0  0  0  0  0  0  0  0
   21.8789  -23.7330  -14.3314 C   0  0  0  0  0  0  0  0  0  0  0  0
   21.3255  -23.8001  -15.7217 C   0  0  0  0  0  0  0  0  0  0  0  0
   22.1093  -24.7915  -16.4762 N   0  0  0  0  0  0  0  0  0  0  0  0
   21.1422  -21.0084  -11.2489 C   0  0  0  0  0  0  0  0  0  0  0  0
   21.2632  -22.0012  -10.2919 O   0  0  0  0  0  0  0  0  0  0  0  0
   20.0804  -20.3466  -11.2567 O   0  0  0  0  0  0  0  0  0  0  0  0
  1  2  1  0
  3  4  2  0
  3  2  1  0
  5  3  1  0
  6  5  1  0
  6  7  1  1
  8 16  1  0
  8  7  1  0
  9  8  2  0
 10  9  1  0
 10 11  1  0
 11 16  2  0
 12 11  1  0
 12 13  2  0
 13 14  1  0
 14 15  2  0
 16 15  1  0
 17 18  2  0
 17  6  1  0
 19 17  1  0
 20 21  1  6
 20 19  1  0
 22 23  1  0
 22 21  1  0
 24 23  1  0
 24 25  1  0
 26 20  1  0
 27 26  1  0
 28 26  2  0
M  END
$$$$
