VHI.pdb
     RDKit          3D

 26 26  0  0  1  0  0  0  0  0999 V2000
    8.3916  -12.4913   21.0391 C   0  0  0  0  0  0  0  0  0  0  0  0
    7.9255  -13.1615   19.7586 C   0  0  1  0  0  0  0  0  0  0  0  0
    8.2456  -12.2581   18.5953 C   0  0  0  0  0  0  0  0  0  0  0  0
    8.7072  -14.4489   19.6242 C   0  0  2  0  0  0  0  0  0  0  0  0
    8.4358  -15.1246   18.3834 N   0  0  0  0  0  0  0  0  0  0  0  0
    8.4537  -15.3824   20.7523 C   0  0  0  0  0  0  0  0  0  0  0  0
    7.3409  -16.0048   20.8468 O   0  0  0  0  0  0  0  0  0  0  0  0
    9.4064  -15.6148   21.7412 N   0  0  0  0  0  0  0  0  0  0  0  0
    9.1529  -16.6236   22.8583 C   0  0  1  0  0  0  0  0  0  0  0  0
   10.2123  -17.6520   22.7046 C   0  0  0  0  0  0  0  0  0  0  0  0
   10.0603  -18.6686   21.6644 C   0  0  0  0  0  0  0  0  0  0  0  0
    9.1465  -18.7917   20.6499 C   0  0  0  0  0  0  0  0  0  0  0  0
    9.4499  -19.8472   19.8523 N   0  0  0  0  0  0  0  0  0  0  0  0
   10.5526  -20.3812   20.3678 C   0  0  0  0  0  0  0  0  0  0  0  0
   10.9413  -19.7044   21.4447 N   0  0  0  0  0  0  0  0  0  0  0  0
    9.3252  -15.7468   24.0767 C   0  0  0  0  0  0  0  0  0  0  0  0
   10.3407  -14.9463   24.0049 O   0  0  0  0  0  0  0  0  0  0  0  0
    6.1293  -12.2400   25.7431 C   0  0  0  0  0  0  0  0  0  0  0  0
    7.3500  -13.0523   25.5498 C   0  0  0  0  0  0  0  0  0  0  0  0
    7.8659  -13.8712   26.6611 C   0  0  2  0  0  0  0  0  0  0  0  0
    8.1340  -12.9868   27.8918 C   0  0  0  0  0  0  0  0  0  0  0  0
    8.8987  -14.8656   26.4271 C   0  0  2  0  0  0  0  0  0  0  0  0
    8.5472  -15.6989   25.2240 N   0  0  0  0  0  0  0  0  0  0  0  0
    9.5482  -15.6516   27.4347 C   0  0  0  0  0  0  0  0  0  0  0  0
    9.2442  -16.8888   27.5893 O   0  0  0  0  0  0  0  0  0  0  0  0
   10.5223  -15.2241   28.3062 O   0  0  0  0  0  0  0  0  0  0  0  0
  2  4  1  0
  2  1  1  1
  3  2  1  0
  4  6  1  0
  4  5  1  6
  6  7  2  0
  8  6  1  0
  8  9  1  0
  9 16  1  0
  9 10  1  1
 10 11  1  0
 11 12  2  0
 12 13  1  0
 14 13  1  0
 15 11  1  0
 15 14  2  0
 16 17  2  0
 19 20  1  0
 19 18  1  0
 20 22  1  0
 20 21  1  1
 22 23  1  6
 22 24  1  0
 23 16  1  0
 24 25  2  0
 24 26  1  0
M  END
$$$$
