VHI.pdb
     RDKit          3D

 26 26  0  0  1  0  0  0  0  0999 V2000
    5.2711  -20.5282   25.7451 C   0  0  0  0  0  0  0  0  0  0  0  0
    6.4147  -19.5532   25.5267 C   0  0  1  0  0  0  0  0  0  0  0  0
    7.4148  -19.7227   26.6416 C   0  0  0  0  0  0  0  0  0  0  0  0
    7.0629  -19.9205   24.2108 C   0  0  2  0  0  0  0  0  0  0  0  0
    7.4054  -21.3162   24.1426 N   0  0  0  0  0  0  0  0  0  0  0  0
    8.2756  -19.1075   23.9338 C   0  0  0  0  0  0  0  0  0  0  0  0
    9.4402  -19.5589   24.2069 O   0  0  0  0  0  0  0  0  0  0  0  0
    8.1943  -17.8358   23.3720 N   0  0  0  0  0  0  0  0  0  0  0  0
    9.4489  -17.0033   23.1213 C   0  0  1  0  0  0  0  0  0  0  0  0
    9.2727  -16.4291   21.7639 C   0  0  0  0  0  0  0  0  0  0  0  0
   10.3452  -15.6087   21.2024 C   0  0  0  0  0  0  0  0  0  0  0  0
   11.6235  -15.3733   21.6383 C   0  0  0  0  0  0  0  0  0  0  0  0
   12.3090  -14.6212   20.7401 N   0  0  0  0  0  0  0  0  0  0  0  0
   11.4598  -14.3887   19.7444 C   0  0  0  0  0  0  0  0  0  0  0  0
   10.2845  -14.9618   19.9878 N   0  0  0  0  0  0  0  0  0  0  0  0
    9.3411  -15.9860   24.2333 C   0  0  0  0  0  0  0  0  0  0  0  0
    8.3697  -15.1436   24.0782 O   0  0  0  0  0  0  0  0  0  0  0  0
    6.3708  -13.5009   25.7390 C   0  0  0  0  0  0  0  0  0  0  0  0
    7.7421  -13.9761   25.4544 C   0  0  0  0  0  0  0  0  0  0  0  0
    8.6140  -14.3982   26.5650 C   0  0  2  0  0  0  0  0  0  0  0  0
    8.3826  -13.4989   27.7924 C   0  0  0  0  0  0  0  0  0  0  0  0
   10.0141  -14.7048   26.3281 C   0  0  2  0  0  0  0  0  0  0  0  0
   10.1329  -15.8549   25.3645 N   0  0  0  0  0  0  0  0  0  0  0  0
   11.0416  -14.7523   27.3266 C   0  0  0  0  0  0  0  0  0  0  0  0
   11.3926  -15.8729   27.8444 O   0  0  0  0  0  0  0  0  0  0  0  0
   11.7490  -13.6839   27.8260 O   0  0  0  0  0  0  0  0  0  0  0  0
  2  4  1  0
  2  1  1  1
  3  2  1  0
  4  6  1  0
  4  5  1  1
  6  7  2  0
  8  6  1  0
  8  9  1  0
  9 16  1  0
  9 10  1  6
 10 11  1  0
 11 12  2  0
 12 13  1  0
 14 13  1  0
 15 11  1  0
 15 14  2  0
 16 17  2  0
 19 20  1  0
 19 18  1  0
 20 22  1  0
 20 21  1  1
 22 23  1  1
 22 24  1  0
 23 16  1  0
 24 25  2  0
 24 26  1  0
M  END
$$$$
