VHI.pdb
     RDKit          3D

 26 26  0  0  1  0  0  0  0  0999 V2000
    8.4771  -12.6145   20.8039 C   0  0  0  0  0  0  0  0  0  0  0  0
    7.7807  -13.2772   19.6283 C   0  0  1  0  0  0  0  0  0  0  0  0
    7.9858  -12.4257   18.4016 C   0  0  0  0  0  0  0  0  0  0  0  0
    8.4432  -14.6210   19.4231 C   0  0  2  0  0  0  0  0  0  0  0  0
    7.9276  -15.3128   18.2719 N   0  0  0  0  0  0  0  0  0  0  0  0
    8.3176  -15.4990   20.6153 C   0  0  0  0  0  0  0  0  0  0  0  0
    7.2269  -16.1216   20.8553 O   0  0  0  0  0  0  0  0  0  0  0  0
    9.3701  -15.6777   21.5097 N   0  0  0  0  0  0  0  0  0  0  0  0
    9.2491  -16.6421   22.6866 C   0  0  1  0  0  0  0  0  0  0  0  0
   10.4554  -17.5040   22.6117 C   0  0  0  0  0  0  0  0  0  0  0  0
   10.4245  -18.6839   21.7483 C   0  0  0  0  0  0  0  0  0  0  0  0
    9.4749  -19.1324   20.8671 C   0  0  0  0  0  0  0  0  0  0  0  0
    9.9160  -20.2279   20.1982 N   0  0  0  0  0  0  0  0  0  0  0  0
   11.1400  -20.4619   20.6606 C   0  0  0  0  0  0  0  0  0  0  0  0
   11.4722  -19.5626   21.5823 N   0  0  0  0  0  0  0  0  0  0  0  0
    9.2606  -15.6754   23.8478 C   0  0  0  0  0  0  0  0  0  0  0  0
   10.1122  -14.7089   23.7145 O   0  0  0  0  0  0  0  0  0  0  0  0
    6.6582  -11.5272   26.9762 C   0  0  0  0  0  0  0  0  0  0  0  0
    7.7788  -12.4918   26.9423 C   0  0  0  0  0  0  0  0  0  0  0  0
    7.7391  -13.6246   26.0006 C   0  0  2  0  0  0  0  0  0  0  0  0
    6.2849  -14.0732   25.7712 C   0  0  0  0  0  0  0  0  0  0  0  0
    8.6710  -14.7306   26.1374 C   0  0  2  0  0  0  0  0  0  0  0  0
    8.4894  -15.6998   25.0003 N   0  0  0  0  0  0  0  0  0  0  0  0
    8.9890  -15.4117   27.3580 C   0  0  0  0  0  0  0  0  0  0  0  0
    9.4213  -14.7568   28.3735 O   0  0  0  0  0  0  0  0  0  0  0  0
    8.8752  -16.7612   27.5970 O   0  0  0  0  0  0  0  0  0  0  0  0
  2  4  1  0
  2  1  1  1
  3  2  1  0
  4  6  1  0
  4  5  1  6
  6  7  2  0
  8  6  1  0
  8  9  1  0
  9 16  1  0
  9 10  1  1
 10 11  1  0
 11 12  2  0
 12 13  1  0
 14 13  1  0
 15 11  1  0
 15 14  2  0
 16 17  2  0
 19 20  1  0
 19 18  1  0
 20 22  1  0
 20 21  1  1
 22 23  1  6
 22 24  1  0
 23 16  1  0
 24 25  2  0
 24 26  1  0
M  END
$$$$
