VHI.pdb
     RDKit          3D

 26 26  0  0  1  0  0  0  0  0999 V2000
    9.2672  -12.6185   18.3783 C   0  0  0  0  0  0  0  0  0  0  0  0
    8.7452  -13.2409   19.6614 C   0  0  1  0  0  0  0  0  0  0  0  0
    7.3316  -12.7694   19.8879 C   0  0  0  0  0  0  0  0  0  0  0  0
    8.7481  -14.7394   19.4582 C   0  0  2  0  0  0  0  0  0  0  0  0
    8.0936  -15.1251   18.2365 N   0  0  0  0  0  0  0  0  0  0  0  0
    8.1225  -15.4633   20.5952 C   0  0  0  0  0  0  0  0  0  0  0  0
    7.2465  -16.3712   20.3880 O   0  0  0  0  0  0  0  0  0  0  0  0
    8.4606  -15.1859   21.9174 N   0  0  0  0  0  0  0  0  0  0  0  0
    7.7930  -15.9259   23.0735 C   0  0  1  0  0  0  0  0  0  0  0  0
    8.1064  -17.3600   22.8530 C   0  0  0  0  0  0  0  0  0  0  0  0
    7.7077  -18.3318   23.8705 C   0  0  0  0  0  0  0  0  0  0  0  0
    6.9434  -18.1931   25.0002 C   0  0  0  0  0  0  0  0  0  0  0  0
    6.7457  -19.3946   25.5998 N   0  0  0  0  0  0  0  0  0  0  0  0
    7.3847  -20.2821   24.8444 C   0  0  0  0  0  0  0  0  0  0  0  0
    7.9664  -19.6833   23.8091 N   0  0  0  0  0  0  0  0  0  0  0  0
    8.5143  -15.3178   24.2538 C   0  0  0  0  0  0  0  0  0  0  0  0
    8.9842  -14.1329   24.0248 O   0  0  0  0  0  0  0  0  0  0  0  0
    6.4059  -12.1246   25.7741 C   0  0  0  0  0  0  0  0  0  0  0  0
    7.5042  -13.1126   25.7058 C   0  0  0  0  0  0  0  0  0  0  0  0
    7.6740  -14.0921   26.7937 C   0  0  2  0  0  0  0  0  0  0  0  0
    7.4813  -13.4078   28.1587 C   0  0  0  0  0  0  0  0  0  0  0  0
    8.7778  -15.0363   26.7705 C   0  0  2  0  0  0  0  0  0  0  0  0
    8.7228  -15.8612   25.5127 N   0  0  0  0  0  0  0  0  0  0  0  0
    9.2396  -15.8124   27.8838 C   0  0  0  0  0  0  0  0  0  0  0  0
    8.7758  -16.9910   28.0907 O   0  0  0  0  0  0  0  0  0  0  0  0
   10.1810  -15.4343   28.8121 O   0  0  0  0  0  0  0  0  0  0  0  0
  2  4  1  0
  2  1  1  6
  3  2  1  0
  4  6  1  0
  4  5  1  6
  6  7  2  0
  8  6  1  0
  8  9  1  0
  9 16  1  0
  9 10  1  6
 10 11  1  0
 11 12  2  0
 12 13  1  0
 14 13  1  0
 15 11  1  0
 15 14  2  0
 16 17  2  0
 19 20  1  0
 19 18  1  0
 20 22  1  0
 20 21  1  1
 22 23  1  6
 22 24  1  0
 23 16  1  0
 24 25  2  0
 24 26  1  0
M  END
$$$$
