VHI.pdb
     RDKit          3D

 26 26  0  0  1  0  0  0  0  0999 V2000
    6.7512  -12.8879   19.8799 C   0  0  0  0  0  0  0  0  0  0  0  0
    7.8637  -13.6344   19.1651 C   0  0  1  0  0  0  0  0  0  0  0  0
    8.3906  -12.7669   18.0508 C   0  0  0  0  0  0  0  0  0  0  0  0
    8.9603  -13.8696   20.1795 C   0  0  2  0  0  0  0  0  0  0  0  0
   10.1526  -14.4058   19.5790 N   0  0  0  0  0  0  0  0  0  0  0  0
    8.5252  -14.7657   21.2822 C   0  0  0  0  0  0  0  0  0  0  0  0
    7.4757  -14.5008   21.9626 O   0  0  0  0  0  0  0  0  0  0  0  0
    9.2342  -15.9170   21.6157 N   0  0  0  0  0  0  0  0  0  0  0  0
    8.7724  -16.8255   22.7520 C   0  0  1  0  0  0  0  0  0  0  0  0
    9.5821  -18.0624   22.6177 C   0  0  0  0  0  0  0  0  0  0  0  0
    9.5006  -19.0743   23.6703 C   0  0  0  0  0  0  0  0  0  0  0  0
    8.5893  -19.2562   24.6783 C   0  0  0  0  0  0  0  0  0  0  0  0
    8.8512  -20.3969   25.3658 N   0  0  0  0  0  0  0  0  0  0  0  0
    9.9238  -20.9267   24.7866 C   0  0  0  0  0  0  0  0  0  0  0  0
   10.3342  -20.1658   23.7759 N   0  0  0  0  0  0  0  0  0  0  0  0
    9.1368  -15.9846   23.9534 C   0  0  0  0  0  0  0  0  0  0  0  0
   10.4095  -15.7830   24.0832 O   0  0  0  0  0  0  0  0  0  0  0  0
    5.9797  -12.1063   26.1523 C   0  0  0  0  0  0  0  0  0  0  0  0
    7.0906  -12.9592   25.6772 C   0  0  0  0  0  0  0  0  0  0  0  0
    7.8309  -13.7965   26.6377 C   0  0  2  0  0  0  0  0  0  0  0  0
    8.3546  -12.9340   27.7998 C   0  0  0  0  0  0  0  0  0  0  0  0
    8.7903  -14.7823   26.1708 C   0  0  2  0  0  0  0  0  0  0  0  0
    8.2954  -15.4201   24.9004 N   0  0  0  0  0  0  0  0  0  0  0  0
    9.4867  -15.7281   26.9927 C   0  0  0  0  0  0  0  0  0  0  0  0
   10.6863  -15.4906   27.3821 O   0  0  0  0  0  0  0  0  0  0  0  0
    8.9997  -16.9291   27.4525 O   0  0  0  0  0  0  0  0  0  0  0  0
  2  4  1  0
  2  1  1  1
  3  2  1  0
  4  6  1  0
  4  5  1  6
  6  7  2  0
  8  6  1  0
  8  9  1  0
  9 16  1  0
  9 10  1  1
 10 11  1  0
 11 12  2  0
 12 13  1  0
 14 13  1  0
 15 11  1  0
 15 14  2  0
 16 17  2  0
 19 20  1  0
 19 18  1  0
 20 22  1  0
 20 21  1  1
 22 23  1  6
 22 24  1  0
 23 16  1  0
 24 25  2  0
 24 26  1  0
M  END
$$$$
