VHI.pdb
     RDKit          3D

 26 26  0  0  1  0  0  0  0  0999 V2000
    8.5138  -12.2302   18.8733 C   0  0  0  0  0  0  0  0  0  0  0  0
    8.3361  -13.1167   20.0934 C   0  0  1  0  0  0  0  0  0  0  0  0
    6.9431  -12.9214   20.6349 C   0  0  0  0  0  0  0  0  0  0  0  0
    8.4978  -14.5463   19.6278 C   0  0  2  0  0  0  0  0  0  0  0  0
    7.5974  -14.8755   18.5552 N   0  0  0  0  0  0  0  0  0  0  0  0
    8.3159  -15.5228   20.7331 C   0  0  0  0  0  0  0  0  0  0  0  0
    7.2561  -16.2341   20.8075 O   0  0  0  0  0  0  0  0  0  0  0  0
    9.2807  -15.7011   21.7215 N   0  0  0  0  0  0  0  0  0  0  0  0
    9.0753  -16.7069   22.8511 C   0  0  1  0  0  0  0  0  0  0  0  0
   10.1320  -17.7317   22.6595 C   0  0  0  0  0  0  0  0  0  0  0  0
   10.2845  -18.7816   23.6659 C   0  0  0  0  0  0  0  0  0  0  0  0
    9.5126  -19.1113   24.7499 C   0  0  0  0  0  0  0  0  0  0  0  0
    9.9816  -20.2331   25.3532 N   0  0  0  0  0  0  0  0  0  0  0  0
   11.0440  -20.6036   24.6457 C   0  0  0  0  0  0  0  0  0  0  0  0
   11.2509  -19.7627   23.6363 N   0  0  0  0  0  0  0  0  0  0  0  0
    9.2918  -15.8251   24.0588 C   0  0  0  0  0  0  0  0  0  0  0  0
   10.3410  -15.0708   23.9736 O   0  0  0  0  0  0  0  0  0  0  0  0
    6.2940  -12.1251   25.5082 C   0  0  0  0  0  0  0  0  0  0  0  0
    7.4301  -13.0606   25.3620 C   0  0  0  0  0  0  0  0  0  0  0  0
    7.9280  -13.7945   26.5389 C   0  0  2  0  0  0  0  0  0  0  0  0
    8.2802  -12.8099   27.6682 C   0  0  0  0  0  0  0  0  0  0  0  0
    8.8949  -14.8675   26.3844 C   0  0  2  0  0  0  0  0  0  0  0  0
    8.5222  -15.7304   25.2088 N   0  0  0  0  0  0  0  0  0  0  0  0
    9.4568  -15.6481   27.4474 C   0  0  0  0  0  0  0  0  0  0  0  0
    8.9648  -16.7969   27.7396 O   0  0  0  0  0  0  0  0  0  0  0  0
   10.5281  -15.3048   28.2384 O   0  0  0  0  0  0  0  0  0  0  0  0
  2  4  1  0
  2  1  1  6
  3  2  1  0
  4  6  1  0
  4  5  1  6
  6  7  2  0
  8  6  1  0
  8  9  1  0
  9 16  1  0
  9 10  1  6
 10 11  1  0
 11 12  2  0
 12 13  1  0
 14 13  1  0
 15 11  1  0
 15 14  2  0
 16 17  2  0
 19 20  1  0
 19 18  1  0
 20 22  1  0
 20 21  1  1
 22 23  1  6
 22 24  1  0
 23 16  1  0
 24 25  2  0
 24 26  1  0
M  END
$$$$
