VHI.pdb
     RDKit          3D

 26 26  0  0  1  0  0  0  0  0999 V2000
    8.3323  -12.7279   20.4894 C   0  0  0  0  0  0  0  0  0  0  0  0
    8.0165  -13.3962   19.1629 C   0  0  1  0  0  0  0  0  0  0  0  0
    8.8177  -12.7224   18.0785 C   0  0  0  0  0  0  0  0  0  0  0  0
    8.4485  -14.8405   19.2822 C   0  0  2  0  0  0  0  0  0  0  0  0
    8.2325  -15.5765   18.0650 N   0  0  0  0  0  0  0  0  0  0  0  0
    7.7682  -15.5414   20.4021 C   0  0  0  0  0  0  0  0  0  0  0  0
    6.7196  -16.2422   20.1924 O   0  0  0  0  0  0  0  0  0  0  0  0
    8.2392  -15.4646   21.7105 N   0  0  0  0  0  0  0  0  0  0  0  0
    7.5534  -16.2270   22.8410 C   0  0  1  0  0  0  0  0  0  0  0  0
    7.9787  -17.6395   22.6747 C   0  0  0  0  0  0  0  0  0  0  0  0
    7.5854  -18.6167   23.6891 C   0  0  0  0  0  0  0  0  0  0  0  0
    6.7740  -18.4996   24.7879 C   0  0  0  0  0  0  0  0  0  0  0  0
    6.6073  -19.7020   25.3952 N   0  0  0  0  0  0  0  0  0  0  0  0
    7.3127  -20.5685   24.6753 C   0  0  0  0  0  0  0  0  0  0  0  0
    7.9057  -19.9559   23.6546 N   0  0  0  0  0  0  0  0  0  0  0  0
    8.1553  -15.5463   24.0482 C   0  0  0  0  0  0  0  0  0  0  0  0
    9.4217  -15.3010   23.9323 O   0  0  0  0  0  0  0  0  0  0  0  0
    5.9051  -11.3660   26.2357 C   0  0  0  0  0  0  0  0  0  0  0  0
    6.7911  -12.4588   25.7797 C   0  0  0  0  0  0  0  0  0  0  0  0
    7.4845  -13.2991   26.7721 C   0  0  2  0  0  0  0  0  0  0  0  0
    8.2306  -12.4149   27.7872 C   0  0  0  0  0  0  0  0  0  0  0  0
    8.2441  -14.4635   26.3509 C   0  0  2  0  0  0  0  0  0  0  0  0
    7.5304  -15.1637   25.2258 N   0  0  0  0  0  0  0  0  0  0  0  0
    8.8922  -15.4004   27.2211 C   0  0  0  0  0  0  0  0  0  0  0  0
    8.3266  -16.5152   27.5118 O   0  0  0  0  0  0  0  0  0  0  0  0
   10.1234  -15.2510   27.8151 O   0  0  0  0  0  0  0  0  0  0  0  0
  2  4  1  0
  2  1  1  1
  3  2  1  0
  4  6  1  0
  4  5  1  6
  6  7  2  0
  8  6  1  0
  8  9  1  0
  9 16  1  0
  9 10  1  1
 10 11  1  0
 11 12  2  0
 12 13  1  0
 14 13  1  0
 15 11  1  0
 15 14  2  0
 16 17  2  0
 19 20  1  0
 19 18  1  0
 20 22  1  0
 20 21  1  6
 22 23  1  1
 22 24  1  0
 23 16  1  0
 24 25  2  0
 24 26  1  0
M  END
$$$$
