VHI.pdb
     RDKit          3D

 26 26  0  0  1  0  0  0  0  0999 V2000
    9.2602  -12.8728   18.4497 C   0  0  0  0  0  0  0  0  0  0  0  0
    8.6410  -13.4081   19.7288 C   0  0  1  0  0  0  0  0  0  0  0  0
    7.3135  -12.7278   19.9456 C   0  0  0  0  0  0  0  0  0  0  0  0
    8.4181  -14.8899   19.5250 C   0  0  2  0  0  0  0  0  0  0  0  0
    7.6913  -15.1706   18.3156 N   0  0  0  0  0  0  0  0  0  0  0  0
    7.7133  -15.5168   20.6732 C   0  0  0  0  0  0  0  0  0  0  0  0
    6.4360  -15.5569   20.7117 O   0  0  0  0  0  0  0  0  0  0  0  0
    8.4068  -16.0797   21.7417 N   0  0  0  0  0  0  0  0  0  0  0  0
    7.6667  -16.6518   22.9479 C   0  0  1  0  0  0  0  0  0  0  0  0
    8.0936  -18.0710   23.0318 C   0  0  0  0  0  0  0  0  0  0  0  0
    7.7397  -18.8429   24.2225 C   0  0  0  0  0  0  0  0  0  0  0  0
    6.9916  -18.5121   25.3226 C   0  0  0  0  0  0  0  0  0  0  0  0
    6.8377  -19.5834   26.1417 N   0  0  0  0  0  0  0  0  0  0  0  0
    7.4878  -20.5818   25.5525 C   0  0  0  0  0  0  0  0  0  0  0  0
    8.0346  -20.1751   24.4104 N   0  0  0  0  0  0  0  0  0  0  0  0
    8.2153  -15.7827   24.0556 C   0  0  0  0  0  0  0  0  0  0  0  0
    9.4455  -15.4206   23.8748 O   0  0  0  0  0  0  0  0  0  0  0  0
    5.9059  -11.4479   25.8023 C   0  0  0  0  0  0  0  0  0  0  0  0
    6.8708  -12.5211   25.4793 C   0  0  0  0  0  0  0  0  0  0  0  0
    7.4434  -13.3389   26.5633 C   0  0  2  0  0  0  0  0  0  0  0  0
    8.0586  -12.4318   27.6438 C   0  0  0  0  0  0  0  0  0  0  0  0
    8.2528  -14.5060   26.2581 C   0  0  2  0  0  0  0  0  0  0  0  0
    7.5757  -15.3401   25.2039 N   0  0  0  0  0  0  0  0  0  0  0  0
    8.9331  -15.3272   27.2161 C   0  0  0  0  0  0  0  0  0  0  0  0
    8.3931  -16.4106   27.6425 O   0  0  0  0  0  0  0  0  0  0  0  0
   10.1717  -15.0914   27.7650 O   0  0  0  0  0  0  0  0  0  0  0  0
  2  4  1  0
  2  1  1  6
  3  2  1  0
  4  6  1  0
  4  5  1  6
  6  7  2  0
  8  6  1  0
  8  9  1  0
  9 16  1  0
  9 10  1  1
 10 11  1  0
 11 12  2  0
 12 13  1  0
 14 13  1  0
 15 11  1  0
 15 14  2  0
 16 17  2  0
 19 20  1  0
 19 18  1  0
 20 22  1  0
 20 21  1  6
 22 23  1  1
 22 24  1  0
 23 16  1  0
 24 25  2  0
 24 26  1  0
M  END
$$$$
