VHI.pdb
     RDKit          3D

 26 26  0  0  1  0  0  0  0  0999 V2000
    6.9567  -12.9534   19.6134 C   0  0  0  0  0  0  0  0  0  0  0  0
    8.4566  -12.9113   19.3797 C   0  0  1  0  0  0  0  0  0  0  0  0
    9.1204  -12.3268   20.6003 C   0  0  0  0  0  0  0  0  0  0  0  0
    8.9149  -14.3405   19.1950 C   0  0  2  0  0  0  0  0  0  0  0  0
    8.4305  -14.9141   17.9678 N   0  0  0  0  0  0  0  0  0  0  0  0
    8.5152  -15.2116   20.3306 C   0  0  0  0  0  0  0  0  0  0  0  0
    7.3503  -15.7369   20.3715 O   0  0  0  0  0  0  0  0  0  0  0  0
    9.3827  -15.4883   21.3844 N   0  0  0  0  0  0  0  0  0  0  0  0
    8.9902  -16.4603   22.4939 C   0  0  1  0  0  0  0  0  0  0  0  0
    9.9815  -17.5625   22.4172 C   0  0  0  0  0  0  0  0  0  0  0  0
    9.7307  -18.6716   21.4977 C   0  0  0  0  0  0  0  0  0  0  0  0
    8.7609  -18.8526   20.5458 C   0  0  0  0  0  0  0  0  0  0  0  0
    8.9753  -19.9981   19.8499 N   0  0  0  0  0  0  0  0  0  0  0  0
   10.0784  -20.5304   20.3660 C   0  0  0  0  0  0  0  0  0  0  0  0
   10.5522  -19.7669   21.3466 N   0  0  0  0  0  0  0  0  0  0  0  0
    9.1489  -15.5799   23.7116 C   0  0  0  0  0  0  0  0  0  0  0  0
   10.2579  -14.9115   23.7320 O   0  0  0  0  0  0  0  0  0  0  0  0
    5.9084  -11.9132   25.4896 C   0  0  0  0  0  0  0  0  0  0  0  0
    7.0668  -12.7932   25.2232 C   0  0  0  0  0  0  0  0  0  0  0  0
    7.5941  -13.6518   26.2985 C   0  0  2  0  0  0  0  0  0  0  0  0
    7.8752  -12.8128   27.5578 C   0  0  0  0  0  0  0  0  0  0  0  0
    8.6244  -14.6367   26.0176 C   0  0  2  0  0  0  0  0  0  0  0  0
    8.2735  -15.4077   24.7735 N   0  0  0  0  0  0  0  0  0  0  0  0
    9.2688  -15.4742   26.9864 C   0  0  0  0  0  0  0  0  0  0  0  0
    8.9225  -16.7033   27.1151 O   0  0  0  0  0  0  0  0  0  0  0  0
   10.2796  -15.1076   27.8437 O   0  0  0  0  0  0  0  0  0  0  0  0
  2  4  1  0
  2  1  1  1
  3  2  1  0
  4  6  1  0
  4  5  1  6
  6  7  2  0
  8  6  1  0
  8  9  1  0
  9 16  1  0
  9 10  1  1
 10 11  1  0
 11 12  2  0
 12 13  1  0
 14 13  1  0
 15 11  1  0
 15 14  2  0
 16 17  2  0
 19 20  1  0
 19 18  1  0
 20 22  1  0
 20 21  1  1
 22 23  1  6
 22 24  1  0
 23 16  1  0
 24 25  2  0
 24 26  1  0
M  END
$$$$
