VHI.pdb
     RDKit          3D

 26 26  0  0  1  0  0  0  0  0999 V2000
    8.2869  -12.7085   20.5161 C   0  0  0  0  0  0  0  0  0  0  0  0
    7.8762  -13.3362   19.1957 C   0  0  1  0  0  0  0  0  0  0  0  0
    8.6173  -12.6449   18.0800 C   0  0  0  0  0  0  0  0  0  0  0  0
    8.2916  -14.7892   19.2495 C   0  0  2  0  0  0  0  0  0  0  0  0
    7.9943  -15.4868   18.0269 N   0  0  0  0  0  0  0  0  0  0  0  0
    7.6661  -15.5123   20.3870 C   0  0  0  0  0  0  0  0  0  0  0  0
    6.5088  -16.0423   20.2662 O   0  0  0  0  0  0  0  0  0  0  0  0
    8.3069  -15.6409   21.6168 N   0  0  0  0  0  0  0  0  0  0  0  0
    7.6391  -16.3672   22.7814 C   0  0  1  0  0  0  0  0  0  0  0  0
    8.1212  -17.7686   22.6967 C   0  0  0  0  0  0  0  0  0  0  0  0
    7.7739  -18.6981   23.7709 C   0  0  0  0  0  0  0  0  0  0  0  0
    6.9244  -18.5661   24.8388 C   0  0  0  0  0  0  0  0  0  0  0  0
    6.8318  -19.7311   25.5290 N   0  0  0  0  0  0  0  0  0  0  0  0
    7.6215  -20.5895   24.8916 C   0  0  0  0  0  0  0  0  0  0  0  0
    8.1957  -20.0074   23.8427 N   0  0  0  0  0  0  0  0  0  0  0  0
    8.2006  -15.5982   23.9547 C   0  0  0  0  0  0  0  0  0  0  0  0
    9.4554  -15.3020   23.8327 O   0  0  0  0  0  0  0  0  0  0  0  0
    6.0903  -11.2977   25.9743 C   0  0  0  0  0  0  0  0  0  0  0  0
    7.0624  -12.3509   25.6098 C   0  0  0  0  0  0  0  0  0  0  0  0
    7.5261  -13.3031   26.6345 C   0  0  2  0  0  0  0  0  0  0  0  0
    8.1704  -12.5460   27.8095 C   0  0  0  0  0  0  0  0  0  0  0  0
    8.2505  -14.5030   26.2526 C   0  0  2  0  0  0  0  0  0  0  0  0
    7.5502  -15.1840   25.1075 N   0  0  0  0  0  0  0  0  0  0  0  0
    8.8248  -15.4575   27.1550 C   0  0  0  0  0  0  0  0  0  0  0  0
    9.9093  -15.1848   27.7847 O   0  0  0  0  0  0  0  0  0  0  0  0
    8.3262  -16.7030   27.4567 O   0  0  0  0  0  0  0  0  0  0  0  0
  2  4  1  0
  2  1  1  1
  3  2  1  0
  4  6  1  0
  4  5  1  6
  6  7  2  0
  8  6  1  0
  8  9  1  0
  9 16  1  0
  9 10  1  1
 10 11  1  0
 11 12  2  0
 12 13  1  0
 14 13  1  0
 15 11  1  0
 15 14  2  0
 16 17  2  0
 19 20  1  0
 19 18  1  0
 20 22  1  0
 20 21  1  1
 22 23  1  6
 22 24  1  0
 23 16  1  0
 24 25  2  0
 24 26  1  0
M  END
$$$$
