VHI.pdb
     RDKit          3D

 26 26  0  0  1  0  0  0  0  0999 V2000
    8.5006  -12.6598   20.9976 C   0  0  0  0  0  0  0  0  0  0  0  0
    7.7252  -13.3293   19.8767 C   0  0  1  0  0  0  0  0  0  0  0  0
    7.9332  -12.5432   18.6075 C   0  0  0  0  0  0  0  0  0  0  0  0
    8.3024  -14.7168   19.7079 C   0  0  2  0  0  0  0  0  0  0  0  0
    7.7119  -15.4221   18.6018 N   0  0  0  0  0  0  0  0  0  0  0  0
    8.1641  -15.5381   20.9386 C   0  0  0  0  0  0  0  0  0  0  0  0
    7.0609  -16.1237   21.2117 O   0  0  0  0  0  0  0  0  0  0  0  0
    9.2179  -15.7017   21.8343 N   0  0  0  0  0  0  0  0  0  0  0  0
    9.1071  -16.6635   23.0144 C   0  0  1  0  0  0  0  0  0  0  0  0
   10.2420  -17.6074   22.8577 C   0  0  0  0  0  0  0  0  0  0  0  0
   10.0748  -18.7701   21.9865 C   0  0  0  0  0  0  0  0  0  0  0  0
    9.0603  -19.6873   21.8908 C   0  0  0  0  0  0  0  0  0  0  0  0
    9.2805  -20.5451   20.8623 N   0  0  0  0  0  0  0  0  0  0  0  0
   10.4303  -20.1627   20.3160 C   0  0  0  0  0  0  0  0  0  0  0  0
   10.9278  -19.1108   20.9601 N   0  0  0  0  0  0  0  0  0  0  0  0
    9.2634  -15.7081   24.1745 C   0  0  0  0  0  0  0  0  0  0  0  0
   10.3077  -14.9472   24.0876 O   0  0  0  0  0  0  0  0  0  0  0  0
    5.8785  -12.2008   25.9446 C   0  0  0  0  0  0  0  0  0  0  0  0
    7.0814  -13.0129   25.6608 C   0  0  0  0  0  0  0  0  0  0  0  0
    7.7296  -13.7636   26.7508 C   0  0  2  0  0  0  0  0  0  0  0  0
    8.0264  -12.8278   27.9360 C   0  0  0  0  0  0  0  0  0  0  0  0
    8.8069  -14.6956   26.4656 C   0  0  2  0  0  0  0  0  0  0  0  0
    8.4448  -15.5541   25.2835 N   0  0  0  0  0  0  0  0  0  0  0  0
    9.5531  -15.4366   27.4398 C   0  0  0  0  0  0  0  0  0  0  0  0
    9.3260  -16.6872   27.6179 O   0  0  0  0  0  0  0  0  0  0  0  0
   10.5491  -14.9495   28.2533 O   0  0  0  0  0  0  0  0  0  0  0  0
  2  4  1  0
  2  1  1  1
  3  2  1  0
  4  6  1  0
  4  5  1  6
  6  7  2  0
  8  6  1  0
  8  9  1  0
  9 16  1  0
  9 10  1  6
 10 11  1  0
 11 12  2  0
 12 13  1  0
 14 13  1  0
 15 11  1  0
 15 14  2  0
 16 17  2  0
 19 20  1  0
 19 18  1  0
 20 22  1  0
 20 21  1  1
 22 23  1  6
 22 24  1  0
 23 16  1  0
 24 25  2  0
 24 26  1  0
M  END
$$$$
