VHI.pdb
     RDKit          3D

 26 26  0  0  1  0  0  0  0  0999 V2000
    8.6193  -12.6487   20.9243 C   0  0  0  0  0  0  0  0  0  0  0  0
    7.7148  -13.2699   19.8745 C   0  0  1  0  0  0  0  0  0  0  0  0
    7.7697  -12.4253   18.6273 C   0  0  0  0  0  0  0  0  0  0  0  0
    8.2670  -14.6453   19.5740 C   0  0  2  0  0  0  0  0  0  0  0  0
    7.5677  -15.2895   18.4942 N   0  0  0  0  0  0  0  0  0  0  0  0
    8.2469  -15.5332   20.7654 C   0  0  0  0  0  0  0  0  0  0  0  0
    7.1917  -16.1853   21.0755 O   0  0  0  0  0  0  0  0  0  0  0  0
    9.3631  -15.6897   21.5833 N   0  0  0  0  0  0  0  0  0  0  0  0
    9.3649  -16.6970   22.7301 C   0  0  1  0  0  0  0  0  0  0  0  0
   10.5788  -17.5255   22.5213 C   0  0  0  0  0  0  0  0  0  0  0  0
   10.9330  -18.5216   23.5317 C   0  0  0  0  0  0  0  0  0  0  0  0
   10.2915  -18.9102   24.6792 C   0  0  0  0  0  0  0  0  0  0  0  0
   10.9367  -19.9513   25.2641 N   0  0  0  0  0  0  0  0  0  0  0  0
   11.9789  -20.2128   24.4817 C   0  0  0  0  0  0  0  0  0  0  0  0
   12.0054  -19.3816   23.4437 N   0  0  0  0  0  0  0  0  0  0  0  0
    9.4550  -15.7711   23.9208 C   0  0  0  0  0  0  0  0  0  0  0  0
   10.3787  -14.8699   23.8129 O   0  0  0  0  0  0  0  0  0  0  0  0
    6.5566  -12.0703   25.3439 C   0  0  0  0  0  0  0  0  0  0  0  0
    7.6484  -13.0612   25.2290 C   0  0  0  0  0  0  0  0  0  0  0  0
    8.0429  -13.8531   26.4076 C   0  0  2  0  0  0  0  0  0  0  0  0
    8.3125  -12.9243   27.6048 C   0  0  0  0  0  0  0  0  0  0  0  0
    9.0088  -14.9310   26.2825 C   0  0  2  0  0  0  0  0  0  0  0  0
    8.6877  -15.7719   25.0762 N   0  0  0  0  0  0  0  0  0  0  0  0
    9.5130  -15.7328   27.3585 C   0  0  0  0  0  0  0  0  0  0  0  0
    9.0245  -16.8980   27.5842 O   0  0  0  0  0  0  0  0  0  0  0  0
   10.5221  -15.3947   28.2295 O   0  0  0  0  0  0  0  0  0  0  0  0
  2  4  1  0
  2  1  1  1
  3  2  1  0
  4  6  1  0
  4  5  1  6
  6  7  2  0
  8  6  1  0
  8  9  1  0
  9 16  1  0
  9 10  1  6
 10 11  1  0
 11 12  2  0
 12 13  1  0
 14 13  1  0
 15 11  1  0
 15 14  2  0
 16 17  2  0
 19 20  1  0
 19 18  1  0
 20 22  1  0
 20 21  1  1
 22 23  1  6
 22 24  1  0
 23 16  1  0
 24 25  2  0
 24 26  1  0
M  END
$$$$
