VHI.pdb
     RDKit          3D

 26 26  0  0  1  0  0  0  0  0999 V2000
    8.5148  -12.5788   20.7426 C   0  0  0  0  0  0  0  0  0  0  0  0
    7.8536  -13.2836   19.5712 C   0  0  1  0  0  0  0  0  0  0  0  0
    8.1080  -12.4840   18.3190 C   0  0  0  0  0  0  0  0  0  0  0  0
    8.5113  -14.6393   19.4433 C   0  0  2  0  0  0  0  0  0  0  0  0
    8.0736  -15.3492   18.2710 N   0  0  0  0  0  0  0  0  0  0  0  0
    8.2854  -15.4903   20.6404 C   0  0  0  0  0  0  0  0  0  0  0  0
    7.2007  -16.1539   20.7740 O   0  0  0  0  0  0  0  0  0  0  0  0
    9.2345  -15.5986   21.6538 N   0  0  0  0  0  0  0  0  0  0  0  0
    9.0083  -16.5192   22.8502 C   0  0  1  0  0  0  0  0  0  0  0  0
   10.0826  -17.5402   22.7667 C   0  0  0  0  0  0  0  0  0  0  0  0
    9.8657  -18.7231   21.9347 C   0  0  0  0  0  0  0  0  0  0  0  0
    8.8422  -19.0527   21.0843 C   0  0  0  0  0  0  0  0  0  0  0  0
    9.1089  -20.2145   20.4351 N   0  0  0  0  0  0  0  0  0  0  0  0
   10.2982  -20.6086   20.8789 C   0  0  0  0  0  0  0  0  0  0  0  0
   10.7751  -19.7446   21.7705 N   0  0  0  0  0  0  0  0  0  0  0  0
    9.1786  -15.5458   23.9932 C   0  0  0  0  0  0  0  0  0  0  0  0
   10.3073  -14.9110   23.9750 O   0  0  0  0  0  0  0  0  0  0  0  0
    5.6776  -12.1363   27.1059 C   0  0  0  0  0  0  0  0  0  0  0  0
    6.3713  -13.2786   26.4725 C   0  0  0  0  0  0  0  0  0  0  0  0
    7.8127  -13.1864   26.1799 C   0  0  2  0  0  0  0  0  0  0  0  0
    8.0489  -12.2849   24.9550 C   0  0  0  0  0  0  0  0  0  0  0  0
    8.6453  -14.3768   26.1913 C   0  0  2  0  0  0  0  0  0  0  0  0
    8.2956  -15.2603   25.0240 N   0  0  0  0  0  0  0  0  0  0  0  0
    8.9833  -15.1514   27.3492 C   0  0  0  0  0  0  0  0  0  0  0  0
    9.5133  -14.5896   28.3742 O   0  0  0  0  0  0  0  0  0  0  0  0
    8.7927  -16.5031   27.5151 O   0  0  0  0  0  0  0  0  0  0  0  0
  2  4  1  0
  2  1  1  1
  3  2  1  0
  4  6  1  0
  4  5  1  6
  6  7  2  0
  8  6  1  0
  8  9  1  0
  9 16  1  0
  9 10  1  1
 10 11  1  0
 11 12  2  0
 12 13  1  0
 14 13  1  0
 15 11  1  0
 15 14  2  0
 16 17  2  0
 19 20  1  0
 19 18  1  0
 20 22  1  0
 20 21  1  6
 22 23  1  6
 22 24  1  0
 23 16  1  0
 24 25  2  0
 24 26  1  0
M  END
$$$$
