VHI.pdb
     RDKit          3D

 26 26  0  0  1  0  0  0  0  0999 V2000
    8.5178  -12.5908   21.1111 C   0  0  0  0  0  0  0  0  0  0  0  0
    7.6856  -13.2088   20.0014 C   0  0  1  0  0  0  0  0  0  0  0  0
    7.6108  -12.2354   18.8530 C   0  0  0  0  0  0  0  0  0  0  0  0
    8.4072  -14.4598   19.5528 C   0  0  2  0  0  0  0  0  0  0  0  0
    7.8441  -15.0122   18.3497 N   0  0  0  0  0  0  0  0  0  0  0  0
    8.4272  -15.5073   20.6066 C   0  0  0  0  0  0  0  0  0  0  0  0
    8.0325  -16.6965   20.3521 O   0  0  0  0  0  0  0  0  0  0  0  0
    8.8712  -15.2399   21.8992 N   0  0  0  0  0  0  0  0  0  0  0  0
    9.3888  -16.3570   22.8016 C   0  0  1  0  0  0  0  0  0  0  0  0
   10.5835  -16.8990   22.1071 C   0  0  0  0  0  0  0  0  0  0  0  0
   11.2267  -18.0971   22.6451 C   0  0  0  0  0  0  0  0  0  0  0  0
   10.9149  -18.8802   23.7263 C   0  0  0  0  0  0  0  0  0  0  0  0
   11.7336  -19.9608   23.7919 N   0  0  0  0  0  0  0  0  0  0  0  0
   12.5544  -19.8527   22.7521 C   0  0  0  0  0  0  0  0  0  0  0  0
   12.2796  -18.7567   22.0505 N   0  0  0  0  0  0  0  0  0  0  0  0
    9.7120  -15.5807   24.0569 C   0  0  0  0  0  0  0  0  0  0  0  0
   10.1051  -14.3671   23.8339 O   0  0  0  0  0  0  0  0  0  0  0  0
    7.4294  -11.9524   25.0961 C   0  0  0  0  0  0  0  0  0  0  0  0
    8.4737  -12.9737   25.3272 C   0  0  0  0  0  0  0  0  0  0  0  0
    8.1321  -14.2202   26.0353 C   0  0  2  0  0  0  0  0  0  0  0  0
    7.0411  -13.9511   27.0869 C   0  0  0  0  0  0  0  0  0  0  0  0
    9.1780  -15.1137   26.5022 C   0  0  2  0  0  0  0  0  0  0  0  0
    9.6369  -16.0012   25.3765 N   0  0  0  0  0  0  0  0  0  0  0  0
    9.1855  -15.8125   27.7539 C   0  0  0  0  0  0  0  0  0  0  0  0
    9.5134  -15.2041   28.8353 O   0  0  0  0  0  0  0  0  0  0  0  0
    8.8579  -17.1325   27.9575 O   0  0  0  0  0  0  0  0  0  0  0  0
  2  4  1  0
  2  1  1  1
  3  2  1  0
  4  6  1  0
  4  5  1  6
  6  7  2  0
  8  6  1  0
  8  9  1  0
  9 16  1  0
  9 10  1  6
 10 11  1  0
 11 12  2  0
 12 13  1  0
 14 13  1  0
 15 11  1  0
 15 14  2  0
 16 17  2  0
 19 20  1  0
 19 18  1  0
 20 22  1  0
 20 21  1  1
 22 23  1  6
 22 24  1  0
 23 16  1  0
 24 25  2  0
 24 26  1  0
M  END
$$$$
