VHI.pdb
     RDKit          3D

 26 26  0  0  1  0  0  0  0  0999 V2000
    8.6742  -12.6543   20.8093 C   0  0  0  0  0  0  0  0  0  0  0  0
    7.7685  -13.3199   19.7881 C   0  0  1  0  0  0  0  0  0  0  0  0
    7.7964  -12.5113   18.5165 C   0  0  0  0  0  0  0  0  0  0  0  0
    8.3393  -14.6946   19.5214 C   0  0  2  0  0  0  0  0  0  0  0  0
    7.6504  -15.3737   18.4564 N   0  0  0  0  0  0  0  0  0  0  0  0
    8.3290  -15.5540   20.7337 C   0  0  0  0  0  0  0  0  0  0  0  0
    7.2437  -16.0918   21.1430 O   0  0  0  0  0  0  0  0  0  0  0  0
    9.4871  -15.8057   21.4650 N   0  0  0  0  0  0  0  0  0  0  0  0
    9.4601  -16.7026   22.6998 C   0  0  1  0  0  0  0  0  0  0  0  0
   10.7217  -17.4829   22.6442 C   0  0  0  0  0  0  0  0  0  0  0  0
   10.7828  -18.6608   21.7796 C   0  0  0  0  0  0  0  0  0  0  0  0
    9.8037  -19.5239   21.3602 C   0  0  0  0  0  0  0  0  0  0  0  0
   10.3005  -20.4234   20.4734 N   0  0  0  0  0  0  0  0  0  0  0  0
   11.5878  -20.1209   20.3386 C   0  0  0  0  0  0  0  0  0  0  0  0
   11.9062  -19.0785   21.1008 N   0  0  0  0  0  0  0  0  0  0  0  0
    9.4299  -15.6684   23.8010 C   0  0  0  0  0  0  0  0  0  0  0  0
   10.4561  -14.8785   23.8040 O   0  0  0  0  0  0  0  0  0  0  0  0
    6.7818  -11.3046   26.8811 C   0  0  0  0  0  0  0  0  0  0  0  0
    7.6929  -12.4638   26.9963 C   0  0  0  0  0  0  0  0  0  0  0  0
    7.6627  -13.5213   25.9703 C   0  0  2  0  0  0  0  0  0  0  0  0
    6.2251  -14.0379   25.7830 C   0  0  0  0  0  0  0  0  0  0  0  0
    8.6614  -14.5762   25.9687 C   0  0  2  0  0  0  0  0  0  0  0  0
    8.4624  -15.4711   24.7749 N   0  0  0  0  0  0  0  0  0  0  0  0
    9.0933  -15.3224   27.1140 C   0  0  0  0  0  0  0  0  0  0  0  0
    8.7921  -16.5645   27.2312 O   0  0  0  0  0  0  0  0  0  0  0  0
    9.8429  -14.8492   28.1654 O   0  0  0  0  0  0  0  0  0  0  0  0
  2  4  1  0
  2  1  1  1
  3  2  1  0
  4  6  1  0
  4  5  1  6
  6  7  2  0
  8  6  1  0
  8  9  1  0
  9 16  1  0
  9 10  1  1
 10 11  1  0
 11 12  2  0
 12 13  1  0
 14 13  1  0
 15 11  1  0
 15 14  2  0
 16 17  2  0
 19 20  1  0
 19 18  1  0
 20 22  1  0
 20 21  1  1
 22 23  1  6
 22 24  1  0
 23 16  1  0
 24 25  2  0
 24 26  1  0
M  END
$$$$
