VHI.pdb
     RDKit          3D

 26 26  0  0  1  0  0  0  0  0999 V2000
    8.4900  -12.6941   21.3474 C   0  0  0  0  0  0  0  0  0  0  0  0
    7.7337  -13.4080   20.2410 C   0  0  1  0  0  0  0  0  0  0  0  0
    7.8720  -12.6120   18.9685 C   0  0  0  0  0  0  0  0  0  0  0  0
    8.3870  -14.7599   20.0607 C   0  0  2  0  0  0  0  0  0  0  0  0
    7.8283  -15.4924   18.9558 N   0  0  0  0  0  0  0  0  0  0  0  0
    8.3053  -15.5933   21.2883 C   0  0  0  0  0  0  0  0  0  0  0  0
    7.2190  -16.1911   21.6001 O   0  0  0  0  0  0  0  0  0  0  0  0
    9.3956  -15.7554   22.1395 N   0  0  0  0  0  0  0  0  0  0  0  0
    9.3316  -16.7095   23.3293 C   0  0  1  0  0  0  0  0  0  0  0  0
   10.4598  -17.6544   23.1342 C   0  0  0  0  0  0  0  0  0  0  0  0
   10.2710  -18.8019   22.2475 C   0  0  0  0  0  0  0  0  0  0  0  0
    9.2224  -19.1531   21.4372 C   0  0  0  0  0  0  0  0  0  0  0  0
    9.5249  -20.2567   20.7073 N   0  0  0  0  0  0  0  0  0  0  0  0
   10.7613  -20.5928   21.0607 C   0  0  0  0  0  0  0  0  0  0  0  0
   11.2333  -19.7486   21.9736 N   0  0  0  0  0  0  0  0  0  0  0  0
    9.5330  -15.7467   24.4762 C   0  0  0  0  0  0  0  0  0  0  0  0
   10.5836  -14.9995   24.3526 O   0  0  0  0  0  0  0  0  0  0  0  0
    6.4078  -12.0439   26.0581 C   0  0  0  0  0  0  0  0  0  0  0  0
    7.5719  -12.9309   25.8446 C   0  0  0  0  0  0  0  0  0  0  0  0
    8.1428  -13.6732   26.9825 C   0  0  2  0  0  0  0  0  0  0  0  0
    8.4927  -12.7044   28.1260 C   0  0  0  0  0  0  0  0  0  0  0  0
    9.1488  -14.6982   26.7644 C   0  0  2  0  0  0  0  0  0  0  0  0
    8.7488  -15.5734   25.6070 N   0  0  0  0  0  0  0  0  0  0  0  0
    9.8088  -15.4551   27.7874 C   0  0  0  0  0  0  0  0  0  0  0  0
    9.4976  -16.6838   27.9890 O   0  0  0  0  0  0  0  0  0  0  0  0
   10.8007  -15.0066   28.6276 O   0  0  0  0  0  0  0  0  0  0  0  0
  2  4  1  0
  2  1  1  1
  3  2  1  0
  4  6  1  0
  4  5  1  6
  6  7  2  0
  8  6  1  0
  8  9  1  0
  9 16  1  0
  9 10  1  6
 10 11  1  0
 11 12  2  0
 12 13  1  0
 14 13  1  0
 15 11  1  0
 15 14  2  0
 16 17  2  0
 19 20  1  0
 19 18  1  0
 20 22  1  0
 20 21  1  1
 22 23  1  6
 22 24  1  0
 23 16  1  0
 24 25  2  0
 24 26  1  0
M  END
$$$$
