FQK.pdb
     RDKit          3D

 30 30  0  0  1  0  0  0  0  0999 V2000
    6.0997  -16.6614   25.9297 N   0  0  0  0  0  0  0  0  0  0  0  0
    6.6753  -15.5469   25.1985 C   0  0  1  0  0  0  0  0  0  0  0  0
    7.6392  -14.8454   26.1281 C   0  0  0  0  0  0  0  0  0  0  0  0
    7.1062  -13.5186   26.4774 C   0  0  0  0  0  0  0  0  0  0  0  0
    5.8888  -13.0535   26.0123 C   0  0  0  0  0  0  0  0  0  0  0  0
    5.3811  -11.8136   26.3325 C   0  0  0  0  0  0  0  0  0  0  0  0
    6.1081  -10.9790   27.1571 C   0  0  0  0  0  0  0  0  0  0  0  0
    7.3147  -11.4000   27.6378 C   0  0  0  0  0  0  0  0  0  0  0  0
    7.8071  -12.6485   27.3046 C   0  0  0  0  0  0  0  0  0  0  0  0
    7.3382  -16.0343   23.9695 C   0  0  0  0  0  0  0  0  0  0  0  0
    7.8028  -17.1957   23.9189 O   0  0  0  0  0  0  0  0  0  0  0  0
    7.2107  -13.1438   18.3666 N   0  0  0  0  0  0  0  0  0  0  0  0
    8.2436  -14.0919   18.1915 C   0  0  0  0  0  0  0  0  0  0  0  0
    8.7319  -14.2473   17.0476 O   0  0  0  0  0  0  0  0  0  0  0  0
    8.7247  -14.8639   19.3454 C   0  0  0  0  0  0  0  0  0  0  0  0
    7.9901  -14.6841   20.6244 C   0  0  0  0  0  0  0  0  0  0  0  0
    8.3789  -15.5190   21.7827 C   0  0  2  0  0  0  0  0  0  0  0  0
    7.4398  -15.1792   22.8621 N   0  0  0  0  0  0  0  0  0  0  0  0
    9.7455  -15.4556   22.2879 C   0  0  0  0  0  0  0  0  0  0  0  0
   10.0911  -14.9380   23.3814 O   0  0  0  0  0  0  0  0  0  0  0  0
   10.8626  -16.0022   21.5429 N   0  0  0  0  0  0  0  0  0  0  0  0
   11.9395  -16.7078   22.1869 C   0  0  1  0  0  0  0  0  0  0  0  0
   11.5506  -17.9974   22.8227 C   0  0  0  0  0  0  0  0  0  0  0  0
   12.7056  -18.8223   23.3375 C   0  0  0  0  0  0  0  0  0  0  0  0
   12.2105  -20.0969   23.9865 C   0  0  0  0  0  0  0  0  0  0  0  0
   13.3498  -20.8580   24.6361 C   0  0  0  0  0  0  0  0  0  0  0  0
   12.7603  -21.9761   25.3821 N   0  0  0  0  0  0  0  0  0  0  0  0
   13.0271  -17.0351   21.1941 C   0  0  0  0  0  0  0  0  0  0  0  0
   12.6257  -17.5413   19.9621 O   0  0  0  0  0  0  0  0  0  0  0  0
   14.2168  -16.8456   21.5040 O   0  0  0  0  0  0  0  0  0  0  0  0
  2  1  1  1
  2 10  1  0
  3  2  1  0
  3  4  1  0
  4  5  2  0
  5  6  1  0
  7  6  2  0
  8  7  1  0
  9  4  1  0
  9  8  2  0
 10 11  2  0
 12 13  1  0
 13 15  1  0
 14 13  2  0
 16 15  1  0
 17 16  1  6
 17 19  1  0
 18 17  1  0
 18 10  1  0
 19 21  1  0
 19 20  2  0
 21 22  1  0
 22 28  1  0
 22 23  1  6
 24 25  1  0
 24 23  1  0
 26 25  1  0
 27 26  1  0
 28 30  2  0
 28 29  1  0
M  END
$$$$
