FQK.pdb
     RDKit          3D

 30 30  0  0  1  0  0  0  0  0999 V2000
    6.0788  -16.5680   25.2616 N   0  0  0  0  0  0  0  0  0  0  0  0
    6.9016  -15.4657   24.7970 C   0  0  1  0  0  0  0  0  0  0  0  0
    7.5264  -14.8229   26.0143 C   0  0  0  0  0  0  0  0  0  0  0  0
    6.8652  -13.5357   26.2833 C   0  0  0  0  0  0  0  0  0  0  0  0
    7.2719  -12.3479   25.7015 C   0  0  0  0  0  0  0  0  0  0  0  0
    6.6607  -11.1380   25.9468 C   0  0  0  0  0  0  0  0  0  0  0  0
    5.5874  -11.0874   26.8131 C   0  0  0  0  0  0  0  0  0  0  0  0
    5.1544  -12.2373   27.4083 C   0  0  0  0  0  0  0  0  0  0  0  0
    5.7815  -13.4422   27.1490 C   0  0  0  0  0  0  0  0  0  0  0  0
    7.9172  -15.9581   23.8412 C   0  0  0  0  0  0  0  0  0  0  0  0
    8.3760  -17.1181   23.9468 O   0  0  0  0  0  0  0  0  0  0  0  0
    9.0942  -12.9436   18.4747 N   0  0  0  0  0  0  0  0  0  0  0  0
    8.0147  -13.8246   18.7087 C   0  0  0  0  0  0  0  0  0  0  0  0
    7.0293  -13.7899   17.9349 O   0  0  0  0  0  0  0  0  0  0  0  0
    8.0726  -14.7603   19.8402 C   0  0  0  0  0  0  0  0  0  0  0  0
    9.2919  -14.7110   20.6879 C   0  0  0  0  0  0  0  0  0  0  0  0
    9.3670  -15.6042   21.8654 C   0  0  2  0  0  0  0  0  0  0  0  0
    8.3598  -15.1093   22.8158 N   0  0  0  0  0  0  0  0  0  0  0  0
   10.6406  -15.7809   22.5534 C   0  0  0  0  0  0  0  0  0  0  0  0
   11.2004  -14.9166   23.2763 O   0  0  0  0  0  0  0  0  0  0  0  0
   11.3980  -17.0133   22.4561 N   0  0  0  0  0  0  0  0  0  0  0  0
   12.6087  -17.2281   23.2049 C   0  0  1  0  0  0  0  0  0  0  0  0
   12.6865  -18.5400   23.9058 C   0  0  0  0  0  0  0  0  0  0  0  0
   12.4954  -18.4700   25.4018 C   0  0  0  0  0  0  0  0  0  0  0  0
   12.4232  -19.8578   26.0014 C   0  0  0  0  0  0  0  0  0  0  0  0
   12.1448  -19.7963   27.4907 C   0  0  0  0  0  0  0  0  0  0  0  0
   11.8550  -21.1636   27.9388 N   0  0  0  0  0  0  0  0  0  0  0  0
   13.8120  -17.1596   22.2975 C   0  0  0  0  0  0  0  0  0  0  0  0
   14.9624  -16.5754   22.8176 O   0  0  0  0  0  0  0  0  0  0  0  0
   13.7356  -17.6170   21.1433 O   0  0  0  0  0  0  0  0  0  0  0  0
  2  1  1  1
  2 10  1  0
  3  2  1  0
  3  4  1  0
  4  5  2  0
  5  6  1  0
  7  6  2  0
  8  7  1  0
  9  4  1  0
  9  8  2  0
 10 11  2  0
 12 13  1  0
 13 15  1  0
 14 13  2  0
 16 15  1  0
 17 16  1  6
 17 19  1  0
 18 17  1  0
 18 10  1  0
 19 21  1  0
 19 20  2  0
 21 22  1  0
 22 28  1  0
 22 23  1  6
 24 25  1  0
 24 23  1  0
 26 25  1  0
 27 26  1  0
 28 30  2  0
 28 29  1  0
M  END
$$$$
