FQK.pdb
     RDKit          3D

 30 30  0  0  1  0  0  0  0  0999 V2000
    5.6103  -17.3943   24.8445 N   0  0  0  0  0  0  0  0  0  0  0  0
    6.1996  -16.0710   24.7469 C   0  0  1  0  0  0  0  0  0  0  0  0
    6.6065  -15.6528   26.1415 C   0  0  0  0  0  0  0  0  0  0  0  0
    6.6020  -14.1839   26.2342 C   0  0  0  0  0  0  0  0  0  0  0  0
    7.7615  -13.4286   26.2267 C   0  0  0  0  0  0  0  0  0  0  0  0
    7.7684  -12.0538   26.3136 C   0  0  0  0  0  0  0  0  0  0  0  0
    6.5693  -11.3778   26.4138 C   0  0  0  0  0  0  0  0  0  0  0  0
    5.4019  -12.0858   26.4246 C   0  0  0  0  0  0  0  0  0  0  0  0
    5.4161  -13.4658   26.3364 C   0  0  0  0  0  0  0  0  0  0  0  0
    7.3460  -16.0934   23.8128 C   0  0  0  0  0  0  0  0  0  0  0  0
    8.1159  -17.0801   23.7792 O   0  0  0  0  0  0  0  0  0  0  0  0
    9.1492  -14.9067   18.4000 N   0  0  0  0  0  0  0  0  0  0  0  0
    7.8463  -14.8737   18.9455 C   0  0  0  0  0  0  0  0  0  0  0  0
    6.9800  -15.6542   18.4856 O   0  0  0  0  0  0  0  0  0  0  0  0
    7.5386  -13.9385   20.0364 C   0  0  0  0  0  0  0  0  0  0  0  0
    8.5255  -13.8540   21.1440 C   0  0  0  0  0  0  0  0  0  0  0  0
    8.6927  -15.0284   22.0286 C   0  0  2  0  0  0  0  0  0  0  0  0
    7.5598  -14.9958   22.9658 N   0  0  0  0  0  0  0  0  0  0  0  0
    9.9357  -15.1967   22.7726 C   0  0  0  0  0  0  0  0  0  0  0  0
   10.3807  -14.3932   23.6325 O   0  0  0  0  0  0  0  0  0  0  0  0
   10.7963  -16.3464   22.5740 N   0  0  0  0  0  0  0  0  0  0  0  0
   12.0019  -16.5400   23.3366 C   0  0  1  0  0  0  0  0  0  0  0  0
   12.0458  -17.8009   24.1282 C   0  0  0  0  0  0  0  0  0  0  0  0
   11.4436  -17.7019   25.5091 C   0  0  0  0  0  0  0  0  0  0  0  0
   11.4194  -19.0560   26.1849 C   0  0  0  0  0  0  0  0  0  0  0  0
   10.7669  -18.9737   27.5512 C   0  0  0  0  0  0  0  0  0  0  0  0
   10.7153  -20.3362   28.0945 N   0  0  0  0  0  0  0  0  0  0  0  0
   13.2053  -16.5676   22.4272 C   0  0  0  0  0  0  0  0  0  0  0  0
   12.9615  -16.5779   21.0577 O   0  0  0  0  0  0  0  0  0  0  0  0
   14.3466  -16.5800   22.9216 O   0  0  0  0  0  0  0  0  0  0  0  0
  2  1  1  1
  2 10  1  0
  3  2  1  0
  3  4  1  0
  4  5  2  0
  5  6  1  0
  7  6  2  0
  8  7  1  0
  9  4  1  0
  9  8  2  0
 10 11  2  0
 12 13  1  0
 13 15  1  0
 14 13  2  0
 16 15  1  0
 17 16  1  1
 17 19  1  0
 18 17  1  0
 18 10  1  0
 19 21  1  0
 19 20  2  0
 21 22  1  0
 22 28  1  0
 22 23  1  6
 24 25  1  0
 24 23  1  0
 26 25  1  0
 27 26  1  0
 28 30  2  0
 28 29  1  0
M  END
$$$$
