FQK.pdb
     RDKit          3D

 30 30  0  0  1  0  0  0  0  0999 V2000
    5.5746  -17.4213   25.4488 N   0  0  0  0  0  0  0  0  0  0  0  0
    6.2624  -16.1711   25.1806 C   0  0  1  0  0  0  0  0  0  0  0  0
    6.9602  -15.7559   26.4558 C   0  0  0  0  0  0  0  0  0  0  0  0
    6.9196  -14.2900   26.5824 C   0  0  0  0  0  0  0  0  0  0  0  0
    8.0014  -13.4813   26.2815 C   0  0  0  0  0  0  0  0  0  0  0  0
    7.9742  -12.1089   26.3971 C   0  0  0  0  0  0  0  0  0  0  0  0
    6.8196  -11.4910   26.8331 C   0  0  0  0  0  0  0  0  0  0  0  0
    5.7292  -12.2529   27.1405 C   0  0  0  0  0  0  0  0  0  0  0  0
    5.7765  -13.6295   27.0178 C   0  0  0  0  0  0  0  0  0  0  0  0
    7.2077  -16.3428   24.0562 C   0  0  0  0  0  0  0  0  0  0  0  0
    7.9154  -17.3724   23.9759 O   0  0  0  0  0  0  0  0  0  0  0  0
    7.1964  -12.5956   18.9704 N   0  0  0  0  0  0  0  0  0  0  0  0
    8.2634  -13.4784   18.6905 C   0  0  0  0  0  0  0  0  0  0  0  0
    8.8086  -13.4272   17.5630 O   0  0  0  0  0  0  0  0  0  0  0  0
    8.7128  -14.4248   19.7207 C   0  0  0  0  0  0  0  0  0  0  0  0
    7.8999  -14.4986   20.9624 C   0  0  0  0  0  0  0  0  0  0  0  0
    8.2805  -15.4879   21.9949 C   0  0  2  0  0  0  0  0  0  0  0  0
    7.3014  -15.3380   23.0819 N   0  0  0  0  0  0  0  0  0  0  0  0
    9.6297  -15.4665   22.5482 C   0  0  0  0  0  0  0  0  0  0  0  0
   10.0309  -14.6876   23.4512 O   0  0  0  0  0  0  0  0  0  0  0  0
   10.6611  -16.3738   22.0845 N   0  0  0  0  0  0  0  0  0  0  0  0
   11.8744  -16.5961   22.8267 C   0  0  1  0  0  0  0  0  0  0  0  0
   11.9496  -17.9102   23.5237 C   0  0  0  0  0  0  0  0  0  0  0  0
   13.2700  -18.1931   24.1990 C   0  0  0  0  0  0  0  0  0  0  0  0
   13.2388  -19.5321   24.9040 C   0  0  0  0  0  0  0  0  0  0  0  0
   14.5244  -19.7770   25.6697 C   0  0  0  0  0  0  0  0  0  0  0  0
   14.4121  -21.0962   26.3033 N   0  0  0  0  0  0  0  0  0  0  0  0
   13.0735  -16.5306   21.9137 C   0  0  0  0  0  0  0  0  0  0  0  0
   12.9095  -17.0160   20.6204 O   0  0  0  0  0  0  0  0  0  0  0  0
   14.1419  -16.0563   22.3388 O   0  0  0  0  0  0  0  0  0  0  0  0
  2  1  1  1
  2 10  1  0
  3  2  1  0
  3  4  1  0
  4  5  2  0
  5  6  1  0
  7  6  2  0
  8  7  1  0
  9  4  1  0
  9  8  2  0
 10 11  2  0
 12 13  1  0
 13 15  1  0
 14 13  2  0
 16 15  1  0
 17 16  1  6
 17 19  1  0
 18 17  1  0
 18 10  1  0
 19 21  1  0
 19 20  2  0
 21 22  1  0
 22 28  1  0
 22 23  1  6
 24 25  1  0
 24 23  1  0
 26 25  1  0
 27 26  1  0
 28 30  2  0
 28 29  1  0
M  END
$$$$
