FQK.pdb
     RDKit          3D

 30 30  0  0  1  0  0  0  0  0999 V2000
    8.0375  -15.6788   25.9573 N   0  0  0  0  0  0  0  0  0  0  0  0
    6.8406  -16.0587   25.2285 C   0  0  1  0  0  0  0  0  0  0  0  0
    6.4266  -14.8720   24.3883 C   0  0  0  0  0  0  0  0  0  0  0  0
    6.5019  -13.6462   25.1997 C   0  0  0  0  0  0  0  0  0  0  0  0
    5.5928  -13.3527   26.2007 C   0  0  0  0  0  0  0  0  0  0  0  0
    5.6538  -12.2084   26.9652 C   0  0  0  0  0  0  0  0  0  0  0  0
    6.6647  -11.2969   26.7365 C   0  0  0  0  0  0  0  0  0  0  0  0
    7.5826  -11.5488   25.7576 C   0  0  0  0  0  0  0  0  0  0  0  0
    7.5042  -12.7036   25.0009 C   0  0  0  0  0  0  0  0  0  0  0  0
    7.1059  -17.2599   24.4074 C   0  0  0  0  0  0  0  0  0  0  0  0
    6.3166  -17.5884   23.4928 O   0  0  0  0  0  0  0  0  0  0  0  0
   12.4759  -17.3777   21.5042 N   0  0  0  0  0  0  0  0  0  0  0  0
   11.3058  -16.5861   21.5266 C   0  0  0  0  0  0  0  0  0  0  0  0
   11.4214  -15.3416   21.6223 O   0  0  0  0  0  0  0  0  0  0  0  0
    9.9895  -17.2319   21.4304 C   0  0  0  0  0  0  0  0  0  0  0  0
    9.1352  -17.1948   22.6456 C   0  0  0  0  0  0  0  0  0  0  0  0
    9.1505  -18.3641   23.5525 C   0  0  2  0  0  0  0  0  0  0  0  0
    8.2520  -18.0260   24.6665 N   0  0  0  0  0  0  0  0  0  0  0  0
   10.4210  -18.8474   24.0807 C   0  0  0  0  0  0  0  0  0  0  0  0
   11.3437  -19.3593   23.3954 O   0  0  0  0  0  0  0  0  0  0  0  0
   10.7379  -18.7780   25.4938 N   0  0  0  0  0  0  0  0  0  0  0  0
   11.1554  -19.9351   26.2416 C   0  0  1  0  0  0  0  0  0  0  0  0
   10.2435  -21.1083   26.1400 C   0  0  0  0  0  0  0  0  0  0  0  0
    9.0375  -21.0522   27.0467 C   0  0  0  0  0  0  0  0  0  0  0  0
    8.7884  -22.3965   27.6960 C   0  0  0  0  0  0  0  0  0  0  0  0
    7.5584  -22.3564   28.5819 C   0  0  0  0  0  0  0  0  0  0  0  0
    7.3513  -23.7119   29.1052 N   0  0  0  0  0  0  0  0  0  0  0  0
   12.5094  -20.4081   25.7736 C   0  0  0  0  0  0  0  0  0  0  0  0
   13.5053  -20.5247   26.7378 O   0  0  0  0  0  0  0  0  0  0  0  0
   12.6841  -20.6712   24.5705 O   0  0  0  0  0  0  0  0  0  0  0  0
  2  1  1  6
  2 10  1  0
  3  2  1  0
  3  4  1  0
  4  5  2  0
  5  6  1  0
  7  6  2  0
  8  7  1  0
  9  4  1  0
  9  8  2  0
 10 11  2  0
 12 13  1  0
 13 15  1  0
 14 13  2  0
 16 15  1  0
 17 16  1  1
 17 19  1  0
 18 17  1  0
 18 10  1  0
 19 21  1  0
 19 20  2  0
 21 22  1  0
 22 28  1  0
 22 23  1  6
 24 25  1  0
 24 23  1  0
 26 25  1  0
 27 26  1  0
 28 30  2  0
 28 29  1  0
M  END
$$$$
