FQK.pdb
     RDKit          3D

 30 30  0  0  1  0  0  0  0  0999 V2000
    5.4105  -17.8766   24.8479 N   0  0  0  0  0  0  0  0  0  0  0  0
    6.0823  -16.5918   24.7722 C   0  0  1  0  0  0  0  0  0  0  0  0
    6.1968  -16.0572   26.1816 C   0  0  0  0  0  0  0  0  0  0  0  0
    6.6484  -14.6569   26.1401 C   0  0  0  0  0  0  0  0  0  0  0  0
    7.9651  -14.2874   26.3510 C   0  0  0  0  0  0  0  0  0  0  0  0
    8.3981  -12.9802   26.3151 C   0  0  0  0  0  0  0  0  0  0  0  0
    7.4885  -11.9746   26.0574 C   0  0  0  0  0  0  0  0  0  0  0  0
    6.1791  -12.2969   25.8436 C   0  0  0  0  0  0  0  0  0  0  0  0
    5.7641  -13.6154   25.8839 C   0  0  0  0  0  0  0  0  0  0  0  0
    7.4026  -16.7467   24.1238 C   0  0  0  0  0  0  0  0  0  0  0  0
    8.1355  -17.7218   24.4055 O   0  0  0  0  0  0  0  0  0  0  0  0
    7.1495  -12.4093   19.4560 N   0  0  0  0  0  0  0  0  0  0  0  0
    7.6452  -13.7210   19.6288 C   0  0  0  0  0  0  0  0  0  0  0  0
    7.7232  -14.4728   18.6289 O   0  0  0  0  0  0  0  0  0  0  0  0
    8.0624  -14.1702   20.9642 C   0  0  0  0  0  0  0  0  0  0  0  0
    8.7487  -15.4857   21.0439 C   0  0  0  0  0  0  0  0  0  0  0  0
    9.0211  -16.0574   22.3814 C   0  0  2  0  0  0  0  0  0  0  0  0
    7.8229  -15.7877   23.1903 N   0  0  0  0  0  0  0  0  0  0  0  0
   10.2090  -15.6359   23.1148 C   0  0  0  0  0  0  0  0  0  0  0  0
   10.7192  -14.4867   23.0700 O   0  0  0  0  0  0  0  0  0  0  0  0
   10.9302  -16.5411   23.9879 N   0  0  0  0  0  0  0  0  0  0  0  0
   12.0891  -16.1240   24.7332 C   0  0  1  0  0  0  0  0  0  0  0  0
   12.3718  -16.9301   25.9533 C   0  0  0  0  0  0  0  0  0  0  0  0
   11.3174  -16.8385   27.0301 C   0  0  0  0  0  0  0  0  0  0  0  0
   11.6575  -17.7422   28.1956 C   0  0  0  0  0  0  0  0  0  0  0  0
   10.6521  -17.5863   29.3200 C   0  0  0  0  0  0  0  0  0  0  0  0
   11.0829  -18.4610   30.4170 N   0  0  0  0  0  0  0  0  0  0  0  0
   13.3275  -16.2037   23.8754 C   0  0  0  0  0  0  0  0  0  0  0  0
   14.5029  -15.6911   24.4146 O   0  0  0  0  0  0  0  0  0  0  0  0
   13.2564  -16.7129   22.7427 O   0  0  0  0  0  0  0  0  0  0  0  0
  2  1  1  1
  2 10  1  0
  3  2  1  0
  3  4  1  0
  4  5  2  0
  5  6  1  0
  7  6  2  0
  8  7  1  0
  9  4  1  0
  9  8  2  0
 10 11  2  0
 12 13  1  0
 13 15  1  0
 14 13  2  0
 16 15  1  0
 17 16  1  6
 17 19  1  0
 18 17  1  0
 18 10  1  0
 19 21  1  0
 19 20  2  0
 21 22  1  0
 22 28  1  0
 22 23  1  1
 24 25  1  0
 24 23  1  0
 26 25  1  0
 27 26  1  0
 28 30  2  0
 28 29  1  0
M  END
$$$$
