FQK.pdb
     RDKit          3D

 30 30  0  0  1  0  0  0  0  0999 V2000
    5.4966  -17.0067   23.2305 N   0  0  0  0  0  0  0  0  0  0  0  0
    6.3977  -16.0306   23.8164 C   0  0  1  0  0  0  0  0  0  0  0  0
    5.8137  -15.6179   25.1483 C   0  0  0  0  0  0  0  0  0  0  0  0
    6.6679  -14.5874   25.7605 C   0  0  0  0  0  0  0  0  0  0  0  0
    7.7632  -14.8928   26.5491 C   0  0  0  0  0  0  0  0  0  0  0  0
    8.5686  -13.9363   27.1270 C   0  0  0  0  0  0  0  0  0  0  0  0
    8.2853  -12.6013   26.9211 C   0  0  0  0  0  0  0  0  0  0  0  0
    7.2132  -12.2571   26.1489 C   0  0  0  0  0  0  0  0  0  0  0  0
    6.4167  -13.2324   25.5774 C   0  0  0  0  0  0  0  0  0  0  0  0
    7.7521  -16.6085   23.9544 C   0  0  0  0  0  0  0  0  0  0  0  0
    7.9012  -17.7786   24.3740 O   0  0  0  0  0  0  0  0  0  0  0  0
   11.6806  -17.7242   20.6664 N   0  0  0  0  0  0  0  0  0  0  0  0
   12.7132  -17.1445   21.4371 C   0  0  0  0  0  0  0  0  0  0  0  0
   13.8803  -17.5834   21.3090 O   0  0  0  0  0  0  0  0  0  0  0  0
   12.4013  -16.0439   22.3593 C   0  0  0  0  0  0  0  0  0  0  0  0
   10.9649  -15.7109   22.5430 C   0  0  0  0  0  0  0  0  0  0  0  0
   10.1913  -16.4655   23.5539 C   0  0  2  0  0  0  0  0  0  0  0  0
    8.8666  -15.8295   23.6098 N   0  0  0  0  0  0  0  0  0  0  0  0
   10.7209  -16.6074   24.9053 C   0  0  0  0  0  0  0  0  0  0  0  0
   10.8565  -15.6698   25.7333 O   0  0  0  0  0  0  0  0  0  0  0  0
   11.1543  -17.8891   25.4263 N   0  0  0  0  0  0  0  0  0  0  0  0
   11.4947  -18.0755   26.8126 C   0  0  1  0  0  0  0  0  0  0  0  0
   10.8965  -19.2832   27.4468 C   0  0  0  0  0  0  0  0  0  0  0  0
   11.3539  -19.5468   28.8614 C   0  0  0  0  0  0  0  0  0  0  0  0
   10.7279  -20.8140   29.4028 C   0  0  0  0  0  0  0  0  0  0  0  0
   10.2482  -21.7107   28.2781 C   0  0  0  0  0  0  0  0  0  0  0  0
    9.6201  -22.8862   28.8929 N   0  0  0  0  0  0  0  0  0  0  0  0
   12.9886  -18.2049   26.9785 C   0  0  0  0  0  0  0  0  0  0  0  0
   13.4834  -18.1854   28.2785 O   0  0  0  0  0  0  0  0  0  0  0  0
   13.7090  -18.3216   25.9712 O   0  0  0  0  0  0  0  0  0  0  0  0
  2  1  1  1
  2 10  1  0
  3  2  1  0
  3  4  1  0
  4  5  2  0
  5  6  1  0
  7  6  2  0
  8  7  1  0
  9  4  1  0
  9  8  2  0
 10 11  2  0
 12 13  1  0
 13 15  1  0
 14 13  2  0
 16 15  1  0
 17 16  1  6
 17 19  1  0
 18 17  1  0
 18 10  1  0
 19 21  1  0
 19 20  2  0
 21 22  1  0
 22 28  1  0
 22 23  1  6
 24 25  1  0
 24 23  1  0
 26 25  1  0
 27 26  1  0
 28 30  2  0
 28 29  1  0
M  END
$$$$
