FQK.pdb
     RDKit          3D

 30 30  0  0  1  0  0  0  0  0999 V2000
    5.5493  -17.7409   25.2941 N   0  0  0  0  0  0  0  0  0  0  0  0
    6.0710  -16.3876   25.2292 C   0  0  1  0  0  0  0  0  0  0  0  0
    6.5713  -16.0287   26.6100 C   0  0  0  0  0  0  0  0  0  0  0  0
    6.7727  -14.5732   26.6959 C   0  0  0  0  0  0  0  0  0  0  0  0
    5.7255  -13.6690   26.6761 C   0  0  0  0  0  0  0  0  0  0  0  0
    5.9031  -12.3052   26.7553 C   0  0  0  0  0  0  0  0  0  0  0  0
    7.1816  -11.7959   26.8601 C   0  0  0  0  0  0  0  0  0  0  0  0
    8.2430  -12.6545   26.8831 C   0  0  0  0  0  0  0  0  0  0  0  0
    8.0438  -14.0205   26.8025 C   0  0  0  0  0  0  0  0  0  0  0  0
    7.1380  -16.3032   24.2084 C   0  0  0  0  0  0  0  0  0  0  0  0
    8.0161  -17.1926   24.1357 O   0  0  0  0  0  0  0  0  0  0  0  0
    6.6948  -13.6628   18.8706 N   0  0  0  0  0  0  0  0  0  0  0  0
    8.1033  -13.6074   18.9657 C   0  0  0  0  0  0  0  0  0  0  0  0
    8.7746  -13.4894   17.9137 O   0  0  0  0  0  0  0  0  0  0  0  0
    8.7461  -13.6810   20.2850 C   0  0  0  0  0  0  0  0  0  0  0  0
    7.8659  -13.9865   21.4424 C   0  0  0  0  0  0  0  0  0  0  0  0
    8.2073  -15.1428   22.3004 C   0  0  2  0  0  0  0  0  0  0  0  0
    7.1537  -15.2147   23.3237 N   0  0  0  0  0  0  0  0  0  0  0  0
    9.5152  -15.1995   22.9431 C   0  0  0  0  0  0  0  0  0  0  0  0
    9.9528  -14.3605   23.7724 O   0  0  0  0  0  0  0  0  0  0  0  0
   10.4573  -16.2665   22.6676 N   0  0  0  0  0  0  0  0  0  0  0  0
   11.7236  -16.3627   23.3455 C   0  0  1  0  0  0  0  0  0  0  0  0
   12.0150  -17.6967   23.9405 C   0  0  0  0  0  0  0  0  0  0  0  0
   11.9620  -17.7416   25.4488 C   0  0  0  0  0  0  0  0  0  0  0  0
   12.2028  -19.1475   25.9549 C   0  0  0  0  0  0  0  0  0  0  0  0
   12.1674  -19.1969   27.4700 C   0  0  0  0  0  0  0  0  0  0  0  0
   12.2868  -20.6054   27.8651 N   0  0  0  0  0  0  0  0  0  0  0  0
   12.8571  -16.0649   22.3955 C   0  0  0  0  0  0  0  0  0  0  0  0
   12.5419  -15.9814   21.0432 O   0  0  0  0  0  0  0  0  0  0  0  0
   14.0068  -15.9081   22.8437 O   0  0  0  0  0  0  0  0  0  0  0  0
  2  1  1  1
  2 10  1  0
  3  2  1  0
  3  4  1  0
  4  5  2  0
  5  6  1  0
  7  6  2  0
  8  7  1  0
  9  4  1  0
  9  8  2  0
 10 11  2  0
 12 13  1  0
 13 15  1  0
 14 13  2  0
 16 15  1  0
 17 16  1  1
 17 19  1  0
 18 17  1  0
 18 10  1  0
 19 21  1  0
 19 20  2  0
 21 22  1  0
 22 28  1  0
 22 23  1  6
 24 25  1  0
 24 23  1  0
 26 25  1  0
 27 26  1  0
 28 30  2  0
 28 29  1  0
M  END
$$$$
