FQK.pdb
     RDKit          3D

 30 30  0  0  1  0  0  0  0  0999 V2000
    6.1146  -16.3599   25.3223 N   0  0  0  0  0  0  0  0  0  0  0  0
    6.4826  -15.9428   23.9812 C   0  0  1  0  0  0  0  0  0  0  0  0
    6.1322  -14.4780   23.8506 C   0  0  0  0  0  0  0  0  0  0  0  0
    6.6875  -13.7368   24.9946 C   0  0  0  0  0  0  0  0  0  0  0  0
    5.9421  -13.4219   26.1170 C   0  0  0  0  0  0  0  0  0  0  0  0
    6.4518  -12.7282   27.1925 C   0  0  0  0  0  0  0  0  0  0  0  0
    7.7695  -12.3182   27.1682 C   0  0  0  0  0  0  0  0  0  0  0  0
    8.5397  -12.6089   26.0789 C   0  0  0  0  0  0  0  0  0  0  0  0
    8.0093  -13.3064   25.0091 C   0  0  0  0  0  0  0  0  0  0  0  0
    7.9207  -16.1968   23.7472 C   0  0  0  0  0  0  0  0  0  0  0  0
    8.5914  -16.8503   24.5782 O   0  0  0  0  0  0  0  0  0  0  0  0
   13.5008  -14.9838   20.8477 N   0  0  0  0  0  0  0  0  0  0  0  0
   12.3590  -14.9624   20.0158 C   0  0  0  0  0  0  0  0  0  0  0  0
   12.2345  -14.0310   19.1862 O   0  0  0  0  0  0  0  0  0  0  0  0
   11.3536  -16.0275   20.1341 C   0  0  0  0  0  0  0  0  0  0  0  0
   10.0810  -15.6742   20.8148 C   0  0  0  0  0  0  0  0  0  0  0  0
    9.8053  -16.2661   22.1428 C   0  0  2  0  0  0  0  0  0  0  0  0
    8.5233  -15.6963   22.5835 N   0  0  0  0  0  0  0  0  0  0  0  0
   10.7911  -16.1301   23.2089 C   0  0  0  0  0  0  0  0  0  0  0  0
   11.0618  -15.0608   23.8142 O   0  0  0  0  0  0  0  0  0  0  0  0
   11.5728  -17.2580   23.6764 N   0  0  0  0  0  0  0  0  0  0  0  0
   12.5857  -17.1191   24.6899 C   0  0  1  0  0  0  0  0  0  0  0  0
   12.6005  -18.2021   25.7123 C   0  0  0  0  0  0  0  0  0  0  0  0
   11.8176  -17.8980   26.9670 C   0  0  0  0  0  0  0  0  0  0  0  0
   11.8748  -19.0617   27.9331 C   0  0  0  0  0  0  0  0  0  0  0  0
   11.0770  -18.7693   29.1891 C   0  0  0  0  0  0  0  0  0  0  0  0
   11.1260  -19.9722   30.0288 N   0  0  0  0  0  0  0  0  0  0  0  0
   13.9597  -17.1043   24.0673 C   0  0  0  0  0  0  0  0  0  0  0  0
   14.1395  -17.8647   22.9164 O   0  0  0  0  0  0  0  0  0  0  0  0
   14.8628  -16.4288   24.5921 O   0  0  0  0  0  0  0  0  0  0  0  0
  2  1  1  1
  2 10  1  0
  3  2  1  0
  3  4  1  0
  4  5  2  0
  5  6  1  0
  7  6  2  0
  8  7  1  0
  9  4  1  0
  9  8  2  0
 10 11  2  0
 12 13  1  0
 13 15  1  0
 14 13  2  0
 16 15  1  0
 17 16  1  6
 17 19  1  0
 18 17  1  0
 18 10  1  0
 19 21  1  0
 19 20  2  0
 21 22  1  0
 22 28  1  0
 22 23  1  1
 24 25  1  0
 24 23  1  0
 26 25  1  0
 27 26  1  0
 28 30  2  0
 28 29  1  0
M  END
$$$$
