MQQ.pdb
     RDKit          3D

 27 26  0  0  1  0  0  0  0  0999 V2000
   30.3377  -21.4769  -10.3605 C   0  0  0  0  0  0  0  0  0  0  0  0
   29.1461  -22.0639   -9.1393 S   0  0  0  0  0  0  0  0  0  0  0  0
   27.5621  -21.2101   -9.4414 C   0  0  0  0  0  0  0  0  0  0  0  0
   27.4551  -20.9896  -10.9326 C   0  0  0  0  0  0  0  0  0  0  0  0
   26.1278  -20.3319  -11.2204 C   0  0  2  0  0  0  0  0  0  0  0  0
   25.0423  -21.0230  -10.5570 N   0  0  0  0  0  0  0  0  0  0  0  0
   25.9261  -20.2592  -12.6766 C   0  0  0  0  0  0  0  0  0  0  0  0
   26.7341  -19.5701  -13.3539 O   0  0  0  0  0  0  0  0  0  0  0  0
   28.4626  -22.5339  -16.2846 N   0  0  0  0  0  0  0  0  0  0  0  0
   27.4844  -22.1648  -17.2469 C   0  0  0  0  0  0  0  0  0  0  0  0
   27.7273  -22.3129  -18.4610 O   0  0  0  0  0  0  0  0  0  0  0  0
   26.1754  -21.6041  -16.8162 C   0  0  0  0  0  0  0  0  0  0  0  0
   26.1468  -21.5217  -15.3075 C   0  0  0  0  0  0  0  0  0  0  0  0
   24.8619  -20.9131  -14.8100 C   0  0  2  0  0  0  0  0  0  0  0  0
   24.8818  -20.9122  -13.3672 N   0  0  0  0  0  0  0  0  0  0  0  0
   23.7559  -21.8082  -15.2832 C   0  0  0  0  0  0  0  0  0  0  0  0
   23.8514  -23.0293  -15.0808 O   0  0  0  0  0  0  0  0  0  0  0  0
   20.5465  -23.1203  -13.0915 N   0  0  0  0  0  0  0  0  0  0  0  0
   19.5818  -22.0962  -12.8728 C   0  0  0  0  0  0  0  0  0  0  0  0
   18.4897  -22.2815  -12.2870 O   0  0  0  0  0  0  0  0  0  0  0  0
   19.9225  -20.7254  -13.3857 C   0  0  0  0  0  0  0  0  0  0  0  0
   21.3061  -20.7089  -13.9763 C   0  0  0  0  0  0  0  0  0  0  0  0
   21.2858  -21.2647  -15.3555 C   0  0  2  0  0  0  0  0  0  0  0  0
   22.6141  -21.3029  -15.9498 N   0  0  0  0  0  0  0  0  0  0  0  0
   20.2872  -20.7058  -16.2674 C   0  0  0  0  0  0  0  0  0  0  0  0
   19.3717  -21.4653  -16.7600 O   0  0  0  0  0  0  0  0  0  0  0  0
   20.1935  -19.3926  -16.6897 O   0  0  0  0  0  0  0  0  0  0  0  0
  2  1  1  0
  3  4  1  0
  3  2  1  0
  4  5  1  0
  5  6  1  1
  7  5  1  0
  7  8  2  0
  9 10  1  0
 10 12  1  0
 10 11  2  0
 12 13  1  0
 14 13  1  6
 14 15  1  0
 15  7  1  0
 16 14  1  0
 17 16  2  0
 19 20  2  0
 19 18  1  0
 21 19  1  0
 22 21  1  0
 23 22  1  1
 23 24  1  0
 24 16  1  0
 25 23  1  0
 26 25  2  0
 27 25  1  0
M  END
$$$$
