MQQ.pdb
     RDKit          3D

 27 26  0  0  1  0  0  0  0  0999 V2000
   21.7543  -27.5807   -0.8088 C   0  0  0  0  0  0  0  0  0  0  0  0
   20.7785  -26.1834   -0.2162 S   0  0  0  0  0  0  0  0  0  0  0  0
   19.1515  -26.8165    0.3142 C   0  0  0  0  0  0  0  0  0  0  0  0
   18.4224  -25.6681    0.9726 C   0  0  0  0  0  0  0  0  0  0  0  0
   17.1074  -26.1837    1.5037 C   0  0  2  0  0  0  0  0  0  0  0  0
   16.2949  -26.7444    0.4447 N   0  0  0  0  0  0  0  0  0  0  0  0
   16.4118  -25.1000    2.2166 C   0  0  0  0  0  0  0  0  0  0  0  0
   15.6629  -24.3368    1.5510 O   0  0  0  0  0  0  0  0  0  0  0  0
   11.7055  -25.2474    4.3342 N   0  0  0  0  0  0  0  0  0  0  0  0
   11.9422  -23.9353    4.8256 C   0  0  0  0  0  0  0  0  0  0  0  0
   10.9894  -23.2585    5.2605 O   0  0  0  0  0  0  0  0  0  0  0  0
   13.3163  -23.3650    4.8245 C   0  0  0  0  0  0  0  0  0  0  0  0
   14.2663  -24.3692    4.2140 C   0  0  0  0  0  0  0  0  0  0  0  0
   15.6880  -23.8718    4.2363 C   0  0  2  0  0  0  0  0  0  0  0  0
   16.5300  -24.8574    3.6027 N   0  0  0  0  0  0  0  0  0  0  0  0
   16.0747  -23.7537    5.6802 C   0  0  0  0  0  0  0  0  0  0  0  0
   16.4032  -24.7817    6.2938 O   0  0  0  0  0  0  0  0  0  0  0  0
   17.1547  -18.3970    8.8766 N   0  0  0  0  0  0  0  0  0  0  0  0
   17.5681  -19.3707    9.8296 C   0  0  0  0  0  0  0  0  0  0  0  0
   18.0818  -19.0875   10.9369 O   0  0  0  0  0  0  0  0  0  0  0  0
   17.3631  -20.8119    9.4566 C   0  0  0  0  0  0  0  0  0  0  0  0
   16.8210  -20.9257    8.0578 C   0  0  0  0  0  0  0  0  0  0  0  0
   16.5181  -22.3454    7.7350 C   0  0  2  0  0  0  0  0  0  0  0  0
   16.0756  -22.5112    6.3582 N   0  0  0  0  0  0  0  0  0  0  0  0
   15.6608  -23.0592    8.6818 C   0  0  0  0  0  0  0  0  0  0  0  0
   14.3886  -23.1026    8.4888 O   0  0  0  0  0  0  0  0  0  0  0  0
   16.0643  -23.7333    9.8195 O   0  0  0  0  0  0  0  0  0  0  0  0
  2  1  1  0
  3  4  1  0
  3  2  1  0
  4  5  1  0
  5  6  1  6
  7  5  1  0
  7  8  2  0
  9 10  1  0
 10 12  1  0
 10 11  2  0
 12 13  1  0
 14 13  1  1
 14 15  1  0
 15  7  1  0
 16 14  1  0
 17 16  2  0
 19 20  2  0
 19 18  1  0
 21 19  1  0
 22 21  1  0
 23 22  1  1
 23 24  1  0
 24 16  1  0
 25 23  1  0
 26 25  2  0
 27 25  1  0
M  END
$$$$
