MQQ.pdb
     RDKit          3D

 27 26  0  0  1  0  0  0  0  0999 V2000
   19.7302  -15.5382  -15.6931 C   0  0  0  0  0  0  0  0  0  0  0  0
   21.2575  -16.4981  -15.6497 S   0  0  0  0  0  0  0  0  0  0  0  0
   22.3591  -15.8641  -16.9588 C   0  0  0  0  0  0  0  0  0  0  0  0
   22.6955  -14.4348  -16.6011 C   0  0  0  0  0  0  0  0  0  0  0  0
   23.6074  -13.8812  -17.6683 C   0  0  2  0  0  0  0  0  0  0  0  0
   24.8826  -14.5666  -17.6792 N   0  0  0  0  0  0  0  0  0  0  0  0
   23.7633  -12.4309  -17.4711 C   0  0  0  0  0  0  0  0  0  0  0  0
   24.6442  -12.0331  -16.6637 O   0  0  0  0  0  0  0  0  0  0  0  0
   23.8286   -8.0952  -21.5447 N   0  0  0  0  0  0  0  0  0  0  0  0
   24.8173   -9.0324  -21.1406 C   0  0  0  0  0  0  0  0  0  0  0  0
   25.7788   -9.2785  -21.8956 O   0  0  0  0  0  0  0  0  0  0  0  0
   24.7129   -9.7205  -19.8257 C   0  0  0  0  0  0  0  0  0  0  0  0
   23.4061   -9.3368  -19.1710 C   0  0  0  0  0  0  0  0  0  0  0  0
   23.2120  -10.0526  -17.8598 C   0  0  2  0  0  0  0  0  0  0  0  0
   22.9864  -11.4521  -18.1288 N   0  0  0  0  0  0  0  0  0  0  0  0
   21.9796   -9.4698  -17.2354 C   0  0  0  0  0  0  0  0  0  0  0  0
   20.8964  -10.0535  -17.4006 O   0  0  0  0  0  0  0  0  0  0  0  0
   18.7782   -9.5016  -12.1439 N   0  0  0  0  0  0  0  0  0  0  0  0
   18.2623   -9.2076  -13.4379 C   0  0  0  0  0  0  0  0  0  0  0  0
   17.2539   -9.7661  -13.9293 O   0  0  0  0  0  0  0  0  0  0  0  0
   18.9911   -8.1631  -14.2353 C   0  0  0  0  0  0  0  0  0  0  0  0
   20.1797   -8.7638  -14.9351 C   0  0  0  0  0  0  0  0  0  0  0  0
   20.8620   -7.7379  -15.7679 C   0  0  2  0  0  0  0  0  0  0  0  0
   22.0168   -8.2809  -16.4682 N   0  0  0  0  0  0  0  0  0  0  0  0
   21.1598   -6.4629  -15.1147 C   0  0  0  0  0  0  0  0  0  0  0  0
   22.3726   -6.1751  -14.7921 O   0  0  0  0  0  0  0  0  0  0  0  0
   20.2560   -5.4706  -14.7831 O   0  0  0  0  0  0  0  0  0  0  0  0
  2  1  1  0
  3  4  1  0
  3  2  1  0
  4  5  1  0
  5  6  1  1
  7  5  1  0
  7  8  2  0
  9 10  1  0
 10 12  1  0
 10 11  2  0
 12 13  1  0
 14 13  1  6
 14 15  1  0
 15  7  1  0
 16 14  1  0
 17 16  2  0
 19 20  2  0
 19 18  1  0
 21 19  1  0
 22 21  1  0
 23 22  1  1
 23 24  1  0
 24 16  1  0
 25 23  1  0
 26 25  2  0
 27 25  1  0
M  END
$$$$
