MQQ.pdb
     RDKit          3D

 27 26  0  0  1  0  0  0  0  0999 V2000
   26.1901  -17.8797  -15.0011 C   0  0  0  0  0  0  0  0  0  0  0  0
   27.9231  -18.1865  -15.3990 S   0  0  0  0  0  0  0  0  0  0  0  0
   28.1710  -19.9922  -15.4839 C   0  0  0  0  0  0  0  0  0  0  0  0
   26.8176  -20.6135  -15.7415 C   0  0  0  0  0  0  0  0  0  0  0  0
   26.9946  -22.1085  -15.8465 C   0  0  2  0  0  0  0  0  0  0  0  0
   27.8733  -22.4593  -16.9424 N   0  0  0  0  0  0  0  0  0  0  0  0
   25.6746  -22.7473  -15.9727 C   0  0  0  0  0  0  0  0  0  0  0  0
   25.0162  -22.5458  -17.0273 O   0  0  0  0  0  0  0  0  0  0  0  0
   23.6635  -28.2212  -14.4123 N   0  0  0  0  0  0  0  0  0  0  0  0
   22.4190  -27.5907  -14.6823 C   0  0  0  0  0  0  0  0  0  0  0  0
   21.3688  -28.2625  -14.6550 O   0  0  0  0  0  0  0  0  0  0  0  0
   22.3611  -26.1377  -14.9967 C   0  0  0  0  0  0  0  0  0  0  0  0
   23.7484  -25.5512  -14.8743 C   0  0  0  0  0  0  0  0  0  0  0  0
   23.7521  -24.0723  -15.1604 C   0  0  2  0  0  0  0  0  0  0  0  0
   25.0945  -23.5732  -14.9851 N   0  0  0  0  0  0  0  0  0  0  0  0
   22.8574  -23.4389  -14.1374 C   0  0  0  0  0  0  0  0  0  0  0  0
   23.2032  -23.4678  -12.9454 O   0  0  0  0  0  0  0  0  0  0  0  0
   20.7883  -18.0279  -13.9722 N   0  0  0  0  0  0  0  0  0  0  0  0
   19.4953  -18.6072  -13.8318 C   0  0  0  0  0  0  0  0  0  0  0  0
   18.4296  -17.9490  -13.8656 O   0  0  0  0  0  0  0  0  0  0  0  0
   19.4391  -20.0957  -13.6332 C   0  0  0  0  0  0  0  0  0  0  0  0
   20.8245  -20.6820  -13.6218 C   0  0  0  0  0  0  0  0  0  0  0  0
   20.7574  -22.1647  -13.5298 C   0  0  2  0  0  0  0  0  0  0  0  0
   21.6379  -22.8131  -14.4907 N   0  0  0  0  0  0  0  0  0  0  0  0
   19.4190  -22.7559  -13.5186 C   0  0  0  0  0  0  0  0  0  0  0  0
   18.9570  -23.3180  -14.5807 O   0  0  0  0  0  0  0  0  0  0  0  0
   18.5383  -22.7928  -12.4534 O   0  0  0  0  0  0  0  0  0  0  0  0
  2  1  1  0
  3  4  1  0
  3  2  1  0
  4  5  1  0
  5  6  1  6
  7  5  1  0
  7  8  2  0
  9 10  1  0
 10 12  1  0
 10 11  2  0
 12 13  1  0
 14 13  1  1
 14 15  1  0
 15  7  1  0
 16 14  1  0
 17 16  2  0
 19 20  2  0
 19 18  1  0
 21 19  1  0
 22 21  1  0
 23 22  1  6
 23 24  1  0
 24 16  1  0
 25 23  1  0
 26 25  2  0
 27 25  1  0
M  END
$$$$
