MQQ.pdb
     RDKit          3D

 27 26  0  0  1  0  0  0  0  0999 V2000
   24.6289  -19.8223   -9.2880 C   0  0  0  0  0  0  0  0  0  0  0  0
   25.6226  -21.3281   -9.3163 S   0  0  0  0  0  0  0  0  0  0  0  0
   26.1161  -21.6455  -11.0439 C   0  0  0  0  0  0  0  0  0  0  0  0
   25.0283  -21.0787  -11.9267 C   0  0  0  0  0  0  0  0  0  0  0  0
   25.4135  -21.3175  -13.3661 C   0  0  2  0  0  0  0  0  0  0  0  0
   26.7070  -20.7415  -13.6679 N   0  0  0  0  0  0  0  0  0  0  0  0
   24.3575  -20.7915  -14.2463 C   0  0  0  0  0  0  0  0  0  0  0  0
   24.3766  -19.5641  -14.5280 O   0  0  0  0  0  0  0  0  0  0  0  0
   23.7864  -20.6724  -19.0638 N   0  0  0  0  0  0  0  0  0  0  0  0
   22.3697  -20.5865  -19.1329 C   0  0  0  0  0  0  0  0  0  0  0  0
   21.8334  -20.0082  -20.0988 O   0  0  0  0  0  0  0  0  0  0  0  0
   21.5241  -21.1804  -18.0626 C   0  0  0  0  0  0  0  0  0  0  0  0
   22.4192  -21.7859  -17.0062 C   0  0  0  0  0  0  0  0  0  0  0  0
   22.3898  -20.9860  -15.7301 C   0  0  2  0  0  0  0  0  0  0  0  0
   23.3195  -21.5747  -14.7968 N   0  0  0  0  0  0  0  0  0  0  0  0
   21.0001  -21.1117  -15.1811 C   0  0  0  0  0  0  0  0  0  0  0  0
   20.7308  -22.0873  -14.4622 O   0  0  0  0  0  0  0  0  0  0  0  0
   16.1406  -17.1294  -16.1325 N   0  0  0  0  0  0  0  0  0  0  0  0
   15.6239  -17.9475  -15.0880 C   0  0  0  0  0  0  0  0  0  0  0  0
   14.5161  -17.7545  -14.5352 O   0  0  0  0  0  0  0  0  0  0  0  0
   16.4802  -19.1004  -14.6455 C   0  0  0  0  0  0  0  0  0  0  0  0
   17.8017  -19.0861  -15.3642 C   0  0  0  0  0  0  0  0  0  0  0  0
   18.6422  -20.2309  -14.9233 C   0  0  2  0  0  0  0  0  0  0  0  0
   19.9940  -20.1555  -15.4581 N   0  0  0  0  0  0  0  0  0  0  0  0
   18.0590  -21.5639  -15.0787 C   0  0  0  0  0  0  0  0  0  0  0  0
   18.0936  -22.1498  -16.2246 O   0  0  0  0  0  0  0  0  0  0  0  0
   17.4435  -22.3186  -14.0973 O   0  0  0  0  0  0  0  0  0  0  0  0
  2  1  1  0
  3  4  1  0
  3  2  1  0
  4  5  1  0
  5  6  1  6
  7  5  1  0
  7  8  2  0
  9 10  1  0
 10 12  1  0
 10 11  2  0
 12 13  1  0
 14 13  1  6
 14 15  1  0
 15  7  1  0
 16 14  1  0
 17 16  2  0
 19 20  2  0
 19 18  1  0
 21 19  1  0
 22 21  1  0
 23 22  1  6
 23 24  1  0
 24 16  1  0
 25 23  1  0
 26 25  2  0
 27 25  1  0
M  END
$$$$
