MQQ.pdb
     RDKit          3D

 27 26  0  0  1  0  0  0  0  0999 V2000
   27.1309  -19.3090   -6.6266 C   0  0  0  0  0  0  0  0  0  0  0  0
   27.2354  -21.0895   -6.9001 S   0  0  0  0  0  0  0  0  0  0  0  0
   27.3881  -21.3761   -8.6956 C   0  0  0  0  0  0  0  0  0  0  0  0
   26.0561  -21.0220   -9.3155 C   0  0  0  0  0  0  0  0  0  0  0  0
   26.1183  -21.3441  -10.7885 C   0  0  2  0  0  0  0  0  0  0  0  0
   27.3405  -20.8480  -11.3852 N   0  0  0  0  0  0  0  0  0  0  0  0
   24.9218  -20.8056  -11.4555 C   0  0  0  0  0  0  0  0  0  0  0  0
   24.6218  -19.5992  -11.2530 O   0  0  0  0  0  0  0  0  0  0  0  0
   24.0610  -20.2833  -16.9736 N   0  0  0  0  0  0  0  0  0  0  0  0
   24.9176  -19.7374  -15.9799 C   0  0  0  0  0  0  0  0  0  0  0  0
   25.9318  -19.0984  -16.3235 O   0  0  0  0  0  0  0  0  0  0  0  0
   24.6129  -19.9229  -14.5355 C   0  0  0  0  0  0  0  0  0  0  0  0
   23.3104  -20.6771  -14.3995 C   0  0  0  0  0  0  0  0  0  0  0  0
   22.9597  -20.9212  -12.9550 C   0  0  2  0  0  0  0  0  0  0  0  0
   24.0837  -21.5553  -12.3096 N   0  0  0  0  0  0  0  0  0  0  0  0
   21.7970  -21.8679  -12.9536 C   0  0  0  0  0  0  0  0  0  0  0  0
   22.0234  -23.0879  -12.9933 O   0  0  0  0  0  0  0  0  0  0  0  0
   14.8538  -22.8622  -10.7184 N   0  0  0  0  0  0  0  0  0  0  0  0
   15.9671  -22.0272  -11.0192 C   0  0  0  0  0  0  0  0  0  0  0  0
   16.0782  -20.8442  -10.6216 O   0  0  0  0  0  0  0  0  0  0  0  0
   17.0547  -22.6286  -11.8641 C   0  0  0  0  0  0  0  0  0  0  0  0
   18.1928  -21.6591  -12.0323 C   0  0  0  0  0  0  0  0  0  0  0  0
   19.3097  -22.2978  -12.7780 C   0  0  2  0  0  0  0  0  0  0  0  0
   20.4576  -21.4123  -12.9086 N   0  0  0  0  0  0  0  0  0  0  0  0
   18.9614  -22.9432  -14.0442 C   0  0  0  0  0  0  0  0  0  0  0  0
   19.0694  -22.2898  -15.1483 O   0  0  0  0  0  0  0  0  0  0  0  0
   18.5083  -24.2379  -14.2173 O   0  0  0  0  0  0  0  0  0  0  0  0
  2  1  1  0
  3  4  1  0
  3  2  1  0
  4  5  1  0
  5  6  1  6
  7  5  1  0
  7  8  2  0
  9 10  1  0
 10 12  1  0
 10 11  2  0
 12 13  1  0
 14 13  1  6
 14 15  1  0
 15  7  1  0
 16 14  1  0
 17 16  2  0
 19 20  2  0
 19 18  1  0
 21 19  1  0
 22 21  1  0
 23 22  1  6
 23 24  1  0
 24 16  1  0
 25 23  1  0
 26 25  2  0
 27 25  1  0
M  END
$$$$
