MQQ.pdb
     RDKit          3D

 27 26  0  0  1  0  0  0  0  0999 V2000
   28.6970  -19.9542   -4.2441 C   0  0  0  0  0  0  0  0  0  0  0  0
   27.4792  -19.7125   -5.5534 S   0  0  0  0  0  0  0  0  0  0  0  0
   28.0857  -20.5602   -7.0510 C   0  0  0  0  0  0  0  0  0  0  0  0
   27.1373  -20.2086   -8.1739 C   0  0  0  0  0  0  0  0  0  0  0  0
   27.5821  -20.9401   -9.4166 C   0  0  2  0  0  0  0  0  0  0  0  0
   29.0247  -20.9420   -9.5389 N   0  0  0  0  0  0  0  0  0  0  0  0
   26.9303  -20.3422  -10.5930 C   0  0  0  0  0  0  0  0  0  0  0  0
   27.3412  -19.2209  -10.9932 O   0  0  0  0  0  0  0  0  0  0  0  0
   28.7814  -21.5286  -15.1924 N   0  0  0  0  0  0  0  0  0  0  0  0
   27.6520  -20.9160  -15.7993 C   0  0  0  0  0  0  0  0  0  0  0  0
   27.6679  -20.6667  -17.0210 O   0  0  0  0  0  0  0  0  0  0  0  0
   26.4534  -20.5709  -14.9884 C   0  0  0  0  0  0  0  0  0  0  0  0
   26.6997  -20.9678  -13.5512 C   0  0  0  0  0  0  0  0  0  0  0  0
   25.5754  -20.5226  -12.6529 C   0  0  2  0  0  0  0  0  0  0  0  0
   25.8695  -20.9441  -11.3046 N   0  0  0  0  0  0  0  0  0  0  0  0
   24.3436  -21.2324  -13.1294 C   0  0  0  0  0  0  0  0  0  0  0  0
   24.1778  -22.4191  -12.8045 O   0  0  0  0  0  0  0  0  0  0  0  0
   20.6960  -20.5005   -9.7783 N   0  0  0  0  0  0  0  0  0  0  0  0
   19.6655  -20.7965  -10.7151 C   0  0  0  0  0  0  0  0  0  0  0  0
   18.4749  -21.0190  -10.3939 O   0  0  0  0  0  0  0  0  0  0  0  0
   20.0603  -20.8369  -12.1645 C   0  0  0  0  0  0  0  0  0  0  0  0
   21.5452  -20.6478  -12.3151 C   0  0  0  0  0  0  0  0  0  0  0  0
   21.9369  -20.7527  -13.7459 C   0  0  2  0  0  0  0  0  0  0  0  0
   23.3713  -20.5913  -13.9340 N   0  0  0  0  0  0  0  0  0  0  0  0
   21.1608  -19.9519  -14.6932 C   0  0  0  0  0  0  0  0  0  0  0  0
   19.9714  -20.3201  -15.0211 O   0  0  0  0  0  0  0  0  0  0  0  0
   21.5620  -18.7837  -15.3143 O   0  0  0  0  0  0  0  0  0  0  0  0
  2  1  1  0
  3  4  1  0
  3  2  1  0
  4  5  1  0
  5  6  1  6
  7  5  1  0
  7  8  2  0
  9 10  1  0
 10 12  1  0
 10 11  2  0
 12 13  1  0
 14 13  1  6
 14 15  1  0
 15  7  1  0
 16 14  1  0
 17 16  2  0
 19 20  2  0
 19 18  1  0
 21 19  1  0
 22 21  1  0
 23 22  1  1
 23 24  1  0
 24 16  1  0
 25 23  1  0
 26 25  2  0
 27 25  1  0
M  END
$$$$
