MQQ.pdb
     RDKit          3D

 27 26  0  0  1  0  0  0  0  0999 V2000
   27.4362  -18.3527   -5.7370 C   0  0  0  0  0  0  0  0  0  0  0  0
   28.4255  -19.8338   -6.0257 S   0  0  0  0  0  0  0  0  0  0  0  0
   27.4986  -20.9179   -7.1635 C   0  0  0  0  0  0  0  0  0  0  0  0
   26.9203  -20.0344   -8.2447 C   0  0  0  0  0  0  0  0  0  0  0  0
   26.1427  -20.9039   -9.2019 C   0  0  2  0  0  0  0  0  0  0  0  0
   26.9971  -21.8878   -9.8328 N   0  0  0  0  0  0  0  0  0  0  0  0
   25.4612  -20.0518  -10.1898 C   0  0  0  0  0  0  0  0  0  0  0  0
   25.4357  -18.8094   -9.9846 O   0  0  0  0  0  0  0  0  0  0  0  0
   29.1301  -20.8108  -13.6803 N   0  0  0  0  0  0  0  0  0  0  0  0
   28.3826  -20.0252  -14.5985 C   0  0  0  0  0  0  0  0  0  0  0  0
   28.9275  -19.6085  -15.6399 O   0  0  0  0  0  0  0  0  0  0  0  0
   26.9572  -19.6973  -14.3261 C   0  0  0  0  0  0  0  0  0  0  0  0
   26.5692  -20.2654  -12.9806 C   0  0  0  0  0  0  0  0  0  0  0  0
   25.1364  -19.9504  -12.6384 C   0  0  2  0  0  0  0  0  0  0  0  0
   24.8302  -20.5370  -11.3562 N   0  0  0  0  0  0  0  0  0  0  0  0
   24.2936  -20.6070  -13.6904 C   0  0  0  0  0  0  0  0  0  0  0  0
   24.3298  -20.1581  -14.8473 O   0  0  0  0  0  0  0  0  0  0  0  0
   20.7426  -25.7399  -14.1388 N   0  0  0  0  0  0  0  0  0  0  0  0
   19.7739  -24.7520  -14.4746 C   0  0  0  0  0  0  0  0  0  0  0  0
   18.6356  -25.0176  -14.9260 O   0  0  0  0  0  0  0  0  0  0  0  0
   20.1697  -23.3177  -14.2640 C   0  0  0  0  0  0  0  0  0  0  0  0
   21.5750  -23.2275  -13.7346 C   0  0  0  0  0  0  0  0  0  0  0  0
   22.0917  -21.8401  -13.8742 C   0  0  2  0  0  0  0  0  0  0  0  0
   23.4635  -21.7169  -13.4029 N   0  0  0  0  0  0  0  0  0  0  0  0
   21.2327  -20.7715  -13.3631 C   0  0  0  0  0  0  0  0  0  0  0  0
   21.2611  -20.4685  -12.1121 O   0  0  0  0  0  0  0  0  0  0  0  0
   20.3467  -20.0003  -14.0923 O   0  0  0  0  0  0  0  0  0  0  0  0
  2  1  1  0
  3  4  1  0
  3  2  1  0
  4  5  1  0
  5  6  1  6
  7  5  1  0
  7  8  2  0
  9 10  1  0
 10 12  1  0
 10 11  2  0
 12 13  1  0
 14 13  1  6
 14 15  1  0
 15  7  1  0
 16 14  1  0
 17 16  2  0
 19 20  2  0
 19 18  1  0
 21 19  1  0
 22 21  1  0
 23 22  1  1
 23 24  1  0
 24 16  1  0
 25 23  1  0
 26 25  2  0
 27 25  1  0
M  END
$$$$
