MQQ.pdb
     RDKit          3D

 27 26  0  0  1  0  0  0  0  0999 V2000
   24.6005  -20.1547   -8.6525 C   0  0  0  0  0  0  0  0  0  0  0  0
   25.9366  -21.3452   -8.8835 S   0  0  0  0  0  0  0  0  0  0  0  0
   26.6220  -21.1055  -10.5575 C   0  0  0  0  0  0  0  0  0  0  0  0
   25.4741  -20.6981  -11.4521 C   0  0  0  0  0  0  0  0  0  0  0  0
   25.0929  -21.8841  -12.3038 C   0  0  2  0  0  0  0  0  0  0  0  0
   26.1883  -22.2937  -13.1573 N   0  0  0  0  0  0  0  0  0  0  0  0
   23.8836  -21.5593  -13.0773 C   0  0  0  0  0  0  0  0  0  0  0  0
   23.9777  -21.5084  -14.3323 O   0  0  0  0  0  0  0  0  0  0  0  0
   18.1523  -22.2859  -11.0867 N   0  0  0  0  0  0  0  0  0  0  0  0
   18.4095  -23.0042  -12.2854 C   0  0  0  0  0  0  0  0  0  0  0  0
   17.6734  -23.9598  -12.6017 O   0  0  0  0  0  0  0  0  0  0  0  0
   19.5489  -22.6245  -13.1636 C   0  0  0  0  0  0  0  0  0  0  0  0
   20.2287  -21.4034  -12.5887 C   0  0  0  0  0  0  0  0  0  0  0  0
   21.4792  -21.0542  -13.3524 C   0  0  2  0  0  0  0  0  0  0  0  0
   22.6200  -21.2985  -12.5033 N   0  0  0  0  0  0  0  0  0  0  0  0
   21.3985  -19.5875  -13.6530 C   0  0  0  0  0  0  0  0  0  0  0  0
   22.1448  -18.8117  -13.0346 O   0  0  0  0  0  0  0  0  0  0  0  0
   24.6466  -19.3706  -17.1646 N   0  0  0  0  0  0  0  0  0  0  0  0
   24.3509  -17.9846  -17.3017 C   0  0  0  0  0  0  0  0  0  0  0  0
   25.1471  -17.1470  -17.7860 O   0  0  0  0  0  0  0  0  0  0  0  0
   22.9980  -17.5317  -16.8295 C   0  0  0  0  0  0  0  0  0  0  0  0
   22.1873  -18.7017  -16.3425 C   0  0  0  0  0  0  0  0  0  0  0  0
   20.9149  -18.2309  -15.7334 C   0  0  2  0  0  0  0  0  0  0  0  0
   20.5010  -19.0665  -14.6157 N   0  0  0  0  0  0  0  0  0  0  0  0
   19.8138  -17.9568  -16.6572 C   0  0  0  0  0  0  0  0  0  0  0  0
   19.3369  -18.9048  -17.3863 O   0  0  0  0  0  0  0  0  0  0  0  0
   19.1824  -16.7432  -16.8571 O   0  0  0  0  0  0  0  0  0  0  0  0
  2  1  1  0
  3  4  1  0
  3  2  1  0
  4  5  1  0
  5  6  1  6
  7  5  1  0
  7  8  2  0
  9 10  1  0
 10 12  1  0
 10 11  2  0
 12 13  1  0
 14 13  1  1
 14 15  1  0
 15  7  1  0
 16 14  1  0
 17 16  2  0
 19 20  2  0
 19 18  1  0
 21 19  1  0
 22 21  1  0
 23 22  1  6
 23 24  1  0
 24 16  1  0
 25 23  1  0
 26 25  2  0
 27 25  1  0
M  END
$$$$
