MQQ.pdb
     RDKit          3D

 27 26  0  0  1  0  0  0  0  0999 V2000
   31.6068  -22.2013   -9.6213 C   0  0  0  0  0  0  0  0  0  0  0  0
   32.5283  -22.3307  -11.1672 S   0  0  0  0  0  0  0  0  0  0  0  0
   31.5235  -21.5718  -12.4876 C   0  0  0  0  0  0  0  0  0  0  0  0
   30.0749  -21.8451  -12.1546 C   0  0  0  0  0  0  0  0  0  0  0  0
   29.2134  -21.1494  -13.1798 C   0  0  2  0  0  0  0  0  0  0  0  0
   29.5715  -19.7525  -13.3083 N   0  0  0  0  0  0  0  0  0  0  0  0
   27.7960  -21.3242  -12.8239 C   0  0  0  0  0  0  0  0  0  0  0  0
   27.2741  -22.4563  -13.0041 O   0  0  0  0  0  0  0  0  0  0  0  0
   25.1982  -21.1705   -8.3561 N   0  0  0  0  0  0  0  0  0  0  0  0
   23.9480  -20.8753   -8.9636 C   0  0  0  0  0  0  0  0  0  0  0  0
   22.8975  -21.3204   -8.4603 O   0  0  0  0  0  0  0  0  0  0  0  0
   23.8845  -20.0407  -10.1936 C   0  0  0  0  0  0  0  0  0  0  0  0
   25.2898  -19.7715  -10.6797 C   0  0  0  0  0  0  0  0  0  0  0  0
   25.6236  -20.5971  -11.8947 C   0  0  2  0  0  0  0  0  0  0  0  0
   26.9787  -20.3023  -12.2929 N   0  0  0  0  0  0  0  0  0  0  0  0
   24.6879  -20.1549  -12.9796 C   0  0  0  0  0  0  0  0  0  0  0  0
   24.7314  -18.9731  -13.3574 O   0  0  0  0  0  0  0  0  0  0  0  0
   25.5891  -21.9903  -16.7113 N   0  0  0  0  0  0  0  0  0  0  0  0
   24.5187  -22.9226  -16.6006 C   0  0  0  0  0  0  0  0  0  0  0  0
   24.6531  -24.1590  -16.7536 O   0  0  0  0  0  0  0  0  0  0  0  0
   23.1623  -22.3602  -16.2810 C   0  0  0  0  0  0  0  0  0  0  0  0
   23.2579  -20.8925  -15.9645 C   0  0  0  0  0  0  0  0  0  0  0  0
   22.7856  -20.6309  -14.5788 C   0  0  2  0  0  0  0  0  0  0  0  0
   23.7626  -21.0415  -13.5809 N   0  0  0  0  0  0  0  0  0  0  0  0
   21.4354  -21.0917  -14.2540 C   0  0  0  0  0  0  0  0  0  0  0  0
   20.4258  -20.6306  -14.9065 O   0  0  0  0  0  0  0  0  0  0  0  0
   21.0849  -22.0121  -13.2837 O   0  0  0  0  0  0  0  0  0  0  0  0
  2  1  1  0
  3  4  1  0
  3  2  1  0
  4  5  1  0
  5  6  1  1
  7  5  1  0
  7  8  2  0
  9 10  1  0
 10 12  1  0
 10 11  2  0
 12 13  1  0
 14 13  1  1
 14 15  1  0
 15  7  1  0
 16 14  1  0
 17 16  2  0
 19 20  2  0
 19 18  1  0
 21 19  1  0
 22 21  1  0
 23 22  1  6
 23 24  1  0
 24 16  1  0
 25 23  1  0
 26 25  2  0
 27 25  1  0
M  END
$$$$
