MQQ.pdb
     RDKit          3D

 27 26  0  0  1  0  0  0  0  0999 V2000
   27.7828  -17.6256   -6.7501 C   0  0  0  0  0  0  0  0  0  0  0  0
   28.0521  -19.3735   -6.3925 S   0  0  0  0  0  0  0  0  0  0  0  0
   26.7594  -20.3308   -7.2536 C   0  0  0  0  0  0  0  0  0  0  0  0
   26.7738  -19.8935   -8.7001 C   0  0  0  0  0  0  0  0  0  0  0  0
   25.6821  -20.6362   -9.4307 C   0  0  2  0  0  0  0  0  0  0  0  0
   25.8654  -22.0692   -9.3362 N   0  0  0  0  0  0  0  0  0  0  0  0
   25.6331  -20.1782  -10.8286 C   0  0  0  0  0  0  0  0  0  0  0  0
   25.3617  -18.9678  -11.0474 O   0  0  0  0  0  0  0  0  0  0  0  0
   28.1124  -22.8377  -15.8886 N   0  0  0  0  0  0  0  0  0  0  0  0
   27.4824  -21.6944  -16.4499 C   0  0  0  0  0  0  0  0  0  0  0  0
   27.6754  -21.4100  -17.6486 O   0  0  0  0  0  0  0  0  0  0  0  0
   26.5960  -20.8362  -15.6185 C   0  0  0  0  0  0  0  0  0  0  0  0
   26.5774  -21.3703  -14.2050 C   0  0  0  0  0  0  0  0  0  0  0  0
   25.8168  -20.4586  -13.2780 C   0  0  2  0  0  0  0  0  0  0  0  0
   25.8698  -21.0094  -11.9454 N   0  0  0  0  0  0  0  0  0  0  0  0
   24.3942  -20.4608  -13.7518 C   0  0  0  0  0  0  0  0  0  0  0  0
   23.6740  -21.4310  -13.4668 O   0  0  0  0  0  0  0  0  0  0  0  0
   21.4158  -15.8419  -16.9185 N   0  0  0  0  0  0  0  0  0  0  0  0
   20.3352  -16.7351  -16.6699 C   0  0  0  0  0  0  0  0  0  0  0  0
   19.1595  -16.5293  -17.0512 O   0  0  0  0  0  0  0  0  0  0  0  0
   20.6556  -17.9876  -15.9038 C   0  0  0  0  0  0  0  0  0  0  0  0
   22.1098  -18.0166  -15.5191 C   0  0  0  0  0  0  0  0  0  0  0  0
   22.4692  -19.3458  -14.9574 C   0  0  2  0  0  0  0  0  0  0  0  0
   23.8534  -19.3947  -14.5098 N   0  0  0  0  0  0  0  0  0  0  0  0
   22.1063  -20.5122  -15.7630 C   0  0  0  0  0  0  0  0  0  0  0  0
   21.0050  -21.1364  -15.5285 O   0  0  0  0  0  0  0  0  0  0  0  0
   22.8337  -21.0592  -16.8037 O   0  0  0  0  0  0  0  0  0  0  0  0
  2  1  1  0
  3  4  1  0
  3  2  1  0
  4  5  1  0
  5  6  1  6
  7  5  1  0
  7  8  2  0
  9 10  1  0
 10 12  1  0
 10 11  2  0
 12 13  1  0
 14 13  1  6
 14 15  1  0
 15  7  1  0
 16 14  1  0
 17 16  2  0
 19 20  2  0
 19 18  1  0
 21 19  1  0
 22 21  1  0
 23 22  1  6
 23 24  1  0
 24 16  1  0
 25 23  1  0
 26 25  2  0
 27 25  1  0
M  END
$$$$
