MQQ.pdb
     RDKit          3D

 27 26  0  0  1  0  0  0  0  0999 V2000
   17.7215  -15.4095  -17.0129 C   0  0  0  0  0  0  0  0  0  0  0  0
   18.4244  -14.1439  -15.9359 S   0  0  0  0  0  0  0  0  0  0  0  0
   17.0529  -13.1298  -15.2881 C   0  0  0  0  0  0  0  0  0  0  0  0
   17.6652  -12.0738  -14.3970 C   0  0  0  0  0  0  0  0  0  0  0  0
   16.5515  -11.2281  -13.8300 C   0  0  2  0  0  0  0  0  0  0  0  0
   15.4891  -11.0397  -14.7954 N   0  0  0  0  0  0  0  0  0  0  0  0
   17.1035   -9.9466  -13.3615 C   0  0  0  0  0  0  0  0  0  0  0  0
   18.0560   -9.9765  -12.5379 O   0  0  0  0  0  0  0  0  0  0  0  0
   17.9556   -4.9724  -16.6549 N   0  0  0  0  0  0  0  0  0  0  0  0
   18.8354   -6.0781  -16.5048 C   0  0  0  0  0  0  0  0  0  0  0  0
   19.7451   -6.2599  -17.3382 O   0  0  0  0  0  0  0  0  0  0  0  0
   18.6785   -7.0183  -15.3625 C   0  0  0  0  0  0  0  0  0  0  0  0
   17.5046   -6.5776  -14.5191 C   0  0  0  0  0  0  0  0  0  0  0  0
   17.3045   -7.4828  -13.3318 C   0  0  2  0  0  0  0  0  0  0  0  0
   16.6333   -8.6809  -13.7748 N   0  0  0  0  0  0  0  0  0  0  0  0
   16.4108   -6.7451  -12.3802 C   0  0  0  0  0  0  0  0  0  0  0  0
   15.2015   -7.0251  -12.3618 O   0  0  0  0  0  0  0  0  0  0  0  0
   14.5428   -7.6918   -7.6183 N   0  0  0  0  0  0  0  0  0  0  0  0
   13.8432   -6.4596   -7.7580 C   0  0  0  0  0  0  0  0  0  0  0  0
   12.8533   -6.1375   -7.0606 O   0  0  0  0  0  0  0  0  0  0  0  0
   14.3454   -5.5124   -8.8111 C   0  0  0  0  0  0  0  0  0  0  0  0
   15.5542   -6.0811   -9.5029 C   0  0  0  0  0  0  0  0  0  0  0  0
   16.0977   -5.1021  -10.4816 C   0  0  2  0  0  0  0  0  0  0  0  0
   16.9045   -5.7451  -11.5085 N   0  0  0  0  0  0  0  0  0  0  0  0
   16.7530   -3.9191   -9.9228 C   0  0  0  0  0  0  0  0  0  0  0  0
   18.0245   -3.7670  -10.0558 O   0  0  0  0  0  0  0  0  0  0  0  0
   16.1478   -2.8843   -9.2341 O   0  0  0  0  0  0  0  0  0  0  0  0
  2  1  1  0
  3  4  1  0
  3  2  1  0
  4  5  1  0
  5  6  1  6
  7  5  1  0
  7  8  2  0
  9 10  1  0
 10 12  1  0
 10 11  2  0
 12 13  1  0
 14 13  1  6
 14 15  1  0
 15  7  1  0
 16 14  1  0
 17 16  2  0
 19 20  2  0
 19 18  1  0
 21 19  1  0
 22 21  1  0
 23 22  1  1
 23 24  1  0
 24 16  1  0
 25 23  1  0
 26 25  2  0
 27 25  1  0
M  END
$$$$
