MQQ.pdb
     RDKit          3D

 27 26  0  0  1  0  0  0  0  0999 V2000
   20.6676  -22.4525  -14.6549 C   0  0  0  0  0  0  0  0  0  0  0  0
   21.2990  -20.8537  -14.1065 S   0  0  0  0  0  0  0  0  0  0  0  0
   21.3692  -19.7480  -15.5562 C   0  0  0  0  0  0  0  0  0  0  0  0
   21.6985  -18.3651  -15.0432 C   0  0  0  0  0  0  0  0  0  0  0  0
   21.6996  -17.4130  -16.2139 C   0  0  2  0  0  0  0  0  0  0  0  0
   22.4095  -17.9704  -17.3458 N   0  0  0  0  0  0  0  0  0  0  0  0
   22.2651  -16.1217  -15.7906 C   0  0  0  0  0  0  0  0  0  0  0  0
   21.7528  -15.5478  -14.7933 O   0  0  0  0  0  0  0  0  0  0  0  0
   27.5126  -14.8280  -17.4458 N   0  0  0  0  0  0  0  0  0  0  0  0
   27.3088  -15.1670  -16.0811 C   0  0  0  0  0  0  0  0  0  0  0  0
   28.1825  -15.8126  -15.4689 O   0  0  0  0  0  0  0  0  0  0  0  0
   26.0623  -14.7578  -15.3794 C   0  0  0  0  0  0  0  0  0  0  0  0
   25.1985  -13.9638  -16.3318 C   0  0  0  0  0  0  0  0  0  0  0  0
   23.7331  -14.1477  -16.0353 C   0  0  2  0  0  0  0  0  0  0  0  0
   23.3473  -15.4803  -16.4321 N   0  0  0  0  0  0  0  0  0  0  0  0
   22.9993  -13.1530  -16.8841 C   0  0  0  0  0  0  0  0  0  0  0  0
   22.6579  -13.4864  -18.0302 O   0  0  0  0  0  0  0  0  0  0  0  0
   18.5947   -9.3355  -15.3781 N   0  0  0  0  0  0  0  0  0  0  0  0
   18.5117  -10.7027  -15.7670 C   0  0  0  0  0  0  0  0  0  0  0  0
   17.5099  -11.4262  -15.5597 O   0  0  0  0  0  0  0  0  0  0  0  0
   19.7105  -11.2816  -16.4640 C   0  0  0  0  0  0  0  0  0  0  0  0
   20.8276  -10.2756  -16.5215 C   0  0  0  0  0  0  0  0  0  0  0  0
   22.0055  -10.8510  -17.2237 C   0  0  2  0  0  0  0  0  0  0  0  0
   22.6872  -11.8535  -16.4179 N   0  0  0  0  0  0  0  0  0  0  0  0
   22.9372   -9.8946  -17.8222 C   0  0  0  0  0  0  0  0  0  0  0  0
   24.1542   -9.8382  -17.4060 O   0  0  0  0  0  0  0  0  0  0  0  0
   22.6640   -8.9951  -18.8360 O   0  0  0  0  0  0  0  0  0  0  0  0
  2  1  1  0
  3  4  1  0
  3  2  1  0
  4  5  1  0
  5  6  1  6
  7  5  1  0
  7  8  2  0
  9 10  1  0
 10 12  1  0
 10 11  2  0
 12 13  1  0
 14 13  1  6
 14 15  1  0
 15  7  1  0
 16 14  1  0
 17 16  2  0
 19 20  2  0
 19 18  1  0
 21 19  1  0
 22 21  1  0
 23 22  1  1
 23 24  1  0
 24 16  1  0
 25 23  1  0
 26 25  2  0
 27 25  1  0
M  END
$$$$
