MQQ.pdb
     RDKit          3D

 27 26  0  0  1  0  0  0  0  0999 V2000
   31.6131  -20.8056  -10.5104 C   0  0  0  0  0  0  0  0  0  0  0  0
   30.9251  -22.1047   -9.4641 S   0  0  0  0  0  0  0  0  0  0  0  0
   29.1093  -21.9259   -9.4639 C   0  0  0  0  0  0  0  0  0  0  0  0
   28.7277  -21.2786  -10.7751 C   0  0  0  0  0  0  0  0  0  0  0  0
   27.2661  -20.9083  -10.7133 C   0  0  2  0  0  0  0  0  0  0  0  0
   26.4442  -22.0579  -10.3987 N   0  0  0  0  0  0  0  0  0  0  0  0
   26.8694  -20.2784  -11.9830 C   0  0  0  0  0  0  0  0  0  0  0  0
   27.4641  -19.2251  -12.3342 O   0  0  0  0  0  0  0  0  0  0  0  0
   29.1116  -21.0285  -16.4756 N   0  0  0  0  0  0  0  0  0  0  0  0
   28.7517  -19.6627  -16.3201 C   0  0  0  0  0  0  0  0  0  0  0  0
   29.4552  -18.7762  -16.8437 O   0  0  0  0  0  0  0  0  0  0  0  0
   27.5438  -19.2844  -15.5382 C   0  0  0  0  0  0  0  0  0  0  0  0
   26.9084  -20.5352  -14.9766 C   0  0  0  0  0  0  0  0  0  0  0  0
   25.6880  -20.2153  -14.1536 C   0  0  2  0  0  0  0  0  0  0  0  0
   25.8612  -20.7778  -12.8363 N   0  0  0  0  0  0  0  0  0  0  0  0
   24.5317  -20.8926  -14.8264 C   0  0  0  0  0  0  0  0  0  0  0  0
   24.5806  -22.1210  -14.9992 O   0  0  0  0  0  0  0  0  0  0  0  0
   21.4972  -20.9249  -10.7651 N   0  0  0  0  0  0  0  0  0  0  0  0
   20.3408  -21.1874  -11.5531 C   0  0  0  0  0  0  0  0  0  0  0  0
   19.2413  -21.5531  -11.0763 O   0  0  0  0  0  0  0  0  0  0  0  0
   20.4792  -21.0062  -13.0384 C   0  0  0  0  0  0  0  0  0  0  0  0
   21.9069  -20.7055  -13.4053 C   0  0  0  0  0  0  0  0  0  0  0  0
   22.0318  -20.5048  -14.8735 C   0  0  2  0  0  0  0  0  0  0  0  0
   23.3939  -20.1750  -15.2670 N   0  0  0  0  0  0  0  0  0  0  0  0
   21.0463  -19.6197  -15.4952 C   0  0  0  0  0  0  0  0  0  0  0  0
   19.8309  -20.0172  -15.6447 O   0  0  0  0  0  0  0  0  0  0  0  0
   21.2642  -18.3384  -15.9667 O   0  0  0  0  0  0  0  0  0  0  0  0
  2  1  1  0
  3  4  1  0
  3  2  1  0
  4  5  1  0
  5  6  1  6
  7  5  1  0
  7  8  2  0
  9 10  1  0
 10 12  1  0
 10 11  2  0
 12 13  1  0
 14 13  1  6
 14 15  1  0
 15  7  1  0
 16 14  1  0
 17 16  2  0
 19 20  2  0
 19 18  1  0
 21 19  1  0
 22 21  1  0
 23 22  1  1
 23 24  1  0
 24 16  1  0
 25 23  1  0
 26 25  2  0
 27 25  1  0
M  END
$$$$
