KAL.pdb
     RDKit          3D

 23 22  0  0  1  0  0  0  0  0999 V2000
    6.5404  -19.9804   20.0796 N   0  0  0  0  0  0  0  0  0  0  0  0
    7.6316  -19.6180   20.9659 C   0  0  1  0  0  0  0  0  0  0  0  0
    8.6425  -18.7691   20.2365 C   0  0  0  0  0  0  0  0  0  0  0  0
    9.5002  -19.6739   19.4007 C   0  0  0  0  0  0  0  0  0  0  0  0
   10.5820  -18.9211   18.6588 C   0  0  0  0  0  0  0  0  0  0  0  0
   11.4035  -19.9228   17.8684 C   0  0  0  0  0  0  0  0  0  0  0  0
   12.4720  -19.2801   17.1406 N   0  0  0  0  0  0  0  0  0  0  0  0
    7.0489  -18.9089   22.1354 C   0  0  0  0  0  0  0  0  0  0  0  0
    6.1876  -17.9905   21.9976 O   0  0  0  0  0  0  0  0  0  0  0  0
    7.1017  -19.3354   25.8377 C   0  0  0  0  0  0  0  0  0  0  0  0
    6.9290  -18.4492   24.6088 C   0  0  2  0  0  0  0  0  0  0  0  0
    7.4184  -19.2139   23.4772 N   0  0  0  0  0  0  0  0  0  0  0  0
    7.6535  -17.1806   24.7828 C   0  0  0  0  0  0  0  0  0  0  0  0
    8.8258  -17.0935   24.3412 O   0  0  0  0  0  0  0  0  0  0  0  0
    6.2621  -11.3444   25.8472 C   0  0  0  0  0  0  0  0  0  0  0  0
    7.2053  -12.4538   26.1694 C   0  0  1  0  0  0  0  0  0  0  0  0
    7.6507  -12.3789   27.6235 C   0  0  0  0  0  0  0  0  0  0  0  0
    6.6533  -13.7922   25.8550 C   0  0  0  0  0  0  0  0  0  0  0  0
    7.6792  -14.8463   25.6614 C   0  0  2  0  0  0  0  0  0  0  0  0
    7.0107  -16.1053   25.4381 N   0  0  0  0  0  0  0  0  0  0  0  0
    8.7177  -14.9582   26.6910 C   0  0  0  0  0  0  0  0  0  0  0  0
    8.5894  -15.6381   27.7673 O   0  0  0  0  0  0  0  0  0  0  0  0
    9.9552  -14.3191   26.5720 O   0  0  0  0  0  0  0  0  0  0  0  0
  2  3  1  0
  2  1  1  6
  4  3  1  0
  5  6  1  0
  5  4  1  0
  7  6  1  0
  8  2  1  0
  8 12  1  0
  9  8  2  0
 11 12  1  0
 11 10  1  1
 13 11  1  0
 13 14  2  0
 16 18  1  0
 16 15  1  1
 17 16  1  0
 19 18  1  1
 19 20  1  0
 19 21  1  0
 20 13  1  0
 21 22  2  0
 21 23  1  0
M  END
$$$$
