KAL.pdb
     RDKit          3D

 23 22  0  0  1  0  0  0  0  0999 V2000
    9.4353  -13.0837   19.7114 N   0  0  0  0  0  0  0  0  0  0  0  0
    8.0320  -13.2564   20.0406 C   0  0  1  0  0  0  0  0  0  0  0  0
    7.2296  -13.5370   18.7948 C   0  0  0  0  0  0  0  0  0  0  0  0
    8.1816  -13.9178   17.6986 C   0  0  0  0  0  0  0  0  0  0  0  0
    7.4771  -14.1735   16.3849 C   0  0  0  0  0  0  0  0  0  0  0  0
    8.5247  -14.5114   15.3401 C   0  0  0  0  0  0  0  0  0  0  0  0
    7.9284  -14.7668   14.0503 N   0  0  0  0  0  0  0  0  0  0  0  0
    7.9313  -14.3623   21.0288 C   0  0  0  0  0  0  0  0  0  0  0  0
    6.8142  -14.7587   21.4752 O   0  0  0  0  0  0  0  0  0  0  0  0
    9.8970  -17.2155   22.0775 C   0  0  0  0  0  0  0  0  0  0  0  0
    8.9766  -16.0892   22.5351 C   0  0  2  0  0  0  0  0  0  0  0  0
    9.0761  -15.0434   21.5345 N   0  0  0  0  0  0  0  0  0  0  0  0
    9.3630  -15.6206   23.8752 C   0  0  0  0  0  0  0  0  0  0  0  0
   10.5820  -15.4459   24.1215 O   0  0  0  0  0  0  0  0  0  0  0  0
    5.9384  -12.3443   26.3445 C   0  0  0  0  0  0  0  0  0  0  0  0
    7.2157  -12.9889   25.9235 C   0  0  1  0  0  0  0  0  0  0  0  0
    8.3595  -11.9840   25.9414 C   0  0  0  0  0  0  0  0  0  0  0  0
    7.5525  -14.1860   26.7287 C   0  0  0  0  0  0  0  0  0  0  0  0
    8.6768  -14.9893   26.1887 C   0  0  2  0  0  0  0  0  0  0  0  0
    8.3556  -15.3831   24.8382 N   0  0  0  0  0  0  0  0  0  0  0  0
    9.1244  -16.1298   26.9948 C   0  0  0  0  0  0  0  0  0  0  0  0
    9.7019  -16.0215   28.1313 O   0  0  0  0  0  0  0  0  0  0  0  0
    8.9483  -17.4517   26.5756 O   0  0  0  0  0  0  0  0  0  0  0  0
  2  3  1  0
  2  1  1  6
  4  3  1  0
  5  6  1  0
  5  4  1  0
  7  6  1  0
  8  2  1  0
  8 12  1  0
  9  8  2  0
 11 12  1  0
 11 10  1  6
 13 11  1  0
 13 14  2  0
 16 18  1  0
 16 15  1  1
 17 16  1  0
 19 18  1  1
 19 20  1  0
 19 21  1  0
 20 13  1  0
 21 22  2  0
 21 23  1  0
M  END
$$$$
