KAL.pdb
     RDKit          3D

 23 22  0  0  1  0  0  0  0  0999 V2000
    8.4259  -17.5240   19.4810 N   0  0  0  0  0  0  0  0  0  0  0  0
    8.0365  -16.5207   20.4553 C   0  0  1  0  0  0  0  0  0  0  0  0
    6.5423  -16.3171   20.4330 C   0  0  0  0  0  0  0  0  0  0  0  0
    5.8840  -17.6370   20.7117 C   0  0  0  0  0  0  0  0  0  0  0  0
    4.3775  -17.5267   20.7857 C   0  0  0  0  0  0  0  0  0  0  0  0
    3.8054  -18.9214   20.9608 C   0  0  0  0  0  0  0  0  0  0  0  0
    2.3620  -18.9071   20.9811 N   0  0  0  0  0  0  0  0  0  0  0  0
    8.5173  -16.9722   21.7875 C   0  0  0  0  0  0  0  0  0  0  0  0
    8.2150  -18.1095   22.2557 O   0  0  0  0  0  0  0  0  0  0  0  0
   11.1556  -17.2470   23.7245 C   0  0  0  0  0  0  0  0  0  0  0  0
    9.7913  -16.5969   23.9275 C   0  0  2  0  0  0  0  0  0  0  0  0
    9.3434  -16.1612   22.6182 N   0  0  0  0  0  0  0  0  0  0  0  0
    9.8884  -15.4841   24.8850 C   0  0  0  0  0  0  0  0  0  0  0  0
   10.5631  -14.4743   24.5652 O   0  0  0  0  0  0  0  0  0  0  0  0
    5.9787  -12.8195   26.4340 C   0  0  0  0  0  0  0  0  0  0  0  0
    7.3861  -13.2577   26.2072 C   0  0  1  0  0  0  0  0  0  0  0  0
    8.2669  -12.0734   25.8329 C   0  0  0  0  0  0  0  0  0  0  0  0
    7.9553  -13.9952   27.3591 C   0  0  0  0  0  0  0  0  0  0  0  0
    9.3131  -14.5442   27.1227 C   0  0  2  0  0  0  0  0  0  0  0  0
    9.2229  -15.5857   26.1282 N   0  0  0  0  0  0  0  0  0  0  0  0
   10.0654  -14.9839   28.3024 C   0  0  0  0  0  0  0  0  0  0  0  0
   10.4903  -14.1956   29.2163 O   0  0  0  0  0  0  0  0  0  0  0  0
   10.3808  -16.3274   28.5254 O   0  0  0  0  0  0  0  0  0  0  0  0
  2  3  1  0
  2  1  1  6
  4  3  1  0
  5  6  1  0
  5  4  1  0
  7  6  1  0
  8  2  1  0
  8 12  1  0
  9  8  2  0
 11 12  1  0
 11 10  1  6
 13 11  1  0
 13 14  2  0
 16 18  1  0
 16 15  1  1
 17 16  1  0
 19 18  1  1
 19 20  1  0
 19 21  1  0
 20 13  1  0
 21 22  2  0
 21 23  1  0
M  END
$$$$
