KAL.pdb
     RDKit          3D

 23 22  0  0  1  0  0  0  0  0999 V2000
    7.7158  -19.0094   20.2860 N   0  0  0  0  0  0  0  0  0  0  0  0
    7.0442  -18.1782   21.2687 C   0  0  1  0  0  0  0  0  0  0  0  0
    6.8168  -18.9503   22.5442 C   0  0  0  0  0  0  0  0  0  0  0  0
    7.0468  -20.4060   22.2597 C   0  0  0  0  0  0  0  0  0  0  0  0
    7.7697  -21.1077   23.3877 C   0  0  0  0  0  0  0  0  0  0  0  0
    7.9747  -22.5586   22.9929 C   0  0  0  0  0  0  0  0  0  0  0  0
    8.7207  -23.2834   23.9942 N   0  0  0  0  0  0  0  0  0  0  0  0
    7.8831  -16.9712   21.4902 C   0  0  0  0  0  0  0  0  0  0  0  0
    9.1240  -17.0557   21.7292 O   0  0  0  0  0  0  0  0  0  0  0  0
    7.3428  -13.2832   21.1603 C   0  0  0  0  0  0  0  0  0  0  0  0
    8.1817  -14.4733   21.6133 C   0  0  2  0  0  0  0  0  0  0  0  0
    7.3500  -15.6505   21.4485 N   0  0  0  0  0  0  0  0  0  0  0  0
    8.6250  -14.2912   23.0043 C   0  0  0  0  0  0  0  0  0  0  0  0
    9.5056  -13.4291   23.2456 O   0  0  0  0  0  0  0  0  0  0  0  0
    6.0080  -12.3603   26.6337 C   0  0  0  0  0  0  0  0  0  0  0  0
    7.2058  -12.9201   25.9437 C   0  0  1  0  0  0  0  0  0  0  0  0
    8.4594  -12.1430   26.3220 C   0  0  0  0  0  0  0  0  0  0  0  0
    7.3896  -14.3696   26.1885 C   0  0  0  0  0  0  0  0  0  0  0  0
    8.4782  -14.9902   25.3942 C   0  0  2  0  0  0  0  0  0  0  0  0
    8.0488  -15.0880   24.0202 N   0  0  0  0  0  0  0  0  0  0  0  0
    9.0159  -16.2628   25.8867 C   0  0  0  0  0  0  0  0  0  0  0  0
    8.8057  -17.3941   25.3272 O   0  0  0  0  0  0  0  0  0  0  0  0
    9.8190  -16.3390   27.0283 O   0  0  0  0  0  0  0  0  0  0  0  0
  2  3  1  0
  2  1  1  6
  4  3  1  0
  5  6  1  0
  5  4  1  0
  7  6  1  0
  8  2  1  0
  8 12  1  0
  9  8  2  0
 11 12  1  0
 11 10  1  1
 13 11  1  0
 13 14  2  0
 16 18  1  0
 16 15  1  1
 17 16  1  0
 19 18  1  1
 19 20  1  0
 19 21  1  0
 20 13  1  0
 21 22  2  0
 21 23  1  0
M  END
$$$$
