KAL.pdb
     RDKit          3D

 23 22  0  0  1  0  0  0  0  0999 V2000
    9.8649  -19.9806   21.3134 N   0  0  0  0  0  0  0  0  0  0  0  0
   11.1948  -19.3989   21.3370 C   0  0  1  0  0  0  0  0  0  0  0  0
   11.8016  -19.4163   19.9564 C   0  0  0  0  0  0  0  0  0  0  0  0
   10.6931  -19.5814   18.9579 C   0  0  0  0  0  0  0  0  0  0  0  0
   11.2043  -19.6743   17.5376 C   0  0  0  0  0  0  0  0  0  0  0  0
   10.0117  -19.6525   16.5993 C   0  0  0  0  0  0  0  0  0  0  0  0
   10.4096  -19.8548   15.2263 N   0  0  0  0  0  0  0  0  0  0  0  0
   11.0760  -18.0186   21.8759 C   0  0  0  0  0  0  0  0  0  0  0  0
   12.0824  -17.2582   21.9908 O   0  0  0  0  0  0  0  0  0  0  0  0
    8.2264  -15.8123   22.9097 C   0  0  0  0  0  0  0  0  0  0  0  0
    9.7180  -16.1115   22.8045 C   0  0  2  0  0  0  0  0  0  0  0  0
    9.8319  -17.4652   22.2952 N   0  0  0  0  0  0  0  0  0  0  0  0
   10.3694  -15.9491   24.1136 C   0  0  0  0  0  0  0  0  0  0  0  0
   11.4505  -15.3127   24.1712 O   0  0  0  0  0  0  0  0  0  0  0  0
   11.1343  -13.9160   28.4098 C   0  0  0  0  0  0  0  0  0  0  0  0
    9.7733  -14.5259   28.4153 C   0  0  1  0  0  0  0  0  0  0  0  0
    8.7426  -13.5420   28.9518 C   0  0  0  0  0  0  0  0  0  0  0  0
    9.3666  -15.0451   27.0887 C   0  0  0  0  0  0  0  0  0  0  0  0
   10.1965  -16.1702   26.5921 C   0  0  2  0  0  0  0  0  0  0  0  0
    9.7613  -16.5114   25.2594 N   0  0  0  0  0  0  0  0  0  0  0  0
   10.2912  -17.3545   27.4520 C   0  0  0  0  0  0  0  0  0  0  0  0
    9.4439  -18.3131   27.4475 O   0  0  0  0  0  0  0  0  0  0  0  0
   11.3386  -17.5321   28.3606 O   0  0  0  0  0  0  0  0  0  0  0  0
  2  3  1  0
  2  1  1  6
  4  3  1  0
  5  6  1  0
  5  4  1  0
  7  6  1  0
  8  2  1  0
  8 12  1  0
  9  8  2  0
 11 12  1  0
 11 10  1  1
 13 11  1  0
 13 14  2  0
 16 18  1  0
 16 15  1  6
 17 16  1  0
 19 18  1  1
 19 20  1  0
 19 21  1  0
 20 13  1  0
 21 22  2  0
 21 23  1  0
M  END
$$$$
