KAL.pdb
     RDKit          3D

 23 22  0  0  1  0  0  0  0  0999 V2000
    6.7375  -18.4221   21.1665 N   0  0  0  0  0  0  0  0  0  0  0  0
    8.1774  -18.4715   20.9880 C   0  0  1  0  0  0  0  0  0  0  0  0
    8.5213  -19.0593   19.6424 C   0  0  0  0  0  0  0  0  0  0  0  0
    7.3368  -19.8417   19.1548 C   0  0  0  0  0  0  0  0  0  0  0  0
    7.5990  -20.5200   17.8286 C   0  0  0  0  0  0  0  0  0  0  0  0
    6.3210  -21.2071   17.3838 C   0  0  0  0  0  0  0  0  0  0  0  0
    6.4271  -21.7081   16.0339 N   0  0  0  0  0  0  0  0  0  0  0  0
    8.7006  -17.0886   21.1420 C   0  0  0  0  0  0  0  0  0  0  0  0
    9.9354  -16.8269   21.0378 O   0  0  0  0  0  0  0  0  0  0  0  0
    7.2770  -13.6778   21.1435 C   0  0  0  0  0  0  0  0  0  0  0  0
    8.3727  -14.6341   21.6019 C   0  0  2  0  0  0  0  0  0  0  0  0
    7.8536  -15.9758   21.4148 N   0  0  0  0  0  0  0  0  0  0  0  0
    8.7385  -14.3653   23.0014 C   0  0  0  0  0  0  0  0  0  0  0  0
    9.5646  -13.4503   23.2407 O   0  0  0  0  0  0  0  0  0  0  0  0
    5.2730  -12.8047   26.1629 C   0  0  0  0  0  0  0  0  0  0  0  0
    6.6605  -13.0952   25.6996 C   0  0  1  0  0  0  0  0  0  0  0  0
    7.6341  -12.0460   26.2188 C   0  0  0  0  0  0  0  0  0  0  0  0
    7.1157  -14.4593   26.0556 C   0  0  0  0  0  0  0  0  0  0  0  0
    8.3954  -14.8615   25.4217 C   0  0  2  0  0  0  0  0  0  0  0  0
    8.1517  -15.1412   24.0273 N   0  0  0  0  0  0  0  0  0  0  0  0
    9.1452  -15.9428   26.0693 C   0  0  0  0  0  0  0  0  0  0  0  0
    9.3238  -17.1000   25.5533 O   0  0  0  0  0  0  0  0  0  0  0  0
    9.7376  -15.7884   27.3260 O   0  0  0  0  0  0  0  0  0  0  0  0
  2  3  1  0
  2  1  1  6
  4  3  1  0
  5  6  1  0
  5  4  1  0
  7  6  1  0
  8  2  1  0
  8 12  1  0
  9  8  2  0
 11 12  1  0
 11 10  1  1
 13 11  1  0
 13 14  2  0
 16 18  1  0
 16 15  1  1
 17 16  1  0
 19 18  1  1
 19 20  1  0
 19 21  1  0
 20 13  1  0
 21 22  2  0
 21 23  1  0
M  END
$$$$
