KAL.pdb
     RDKit          3D

 23 22  0  0  1  0  0  0  0  0999 V2000
    6.9621  -16.2149   19.2284 N   0  0  0  0  0  0  0  0  0  0  0  0
    7.8417  -15.3838   20.0303 C   0  0  1  0  0  0  0  0  0  0  0  0
    7.4700  -13.9295   19.8840 C   0  0  0  0  0  0  0  0  0  0  0  0
    8.3190  -13.3344   18.7986 C   0  0  0  0  0  0  0  0  0  0  0  0
    7.8457  -13.7243   17.4160 C   0  0  0  0  0  0  0  0  0  0  0  0
    8.8334  -13.1772   16.4021 C   0  0  0  0  0  0  0  0  0  0  0  0
    8.4634  -13.5314   15.0523 N   0  0  0  0  0  0  0  0  0  0  0  0
    7.7406  -15.8455   21.4397 C   0  0  0  0  0  0  0  0  0  0  0  0
    6.6267  -15.9259   22.0373 O   0  0  0  0  0  0  0  0  0  0  0  0
    9.5971  -17.9523   23.6846 C   0  0  0  0  0  0  0  0  0  0  0  0
    8.7783  -16.6700   23.5814 C   0  0  2  0  0  0  0  0  0  0  0  0
    8.8813  -16.2249   22.2045 N   0  0  0  0  0  0  0  0  0  0  0  0
    9.2744  -15.6642   24.5337 C   0  0  0  0  0  0  0  0  0  0  0  0
   10.3604  -15.0852   24.2836 O   0  0  0  0  0  0  0  0  0  0  0  0
    5.7405  -12.3361   26.5434 C   0  0  0  0  0  0  0  0  0  0  0  0
    6.9837  -12.9958   26.0501 C   0  0  1  0  0  0  0  0  0  0  0  0
    7.8485  -12.0093   25.2773 C   0  0  0  0  0  0  0  0  0  0  0  0
    7.7617  -13.6455   27.1306 C   0  0  0  0  0  0  0  0  0  0  0  0
    8.9485  -14.4010   26.6597 C   0  0  2  0  0  0  0  0  0  0  0  0
    8.5173  -15.3826   25.6940 N   0  0  0  0  0  0  0  0  0  0  0  0
    9.8087  -14.9938   27.6891 C   0  0  0  0  0  0  0  0  0  0  0  0
    9.8638  -16.2467   27.9428 O   0  0  0  0  0  0  0  0  0  0  0  0
   10.6549  -14.2191   28.4879 O   0  0  0  0  0  0  0  0  0  0  0  0
  2  3  1  0
  2  1  1  6
  4  3  1  0
  5  6  1  0
  5  4  1  0
  7  6  1  0
  8  2  1  0
  8 12  1  0
  9  8  2  0
 11 12  1  0
 11 10  1  6
 13 11  1  0
 13 14  2  0
 16 18  1  0
 16 15  1  1
 17 16  1  0
 19 18  1  1
 19 20  1  0
 19 21  1  0
 20 13  1  0
 21 22  2  0
 21 23  1  0
M  END
$$$$
