KAL.pdb
     RDKit          3D

 23 22  0  0  1  0  0  0  0  0999 V2000
    6.9914  -18.4204   22.0495 N   0  0  0  0  0  0  0  0  0  0  0  0
    7.9156  -17.3101   21.9062 C   0  0  1  0  0  0  0  0  0  0  0  0
    7.2818  -16.0312   22.3933 C   0  0  0  0  0  0  0  0  0  0  0  0
    7.0163  -15.1555   21.2034 C   0  0  0  0  0  0  0  0  0  0  0  0
    7.8676  -13.9054   21.2051 C   0  0  0  0  0  0  0  0  0  0  0  0
    7.4717  -13.0575   20.0103 C   0  0  0  0  0  0  0  0  0  0  0  0
    8.3694  -11.9417   19.8273 N   0  0  0  0  0  0  0  0  0  0  0  0
    9.1482  -17.6457   22.6665 C   0  0  0  0  0  0  0  0  0  0  0  0
    9.1375  -18.4783   23.6209 O   0  0  0  0  0  0  0  0  0  0  0  0
   12.7786  -16.7613   22.3730 C   0  0  0  0  0  0  0  0  0  0  0  0
   11.6055  -17.3618   23.1402 C   0  0  2  0  0  0  0  0  0  0  0  0
   10.4122  -17.0573   22.3733 N   0  0  0  0  0  0  0  0  0  0  0  0
   11.5488  -16.8150   24.5049 C   0  0  0  0  0  0  0  0  0  0  0  0
   12.6035  -16.7910   25.1862 O   0  0  0  0  0  0  0  0  0  0  0  0
   10.3145  -13.1570   27.9644 C   0  0  0  0  0  0  0  0  0  0  0  0
    9.0766  -13.8213   27.4637 C   0  0  1  0  0  0  0  0  0  0  0  0
    7.9408  -12.8161   27.3292 C   0  0  0  0  0  0  0  0  0  0  0  0
    9.2864  -14.5534   26.1930 C   0  0  0  0  0  0  0  0  0  0  0  0
   10.2160  -15.7050   26.2975 C   0  0  2  0  0  0  0  0  0  0  0  0
   10.3156  -16.3364   25.0039 N   0  0  0  0  0  0  0  0  0  0  0  0
    9.9462  -16.6809   27.3585 C   0  0  0  0  0  0  0  0  0  0  0  0
    9.1130  -17.6458   27.2498 O   0  0  0  0  0  0  0  0  0  0  0  0
   10.5946  -16.6326   28.5960 O   0  0  0  0  0  0  0  0  0  0  0  0
  2  3  1  0
  2  1  1  1
  4  3  1  0
  5  6  1  0
  5  4  1  0
  7  6  1  0
  8  2  1  0
  8 12  1  0
  9  8  2  0
 11 12  1  0
 11 10  1  6
 13 11  1  0
 13 14  2  0
 16 18  1  0
 16 15  1  6
 17 16  1  0
 19 18  1  6
 19 20  1  0
 19 21  1  0
 20 13  1  0
 21 22  2  0
 21 23  1  0
M  END
$$$$
