KAL.pdb
     RDKit          3D

 23 22  0  0  1  0  0  0  0  0999 V2000
    6.8132  -15.8809   19.7135 N   0  0  0  0  0  0  0  0  0  0  0  0
    7.7316  -14.9828   20.3899 C   0  0  1  0  0  0  0  0  0  0  0  0
    7.3533  -13.5467   20.1267 C   0  0  0  0  0  0  0  0  0  0  0  0
    7.3651  -13.3222   18.6426 C   0  0  0  0  0  0  0  0  0  0  0  0
    8.6756  -13.7301   18.0072 C   0  0  0  0  0  0  0  0  0  0  0  0
    8.5919  -13.4475   16.5185 C   0  0  0  0  0  0  0  0  0  0  0  0
    9.7033  -14.0274   15.8024 N   0  0  0  0  0  0  0  0  0  0  0  0
    7.7003  -15.3103   21.8395 C   0  0  0  0  0  0  0  0  0  0  0  0
    6.9810  -14.6609   22.6550 O   0  0  0  0  0  0  0  0  0  0  0  0
    8.9842  -18.1448   23.9078 C   0  0  0  0  0  0  0  0  0  0  0  0
    8.3458  -16.7649   23.7918 C   0  0  2  0  0  0  0  0  0  0  0  0
    8.4715  -16.3682   22.4019 N   0  0  0  0  0  0  0  0  0  0  0  0
    9.0002  -15.8162   24.7063 C   0  0  0  0  0  0  0  0  0  0  0  0
   10.1139  -15.3374   24.3782 O   0  0  0  0  0  0  0  0  0  0  0  0
    5.8549  -12.2535   26.7978 C   0  0  0  0  0  0  0  0  0  0  0  0
    7.0175  -13.0208   26.2650 C   0  0  1  0  0  0  0  0  0  0  0  0
    7.8686  -12.1479   25.3529 C   0  0  0  0  0  0  0  0  0  0  0  0
    7.8441  -13.6331   27.3311 C   0  0  0  0  0  0  0  0  0  0  0  0
    8.9281  -14.5152   26.8332 C   0  0  2  0  0  0  0  0  0  0  0  0
    8.3584  -15.4752   25.9190 N   0  0  0  0  0  0  0  0  0  0  0  0
    9.7730  -15.1621   27.8425 C   0  0  0  0  0  0  0  0  0  0  0  0
   10.5582  -14.5308   28.6313 O   0  0  0  0  0  0  0  0  0  0  0  0
    9.7839  -16.5478   28.0262 O   0  0  0  0  0  0  0  0  0  0  0  0
  2  3  1  0
  2  1  1  6
  4  3  1  0
  5  6  1  0
  5  4  1  0
  7  6  1  0
  8  2  1  0
  8 12  1  0
  9  8  2  0
 11 12  1  0
 11 10  1  6
 13 11  1  0
 13 14  2  0
 16 18  1  0
 16 15  1  1
 17 16  1  0
 19 18  1  1
 19 20  1  0
 19 21  1  0
 20 13  1  0
 21 22  2  0
 21 23  1  0
M  END
$$$$
