KAL.pdb
     RDKit          3D

 23 22  0  0  1  0  0  0  0  0999 V2000
    6.3900  -20.0780   20.3295 N   0  0  0  0  0  0  0  0  0  0  0  0
    7.5618  -19.6975   21.0974 C   0  0  1  0  0  0  0  0  0  0  0  0
    8.5335  -18.9347   20.2322 C   0  0  0  0  0  0  0  0  0  0  0  0
    8.7781  -19.7326   18.9845 C   0  0  0  0  0  0  0  0  0  0  0  0
    9.7726  -19.0673   18.0594 C   0  0  0  0  0  0  0  0  0  0  0  0
    9.8992  -19.9147   16.8068 C   0  0  0  0  0  0  0  0  0  0  0  0
   10.8734  -19.3704   15.8910 N   0  0  0  0  0  0  0  0  0  0  0  0
    7.1004  -18.8931   22.2593 C   0  0  0  0  0  0  0  0  0  0  0  0
    6.3548  -17.8794   22.1152 O   0  0  0  0  0  0  0  0  0  0  0  0
    7.1664  -19.3210   25.9640 C   0  0  0  0  0  0  0  0  0  0  0  0
    6.9861  -18.4381   24.7339 C   0  0  2  0  0  0  0  0  0  0  0  0
    7.4639  -19.2076   23.6006 N   0  0  0  0  0  0  0  0  0  0  0  0
    7.7157  -17.1710   24.8980 C   0  0  0  0  0  0  0  0  0  0  0  0
    8.8678  -17.0740   24.4079 O   0  0  0  0  0  0  0  0  0  0  0  0
    7.7412  -11.7252   24.9969 C   0  0  0  0  0  0  0  0  0  0  0  0
    7.2874  -12.4372   26.2263 C   0  0  1  0  0  0  0  0  0  0  0  0
    6.2836  -11.5932   26.9998 C   0  0  0  0  0  0  0  0  0  0  0  0
    6.7387  -13.7843   25.9454 C   0  0  0  0  0  0  0  0  0  0  0  0
    7.7665  -14.8432   25.7928 C   0  0  2  0  0  0  0  0  0  0  0  0
    7.1003  -16.1083   25.5985 N   0  0  0  0  0  0  0  0  0  0  0  0
    8.7941  -14.9255   26.8359 C   0  0  0  0  0  0  0  0  0  0  0  0
    8.6806  -15.6268   27.9001 O   0  0  0  0  0  0  0  0  0  0  0  0
   10.0039  -14.2311   26.7448 O   0  0  0  0  0  0  0  0  0  0  0  0
  2  3  1  0
  2  1  1  6
  4  3  1  0
  5  6  1  0
  5  4  1  0
  7  6  1  0
  8  2  1  0
  8 12  1  0
  9  8  2  0
 11 12  1  0
 11 10  1  1
 13 11  1  0
 13 14  2  0
 16 18  1  0
 16 15  1  6
 17 16  1  0
 19 18  1  1
 19 20  1  0
 19 21  1  0
 20 13  1  0
 21 22  2  0
 21 23  1  0
M  END
$$$$
