KAL.pdb
     RDKit          3D

 23 22  0  0  1  0  0  0  0  0999 V2000
    7.1103  -18.7628   20.0982 N   0  0  0  0  0  0  0  0  0  0  0  0
    6.5556  -17.7952   21.0276 C   0  0  1  0  0  0  0  0  0  0  0  0
    6.2371  -18.4543   22.3461 C   0  0  0  0  0  0  0  0  0  0  0  0
    5.5102  -19.7374   22.0666 C   0  0  0  0  0  0  0  0  0  0  0  0
    4.9415  -20.3639   23.3202 C   0  0  0  0  0  0  0  0  0  0  0  0
    4.1121  -21.5691   22.9167 C   0  0  0  0  0  0  0  0  0  0  0  0
    3.5221  -22.2184   24.0633 N   0  0  0  0  0  0  0  0  0  0  0  0
    7.5436  -16.6948   21.1791 C   0  0  0  0  0  0  0  0  0  0  0  0
    8.7790  -16.9244   21.3378 O   0  0  0  0  0  0  0  0  0  0  0  0
    7.4434  -12.9759   20.8186 C   0  0  0  0  0  0  0  0  0  0  0  0
    8.1379  -14.2497   21.2881 C   0  0  2  0  0  0  0  0  0  0  0  0
    7.1681  -15.3206   21.1560 N   0  0  0  0  0  0  0  0  0  0  0  0
    8.6170  -14.0955   22.6706 C   0  0  0  0  0  0  0  0  0  0  0  0
    9.6222  -13.3726   22.8803 O   0  0  0  0  0  0  0  0  0  0  0  0
    5.8744  -12.2809   26.6136 C   0  0  0  0  0  0  0  0  0  0  0  0
    7.0633  -12.7374   25.8374 C   0  0  1  0  0  0  0  0  0  0  0  0
    8.3089  -11.9677   26.2549 C   0  0  0  0  0  0  0  0  0  0  0  0
    7.2895  -14.1984   25.9316 C   0  0  0  0  0  0  0  0  0  0  0  0
    8.3951  -14.7018   25.0799 C   0  0  2  0  0  0  0  0  0  0  0  0
    7.9344  -14.7622   23.7139 N   0  0  0  0  0  0  0  0  0  0  0  0
    9.0328  -15.9561   25.4936 C   0  0  0  0  0  0  0  0  0  0  0  0
    9.0128  -17.0324   24.8020 O   0  0  0  0  0  0  0  0  0  0  0  0
    9.7286  -16.0742   26.7003 O   0  0  0  0  0  0  0  0  0  0  0  0
  2  3  1  0
  2  1  1  6
  4  3  1  0
  5  6  1  0
  5  4  1  0
  7  6  1  0
  8  2  1  0
  8 12  1  0
  9  8  2  0
 11 12  1  0
 11 10  1  1
 13 11  1  0
 13 14  2  0
 16 18  1  0
 16 15  1  1
 17 16  1  0
 19 18  1  1
 19 20  1  0
 19 21  1  0
 20 13  1  0
 21 22  2  0
 21 23  1  0
M  END
$$$$
