KAL.pdb
     RDKit          3D

 23 22  0  0  1  0  0  0  0  0999 V2000
    7.1508  -19.4421   21.3829 N   0  0  0  0  0  0  0  0  0  0  0  0
    6.4416  -18.2626   21.8448 C   0  0  1  0  0  0  0  0  0  0  0  0
    6.0002  -18.4404   23.2759 C   0  0  0  0  0  0  0  0  0  0  0  0
    6.9887  -19.3356   23.9648 C   0  0  0  0  0  0  0  0  0  0  0  0
    6.5269  -19.7533   25.3430 C   0  0  0  0  0  0  0  0  0  0  0  0
    7.5304  -20.7452   25.9018 C   0  0  0  0  0  0  0  0  0  0  0  0
    7.1510  -21.2038   27.2171 N   0  0  0  0  0  0  0  0  0  0  0  0
    7.3487  -17.0961   21.6825 C   0  0  0  0  0  0  0  0  0  0  0  0
    8.5926  -17.1820   21.9051 O   0  0  0  0  0  0  0  0  0  0  0  0
    6.9446  -13.5699   20.4676 C   0  0  0  0  0  0  0  0  0  0  0  0
    7.7718  -14.6815   21.1044 C   0  0  2  0  0  0  0  0  0  0  0  0
    6.8816  -15.8151   21.2690 N   0  0  0  0  0  0  0  0  0  0  0  0
    8.3451  -14.2295   22.3818 C   0  0  0  0  0  0  0  0  0  0  0  0
    9.2211  -13.3299   22.3616 O   0  0  0  0  0  0  0  0  0  0  0  0
    7.9460  -11.7355   26.6695 C   0  0  0  0  0  0  0  0  0  0  0  0
    7.0087  -12.8955   26.6555 C   0  0  1  0  0  0  0  0  0  0  0  0
    5.6359  -12.4869   27.1719 C   0  0  0  0  0  0  0  0  0  0  0  0
    6.9022  -13.5372   25.3245 C   0  0  0  0  0  0  0  0  0  0  0  0
    8.1446  -14.2074   24.8680 C   0  0  2  0  0  0  0  0  0  0  0  0
    7.8944  -14.8189   23.5853 N   0  0  0  0  0  0  0  0  0  0  0  0
    8.7741  -15.1456   25.8030 C   0  0  0  0  0  0  0  0  0  0  0  0
    9.1262  -14.8418   26.9950 O   0  0  0  0  0  0  0  0  0  0  0  0
    9.0414  -16.4735   25.4574 O   0  0  0  0  0  0  0  0  0  0  0  0
  2  3  1  0
  2  1  1  1
  4  3  1  0
  5  6  1  0
  5  4  1  0
  7  6  1  0
  8  2  1  0
  8 12  1  0
  9  8  2  0
 11 12  1  0
 11 10  1  1
 13 11  1  0
 13 14  2  0
 16 18  1  0
 16 15  1  6
 17 16  1  0
 19 18  1  1
 19 20  1  0
 19 21  1  0
 20 13  1  0
 21 22  2  0
 21 23  1  0
M  END
$$$$
