PRK.pdb
     RDKit          3D

 28 28  0  0  1  0  0  0  0  0999 V2000
   26.9883  -17.9758  -17.7610 N   0  0  0  0  0  0  0  0  0  0  0  0
   28.1583  -17.3042  -18.3118 C   0  0  0  0  0  0  0  0  0  0  0  0
   29.3555  -18.1176  -17.9591 C   0  0  0  0  0  0  0  0  0  0  0  0
   28.7874  -19.1889  -17.0394 C   0  0  0  0  0  0  0  0  0  0  0  0
   27.3902  -19.3613  -17.5900 C   0  0  1  0  0  0  0  0  0  0  0  0
   26.4861  -20.0796  -16.6635 C   0  0  0  0  0  0  0  0  0  0  0  0
   25.6303  -20.9194  -17.0850 O   0  0  0  0  0  0  0  0  0  0  0  0
   26.5642  -19.9053   -7.7111 N   0  0  0  0  0  0  0  0  0  0  0  0
   25.3745  -20.5835   -8.0114 C   0  0  0  0  0  0  0  0  0  0  0  0
   24.5403  -20.9696   -7.1158 N   0  0  0  0  0  0  0  0  0  0  0  0
   25.0468  -20.8741   -9.3864 N   0  0  0  0  0  0  0  0  0  0  0  0
   25.8832  -20.3841  -10.4594 C   0  0  0  0  0  0  0  0  0  0  0  0
   25.2858  -20.7663  -11.8226 C   0  0  0  0  0  0  0  0  0  0  0  0
   26.2601  -20.2819  -12.8624 C   0  0  0  0  0  0  0  0  0  0  0  0
   25.6769  -20.3646  -14.2686 C   0  0  2  0  0  0  0  0  0  0  0  0
   26.5566  -19.8471  -15.2737 N   0  0  0  0  0  0  0  0  0  0  0  0
   24.3822  -19.6676  -14.2064 C   0  0  0  0  0  0  0  0  0  0  0  0
   24.4046  -18.4359  -13.9348 O   0  0  0  0  0  0  0  0  0  0  0  0
   23.6520  -21.4646   -7.2855 N   0  0  0  0  0  0  0  0  0  0  0  0
   23.1552  -20.2861  -14.4337 C   0  0  2  0  0  0  0  0  0  0  0  0
   21.8371  -19.5447  -14.3311 C   0  0  0  0  0  0  0  0  0  0  0  0
   21.2011  -19.7040  -15.6697 C   0  0  0  0  0  0  0  0  0  0  0  0
   19.8879  -19.1477  -15.9210 C   0  0  0  0  0  0  0  0  0  0  0  0
   19.1420  -19.2379  -17.1779 C   0  0  0  0  0  0  0  0  0  0  0  0
   17.8118  -18.4239  -16.9560 N   0  0  0  0  0  0  0  0  0  0  0  0
   16.9881  -18.5271  -18.1159 C   0  0  0  0  0  0  0  0  0  0  0  0
   21.0762  -20.2696  -13.2974 O   0  0  0  0  0  0  0  0  0  0  0  0
   21.3157  -21.5253  -13.0924 O   0  0  0  0  0  0  0  0  0  0  0  0
  1  5  1  0
  2  1  1  0
  2  3  1  0
  3  4  1  0
  5  6  1  1
  5  4  1  0
  6  7  2  0
  9 11  1  0
  9  8  1  0
 10  9  2  0
 12 13  1  0
 12 11  1  0
 13 14  1  0
 15 14  1  1
 16 15  1  0
 16  6  1  0
 17 18  2  0
 17 15  1  0
 19 17  1  0
 20 19  1  0
 20 26  1  0
 20 21  1  6
 22 21  1  0
 23 22  1  0
 24 23  1  0
 24 25  1  0
 26 28  1  0
 27 26  2  0
M  END
$$$$
