PRK.pdb
     RDKit          3D

 28 28  0  0  1  0  0  0  0  0999 V2000
   25.2363  -12.0727  -15.7969 N   0  0  0  0  0  0  0  0  0  0  0  0
   25.9981  -13.3058  -15.9461 C   0  0  0  0  0  0  0  0  0  0  0  0
   25.9051  -13.7259  -17.3725 C   0  0  0  0  0  0  0  0  0  0  0  0
   24.9086  -12.7371  -17.9602 C   0  0  0  0  0  0  0  0  0  0  0  0
   25.1721  -11.5011  -17.1309 C   0  0  1  0  0  0  0  0  0  0  0  0
   24.0961  -10.4900  -17.2384 C   0  0  0  0  0  0  0  0  0  0  0  0
   23.8465   -9.8965  -18.3342 O   0  0  0  0  0  0  0  0  0  0  0  0
   17.0241  -12.8581  -14.0063 N   0  0  0  0  0  0  0  0  0  0  0  0
   17.1689  -12.9422  -15.3983 C   0  0  0  0  0  0  0  0  0  0  0  0
   16.3811  -13.6248  -16.1469 N   0  0  0  0  0  0  0  0  0  0  0  0
   18.2474  -12.2362  -16.0470 N   0  0  0  0  0  0  0  0  0  0  0  0
   19.0770  -11.3170  -15.2999 C   0  0  0  0  0  0  0  0  0  0  0  0
   20.2320  -10.8048  -16.1744 C   0  0  0  0  0  0  0  0  0  0  0  0
   20.9954   -9.8187  -15.3318 C   0  0  0  0  0  0  0  0  0  0  0  0
   22.2025   -9.2543  -16.0726 C   0  0  2  0  0  0  0  0  0  0  0  0
   23.3116  -10.1600  -16.1132 N   0  0  0  0  0  0  0  0  0  0  0  0
   22.5132   -7.9749  -15.4149 C   0  0  0  0  0  0  0  0  0  0  0  0
   23.2428   -8.0192  -14.3867 O   0  0  0  0  0  0  0  0  0  0  0  0
   16.4534  -13.7289  -17.1701 N   0  0  0  0  0  0  0  0  0  0  0  0
   22.0559   -6.7388  -15.8650 C   0  0  2  0  0  0  0  0  0  0  0  0
   22.4597   -5.4326  -15.2105 C   0  0  0  0  0  0  0  0  0  0  0  0
   21.8506   -4.3715  -16.0619 C   0  0  0  0  0  0  0  0  0  0  0  0
   21.9340   -2.9822  -15.6619 C   0  0  0  0  0  0  0  0  0  0  0  0
   21.3276   -1.8480  -16.3620 C   0  0  0  0  0  0  0  0  0  0  0  0
   21.8691   -0.5530  -15.6471 N   0  0  0  0  0  0  0  0  0  0  0  0
   21.3934    0.6053  -16.3300 C   0  0  0  0  0  0  0  0  0  0  0  0
   21.8272   -5.4666  -13.8794 O   0  0  0  0  0  0  0  0  0  0  0  0
   22.4035   -4.8719  -12.8842 O   0  0  0  0  0  0  0  0  0  0  0  0
  1  5  1  0
  2  1  1  0
  2  3  1  0
  3  4  1  0
  5  6  1  1
  5  4  1  0
  6  7  2  0
  9 11  1  0
  9  8  1  0
 10  9  2  0
 12 13  1  0
 12 11  1  0
 13 14  1  0
 15 14  1  1
 16 15  1  0
 16  6  1  0
 17 18  2  0
 17 15  1  0
 19 17  1  0
 20 19  1  0
 20 26  1  0
 20 21  1  6
 22 21  1  0
 23 22  1  0
 24 23  1  0
 24 25  1  0
 26 28  1  0
 27 26  2  0
M  END
$$$$
