PRK.pdb
     RDKit          3D

 28 28  0  0  1  0  0  0  0  0999 V2000
   18.7868  -13.7193  -14.7066 N   0  0  0  0  0  0  0  0  0  0  0  0
   18.3877  -15.0856  -15.0178 C   0  0  0  0  0  0  0  0  0  0  0  0
   17.6483  -15.0583  -16.3109 C   0  0  0  0  0  0  0  0  0  0  0  0
   17.5229  -13.5706  -16.6064 C   0  0  0  0  0  0  0  0  0  0  0  0
   18.7854  -13.0226  -15.9814 C   0  0  1  0  0  0  0  0  0  0  0  0
   18.7521  -11.5539  -15.7987 C   0  0  0  0  0  0  0  0  0  0  0  0
   19.0332  -10.7577  -16.7487 O   0  0  0  0  0  0  0  0  0  0  0  0
   13.9510   -8.7330   -9.2835 N   0  0  0  0  0  0  0  0  0  0  0  0
   13.6031   -9.7670  -10.1641 C   0  0  0  0  0  0  0  0  0  0  0  0
   12.5976  -10.5420   -9.9758 N   0  0  0  0  0  0  0  0  0  0  0  0
   14.3966   -9.9926  -11.3481 N   0  0  0  0  0  0  0  0  0  0  0  0
   15.4394   -9.0626  -11.7208 C   0  0  0  0  0  0  0  0  0  0  0  0
   16.0440   -9.4509  -13.0791 C   0  0  0  0  0  0  0  0  0  0  0  0
   17.5376   -9.3591  -12.9190 C   0  0  0  0  0  0  0  0  0  0  0  0
   18.2656   -9.6067  -14.2356 C   0  0  2  0  0  0  0  0  0  0  0  0
   18.4006  -10.9975  -14.5507 N   0  0  0  0  0  0  0  0  0  0  0  0
   19.5532   -8.9035  -14.1192 C   0  0  0  0  0  0  0  0  0  0  0  0
   20.4279   -9.4248  -13.3746 O   0  0  0  0  0  0  0  0  0  0  0  0
   12.2959  -11.3080  -10.5965 N   0  0  0  0  0  0  0  0  0  0  0  0
   19.8524   -7.7157  -14.7820 C   0  0  2  0  0  0  0  0  0  0  0  0
   21.2517   -7.1345  -14.8217 C   0  0  0  0  0  0  0  0  0  0  0  0
   21.2850   -6.2959  -16.0536 C   0  0  0  0  0  0  0  0  0  0  0  0
   22.4226   -5.4401  -16.3193 C   0  0  0  0  0  0  0  0  0  0  0  0
   22.5901   -4.5698  -17.4850 C   0  0  0  0  0  0  0  0  0  0  0  0
   23.9649   -3.8280  -17.2825 N   0  0  0  0  0  0  0  0  0  0  0  0
   24.1408   -2.8563  -18.3118 C   0  0  0  0  0  0  0  0  0  0  0  0
   21.3465   -6.2970  -13.6124 O   0  0  0  0  0  0  0  0  0  0  0  0
   20.2724   -5.7749  -13.1124 O   0  0  0  0  0  0  0  0  0  0  0  0
  1  5  1  0
  2  1  1  0
  2  3  1  0
  3  4  1  0
  5  6  1  1
  5  4  1  0
  6  7  2  0
  9 11  1  0
  9  8  1  0
 10  9  2  0
 12 13  1  0
 12 11  1  0
 13 14  1  0
 15 14  1  1
 16 15  1  0
 16  6  1  0
 17 18  2  0
 17 15  1  0
 19 17  1  0
 20 19  1  0
 20 26  1  0
 20 21  1  6
 22 21  1  0
 23 22  1  0
 24 23  1  0
 24 25  1  0
 26 28  1  0
 27 26  2  0
M  END
$$$$
