PRK.pdb
     RDKit          3D

 28 28  0  0  1  0  0  0  0  0999 V2000
   27.1199  -17.0752  -17.0988 N   0  0  0  0  0  0  0  0  0  0  0  0
   28.4526  -16.7249  -17.5724 C   0  0  0  0  0  0  0  0  0  0  0  0
   29.0317  -17.9306  -18.2285 C   0  0  0  0  0  0  0  0  0  0  0  0
   28.0001  -19.0113  -17.9388 C   0  0  0  0  0  0  0  0  0  0  0  0
   26.7164  -18.2140  -17.9057 C   0  0  1  0  0  0  0  0  0  0  0  0
   25.5921  -18.9499  -17.2843 C   0  0  0  0  0  0  0  0  0  0  0  0
   25.0386  -19.9354  -17.8655 O   0  0  0  0  0  0  0  0  0  0  0  0
   27.1854  -21.0471  -10.6847 N   0  0  0  0  0  0  0  0  0  0  0  0
   25.8580  -20.6872  -10.4121 C   0  0  0  0  0  0  0  0  0  0  0  0
   25.4611  -20.2866   -9.2593 N   0  0  0  0  0  0  0  0  0  0  0  0
   24.8694  -20.7608  -11.4607 N   0  0  0  0  0  0  0  0  0  0  0  0
   25.0898  -21.5972  -12.6196 C   0  0  0  0  0  0  0  0  0  0  0  0
   25.4577  -20.7379  -13.8392 C   0  0  0  0  0  0  0  0  0  0  0  0
   24.4930  -19.5827  -13.8493 C   0  0  0  0  0  0  0  0  0  0  0  0
   24.0667  -19.2119  -15.2653 C   0  0  2  0  0  0  0  0  0  0  0  0
   25.1051  -18.5708  -16.0156 N   0  0  0  0  0  0  0  0  0  0  0  0
   22.8564  -18.3881  -15.1160 C   0  0  0  0  0  0  0  0  0  0  0  0
   22.9899  -17.1406  -15.2478 O   0  0  0  0  0  0  0  0  0  0  0  0
   24.5081  -19.9751   -9.0190 N   0  0  0  0  0  0  0  0  0  0  0  0
   21.5920  -18.9067  -14.8470 C   0  0  1  0  0  0  0  0  0  0  0  0
   20.3452  -18.0450  -14.8258 C   0  0  0  0  0  0  0  0  0  0  0  0
   20.2019  -17.5415  -16.2214 C   0  0  0  0  0  0  0  0  0  0  0  0
   19.1344  -16.6221  -16.5561 C   0  0  0  0  0  0  0  0  0  0  0  0
   18.9225  -15.9880  -17.8589 C   0  0  0  0  0  0  0  0  0  0  0  0
   17.7308  -14.9765  -17.6640 N   0  0  0  0  0  0  0  0  0  0  0  0
   17.5523  -14.2118  -18.8546 C   0  0  0  0  0  0  0  0  0  0  0  0
   19.2513  -18.9730  -14.4864 O   0  0  0  0  0  0  0  0  0  0  0  0
   19.3035  -20.1987  -14.9001 O   0  0  0  0  0  0  0  0  0  0  0  0
  1  5  1  0
  2  1  1  0
  2  3  1  0
  3  4  1  0
  5  6  1  1
  5  4  1  0
  6  7  2  0
  9 11  1  0
  9  8  1  0
 10  9  2  0
 12 13  1  0
 12 11  1  0
 13 14  1  0
 15 14  1  1
 16 15  1  0
 16  6  1  0
 17 18  2  0
 17 15  1  0
 19 17  1  0
 20 19  1  0
 20 26  1  0
 20 21  1  1
 22 21  1  0
 23 22  1  0
 24 23  1  0
 24 25  1  0
 26 28  1  0
 27 26  2  0
M  END
$$$$
