PRK.pdb
     RDKit          3D

 28 28  0  0  1  0  0  0  0  0999 V2000
   24.7779  -21.6017  -10.9173 N   0  0  0  0  0  0  0  0  0  0  0  0
   25.2205  -21.7653   -9.5388 C   0  0  0  0  0  0  0  0  0  0  0  0
   25.3355  -20.4079   -8.9357 C   0  0  0  0  0  0  0  0  0  0  0  0
   25.0886  -19.4819  -10.1180 C   0  0  0  0  0  0  0  0  0  0  0  0
   24.1349  -20.2996  -10.9586 C   0  0  1  0  0  0  0  0  0  0  0  0
   24.0089  -19.7988  -12.3461 C   0  0  0  0  0  0  0  0  0  0  0  0
   23.4958  -18.6643  -12.6009 O   0  0  0  0  0  0  0  0  0  0  0  0
   29.1613  -21.4621  -18.5760 N   0  0  0  0  0  0  0  0  0  0  0  0
   28.8066  -22.2053  -17.4413 C   0  0  0  0  0  0  0  0  0  0  0  0
   29.6375  -22.9376  -16.7928 N   0  0  0  0  0  0  0  0  0  0  0  0
   27.4480  -22.1626  -16.9568 N   0  0  0  0  0  0  0  0  0  0  0  0
   26.3828  -21.6695  -17.8015 C   0  0  0  0  0  0  0  0  0  0  0  0
   25.5522  -20.6134  -17.0560 C   0  0  0  0  0  0  0  0  0  0  0  0
   25.3231  -21.1558  -15.6709 C   0  0  0  0  0  0  0  0  0  0  0  0
   24.5241  -20.1864  -14.8069 C   0  0  2  0  0  0  0  0  0  0  0  0
   24.4636  -20.5784  -13.4305 N   0  0  0  0  0  0  0  0  0  0  0  0
   23.2024  -20.0780  -15.4450 C   0  0  0  0  0  0  0  0  0  0  0  0
   22.3668  -20.9894  -15.1953 O   0  0  0  0  0  0  0  0  0  0  0  0
   29.4310  -23.4860  -15.9446 N   0  0  0  0  0  0  0  0  0  0  0  0
   22.8312  -19.0357  -16.2909 C   0  0  2  0  0  0  0  0  0  0  0  0
   21.4184  -18.8756  -16.8159 C   0  0  0  0  0  0  0  0  0  0  0  0
   21.4600  -17.6511  -17.6648 C   0  0  0  0  0  0  0  0  0  0  0  0
   20.2291  -17.0535  -18.1389 C   0  0  0  0  0  0  0  0  0  0  0  0
   20.0599  -16.3102  -19.3892 C   0  0  0  0  0  0  0  0  0  0  0  0
   18.5516  -15.8573  -19.4276 N   0  0  0  0  0  0  0  0  0  0  0  0
   18.3746  -14.7112  -18.5972 C   0  0  0  0  0  0  0  0  0  0  0  0
   21.1827  -20.0771  -17.6368 O   0  0  0  0  0  0  0  0  0  0  0  0
   22.1475  -20.5593  -18.3529 O   0  0  0  0  0  0  0  0  0  0  0  0
  1  5  1  0
  2  1  1  0
  2  3  1  0
  3  4  1  0
  5  6  1  6
  5  4  1  0
  6  7  2  0
  9 11  1  0
  9  8  1  0
 10  9  2  0
 12 13  1  0
 12 11  1  0
 13 14  1  0
 15 14  1  6
 16 15  1  0
 16  6  1  0
 17 18  2  0
 17 15  1  0
 19 17  1  0
 20 19  1  0
 20 26  1  0
 20 21  1  1
 22 21  1  0
 23 22  1  0
 24 23  1  0
 24 25  1  0
 26 28  1  0
 27 26  2  0
M  END
$$$$
