PRK.pdb
     RDKit          3D

 28 28  0  0  1  0  0  0  0  0999 V2000
   25.9940  -17.0139  -16.2291 N   0  0  0  0  0  0  0  0  0  0  0  0
   27.0062  -16.0128  -16.5394 C   0  0  0  0  0  0  0  0  0  0  0  0
   28.3379  -16.6764  -16.4640 C   0  0  0  0  0  0  0  0  0  0  0  0
   28.0042  -18.0623  -15.9312 C   0  0  0  0  0  0  0  0  0  0  0  0
   26.6256  -18.2924  -16.5068 C   0  0  1  0  0  0  0  0  0  0  0  0
   25.9037  -19.4087  -15.8552 C   0  0  0  0  0  0  0  0  0  0  0  0
   26.2758  -20.6157  -15.9968 O   0  0  0  0  0  0  0  0  0  0  0  0
   26.1455  -21.9046  -10.7797 N   0  0  0  0  0  0  0  0  0  0  0  0
   25.7187  -20.9069   -9.8920 C   0  0  0  0  0  0  0  0  0  0  0  0
   26.2652  -20.7025   -8.7489 N   0  0  0  0  0  0  0  0  0  0  0  0
   24.6136  -20.0534  -10.2563 N   0  0  0  0  0  0  0  0  0  0  0  0
   23.3297  -20.6224  -10.6015 C   0  0  0  0  0  0  0  0  0  0  0  0
   23.2935  -21.0007  -12.0904 C   0  0  0  0  0  0  0  0  0  0  0  0
   24.0086  -19.8984  -12.8244 C   0  0  0  0  0  0  0  0  0  0  0  0
   23.9929  -20.1183  -14.3330 C   0  0  2  0  0  0  0  0  0  0  0  0
   24.7734  -19.1546  -15.0500 N   0  0  0  0  0  0  0  0  0  0  0  0
   22.5733  -20.1296  -14.7209 C   0  0  0  0  0  0  0  0  0  0  0  0
   21.9640  -19.0251  -14.7053 O   0  0  0  0  0  0  0  0  0  0  0  0
   26.0225  -19.9524   -8.0846 N   0  0  0  0  0  0  0  0  0  0  0  0
   21.8816  -21.2764  -15.1035 C   0  0  2  0  0  0  0  0  0  0  0  0
   20.4313  -21.2450  -15.5431 C   0  0  0  0  0  0  0  0  0  0  0  0
   20.1122  -22.6523  -15.9165 C   0  0  0  0  0  0  0  0  0  0  0  0
   18.7766  -23.0032  -16.3524 C   0  0  0  0  0  0  0  0  0  0  0  0
   18.3231  -24.3396  -16.7434 C   0  0  0  0  0  0  0  0  0  0  0  0
   16.8580  -24.1602  -17.2935 N   0  0  0  0  0  0  0  0  0  0  0  0
   16.3670  -25.4134  -17.7656 C   0  0  0  0  0  0  0  0  0  0  0  0
   19.6818  -20.8366  -14.3413 O   0  0  0  0  0  0  0  0  0  0  0  0
   20.1304  -21.1580  -13.1702 O   0  0  0  0  0  0  0  0  0  0  0  0
  1  5  1  0
  2  1  1  0
  2  3  1  0
  3  4  1  0
  5  6  1  1
  5  4  1  0
  6  7  2  0
  9 11  1  0
  9  8  1  0
 10  9  2  0
 12 13  1  0
 12 11  1  0
 13 14  1  0
 15 14  1  1
 16 15  1  0
 16  6  1  0
 17 18  2  0
 17 15  1  0
 19 17  1  0
 20 19  1  0
 20 26  1  0
 20 21  1  6
 22 21  1  0
 23 22  1  0
 24 23  1  0
 24 25  1  0
 26 28  1  0
 27 26  2  0
M  END
$$$$
