PRK.pdb
     RDKit          3D

 28 28  0  0  1  0  0  0  0  0999 V2000
   25.7415  -14.3206  -15.6483 N   0  0  0  0  0  0  0  0  0  0  0  0
   26.6054  -15.4921  -15.5822 C   0  0  0  0  0  0  0  0  0  0  0  0
   27.4335  -15.5148  -16.8205 C   0  0  0  0  0  0  0  0  0  0  0  0
   26.8531  -14.3756  -17.6459 C   0  0  0  0  0  0  0  0  0  0  0  0
   26.4008  -13.4132  -16.5716 C   0  0  1  0  0  0  0  0  0  0  0  0
   25.4699  -12.3778  -17.0748 C   0  0  0  0  0  0  0  0  0  0  0  0
   25.8331  -11.5176  -17.9370 O   0  0  0  0  0  0  0  0  0  0  0  0
   20.5929  -16.2837  -17.7797 N   0  0  0  0  0  0  0  0  0  0  0  0
   19.8926  -15.4619  -16.8854 C   0  0  0  0  0  0  0  0  0  0  0  0
   19.2939  -15.9087  -15.8419 N   0  0  0  0  0  0  0  0  0  0  0  0
   19.8264  -14.0405  -17.1255 N   0  0  0  0  0  0  0  0  0  0  0  0
   20.1918  -13.4961  -18.4144 C   0  0  0  0  0  0  0  0  0  0  0  0
   21.6337  -12.9658  -18.3834 C   0  0  0  0  0  0  0  0  0  0  0  0
   21.7433  -12.1102  -17.1501 C   0  0  0  0  0  0  0  0  0  0  0  0
   23.1069  -11.4361  -17.0466 C   0  0  2  0  0  0  0  0  0  0  0  0
   24.1409  -12.3233  -16.6044 N   0  0  0  0  0  0  0  0  0  0  0  0
   22.9129  -10.2746  -16.1640 C   0  0  0  0  0  0  0  0  0  0  0  0
   23.0388  -10.4674  -14.9236 O   0  0  0  0  0  0  0  0  0  0  0  0
   18.7766  -15.3458  -15.1501 N   0  0  0  0  0  0  0  0  0  0  0  0
   22.6087   -8.9943  -16.6202 C   0  0  2  0  0  0  0  0  0  0  0  0
   22.4419   -7.8136  -15.6844 C   0  0  0  0  0  0  0  0  0  0  0  0
   22.2503   -6.6374  -16.5797 C   0  0  0  0  0  0  0  0  0  0  0  0
   21.9526   -5.3368  -16.0169 C   0  0  0  0  0  0  0  0  0  0  0  0
   21.6774   -4.1144  -16.7748 C   0  0  0  0  0  0  0  0  0  0  0  0
   21.4429   -2.9812  -15.7061 N   0  0  0  0  0  0  0  0  0  0  0  0
   22.6735   -2.3102  -15.4419 C   0  0  0  0  0  0  0  0  0  0  0  0
   21.2112   -8.1040  -14.9266 O   0  0  0  0  0  0  0  0  0  0  0  0
   21.0811   -7.6469  -13.7224 O   0  0  0  0  0  0  0  0  0  0  0  0
  1  5  1  0
  2  1  1  0
  2  3  1  0
  3  4  1  0
  5  6  1  6
  5  4  1  0
  6  7  2  0
  9 11  1  0
  9  8  1  0
 10  9  2  0
 12 13  1  0
 12 11  1  0
 13 14  1  0
 15 14  1  1
 16 15  1  0
 16  6  1  0
 17 18  2  0
 17 15  1  0
 19 17  1  0
 20 19  1  0
 20 26  1  0
 20 21  1  6
 22 21  1  0
 23 22  1  0
 24 23  1  0
 24 25  1  0
 26 28  1  0
 27 26  2  0
M  END
$$$$
