PRK.pdb
     RDKit          3D

 28 28  0  0  1  0  0  0  0  0999 V2000
   27.7489  -19.5896  -16.8688 N   0  0  0  0  0  0  0  0  0  0  0  0
   28.9897  -19.3206  -17.5840 C   0  0  0  0  0  0  0  0  0  0  0  0
   29.7701  -20.5887  -17.6302 C   0  0  0  0  0  0  0  0  0  0  0  0
   28.9560  -21.5283  -16.7523 C   0  0  0  0  0  0  0  0  0  0  0  0
   27.5492  -21.0243  -16.9798 C   0  0  1  0  0  0  0  0  0  0  0  0
   26.5854  -21.5190  -15.9707 C   0  0  0  0  0  0  0  0  0  0  0  0
   25.8505  -22.5322  -16.1917 O   0  0  0  0  0  0  0  0  0  0  0  0
   22.9119  -19.9518   -9.7537 N   0  0  0  0  0  0  0  0  0  0  0  0
   23.4739  -20.6895   -8.7023 C   0  0  0  0  0  0  0  0  0  0  0  0
   22.8132  -21.0441   -7.6607 N   0  0  0  0  0  0  0  0  0  0  0  0
   24.8606  -21.0833   -8.7689 N   0  0  0  0  0  0  0  0  0  0  0  0
   25.6844  -20.6823   -9.8877 C   0  0  0  0  0  0  0  0  0  0  0  0
   25.0855  -21.1965  -11.2062 C   0  0  0  0  0  0  0  0  0  0  0  0
   26.0572  -20.8137  -12.2899 C   0  0  0  0  0  0  0  0  0  0  0  0
   25.5418  -21.1926  -13.6738 C   0  0  2  0  0  0  0  0  0  0  0  0
   26.4611  -20.8703  -14.7240 N   0  0  0  0  0  0  0  0  0  0  0  0
   24.2368  -20.5262  -13.8109 C   0  0  0  0  0  0  0  0  0  0  0  0
   24.2177  -19.2700  -13.6969 O   0  0  0  0  0  0  0  0  0  0  0  0
   23.1819  -21.5784   -6.8597 N   0  0  0  0  0  0  0  0  0  0  0  0
   23.0434  -21.1991  -14.0616 C   0  0  2  0  0  0  0  0  0  0  0  0
   21.7335  -20.4746  -14.2994 C   0  0  0  0  0  0  0  0  0  0  0  0
   21.1256  -21.1557  -15.4776 C   0  0  0  0  0  0  0  0  0  0  0  0
   19.7976  -20.7890  -15.9236 C   0  0  0  0  0  0  0  0  0  0  0  0
   19.0626  -21.4025  -17.0316 C   0  0  0  0  0  0  0  0  0  0  0  0
   17.7070  -20.6090  -17.1493 N   0  0  0  0  0  0  0  0  0  0  0  0
   16.8791  -21.2194  -18.1375 C   0  0  0  0  0  0  0  0  0  0  0  0
   20.9399  -20.7211  -13.0818 O   0  0  0  0  0  0  0  0  0  0  0  0
   21.0527  -21.8541  -12.4657 O   0  0  0  0  0  0  0  0  0  0  0  0
  1  5  1  0
  2  1  1  0
  2  3  1  0
  3  4  1  0
  5  6  1  1
  5  4  1  0
  6  7  2  0
  9 11  1  0
  9  8  1  0
 10  9  2  0
 12 13  1  0
 12 11  1  0
 13 14  1  0
 15 14  1  1
 16 15  1  0
 16  6  1  0
 17 18  2  0
 17 15  1  0
 19 17  1  0
 20 19  1  0
 20 26  1  0
 20 21  1  6
 22 21  1  0
 23 22  1  0
 24 23  1  0
 24 25  1  0
 26 28  1  0
 27 26  2  0
M  END
$$$$
