PRK.pdb
     RDKit          3D

 28 28  0  0  1  0  0  0  0  0999 V2000
   27.1263  -16.0596  -16.5480 N   0  0  0  0  0  0  0  0  0  0  0  0
   28.1608  -15.1119  -16.9416 C   0  0  0  0  0  0  0  0  0  0  0  0
   29.1270  -15.8335  -17.8165 C   0  0  0  0  0  0  0  0  0  0  0  0
   28.6491  -17.2765  -17.7435 C   0  0  0  0  0  0  0  0  0  0  0  0
   27.1589  -17.1009  -17.5605 C   0  0  1  0  0  0  0  0  0  0  0  0
   26.4823  -18.3329  -17.0957 C   0  0  0  0  0  0  0  0  0  0  0  0
   26.1401  -19.2510  -17.9053 O   0  0  0  0  0  0  0  0  0  0  0  0
   26.6272  -21.0286   -8.9257 N   0  0  0  0  0  0  0  0  0  0  0  0
   25.3561  -20.8268   -9.4819 C   0  0  0  0  0  0  0  0  0  0  0  0
   24.3065  -20.6096   -8.7760 N   0  0  0  0  0  0  0  0  0  0  0  0
   25.1915  -20.8590  -10.9151 N   0  0  0  0  0  0  0  0  0  0  0  0
   26.2306  -21.4028  -11.7611 C   0  0  0  0  0  0  0  0  0  0  0  0
   25.8083  -21.3398  -13.2372 C   0  0  0  0  0  0  0  0  0  0  0  0
   26.2115  -19.9779  -13.7348 C   0  0  0  0  0  0  0  0  0  0  0  0
   25.6329  -19.6837  -15.1144 C   0  0  2  0  0  0  0  0  0  0  0  0
   26.2006  -18.5194  -15.7259 N   0  0  0  0  0  0  0  0  0  0  0  0
   24.1758  -19.5969  -14.9270 C   0  0  0  0  0  0  0  0  0  0  0  0
   23.7333  -18.5826  -14.3214 O   0  0  0  0  0  0  0  0  0  0  0  0
   23.3485  -20.4812   -9.1348 N   0  0  0  0  0  0  0  0  0  0  0  0
   23.2755  -20.5576  -15.3812 C   0  0  2  0  0  0  0  0  0  0  0  0
   21.7767  -20.4195  -15.2020 C   0  0  0  0  0  0  0  0  0  0  0  0
   21.1923  -21.5666  -15.9533 C   0  0  0  0  0  0  0  0  0  0  0  0
   19.7626  -21.7957  -15.9327 C   0  0  0  0  0  0  0  0  0  0  0  0
   19.0398  -22.7914  -16.7269 C   0  0  0  0  0  0  0  0  0  0  0  0
   18.8632  -24.0491  -15.7950 N   0  0  0  0  0  0  0  0  0  0  0  0
   18.1230  -25.0551  -16.4838 C   0  0  0  0  0  0  0  0  0  0  0  0
   21.5546  -20.5720  -13.7527 O   0  0  0  0  0  0  0  0  0  0  0  0
   22.3397  -21.3375  -13.0644 O   0  0  0  0  0  0  0  0  0  0  0  0
  1  5  1  0
  2  1  1  0
  2  3  1  0
  3  4  1  0
  5  6  1  1
  5  4  1  0
  6  7  2  0
  9 11  1  0
  9  8  1  0
 10  9  2  0
 12 13  1  0
 12 11  1  0
 13 14  1  0
 15 14  1  1
 16 15  1  0
 16  6  1  0
 17 18  2  0
 17 15  1  0
 19 17  1  0
 20 19  1  0
 20 26  1  0
 20 21  1  1
 22 21  1  0
 23 22  1  0
 24 23  1  0
 24 25  1  0
 26 28  1  0
 27 26  2  0
M  END
$$$$
