PRK.pdb
     RDKit          3D

 28 28  0  0  1  0  0  0  0  0999 V2000
   26.3610  -18.8620  -15.0007 N   0  0  0  0  0  0  0  0  0  0  0  0
   27.7669  -18.6199  -15.2973 C   0  0  0  0  0  0  0  0  0  0  0  0
   28.4031  -19.9367  -15.5819 C   0  0  0  0  0  0  0  0  0  0  0  0
   27.2974  -20.9319  -15.2607 C   0  0  0  0  0  0  0  0  0  0  0  0
   26.0575  -20.1431  -15.6148 C   0  0  1  0  0  0  0  0  0  0  0  0
   24.8174  -20.7319  -15.0607 C   0  0  0  0  0  0  0  0  0  0  0  0
   24.3721  -21.8511  -15.4664 O   0  0  0  0  0  0  0  0  0  0  0  0
   18.9442  -21.1015  -10.5331 N   0  0  0  0  0  0  0  0  0  0  0  0
   19.5484  -21.6613   -9.3985 C   0  0  0  0  0  0  0  0  0  0  0  0
   18.9680  -22.5245   -8.6468 N   0  0  0  0  0  0  0  0  0  0  0  0
   20.8880  -21.2661   -9.0357 N   0  0  0  0  0  0  0  0  0  0  0  0
   21.6179  -20.3166   -9.8462 C   0  0  0  0  0  0  0  0  0  0  0  0
   21.5546  -20.7164  -11.3286 C   0  0  0  0  0  0  0  0  0  0  0  0
   22.7371  -20.0648  -11.9934 C   0  0  0  0  0  0  0  0  0  0  0  0
   22.8591  -20.4702  -13.4581 C   0  0  2  0  0  0  0  0  0  0  0  0
   24.0938  -20.0567  -14.0552 N   0  0  0  0  0  0  0  0  0  0  0  0
   21.6700  -19.9178  -14.1265 C   0  0  0  0  0  0  0  0  0  0  0  0
   21.5149  -18.6666  -14.0828 O   0  0  0  0  0  0  0  0  0  0  0  0
   19.3644  -22.9559   -7.7984 N   0  0  0  0  0  0  0  0  0  0  0  0
   20.7266  -20.6915  -14.7981 C   0  0  2  0  0  0  0  0  0  0  0  0
   19.5690  -20.0826  -15.5640 C   0  0  0  0  0  0  0  0  0  0  0  0
   19.4157  -20.9391  -16.7743 C   0  0  0  0  0  0  0  0  0  0  0  0
   20.3210  -20.7836  -17.8937 C   0  0  0  0  0  0  0  0  0  0  0  0
   20.2767  -21.5398  -19.1469 C   0  0  0  0  0  0  0  0  0  0  0  0
   21.5040  -21.0434  -20.0005 N   0  0  0  0  0  0  0  0  0  0  0  0
   21.5465  -21.7543  -21.2363 C   0  0  0  0  0  0  0  0  0  0  0  0
   18.4073  -20.2254  -14.6678 O   0  0  0  0  0  0  0  0  0  0  0  0
   18.3988  -21.1677  -13.7801 O   0  0  0  0  0  0  0  0  0  0  0  0
  1  5  1  0
  2  1  1  0
  2  3  1  0
  3  4  1  0
  5  6  1  1
  5  4  1  0
  6  7  2  0
  9 11  1  0
  9  8  1  0
 10  9  2  0
 12 13  1  0
 12 11  1  0
 13 14  1  0
 15 14  1  1
 16 15  1  0
 16  6  1  0
 17 18  2  0
 17 15  1  0
 19 17  1  0
 20 19  1  0
 20 26  1  0
 20 21  1  1
 22 21  1  0
 23 22  1  0
 24 23  1  0
 24 25  1  0
 26 28  1  0
 27 26  2  0
M  END
$$$$
