PRK.pdb
     RDKit          3D

 28 28  0  0  1  0  0  0  0  0999 V2000
   19.7989  -14.3481  -17.9872 N   0  0  0  0  0  0  0  0  0  0  0  0
   19.0030  -15.5446  -18.2285 C   0  0  0  0  0  0  0  0  0  0  0  0
   18.5275  -16.0462  -16.9087 C   0  0  0  0  0  0  0  0  0  0  0  0
   19.2491  -15.1461  -15.9160 C   0  0  0  0  0  0  0  0  0  0  0  0
   19.3610  -13.8543  -16.6930 C   0  0  1  0  0  0  0  0  0  0  0  0
   20.3416  -12.9102  -16.1108 C   0  0  0  0  0  0  0  0  0  0  0  0
   20.1393  -12.3467  -14.9897 O   0  0  0  0  0  0  0  0  0  0  0  0
   28.9797  -12.0754  -18.1506 N   0  0  0  0  0  0  0  0  0  0  0  0
   28.7438  -10.9856  -17.3006 C   0  0  0  0  0  0  0  0  0  0  0  0
   29.6399  -10.1141  -17.0100 N   0  0  0  0  0  0  0  0  0  0  0  0
   27.4385  -10.8109  -16.7106 N   0  0  0  0  0  0  0  0  0  0  0  0
   26.3313  -11.6473  -17.1176 C   0  0  0  0  0  0  0  0  0  0  0  0
   25.0298  -11.1767  -16.4498 C   0  0  0  0  0  0  0  0  0  0  0  0
   23.9328  -12.0475  -17.0007 C   0  0  0  0  0  0  0  0  0  0  0  0
   22.5856  -11.7376  -16.3578 C   0  0  2  0  0  0  0  0  0  0  0  0
   21.5392  -12.6128  -16.7948 N   0  0  0  0  0  0  0  0  0  0  0  0
   22.3221  -10.3185  -16.6451 C   0  0  0  0  0  0  0  0  0  0  0  0
   22.2020   -9.9898  -17.8571 O   0  0  0  0  0  0  0  0  0  0  0  0
   29.5137   -9.2927  -16.3998 N   0  0  0  0  0  0  0  0  0  0  0  0
   22.1950   -9.3378  -15.6644 C   0  0  1  0  0  0  0  0  0  0  0  0
   21.7879   -7.9131  -15.9841 C   0  0  0  0  0  0  0  0  0  0  0  0
   20.4453   -8.0305  -16.6207 C   0  0  0  0  0  0  0  0  0  0  0  0
   19.6469   -6.8456  -16.8565 C   0  0  0  0  0  0  0  0  0  0  0  0
   18.2774   -6.8205  -17.3743 C   0  0  0  0  0  0  0  0  0  0  0  0
   17.8378   -5.3079  -17.3740 N   0  0  0  0  0  0  0  0  0  0  0  0
   16.5789   -5.1751  -18.0313 C   0  0  0  0  0  0  0  0  0  0  0  0
   21.6922   -7.2452  -14.6734 O   0  0  0  0  0  0  0  0  0  0  0  0
   21.5574   -7.9596  -13.6021 O   0  0  0  0  0  0  0  0  0  0  0  0
  1  5  1  0
  2  1  1  0
  2  3  1  0
  3  4  1  0
  5  6  1  1
  5  4  1  0
  6  7  2  0
  9 11  1  0
  9  8  1  0
 10  9  2  0
 12 13  1  0
 12 11  1  0
 13 14  1  0
 15 14  1  6
 16 15  1  0
 16  6  1  0
 17 18  2  0
 17 15  1  0
 19 17  1  0
 20 19  1  0
 20 26  1  0
 20 21  1  1
 22 21  1  0
 23 22  1  0
 24 23  1  0
 24 25  1  0
 26 28  1  0
 27 26  2  0
M  END
$$$$
