PRK.pdb
     RDKit          3D

 28 28  0  0  1  0  0  0  0  0999 V2000
   26.3687  -18.3675  -16.9381 N   0  0  0  0  0  0  0  0  0  0  0  0
   27.2348  -17.2239  -17.1936 C   0  0  0  0  0  0  0  0  0  0  0  0
   28.5688  -17.5249  -16.6024 C   0  0  0  0  0  0  0  0  0  0  0  0
   28.3322  -18.8338  -15.8628 C   0  0  0  0  0  0  0  0  0  0  0  0
   27.2697  -19.4856  -16.7179 C   0  0  1  0  0  0  0  0  0  0  0  0
   26.5863  -20.6091  -16.0379 C   0  0  0  0  0  0  0  0  0  0  0  0
   27.0778  -21.7812  -16.0299 O   0  0  0  0  0  0  0  0  0  0  0  0
   29.2033  -19.6542  -10.9535 N   0  0  0  0  0  0  0  0  0  0  0  0
   29.0452  -21.0312  -10.7424 C   0  0  0  0  0  0  0  0  0  0  0  0
   30.0330  -21.8405  -10.6145 N   0  0  0  0  0  0  0  0  0  0  0  0
   27.7184  -21.5924  -10.6600 N   0  0  0  0  0  0  0  0  0  0  0  0
   26.5572  -20.7307  -10.6373 C   0  0  0  0  0  0  0  0  0  0  0  0
   25.5224  -21.1976  -11.6728 C   0  0  0  0  0  0  0  0  0  0  0  0
   25.8613  -20.4913  -12.9578 C   0  0  0  0  0  0  0  0  0  0  0  0
   24.9648  -20.9411  -14.1060 C   0  0  2  0  0  0  0  0  0  0  0  0
   25.3596  -20.4011  -15.3727 N   0  0  0  0  0  0  0  0  0  0  0  0
   23.5954  -20.5731  -13.7122 C   0  0  0  0  0  0  0  0  0  0  0  0
   23.3908  -19.3679  -13.4007 O   0  0  0  0  0  0  0  0  0  0  0  0
   29.9692  -22.8579  -10.4604 N   0  0  0  0  0  0  0  0  0  0  0  0
   22.5309  -21.4703  -13.6722 C   0  0  2  0  0  0  0  0  0  0  0  0
   21.1196  -21.0455  -13.3182 C   0  0  0  0  0  0  0  0  0  0  0  0
   20.3771  -22.3199  -13.1024 C   0  0  0  0  0  0  0  0  0  0  0  0
   18.9820  -22.2913  -12.7155 C   0  0  0  0  0  0  0  0  0  0  0  0
   18.0859  -23.4472  -12.6428 C   0  0  0  0  0  0  0  0  0  0  0  0
   16.6823  -22.8850  -12.2013 N   0  0  0  0  0  0  0  0  0  0  0  0
   15.7700  -23.9659  -12.0169 C   0  0  0  0  0  0  0  0  0  0  0  0
   21.2567  -20.2962  -12.0562 O   0  0  0  0  0  0  0  0  0  0  0  0
   20.4781  -19.2879  -11.8255 O   0  0  0  0  0  0  0  0  0  0  0  0
  1  5  1  0
  2  1  1  0
  2  3  1  0
  3  4  1  0
  5  6  1  1
  5  4  1  0
  6  7  2  0
  9 11  1  0
  9  8  1  0
 10  9  2  0
 12 13  1  0
 12 11  1  0
 13 14  1  0
 15 14  1  1
 16 15  1  0
 16  6  1  0
 17 18  2  0
 17 15  1  0
 19 17  1  0
 20 19  1  0
 20 26  1  0
 20 21  1  6
 22 21  1  0
 23 22  1  0
 24 23  1  0
 24 25  1  0
 26 28  1  0
 27 26  2  0
M  END
$$$$
