YSI.pdb
     RDKit          3D

 27 27  0  0  1  0  0  0  0  0999 V2000
   21.6487  -18.6973  -15.5305 O   0  0  0  0  0  0  0  0  0  0  0  0
   20.9394  -19.5539  -14.6896 C   0  0  0  0  0  0  0  0  0  0  0  0
   19.5708  -19.6955  -14.7855 C   0  0  0  0  0  0  0  0  0  0  0  0
   18.8823  -20.5468  -13.9468 C   0  0  0  0  0  0  0  0  0  0  0  0
   19.5259  -21.2958  -12.9744 C   0  0  0  0  0  0  0  0  0  0  0  0
   18.7185  -22.1731  -12.1215 C   0  0  0  0  0  0  0  0  0  0  0  0
   18.9741  -23.6571  -12.3570 C   0  0  2  0  0  0  0  0  0  0  0  0
   18.4617  -23.9333  -13.6866 N   0  0  0  0  0  0  0  0  0  0  0  0
   18.3031  -24.4984  -11.3345 C   0  0  0  0  0  0  0  0  0  0  0  0
   17.0486  -24.4859  -11.2664 O   0  0  0  0  0  0  0  0  0  0  0  0
   20.8952  -21.1510  -12.8819 C   0  0  0  0  0  0  0  0  0  0  0  0
   21.5915  -20.2939  -13.7258 C   0  0  0  0  0  0  0  0  0  0  0  0
   20.4477  -27.2910   -9.2575 O   0  0  0  0  0  0  0  0  0  0  0  0
   19.0690  -27.4701   -9.3973 C   0  0  0  0  0  0  0  0  0  0  0  0
   18.3517  -26.1152   -9.3917 C   0  0  2  0  0  0  0  0  0  0  0  0
   18.9942  -25.3222  -10.4222 N   0  0  0  0  0  0  0  0  0  0  0  0
   18.4492  -25.4780   -8.0617 C   0  0  0  0  0  0  0  0  0  0  0  0
   18.6552  -24.2411   -7.9773 O   0  0  0  0  0  0  0  0  0  0  0  0
   15.2083  -23.2764   -4.3539 C   0  0  0  0  0  0  0  0  0  0  0  0
   16.4624  -24.0803   -4.3682 C   0  0  0  0  0  0  0  0  0  0  0  0
   16.7421  -24.7212   -5.7088 C   0  0  2  0  0  0  0  0  0  0  0  0
   15.6114  -25.5548   -6.2037 C   0  0  0  0  0  0  0  0  0  0  0  0
   18.0274  -25.5406   -5.5991 C   0  0  2  0  0  0  0  0  0  0  0  0
   18.3189  -26.2106   -6.8500 N   0  0  0  0  0  0  0  0  0  0  0  0
   17.9427  -26.5075   -4.4748 C   0  0  0  0  0  0  0  0  0  0  0  0
   17.3994  -27.6349   -4.6232 O   0  0  0  0  0  0  0  0  0  0  0  0
   18.4552  -26.2121   -3.2207 O   0  0  0  0  0  0  0  0  0  0  0  0
  1  2  1  0
  2  3  2  0
  3  4  1  0
  5  4  2  0
  5  6  1  0
  7  6  1  0
  7  9  1  0
  7  8  1  6
  9 10  2  0
 11  5  1  0
 12  2  1  0
 12 11  2  0
 15 14  1  1
 14 13  1  0
 16  9  1  0
 16 15  1  0
 17 15  1  0
 17 18  2  0
 19 20  1  0
 20 21  1  0
 21 22  1  1
 21 23  1  0
 23 24  1  6
 23 25  1  0
 24 17  1  0
 25 26  2  0
 25 27  1  0
M  END
$$$$
