YSI.pdb
     RDKit          3D

 27 27  0  0  1  0  0  0  0  0999 V2000
   22.9932  -12.8599  -21.8317 O   0  0  0  0  0  0  0  0  0  0  0  0
   22.4296  -11.8718  -21.0255 C   0  0  0  0  0  0  0  0  0  0  0  0
   21.2235  -12.0600  -20.3835 C   0  0  0  0  0  0  0  0  0  0  0  0
   20.6780  -11.0734  -19.5889 C   0  0  0  0  0  0  0  0  0  0  0  0
   21.3093   -9.8544  -19.3978 C   0  0  0  0  0  0  0  0  0  0  0  0
   20.6587   -8.8586  -18.5410 C   0  0  0  0  0  0  0  0  0  0  0  0
   21.3981   -8.6024  -17.2332 C   0  0  2  0  0  0  0  0  0  0  0  0
   21.3034   -9.8420  -16.4840 N   0  0  0  0  0  0  0  0  0  0  0  0
   20.8039   -7.4697  -16.4798 C   0  0  0  0  0  0  0  0  0  0  0  0
   19.6105   -7.5554  -16.0965 O   0  0  0  0  0  0  0  0  0  0  0  0
   22.5157   -9.6703  -20.0422 C   0  0  0  0  0  0  0  0  0  0  0  0
   23.0677  -10.6628  -20.8434 C   0  0  0  0  0  0  0  0  0  0  0  0
   22.8543   -5.0378  -14.0904 O   0  0  0  0  0  0  0  0  0  0  0  0
   21.4611   -5.1443  -14.0743 C   0  0  0  0  0  0  0  0  0  0  0  0
   20.9093   -5.1398  -15.5047 C   0  0  2  0  0  0  0  0  0  0  0  0
   21.5039   -6.2873  -16.1627 N   0  0  0  0  0  0  0  0  0  0  0  0
   21.2445   -3.8738  -16.1898 C   0  0  0  0  0  0  0  0  0  0  0  0
   22.3971   -3.7078  -16.6625 O   0  0  0  0  0  0  0  0  0  0  0  0
   19.0646   -2.0672  -20.3553 C   0  0  0  0  0  0  0  0  0  0  0  0
   19.9685   -2.2610  -19.1870 C   0  0  0  0  0  0  0  0  0  0  0  0
   19.7931   -1.2056  -18.1186 C   0  0  2  0  0  0  0  0  0  0  0  0
   20.0563    0.1744  -18.6132 C   0  0  0  0  0  0  0  0  0  0  0  0
   20.6985   -1.5523  -16.9372 C   0  0  2  0  0  0  0  0  0  0  0  0
   20.3084   -2.8145  -16.3430 N   0  0  0  0  0  0  0  0  0  0  0  0
   20.6975   -0.4584  -15.9325 C   0  0  0  0  0  0  0  0  0  0  0  0
   19.7770   -0.3585  -15.0776 O   0  0  0  0  0  0  0  0  0  0  0  0
   21.7042    0.4943  -15.8929 O   0  0  0  0  0  0  0  0  0  0  0  0
  1  2  1  0
  2  3  2  0
  3  4  1  0
  5  4  2  0
  5  6  1  0
  7  6  1  0
  7  9  1  0
  7  8  1  1
  9 10  2  0
 11  5  1  0
 12  2  1  0
 12 11  2  0
 15 14  1  1
 14 13  1  0
 16  9  1  0
 16 15  1  0
 17 15  1  0
 17 18  2  0
 19 20  1  0
 20 21  1  0
 21 22  1  6
 21 23  1  0
 23 24  1  1
 23 25  1  0
 24 17  1  0
 25 26  2  0
 25 27  1  0
M  END
$$$$
