YSI.pdb
     RDKit          3D

 27 27  0  0  1  0  0  0  0  0999 V2000
   25.0866  -23.3154  -23.6640 O   0  0  0  0  0  0  0  0  0  0  0  0
   25.4881  -23.2927  -22.3290 C   0  0  0  0  0  0  0  0  0  0  0  0
   25.4406  -22.1376  -21.5768 C   0  0  0  0  0  0  0  0  0  0  0  0
   25.8410  -22.1301  -20.2570 C   0  0  0  0  0  0  0  0  0  0  0  0
   26.3068  -23.2730  -19.6265 C   0  0  0  0  0  0  0  0  0  0  0  0
   26.7167  -23.1773  -18.2223 C   0  0  0  0  0  0  0  0  0  0  0  0
   27.9885  -22.3641  -18.0118 C   0  0  2  0  0  0  0  0  0  0  0  0
   29.0811  -23.2566  -18.3530 N   0  0  0  0  0  0  0  0  0  0  0  0
   28.1044  -21.8789  -16.6137 C   0  0  0  0  0  0  0  0  0  0  0  0
   28.7538  -22.5648  -15.7852 O   0  0  0  0  0  0  0  0  0  0  0  0
   26.3527  -24.4265  -20.3828 C   0  0  0  0  0  0  0  0  0  0  0  0
   25.9498  -24.4369  -21.7129 C   0  0  0  0  0  0  0  0  0  0  0  0
   26.3412  -18.2328  -15.3112 O   0  0  0  0  0  0  0  0  0  0  0  0
   27.6046  -18.6594  -14.8937 C   0  0  0  0  0  0  0  0  0  0  0  0
   27.6443  -20.1886  -14.7912 C   0  0  2  0  0  0  0  0  0  0  0  0
   27.5238  -20.6804  -16.1502 N   0  0  0  0  0  0  0  0  0  0  0  0
   26.5533  -20.6825  -13.9250 C   0  0  0  0  0  0  0  0  0  0  0  0
   25.5675  -21.2689  -14.4387 O   0  0  0  0  0  0  0  0  0  0  0  0
   24.7054  -21.0783   -7.9574 C   0  0  0  0  0  0  0  0  0  0  0  0
   24.5287  -21.2184   -9.4300 C   0  0  0  0  0  0  0  0  0  0  0  0
   25.7163  -20.7187  -10.2212 C   0  0  2  0  0  0  0  0  0  0  0  0
   26.0875  -19.3145   -9.8915 C   0  0  0  0  0  0  0  0  0  0  0  0
   25.4112  -20.8755  -11.7105 C   0  0  2  0  0  0  0  0  0  0  0  0
   26.5653  -20.5234  -12.5121 N   0  0  0  0  0  0  0  0  0  0  0  0
   24.2217  -20.0725  -12.0930 C   0  0  0  0  0  0  0  0  0  0  0  0
   23.0535  -20.5016  -11.8947 O   0  0  0  0  0  0  0  0  0  0  0  0
   24.3457  -18.8231  -12.6815 O   0  0  0  0  0  0  0  0  0  0  0  0
  1  2  1  0
  2  3  2  0
  3  4  1  0
  5  4  2  0
  5  6  1  0
  7  6  1  0
  7  9  1  0
  7  8  1  1
  9 10  2  0
 11  5  1  0
 12  2  1  0
 12 11  2  0
 15 14  1  6
 14 13  1  0
 16  9  1  0
 16 15  1  0
 17 15  1  0
 17 18  2  0
 19 20  1  0
 20 21  1  0
 21 22  1  6
 21 23  1  0
 23 24  1  6
 23 25  1  0
 24 17  1  0
 25 26  2  0
 25 27  1  0
M  END
$$$$
