YSI.pdb
     RDKit          3D

 27 27  0  0  1  0  0  0  0  0999 V2000
   19.6805  -22.4158   -8.8804 O   0  0  0  0  0  0  0  0  0  0  0  0
   20.8395  -21.8247   -9.3816 C   0  0  0  0  0  0  0  0  0  0  0  0
   21.0971  -21.7668  -10.7354 C   0  0  0  0  0  0  0  0  0  0  0  0
   22.2481  -21.1788  -11.2169 C   0  0  0  0  0  0  0  0  0  0  0  0
   23.1948  -20.6219  -10.3716 C   0  0  0  0  0  0  0  0  0  0  0  0
   24.3926  -20.0207  -10.9655 C   0  0  0  0  0  0  0  0  0  0  0  0
   25.5074  -21.0235  -11.2387 C   0  0  2  0  0  0  0  0  0  0  0  0
   26.0256  -21.3932   -9.9342 N   0  0  0  0  0  0  0  0  0  0  0  0
   26.5701  -20.4423  -12.0967 C   0  0  0  0  0  0  0  0  0  0  0  0
   27.7270  -20.3108  -11.6247 O   0  0  0  0  0  0  0  0  0  0  0  0
   22.9330  -20.6822   -9.0180 C   0  0  0  0  0  0  0  0  0  0  0  0
   21.7740  -21.2740   -8.5301 C   0  0  0  0  0  0  0  0  0  0  0  0
   27.7224  -21.7772  -15.3703 O   0  0  0  0  0  0  0  0  0  0  0  0
   28.3150  -20.8608  -14.4976 C   0  0  0  0  0  0  0  0  0  0  0  0
   27.4211  -19.6262  -14.3329 C   0  0  2  0  0  0  0  0  0  0  0  0
   26.3605  -20.0226  -13.4266 N   0  0  0  0  0  0  0  0  0  0  0  0
   26.8945  -19.1843  -15.6414 C   0  0  0  0  0  0  0  0  0  0  0  0
   25.9084  -19.7765  -16.1479 O   0  0  0  0  0  0  0  0  0  0  0  0
   29.0156  -14.5729  -18.4072 C   0  0  0  0  0  0  0  0  0  0  0  0
   28.6107  -15.9638  -18.0596 C   0  0  0  0  0  0  0  0  0  0  0  0
   27.1399  -16.0903  -17.7326 C   0  0  2  0  0  0  0  0  0  0  0  0
   26.7370  -15.2935  -16.5406 C   0  0  0  0  0  0  0  0  0  0  0  0
   26.8070  -17.5703  -17.5475 C   0  0  2  0  0  0  0  0  0  0  0  0
   27.4602  -18.1013  -16.3685 N   0  0  0  0  0  0  0  0  0  0  0  0
   27.1660  -18.3479  -18.7610 C   0  0  0  0  0  0  0  0  0  0  0  0
   28.0742  -19.2212  -18.7314 O   0  0  0  0  0  0  0  0  0  0  0  0
   26.5205  -18.1470  -19.9715 O   0  0  0  0  0  0  0  0  0  0  0  0
  1  2  1  0
  2  3  2  0
  3  4  1  0
  5  4  2  0
  5  6  1  0
  7  6  1  0
  7  9  1  0
  7  8  1  1
  9 10  2  0
 11  5  1  0
 12  2  1  0
 12 11  2  0
 15 14  1  6
 14 13  1  0
 16  9  1  0
 16 15  1  0
 17 15  1  0
 17 18  2  0
 19 20  1  0
 20 21  1  0
 21 22  1  1
 21 23  1  0
 23 24  1  1
 23 25  1  0
 24 17  1  0
 25 26  2  0
 25 27  1  0
M  END
$$$$
