YSI.pdb
     RDKit          3D

 27 27  0  0  1  0  0  0  0  0999 V2000
   13.4977  -13.8997  -18.4742 O   0  0  0  0  0  0  0  0  0  0  0  0
   14.7220  -13.3532  -18.0916 C   0  0  0  0  0  0  0  0  0  0  0  0
   15.0526  -12.0445  -18.3752 C   0  0  0  0  0  0  0  0  0  0  0  0
   16.2676  -11.5174  -17.9904 C   0  0  0  0  0  0  0  0  0  0  0  0
   17.2085  -12.2700  -17.3055 C   0  0  0  0  0  0  0  0  0  0  0  0
   18.4770  -11.6340  -16.9376 C   0  0  0  0  0  0  0  0  0  0  0  0
   19.5518  -11.7493  -18.0121 C   0  0  2  0  0  0  0  0  0  0  0  0
   19.9164  -13.1538  -18.0477 N   0  0  0  0  0  0  0  0  0  0  0  0
   20.7264  -10.8944  -17.7071 C   0  0  0  0  0  0  0  0  0  0  0  0
   21.8764  -11.3272  -17.9691 O   0  0  0  0  0  0  0  0  0  0  0  0
   16.8737  -13.5789  -17.0239 C   0  0  0  0  0  0  0  0  0  0  0  0
   15.6500  -14.1126  -17.4105 C   0  0  0  0  0  0  0  0  0  0  0  0
   23.6266   -8.4687  -18.4922 O   0  0  0  0  0  0  0  0  0  0  0  0
   22.2314   -8.4178  -18.4345 C   0  0  0  0  0  0  0  0  0  0  0  0
   21.7462   -8.6901  -17.0060 C   0  0  2  0  0  0  0  0  0  0  0  0
   20.6318   -9.6094  -17.1342 N   0  0  0  0  0  0  0  0  0  0  0  0
   21.3514   -7.4312  -16.3397 C   0  0  0  0  0  0  0  0  0  0  0  0
   20.3678   -6.7795  -16.7726 O   0  0  0  0  0  0  0  0  0  0  0  0
   19.8333   -7.7634  -11.6925 C   0  0  0  0  0  0  0  0  0  0  0  0
   20.1988   -7.2840  -13.0549 C   0  0  0  0  0  0  0  0  0  0  0  0
   21.2027   -6.1536  -13.0376 C   0  0  2  0  0  0  0  0  0  0  0  0
   20.7375   -4.9724  -12.2588 C   0  0  0  0  0  0  0  0  0  0  0  0
   21.5314   -5.7710  -14.4802 C   0  0  2  0  0  0  0  0  0  0  0  0
   22.0435   -6.9120  -15.2113 N   0  0  0  0  0  0  0  0  0  0  0  0
   22.4832   -4.6316  -14.5205 C   0  0  0  0  0  0  0  0  0  0  0  0
   22.1446   -3.4842  -14.1239 O   0  0  0  0  0  0  0  0  0  0  0  0
   23.7779   -4.7811  -14.9936 O   0  0  0  0  0  0  0  0  0  0  0  0
  1  2  1  0
  2  3  2  0
  3  4  1  0
  5  4  2  0
  5  6  1  0
  7  6  1  0
  7  9  1  0
  7  8  1  1
  9 10  2  0
 11  5  1  0
 12  2  1  0
 12 11  2  0
 15 14  1  6
 14 13  1  0
 16  9  1  0
 16 15  1  0
 17 15  1  0
 17 18  2  0
 19 20  1  0
 20 21  1  0
 21 22  1  1
 21 23  1  0
 23 24  1  1
 23 25  1  0
 24 17  1  0
 25 26  2  0
 25 27  1  0
M  END
$$$$
