YSI.pdb
     RDKit          3D

 27 27  0  0  1  0  0  0  0  0999 V2000
   31.3877  -20.5973  -10.2080 O   0  0  0  0  0  0  0  0  0  0  0  0
   30.1476  -20.6577  -10.8425 C   0  0  0  0  0  0  0  0  0  0  0  0
   29.8584  -19.8814  -11.9453 C   0  0  0  0  0  0  0  0  0  0  0  0
   28.6271  -19.9518  -12.5627 C   0  0  0  0  0  0  0  0  0  0  0  0
   27.6280  -20.7988  -12.1097 C   0  0  0  0  0  0  0  0  0  0  0  0
   26.3463  -20.8089  -12.8211 C   0  0  0  0  0  0  0  0  0  0  0  0
   26.2712  -21.8533  -13.9286 C   0  0  2  0  0  0  0  0  0  0  0  0
   27.1864  -21.3948  -14.9577 N   0  0  0  0  0  0  0  0  0  0  0  0
   24.8913  -21.9941  -14.4573 C   0  0  0  0  0  0  0  0  0  0  0  0
   24.2931  -20.9704  -14.8728 O   0  0  0  0  0  0  0  0  0  0  0  0
   27.9216  -21.5735  -11.0060 C   0  0  0  0  0  0  0  0  0  0  0  0
   29.1615  -21.5046  -10.3819 C   0  0  0  0  0  0  0  0  0  0  0  0
   22.9500  -25.6547  -14.2326 O   0  0  0  0  0  0  0  0  0  0  0  0
   22.6295  -24.8280  -15.3125 C   0  0  0  0  0  0  0  0  0  0  0  0
   22.8138  -23.3549  -14.9298 C   0  0  2  0  0  0  0  0  0  0  0  0
   24.1997  -23.2213  -14.5236 N   0  0  0  0  0  0  0  0  0  0  0  0
   21.8810  -22.9757  -13.8479 C   0  0  0  0  0  0  0  0  0  0  0  0
   22.1677  -23.2472  -12.6548 O   0  0  0  0  0  0  0  0  0  0  0  0
   21.2171  -19.0735  -11.0910 C   0  0  0  0  0  0  0  0  0  0  0  0
   20.9850  -20.4633  -11.5747 C   0  0  0  0  0  0  0  0  0  0  0  0
   19.8502  -20.5648  -12.5687 C   0  0  2  0  0  0  0  0  0  0  0  0
   18.5581  -20.0535  -12.0327 C   0  0  0  0  0  0  0  0  0  0  0  0
   19.7254  -22.0197  -13.0197 C   0  0  2  0  0  0  0  0  0  0  0  0
   20.6516  -22.3058  -14.0963 N   0  0  0  0  0  0  0  0  0  0  0  0
   18.3275  -22.3328  -13.4115 C   0  0  0  0  0  0  0  0  0  0  0  0
   17.4424  -22.5620  -12.5441 O   0  0  0  0  0  0  0  0  0  0  0  0
   17.9389  -22.3861  -14.7415 O   0  0  0  0  0  0  0  0  0  0  0  0
  1  2  1  0
  2  3  2  0
  3  4  1  0
  5  4  2  0
  5  6  1  0
  7  6  1  0
  7  9  1  0
  7  8  1  6
  9 10  2  0
 11  5  1  0
 12  2  1  0
 12 11  2  0
 15 14  1  1
 14 13  1  0
 16  9  1  0
 16 15  1  0
 17 15  1  0
 17 18  2  0
 19 20  1  0
 20 21  1  0
 21 22  1  1
 21 23  1  0
 23 24  1  6
 23 25  1  0
 24 17  1  0
 25 26  2  0
 25 27  1  0
M  END
$$$$
