YSI.pdb
     RDKit          3D

 27 27  0  0  1  0  0  0  0  0999 V2000
   28.9704  -28.9526  -20.5344 O   0  0  0  0  0  0  0  0  0  0  0  0
   28.8127  -27.9345  -19.5951 C   0  0  0  0  0  0  0  0  0  0  0  0
   29.4914  -27.9438  -18.3944 C   0  0  0  0  0  0  0  0  0  0  0  0
   29.3255  -26.9296  -17.4745 C   0  0  0  0  0  0  0  0  0  0  0  0
   28.4760  -25.8600  -17.7090 C   0  0  0  0  0  0  0  0  0  0  0  0
   28.3541  -24.8265  -16.6765 C   0  0  0  0  0  0  0  0  0  0  0  0
   28.8029  -23.4455  -17.1394 C   0  0  2  0  0  0  0  0  0  0  0  0
   30.2415  -23.5406  -17.3076 N   0  0  0  0  0  0  0  0  0  0  0  0
   28.4429  -22.3934  -16.1560 C   0  0  0  0  0  0  0  0  0  0  0  0
   29.1318  -22.2775  -15.1117 O   0  0  0  0  0  0  0  0  0  0  0  0
   27.7988  -25.8547  -18.9115 C   0  0  0  0  0  0  0  0  0  0  0  0
   27.9641  -26.8754  -19.8402 C   0  0  0  0  0  0  0  0  0  0  0  0
   25.3306  -19.7180  -16.9199 O   0  0  0  0  0  0  0  0  0  0  0  0
   26.4195  -19.3246  -16.1376 C   0  0  0  0  0  0  0  0  0  0  0  0
   26.9605  -20.5159  -15.3385 C   0  0  2  0  0  0  0  0  0  0  0  0
   27.3616  -21.5035  -16.3219 N   0  0  0  0  0  0  0  0  0  0  0  0
   25.9293  -21.0387  -14.4178 C   0  0  0  0  0  0  0  0  0  0  0  0
   25.1446  -21.9393  -14.8085 O   0  0  0  0  0  0  0  0  0  0  0  0
   24.4393  -19.2700   -9.2723 C   0  0  0  0  0  0  0  0  0  0  0  0
   25.4355  -19.7075  -10.2900 C   0  0  0  0  0  0  0  0  0  0  0  0
   25.2130  -21.1244  -10.7685 C   0  0  2  0  0  0  0  0  0  0  0  0
   26.4189  -21.9859  -10.6209 C   0  0  0  0  0  0  0  0  0  0  0  0
   24.7389  -21.0799  -12.2207 C   0  0  2  0  0  0  0  0  0  0  0  0
   25.7793  -20.5632  -13.0862 N   0  0  0  0  0  0  0  0  0  0  0  0
   23.4894  -20.2865  -12.3440 C   0  0  0  0  0  0  0  0  0  0  0  0
   23.4977  -19.1297  -12.8441 O   0  0  0  0  0  0  0  0  0  0  0  0
   22.2672  -20.7823  -11.9163 O   0  0  0  0  0  0  0  0  0  0  0  0
  1  2  1  0
  2  3  2  0
  3  4  1  0
  5  4  2  0
  5  6  1  0
  7  6  1  0
  7  9  1  0
  7  8  1  1
  9 10  2  0
 11  5  1  0
 12  2  1  0
 12 11  2  0
 15 14  1  6
 14 13  1  0
 16  9  1  0
 16 15  1  0
 17 15  1  0
 17 18  2  0
 19 20  1  0
 20 21  1  0
 21 22  1  6
 21 23  1  0
 23 24  1  6
 23 25  1  0
 24 17  1  0
 25 26  2  0
 25 27  1  0
M  END
$$$$
