YSI.pdb
     RDKit          3D

 27 27  0  0  1  0  0  0  0  0999 V2000
   18.6172  -19.5641  -20.4713 O   0  0  0  0  0  0  0  0  0  0  0  0
   19.3698  -18.4393  -20.1362 C   0  0  0  0  0  0  0  0  0  0  0  0
   18.8203  -17.1742  -20.1301 C   0  0  0  0  0  0  0  0  0  0  0  0
   19.5771  -16.0705  -19.7963 C   0  0  0  0  0  0  0  0  0  0  0  0
   20.9157  -16.1769  -19.4535 C   0  0  0  0  0  0  0  0  0  0  0  0
   21.6488  -14.9530  -19.1163 C   0  0  0  0  0  0  0  0  0  0  0  0
   22.0790  -14.1441  -20.3344 C   0  0  2  0  0  0  0  0  0  0  0  0
   23.1557  -14.9029  -20.9441 N   0  0  0  0  0  0  0  0  0  0  0  0
   22.5265  -12.7800  -19.9570 C   0  0  0  0  0  0  0  0  0  0  0  0
   23.7504  -12.5755  -19.7604 O   0  0  0  0  0  0  0  0  0  0  0  0
   21.4615  -17.4444  -19.4610 C   0  0  0  0  0  0  0  0  0  0  0  0
   20.7012  -18.5583  -19.7968 C   0  0  0  0  0  0  0  0  0  0  0  0
   21.7911   -8.0775  -20.1529 O   0  0  0  0  0  0  0  0  0  0  0  0
   21.4939   -9.4047  -20.4732 C   0  0  0  0  0  0  0  0  0  0  0  0
   22.0765  -10.3516  -19.4176 C   0  0  2  0  0  0  0  0  0  0  0  0
   21.6527  -11.6840  -19.8030 N   0  0  0  0  0  0  0  0  0  0  0  0
   21.5972   -9.9872  -18.0677 C   0  0  0  0  0  0  0  0  0  0  0  0
   20.4321  -10.3001  -17.7151 O   0  0  0  0  0  0  0  0  0  0  0  0
   21.1951  -10.2911  -12.6901 C   0  0  0  0  0  0  0  0  0  0  0  0
   21.9431   -9.2154  -13.3993 C   0  0  0  0  0  0  0  0  0  0  0  0
   22.5350   -9.6708  -14.7139 C   0  0  2  0  0  0  0  0  0  0  0  0
   24.0184   -9.5460  -14.7599 C   0  0  0  0  0  0  0  0  0  0  0  0
   21.8777   -8.8802  -15.8447 C   0  0  2  0  0  0  0  0  0  0  0  0
   22.4056   -9.2865  -17.1311 N   0  0  0  0  0  0  0  0  0  0  0  0
   22.0394   -7.4194  -15.6308 C   0  0  0  0  0  0  0  0  0  0  0  0
   21.5251   -6.8450  -14.6339 O   0  0  0  0  0  0  0  0  0  0  0  0
   22.7593   -6.6297  -16.5144 O   0  0  0  0  0  0  0  0  0  0  0  0
  1  2  1  0
  2  3  2  0
  3  4  1  0
  5  4  2  0
  5  6  1  0
  7  6  1  0
  7  9  1  0
  7  8  1  1
  9 10  2  0
 11  5  1  0
 12  2  1  0
 12 11  2  0
 15 14  1  6
 14 13  1  0
 16  9  1  0
 16 15  1  0
 17 15  1  0
 17 18  2  0
 19 20  1  0
 20 21  1  0
 21 22  1  1
 21 23  1  0
 23 24  1  6
 23 25  1  0
 24 17  1  0
 25 26  2  0
 25 27  1  0
M  END
$$$$
