YSI.pdb
     RDKit          3D

 27 27  0  0  1  0  0  0  0  0999 V2000
   26.8425  -31.6955  -17.7975 O   0  0  0  0  0  0  0  0  0  0  0  0
   27.0844  -30.3748  -17.4218 C   0  0  0  0  0  0  0  0  0  0  0  0
   26.0602  -29.4624  -17.2776 C   0  0  0  0  0  0  0  0  0  0  0  0
   26.3146  -28.1589  -16.9053 C   0  0  0  0  0  0  0  0  0  0  0  0
   27.6009  -27.7052  -16.6597 C   0  0  0  0  0  0  0  0  0  0  0  0
   27.7841  -26.3032  -16.2727 C   0  0  0  0  0  0  0  0  0  0  0  0
   27.4752  -25.3158  -17.3919 C   0  0  2  0  0  0  0  0  0  0  0  0
   28.5618  -25.4555  -18.3441 N   0  0  0  0  0  0  0  0  0  0  0  0
   27.3778  -23.9242  -16.8845 C   0  0  0  0  0  0  0  0  0  0  0  0
   28.1288  -23.0450  -17.3761 O   0  0  0  0  0  0  0  0  0  0  0  0
   28.6227  -28.6214  -16.8053 C   0  0  0  0  0  0  0  0  0  0  0  0
   28.3691  -29.9354  -17.1803 C   0  0  0  0  0  0  0  0  0  0  0  0
   24.4955  -21.6452  -16.7708 O   0  0  0  0  0  0  0  0  0  0  0  0
   25.8342  -21.3264  -16.5287 C   0  0  0  0  0  0  0  0  0  0  0  0
   26.3807  -22.1649  -15.3674 C   0  0  2  0  0  0  0  0  0  0  0  0
   26.4835  -23.5209  -15.8715 N   0  0  0  0  0  0  0  0  0  0  0  0
   25.4867  -22.0771  -14.1938 C   0  0  0  0  0  0  0  0  0  0  0  0
   24.5156  -22.8682  -14.0901 O   0  0  0  0  0  0  0  0  0  0  0  0
   25.3945  -20.2455   -8.2913 C   0  0  0  0  0  0  0  0  0  0  0  0
   24.7398  -20.7414   -9.5342 C   0  0  0  0  0  0  0  0  0  0  0  0
   25.6368  -20.6661  -10.7490 C   0  0  2  0  0  0  0  0  0  0  0  0
   26.2107  -19.3091  -10.9668 C   0  0  0  0  0  0  0  0  0  0  0  0
   24.8455  -21.1350  -11.9695 C   0  0  2  0  0  0  0  0  0  0  0  0
   25.6756  -21.1228  -13.1567 N   0  0  0  0  0  0  0  0  0  0  0  0
   23.6241  -20.3107  -12.1552 C   0  0  0  0  0  0  0  0  0  0  0  0
   22.6449  -20.4084  -11.3679 O   0  0  0  0  0  0  0  0  0  0  0  0
   23.5100  -19.4034  -13.1975 O   0  0  0  0  0  0  0  0  0  0  0  0
  1  2  1  0
  2  3  2  0
  3  4  1  0
  5  4  2  0
  5  6  1  0
  7  6  1  0
  7  9  1  0
  7  8  1  6
  9 10  2  0
 11  5  1  0
 12  2  1  0
 12 11  2  0
 15 14  1  6
 14 13  1  0
 16  9  1  0
 16 15  1  0
 17 15  1  0
 17 18  2  0
 19 20  1  0
 20 21  1  0
 21 22  1  6
 21 23  1  0
 23 24  1  6
 23 25  1  0
 24 17  1  0
 25 26  2  0
 25 27  1  0
M  END
$$$$
