YSI.pdb
     RDKit          3D

 27 27  0  0  1  0  0  0  0  0999 V2000
   19.0839  -14.8752  -18.9900 O   0  0  0  0  0  0  0  0  0  0  0  0
   19.8082  -15.7581  -18.1901 C   0  0  0  0  0  0  0  0  0  0  0  0
   21.1729  -15.6387  -18.0296 C   0  0  0  0  0  0  0  0  0  0  0  0
   21.8764  -16.5196  -17.2350 C   0  0  0  0  0  0  0  0  0  0  0  0
   21.2523  -17.5595  -16.5641 C   0  0  0  0  0  0  0  0  0  0  0  0
   22.0748  -18.4534  -15.7436 C   0  0  0  0  0  0  0  0  0  0  0  0
   22.8776  -19.4620  -16.5568 C   0  0  2  0  0  0  0  0  0  0  0  0
   21.9008  -20.3867  -17.1023 N   0  0  0  0  0  0  0  0  0  0  0  0
   23.8803  -20.1677  -15.7200 C   0  0  0  0  0  0  0  0  0  0  0  0
   23.4791  -20.9457  -14.8188 O   0  0  0  0  0  0  0  0  0  0  0  0
   19.8869  -17.6753  -16.7277 C   0  0  0  0  0  0  0  0  0  0  0  0
   19.1755  -16.7891  -17.5278 C   0  0  0  0  0  0  0  0  0  0  0  0
   27.9831  -19.0449  -15.4689 O   0  0  0  0  0  0  0  0  0  0  0  0
   27.6201  -20.3769  -15.6846 C   0  0  0  0  0  0  0  0  0  0  0  0
   26.2618  -20.6712  -15.0376 C   0  0  2  0  0  0  0  0  0  0  0  0
   25.2739  -20.0180  -15.8747 N   0  0  0  0  0  0  0  0  0  0  0  0
   26.2264  -20.1714  -13.6471 C   0  0  0  0  0  0  0  0  0  0  0  0
   26.0663  -18.9438  -13.4305 O   0  0  0  0  0  0  0  0  0  0  0  0
   22.7288  -20.6624  -10.3945 C   0  0  0  0  0  0  0  0  0  0  0  0
   24.0063  -20.3141  -11.0772 C   0  0  0  0  0  0  0  0  0  0  0  0
   25.2271  -20.8439  -10.3596 C   0  0  2  0  0  0  0  0  0  0  0  0
   25.3445  -20.3440   -8.9615 C   0  0  0  0  0  0  0  0  0  0  0  0
   26.4670  -20.4901  -11.1800 C   0  0  2  0  0  0  0  0  0  0  0  0
   26.3674  -21.0283  -12.5212 N   0  0  0  0  0  0  0  0  0  0  0  0
   27.7014  -20.9585  -10.4997 C   0  0  0  0  0  0  0  0  0  0  0  0
   28.0021  -20.5563   -9.3438 O   0  0  0  0  0  0  0  0  0  0  0  0
   28.5708  -21.8535  -11.1045 O   0  0  0  0  0  0  0  0  0  0  0  0
  1  2  1  0
  2  3  2  0
  3  4  1  0
  5  4  2  0
  5  6  1  0
  7  6  1  0
  7  9  1  0
  7  8  1  1
  9 10  2  0
 11  5  1  0
 12  2  1  0
 12 11  2  0
 15 14  1  6
 14 13  1  0
 16  9  1  0
 16 15  1  0
 17 15  1  0
 17 18  2  0
 19 20  1  0
 20 21  1  0
 21 22  1  1
 21 23  1  0
 23 24  1  6
 23 25  1  0
 24 17  1  0
 25 26  2  0
 25 27  1  0
M  END
$$$$
