YSI.pdb
     RDKit          3D

 27 27  0  0  1  0  0  0  0  0999 V2000
   18.9705  -17.6748  -16.4061 O   0  0  0  0  0  0  0  0  0  0  0  0
   18.9605  -16.2853  -16.5211 C   0  0  0  0  0  0  0  0  0  0  0  0
   18.8192  -15.4673  -15.4196 C   0  0  0  0  0  0  0  0  0  0  0  0
   18.8111  -14.0942  -15.5485 C   0  0  0  0  0  0  0  0  0  0  0  0
   18.9435  -13.4734  -16.7805 C   0  0  0  0  0  0  0  0  0  0  0  0
   18.9200  -12.0085  -16.8297 C   0  0  0  0  0  0  0  0  0  0  0  0
   17.5399  -11.4115  -16.5807 C   0  0  2  0  0  0  0  0  0  0  0  0
   16.7151  -11.8659  -17.6852 N   0  0  0  0  0  0  0  0  0  0  0  0
   17.5868   -9.9292  -16.5163 C   0  0  0  0  0  0  0  0  0  0  0  0
   17.7157   -9.2792  -17.5837 O   0  0  0  0  0  0  0  0  0  0  0  0
   19.0844  -14.2956  -17.8799 C   0  0  0  0  0  0  0  0  0  0  0  0
   19.0929  -15.6796  -17.7529 C   0  0  0  0  0  0  0  0  0  0  0  0
   16.5047   -7.8684  -13.0956 O   0  0  0  0  0  0  0  0  0  0  0  0
   16.4260   -7.2908  -14.3655 C   0  0  0  0  0  0  0  0  0  0  0  0
   17.6025   -7.7504  -15.2344 C   0  0  2  0  0  0  0  0  0  0  0  0
   17.4947   -9.1944  -15.3162 N   0  0  0  0  0  0  0  0  0  0  0  0
   18.8875   -7.3241  -14.6415 C   0  0  0  0  0  0  0  0  0  0  0  0
   19.4606   -8.0619  -13.8008 O   0  0  0  0  0  0  0  0  0  0  0  0
   24.3312   -6.5875  -16.0370 C   0  0  0  0  0  0  0  0  0  0  0  0
   23.2751   -6.0202  -15.1525 C   0  0  0  0  0  0  0  0  0  0  0  0
   21.8735   -6.3520  -15.6125 C   0  0  2  0  0  0  0  0  0  0  0  0
   21.5672   -5.8292  -16.9730 C   0  0  0  0  0  0  0  0  0  0  0  0
   20.8820   -5.8194  -14.5786 C   0  0  2  0  0  0  0  0  0  0  0  0
   19.5187   -6.0965  -14.9827 N   0  0  0  0  0  0  0  0  0  0  0  0
   21.0922   -4.3679  -14.3445 C   0  0  0  0  0  0  0  0  0  0  0  0
   22.1529   -3.9390  -13.8162 O   0  0  0  0  0  0  0  0  0  0  0  0
   20.1351   -3.4280  -14.6955 O   0  0  0  0  0  0  0  0  0  0  0  0
  1  2  1  0
  2  3  2  0
  3  4  1  0
  5  4  2  0
  5  6  1  0
  7  6  1  0
  7  9  1  0
  7  8  1  6
  9 10  2  0
 11  5  1  0
 12  2  1  0
 12 11  2  0
 15 14  1  1
 14 13  1  0
 16  9  1  0
 16 15  1  0
 17 15  1  0
 17 18  2  0
 19 20  1  0
 20 21  1  0
 21 22  1  6
 21 23  1  0
 23 24  1  6
 23 25  1  0
 24 17  1  0
 25 26  2  0
 25 27  1  0
M  END
$$$$
