YSI.pdb
     RDKit          3D

 27 27  0  0  1  0  0  0  0  0999 V2000
   29.7526  -28.7171  -18.9647 O   0  0  0  0  0  0  0  0  0  0  0  0
   29.1260  -27.6357  -18.3469 C   0  0  0  0  0  0  0  0  0  0  0  0
   28.8075  -26.4878  -19.0421 C   0  0  0  0  0  0  0  0  0  0  0  0
   28.1875  -25.4258  -18.4177 C   0  0  0  0  0  0  0  0  0  0  0  0
   27.8565  -25.4591  -17.0722 C   0  0  0  0  0  0  0  0  0  0  0  0
   27.2029  -24.2854  -16.4854 C   0  0  0  0  0  0  0  0  0  0  0  0
   27.9120  -22.9727  -16.7967 C   0  0  2  0  0  0  0  0  0  0  0  0
   29.1945  -23.0544  -16.1219 N   0  0  0  0  0  0  0  0  0  0  0  0
   27.1292  -21.8017  -16.3279 C   0  0  0  0  0  0  0  0  0  0  0  0
   27.2480  -21.4312  -15.1333 O   0  0  0  0  0  0  0  0  0  0  0  0
   28.1770  -26.6094  -16.3805 C   0  0  0  0  0  0  0  0  0  0  0  0
   28.8018  -27.6811  -17.0072 C   0  0  0  0  0  0  0  0  0  0  0  0
   25.1688  -19.4638  -19.0479 O   0  0  0  0  0  0  0  0  0  0  0  0
   25.5778  -18.8911  -17.8408 C   0  0  0  0  0  0  0  0  0  0  0  0
   25.4868  -19.9175  -16.7056 C   0  0  2  0  0  0  0  0  0  0  0  0
   26.2485  -21.0688  -17.1500 N   0  0  0  0  0  0  0  0  0  0  0  0
   24.0772  -20.2615  -16.4243 C   0  0  0  0  0  0  0  0  0  0  0  0
   23.5598  -21.2663  -16.9741 O   0  0  0  0  0  0  0  0  0  0  0  0
   21.7122  -21.5242  -12.1640 C   0  0  0  0  0  0  0  0  0  0  0  0
   22.4338  -20.5384  -13.0166 C   0  0  0  0  0  0  0  0  0  0  0  0
   21.5064  -19.6785  -13.8453 C   0  0  2  0  0  0  0  0  0  0  0  0
   20.0668  -19.9804  -13.6117 C   0  0  0  0  0  0  0  0  0  0  0  0
   21.8747  -19.8442  -15.3193 C   0  0  2  0  0  0  0  0  0  0  0  0
   23.2626  -19.4963  -15.5452 N   0  0  0  0  0  0  0  0  0  0  0  0
   20.9692  -19.0441  -16.1828 C   0  0  0  0  0  0  0  0  0  0  0  0
   21.1801  -17.8192  -16.3914 O   0  0  0  0  0  0  0  0  0  0  0  0
   19.8591  -19.6080  -16.7930 O   0  0  0  0  0  0  0  0  0  0  0  0
  1  2  1  0
  2  3  2  0
  3  4  1  0
  5  4  2  0
  5  6  1  0
  7  6  1  0
  7  9  1  0
  7  8  1  1
  9 10  2  0
 11  5  1  0
 12  2  1  0
 12 11  2  0
 15 14  1  6
 14 13  1  0
 16  9  1  0
 16 15  1  0
 17 15  1  0
 17 18  2  0
 19 20  1  0
 20 21  1  0
 21 22  1  6
 21 23  1  0
 23 24  1  1
 23 25  1  0
 24 17  1  0
 25 26  2  0
 25 27  1  0
M  END
$$$$
