YSI.pdb
     RDKit          3D

 27 27  0  0  1  0  0  0  0  0999 V2000
   21.6099  -25.6250  -12.8527 O   0  0  0  0  0  0  0  0  0  0  0  0
   20.8606  -25.6301  -11.6770 C   0  0  0  0  0  0  0  0  0  0  0  0
   20.8731  -26.7055  -10.8134 C   0  0  0  0  0  0  0  0  0  0  0  0
   20.1267  -26.6964   -9.6536 C   0  0  0  0  0  0  0  0  0  0  0  0
   19.3339  -25.6156   -9.3014 C   0  0  0  0  0  0  0  0  0  0  0  0
   18.5685  -25.6892   -8.0534 C   0  0  0  0  0  0  0  0  0  0  0  0
   17.3863  -26.6490   -8.1182 C   0  0  2  0  0  0  0  0  0  0  0  0
   16.4675  -26.0691   -9.0807 N   0  0  0  0  0  0  0  0  0  0  0  0
   16.7427  -26.8170   -6.7911 C   0  0  0  0  0  0  0  0  0  0  0  0
   16.0863  -25.8601   -6.3094 O   0  0  0  0  0  0  0  0  0  0  0  0
   19.3243  -24.5418  -10.1684 C   0  0  0  0  0  0  0  0  0  0  0  0
   20.0755  -24.5483  -11.3376 C   0  0  0  0  0  0  0  0  0  0  0  0
   17.7622  -29.9362   -4.3953 O   0  0  0  0  0  0  0  0  0  0  0  0
   16.3919  -29.6633   -4.3787 C   0  0  0  0  0  0  0  0  0  0  0  0
   16.1342  -28.2025   -4.7660 C   0  0  2  0  0  0  0  0  0  0  0  0
   16.8224  -27.9991   -6.0264 N   0  0  0  0  0  0  0  0  0  0  0  0
   16.6256  -27.2886   -3.7134 C   0  0  0  0  0  0  0  0  0  0  0  0
   17.7919  -26.8259   -3.7853 O   0  0  0  0  0  0  0  0  0  0  0  0
   14.3951  -22.9513   -2.2708 C   0  0  0  0  0  0  0  0  0  0  0  0
   15.4060  -24.0371   -2.4075 C   0  0  0  0  0  0  0  0  0  0  0  0
   15.4906  -24.9272   -1.1881 C   0  0  2  0  0  0  0  0  0  0  0  0
   15.9713  -24.2097    0.0253 C   0  0  0  0  0  0  0  0  0  0  0  0
   16.3865  -26.1209   -1.5168 C   0  0  2  0  0  0  0  0  0  0  0  0
   15.8276  -26.9003   -2.6025 N   0  0  0  0  0  0  0  0  0  0  0  0
   16.6136  -26.9581   -0.3113 C   0  0  0  0  0  0  0  0  0  0  0  0
   17.2859  -26.5285    0.6643 O   0  0  0  0  0  0  0  0  0  0  0  0
   16.0983  -28.2413   -0.2087 O   0  0  0  0  0  0  0  0  0  0  0  0
  1  2  1  0
  2  3  2  0
  3  4  1  0
  5  4  2  0
  5  6  1  0
  7  6  1  0
  7  9  1  0
  7  8  1  6
  9 10  2  0
 11  5  1  0
 12  2  1  0
 12 11  2  0
 15 14  1  1
 14 13  1  0
 16  9  1  0
 16 15  1  0
 17 15  1  0
 17 18  2  0
 19 20  1  0
 20 21  1  0
 21 22  1  1
 21 23  1  0
 23 24  1  6
 23 25  1  0
 24 17  1  0
 25 26  2  0
 25 27  1  0
M  END
$$$$
