YSI.pdb
     RDKit          3D

 27 27  0  0  1  0  0  0  0  0999 V2000
   17.9188  -19.6707  -13.4523 O   0  0  0  0  0  0  0  0  0  0  0  0
   19.1565  -20.2039  -13.0950 C   0  0  0  0  0  0  0  0  0  0  0  0
   19.6706  -21.3231  -13.7158 C   0  0  0  0  0  0  0  0  0  0  0  0
   20.8967  -21.8395  -13.3519 C   0  0  0  0  0  0  0  0  0  0  0  0
   21.6662  -21.2645  -12.3529 C   0  0  0  0  0  0  0  0  0  0  0  0
   22.9558  -21.8793  -12.0246 C   0  0  0  0  0  0  0  0  0  0  0  0
   24.1567  -21.0594  -12.4814 C   0  0  2  0  0  0  0  0  0  0  0  0
   24.3045  -21.3425  -13.8973 N   0  0  0  0  0  0  0  0  0  0  0  0
   25.3845  -21.4182  -11.7282 C   0  0  0  0  0  0  0  0  0  0  0  0
   25.8208  -22.5940  -11.8034 O   0  0  0  0  0  0  0  0  0  0  0  0
   21.1479  -20.1450  -11.7343 C   0  0  0  0  0  0  0  0  0  0  0  0
   19.9128  -19.6225  -12.0991 C   0  0  0  0  0  0  0  0  0  0  0  0
   28.2006  -18.8034  -10.8442 O   0  0  0  0  0  0  0  0  0  0  0  0
   28.4492  -20.1716  -10.7072 C   0  0  0  0  0  0  0  0  0  0  0  0
   27.2339  -20.8756  -10.0924 C   0  0  2  0  0  0  0  0  0  0  0  0
   26.1022  -20.5103  -10.9225 N   0  0  0  0  0  0  0  0  0  0  0  0
   27.0459  -20.4605   -8.6864 C   0  0  0  0  0  0  0  0  0  0  0  0
   25.9843  -19.8808   -8.3449 O   0  0  0  0  0  0  0  0  0  0  0  0
   30.5215  -22.3380   -4.7702 C   0  0  0  0  0  0  0  0  0  0  0  0
   29.2376  -21.8829   -5.3735 C   0  0  0  0  0  0  0  0  0  0  0  0
   29.1528  -20.3812   -5.5276 C   0  0  2  0  0  0  0  0  0  0  0  0
   29.1066  -19.6629   -4.2238 C   0  0  0  0  0  0  0  0  0  0  0  0
   27.9342  -20.0471   -6.3872 C   0  0  2  0  0  0  0  0  0  0  0  0
   28.0264  -20.6895   -7.6824 N   0  0  0  0  0  0  0  0  0  0  0  0
   27.7711  -18.5771   -6.5232 C   0  0  0  0  0  0  0  0  0  0  0  0
   27.0027  -17.9325   -5.7601 O   0  0  0  0  0  0  0  0  0  0  0  0
   28.4539  -17.8555   -7.4904 O   0  0  0  0  0  0  0  0  0  0  0  0
  1  2  1  0
  2  3  2  0
  3  4  1  0
  5  4  2  0
  5  6  1  0
  7  6  1  0
  7  9  1  0
  7  8  1  6
  9 10  2  0
 11  5  1  0
 12  2  1  0
 12 11  2  0
 15 14  1  6
 14 13  1  0
 16  9  1  0
 16 15  1  0
 17 15  1  0
 17 18  2  0
 19 20  1  0
 20 21  1  0
 21 22  1  1
 21 23  1  0
 23 24  1  6
 23 25  1  0
 24 17  1  0
 25 26  2  0
 25 27  1  0
M  END
$$$$
