YSI.pdb
     RDKit          3D

 27 27  0  0  1  0  0  0  0  0999 V2000
   20.9596  -17.8647  -16.7330 O   0  0  0  0  0  0  0  0  0  0  0  0
   21.1046  -16.5799  -16.2112 C   0  0  0  0  0  0  0  0  0  0  0  0
   21.7093  -16.3562  -14.9919 C   0  0  0  0  0  0  0  0  0  0  0  0
   21.8459  -15.0795  -14.4882 C   0  0  0  0  0  0  0  0  0  0  0  0
   21.3863  -13.9677  -15.1763 C   0  0  0  0  0  0  0  0  0  0  0  0
   21.5673  -12.6465  -14.5675 C   0  0  0  0  0  0  0  0  0  0  0  0
   22.3682  -11.6805  -15.4326 C   0  0  2  0  0  0  0  0  0  0  0  0
   23.7503  -12.1079  -15.3148 N   0  0  0  0  0  0  0  0  0  0  0  0
   22.1982  -10.2748  -14.9870 C   0  0  0  0  0  0  0  0  0  0  0  0
   22.8553   -9.8685  -13.9962 O   0  0  0  0  0  0  0  0  0  0  0  0
   20.7818  -14.1962  -16.3957 C   0  0  0  0  0  0  0  0  0  0  0  0
   20.6429  -15.4816  -16.9057 C   0  0  0  0  0  0  0  0  0  0  0  0
   22.4778   -7.4478  -17.1769 O   0  0  0  0  0  0  0  0  0  0  0  0
   22.3993   -7.2324  -15.7985 C   0  0  0  0  0  0  0  0  0  0  0  0
   21.1889   -7.9679  -15.2117 C   0  0  2  0  0  0  0  0  0  0  0  0
   21.3338   -9.3538  -15.6140 N   0  0  0  0  0  0  0  0  0  0  0  0
   19.9280   -7.3768  -15.7070 C   0  0  0  0  0  0  0  0  0  0  0  0
   19.4585   -7.7475  -16.8122 O   0  0  0  0  0  0  0  0  0  0  0  0
   15.3429   -7.7992  -15.3699 C   0  0  0  0  0  0  0  0  0  0  0  0
   16.4976   -7.4006  -14.5170 C   0  0  0  0  0  0  0  0  0  0  0  0
   16.8279   -5.9283  -14.6143 C   0  0  2  0  0  0  0  0  0  0  0  0
   15.6756   -5.1010  -15.0682 C   0  0  0  0  0  0  0  0  0  0  0  0
   18.0307   -5.7585  -15.5417 C   0  0  2  0  0  0  0  0  0  0  0  0
   19.2069   -6.3904  -14.9798 N   0  0  0  0  0  0  0  0  0  0  0  0
   18.2748   -4.3226  -15.8320 C   0  0  0  0  0  0  0  0  0  0  0  0
   17.6256   -3.7183  -16.7274 O   0  0  0  0  0  0  0  0  0  0  0  0
   19.2224   -3.5897  -15.1338 O   0  0  0  0  0  0  0  0  0  0  0  0
  1  2  1  0
  2  3  2  0
  3  4  1  0
  5  4  2  0
  5  6  1  0
  7  6  1  0
  7  9  1  0
  7  8  1  1
  9 10  2  0
 11  5  1  0
 12  2  1  0
 12 11  2  0
 15 14  1  6
 14 13  1  0
 16  9  1  0
 16 15  1  0
 17 15  1  0
 17 18  2  0
 19 20  1  0
 20 21  1  0
 21 22  1  6
 21 23  1  0
 23 24  1  1
 23 25  1  0
 24 17  1  0
 25 26  2  0
 25 27  1  0
M  END
$$$$
