TKN.pdb
     RDKit          3D

 25 24  0  0  1  0  0  0  0  0999 V2000
    8.8580  -15.7287   16.8568 C   0  0  0  0  0  0  0  0  0  0  0  0
    8.9218  -14.2571   17.1829 C   0  0  1  0  0  0  0  0  0  0  0  0
    8.7623  -13.4411   16.0884 O   0  0  0  0  0  0  0  0  0  0  0  0
    7.8563  -13.9661   18.2185 C   0  0  2  0  0  0  0  0  0  0  0  0
    7.8174  -12.5396   18.5108 N   0  0  0  0  0  0  0  0  0  0  0  0
    8.0723  -14.6714   19.4993 C   0  0  0  0  0  0  0  0  0  0  0  0
    8.9201  -14.2543   20.3287 O   0  0  0  0  0  0  0  0  0  0  0  0
    7.3374  -15.8566   19.8691 N   0  0  0  0  0  0  0  0  0  0  0  0
    7.5860  -16.5502   21.0969 C   0  0  1  0  0  0  0  0  0  0  0  0
    6.6308  -17.7445   21.1444 C   0  0  0  0  0  0  0  0  0  0  0  0
    6.7688  -18.5178   22.4187 C   0  0  0  0  0  0  0  0  0  0  0  0
    5.8097  -19.6666   22.5074 C   0  0  0  0  0  0  0  0  0  0  0  0
    5.7503  -20.2615   23.8805 C   0  0  0  0  0  0  0  0  0  0  0  0
    4.8140  -21.3762   23.9515 N   0  0  0  0  0  0  0  0  0  0  0  0
    9.0065  -17.0627   21.2004 C   0  0  0  0  0  0  0  0  0  0  0  0
    9.6248  -17.3760   20.1593 O   0  0  0  0  0  0  0  0  0  0  0  0
   13.2011  -14.2947   21.1213 N   0  0  0  0  0  0  0  0  0  0  0  0
   12.2184  -15.2823   21.1957 C   0  0  0  0  0  0  0  0  0  0  0  0
   12.2963  -16.2242   20.3306 O   0  0  0  0  0  0  0  0  0  0  0  0
   11.1394  -15.3116   22.1661 C   0  0  0  0  0  0  0  0  0  0  0  0
   10.9425  -16.6795   22.7454 C   0  0  2  0  0  0  0  0  0  0  0  0
    9.6017  -17.1756   22.4798 N   0  0  0  0  0  0  0  0  0  0  0  0
   11.1857  -16.7855   24.1951 C   0  0  0  0  0  0  0  0  0  0  0  0
   10.9904  -15.6321   24.9813 O   0  0  0  0  0  0  0  0  0  0  0  0
   11.5523  -17.8109   24.8097 O   0  0  0  0  0  0  0  0  0  0  0  0
  2  1  1  6
  3  2  1  0
  4  2  1  0
  4  5  1  1
  6  4  1  0
  6  8  1  0
  7  6  2  0
  9  8  1  0
 10 11  1  0
  9 10  1  6
 12 13  1  0
 12 11  1  0
 13 14  1  0
 15  9  1  0
 16 15  2  0
 18 17  1  0
 19 18  2  0
 20 18  1  0
 21 20  1  1
 21 23  1  0
 21 22  1  0
 22 15  1  0
 23 24  1  0
 25 23  2  0
M  END
$$$$
