TKN.pdb
     RDKit          3D

 25 24  0  0  1  0  0  0  0  0999 V2000
    8.8385  -16.4974   16.4832 C   0  0  0  0  0  0  0  0  0  0  0  0
    8.6151  -15.0486   16.1269 C   0  0  1  0  0  0  0  0  0  0  0  0
    8.1319  -14.8608   14.8539 O   0  0  0  0  0  0  0  0  0  0  0  0
    7.6605  -14.4633   17.1460 C   0  0  2  0  0  0  0  0  0  0  0  0
    7.2881  -13.1080   16.7638 N   0  0  0  0  0  0  0  0  0  0  0  0
    8.2250  -14.3958   18.5103 C   0  0  0  0  0  0  0  0  0  0  0  0
    9.1943  -13.6381   18.7689 O   0  0  0  0  0  0  0  0  0  0  0  0
    7.7078  -15.1783   19.6065 N   0  0  0  0  0  0  0  0  0  0  0  0
    8.3316  -15.1822   20.8954 C   0  0  1  0  0  0  0  0  0  0  0  0
    7.3907  -15.9171   21.8523 C   0  0  0  0  0  0  0  0  0  0  0  0
    6.9445  -17.2324   21.2940 C   0  0  0  0  0  0  0  0  0  0  0  0
    5.9196  -17.9101   22.1531 C   0  0  0  0  0  0  0  0  0  0  0  0
    5.2988  -19.0957   21.4809 C   0  0  0  0  0  0  0  0  0  0  0  0
    4.2415  -19.6890   22.2897 N   0  0  0  0  0  0  0  0  0  0  0  0
    9.6694  -15.8904   20.8941 C   0  0  0  0  0  0  0  0  0  0  0  0
    9.8142  -16.9307   20.2150 O   0  0  0  0  0  0  0  0  0  0  0  0
   12.5604  -13.6197   19.2739 N   0  0  0  0  0  0  0  0  0  0  0  0
   12.9315  -14.8576   19.7997 C   0  0  0  0  0  0  0  0  0  0  0  0
   13.1209  -15.7988   18.9512 O   0  0  0  0  0  0  0  0  0  0  0  0
   13.1125  -15.1419   21.2114 C   0  0  0  0  0  0  0  0  0  0  0  0
   12.0209  -16.0144   21.7527 C   0  0  2  0  0  0  0  0  0  0  0  0
   10.7281  -15.3546   21.6663 N   0  0  0  0  0  0  0  0  0  0  0  0
   12.2094  -16.4607   23.1446 C   0  0  0  0  0  0  0  0  0  0  0  0
   13.3715  -17.1984   23.4476 O   0  0  0  0  0  0  0  0  0  0  0  0
   11.4321  -16.2475   24.1005 O   0  0  0  0  0  0  0  0  0  0  0  0
  2  1  1  1
  3  2  1  0
  4  2  1  0
  4  5  1  6
  6  4  1  0
  6  8  1  0
  7  6  2  0
  9  8  1  0
 10 11  1  0
  9 10  1  1
 12 13  1  0
 12 11  1  0
 13 14  1  0
 15  9  1  0
 16 15  2  0
 18 17  1  0
 19 18  2  0
 20 18  1  0
 21 20  1  1
 21 23  1  0
 21 22  1  0
 22 15  1  0
 23 24  1  0
 25 23  2  0
M  END
$$$$
