TKN.pdb
     RDKit          3D

 25 24  0  0  1  0  0  0  0  0999 V2000
    8.6621  -16.1685   17.5546 C   0  0  0  0  0  0  0  0  0  0  0  0
    8.6983  -14.6606   17.5827 C   0  0  1  0  0  0  0  0  0  0  0  0
    8.6219  -14.0828   16.3379 O   0  0  0  0  0  0  0  0  0  0  0  0
    7.5561  -14.1864   18.4562 C   0  0  2  0  0  0  0  0  0  0  0  0
    7.4424  -12.7358   18.3892 N   0  0  0  0  0  0  0  0  0  0  0  0
    7.7143  -14.5496   19.8801 C   0  0  0  0  0  0  0  0  0  0  0  0
    8.4998  -13.9094   20.6242 O   0  0  0  0  0  0  0  0  0  0  0  0
    6.9905  -15.6379   20.4911 N   0  0  0  0  0  0  0  0  0  0  0  0
    7.2344  -16.0466   21.8416 C   0  0  1  0  0  0  0  0  0  0  0  0
    6.0083  -16.8359   22.3049 C   0  0  0  0  0  0  0  0  0  0  0  0
    5.2022  -17.3419   21.1493 C   0  0  0  0  0  0  0  0  0  0  0  0
    4.0166  -18.1524   21.5792 C   0  0  0  0  0  0  0  0  0  0  0  0
    3.2461  -18.7042   20.4196 C   0  0  0  0  0  0  0  0  0  0  0  0
    2.0863  -19.4735   20.8523 N   0  0  0  0  0  0  0  0  0  0  0  0
    8.4561  -16.9307   21.9721 C   0  0  0  0  0  0  0  0  0  0  0  0
    8.9156  -17.4990   20.9570 O   0  0  0  0  0  0  0  0  0  0  0  0
   12.8621  -17.2815   21.9223 N   0  0  0  0  0  0  0  0  0  0  0  0
   12.2627  -16.0305   22.0711 C   0  0  0  0  0  0  0  0  0  0  0  0
   12.8415  -15.0519   21.4803 O   0  0  0  0  0  0  0  0  0  0  0  0
   11.0550  -15.7714   22.8333 C   0  0  0  0  0  0  0  0  0  0  0  0
   10.4905  -17.0234   23.4331 C   0  0  2  0  0  0  0  0  0  0  0  0
    9.0502  -17.0933   23.2467 N   0  0  0  0  0  0  0  0  0  0  0  0
   10.7711  -17.2110   24.8677 C   0  0  0  0  0  0  0  0  0  0  0  0
   11.5344  -18.3333   25.2478 O   0  0  0  0  0  0  0  0  0  0  0  0
   10.3966  -16.4639   25.7978 O   0  0  0  0  0  0  0  0  0  0  0  0
  2  1  1  6
  3  2  1  0
  4  2  1  0
  4  5  1  1
  6  4  1  0
  6  8  1  0
  7  6  2  0
  9  8  1  0
 10 11  1  0
  9 10  1  6
 12 13  1  0
 12 11  1  0
 13 14  1  0
 15  9  1  0
 16 15  2  0
 18 17  1  0
 19 18  2  0
 20 18  1  0
 21 20  1  1
 21 23  1  0
 21 22  1  0
 22 15  1  0
 23 24  1  0
 25 23  2  0
M  END
$$$$
