TKN.pdb
     RDKit          3D

 25 24  0  0  1  0  0  0  0  0999 V2000
   12.9746  -20.4955   18.2961 C   0  0  0  0  0  0  0  0  0  0  0  0
   12.4645  -19.2927   17.5419 C   0  0  1  0  0  0  0  0  0  0  0  0
   12.9434  -19.2025   16.2566 O   0  0  0  0  0  0  0  0  0  0  0  0
   10.9518  -19.3556   17.5388 C   0  0  2  0  0  0  0  0  0  0  0  0
   10.4051  -18.2427   16.7745 N   0  0  0  0  0  0  0  0  0  0  0  0
   10.3576  -19.2943   18.8907 C   0  0  0  0  0  0  0  0  0  0  0  0
   10.5115  -18.2789   19.6159 O   0  0  0  0  0  0  0  0  0  0  0  0
    9.5792  -20.3733   19.4488 N   0  0  0  0  0  0  0  0  0  0  0  0
    9.1413  -20.3656   20.8121 C   0  0  1  0  0  0  0  0  0  0  0  0
    7.9630  -21.3362   20.9153 C   0  0  0  0  0  0  0  0  0  0  0  0
    7.4412  -21.4319   22.3151 C   0  0  0  0  0  0  0  0  0  0  0  0
    6.3136  -22.4108   22.4487 C   0  0  0  0  0  0  0  0  0  0  0  0
    5.8076  -22.5169   23.8542 C   0  0  0  0  0  0  0  0  0  0  0  0
    4.7185  -23.4785   23.9702 N   0  0  0  0  0  0  0  0  0  0  0  0
   10.2211  -20.8119   21.7744 C   0  0  0  0  0  0  0  0  0  0  0  0
   10.8328  -21.8815   21.5595 O   0  0  0  0  0  0  0  0  0  0  0  0
   14.3815  -20.9752   22.7685 N   0  0  0  0  0  0  0  0  0  0  0  0
   13.5907  -19.8281   22.8419 C   0  0  0  0  0  0  0  0  0  0  0  0
   13.7035  -19.0001   21.8706 O   0  0  0  0  0  0  0  0  0  0  0  0
   12.6705  -19.5190   23.9210 C   0  0  0  0  0  0  0  0  0  0  0  0
   11.4713  -20.4175   23.9106 C   0  0  2  0  0  0  0  0  0  0  0  0
   10.5120  -20.0034   22.8994 N   0  0  0  0  0  0  0  0  0  0  0  0
   10.7576  -20.5226   25.1957 C   0  0  0  0  0  0  0  0  0  0  0  0
    9.4472  -20.0080   25.2648 O   0  0  0  0  0  0  0  0  0  0  0  0
   11.2018  -21.0308   26.2483 O   0  0  0  0  0  0  0  0  0  0  0  0
  2  1  1  6
  3  2  1  0
  4  2  1  0
  4  5  1  6
  6  4  1  0
  6  8  1  0
  7  6  2  0
  9  8  1  0
 10 11  1  0
  9 10  1  6
 12 13  1  0
 12 11  1  0
 13 14  1  0
 15  9  1  0
 16 15  2  0
 18 17  1  0
 19 18  2  0
 20 18  1  0
 21 20  1  1
 21 23  1  0
 21 22  1  0
 22 15  1  0
 23 24  1  0
 25 23  2  0
M  END
$$$$
