TKN.pdb
     RDKit          3D

 25 24  0  0  1  0  0  0  0  0999 V2000
    7.2603  -16.2585   19.3793 C   0  0  0  0  0  0  0  0  0  0  0  0
    7.9026  -15.1544   18.5764 C   0  0  1  0  0  0  0  0  0  0  0  0
    7.5199  -15.1369   17.2564 O   0  0  0  0  0  0  0  0  0  0  0  0
    7.5610  -13.8386   19.2430 C   0  0  2  0  0  0  0  0  0  0  0  0
    8.0739  -12.7280   18.4524 N   0  0  0  0  0  0  0  0  0  0  0  0
    8.1219  -13.7053   20.6039 C   0  0  0  0  0  0  0  0  0  0  0  0
    9.3611  -13.5877   20.7806 O   0  0  0  0  0  0  0  0  0  0  0  0
    7.2983  -13.7007   21.7885 N   0  0  0  0  0  0  0  0  0  0  0  0
    7.8633  -13.6869   23.1042 C   0  0  1  0  0  0  0  0  0  0  0  0
    6.7685  -13.2142   24.0628 C   0  0  0  0  0  0  0  0  0  0  0  0
    7.2763  -13.0773   25.4643 C   0  0  0  0  0  0  0  0  0  0  0  0
    6.2496  -12.5161   26.4016 C   0  0  0  0  0  0  0  0  0  0  0  0
    6.7577  -12.3940   27.8050 C   0  0  0  0  0  0  0  0  0  0  0  0
    5.7067  -11.9945   28.7324 N   0  0  0  0  0  0  0  0  0  0  0  0
    8.3387  -15.0533   23.5494 C   0  0  0  0  0  0  0  0  0  0  0  0
    7.5611  -16.0300   23.4740 O   0  0  0  0  0  0  0  0  0  0  0  0
   12.7795  -18.0445   22.2048 N   0  0  0  0  0  0  0  0  0  0  0  0
   11.8801  -17.8692   23.2568 C   0  0  0  0  0  0  0  0  0  0  0  0
   11.2340  -18.9114   23.6284 O   0  0  0  0  0  0  0  0  0  0  0  0
   11.6344  -16.6132   23.9415 C   0  0  0  0  0  0  0  0  0  0  0  0
   10.2112  -16.4896   24.3939 C   0  0  2  0  0  0  0  0  0  0  0  0
    9.6583  -15.1913   24.0433 N   0  0  0  0  0  0  0  0  0  0  0  0
    9.9930  -16.7002   25.8362 C   0  0  0  0  0  0  0  0  0  0  0  0
   10.0903  -15.5806   26.6869 O   0  0  0  0  0  0  0  0  0  0  0  0
    9.7247  -17.7877   26.3919 O   0  0  0  0  0  0  0  0  0  0  0  0
  2  1  1  1
  3  2  1  0
  4  2  1  0
  4  5  1  6
  6  4  1  0
  6  8  1  0
  7  6  2  0
  9  8  1  0
 10 11  1  0
  9 10  1  1
 12 13  1  0
 12 11  1  0
 13 14  1  0
 15  9  1  0
 16 15  2  0
 18 17  1  0
 19 18  2  0
 20 18  1  0
 21 20  1  1
 21 23  1  0
 21 22  1  0
 22 15  1  0
 23 24  1  0
 25 23  2  0
M  END
$$$$
