TKN.pdb
     RDKit          3D

 25 24  0  0  1  0  0  0  0  0999 V2000
    7.4053  -18.2603   21.3164 C   0  0  0  0  0  0  0  0  0  0  0  0
    8.5394  -17.8774   20.3982 C   0  0  1  0  0  0  0  0  0  0  0  0
    8.4995  -18.5087   19.1779 O   0  0  0  0  0  0  0  0  0  0  0  0
    8.5011  -16.3748   20.2170 C   0  0  2  0  0  0  0  0  0  0  0  0
    9.4259  -15.9726   19.1660 N   0  0  0  0  0  0  0  0  0  0  0  0
    8.8692  -15.6255   21.4367 C   0  0  0  0  0  0  0  0  0  0  0  0
   10.0753  -15.4494   21.7444 O   0  0  0  0  0  0  0  0  0  0  0  0
    7.8868  -15.0606   22.3297 N   0  0  0  0  0  0  0  0  0  0  0  0
    8.2593  -14.3763   23.5311 C   0  0  1  0  0  0  0  0  0  0  0  0
    7.0225  -13.6240   24.0265 C   0  0  0  0  0  0  0  0  0  0  0  0
    7.3130  -12.8248   25.2585 C   0  0  0  0  0  0  0  0  0  0  0  0
    6.1257  -12.0453   25.7382 C   0  0  0  0  0  0  0  0  0  0  0  0
    6.4500  -11.1626   26.9037 C   0  0  0  0  0  0  0  0  0  0  0  0
    5.3026  -10.3662   27.3202 N   0  0  0  0  0  0  0  0  0  0  0  0
    8.7200  -15.3200   24.6213 C   0  0  0  0  0  0  0  0  0  0  0  0
    9.0017  -14.8639   25.7513 O   0  0  0  0  0  0  0  0  0  0  0  0
    8.3884  -19.0628   27.6196 N   0  0  0  0  0  0  0  0  0  0  0  0
    8.2018  -19.6118   26.3506 C   0  0  0  0  0  0  0  0  0  0  0  0
    7.5922  -20.7379   26.3054 O   0  0  0  0  0  0  0  0  0  0  0  0
    8.6427  -19.0050   25.1080 C   0  0  0  0  0  0  0  0  0  0  0  0
    9.2671  -17.6610   25.3304 C   0  0  2  0  0  0  0  0  0  0  0  0
    8.8216  -16.7021   24.3321 N   0  0  0  0  0  0  0  0  0  0  0  0
   10.7407  -17.6504   25.3425 C   0  0  0  0  0  0  0  0  0  0  0  0
   11.3908  -17.9126   26.5653 O   0  0  0  0  0  0  0  0  0  0  0  0
   11.4862  -17.4304   24.3630 O   0  0  0  0  0  0  0  0  0  0  0  0
  2  1  1  1
  3  2  1  0
  4  2  1  0
  4  5  1  6
  6  4  1  0
  6  8  1  0
  7  6  2  0
  9  8  1  0
 10 11  1  0
  9 10  1  1
 12 13  1  0
 12 11  1  0
 13 14  1  0
 15  9  1  0
 16 15  2  0
 18 17  1  0
 19 18  2  0
 20 18  1  0
 21 20  1  6
 21 23  1  0
 21 22  1  0
 22 15  1  0
 23 24  1  0
 25 23  2  0
M  END
$$$$
