TKN.pdb
     RDKit          3D

 25 24  0  0  1  0  0  0  0  0999 V2000
    6.6917  -17.2298   25.3943 C   0  0  0  0  0  0  0  0  0  0  0  0
    6.5560  -18.5528   24.6820 C   0  0  1  0  0  0  0  0  0  0  0  0
    5.6717  -19.4161   25.2836 O   0  0  0  0  0  0  0  0  0  0  0  0
    6.1309  -18.2695   23.2568 C   0  0  2  0  0  0  0  0  0  0  0  0
    5.7197  -19.5037   22.6014 N   0  0  0  0  0  0  0  0  0  0  0  0
    7.2004  -17.6692   22.4319 C   0  0  0  0  0  0  0  0  0  0  0  0
    8.0325  -18.3943   21.8300 O   0  0  0  0  0  0  0  0  0  0  0  0
    7.3509  -16.2436   22.2694 N   0  0  0  0  0  0  0  0  0  0  0  0
    8.5536  -15.6624   21.7536 C   0  0  1  0  0  0  0  0  0  0  0  0
    8.1757  -14.3181   21.1283 C   0  0  0  0  0  0  0  0  0  0  0  0
    8.4577  -14.2886   19.6584 C   0  0  0  0  0  0  0  0  0  0  0  0
    7.6328  -13.2710   18.9294 C   0  0  0  0  0  0  0  0  0  0  0  0
    7.8636  -13.2965   17.4499 C   0  0  0  0  0  0  0  0  0  0  0  0
    6.9830  -12.3737   16.7448 N   0  0  0  0  0  0  0  0  0  0  0  0
    9.5924  -15.4209   22.8278 C   0  0  0  0  0  0  0  0  0  0  0  0
    9.8934  -14.2477   23.1399 O   0  0  0  0  0  0  0  0  0  0  0  0
    9.6118  -18.8456   26.0182 N   0  0  0  0  0  0  0  0  0  0  0  0
   10.3898  -17.6877   25.9917 C   0  0  0  0  0  0  0  0  0  0  0  0
    9.9905  -16.7208   26.7315 O   0  0  0  0  0  0  0  0  0  0  0  0
   11.5931  -17.5114   25.1996 C   0  0  0  0  0  0  0  0  0  0  0  0
   11.4465  -16.4104   24.1936 C   0  0  2  0  0  0  0  0  0  0  0  0
   10.2004  -16.5351   23.4546 N   0  0  0  0  0  0  0  0  0  0  0  0
   12.5444  -16.3065   23.2158 C   0  0  0  0  0  0  0  0  0  0  0  0
   13.8129  -15.9155   23.6897 O   0  0  0  0  0  0  0  0  0  0  0  0
   12.4652  -16.5347   21.9890 O   0  0  0  0  0  0  0  0  0  0  0  0
  2  1  1  1
  3  2  1  0
  4  2  1  0
  4  5  1  6
  6  4  1  0
  6  8  1  0
  7  6  2  0
  9  8  1  0
 10 11  1  0
  9 10  1  1
 12 13  1  0
 12 11  1  0
 13 14  1  0
 15  9  1  0
 16 15  2  0
 18 17  1  0
 19 18  2  0
 20 18  1  0
 21 20  1  1
 21 23  1  0
 21 22  1  0
 22 15  1  0
 23 24  1  0
 25 23  2  0
M  END
$$$$
