TKN.pdb
     RDKit          3D

 25 24  0  0  1  0  0  0  0  0999 V2000
    9.4225  -19.8783   19.4316 C   0  0  0  0  0  0  0  0  0  0  0  0
    9.3203  -18.8350   20.5165 C   0  0  1  0  0  0  0  0  0  0  0  0
    9.9198  -19.2047   21.6968 O   0  0  0  0  0  0  0  0  0  0  0  0
    9.9366  -17.5567   19.9888 C   0  0  2  0  0  0  0  0  0  0  0  0
   11.3244  -17.7875   19.6114 N   0  0  0  0  0  0  0  0  0  0  0  0
    9.9258  -16.4501   20.9685 C   0  0  0  0  0  0  0  0  0  0  0  0
   10.9804  -16.1020   21.5578 O   0  0  0  0  0  0  0  0  0  0  0  0
    8.7292  -15.7158   21.3006 N   0  0  0  0  0  0  0  0  0  0  0  0
    8.7385  -14.6379   22.2432 C   0  0  1  0  0  0  0  0  0  0  0  0
    7.5194  -13.7631   21.9437 C   0  0  0  0  0  0  0  0  0  0  0  0
    7.7517  -12.8683   20.7663 C   0  0  0  0  0  0  0  0  0  0  0  0
    7.7185  -13.6056   19.4614 C   0  0  0  0  0  0  0  0  0  0  0  0
    7.8936  -12.6978   18.2832 C   0  0  0  0  0  0  0  0  0  0  0  0
    7.8438  -13.4260   17.0217 N   0  0  0  0  0  0  0  0  0  0  0  0
    8.6503  -15.1156   23.6768 C   0  0  0  0  0  0  0  0  0  0  0  0
    8.5728  -14.2766   24.6011 O   0  0  0  0  0  0  0  0  0  0  0  0
    5.4146  -17.3146   24.8053 N   0  0  0  0  0  0  0  0  0  0  0  0
    6.5113  -18.1220   24.5020 C   0  0  0  0  0  0  0  0  0  0  0  0
    6.4425  -18.7811   23.4054 O   0  0  0  0  0  0  0  0  0  0  0  0
    7.6966  -18.2607   25.3281 C   0  0  0  0  0  0  0  0  0  0  0  0
    8.5555  -17.0334   25.2877 C   0  0  2  0  0  0  0  0  0  0  0  0
    8.6586  -16.5072   23.9361 N   0  0  0  0  0  0  0  0  0  0  0  0
    9.9222  -17.2092   25.8106 C   0  0  0  0  0  0  0  0  0  0  0  0
   10.0660  -17.6359   27.1462 O   0  0  0  0  0  0  0  0  0  0  0  0
   10.9849  -17.0167   25.1805 O   0  0  0  0  0  0  0  0  0  0  0  0
  2  1  1  6
  3  2  1  0
  4  2  1  0
  4  5  1  1
  6  4  1  0
  6  8  1  0
  7  6  2  0
  9  8  1  0
 10 11  1  0
  9 10  1  6
 12 13  1  0
 12 11  1  0
 13 14  1  0
 15  9  1  0
 16 15  2  0
 18 17  1  0
 19 18  2  0
 20 18  1  0
 21 20  1  6
 21 23  1  0
 21 22  1  0
 22 15  1  0
 23 24  1  0
 25 23  2  0
M  END
$$$$
