TKN.pdb
     RDKit          3D

 25 24  0  0  1  0  0  0  0  0999 V2000
    9.9048  -20.7324   19.1191 C   0  0  0  0  0  0  0  0  0  0  0  0
   10.3221  -20.0490   17.8405 C   0  0  1  0  0  0  0  0  0  0  0  0
   10.1478  -20.8230   16.7180 O   0  0  0  0  0  0  0  0  0  0  0  0
    9.5313  -18.7632   17.7236 C   0  0  2  0  0  0  0  0  0  0  0  0
    9.7080  -18.1845   16.3986 N   0  0  0  0  0  0  0  0  0  0  0  0
    9.9295  -17.7358   18.7087 C   0  0  0  0  0  0  0  0  0  0  0  0
   11.1280  -17.3691   18.8073 O   0  0  0  0  0  0  0  0  0  0  0  0
    8.9862  -17.1028   19.5981 N   0  0  0  0  0  0  0  0  0  0  0  0
    9.4049  -16.2077   20.6344 C   0  0  1  0  0  0  0  0  0  0  0  0
    8.3044  -15.1574   20.7982 C   0  0  0  0  0  0  0  0  0  0  0  0
    8.1625  -14.3041   19.5764 C   0  0  0  0  0  0  0  0  0  0  0  0
    7.0923  -13.2636   19.7161 C   0  0  0  0  0  0  0  0  0  0  0  0
    6.9785  -12.3894   18.5055 C   0  0  0  0  0  0  0  0  0  0  0  0
    5.8855  -11.4327   18.6248 N   0  0  0  0  0  0  0  0  0  0  0  0
    9.6081  -16.9061   21.9618 C   0  0  0  0  0  0  0  0  0  0  0  0
    8.8292  -17.8246   22.2994 O   0  0  0  0  0  0  0  0  0  0  0  0
   12.9952  -20.7793   22.6895 N   0  0  0  0  0  0  0  0  0  0  0  0
   12.0112  -19.8049   22.8587 C   0  0  0  0  0  0  0  0  0  0  0  0
   10.9458  -20.1762   23.4659 O   0  0  0  0  0  0  0  0  0  0  0  0
   12.1133  -18.4308   22.4025 C   0  0  0  0  0  0  0  0  0  0  0  0
   11.5751  -17.4629   23.4120 C   0  0  2  0  0  0  0  0  0  0  0  0
   10.6800  -16.4991   22.7921 N   0  0  0  0  0  0  0  0  0  0  0  0
   12.5960  -16.7132   24.1656 C   0  0  0  0  0  0  0  0  0  0  0  0
   13.3980  -15.7974   23.4552 O   0  0  0  0  0  0  0  0  0  0  0  0
   12.8268  -16.8067   25.3910 O   0  0  0  0  0  0  0  0  0  0  0  0
  2  1  1  1
  3  2  1  0
  4  2  1  0
  4  5  1  6
  6  4  1  0
  6  8  1  0
  7  6  2  0
  9  8  1  0
 10 11  1  0
  9 10  1  1
 12 13  1  0
 12 11  1  0
 13 14  1  0
 15  9  1  0
 16 15  2  0
 18 17  1  0
 19 18  2  0
 20 18  1  0
 21 20  1  6
 21 23  1  0
 21 22  1  0
 22 15  1  0
 23 24  1  0
 25 23  2  0
M  END
$$$$
