TKN.pdb
     RDKit          3D

 25 24  0  0  1  0  0  0  0  0999 V2000
    8.7165  -12.6596   20.9849 C   0  0  0  0  0  0  0  0  0  0  0  0
    7.8443  -13.3034   19.9358 C   0  0  1  0  0  0  0  0  0  0  0  0
    8.2451  -13.0416   18.6474 O   0  0  0  0  0  0  0  0  0  0  0  0
    7.8354  -14.7954   20.1934 C   0  0  2  0  0  0  0  0  0  0  0  0
    6.9460  -15.4615   19.2517 N   0  0  0  0  0  0  0  0  0  0  0  0
    7.3837  -15.1549   21.5540 C   0  0  0  0  0  0  0  0  0  0  0  0
    6.2563  -14.7911   21.9750 O   0  0  0  0  0  0  0  0  0  0  0  0
    8.1919  -15.9307   22.4631 N   0  0  0  0  0  0  0  0  0  0  0  0
    7.7238  -16.3032   23.7641 C   0  0  1  0  0  0  0  0  0  0  0  0
    7.0367  -17.6633   23.6265 C   0  0  0  0  0  0  0  0  0  0  0  0
    7.8071  -18.5892   22.7377 C   0  0  0  0  0  0  0  0  0  0  0  0
    7.1675  -19.9392   22.6118 C   0  0  0  0  0  0  0  0  0  0  0  0
    7.8902  -20.8306   21.6496 C   0  0  0  0  0  0  0  0  0  0  0  0
    7.2589  -22.1397   21.5398 N   0  0  0  0  0  0  0  0  0  0  0  0
    8.8445  -16.4276   24.7740 C   0  0  0  0  0  0  0  0  0  0  0  0
   10.0170  -16.5993   24.3738 O   0  0  0  0  0  0  0  0  0  0  0  0
   10.3183  -13.7545   26.8729 N   0  0  0  0  0  0  0  0  0  0  0  0
    9.7075  -14.1805   28.0528 C   0  0  0  0  0  0  0  0  0  0  0  0
    9.5158  -13.2828   28.9466 O   0  0  0  0  0  0  0  0  0  0  0  0
    9.2853  -15.5418   28.3271 C   0  0  0  0  0  0  0  0  0  0  0  0
    9.5636  -16.4587   27.1749 C   0  0  2  0  0  0  0  0  0  0  0  0
    8.5351  -16.3469   26.1530 N   0  0  0  0  0  0  0  0  0  0  0  0
    9.6983  -17.8832   27.5277 C   0  0  0  0  0  0  0  0  0  0  0  0
   10.8054  -18.2651   28.3120 O   0  0  0  0  0  0  0  0  0  0  0  0
    8.9179  -18.8030   27.1985 O   0  0  0  0  0  0  0  0  0  0  0  0
  2  1  1  1
  3  2  1  0
  4  2  1  0
  4  5  1  6
  6  4  1  0
  6  8  1  0
  7  6  2  0
  9  8  1  0
 10 11  1  0
  9 10  1  6
 12 13  1  0
 12 11  1  0
 13 14  1  0
 15  9  1  0
 16 15  2  0
 18 17  1  0
 19 18  2  0
 20 18  1  0
 21 20  1  1
 21 23  1  0
 21 22  1  0
 22 15  1  0
 23 24  1  0
 25 23  2  0
M  END
$$$$
