TKN.pdb
     RDKit          3D

 25 24  0  0  1  0  0  0  0  0999 V2000
   13.2833  -18.8098   18.0043 C   0  0  0  0  0  0  0  0  0  0  0  0
   11.8007  -18.7580   17.7303 C   0  0  1  0  0  0  0  0  0  0  0  0
   11.3822  -19.6605   16.7818 O   0  0  0  0  0  0  0  0  0  0  0  0
   11.0794  -18.9956   19.0401 C   0  0  2  0  0  0  0  0  0  0  0  0
    9.6594  -19.2119   18.7986 N   0  0  0  0  0  0  0  0  0  0  0  0
   11.1971  -17.8689   19.9895 C   0  0  0  0  0  0  0  0  0  0  0  0
   12.3233  -17.4065   20.3030 O   0  0  0  0  0  0  0  0  0  0  0  0
   10.0500  -17.2428   20.6008 N   0  0  0  0  0  0  0  0  0  0  0  0
   10.1825  -16.2835   21.6555 C   0  0  1  0  0  0  0  0  0  0  0  0
    8.9801  -15.3416   21.5655 C   0  0  0  0  0  0  0  0  0  0  0  0
    8.9707  -14.5713   20.2820 C   0  0  0  0  0  0  0  0  0  0  0  0
    7.7551  -13.7068   20.1326 C   0  0  0  0  0  0  0  0  0  0  0  0
    7.7572  -12.9274   18.8538 C   0  0  0  0  0  0  0  0  0  0  0  0
    6.5481  -12.1282   18.7005 N   0  0  0  0  0  0  0  0  0  0  0  0
   10.1944  -16.9226   23.0276 C   0  0  0  0  0  0  0  0  0  0  0  0
    9.2453  -16.7093   23.8138 O   0  0  0  0  0  0  0  0  0  0  0  0
   11.6097  -21.2983   22.5516 N   0  0  0  0  0  0  0  0  0  0  0  0
   11.1389  -20.6484   23.6929 C   0  0  0  0  0  0  0  0  0  0  0  0
    9.9062  -20.8401   23.9852 O   0  0  0  0  0  0  0  0  0  0  0  0
   11.9355  -19.7899   24.5503 C   0  0  0  0  0  0  0  0  0  0  0  0
   11.3438  -18.4190   24.6774 C   0  0  2  0  0  0  0  0  0  0  0  0
   11.2856  -17.7492   23.3881 N   0  0  0  0  0  0  0  0  0  0  0  0
   12.0363  -17.5242   25.6217 C   0  0  0  0  0  0  0  0  0  0  0  0
   12.7901  -16.4597   25.0874 O   0  0  0  0  0  0  0  0  0  0  0  0
   12.0227  -17.6128   26.8689 O   0  0  0  0  0  0  0  0  0  0  0  0
  2  1  1  1
  3  2  1  0
  4  2  1  0
  4  5  1  6
  6  4  1  0
  6  8  1  0
  7  6  2  0
  9  8  1  0
 10 11  1  0
  9 10  1  1
 12 13  1  0
 12 11  1  0
 13 14  1  0
 15  9  1  0
 16 15  2  0
 18 17  1  0
 19 18  2  0
 20 18  1  0
 21 20  1  6
 21 23  1  0
 21 22  1  0
 22 15  1  0
 23 24  1  0
 25 23  2  0
M  END
$$$$
