TKN.pdb
     RDKit          3D

 25 24  0  0  1  0  0  0  0  0999 V2000
   11.6384  -27.5013   15.0575 C   0  0  0  0  0  0  0  0  0  0  0  0
   12.1101  -26.2248   15.7086 C   0  0  1  0  0  0  0  0  0  0  0  0
   13.4566  -25.9928   15.5586 O   0  0  0  0  0  0  0  0  0  0  0  0
   11.3087  -25.0822   15.1215 C   0  0  2  0  0  0  0  0  0  0  0  0
   11.5353  -24.9968   13.6852 N   0  0  0  0  0  0  0  0  0  0  0  0
   11.6506  -23.7656   15.6995 C   0  0  0  0  0  0  0  0  0  0  0  0
   12.6436  -23.1176   15.2815 O   0  0  0  0  0  0  0  0  0  0  0  0
   10.8807  -23.1554   16.7561 N   0  0  0  0  0  0  0  0  0  0  0  0
   11.2029  -21.8617   17.2786 C   0  0  1  0  0  0  0  0  0  0  0  0
    9.8895  -21.2086   17.7139 C   0  0  0  0  0  0  0  0  0  0  0  0
    9.0594  -20.7907   16.5404 C   0  0  0  0  0  0  0  0  0  0  0  0
    8.8370  -19.3092   16.4846 C   0  0  0  0  0  0  0  0  0  0  0  0
    7.9628  -18.9015   15.3390 C   0  0  0  0  0  0  0  0  0  0  0  0
    7.6339  -17.4823   15.3825 N   0  0  0  0  0  0  0  0  0  0  0  0
   12.1288  -21.9292   18.4741 C   0  0  0  0  0  0  0  0  0  0  0  0
   12.2023  -22.9877   19.1363 O   0  0  0  0  0  0  0  0  0  0  0  0
   16.9090  -19.0874   21.0185 N   0  0  0  0  0  0  0  0  0  0  0  0
   16.0518  -20.1349   20.6803 C   0  0  0  0  0  0  0  0  0  0  0  0
   16.1255  -21.1847   21.4110 O   0  0  0  0  0  0  0  0  0  0  0  0
   15.1045  -20.1134   19.5808 C   0  0  0  0  0  0  0  0  0  0  0  0
   13.8161  -20.7907   19.9367 C   0  0  2  0  0  0  0  0  0  0  0  0
   12.8915  -20.7862   18.8144 N   0  0  0  0  0  0  0  0  0  0  0  0
   13.1145  -20.2265   21.1035 C   0  0  0  0  0  0  0  0  0  0  0  0
   11.9839  -19.4195   20.8648 O   0  0  0  0  0  0  0  0  0  0  0  0
   13.4235  -20.3939   22.3035 O   0  0  0  0  0  0  0  0  0  0  0  0
  2  1  1  6
  3  2  1  0
  4  2  1  0
  4  5  1  6
  6  4  1  0
  6  8  1  0
  7  6  2  0
  9  8  1  0
 10 11  1  0
  9 10  1  1
 12 13  1  0
 12 11  1  0
 13 14  1  0
 15  9  1  0
 16 15  2  0
 18 17  1  0
 19 18  2  0
 20 18  1  0
 21 20  1  6
 21 23  1  0
 21 22  1  0
 22 15  1  0
 23 24  1  0
 25 23  2  0
M  END
$$$$
