VTM.pdb
     RDKit          3D

 23 22  0  0  1  0  0  0  0  0999 V2000
   25.5343  -21.7288   -8.6655 C   0  0  0  0  0  0  0  0  0  0  0  0
   24.9917  -20.3104   -8.4659 C   0  0  2  0  0  0  0  0  0  0  0  0
   24.8133  -20.1148   -6.9774 C   0  0  0  0  0  0  0  0  0  0  0  0
   23.6687  -20.2530   -9.1987 C   0  0  2  0  0  0  0  0  0  0  0  0
   22.7345  -21.0866   -8.5236 N   0  0  0  0  0  0  0  0  0  0  0  0
   23.9257  -20.6536  -10.6015 C   0  0  0  0  0  0  0  0  0  0  0  0
   23.2258  -21.5689  -11.0937 O   0  0  0  0  0  0  0  0  0  0  0  0
   22.6811  -20.6377  -13.1613 C   0  0  0  0  0  0  0  0  0  0  0  0
   23.9602  -19.9968  -13.6565 C   0  0  1  0  0  0  0  0  0  0  0  0
   23.7915  -18.6139  -13.5152 O   0  0  0  0  0  0  0  0  0  0  0  0
   25.1415  -20.3846  -12.7902 C   0  0  2  0  0  0  0  0  0  0  0  0
   24.9189  -20.0517  -11.4007 N   0  0  0  0  0  0  0  0  0  0  0  0
   26.3814  -19.7320  -13.2248 C   0  0  0  0  0  0  0  0  0  0  0  0
   26.8413  -18.7746  -12.5773 O   0  0  0  0  0  0  0  0  0  0  0  0
   32.8401  -21.4500  -11.7631 C   0  0  0  0  0  0  0  0  0  0  0  0
   31.0594  -21.0643  -11.7584 S   0  0  0  0  0  0  0  0  0  0  0  0
   30.2523  -21.8198  -13.2054 C   0  0  0  0  0  0  0  0  0  0  0  0
   28.8054  -21.4046  -13.1908 C   0  0  0  0  0  0  0  0  0  0  0  0
   28.4831  -20.4617  -14.3324 C   0  0  2  0  0  0  0  0  0  0  0  0
   27.0544  -20.1825  -14.3714 N   0  0  0  0  0  0  0  0  0  0  0  0
   28.8674  -21.0264  -15.6357 C   0  0  0  0  0  0  0  0  0  0  0  0
   30.0676  -20.6960  -16.2158 O   0  0  0  0  0  0  0  0  0  0  0  0
   28.0925  -21.8122  -16.2156 O   0  0  0  0  0  0  0  0  0  0  0  0
  2  3  1  1
  2  1  1  0
  4  2  1  0
  4  5  1  1
  6  7  2  0
  6  4  1  0
  9  8  1  1
  9 10  1  0
  9 11  1  0
 11 12  1  1
 12  6  1  0
 13 11  1  0
 13 20  1  0
 14 13  2  0
 15 16  1  0
 16 17  1  0
 19 18  1  1
 18 17  1  0
 19 20  1  0
 19 21  1  0
 21 22  1  0
 23 21  2  0
M  END
$$$$
