VTM.pdb
     RDKit          3D

 23 22  0  0  1  0  0  0  0  0999 V2000
   16.7559  -16.0358  -18.3939 C   0  0  0  0  0  0  0  0  0  0  0  0
   17.2176  -14.8627  -17.5239 C   0  0  2  0  0  0  0  0  0  0  0  0
   16.3240  -13.6901  -17.8591 C   0  0  0  0  0  0  0  0  0  0  0  0
   18.6580  -14.5925  -17.9019 C   0  0  2  0  0  0  0  0  0  0  0  0
   19.4061  -15.7916  -17.7423 N   0  0  0  0  0  0  0  0  0  0  0  0
   19.1317  -13.4728  -17.0555 C   0  0  0  0  0  0  0  0  0  0  0  0
   19.3712  -13.7038  -15.8476 O   0  0  0  0  0  0  0  0  0  0  0  0
   22.0804  -11.1541  -17.9056 C   0  0  0  0  0  0  0  0  0  0  0  0
   20.8981  -10.2878  -17.5262 C   0  0  1  0  0  0  0  0  0  0  0  0
   20.2978   -9.8881  -18.7265 O   0  0  0  0  0  0  0  0  0  0  0  0
   19.8586  -11.0801  -16.7594 C   0  0  2  0  0  0  0  0  0  0  0  0
   19.3229  -12.1663  -17.5495 N   0  0  0  0  0  0  0  0  0  0  0  0
   18.7402  -10.2397  -16.3178 C   0  0  0  0  0  0  0  0  0  0  0  0
   17.6591  -10.2682  -16.9325 O   0  0  0  0  0  0  0  0  0  0  0  0
   17.2583   -9.9255  -10.3727 C   0  0  0  0  0  0  0  0  0  0  0  0
   15.7870   -9.1591  -11.1261 S   0  0  0  0  0  0  0  0  0  0  0  0
   16.2293   -8.3846  -12.7137 C   0  0  0  0  0  0  0  0  0  0  0  0
   17.3134   -9.2182  -13.3431 C   0  0  0  0  0  0  0  0  0  0  0  0
   17.7446   -8.6554  -14.6823 C   0  0  2  0  0  0  0  0  0  0  0  0
   18.8832   -9.3998  -15.2022 N   0  0  0  0  0  0  0  0  0  0  0  0
   18.1390   -7.2413  -14.5819 C   0  0  0  0  0  0  0  0  0  0  0  0
   17.1894   -6.2493  -14.5593 O   0  0  0  0  0  0  0  0  0  0  0  0
   19.3483   -6.9454  -14.5172 O   0  0  0  0  0  0  0  0  0  0  0  0
  2  3  1  6
  2  1  1  0
  4  2  1  0
  4  5  1  1
  6  7  2  0
  6  4  1  0
  9  8  1  6
  9 10  1  0
  9 11  1  0
 11 12  1  6
 12  6  1  0
 13 11  1  0
 13 20  1  0
 14 13  2  0
 15 16  1  0
 16 17  1  0
 19 18  1  1
 18 17  1  0
 19 20  1  0
 19 21  1  0
 21 22  1  0
 23 21  2  0
M  END
$$$$
