VTM.pdb
     RDKit          3D

 23 22  0  0  1  0  0  0  0  0999 V2000
   25.7971  -13.2447  -17.1681 C   0  0  0  0  0  0  0  0  0  0  0  0
   24.9892  -13.4778  -15.8877 C   0  0  2  0  0  0  0  0  0  0  0  0
   25.6286  -14.6463  -15.1726 C   0  0  0  0  0  0  0  0  0  0  0  0
   23.5767  -13.7978  -16.3272 C   0  0  2  0  0  0  0  0  0  0  0  0
   23.6000  -14.9791  -17.1191 N   0  0  0  0  0  0  0  0  0  0  0  0
   23.0583  -12.6075  -17.0406 C   0  0  0  0  0  0  0  0  0  0  0  0
   23.3298  -12.4814  -18.2572 O   0  0  0  0  0  0  0  0  0  0  0  0
   20.0800  -11.7251  -18.4443 C   0  0  0  0  0  0  0  0  0  0  0  0
   20.2896  -10.6134  -17.4380 C   0  0  1  0  0  0  0  0  0  0  0  0
   19.6391  -11.0131  -16.2642 O   0  0  0  0  0  0  0  0  0  0  0  0
   21.7564  -10.4527  -17.0928 C   0  0  2  0  0  0  0  0  0  0  0  0
   22.2769  -11.6170  -16.4113 N   0  0  0  0  0  0  0  0  0  0  0  0
   21.9978   -9.2797  -16.2456 C   0  0  0  0  0  0  0  0  0  0  0  0
   22.2331   -9.4252  -15.0328 O   0  0  0  0  0  0  0  0  0  0  0  0
   23.5104   -1.4975  -16.2313 C   0  0  0  0  0  0  0  0  0  0  0  0
   23.0180   -2.9876  -17.1571 S   0  0  0  0  0  0  0  0  0  0  0  0
   22.7769   -4.3833  -16.0127 C   0  0  0  0  0  0  0  0  0  0  0  0
   22.4153   -5.5915  -16.8346 C   0  0  0  0  0  0  0  0  0  0  0  0
   22.2271   -6.8206  -15.9685 C   0  0  2  0  0  0  0  0  0  0  0  0
   21.9643   -7.9891  -16.7969 N   0  0  0  0  0  0  0  0  0  0  0  0
   21.0997   -6.6672  -15.0355 C   0  0  0  0  0  0  0  0  0  0  0  0
   19.8143   -6.9309  -15.4409 O   0  0  0  0  0  0  0  0  0  0  0  0
   21.3182   -6.2936  -13.8664 O   0  0  0  0  0  0  0  0  0  0  0  0
  2  3  1  6
  2  1  1  0
  4  2  1  0
  4  5  1  6
  6  7  2  0
  6  4  1  0
  9  8  1  6
  9 10  1  0
  9 11  1  0
 11 12  1  1
 12  6  1  0
 13 11  1  0
 13 20  1  0
 14 13  2  0
 15 16  1  0
 16 17  1  0
 19 18  1  6
 18 17  1  0
 19 20  1  0
 19 21  1  0
 21 22  1  0
 23 21  2  0
M  END
$$$$
