VTM.pdb
     RDKit          3D

 23 22  0  0  1  0  0  0  0  0999 V2000
   16.9255   -9.9463  -19.7175 C   0  0  0  0  0  0  0  0  0  0  0  0
   17.6468   -9.5906  -18.4139 C   0  0  2  0  0  0  0  0  0  0  0  0
   18.2406   -8.2132  -18.6033 C   0  0  0  0  0  0  0  0  0  0  0  0
   18.7209  -10.6394  -18.2211 C   0  0  2  0  0  0  0  0  0  0  0  0
   18.1093  -11.9235  -18.2038 N   0  0  0  0  0  0  0  0  0  0  0  0
   19.4446  -10.3029  -16.9731 C   0  0  0  0  0  0  0  0  0  0  0  0
   18.7711   -9.9920  -15.9634 O   0  0  0  0  0  0  0  0  0  0  0  0
   23.5515  -10.4106  -14.2206 C   0  0  0  0  0  0  0  0  0  0  0  0
   22.8089  -10.8006  -15.4810 C   0  0  1  0  0  0  0  0  0  0  0  0
   22.3615  -12.1134  -15.2876 O   0  0  0  0  0  0  0  0  0  0  0  0
   21.5760   -9.9428  -15.6814 C   0  0  2  0  0  0  0  0  0  0  0  0
   20.8509  -10.3176  -16.8751 N   0  0  0  0  0  0  0  0  0  0  0  0
   21.9061   -8.5165  -15.7747 C   0  0  0  0  0  0  0  0  0  0  0  0
   22.1519   -8.0052  -16.8817 O   0  0  0  0  0  0  0  0  0  0  0  0
   20.1326   -1.5749  -16.5601 C   0  0  0  0  0  0  0  0  0  0  0  0
   19.9707   -3.3889  -16.5065 S   0  0  0  0  0  0  0  0  0  0  0  0
   21.3089   -4.1065  -15.5014 C   0  0  0  0  0  0  0  0  0  0  0  0
   21.1444   -5.6027  -15.5217 C   0  0  0  0  0  0  0  0  0  0  0  0
   22.2188   -6.2942  -14.7071 C   0  0  2  0  0  0  0  0  0  0  0  0
   21.9473   -7.7221  -14.6181 N   0  0  0  0  0  0  0  0  0  0  0  0
   22.2948   -5.7639  -13.3366 C   0  0  0  0  0  0  0  0  0  0  0  0
   21.7707   -6.4706  -12.2821 O   0  0  0  0  0  0  0  0  0  0  0  0
   22.8412   -4.6616  -13.1354 O   0  0  0  0  0  0  0  0  0  0  0  0
  2  3  1  6
  2  1  1  0
  4  2  1  0
  4  5  1  1
  6  7  2  0
  6  4  1  0
  9  8  1  1
  9 10  1  0
  9 11  1  0
 11 12  1  6
 12  6  1  0
 13 11  1  0
 13 20  1  0
 14 13  2  0
 15 16  1  0
 16 17  1  0
 19 18  1  6
 18 17  1  0
 19 20  1  0
 19 21  1  0
 21 22  1  0
 23 21  2  0
M  END
$$$$
