VTM.pdb
     RDKit          3D

 23 22  0  0  1  0  0  0  0  0999 V2000
   15.8799  -12.9187  -17.9625 C   0  0  0  0  0  0  0  0  0  0  0  0
   17.1963  -13.6885  -17.8186 C   0  0  2  0  0  0  0  0  0  0  0  0
   16.8472  -15.1595  -17.8280 C   0  0  0  0  0  0  0  0  0  0  0  0
   17.7950  -13.2656  -16.4944 C   0  0  2  0  0  0  0  0  0  0  0  0
   16.8789  -13.5857  -15.4545 N   0  0  0  0  0  0  0  0  0  0  0  0
   18.1076  -11.8211  -16.5949 C   0  0  0  0  0  0  0  0  0  0  0  0
   19.0013  -11.4630  -17.3965 O   0  0  0  0  0  0  0  0  0  0  0  0
   16.9790   -7.1025  -15.4174 C   0  0  0  0  0  0  0  0  0  0  0  0
   16.6230   -8.5736  -15.3799 C   0  0  1  0  0  0  0  0  0  0  0  0
   15.5632   -8.7482  -16.2782 O   0  0  0  0  0  0  0  0  0  0  0  0
   17.7680   -9.4301  -15.8816 C   0  0  2  0  0  0  0  0  0  0  0  0
   17.4453  -10.8388  -15.8307 N   0  0  0  0  0  0  0  0  0  0  0  0
   18.9973   -9.2134  -15.1109 C   0  0  0  0  0  0  0  0  0  0  0  0
   19.3009   -9.9932  -14.1905 O   0  0  0  0  0  0  0  0  0  0  0  0
   25.9846  -10.6667  -14.6146 C   0  0  0  0  0  0  0  0  0  0  0  0
   24.2805  -10.6754  -15.2592 S   0  0  0  0  0  0  0  0  0  0  0  0
   23.4158   -9.1524  -14.7607 C   0  0  0  0  0  0  0  0  0  0  0  0
   22.0093   -9.2301  -15.2917 C   0  0  0  0  0  0  0  0  0  0  0  0
   21.1756   -8.0479  -14.8408 C   0  0  2  0  0  0  0  0  0  0  0  0
   19.8359   -8.1272  -15.4063 N   0  0  0  0  0  0  0  0  0  0  0  0
   21.7667   -6.7676  -15.2607 C   0  0  0  0  0  0  0  0  0  0  0  0
   21.4163   -6.1937  -16.4583 O   0  0  0  0  0  0  0  0  0  0  0  0
   22.5935   -6.2016  -14.5189 O   0  0  0  0  0  0  0  0  0  0  0  0
  2  3  1  1
  2  1  1  0
  4  2  1  0
  4  5  1  1
  6  7  2  0
  6  4  1  0
  9  8  1  6
  9 10  1  0
  9 11  1  0
 11 12  1  1
 12  6  1  0
 13 11  1  0
 13 20  1  0
 14 13  2  0
 15 16  1  0
 16 17  1  0
 19 18  1  6
 18 17  1  0
 19 20  1  0
 19 21  1  0
 21 22  1  0
 23 21  2  0
M  END
$$$$
