VTM.pdb
     RDKit          3D

 23 22  0  0  1  0  0  0  0  0999 V2000
   16.9065  -15.9592  -18.2031 C   0  0  0  0  0  0  0  0  0  0  0  0
   17.6915  -14.6876  -18.5393 C   0  0  2  0  0  0  0  0  0  0  0  0
   18.8175  -15.0984  -19.4609 C   0  0  0  0  0  0  0  0  0  0  0  0
   18.2145  -14.1494  -17.2250 C   0  0  2  0  0  0  0  0  0  0  0  0
   17.1527  -14.1404  -16.2787 N   0  0  0  0  0  0  0  0  0  0  0  0
   18.7882  -12.8107  -17.4956 C   0  0  0  0  0  0  0  0  0  0  0  0
   19.7631  -12.7314  -18.2784 O   0  0  0  0  0  0  0  0  0  0  0  0
   16.7190   -9.4879  -18.2713 C   0  0  0  0  0  0  0  0  0  0  0  0
   17.7292   -9.2557  -17.1679 C   0  0  1  0  0  0  0  0  0  0  0  0
   17.0380   -9.4055  -15.9593 O   0  0  0  0  0  0  0  0  0  0  0  0
   18.8156  -10.3119  -17.1848 C   0  0  2  0  0  0  0  0  0  0  0  0
   18.2859  -11.6296  -16.9123 N   0  0  0  0  0  0  0  0  0  0  0  0
   19.8723  -10.0315  -16.2065 C   0  0  0  0  0  0  0  0  0  0  0  0
   19.7471  -10.4113  -15.0286 O   0  0  0  0  0  0  0  0  0  0  0  0
   26.8293  -11.0308  -14.2122 C   0  0  0  0  0  0  0  0  0  0  0  0
   25.9751  -10.2584  -15.6241 S   0  0  0  0  0  0  0  0  0  0  0  0
   24.4786   -9.3930  -15.0520 C   0  0  0  0  0  0  0  0  0  0  0  0
   23.3791   -9.6790  -16.0396 C   0  0  0  0  0  0  0  0  0  0  0  0
   22.0725   -9.0339  -15.6237 C   0  0  2  0  0  0  0  0  0  0  0  0
   21.0278   -9.3342  -16.5927 N   0  0  0  0  0  0  0  0  0  0  0  0
   22.1897   -7.5703  -15.5269 C   0  0  0  0  0  0  0  0  0  0  0  0
   21.7331   -6.7626  -16.5396 O   0  0  0  0  0  0  0  0  0  0  0  0
   22.7095   -7.0627  -14.5138 O   0  0  0  0  0  0  0  0  0  0  0  0
  2  3  1  6
  2  1  1  0
  4  2  1  0
  4  5  1  1
  6  7  2  0
  6  4  1  0
  9  8  1  6
  9 10  1  0
  9 11  1  0
 11 12  1  1
 12  6  1  0
 13 11  1  0
 13 20  1  0
 14 13  2  0
 15 16  1  0
 16 17  1  0
 19 18  1  6
 18 17  1  0
 19 20  1  0
 19 21  1  0
 21 22  1  0
 23 21  2  0
M  END
$$$$
