VTM.pdb
     RDKit          3D

 23 22  0  0  1  0  0  0  0  0999 V2000
   20.5587  -20.1387  -11.6765 C   0  0  0  0  0  0  0  0  0  0  0  0
   21.5919  -19.2410  -12.3642 C   0  0  2  0  0  0  0  0  0  0  0  0
   20.8581  -18.4723  -13.4396 C   0  0  0  0  0  0  0  0  0  0  0  0
   22.6356  -20.1655  -12.9529 C   0  0  2  0  0  0  0  0  0  0  0  0
   22.0210  -20.9762  -13.9470 N   0  0  0  0  0  0  0  0  0  0  0  0
   23.2241  -20.9343  -11.8316 C   0  0  0  0  0  0  0  0  0  0  0  0
   22.8536  -22.1199  -11.6676 O   0  0  0  0  0  0  0  0  0  0  0  0
   27.0199  -20.9625  -12.0517 C   0  0  0  0  0  0  0  0  0  0  0  0
   26.0664  -21.9023  -11.3447 C   0  0  1  0  0  0  0  0  0  0  0  0
   26.8597  -22.8135  -10.6368 O   0  0  0  0  0  0  0  0  0  0  0  0
   25.2256  -21.1662  -10.3212 C   0  0  2  0  0  0  0  0  0  0  0  0
   24.1776  -20.3906  -10.9469 N   0  0  0  0  0  0  0  0  0  0  0  0
   26.0316  -20.2630   -9.4926 C   0  0  0  0  0  0  0  0  0  0  0  0
   26.3456  -19.1382   -9.9214 O   0  0  0  0  0  0  0  0  0  0  0  0
   26.5206  -18.9981   -2.6425 C   0  0  0  0  0  0  0  0  0  0  0  0
   27.9371  -19.8812   -3.3728 S   0  0  0  0  0  0  0  0  0  0  0  0
   28.1682  -19.3682   -5.1046 C   0  0  0  0  0  0  0  0  0  0  0  0
   27.2870  -20.2380   -5.9608 C   0  0  0  0  0  0  0  0  0  0  0  0
   27.3065  -19.7978   -7.4107 C   0  0  2  0  0  0  0  0  0  0  0  0
   26.4530  -20.6617   -8.2144 N   0  0  0  0  0  0  0  0  0  0  0  0
   28.6620  -19.8474   -7.9809 C   0  0  0  0  0  0  0  0  0  0  0  0
   29.5526  -18.8253   -7.7603 O   0  0  0  0  0  0  0  0  0  0  0  0
   29.0012  -20.8288   -8.6708 O   0  0  0  0  0  0  0  0  0  0  0  0
  2  3  1  6
  2  1  1  0
  4  2  1  0
  4  5  1  6
  6  7  2  0
  6  4  1  0
  9  8  1  1
  9 10  1  0
  9 11  1  0
 11 12  1  6
 12  6  1  0
 13 11  1  0
 13 20  1  0
 14 13  2  0
 15 16  1  0
 16 17  1  0
 19 18  1  1
 18 17  1  0
 19 20  1  0
 19 21  1  0
 21 22  1  0
 23 21  2  0
M  END
$$$$
