VTM.pdb
     RDKit          3D

 23 22  0  0  1  0  0  0  0  0999 V2000
   14.6962  -12.5377  -16.3261 C   0  0  0  0  0  0  0  0  0  0  0  0
   15.6773  -13.5033  -16.9979 C   0  0  2  0  0  0  0  0  0  0  0  0
   15.1326  -14.8980  -16.7882 C   0  0  0  0  0  0  0  0  0  0  0  0
   17.0073  -13.3132  -16.3009 C   0  0  2  0  0  0  0  0  0  0  0  0
   16.8385  -13.5741  -14.9129 N   0  0  0  0  0  0  0  0  0  0  0  0
   17.4680  -11.9377  -16.6010 C   0  0  0  0  0  0  0  0  0  0  0  0
   17.7886  -11.6648  -17.7810 O   0  0  0  0  0  0  0  0  0  0  0  0
   15.8135   -8.6186  -16.5255 C   0  0  0  0  0  0  0  0  0  0  0  0
   16.9777   -8.5485  -15.5601 C   0  0  1  0  0  0  0  0  0  0  0  0
   16.4666   -8.8755  -14.2981 O   0  0  0  0  0  0  0  0  0  0  0  0
   18.0295   -9.5883  -15.8896 C   0  0  2  0  0  0  0  0  0  0  0  0
   17.5600  -10.9292  -15.6202 N   0  0  0  0  0  0  0  0  0  0  0  0
   19.2693   -9.3766  -15.1344 C   0  0  0  0  0  0  0  0  0  0  0  0
   19.4232   -9.9183  -14.0253 O   0  0  0  0  0  0  0  0  0  0  0  0
   26.5791  -10.6450  -14.8019 C   0  0  0  0  0  0  0  0  0  0  0  0
   25.0302  -10.5029  -15.7507 S   0  0  0  0  0  0  0  0  0  0  0  0
   23.9383   -9.2643  -14.9831 C   0  0  0  0  0  0  0  0  0  0  0  0
   22.5787   -9.3985  -15.6152 C   0  0  0  0  0  0  0  0  0  0  0  0
   21.5732   -8.4572  -14.9834 C   0  0  2  0  0  0  0  0  0  0  0  0
   20.2867   -8.5630  -15.6574 N   0  0  0  0  0  0  0  0  0  0  0  0
   22.0096   -7.0542  -15.0634 C   0  0  0  0  0  0  0  0  0  0  0  0
   21.6119   -6.2555  -16.1076 O   0  0  0  0  0  0  0  0  0  0  0  0
   22.7477   -6.5901  -14.1724 O   0  0  0  0  0  0  0  0  0  0  0  0
  2  3  1  1
  2  1  1  0
  4  2  1  0
  4  5  1  1
  6  7  2  0
  6  4  1  0
  9  8  1  6
  9 10  1  0
  9 11  1  0
 11 12  1  1
 12  6  1  0
 13 11  1  0
 13 20  1  0
 14 13  2  0
 15 16  1  0
 16 17  1  0
 19 18  1  6
 18 17  1  0
 19 20  1  0
 19 21  1  0
 21 22  1  0
 23 21  2  0
M  END
$$$$
