VTM.pdb
     RDKit          3D

 23 22  0  0  1  0  0  0  0  0999 V2000
   22.6472  -16.9351  -16.7600 C   0  0  0  0  0  0  0  0  0  0  0  0
   22.7487  -18.0293  -15.6929 C   0  0  2  0  0  0  0  0  0  0  0  0
   22.7443  -17.3340  -14.3504 C   0  0  0  0  0  0  0  0  0  0  0  0
   24.0559  -18.7497  -15.9439 C   0  0  2  0  0  0  0  0  0  0  0  0
   24.0763  -19.2057  -17.2910 N   0  0  0  0  0  0  0  0  0  0  0  0
   24.1586  -19.8356  -14.9415 C   0  0  0  0  0  0  0  0  0  0  0  0
   23.2128  -20.6527  -14.8546 O   0  0  0  0  0  0  0  0  0  0  0  0
   25.9799  -22.6140  -15.0961 C   0  0  0  0  0  0  0  0  0  0  0  0
   26.4081  -22.1280  -13.7277 C   0  0  1  0  0  0  0  0  0  0  0  0
   27.6335  -21.4739  -13.9046 O   0  0  0  0  0  0  0  0  0  0  0  0
   25.4383  -21.1005  -13.1799 C   0  0  2  0  0  0  0  0  0  0  0  0
   25.2693  -19.9868  -14.0866 N   0  0  0  0  0  0  0  0  0  0  0  0
   25.8700  -20.5727  -11.8810 C   0  0  0  0  0  0  0  0  0  0  0  0
   27.0006  -20.0687  -11.7582 O   0  0  0  0  0  0  0  0  0  0  0  0
   29.2210  -19.8568   -6.6039 C   0  0  0  0  0  0  0  0  0  0  0  0
   28.0176  -18.6143   -7.1764 S   0  0  0  0  0  0  0  0  0  0  0  0
   26.4131  -19.4068   -7.5129 C   0  0  0  0  0  0  0  0  0  0  0  0
   26.2464  -19.4863   -9.0069 C   0  0  0  0  0  0  0  0  0  0  0  0
   25.5490  -20.7652   -9.4242 C   0  0  2  0  0  0  0  0  0  0  0  0
   25.0123  -20.6335  -10.7715 N   0  0  0  0  0  0  0  0  0  0  0  0
   24.4330  -21.0999   -8.5255 C   0  0  0  0  0  0  0  0  0  0  0  0
   23.1582  -21.2447   -9.0158 O   0  0  0  0  0  0  0  0  0  0  0  0
   24.6513  -21.2526   -7.3077 O   0  0  0  0  0  0  0  0  0  0  0  0
  2  3  1  1
  2  1  1  0
  4  2  1  0
  4  5  1  6
  6  7  2  0
  6  4  1  0
  9  8  1  6
  9 10  1  0
  9 11  1  0
 11 12  1  6
 12  6  1  0
 13 11  1  0
 13 20  1  0
 14 13  2  0
 15 16  1  0
 16 17  1  0
 19 18  1  1
 18 17  1  0
 19 20  1  0
 19 21  1  0
 21 22  1  0
 23 21  2  0
M  END
$$$$
