VTM.pdb
     RDKit          3D

 23 22  0  0  1  0  0  0  0  0999 V2000
   26.0996  -19.3352  -10.2501 C   0  0  0  0  0  0  0  0  0  0  0  0
   25.8291  -20.8422  -10.2067 C   0  0  2  0  0  0  0  0  0  0  0  0
   26.5001  -21.3723   -8.9598 C   0  0  0  0  0  0  0  0  0  0  0  0
   26.4452  -21.4224  -11.4614 C   0  0  2  0  0  0  0  0  0  0  0  0
   27.8595  -21.2958  -11.3780 N   0  0  0  0  0  0  0  0  0  0  0  0
   25.8463  -20.7109  -12.6145 C   0  0  0  0  0  0  0  0  0  0  0  0
   26.6031  -20.0417  -13.3555 O   0  0  0  0  0  0  0  0  0  0  0  0
   26.1401  -20.4193  -15.2299 C   0  0  0  0  0  0  0  0  0  0  0  0
   24.6638  -20.7307  -15.3545 C   0  0  1  0  0  0  0  0  0  0  0  0
   24.5534  -22.1264  -15.3789 O   0  0  0  0  0  0  0  0  0  0  0  0
   23.8956  -20.2518  -14.1393 C   0  0  2  0  0  0  0  0  0  0  0  0
   24.4687  -20.7552  -12.9107 N   0  0  0  0  0  0  0  0  0  0  0  0
   22.4853  -20.6533  -14.1853 C   0  0  0  0  0  0  0  0  0  0  0  0
   22.0862  -21.6064  -13.4927 O   0  0  0  0  0  0  0  0  0  0  0  0
   17.6605  -18.6982  -11.2821 C   0  0  0  0  0  0  0  0  0  0  0  0
   17.1771  -18.2962  -12.9921 S   0  0  0  0  0  0  0  0  0  0  0  0
   17.9377  -19.4773  -14.1508 C   0  0  0  0  0  0  0  0  0  0  0  0
   19.4312  -19.3142  -14.0557 C   0  0  0  0  0  0  0  0  0  0  0  0
   20.1580  -20.2776  -14.9720 C   0  0  2  0  0  0  0  0  0  0  0  0
   21.5802  -19.9664  -15.0095 N   0  0  0  0  0  0  0  0  0  0  0  0
   19.6468  -20.2154  -16.3504 C   0  0  0  0  0  0  0  0  0  0  0  0
   20.1864  -19.3377  -17.2585 O   0  0  0  0  0  0  0  0  0  0  0  0
   18.7144  -20.9687  -16.6928 O   0  0  0  0  0  0  0  0  0  0  0  0
  2  3  1  1
  2  1  1  0
  4  2  1  0
  4  5  1  1
  6  7  2  0
  6  4  1  0
  9  8  1  1
  9 10  1  0
  9 11  1  0
 11 12  1  1
 12  6  1  0
 13 11  1  0
 13 20  1  0
 14 13  2  0
 15 16  1  0
 16 17  1  0
 19 18  1  1
 18 17  1  0
 19 20  1  0
 19 21  1  0
 21 22  1  0
 23 21  2  0
M  END
$$$$
