VTM.pdb
     RDKit          3D

 23 22  0  0  1  0  0  0  0  0999 V2000
   20.3215  -20.4773  -13.9628 C   0  0  0  0  0  0  0  0  0  0  0  0
   21.3845  -21.0789  -13.0385 C   0  0  2  0  0  0  0  0  0  0  0  0
   21.1852  -20.4541  -11.6763 C   0  0  0  0  0  0  0  0  0  0  0  0
   22.7259  -20.7065  -13.6323 C   0  0  2  0  0  0  0  0  0  0  0  0
   22.7735  -21.1629  -14.9786 N   0  0  0  0  0  0  0  0  0  0  0  0
   23.7702  -21.2952  -12.7621 C   0  0  0  0  0  0  0  0  0  0  0  0
   23.7854  -22.5392  -12.6138 O   0  0  0  0  0  0  0  0  0  0  0  0
   27.1884  -21.7367  -13.2018 C   0  0  0  0  0  0  0  0  0  0  0  0
   27.1407  -20.9797  -11.8916 C   0  0  1  0  0  0  0  0  0  0  0  0
   27.3466  -19.6306  -12.2052 O   0  0  0  0  0  0  0  0  0  0  0  0
   25.7715  -21.0760  -11.2495 C   0  0  2  0  0  0  0  0  0  0  0  0
   24.7416  -20.5188  -12.0980 N   0  0  0  0  0  0  0  0  0  0  0  0
   25.7203  -20.3883   -9.9547 C   0  0  0  0  0  0  0  0  0  0  0  0
   25.0046  -19.3809   -9.8125 O   0  0  0  0  0  0  0  0  0  0  0  0
   28.6015  -20.2218   -2.5567 C   0  0  0  0  0  0  0  0  0  0  0  0
   28.5602  -21.0262   -4.1909 S   0  0  0  0  0  0  0  0  0  0  0  0
   27.5891  -20.0210   -5.3581 C   0  0  0  0  0  0  0  0  0  0  0  0
   27.4307  -20.8172   -6.6258 C   0  0  0  0  0  0  0  0  0  0  0  0
   26.6276  -20.0606   -7.6643 C   0  0  2  0  0  0  0  0  0  0  0  0
   26.4772  -20.8614   -8.8713 N   0  0  0  0  0  0  0  0  0  0  0  0
   27.2740  -18.7938   -8.0420 C   0  0  0  0  0  0  0  0  0  0  0  0
   28.0697  -18.7193   -9.1589 O   0  0  0  0  0  0  0  0  0  0  0  0
   27.0949  -17.7807   -7.3380 O   0  0  0  0  0  0  0  0  0  0  0  0
  2  3  1  1
  2  1  1  0
  4  2  1  0
  4  5  1  6
  6  7  2  0
  6  4  1  0
  9  8  1  6
  9 10  1  0
  9 11  1  0
 11 12  1  6
 12  6  1  0
 13 11  1  0
 13 20  1  0
 14 13  2  0
 15 16  1  0
 16 17  1  0
 19 18  1  1
 18 17  1  0
 19 20  1  0
 19 21  1  0
 21 22  1  0
 23 21  2  0
M  END
$$$$
