VTM.pdb
     RDKit          3D

 23 22  0  0  1  0  0  0  0  0999 V2000
   26.7865  -10.5305  -17.4497 C   0  0  0  0  0  0  0  0  0  0  0  0
   26.6096  -11.1275  -16.0502 C   0  0  2  0  0  0  0  0  0  0  0  0
   27.8037  -12.0205  -15.8004 C   0  0  0  0  0  0  0  0  0  0  0  0
   25.3192  -11.9177  -16.0837 C   0  0  2  0  0  0  0  0  0  0  0  0
   25.4862  -13.0309  -16.9533 N   0  0  0  0  0  0  0  0  0  0  0  0
   24.2447  -10.9870  -16.5004 C   0  0  0  0  0  0  0  0  0  0  0  0
   23.9232  -10.9576  -17.7110 O   0  0  0  0  0  0  0  0  0  0  0  0
   20.8102  -11.0576  -16.1603 C   0  0  0  0  0  0  0  0  0  0  0  0
   21.1570   -9.7295  -15.5216 C   0  0  1  0  0  0  0  0  0  0  0  0
   21.2595   -9.9660  -14.1452 O   0  0  0  0  0  0  0  0  0  0  0  0
   22.5126   -9.2339  -15.9829 C   0  0  2  0  0  0  0  0  0  0  0  0
   23.5732  -10.1381  -15.5971 N   0  0  0  0  0  0  0  0  0  0  0  0
   22.8256   -7.9050  -15.4462 C   0  0  0  0  0  0  0  0  0  0  0  0
   23.6220   -7.7881  -14.4978 O   0  0  0  0  0  0  0  0  0  0  0  0
   22.1340   -0.1005  -16.7217 C   0  0  0  0  0  0  0  0  0  0  0  0
   21.7517   -1.8085  -17.2279 S   0  0  0  0  0  0  0  0  0  0  0  0
   22.4374   -2.9867  -16.0206 C   0  0  0  0  0  0  0  0  0  0  0  0
   22.1127   -4.3757  -16.5017 C   0  0  0  0  0  0  0  0  0  0  0  0
   22.5982   -5.4316  -15.5293 C   0  0  2  0  0  0  0  0  0  0  0  0
   22.2292   -6.7602  -15.9978 N   0  0  0  0  0  0  0  0  0  0  0  0
   22.0200   -5.2501  -14.1885 C   0  0  0  0  0  0  0  0  0  0  0  0
   22.6990   -4.5493  -13.2220 O   0  0  0  0  0  0  0  0  0  0  0  0
   20.9025   -5.7393  -13.9316 O   0  0  0  0  0  0  0  0  0  0  0  0
  2  3  1  6
  2  1  1  0
  4  2  1  0
  4  5  1  6
  6  7  2  0
  6  4  1  0
  9  8  1  6
  9 10  1  0
  9 11  1  0
 11 12  1  1
 12  6  1  0
 13 11  1  0
 13 20  1  0
 14 13  2  0
 15 16  1  0
 16 17  1  0
 19 18  1  6
 18 17  1  0
 19 20  1  0
 19 21  1  0
 21 22  1  0
 23 21  2  0
M  END
$$$$
