YYS.pdb
     RDKit          3D

 31 32  0  0  1  0  0  0  0  0999 V2000
   24.7600  -11.9890  -25.4636 O   0  0  0  0  0  0  0  0  0  0  0  0
   23.6393  -12.0109  -24.6424 C   0  0  0  0  0  0  0  0  0  0  0  0
   22.4745  -12.6564  -24.9976 C   0  0  0  0  0  0  0  0  0  0  0  0
   21.3956  -12.6432  -24.1404 C   0  0  0  0  0  0  0  0  0  0  0  0
   21.4763  -11.9916  -22.9376 C   0  0  0  0  0  0  0  0  0  0  0  0
   20.3060  -11.9734  -21.9997 C   0  0  0  0  0  0  0  0  0  0  0  0
   20.4306  -13.1091  -20.9887 C   0  0  2  0  0  0  0  0  0  0  0  0
   20.3057  -14.3655  -21.6681 N   0  0  0  0  0  0  0  0  0  0  0  0
   19.4911  -12.9497  -19.8701 C   0  0  0  0  0  0  0  0  0  0  0  0
   18.3258  -13.4411  -19.9846 O   0  0  0  0  0  0  0  0  0  0  0  0
   22.6310  -11.3511  -22.5842 C   0  0  0  0  0  0  0  0  0  0  0  0
   23.7140  -11.3572  -23.4308 C   0  0  0  0  0  0  0  0  0  0  0  0
   18.8984  -18.5646  -16.9213 O   0  0  0  0  0  0  0  0  0  0  0  0
   19.0479  -17.1980  -16.7931 C   0  0  0  0  0  0  0  0  0  0  0  0
   20.2140  -16.5478  -17.1922 C   0  0  0  0  0  0  0  0  0  0  0  0
   20.2883  -15.1648  -17.0302 C   0  0  0  0  0  0  0  0  0  0  0  0
   19.2741  -14.4317  -16.5017 C   0  0  0  0  0  0  0  0  0  0  0  0
   19.3658  -12.9835  -16.3378 C   0  0  0  0  0  0  0  0  0  0  0  0
   18.9123  -12.2012  -17.5346 C   0  0  2  0  0  0  0  0  0  0  0  0
   19.7744  -12.2891  -18.6635 N   0  0  0  0  0  0  0  0  0  0  0  0
   18.6223  -10.7838  -17.2075 C   0  0  0  0  0  0  0  0  0  0  0  0
   19.4967   -9.8826  -17.2372 O   0  0  0  0  0  0  0  0  0  0  0  0
   18.1156  -15.0797  -16.1055 C   0  0  0  0  0  0  0  0  0  0  0  0
   18.0116  -16.4637  -16.2552 C   0  0  0  0  0  0  0  0  0  0  0  0
   15.0015   -7.7719  -16.0055 O   0  0  0  0  0  0  0  0  0  0  0  0
   15.3799   -9.0742  -16.3873 C   0  0  0  0  0  0  0  0  0  0  0  0
   16.9090   -9.0954  -16.4294 C   0  0  2  0  0  0  0  0  0  0  0  0
   17.3078  -10.4092  -16.8432 N   0  0  0  0  0  0  0  0  0  0  0  0
   17.3667   -8.8622  -15.0439 C   0  0  0  0  0  0  0  0  0  0  0  0
   17.2817   -7.5869  -14.5140 O   0  0  0  0  0  0  0  0  0  0  0  0
   17.8253   -9.8210  -14.3673 O   0  0  0  0  0  0  0  0  0  0  0  0
  2 12  2  0
  2  1  1  0
  3  2  1  0
  4  5  1  0
  4  3  2  0
  5 11  2  0
  6  7  1  0
  6  5  1  0
  7  8  1  6
  9  7  1  0
  9 20  1  0
 10  9  2  0
 11 12  1  0
 13 14  1  0
 14 15  2  0
 15 16  1  0
 17 18  1  0
 17 16  2  0
 19 18  1  1
 19 20  1  0
 19 21  1  0
 21 28  1  0
 22 21  2  0
 23 17  1  0
 24 23  2  0
 24 14  1  0
 25 26  1  0
 27 26  1  1
 27 29  1  0
 28 27  1  0
 29 31  2  0
 29 30  1  0
M  END
$$$$
