YYS.pdb
     RDKit          3D

 31 32  0  0  1  0  0  0  0  0999 V2000
   21.0749  -16.7016  -22.2339 O   0  0  0  0  0  0  0  0  0  0  0  0
   21.1879  -16.7451  -20.8495 C   0  0  0  0  0  0  0  0  0  0  0  0
   20.5437  -15.8469  -20.0261 C   0  0  0  0  0  0  0  0  0  0  0  0
   20.6945  -15.9408  -18.6596 C   0  0  0  0  0  0  0  0  0  0  0  0
   21.4816  -16.9226  -18.1169 C   0  0  0  0  0  0  0  0  0  0  0  0
   21.6501  -17.0307  -16.6305 C   0  0  0  0  0  0  0  0  0  0  0  0
   20.7812  -18.1616  -16.0885 C   0  0  2  0  0  0  0  0  0  0  0  0
   19.4161  -17.7270  -16.0336 N   0  0  0  0  0  0  0  0  0  0  0  0
   21.2875  -18.6727  -14.8071 C   0  0  0  0  0  0  0  0  0  0  0  0
   21.0132  -18.0278  -13.7481 O   0  0  0  0  0  0  0  0  0  0  0  0
   22.1210  -17.8139  -18.9325 C   0  0  0  0  0  0  0  0  0  0  0  0
   21.9784  -17.7304  -20.2971 C   0  0  0  0  0  0  0  0  0  0  0  0
   16.3561  -21.4178  -12.0289 O   0  0  0  0  0  0  0  0  0  0  0  0
   17.7192  -21.4733  -12.2414 C   0  0  0  0  0  0  0  0  0  0  0  0
   18.6311  -21.1561  -11.2365 C   0  0  0  0  0  0  0  0  0  0  0  0
   19.9921  -21.2365  -11.5294 C   0  0  0  0  0  0  0  0  0  0  0  0
   20.4602  -21.6098  -12.7488 C   0  0  0  0  0  0  0  0  0  0  0  0
   21.8887  -21.6895  -13.0414 C   0  0  0  0  0  0  0  0  0  0  0  0
   22.5126  -20.3770  -13.4126 C   0  0  2  0  0  0  0  0  0  0  0  0
   22.0623  -19.8333  -14.6483 N   0  0  0  0  0  0  0  0  0  0  0  0
   23.9946  -20.4229  -13.3709 C   0  0  0  0  0  0  0  0  0  0  0  0
   24.7067  -20.4634  -14.4047 O   0  0  0  0  0  0  0  0  0  0  0  0
   19.5523  -21.9248  -13.7465 C   0  0  0  0  0  0  0  0  0  0  0  0
   18.1832  -21.8537  -13.4835 C   0  0  0  0  0  0  0  0  0  0  0  0
   27.6379  -21.3103  -10.3059 O   0  0  0  0  0  0  0  0  0  0  0  0
   26.2568  -21.0926  -10.4794 C   0  0  0  0  0  0  0  0  0  0  0  0
   26.0590  -20.6433  -11.9282 C   0  0  2  0  0  0  0  0  0  0  0  0
   24.6553  -20.4218  -12.1201 N   0  0  0  0  0  0  0  0  0  0  0  0
   26.4937  -21.7721  -12.7770 C   0  0  0  0  0  0  0  0  0  0  0  0
   27.7327  -21.7136  -13.3898 O   0  0  0  0  0  0  0  0  0  0  0  0
   25.7356  -22.7666  -12.9308 O   0  0  0  0  0  0  0  0  0  0  0  0
  2 12  2  0
  2  1  1  0
  3  2  1  0
  4  5  1  0
  4  3  2  0
  5 11  2  0
  6  7  1  0
  6  5  1  0
  7  8  1  1
  9  7  1  0
  9 20  1  0
 10  9  2  0
 11 12  1  0
 13 14  1  0
 14 15  2  0
 15 16  1  0
 17 18  1  0
 17 16  2  0
 19 18  1  6
 19 20  1  0
 19 21  1  0
 21 28  1  0
 22 21  2  0
 23 17  1  0
 24 23  2  0
 24 14  1  0
 25 26  1  0
 27 26  1  1
 27 29  1  0
 28 27  1  0
 29 31  2  0
 29 30  1  0
M  END
$$$$
