YYS.pdb
     RDKit          3D

 31 32  0  0  1  0  0  0  0  0999 V2000
   23.7084  -13.1388  -22.4002 O   0  0  0  0  0  0  0  0  0  0  0  0
   23.1408  -14.1041  -21.5773 C   0  0  0  0  0  0  0  0  0  0  0  0
   22.8710  -13.8749  -20.2453 C   0  0  0  0  0  0  0  0  0  0  0  0
   22.3070  -14.8721  -19.4794 C   0  0  0  0  0  0  0  0  0  0  0  0
   22.0138  -16.0892  -20.0366 C   0  0  0  0  0  0  0  0  0  0  0  0
   21.3997  -17.1790  -19.2090 C   0  0  0  0  0  0  0  0  0  0  0  0
   22.4396  -17.7571  -18.2540 C   0  0  2  0  0  0  0  0  0  0  0  0
   23.4575  -18.4271  -19.0093 N   0  0  0  0  0  0  0  0  0  0  0  0
   21.8227  -18.6006  -17.2209 C   0  0  0  0  0  0  0  0  0  0  0  0
   21.5972  -19.8206  -17.4919 O   0  0  0  0  0  0  0  0  0  0  0  0
   22.2809  -16.3178  -21.3575 C   0  0  0  0  0  0  0  0  0  0  0  0
   22.8433  -15.3309  -22.1317 C   0  0  0  0  0  0  0  0  0  0  0  0
   17.9774  -21.3541   -9.7318 O   0  0  0  0  0  0  0  0  0  0  0  0
   18.7493  -20.6987  -10.6703 C   0  0  0  0  0  0  0  0  0  0  0  0
   19.8359  -21.3166  -11.2863 C   0  0  0  0  0  0  0  0  0  0  0  0
   20.5666  -20.5879  -12.2241 C   0  0  0  0  0  0  0  0  0  0  0  0
   20.2618  -19.3069  -12.5583 C   0  0  0  0  0  0  0  0  0  0  0  0
   21.0361  -18.5557  -13.5424 C   0  0  0  0  0  0  0  0  0  0  0  0
   20.7490  -18.9326  -14.9656 C   0  0  2  0  0  0  0  0  0  0  0  0
   21.4541  -18.1677  -15.9367 N   0  0  0  0  0  0  0  0  0  0  0  0
   19.2963  -18.9464  -15.2653 C   0  0  0  0  0  0  0  0  0  0  0  0
   18.6267  -17.9003  -15.4517 O   0  0  0  0  0  0  0  0  0  0  0  0
   19.1814  -18.6942  -11.9450 C   0  0  0  0  0  0  0  0  0  0  0  0
   18.4307  -19.3982  -11.0019 C   0  0  0  0  0  0  0  0  0  0  0  0
   15.7583  -21.6508  -16.9563 O   0  0  0  0  0  0  0  0  0  0  0  0
   17.0668  -21.6435  -16.4343 C   0  0  0  0  0  0  0  0  0  0  0  0
   17.2219  -20.3397  -15.6492 C   0  0  2  0  0  0  0  0  0  0  0  0
   18.6155  -20.1836  -15.3494 N   0  0  0  0  0  0  0  0  0  0  0  0
   16.4708  -20.5206  -14.3896 C   0  0  0  0  0  0  0  0  0  0  0  0
   15.1812  -20.0277  -14.2997 O   0  0  0  0  0  0  0  0  0  0  0  0
   17.0107  -21.1173  -13.4202 O   0  0  0  0  0  0  0  0  0  0  0  0
  2 12  2  0
  2  1  1  0
  3  2  1  0
  4  5  1  0
  4  3  2  0
  5 11  2  0
  6  7  1  0
  6  5  1  0
  7  8  1  6
  9  7  1  0
  9 20  1  0
 10  9  2  0
 11 12  1  0
 13 14  1  0
 14 15  2  0
 15 16  1  0
 17 18  1  0
 17 16  2  0
 19 18  1  1
 19 20  1  0
 19 21  1  0
 21 28  1  0
 22 21  2  0
 23 17  1  0
 24 23  2  0
 24 14  1  0
 25 26  1  0
 27 26  1  6
 27 29  1  0
 28 27  1  0
 29 31  2  0
 29 30  1  0
M  END
$$$$
