YYS.pdb
     RDKit          3D

 31 32  0  0  1  0  0  0  0  0999 V2000
   34.9371   -7.5120  -14.3996 O   0  0  0  0  0  0  0  0  0  0  0  0
   33.7892   -7.3915  -15.1733 C   0  0  0  0  0  0  0  0  0  0  0  0
   33.0514   -8.4833  -15.5772 C   0  0  0  0  0  0  0  0  0  0  0  0
   31.9212   -8.3002  -16.3441 C   0  0  0  0  0  0  0  0  0  0  0  0
   31.5286   -7.0382  -16.7062 C   0  0  0  0  0  0  0  0  0  0  0  0
   30.2995   -6.8316  -17.5406 C   0  0  0  0  0  0  0  0  0  0  0  0
   30.3020   -7.7986  -18.7206 C   0  0  2  0  0  0  0  0  0  0  0  0
   31.4619   -7.5588  -19.5285 N   0  0  0  0  0  0  0  0  0  0  0  0
   29.0406   -7.7454  -19.4725 C   0  0  0  0  0  0  0  0  0  0  0  0
   29.0356   -7.1711  -20.6051 O   0  0  0  0  0  0  0  0  0  0  0  0
   32.2594   -5.9546  -16.3062 C   0  0  0  0  0  0  0  0  0  0  0  0
   33.3887   -6.1244  -15.5410 C   0  0  0  0  0  0  0  0  0  0  0  0
   28.8105  -11.9175  -24.4060 O   0  0  0  0  0  0  0  0  0  0  0  0
   28.1404  -11.3479  -23.3416 C   0  0  0  0  0  0  0  0  0  0  0  0
   28.3860  -11.7392  -22.0269 C   0  0  0  0  0  0  0  0  0  0  0  0
   27.6683  -11.1162  -21.0066 C   0  0  0  0  0  0  0  0  0  0  0  0
   26.7446  -10.1486  -21.2434 C   0  0  0  0  0  0  0  0  0  0  0  0
   26.0001   -9.5047  -20.1647 C   0  0  0  0  0  0  0  0  0  0  0  0
   26.5731   -8.1905  -19.7239 C   0  0  2  0  0  0  0  0  0  0  0  0
   27.8177   -8.2841  -19.0402 N   0  0  0  0  0  0  0  0  0  0  0  0
   25.6051   -7.3857  -18.9394 C   0  0  0  0  0  0  0  0  0  0  0  0
   25.4201   -7.5486  -17.7078 O   0  0  0  0  0  0  0  0  0  0  0  0
   26.5017   -9.7608  -22.5508 C   0  0  0  0  0  0  0  0  0  0  0  0
   27.2047  -10.3663  -23.5939 C   0  0  0  0  0  0  0  0  0  0  0  0
   22.6081   -3.5742  -19.3236 O   0  0  0  0  0  0  0  0  0  0  0  0
   23.4640   -4.4765  -19.9856 C   0  0  0  0  0  0  0  0  0  0  0  0
   23.9357   -5.4870  -18.9385 C   0  0  2  0  0  0  0  0  0  0  0  0
   24.8459   -6.3843  -19.5889 N   0  0  0  0  0  0  0  0  0  0  0  0
   22.7353   -6.2362  -18.5128 C   0  0  0  0  0  0  0  0  0  0  0  0
   21.8856   -5.6694  -17.5794 O   0  0  0  0  0  0  0  0  0  0  0  0
   22.5023   -7.3737  -19.0019 O   0  0  0  0  0  0  0  0  0  0  0  0
  2 12  2  0
  2  1  1  0
  3  2  1  0
  4  5  1  0
  4  3  2  0
  5 11  2  0
  6  7  1  0
  6  5  1  0
  7  8  1  6
  9  7  1  0
  9 20  1  0
 10  9  2  0
 11 12  1  0
 13 14  1  0
 14 15  2  0
 15 16  1  0
 17 18  1  0
 17 16  2  0
 19 18  1  1
 19 20  1  0
 19 21  1  0
 21 28  1  0
 22 21  2  0
 23 17  1  0
 24 23  2  0
 24 14  1  0
 25 26  1  0
 27 26  1  6
 27 29  1  0
 28 27  1  0
 29 31  2  0
 29 30  1  0
M  END
$$$$
