YYS.pdb
     RDKit          3D

 31 32  0  0  1  0  0  0  0  0999 V2000
   31.2775  -10.1604  -19.3885 O   0  0  0  0  0  0  0  0  0  0  0  0
   30.0182   -9.6091  -19.1856 C   0  0  0  0  0  0  0  0  0  0  0  0
   28.9907   -9.7581  -20.0921 C   0  0  0  0  0  0  0  0  0  0  0  0
   27.7629   -9.1876  -19.8352 C   0  0  0  0  0  0  0  0  0  0  0  0
   27.5599   -8.4736  -18.6833 C   0  0  0  0  0  0  0  0  0  0  0  0
   26.2261   -7.8502  -18.3972 C   0  0  0  0  0  0  0  0  0  0  0  0
   25.3497   -8.8280  -17.6203 C   0  0  2  0  0  0  0  0  0  0  0  0
   25.1433  -10.0088  -18.4068 N   0  0  0  0  0  0  0  0  0  0  0  0
   24.1019   -8.1993  -17.1649 C   0  0  0  0  0  0  0  0  0  0  0  0
   23.1165   -8.1625  -17.9649 O   0  0  0  0  0  0  0  0  0  0  0  0
   28.5781   -8.3252  -17.7836 C   0  0  0  0  0  0  0  0  0  0  0  0
   29.8074   -8.8895  -18.0286 C   0  0  0  0  0  0  0  0  0  0  0  0
   19.9062  -12.7834  -15.9965 O   0  0  0  0  0  0  0  0  0  0  0  0
   20.4561  -11.5883  -15.5773 C   0  0  0  0  0  0  0  0  0  0  0  0
   21.7429  -11.5198  -15.0469 C   0  0  0  0  0  0  0  0  0  0  0  0
   22.2274  -10.2752  -14.6459 C   0  0  0  0  0  0  0  0  0  0  0  0
   21.4977   -9.1342  -14.7517 C   0  0  0  0  0  0  0  0  0  0  0  0
   22.0180   -7.8373  -14.3276 C   0  0  0  0  0  0  0  0  0  0  0  0
   22.6861   -7.0575  -15.4209 C   0  0  2  0  0  0  0  0  0  0  0  0
   23.9003   -7.6252  -15.8991 N   0  0  0  0  0  0  0  0  0  0  0  0
   22.8818   -5.6319  -15.0609 C   0  0  0  0  0  0  0  0  0  0  0  0
   23.9645   -5.1832  -14.6094 O   0  0  0  0  0  0  0  0  0  0  0  0
   20.2188   -9.2041  -15.2792 C   0  0  0  0  0  0  0  0  0  0  0  0
   19.7062  -10.4360  -15.6895 C   0  0  0  0  0  0  0  0  0  0  0  0
   22.7882   -1.3486  -16.0321 O   0  0  0  0  0  0  0  0  0  0  0  0
   22.7830   -2.7508  -16.1683 C   0  0  0  0  0  0  0  0  0  0  0  0
   21.9038   -3.3006  -15.0436 C   0  0  2  0  0  0  0  0  0  0  0  0
   21.8130   -4.7201  -15.2260 N   0  0  0  0  0  0  0  0  0  0  0  0
   20.5666   -2.6999  -15.2293 C   0  0  0  0  0  0  0  0  0  0  0  0
   20.3249   -1.4317  -14.7319 O   0  0  0  0  0  0  0  0  0  0  0  0
   19.6698   -3.3459  -15.8341 O   0  0  0  0  0  0  0  0  0  0  0  0
  2 12  2  0
  2  1  1  0
  3  2  1  0
  4  5  1  0
  4  3  2  0
  5 11  2  0
  6  7  1  0
  6  5  1  0
  7  8  1  6
  9  7  1  0
  9 20  1  0
 10  9  2  0
 11 12  1  0
 13 14  1  0
 14 15  2  0
 15 16  1  0
 17 18  1  0
 17 16  2  0
 19 18  1  1
 19 20  1  0
 19 21  1  0
 21 28  1  0
 22 21  2  0
 23 17  1  0
 24 23  2  0
 24 14  1  0
 25 26  1  0
 27 26  1  6
 27 29  1  0
 28 27  1  0
 29 31  2  0
 29 30  1  0
M  END
$$$$
