YYS.pdb
     RDKit          3D

 31 32  0  0  1  0  0  0  0  0999 V2000
   29.3941  -15.8332  -18.3758 O   0  0  0  0  0  0  0  0  0  0  0  0
   28.4945  -16.7228  -17.8012 C   0  0  0  0  0  0  0  0  0  0  0  0
   28.2580  -17.9764  -18.3231 C   0  0  0  0  0  0  0  0  0  0  0  0
   27.3535  -18.8146  -17.7082 C   0  0  0  0  0  0  0  0  0  0  0  0
   26.6889  -18.4070  -16.5812 C   0  0  0  0  0  0  0  0  0  0  0  0
   25.7032  -19.3142  -15.9067 C   0  0  0  0  0  0  0  0  0  0  0  0
   26.3331  -19.9365  -14.6642 C   0  0  2  0  0  0  0  0  0  0  0  0
   27.4260  -20.7775  -15.0563 N   0  0  0  0  0  0  0  0  0  0  0  0
   25.3348  -20.6203  -13.8304 C   0  0  0  0  0  0  0  0  0  0  0  0
   25.0863  -21.8432  -14.0654 O   0  0  0  0  0  0  0  0  0  0  0  0
   26.9226  -17.1641  -16.0626 C   0  0  0  0  0  0  0  0  0  0  0  0
   27.8225  -16.3189  -16.6670 C   0  0  0  0  0  0  0  0  0  0  0  0
   28.3817  -20.9876   -7.5987 O   0  0  0  0  0  0  0  0  0  0  0  0
   27.2245  -20.8235   -8.3338 C   0  0  0  0  0  0  0  0  0  0  0  0
   26.8087  -21.7710   -9.2672 C   0  0  0  0  0  0  0  0  0  0  0  0
   25.6282  -21.5329   -9.9701 C   0  0  0  0  0  0  0  0  0  0  0  0
   24.8727  -20.4198   -9.7812 C   0  0  0  0  0  0  0  0  0  0  0  0
   23.6383  -20.1834  -10.5247 C   0  0  0  0  0  0  0  0  0  0  0  0
   23.6701  -20.6803  -11.9396 C   0  0  2  0  0  0  0  0  0  0  0  0
   24.6184  -20.0287  -12.7771 N   0  0  0  0  0  0  0  0  0  0  0  0
   22.3276  -20.6788  -12.5703 C   0  0  0  0  0  0  0  0  0  0  0  0
   21.6836  -19.6263  -12.8047 O   0  0  0  0  0  0  0  0  0  0  0  0
   25.2875  -19.4789   -8.8530 C   0  0  0  0  0  0  0  0  0  0  0  0
   26.4653  -19.6894   -8.1337 C   0  0  0  0  0  0  0  0  0  0  0  0
   20.5612  -24.3240  -12.9393 O   0  0  0  0  0  0  0  0  0  0  0  0
   20.3304  -23.4896  -14.0508 C   0  0  0  0  0  0  0  0  0  0  0  0
   20.4422  -22.0479  -13.5515 C   0  0  2  0  0  0  0  0  0  0  0  0
   21.7278  -21.9079  -12.9318 N   0  0  0  0  0  0  0  0  0  0  0  0
   19.3887  -21.8786  -12.5294 C   0  0  0  0  0  0  0  0  0  0  0  0
   18.0669  -21.8090  -12.9322 O   0  0  0  0  0  0  0  0  0  0  0  0
   19.7053  -21.8002  -11.3124 O   0  0  0  0  0  0  0  0  0  0  0  0
  2 12  2  0
  2  1  1  0
  3  2  1  0
  4  5  1  0
  4  3  2  0
  5 11  2  0
  6  7  1  0
  6  5  1  0
  7  8  1  6
  9  7  1  0
  9 20  1  0
 10  9  2  0
 11 12  1  0
 13 14  1  0
 14 15  2  0
 15 16  1  0
 17 18  1  0
 17 16  2  0
 19 18  1  1
 19 20  1  0
 19 21  1  0
 21 28  1  0
 22 21  2  0
 23 17  1  0
 24 23  2  0
 24 14  1  0
 25 26  1  0
 27 26  1  1
 27 29  1  0
 28 27  1  0
 29 31  2  0
 29 30  1  0
M  END
$$$$
