YYS.pdb
     RDKit          3D

 31 32  0  0  1  0  0  0  0  0999 V2000
   23.7001  -22.0890  -24.7938 O   0  0  0  0  0  0  0  0  0  0  0  0
   23.6514  -22.1799  -23.4080 C   0  0  0  0  0  0  0  0  0  0  0  0
   24.1272  -23.2761  -22.7214 C   0  0  0  0  0  0  0  0  0  0  0  0
   24.0513  -23.3084  -21.3458 C   0  0  0  0  0  0  0  0  0  0  0  0
   23.5052  -22.2559  -20.6589 C   0  0  0  0  0  0  0  0  0  0  0  0
   23.4195  -22.2842  -19.1617 C   0  0  0  0  0  0  0  0  0  0  0  0
   24.4346  -21.3152  -18.5632 C   0  0  2  0  0  0  0  0  0  0  0  0
   25.7584  -21.8235  -18.7748 N   0  0  0  0  0  0  0  0  0  0  0  0
   24.1382  -21.0147  -17.1557 C   0  0  0  0  0  0  0  0  0  0  0  0
   24.5698  -21.8092  -16.2640 O   0  0  0  0  0  0  0  0  0  0  0  0
   23.0330  -21.1681  -21.3387 C   0  0  0  0  0  0  0  0  0  0  0  0
   23.1031  -21.1243  -22.7108 C   0  0  0  0  0  0  0  0  0  0  0  0
   28.5693  -16.8340  -17.2024 O   0  0  0  0  0  0  0  0  0  0  0  0
   27.3442  -17.1650  -16.6584 C   0  0  0  0  0  0  0  0  0  0  0  0
   26.1514  -16.6754  -17.1870 C   0  0  0  0  0  0  0  0  0  0  0  0
   24.9544  -17.0558  -16.5812 C   0  0  0  0  0  0  0  0  0  0  0  0
   24.9068  -17.8802  -15.5025 C   0  0  0  0  0  0  0  0  0  0  0  0
   23.6457  -18.2703  -14.8780 C   0  0  0  0  0  0  0  0  0  0  0  0
   23.1140  -19.5930  -15.3446 C   0  0  2  0  0  0  0  0  0  0  0  0
   23.4059  -19.9054  -16.7020 N   0  0  0  0  0  0  0  0  0  0  0  0
   21.6641  -19.7479  -15.0727 C   0  0  0  0  0  0  0  0  0  0  0  0
   20.7740  -19.3695  -15.8739 O   0  0  0  0  0  0  0  0  0  0  0  0
   26.0934  -18.3660  -14.9784 C   0  0  0  0  0  0  0  0  0  0  0  0
   27.3078  -18.0028  -15.5633 C   0  0  0  0  0  0  0  0  0  0  0  0
   20.1029  -22.8952  -13.4466 O   0  0  0  0  0  0  0  0  0  0  0  0
   19.8324  -21.8026  -12.5992 C   0  0  0  0  0  0  0  0  0  0  0  0
   19.8788  -20.5460  -13.4703 C   0  0  2  0  0  0  0  0  0  0  0  0
   21.2438  -20.3465  -13.8619 N   0  0  0  0  0  0  0  0  0  0  0  0
   19.4518  -19.4253  -12.6071 C   0  0  0  0  0  0  0  0  0  0  0  0
   18.1257  -19.3419  -12.2214 O   0  0  0  0  0  0  0  0  0  0  0  0
   20.2949  -18.5658  -12.2359 O   0  0  0  0  0  0  0  0  0  0  0  0
  2 12  2  0
  2  1  1  0
  3  2  1  0
  4  5  1  0
  4  3  2  0
  5 11  2  0
  6  7  1  0
  6  5  1  0
  7  8  1  1
  9  7  1  0
  9 20  1  0
 10  9  2  0
 11 12  1  0
 13 14  1  0
 14 15  2  0
 15 16  1  0
 17 18  1  0
 17 16  2  0
 19 18  1  6
 19 20  1  0
 19 21  1  0
 21 28  1  0
 22 21  2  0
 23 17  1  0
 24 23  2  0
 24 14  1  0
 25 26  1  0
 27 26  1  1
 27 29  1  0
 28 27  1  0
 29 31  2  0
 29 30  1  0
M  END
$$$$
