YYS.pdb
     RDKit          3D

 31 32  0  0  1  0  0  0  0  0999 V2000
   14.8081  -18.3377  -17.2598 O   0  0  0  0  0  0  0  0  0  0  0  0
   15.3020  -17.0905  -16.8973 C   0  0  0  0  0  0  0  0  0  0  0  0
   15.2187  -15.9924  -17.7261 C   0  0  0  0  0  0  0  0  0  0  0  0
   15.7271  -14.7808  -17.3107 C   0  0  0  0  0  0  0  0  0  0  0  0
   16.3143  -14.6637  -16.0781 C   0  0  0  0  0  0  0  0  0  0  0  0
   16.8695  -13.3481  -15.6194 C   0  0  0  0  0  0  0  0  0  0  0  0
   18.1070  -12.9910  -16.4373 C   0  0  2  0  0  0  0  0  0  0  0  0
   19.1271  -13.9719  -16.2078 N   0  0  0  0  0  0  0  0  0  0  0  0
   18.5492  -11.6126  -16.1846 C   0  0  0  0  0  0  0  0  0  0  0  0
   19.3439  -11.4004  -15.2171 O   0  0  0  0  0  0  0  0  0  0  0  0
   16.3975  -15.7520  -15.2552 C   0  0  0  0  0  0  0  0  0  0  0  0
   15.8941  -16.9659  -15.6583 C   0  0  0  0  0  0  0  0  0  0  0  0
   17.9766   -8.8627  -23.0858 O   0  0  0  0  0  0  0  0  0  0  0  0
   18.3946   -8.8545  -21.7699 C   0  0  0  0  0  0  0  0  0  0  0  0
   18.9228   -9.9915  -21.1616 C   0  0  0  0  0  0  0  0  0  0  0  0
   19.3226   -9.9031  -19.8287 C   0  0  0  0  0  0  0  0  0  0  0  0
   19.2176   -8.7582  -19.1049 C   0  0  0  0  0  0  0  0  0  0  0  0
   19.6404   -8.6801  -17.7093 C   0  0  0  0  0  0  0  0  0  0  0  0
   18.6085   -9.1529  -16.7288 C   0  0  2  0  0  0  0  0  0  0  0  0
   18.1627  -10.4888  -16.9331 N   0  0  0  0  0  0  0  0  0  0  0  0
   17.4546   -8.2261  -16.6305 C   0  0  0  0  0  0  0  0  0  0  0  0
   16.3922   -8.3857  -17.2811 O   0  0  0  0  0  0  0  0  0  0  0  0
   18.6924   -7.6289  -19.7111 C   0  0  0  0  0  0  0  0  0  0  0  0
   18.2833   -7.6865  -21.0445 C   0  0  0  0  0  0  0  0  0  0  0  0
   16.1360   -6.4202  -13.3548 O   0  0  0  0  0  0  0  0  0  0  0  0
   16.6637   -5.4754  -14.2569 C   0  0  0  0  0  0  0  0  0  0  0  0
   16.5368   -6.0815  -15.6557 C   0  0  2  0  0  0  0  0  0  0  0  0
   17.5340   -7.1055  -15.7709 N   0  0  0  0  0  0  0  0  0  0  0  0
   16.8430   -4.9951  -16.6093 C   0  0  0  0  0  0  0  0  0  0  0  0
   15.9799   -3.9175  -16.6997 O   0  0  0  0  0  0  0  0  0  0  0  0
   17.8790   -5.0634  -17.3230 O   0  0  0  0  0  0  0  0  0  0  0  0
  2 12  2  0
  2  1  1  0
  3  2  1  0
  4  5  1  0
  4  3  2  0
  5 11  2  0
  6  7  1  0
  6  5  1  0
  7  8  1  1
  9  7  1  0
  9 20  1  0
 10  9  2  0
 11 12  1  0
 13 14  1  0
 14 15  2  0
 15 16  1  0
 17 18  1  0
 17 16  2  0
 19 18  1  6
 19 20  1  0
 19 21  1  0
 21 28  1  0
 22 21  2  0
 23 17  1  0
 24 23  2  0
 24 14  1  0
 25 26  1  0
 27 26  1  1
 27 29  1  0
 28 27  1  0
 29 31  2  0
 29 30  1  0
M  END
$$$$
