YYS.pdb
     RDKit          3D

 31 32  0  0  1  0  0  0  0  0999 V2000
   29.1102  -19.3783   -3.7738 O   0  0  0  0  0  0  0  0  0  0  0  0
   28.4155  -19.8586   -4.8773 C   0  0  0  0  0  0  0  0  0  0  0  0
   27.0904  -20.2321   -4.8121 C   0  0  0  0  0  0  0  0  0  0  0  0
   26.4549  -20.7013   -5.9412 C   0  0  0  0  0  0  0  0  0  0  0  0
   27.1346  -20.7978   -7.1272 C   0  0  0  0  0  0  0  0  0  0  0  0
   26.4491  -21.3074   -8.3601 C   0  0  0  0  0  0  0  0  0  0  0  0
   25.5167  -20.2367   -8.9183 C   0  0  2  0  0  0  0  0  0  0  0  0
   24.2165  -20.3874   -8.3334 N   0  0  0  0  0  0  0  0  0  0  0  0
   25.5040  -20.2362  -10.3878 C   0  0  0  0  0  0  0  0  0  0  0  0
   24.4082  -20.4765  -10.9829 O   0  0  0  0  0  0  0  0  0  0  0  0
   28.4488  -20.4277   -7.1932 C   0  0  0  0  0  0  0  0  0  0  0  0
   29.0936  -19.9581   -6.0737 C   0  0  0  0  0  0  0  0  0  0  0  0
   27.6778  -16.8674  -18.2616 O   0  0  0  0  0  0  0  0  0  0  0  0
   27.7294  -17.3463  -16.9676 C   0  0  0  0  0  0  0  0  0  0  0  0
   28.4261  -18.5088  -16.6436 C   0  0  0  0  0  0  0  0  0  0  0  0
   28.4310  -18.9277  -15.3136 C   0  0  0  0  0  0  0  0  0  0  0  0
   27.7868  -18.2503  -14.3279 C   0  0  0  0  0  0  0  0  0  0  0  0
   27.8004  -18.7009  -12.9389 C   0  0  0  0  0  0  0  0  0  0  0  0
   26.5841  -19.4804  -12.5353 C   0  0  2  0  0  0  0  0  0  0  0  0
   26.6179  -19.9888  -11.2065 N   0  0  0  0  0  0  0  0  0  0  0  0
   26.2578  -20.5593  -13.4995 C   0  0  0  0  0  0  0  0  0  0  0  0
   26.8995  -21.6371  -13.5625 O   0  0  0  0  0  0  0  0  0  0  0  0
   27.0948  -17.0949  -14.6517 C   0  0  0  0  0  0  0  0  0  0  0  0
   27.0716  -16.6504  -15.9748 C   0  0  0  0  0  0  0  0  0  0  0  0
   22.7985  -22.2174  -16.3849 O   0  0  0  0  0  0  0  0  0  0  0  0
   23.2277  -21.1985  -15.5116 C   0  0  0  0  0  0  0  0  0  0  0  0
   24.7417  -21.3562  -15.3592 C   0  0  2  0  0  0  0  0  0  0  0  0
   25.1786  -20.3862  -14.3975 N   0  0  0  0  0  0  0  0  0  0  0  0
   25.3284  -21.0334  -16.6764 C   0  0  0  0  0  0  0  0  0  0  0  0
   25.9053  -22.0466  -17.4213 O   0  0  0  0  0  0  0  0  0  0  0  0
   25.2961  -19.8478  -17.1014 O   0  0  0  0  0  0  0  0  0  0  0  0
  2 12  2  0
  2  1  1  0
  3  2  1  0
  4  5  1  0
  4  3  2  0
  5 11  2  0
  6  7  1  0
  6  5  1  0
  7  8  1  1
  9  7  1  0
  9 20  1  0
 10  9  2  0
 11 12  1  0
 13 14  1  0
 14 15  2  0
 15 16  1  0
 17 18  1  0
 17 16  2  0
 19 18  1  6
 19 20  1  0
 19 21  1  0
 21 28  1  0
 22 21  2  0
 23 17  1  0
 24 23  2  0
 24 14  1  0
 25 26  1  0
 27 26  1  6
 27 29  1  0
 28 27  1  0
 29 31  2  0
 29 30  1  0
M  END
$$$$
