YYS.pdb
     RDKit          3D

 31 32  0  0  1  0  0  0  0  0999 V2000
   15.9529  -22.7408  -15.3465 O   0  0  0  0  0  0  0  0  0  0  0  0
   17.1597  -22.0739  -15.1740 C   0  0  0  0  0  0  0  0  0  0  0  0
   17.2261  -20.7300  -14.8751 C   0  0  0  0  0  0  0  0  0  0  0  0
   18.4533  -20.1239  -14.7156 C   0  0  0  0  0  0  0  0  0  0  0  0
   19.6066  -20.8513  -14.8529 C   0  0  0  0  0  0  0  0  0  0  0  0
   20.9456  -20.1980  -14.6806 C   0  0  0  0  0  0  0  0  0  0  0  0
   21.6079  -20.6970  -13.3999 C   0  0  2  0  0  0  0  0  0  0  0  0
   20.8757  -20.2123  -12.2666 N   0  0  0  0  0  0  0  0  0  0  0  0
   23.0391  -20.3657  -13.3607 C   0  0  0  0  0  0  0  0  0  0  0  0
   23.3751  -19.1638  -13.1257 O   0  0  0  0  0  0  0  0  0  0  0  0
   19.5420  -22.1840  -15.1494 C   0  0  0  0  0  0  0  0  0  0  0  0
   18.3238  -22.8000  -15.3108 C   0  0  0  0  0  0  0  0  0  0  0  0
   25.4364  -19.6320   -7.2532 O   0  0  0  0  0  0  0  0  0  0  0  0
   25.6570  -20.1160   -8.5273 C   0  0  0  0  0  0  0  0  0  0  0  0
   26.6171  -19.5560   -9.3678 C   0  0  0  0  0  0  0  0  0  0  0  0
   26.7803  -20.1013  -10.6408 C   0  0  0  0  0  0  0  0  0  0  0  0
   26.0440  -21.1508  -11.0902 C   0  0  0  0  0  0  0  0  0  0  0  0
   26.2257  -21.7118  -12.4261 C   0  0  0  0  0  0  0  0  0  0  0  0
   25.4777  -20.9840  -13.5035 C   0  0  2  0  0  0  0  0  0  0  0  0
   24.0868  -21.2786  -13.5642 N   0  0  0  0  0  0  0  0  0  0  0  0
   26.1053  -21.1474  -14.8375 C   0  0  0  0  0  0  0  0  0  0  0  0
   26.0093  -22.2014  -15.5137 O   0  0  0  0  0  0  0  0  0  0  0  0
   25.0901  -21.7062  -10.2533 C   0  0  0  0  0  0  0  0  0  0  0  0
   24.9035  -21.1819   -8.9731 C   0  0  0  0  0  0  0  0  0  0  0  0
   28.6456  -18.3033  -15.6192 O   0  0  0  0  0  0  0  0  0  0  0  0
   28.1650  -18.7408  -16.8693 C   0  0  0  0  0  0  0  0  0  0  0  0
   27.5440  -20.1208  -16.6453 C   0  0  2  0  0  0  0  0  0  0  0  0
   26.8501  -20.0797  -15.3911 N   0  0  0  0  0  0  0  0  0  0  0  0
   28.6698  -21.0728  -16.5472 C   0  0  0  0  0  0  0  0  0  0  0  0
   29.4010  -21.3680  -17.6840 O   0  0  0  0  0  0  0  0  0  0  0  0
   28.9477  -21.6000  -15.4371 O   0  0  0  0  0  0  0  0  0  0  0  0
  2 12  2  0
  2  1  1  0
  3  2  1  0
  4  5  1  0
  4  3  2  0
  5 11  2  0
  6  7  1  0
  6  5  1  0
  7  8  1  1
  9  7  1  0
  9 20  1  0
 10  9  2  0
 11 12  1  0
 13 14  1  0
 14 15  2  0
 15 16  1  0
 17 18  1  0
 17 16  2  0
 19 18  1  1
 19 20  1  0
 19 21  1  0
 21 28  1  0
 22 21  2  0
 23 17  1  0
 24 23  2  0
 24 14  1  0
 25 26  1  0
 27 26  1  1
 27 29  1  0
 28 27  1  0
 29 31  2  0
 29 30  1  0
M  END
$$$$
