YYS.pdb
     RDKit          3D

 31 32  0  0  1  0  0  0  0  0999 V2000
   25.0863    3.0112  -19.9619 O   0  0  0  0  0  0  0  0  0  0  0  0
   24.3468    1.9566  -19.4404 C   0  0  0  0  0  0  0  0  0  0  0  0
   22.9910    2.0467  -19.2094 C   0  0  0  0  0  0  0  0  0  0  0  0
   22.3115    0.9661  -18.6902 C   0  0  0  0  0  0  0  0  0  0  0  0
   22.9779   -0.1963  -18.4031 C   0  0  0  0  0  0  0  0  0  0  0  0
   22.2447   -1.3764  -17.8380 C   0  0  0  0  0  0  0  0  0  0  0  0
   21.9540   -2.3874  -18.9431 C   0  0  2  0  0  0  0  0  0  0  0  0
   21.0125   -1.8243  -19.8661 N   0  0  0  0  0  0  0  0  0  0  0  0
   21.5378   -3.6870  -18.3981 C   0  0  0  0  0  0  0  0  0  0  0  0
   20.2957   -3.9207  -18.2738 O   0  0  0  0  0  0  0  0  0  0  0  0
   24.3225   -0.2870  -18.6317 C   0  0  0  0  0  0  0  0  0  0  0  0
   25.0113    0.7841  -19.1493 C   0  0  0  0  0  0  0  0  0  0  0  0
   21.5563  -11.9632  -15.2624 O   0  0  0  0  0  0  0  0  0  0  0  0
   21.9100  -10.7609  -15.8418 C   0  0  0  0  0  0  0  0  0  0  0  0
   21.4454  -10.3901  -17.1022 C   0  0  0  0  0  0  0  0  0  0  0  0
   21.8479   -9.1592  -17.6194 C   0  0  0  0  0  0  0  0  0  0  0  0
   22.6702   -8.3131  -16.9461 C   0  0  0  0  0  0  0  0  0  0  0  0
   23.0837   -7.0268  -17.5002 C   0  0  0  0  0  0  0  0  0  0  0  0
   22.0280   -5.9634  -17.4347 C   0  0  2  0  0  0  0  0  0  0  0  0
   22.4093   -4.7121  -17.9954 N   0  0  0  0  0  0  0  0  0  0  0  0
   21.4932   -5.7803  -16.0633 C   0  0  0  0  0  0  0  0  0  0  0  0
   22.1236   -5.1794  -15.1583 O   0  0  0  0  0  0  0  0  0  0  0  0
   23.1311   -8.6833  -15.6933 C   0  0  0  0  0  0  0  0  0  0  0  0
   22.7455   -9.9096  -15.1490 C   0  0  0  0  0  0  0  0  0  0  0  0
   17.5150   -5.8697  -15.5121 O   0  0  0  0  0  0  0  0  0  0  0  0
   18.3936   -5.2749  -14.5852 C   0  0  0  0  0  0  0  0  0  0  0  0
   19.5947   -6.2127  -14.4507 C   0  0  2  0  0  0  0  0  0  0  0  0
   20.2174   -6.2985  -15.7396 N   0  0  0  0  0  0  0  0  0  0  0  0
   19.0501   -7.5366  -14.0846 C   0  0  0  0  0  0  0  0  0  0  0  0
   18.4933   -7.7105  -12.8300 O   0  0  0  0  0  0  0  0  0  0  0  0
   19.0994   -8.4838  -14.9139 O   0  0  0  0  0  0  0  0  0  0  0  0
  2 12  2  0
  2  1  1  0
  3  2  1  0
  4  5  1  0
  4  3  2  0
  5 11  2  0
  6  7  1  0
  6  5  1  0
  7  8  1  6
  9  7  1  0
  9 20  1  0
 10  9  2  0
 11 12  1  0
 13 14  1  0
 14 15  2  0
 15 16  1  0
 17 18  1  0
 17 16  2  0
 19 18  1  1
 19 20  1  0
 19 21  1  0
 21 28  1  0
 22 21  2  0
 23 17  1  0
 24 23  2  0
 24 14  1  0
 25 26  1  0
 27 26  1  6
 27 29  1  0
 28 27  1  0
 29 31  2  0
 29 30  1  0
M  END
$$$$
