YYS.pdb
     RDKit          3D

 31 32  0  0  1  0  0  0  0  0999 V2000
   15.8330  -25.1485  -19.5552 O   0  0  0  0  0  0  0  0  0  0  0  0
   17.1564  -25.5665  -19.6265 C   0  0  0  0  0  0  0  0  0  0  0  0
   17.7112  -26.0720  -20.7824 C   0  0  0  0  0  0  0  0  0  0  0  0
   19.0304  -26.4704  -20.7913 C   0  0  0  0  0  0  0  0  0  0  0  0
   19.7916  -26.3660  -19.6567 C   0  0  0  0  0  0  0  0  0  0  0  0
   21.2280  -26.7976  -19.6593 C   0  0  0  0  0  0  0  0  0  0  0  0
   22.1279  -25.6116  -19.9927 C   0  0  2  0  0  0  0  0  0  0  0  0
   21.8952  -25.2049  -21.3477 N   0  0  0  0  0  0  0  0  0  0  0  0
   23.5391  -25.8975  -19.6989 C   0  0  0  0  0  0  0  0  0  0  0  0
   24.2941  -26.2593  -20.6536 O   0  0  0  0  0  0  0  0  0  0  0  0
   19.2425  -25.8649  -18.5097 C   0  0  0  0  0  0  0  0  0  0  0  0
   17.9278  -25.4641  -18.4883 C   0  0  0  0  0  0  0  0  0  0  0  0
   31.5393  -26.3116  -16.0576 O   0  0  0  0  0  0  0  0  0  0  0  0
   30.1938  -26.0876  -16.2716 C   0  0  0  0  0  0  0  0  0  0  0  0
   29.2145  -26.8624  -15.6531 C   0  0  0  0  0  0  0  0  0  0  0  0
   27.8766  -26.5738  -15.9203 C   0  0  0  0  0  0  0  0  0  0  0  0
   27.4938  -25.5729  -16.7552 C   0  0  0  0  0  0  0  0  0  0  0  0
   26.0886  -25.2820  -17.0259 C   0  0  0  0  0  0  0  0  0  0  0  0
   25.4890  -26.1173  -18.1179 C   0  0  2  0  0  0  0  0  0  0  0  0
   24.1366  -25.8041  -18.4313 N   0  0  0  0  0  0  0  0  0  0  0  0
   25.6444  -27.5712  -17.8684 C   0  0  0  0  0  0  0  0  0  0  0  0
   24.8975  -28.2151  -17.0906 O   0  0  0  0  0  0  0  0  0  0  0  0
   28.4686  -24.8037  -17.3691 C   0  0  0  0  0  0  0  0  0  0  0  0
   29.8166  -25.0686  -17.1213 C   0  0  0  0  0  0  0  0  0  0  0  0
   26.7532  -31.6785  -19.7240 O   0  0  0  0  0  0  0  0  0  0  0  0
   26.6421  -30.2788  -19.8396 C   0  0  0  0  0  0  0  0  0  0  0  0
   26.8809  -29.7001  -18.4438 C   0  0  2  0  0  0  0  0  0  0  0  0
   26.6744  -28.2834  -18.5265 N   0  0  0  0  0  0  0  0  0  0  0  0
   28.2976  -29.9668  -18.1194 C   0  0  0  0  0  0  0  0  0  0  0  0
   28.6027  -30.9690  -17.2157 O   0  0  0  0  0  0  0  0  0  0  0  0
   29.2035  -29.2828  -18.6662 O   0  0  0  0  0  0  0  0  0  0  0  0
  2 12  2  0
  2  1  1  0
  3  2  1  0
  4  5  1  0
  4  3  2  0
  5 11  2  0
  6  7  1  0
  6  5  1  0
  7  8  1  6
  9  7  1  0
  9 20  1  0
 10  9  2  0
 11 12  1  0
 13 14  1  0
 14 15  2  0
 15 16  1  0
 17 18  1  0
 17 16  2  0
 19 18  1  1
 19 20  1  0
 19 21  1  0
 21 28  1  0
 22 21  2  0
 23 17  1  0
 24 23  2  0
 24 14  1  0
 25 26  1  0
 27 26  1  6
 27 29  1  0
 28 27  1  0
 29 31  2  0
 29 30  1  0
M  END
$$$$
