HEY.pdb
     RDKit          3D

 32 33  0  0  1  0  0  0  0  0999 V2000
    8.2470  -16.9936   18.2094 N   0  0  0  0  0  0  0  0  0  0  0  0
    9.1379  -16.1961   19.0212 C   0  0  1  0  0  0  0  0  0  0  0  0
    8.3152  -15.0377   19.5757 C   0  0  0  0  0  0  0  0  0  0  0  0
    7.8806  -14.1058   18.5026 C   0  0  0  0  0  0  0  0  0  0  0  0
    8.3781  -12.8348   18.2915 C   0  0  0  0  0  0  0  0  0  0  0  0
    7.7221  -12.3448   17.2379 N   0  0  0  0  0  0  0  0  0  0  0  0
    6.8399  -13.2586   16.7880 C   0  0  0  0  0  0  0  0  0  0  0  0
    6.9423  -14.3450   17.5732 N   0  0  0  0  0  0  0  0  0  0  0  0
    9.5655  -16.9969   20.1901 C   0  0  0  0  0  0  0  0  0  0  0  0
    8.6937  -17.6450   20.8172 O   0  0  0  0  0  0  0  0  0  0  0  0
   10.9118  -17.0599   20.6274 N   0  0  0  0  0  0  0  0  0  0  0  0
   11.3208  -17.9140   21.7330 C   0  0  1  0  0  0  0  0  0  0  0  0
   12.4245  -18.8291   21.3454 C   0  0  0  0  0  0  0  0  0  0  0  0
   13.5833  -18.2283   20.6430 C   0  0  0  0  0  0  0  0  0  0  0  0
   14.6482  -19.2247   20.4424 C   0  0  0  0  0  0  0  0  0  0  0  0
   15.2834  -19.1734   19.3599 O   0  0  0  0  0  0  0  0  0  0  0  0
   11.5211  -17.1236   22.9580 C   0  0  0  0  0  0  0  0  0  0  0  0
   12.2169  -16.0572   22.9630 O   0  0  0  0  0  0  0  0  0  0  0  0
   14.9513  -20.1916   21.4047 O   0  0  0  0  0  0  0  0  0  0  0  0
   10.4282  -14.3067   31.2894 O   0  0  0  0  0  0  0  0  0  0  0  0
   10.3089  -14.8039   29.9775 C   0  0  0  0  0  0  0  0  0  0  0  0
   10.1877  -13.9748   28.9061 C   0  0  0  0  0  0  0  0  0  0  0  0
   10.0727  -14.5215   27.6269 C   0  0  0  0  0  0  0  0  0  0  0  0
   10.0796  -15.8833   27.4291 C   0  0  0  0  0  0  0  0  0  0  0  0
    9.9533  -16.4430   26.0960 C   0  0  0  0  0  0  0  0  0  0  0  0
   11.2852  -16.8503   25.4571 C   0  0  2  0  0  0  0  0  0  0  0  0
   10.9529  -17.4908   24.2089 N   0  0  0  0  0  0  0  0  0  0  0  0
   12.1034  -17.6427   26.3676 C   0  0  0  0  0  0  0  0  0  0  0  0
   11.8587  -18.9580   26.7175 O   0  0  0  0  0  0  0  0  0  0  0  0
   10.2033  -16.6982   28.5296 C   0  0  0  0  0  0  0  0  0  0  0  0
   10.3195  -16.1634   29.8176 C   0  0  0  0  0  0  0  0  0  0  0  0
   13.1335  -17.1265   26.9090 O   0  0  0  0  0  0  0  0  0  0  0  0
  2  1  1  6
  3  2  1  0
  3  4  1  0
  4  5  2  0
  5  6  1  0
  7  6  1  0
  8  4  1  0
  8  7  2  0
  9 11  1  0
  9  2  1  0
 10  9  2  0
 12 11  1  0
 13 14  1  0
 12 13  1  6
 14 15  1  0
 15 16  2  0
 15 19  1  0
 17 27  1  0
 17 12  1  0
 18 17  2  0
 20 21  1  0
 21 31  2  0
 21 22  1  0
 22 23  2  0
 23 24  1  0
 24 25  1  0
 26 25  1  1
 26 27  1  0
 26 28  1  0
 28 29  1  0
 30 24  2  0
 31 30  1  0
 32 28  2  0
M  END
$$$$
