HEY.pdb
     RDKit          3D

 32 33  0  0  1  0  0  0  0  0999 V2000
    8.8705  -16.7961   19.7689 N   0  0  0  0  0  0  0  0  0  0  0  0
    9.1991  -15.8910   20.8466 C   0  0  1  0  0  0  0  0  0  0  0  0
    7.9885  -14.9860   21.0505 C   0  0  0  0  0  0  0  0  0  0  0  0
    7.7626  -14.0946   19.8829 C   0  0  0  0  0  0  0  0  0  0  0  0
    8.2074  -12.7921   19.7679 C   0  0  0  0  0  0  0  0  0  0  0  0
    7.7931  -12.3574   18.5763 N   0  0  0  0  0  0  0  0  0  0  0  0
    7.1110  -13.3356   17.9490 C   0  0  0  0  0  0  0  0  0  0  0  0
    7.0954  -14.4069   18.7610 N   0  0  0  0  0  0  0  0  0  0  0  0
    9.3489  -16.6697   22.0963 C   0  0  0  0  0  0  0  0  0  0  0  0
    8.5747  -17.6374   22.2897 O   0  0  0  0  0  0  0  0  0  0  0  0
   10.3254  -16.3674   23.0776 N   0  0  0  0  0  0  0  0  0  0  0  0
   10.6068  -17.2704   24.1842 C   0  0  1  0  0  0  0  0  0  0  0  0
   11.7405  -18.1805   23.8801 C   0  0  0  0  0  0  0  0  0  0  0  0
   12.4375  -17.9807   22.5874 C   0  0  0  0  0  0  0  0  0  0  0  0
   13.6332  -18.8349   22.4996 C   0  0  0  0  0  0  0  0  0  0  0  0
   13.6357  -19.7268   21.6151 O   0  0  0  0  0  0  0  0  0  0  0  0
   10.6780  -16.5331   25.4558 C   0  0  0  0  0  0  0  0  0  0  0  0
   11.3816  -15.4794   25.5827 O   0  0  0  0  0  0  0  0  0  0  0  0
   14.7260  -18.6729   23.3553 O   0  0  0  0  0  0  0  0  0  0  0  0
    6.8766  -11.7085   24.7334 O   0  0  0  0  0  0  0  0  0  0  0  0
    7.3520  -12.6913   25.6224 C   0  0  0  0  0  0  0  0  0  0  0  0
    8.3320  -12.4244   26.5271 C   0  0  0  0  0  0  0  0  0  0  0  0
    8.7659  -13.4363   27.3850 C   0  0  0  0  0  0  0  0  0  0  0  0
    8.2210  -14.6989   27.3332 C   0  0  0  0  0  0  0  0  0  0  0  0
    8.6827  -15.7466   28.2251 C   0  0  0  0  0  0  0  0  0  0  0  0
   10.0808  -16.2807   27.8961 C   0  0  2  0  0  0  0  0  0  0  0  0
    9.9687  -16.9404   26.6191 N   0  0  0  0  0  0  0  0  0  0  0  0
   10.6167  -17.0992   28.9774 C   0  0  0  0  0  0  0  0  0  0  0  0
   11.0073  -16.6249   30.2162 O   0  0  0  0  0  0  0  0  0  0  0  0
    7.2320  -14.9414   26.4093 C   0  0  0  0  0  0  0  0  0  0  0  0
    6.7876  -13.9360   25.5431 C   0  0  0  0  0  0  0  0  0  0  0  0
   10.7559  -18.3542   28.8153 O   0  0  0  0  0  0  0  0  0  0  0  0
  2  1  1  6
  3  2  1  0
  3  4  1  0
  4  5  2  0
  5  6  1  0
  7  6  1  0
  8  4  1  0
  8  7  2  0
  9 11  1  0
  9  2  1  0
 10  9  2  0
 12 11  1  0
 13 14  1  0
 12 13  1  6
 14 15  1  0
 15 16  2  0
 15 19  1  0
 17 27  1  0
 17 12  1  0
 18 17  2  0
 20 21  1  0
 21 31  2  0
 21 22  1  0
 22 23  2  0
 23 24  1  0
 24 25  1  0
 26 25  1  1
 26 27  1  0
 26 28  1  0
 28 29  1  0
 30 24  2  0
 31 30  1  0
 32 28  2  0
M  END
$$$$
