HEY.pdb
     RDKit          3D

 32 33  0  0  1  0  0  0  0  0999 V2000
    7.3592  -16.9346   19.8843 N   0  0  0  0  0  0  0  0  0  0  0  0
    8.4344  -16.1240   20.4092 C   0  0  1  0  0  0  0  0  0  0  0  0
    7.8199  -14.7953   20.8371 C   0  0  0  0  0  0  0  0  0  0  0  0
    7.7525  -13.8295   19.7094 C   0  0  0  0  0  0  0  0  0  0  0  0
    8.1342  -14.0864   18.4071 C   0  0  0  0  0  0  0  0  0  0  0  0
    7.9141  -12.9623   17.7225 N   0  0  0  0  0  0  0  0  0  0  0  0
    7.4124  -12.0209   18.5458 C   0  0  0  0  0  0  0  0  0  0  0  0
    7.3144  -12.5624   19.7724 N   0  0  0  0  0  0  0  0  0  0  0  0
    8.9522  -16.7569   21.6428 C   0  0  0  0  0  0  0  0  0  0  0  0
    8.1330  -17.3067   22.4173 O   0  0  0  0  0  0  0  0  0  0  0  0
   10.3278  -16.7660   21.9826 N   0  0  0  0  0  0  0  0  0  0  0  0
   10.8331  -17.5240   23.1181 C   0  0  1  0  0  0  0  0  0  0  0  0
   12.2379  -17.9592   22.9108 C   0  0  0  0  0  0  0  0  0  0  0  0
   12.8566  -18.7741   23.9832 C   0  0  0  0  0  0  0  0  0  0  0  0
   14.2522  -19.1043   23.6510 C   0  0  0  0  0  0  0  0  0  0  0  0
   15.1072  -18.1971   23.8048 O   0  0  0  0  0  0  0  0  0  0  0  0
   10.5389  -16.8307   24.3823 C   0  0  0  0  0  0  0  0  0  0  0  0
   10.7916  -15.5933   24.5442 O   0  0  0  0  0  0  0  0  0  0  0  0
   14.6254  -20.3675   23.1842 O   0  0  0  0  0  0  0  0  0  0  0  0
    6.1471  -11.6178   25.5695 O   0  0  0  0  0  0  0  0  0  0  0  0
    6.6261  -12.9086   25.8637 C   0  0  0  0  0  0  0  0  0  0  0  0
    6.1511  -14.0113   25.2244 C   0  0  0  0  0  0  0  0  0  0  0  0
    6.6616  -15.2675   25.5552 C   0  0  0  0  0  0  0  0  0  0  0  0
    7.6364  -15.4119   26.5157 C   0  0  0  0  0  0  0  0  0  0  0  0
    8.1570  -16.7228   26.8576 C   0  0  0  0  0  0  0  0  0  0  0  0
    9.6816  -16.8388   26.7573 C   0  0  2  0  0  0  0  0  0  0  0  0
    9.9533  -17.4882   25.4991 N   0  0  0  0  0  0  0  0  0  0  0  0
   10.2544  -17.4868   27.9314 C   0  0  0  0  0  0  0  0  0  0  0  0
   10.3632  -16.9117   29.1843 O   0  0  0  0  0  0  0  0  0  0  0  0
    8.0986  -14.2808   27.1463 C   0  0  0  0  0  0  0  0  0  0  0  0
    7.5956  -13.0152   26.8243 C   0  0  0  0  0  0  0  0  0  0  0  0
   10.7041  -18.6747   27.8456 O   0  0  0  0  0  0  0  0  0  0  0  0
  2  1  1  1
  3  2  1  0
  3  4  1  0
  4  5  2  0
  5  6  1  0
  7  6  1  0
  8  4  1  0
  8  7  2  0
  9 11  1  0
  9  2  1  0
 10  9  2  0
 12 11  1  0
 13 14  1  0
 12 13  1  6
 14 15  1  0
 15 16  2  0
 15 19  1  0
 17 27  1  0
 17 12  1  0
 18 17  2  0
 20 21  1  0
 21 31  2  0
 21 22  1  0
 22 23  2  0
 23 24  1  0
 24 25  1  0
 26 25  1  1
 26 27  1  0
 26 28  1  0
 28 29  1  0
 30 24  2  0
 31 30  1  0
 32 28  2  0
M  END
$$$$
