HEY.pdb
     RDKit          3D

 32 33  0  0  1  0  0  0  0  0999 V2000
   10.0218  -15.1894   20.5442 N   0  0  0  0  0  0  0  0  0  0  0  0
    9.1069  -14.6941   21.5473 C   0  0  1  0  0  0  0  0  0  0  0  0
    7.7024  -14.8145   20.9648 C   0  0  0  0  0  0  0  0  0  0  0  0
    7.5932  -14.1430   19.6435 C   0  0  0  0  0  0  0  0  0  0  0  0
    7.5565  -12.7780   19.4360 C   0  0  0  0  0  0  0  0  0  0  0  0
    7.4542  -12.6011   18.1174 N   0  0  0  0  0  0  0  0  0  0  0  0
    7.4261  -13.7984   17.5001 C   0  0  0  0  0  0  0  0  0  0  0  0
    7.5125  -14.7478   18.4480 N   0  0  0  0  0  0  0  0  0  0  0  0
    9.1477  -15.5968   22.7194 C   0  0  0  0  0  0  0  0  0  0  0  0
    8.1840  -15.5722   23.5219 O   0  0  0  0  0  0  0  0  0  0  0  0
   10.2253  -16.4819   22.9704 N   0  0  0  0  0  0  0  0  0  0  0  0
   10.2979  -17.2773   24.1876 C   0  0  1  0  0  0  0  0  0  0  0  0
   11.1793  -18.4613   24.0221 C   0  0  0  0  0  0  0  0  0  0  0  0
   10.9230  -19.3345   22.8522 C   0  0  0  0  0  0  0  0  0  0  0  0
   11.9528  -20.3808   22.7441 C   0  0  0  0  0  0  0  0  0  0  0  0
   12.4888  -20.5423   21.6196 O   0  0  0  0  0  0  0  0  0  0  0  0
   10.5577  -16.4220   25.3565 C   0  0  0  0  0  0  0  0  0  0  0  0
   11.4370  -15.5013   25.3329 O   0  0  0  0  0  0  0  0  0  0  0  0
   12.3289  -21.1681   23.8356 O   0  0  0  0  0  0  0  0  0  0  0  0
    6.0617  -12.0453   24.7019 O   0  0  0  0  0  0  0  0  0  0  0  0
    6.7903  -12.8250   25.6203 C   0  0  0  0  0  0  0  0  0  0  0  0
    7.8633  -12.3253   26.2905 C   0  0  0  0  0  0  0  0  0  0  0  0
    8.5498  -13.1425   27.1902 C   0  0  0  0  0  0  0  0  0  0  0  0
    8.1615  -14.4439   27.4122 C   0  0  0  0  0  0  0  0  0  0  0  0
    8.8850  -15.2881   28.3450 C   0  0  0  0  0  0  0  0  0  0  0  0
   10.1952  -15.8575   27.7907 C   0  0  2  0  0  0  0  0  0  0  0  0
    9.8479  -16.5606   26.5810 N   0  0  0  0  0  0  0  0  0  0  0  0
   10.9088  -16.6459   28.7886 C   0  0  0  0  0  0  0  0  0  0  0  0
   11.1877  -17.9964   28.6854 O   0  0  0  0  0  0  0  0  0  0  0  0
    7.0736  -14.9233   26.7216 C   0  0  0  0  0  0  0  0  0  0  0  0
    6.3763  -14.1149   25.8167 C   0  0  0  0  0  0  0  0  0  0  0  0
   11.3264  -16.0921   29.8562 O   0  0  0  0  0  0  0  0  0  0  0  0
  2  1  1  6
  3  2  1  0
  3  4  1  0
  4  5  2  0
  5  6  1  0
  7  6  1  0
  8  4  1  0
  8  7  2  0
  9 11  1  0
  9  2  1  0
 10  9  2  0
 12 11  1  0
 13 14  1  0
 12 13  1  6
 14 15  1  0
 15 16  2  0
 15 19  1  0
 17 27  1  0
 17 12  1  0
 18 17  2  0
 20 21  1  0
 21 31  2  0
 21 22  1  0
 22 23  2  0
 23 24  1  0
 24 25  1  0
 26 25  1  1
 26 27  1  0
 26 28  1  0
 28 29  1  0
 30 24  2  0
 31 30  1  0
 32 28  2  0
M  END
$$$$
