HEY.pdb
     RDKit          3D

 32 33  0  0  1  0  0  0  0  0999 V2000
    8.3698  -17.1721   18.1076 N   0  0  0  0  0  0  0  0  0  0  0  0
    9.2287  -16.2335   18.7929 C   0  0  1  0  0  0  0  0  0  0  0  0
    8.3279  -15.1434   19.3643 C   0  0  0  0  0  0  0  0  0  0  0  0
    7.7602  -14.2801   18.2960 C   0  0  0  0  0  0  0  0  0  0  0  0
    8.1493  -12.9844   18.0178 C   0  0  0  0  0  0  0  0  0  0  0  0
    7.3947  -12.5769   16.9955 N   0  0  0  0  0  0  0  0  0  0  0  0
    6.5554  -13.5653   16.6291 C   0  0  0  0  0  0  0  0  0  0  0  0
    6.7857  -14.6155   17.4360 N   0  0  0  0  0  0  0  0  0  0  0  0
    9.8467  -16.9108   19.9548 C   0  0  0  0  0  0  0  0  0  0  0  0
    9.1141  -17.6139   20.6912 O   0  0  0  0  0  0  0  0  0  0  0  0
   11.2241  -16.7971   20.2673 N   0  0  0  0  0  0  0  0  0  0  0  0
   11.8313  -17.5589   21.3490 C   0  0  1  0  0  0  0  0  0  0  0  0
   13.0689  -18.2525   20.9095 C   0  0  0  0  0  0  0  0  0  0  0  0
   13.7747  -19.0768   21.9191 C   0  0  0  0  0  0  0  0  0  0  0  0
   14.9942  -19.6725   21.3490 C   0  0  0  0  0  0  0  0  0  0  0  0
   14.8538  -20.7096   20.6543 O   0  0  0  0  0  0  0  0  0  0  0  0
   11.9322  -16.7439   22.5701 C   0  0  0  0  0  0  0  0  0  0  0  0
   12.4887  -15.5985   22.5690 O   0  0  0  0  0  0  0  0  0  0  0  0
   16.2600  -19.1200   21.5620 O   0  0  0  0  0  0  0  0  0  0  0  0
   10.6038  -14.2051   30.9673 O   0  0  0  0  0  0  0  0  0  0  0  0
   10.5379  -14.7942   29.6903 C   0  0  0  0  0  0  0  0  0  0  0  0
   10.7282  -16.1285   29.5068 C   0  0  0  0  0  0  0  0  0  0  0  0
   10.6517  -16.6602   28.2185 C   0  0  0  0  0  0  0  0  0  0  0  0
   10.3873  -15.8603   27.1304 C   0  0  0  0  0  0  0  0  0  0  0  0
   10.3157  -16.4209   25.7936 C   0  0  0  0  0  0  0  0  0  0  0  0
   11.6634  -16.4881   25.0677 C   0  0  2  0  0  0  0  0  0  0  0  0
   11.4161  -17.1735   23.8236 N   0  0  0  0  0  0  0  0  0  0  0  0
   12.7028  -17.0726   25.9071 C   0  0  0  0  0  0  0  0  0  0  0  0
   13.6073  -16.3558   26.6690 O   0  0  0  0  0  0  0  0  0  0  0  0
   10.1991  -14.5152   27.3443 C   0  0  0  0  0  0  0  0  0  0  0  0
   10.2730  -13.9690   28.6306 C   0  0  0  0  0  0  0  0  0  0  0  0
   12.8277  -18.3377   25.9755 O   0  0  0  0  0  0  0  0  0  0  0  0
  2  1  1  1
  3  2  1  0
  3  4  1  0
  4  5  2  0
  5  6  1  0
  7  6  1  0
  8  4  1  0
  8  7  2  0
  9 11  1  0
  9  2  1  0
 10  9  2  0
 12 11  1  0
 13 14  1  0
 12 13  1  6
 14 15  1  0
 15 16  2  0
 15 19  1  0
 17 27  1  0
 17 12  1  0
 18 17  2  0
 20 21  1  0
 21 31  2  0
 21 22  1  0
 22 23  2  0
 23 24  1  0
 24 25  1  0
 26 25  1  1
 26 27  1  0
 26 28  1  0
 28 29  1  0
 30 24  2  0
 31 30  1  0
 32 28  2  0
M  END
$$$$
