HEY.pdb
     RDKit          3D

 32 33  0  0  1  0  0  0  0  0999 V2000
   10.1871  -15.5169   17.8186 N   0  0  0  0  0  0  0  0  0  0  0  0
    9.2450  -14.9765   18.7720 C   0  0  1  0  0  0  0  0  0  0  0  0
    7.8523  -15.1841   18.1858 C   0  0  0  0  0  0  0  0  0  0  0  0
    7.8111  -14.8663   16.7345 C   0  0  0  0  0  0  0  0  0  0  0  0
    7.7025  -13.6011   16.1913 C   0  0  0  0  0  0  0  0  0  0  0  0
    7.7004  -13.7600   14.8665 N   0  0  0  0  0  0  0  0  0  0  0  0
    7.8032  -15.0697   14.5667 C   0  0  0  0  0  0  0  0  0  0  0  0
    7.8715  -15.7487   15.7249 N   0  0  0  0  0  0  0  0  0  0  0  0
    9.2983  -15.7871   20.0092 C   0  0  0  0  0  0  0  0  0  0  0  0
    8.3594  -15.6753   20.8335 O   0  0  0  0  0  0  0  0  0  0  0  0
   10.3611  -16.6783   20.2987 N   0  0  0  0  0  0  0  0  0  0  0  0
   10.4405  -17.3929   21.5646 C   0  0  1  0  0  0  0  0  0  0  0  0
   11.5898  -18.3332   21.5970 C   0  0  0  0  0  0  0  0  0  0  0  0
   11.7694  -19.1361   22.8299 C   0  0  0  0  0  0  0  0  0  0  0  0
   12.9005  -20.0675   22.6882 C   0  0  0  0  0  0  0  0  0  0  0  0
   13.4630  -20.1183   21.5662 O   0  0  0  0  0  0  0  0  0  0  0  0
   10.3193  -16.4629   22.6986 C   0  0  0  0  0  0  0  0  0  0  0  0
   11.1525  -15.5182   22.8845 O   0  0  0  0  0  0  0  0  0  0  0  0
   13.3413  -20.8668   23.7463 O   0  0  0  0  0  0  0  0  0  0  0  0
    6.3667  -10.9657   28.2381 O   0  0  0  0  0  0  0  0  0  0  0  0
    6.7897  -11.8894   27.2633 C   0  0  0  0  0  0  0  0  0  0  0  0
    8.0725  -11.9167   26.8120 C   0  0  0  0  0  0  0  0  0  0  0  0
    8.4380  -12.8539   25.8443 C   0  0  0  0  0  0  0  0  0  0  0  0
    7.5254  -13.7508   25.3383 C   0  0  0  0  0  0  0  0  0  0  0  0
    7.9129  -14.7178   24.3278 C   0  0  0  0  0  0  0  0  0  0  0  0
    9.0890  -15.6126   24.7331 C   0  0  2  0  0  0  0  0  0  0  0  0
    9.2698  -16.5518   23.6542 N   0  0  0  0  0  0  0  0  0  0  0  0
    8.8904  -16.2052   26.0506 C   0  0  0  0  0  0  0  0  0  0  0  0
    9.4062  -15.7075   27.2332 O   0  0  0  0  0  0  0  0  0  0  0  0
    6.2356  -13.7013   25.8120 C   0  0  0  0  0  0  0  0  0  0  0  0
    5.8556  -12.7668   26.7820 C   0  0  0  0  0  0  0  0  0  0  0  0
    8.1962  -17.2654   26.1724 O   0  0  0  0  0  0  0  0  0  0  0  0
  2  1  1  6
  3  2  1  0
  3  4  1  0
  4  5  2  0
  5  6  1  0
  7  6  1  0
  8  4  1  0
  8  7  2  0
  9 11  1  0
  9  2  1  0
 10  9  2  0
 12 11  1  0
 13 14  1  0
 12 13  1  1
 14 15  1  0
 15 16  2  0
 15 19  1  0
 17 27  1  0
 17 12  1  0
 18 17  2  0
 20 21  1  0
 21 31  2  0
 21 22  1  0
 22 23  2  0
 23 24  1  0
 24 25  1  0
 26 25  1  6
 26 27  1  0
 26 28  1  0
 28 29  1  0
 30 24  2  0
 31 30  1  0
 32 28  2  0
M  END
$$$$
