HEY.pdb
     RDKit          3D

 32 33  0  0  1  0  0  0  0  0999 V2000
   12.4997  -17.9674   17.0167 N   0  0  0  0  0  0  0  0  0  0  0  0
   13.0077  -19.0538   17.8230 C   0  0  1  0  0  0  0  0  0  0  0  0
   14.4093  -19.3687   17.3106 C   0  0  0  0  0  0  0  0  0  0  0  0
   14.3854  -19.8778   15.9145 C   0  0  0  0  0  0  0  0  0  0  0  0
   14.0549  -21.1635   15.5332 C   0  0  0  0  0  0  0  0  0  0  0  0
   14.1600  -21.1997   14.2034 N   0  0  0  0  0  0  0  0  0  0  0  0
   14.5412  -19.9911   13.7457 C   0  0  0  0  0  0  0  0  0  0  0  0
   14.6789  -19.1780   14.8074 N   0  0  0  0  0  0  0  0  0  0  0  0
   13.1728  -18.5797   19.2153 C   0  0  0  0  0  0  0  0  0  0  0  0
   14.2098  -17.9360   19.5045 O   0  0  0  0  0  0  0  0  0  0  0  0
   12.2129  -18.8228   20.2287 N   0  0  0  0  0  0  0  0  0  0  0  0
   12.3922  -18.3356   21.5888 C   0  0  1  0  0  0  0  0  0  0  0  0
   11.2686  -17.4630   22.0157 C   0  0  0  0  0  0  0  0  0  0  0  0
   11.3159  -16.9310   23.3983 C   0  0  0  0  0  0  0  0  0  0  0  0
   10.1394  -16.0912   23.6768 C   0  0  0  0  0  0  0  0  0  0  0  0
   10.0836  -15.5398   24.8041 O   0  0  0  0  0  0  0  0  0  0  0  0
   12.7509  -19.4374   22.4959 C   0  0  0  0  0  0  0  0  0  0  0  0
   12.0573  -20.5030   22.5655 O   0  0  0  0  0  0  0  0  0  0  0  0
    9.1208  -15.9053   22.7383 O   0  0  0  0  0  0  0  0  0  0  0  0
   15.2084  -24.2864   19.4789 O   0  0  0  0  0  0  0  0  0  0  0  0
   15.2844  -23.4464   20.6062 C   0  0  0  0  0  0  0  0  0  0  0  0
   15.8671  -22.2188   20.5460 C   0  0  0  0  0  0  0  0  0  0  0  0
   15.9151  -21.4267   21.6943 C   0  0  0  0  0  0  0  0  0  0  0  0
   15.3840  -21.8640   22.8861 C   0  0  0  0  0  0  0  0  0  0  0  0
   15.4439  -21.0361   24.0766 C   0  0  0  0  0  0  0  0  0  0  0  0
   14.1282  -20.3277   24.4158 C   0  0  2  0  0  0  0  0  0  0  0  0
   13.8893  -19.3902   23.3469 N   0  0  0  0  0  0  0  0  0  0  0  0
   14.1512  -19.7542   25.7564 C   0  0  0  0  0  0  0  0  0  0  0  0
   13.9776  -18.4145   26.0521 O   0  0  0  0  0  0  0  0  0  0  0  0
   14.8009  -23.1087   22.9188 C   0  0  0  0  0  0  0  0  0  0  0  0
   14.7460  -23.9132   21.7750 C   0  0  0  0  0  0  0  0  0  0  0  0
   14.3443  -20.5056   26.7658 O   0  0  0  0  0  0  0  0  0  0  0  0
  2  1  1  6
  3  2  1  0
  3  4  1  0
  4  5  2  0
  5  6  1  0
  7  6  1  0
  8  4  1  0
  8  7  2  0
  9 11  1  0
  9  2  1  0
 10  9  2  0
 12 11  1  0
 13 14  1  0
 12 13  1  1
 14 15  1  0
 15 16  2  0
 15 19  1  0
 17 27  1  0
 17 12  1  0
 18 17  2  0
 20 21  1  0
 21 31  2  0
 21 22  1  0
 22 23  2  0
 23 24  1  0
 24 25  1  0
 26 25  1  6
 26 27  1  0
 26 28  1  0
 28 29  1  0
 30 24  2  0
 31 30  1  0
 32 28  2  0
M  END
$$$$
