HEY.pdb
     RDKit          3D

 32 33  0  0  1  0  0  0  0  0999 V2000
    8.6442  -16.8253   19.8686 N   0  0  0  0  0  0  0  0  0  0  0  0
    9.1779  -15.8759   20.8185 C   0  0  1  0  0  0  0  0  0  0  0  0
    8.0760  -14.8583   21.0953 C   0  0  0  0  0  0  0  0  0  0  0  0
    7.7668  -14.0389   19.8945 C   0  0  0  0  0  0  0  0  0  0  0  0
    8.1379  -12.7225   19.7023 C   0  0  0  0  0  0  0  0  0  0  0  0
    7.6642  -12.3695   18.5058 N   0  0  0  0  0  0  0  0  0  0  0  0
    7.0160  -13.4116   17.9494 C   0  0  0  0  0  0  0  0  0  0  0  0
    7.0827  -14.4406   18.8119 N   0  0  0  0  0  0  0  0  0  0  0  0
    9.4300  -16.5718   22.1002 C   0  0  0  0  0  0  0  0  0  0  0  0
    8.5166  -17.2867   22.5776 O   0  0  0  0  0  0  0  0  0  0  0  0
   10.6539  -16.4632   22.8057 N   0  0  0  0  0  0  0  0  0  0  0  0
   10.9705  -17.3298   23.9318 C   0  0  1  0  0  0  0  0  0  0  0  0
   12.2731  -18.0196   23.7490 C   0  0  0  0  0  0  0  0  0  0  0  0
   12.4300  -18.8531   22.5334 C   0  0  0  0  0  0  0  0  0  0  0  0
   13.7895  -19.4121   22.4536 C   0  0  0  0  0  0  0  0  0  0  0  0
   14.0145  -20.4646   23.1011 O   0  0  0  0  0  0  0  0  0  0  0  0
   10.7738  -16.6227   25.2073 C   0  0  0  0  0  0  0  0  0  0  0  0
   11.4112  -15.5571   25.4897 O   0  0  0  0  0  0  0  0  0  0  0  0
   14.7964  -18.8100   21.6945 O   0  0  0  0  0  0  0  0  0  0  0  0
    7.0541  -11.1339   25.2625 O   0  0  0  0  0  0  0  0  0  0  0  0
    7.3328  -12.3815   25.8524 C   0  0  0  0  0  0  0  0  0  0  0  0
    6.4860  -13.4384   25.7254 C   0  0  0  0  0  0  0  0  0  0  0  0
    6.8116  -14.6531   26.3310 C   0  0  0  0  0  0  0  0  0  0  0  0
    7.9730  -14.8019   27.0540 C   0  0  0  0  0  0  0  0  0  0  0  0
    8.3004  -16.0670   27.6854 C   0  0  0  0  0  0  0  0  0  0  0  0
    9.7627  -16.4930   27.5174 C   0  0  2  0  0  0  0  0  0  0  0  0
    9.8633  -17.0744   26.2019 N   0  0  0  0  0  0  0  0  0  0  0  0
   10.2084  -17.3457   28.6131 C   0  0  0  0  0  0  0  0  0  0  0  0
   10.4356  -16.9220   29.9097 O   0  0  0  0  0  0  0  0  0  0  0  0
    8.8108  -13.7176   27.1663 C   0  0  0  0  0  0  0  0  0  0  0  0
    8.4967  -12.4939   26.5642 C   0  0  0  0  0  0  0  0  0  0  0  0
   10.4195  -18.5844   28.4089 O   0  0  0  0  0  0  0  0  0  0  0  0
  2  1  1  6
  3  2  1  0
  3  4  1  0
  4  5  2  0
  5  6  1  0
  7  6  1  0
  8  4  1  0
  8  7  2  0
  9 11  1  0
  9  2  1  0
 10  9  2  0
 12 11  1  0
 13 14  1  0
 12 13  1  6
 14 15  1  0
 15 16  2  0
 15 19  1  0
 17 27  1  0
 17 12  1  0
 18 17  2  0
 20 21  1  0
 21 31  2  0
 21 22  1  0
 22 23  2  0
 23 24  1  0
 24 25  1  0
 26 25  1  1
 26 27  1  0
 26 28  1  0
 28 29  1  0
 30 24  2  0
 31 30  1  0
 32 28  2  0
M  END
$$$$
