HEY.pdb
     RDKit          3D

 32 33  0  0  1  0  0  0  0  0999 V2000
    7.5654  -16.8926   18.9601 N   0  0  0  0  0  0  0  0  0  0  0  0
    8.9010  -16.3744   19.1504 C   0  0  1  0  0  0  0  0  0  0  0  0
    8.7894  -14.8533   19.1600 C   0  0  0  0  0  0  0  0  0  0  0  0
    8.4443  -14.3165   17.8177 C   0  0  0  0  0  0  0  0  0  0  0  0
    7.3175  -13.5783   17.5124 C   0  0  0  0  0  0  0  0  0  0  0  0
    7.3927  -13.2996   16.2096 N   0  0  0  0  0  0  0  0  0  0  0  0
    8.5180  -13.8337   15.6959 C   0  0  0  0  0  0  0  0  0  0  0  0
    9.1642  -14.4608   16.6941 N   0  0  0  0  0  0  0  0  0  0  0  0
    9.3774  -16.7628   20.4967 C   0  0  0  0  0  0  0  0  0  0  0  0
    8.5231  -16.9900   21.3866 O   0  0  0  0  0  0  0  0  0  0  0  0
   10.7515  -16.8870   20.8193 N   0  0  0  0  0  0  0  0  0  0  0  0
   11.1947  -17.3267   22.1344 C   0  0  1  0  0  0  0  0  0  0  0  0
   12.6084  -17.7819   22.1175 C   0  0  0  0  0  0  0  0  0  0  0  0
   13.1697  -18.2864   23.3932 C   0  0  0  0  0  0  0  0  0  0  0  0
   14.5658  -18.7184   23.2165 C   0  0  0  0  0  0  0  0  0  0  0  0
   15.0455  -19.4777   24.0947 O   0  0  0  0  0  0  0  0  0  0  0  0
   10.8336  -16.3401   23.1648 C   0  0  0  0  0  0  0  0  0  0  0  0
   10.9537  -15.0879   22.9672 O   0  0  0  0  0  0  0  0  0  0  0  0
   15.3368  -18.3107   22.1247 O   0  0  0  0  0  0  0  0  0  0  0  0
    6.0070  -11.2839   27.9560 O   0  0  0  0  0  0  0  0  0  0  0  0
    6.6341  -12.2432   27.1382 C   0  0  0  0  0  0  0  0  0  0  0  0
    5.9661  -13.3322   26.6712 C   0  0  0  0  0  0  0  0  0  0  0  0
    6.6367  -14.2523   25.8636 C   0  0  0  0  0  0  0  0  0  0  0  0
    7.9606  -14.0786   25.5309 C   0  0  0  0  0  0  0  0  0  0  0  0
    8.6515  -15.0437   24.6956 C   0  0  0  0  0  0  0  0  0  0  0  0
    9.8012  -15.7735   25.3984 C   0  0  2  0  0  0  0  0  0  0  0  0
   10.3260  -16.7137   24.4397 N   0  0  0  0  0  0  0  0  0  0  0  0
    9.3812  -16.3477   26.6713 C   0  0  0  0  0  0  0  0  0  0  0  0
    9.4497  -15.7070   27.8948 O   0  0  0  0  0  0  0  0  0  0  0  0
    8.6117  -12.9692   26.0165 C   0  0  0  0  0  0  0  0  0  0  0  0
    7.9514  -12.0388   26.8271 C   0  0  0  0  0  0  0  0  0  0  0  0
    8.9090  -17.5294   26.7103 O   0  0  0  0  0  0  0  0  0  0  0  0
  2  1  1  1
  3  2  1  0
  3  4  1  0
  4  5  2  0
  5  6  1  0
  7  6  1  0
  8  4  1  0
  8  7  2  0
  9 11  1  0
  9  2  1  0
 10  9  2  0
 12 11  1  0
 13 14  1  0
 12 13  1  6
 14 15  1  0
 15 16  2  0
 15 19  1  0
 17 27  1  0
 17 12  1  0
 18 17  2  0
 20 21  1  0
 21 31  2  0
 21 22  1  0
 22 23  2  0
 23 24  1  0
 24 25  1  0
 26 25  1  6
 26 27  1  0
 26 28  1  0
 28 29  1  0
 30 24  2  0
 31 30  1  0
 32 28  2  0
M  END
$$$$
