HEY.pdb
     RDKit          3D

 32 33  0  0  1  0  0  0  0  0999 V2000
    8.0491  -17.2533   18.2742 N   0  0  0  0  0  0  0  0  0  0  0  0
    9.1784  -16.4645   18.7114 C   0  0  1  0  0  0  0  0  0  0  0  0
    8.6999  -15.0194   18.8063 C   0  0  0  0  0  0  0  0  0  0  0  0
    8.4566  -14.4291   17.4642 C   0  0  0  0  0  0  0  0  0  0  0  0
    8.1195  -13.1133   17.2138 C   0  0  0  0  0  0  0  0  0  0  0  0
    7.9928  -13.0034   15.8900 N   0  0  0  0  0  0  0  0  0  0  0  0
    8.2373  -14.1951   15.3107 C   0  0  0  0  0  0  0  0  0  0  0  0
    8.5235  -15.0725   16.2882 N   0  0  0  0  0  0  0  0  0  0  0  0
    9.5419  -16.8713   20.0873 C   0  0  0  0  0  0  0  0  0  0  0  0
    8.6209  -17.2028   20.8716 O   0  0  0  0  0  0  0  0  0  0  0  0
   10.8803  -16.9004   20.5516 N   0  0  0  0  0  0  0  0  0  0  0  0
   11.2192  -17.3671   21.8882 C   0  0  1  0  0  0  0  0  0  0  0  0
   12.6299  -17.8241   21.9727 C   0  0  0  0  0  0  0  0  0  0  0  0
   12.9961  -19.0296   21.1920 C   0  0  0  0  0  0  0  0  0  0  0  0
   14.4374  -19.3075   21.3029 C   0  0  0  0  0  0  0  0  0  0  0  0
   15.2000  -18.7007   20.5103 O   0  0  0  0  0  0  0  0  0  0  0  0
   10.7786  -16.4009   22.9069 C   0  0  0  0  0  0  0  0  0  0  0  0
   11.2109  -15.2034   22.9282 O   0  0  0  0  0  0  0  0  0  0  0  0
   14.9505  -20.2042   22.2439 O   0  0  0  0  0  0  0  0  0  0  0  0
    5.9939  -11.2188   27.8375 O   0  0  0  0  0  0  0  0  0  0  0  0
    6.5346  -12.1888   26.9719 C   0  0  0  0  0  0  0  0  0  0  0  0
    6.0137  -13.4424   26.8871 C   0  0  0  0  0  0  0  0  0  0  0  0
    6.5890  -14.3651   26.0119 C   0  0  0  0  0  0  0  0  0  0  0  0
    7.6731  -14.0306   25.2331 C   0  0  0  0  0  0  0  0  0  0  0  0
    8.2686  -14.9984   24.3303 C   0  0  0  0  0  0  0  0  0  0  0  0
    9.4118  -15.8117   24.9466 C   0  0  2  0  0  0  0  0  0  0  0  0
    9.8445  -16.7338   23.9262 N   0  0  0  0  0  0  0  0  0  0  0  0
    9.0229  -16.4195   26.2138 C   0  0  0  0  0  0  0  0  0  0  0  0
    9.2142  -15.8524   27.4604 O   0  0  0  0  0  0  0  0  0  0  0  0
    8.1795  -12.7567   25.3386 C   0  0  0  0  0  0  0  0  0  0  0  0
    7.6124  -11.8218   26.2120 C   0  0  0  0  0  0  0  0  0  0  0  0
    8.4612  -17.5619   26.2247 O   0  0  0  0  0  0  0  0  0  0  0  0
  2  1  1  1
  3  2  1  0
  3  4  1  0
  4  5  2  0
  5  6  1  0
  7  6  1  0
  8  4  1  0
  8  7  2  0
  9 11  1  0
  9  2  1  0
 10  9  2  0
 12 11  1  0
 13 14  1  0
 12 13  1  6
 14 15  1  0
 15 16  2  0
 15 19  1  0
 17 27  1  0
 17 12  1  0
 18 17  2  0
 20 21  1  0
 21 31  2  0
 21 22  1  0
 22 23  2  0
 23 24  1  0
 24 25  1  0
 26 25  1  6
 26 27  1  0
 26 28  1  0
 28 29  1  0
 30 24  2  0
 31 30  1  0
 32 28  2  0
M  END
$$$$
