KYR.pdb
     RDKit          3D

 33 33  0  0  1  0  0  0  0  0999 V2000
    7.6897  -16.2252   19.3165 N   0  0  0  0  0  0  0  0  0  0  0  0
    8.8924  -15.4392   19.3311 C   0  0  1  0  0  0  0  0  0  0  0  0
    8.7918  -14.2969   18.3940 C   0  0  0  0  0  0  0  0  0  0  0  0
    8.1700  -14.6473   17.0912 C   0  0  0  0  0  0  0  0  0  0  0  0
    8.7082  -13.9426   15.8925 C   0  0  0  0  0  0  0  0  0  0  0  0
    7.8718  -14.2784   14.6489 C   0  0  0  0  0  0  0  0  0  0  0  0
    8.4285  -13.5121   13.5362 N   0  0  0  0  0  0  0  0  0  0  0  0
    9.2154  -15.0047   20.7276 C   0  0  0  0  0  0  0  0  0  0  0  0
   10.2821  -14.3827   20.9174 O   0  0  0  0  0  0  0  0  0  0  0  0
    6.8899  -11.7438   28.6060 O   0  0  0  0  0  0  0  0  0  0  0  0
    6.9713  -12.3379   27.3572 C   0  0  0  0  0  0  0  0  0  0  0  0
    6.4534  -13.5847   27.1405 C   0  0  0  0  0  0  0  0  0  0  0  0
    6.5795  -14.1013   25.8632 C   0  0  0  0  0  0  0  0  0  0  0  0
    7.1909  -13.4256   24.8277 C   0  0  0  0  0  0  0  0  0  0  0  0
    7.3360  -14.0255   23.5155 C   0  0  0  0  0  0  0  0  0  0  0  0
    8.5832  -14.7303   23.1749 C   0  0  2  0  0  0  0  0  0  0  0  0
    8.3497  -15.2830   21.8064 N   0  0  0  0  0  0  0  0  0  0  0  0
    9.0799  -15.7895   24.0382 C   0  0  0  0  0  0  0  0  0  0  0  0
    9.4914  -15.5197   25.2413 O   0  0  0  0  0  0  0  0  0  0  0  0
    7.6947  -12.1780   25.0939 C   0  0  0  0  0  0  0  0  0  0  0  0
    7.5872  -11.6292   26.3592 C   0  0  0  0  0  0  0  0  0  0  0  0
   12.5316  -17.5322   19.0618 N   0  0  0  0  0  0  0  0  0  0  0  0
   13.1429  -18.7571   19.4239 C   0  0  0  0  0  0  0  0  0  0  0  0
   13.3577  -19.6361   18.5198 N   0  0  0  0  0  0  0  0  0  0  0  0
   13.5164  -19.0265   20.7549 N   0  0  0  0  0  0  0  0  0  0  0  0
   13.2166  -18.0958   21.8574 C   0  0  0  0  0  0  0  0  0  0  0  0
   11.9976  -18.5071   22.5801 C   0  0  0  0  0  0  0  0  0  0  0  0
   11.4400  -17.6946   23.6440 C   0  0  0  0  0  0  0  0  0  0  0  0
   10.1992  -18.0184   24.3965 C   0  0  2  0  0  0  0  0  0  0  0  0
    9.1666  -17.1537   23.7063 N   0  0  0  0  0  0  0  0  0  0  0  0
   10.1709  -17.5342   25.7766 C   0  0  0  0  0  0  0  0  0  0  0  0
    9.7935  -16.3918   26.1073 O   0  0  0  0  0  0  0  0  0  0  0  0
   10.5741  -18.3554   26.8169 O   0  0  0  0  0  0  0  0  0  0  0  0
  2  3  1  0
  2  1  1  1
  3  4  1  0
  5  4  1  0
  6  5  1  0
  7  6  1  0
  8  9  2  0
  8  2  1  0
 10 11  1  0
 11 21  2  0
 12 11  1  0
 12 13  2  0
 13 14  1  0
 14 20  2  0
 14 15  1  0
 16 15  1  1
 16 17  1  0
 17  8  1  0
 18 19  2  0
 18 16  1  0
 21 20  1  0
 23 24  2  0
 23 22  1  0
 25 23  1  0
 26 25  1  0
 27 26  1  0
 28 27  1  0
 29 28  1  6
 29 30  1  0
 30 18  1  0
 31 29  1  0
 32 31  2  0
 33 31  1  0
M  END
$$$$
