KYR.pdb
     RDKit          3D

 33 33  0  0  1  0  0  0  0  0999 V2000
    7.6011  -15.8197   18.8604 N   0  0  0  0  0  0  0  0  0  0  0  0
    8.8276  -15.0812   18.9827 C   0  0  1  0  0  0  0  0  0  0  0  0
    8.8002  -13.8630   18.1410 C   0  0  0  0  0  0  0  0  0  0  0  0
    7.8423  -13.9421   17.0084 C   0  0  0  0  0  0  0  0  0  0  0  0
    8.4265  -13.8290   15.6412 C   0  0  0  0  0  0  0  0  0  0  0  0
    7.3160  -13.8085   14.5804 C   0  0  0  0  0  0  0  0  0  0  0  0
    7.9652  -13.6515   13.2808 N   0  0  0  0  0  0  0  0  0  0  0  0
    9.1114  -14.7745   20.4210 C   0  0  0  0  0  0  0  0  0  0  0  0
   10.2533  -14.3659   20.7203 O   0  0  0  0  0  0  0  0  0  0  0  0
    6.8161  -12.3711   28.6721 O   0  0  0  0  0  0  0  0  0  0  0  0
    6.8629  -12.8164   27.3611 C   0  0  0  0  0  0  0  0  0  0  0  0
    6.4350  -14.0731   27.0334 C   0  0  0  0  0  0  0  0  0  0  0  0
    6.5179  -14.4345   25.7005 C   0  0  0  0  0  0  0  0  0  0  0  0
    7.0025  -13.5989   24.7158 C   0  0  0  0  0  0  0  0  0  0  0  0
    7.1088  -14.0373   23.3377 C   0  0  0  0  0  0  0  0  0  0  0  0
    8.3827  -14.5921   22.8500 C   0  0  2  0  0  0  0  0  0  0  0  0
    8.1274  -14.9379   21.4190 N   0  0  0  0  0  0  0  0  0  0  0  0
    8.9811  -15.7368   23.5174 C   0  0  0  0  0  0  0  0  0  0  0  0
    8.8927  -16.9238   22.9952 O   0  0  0  0  0  0  0  0  0  0  0  0
    7.4195  -12.3480   25.0935 C   0  0  0  0  0  0  0  0  0  0  0  0
    7.3516  -11.9517   26.4171 C   0  0  0  0  0  0  0  0  0  0  0  0
   15.2104  -18.9235   20.8928 N   0  0  0  0  0  0  0  0  0  0  0  0
   14.3505  -19.9465   21.3613 C   0  0  0  0  0  0  0  0  0  0  0  0
   14.4390  -21.1157   20.8503 N   0  0  0  0  0  0  0  0  0  0  0  0
   13.4024  -19.7027   22.3739 N   0  0  0  0  0  0  0  0  0  0  0  0
   13.1891  -18.3598   22.9420 C   0  0  0  0  0  0  0  0  0  0  0  0
   11.9999  -18.3378   23.8153 C   0  0  0  0  0  0  0  0  0  0  0  0
   11.5387  -17.1091   24.4323 C   0  0  0  0  0  0  0  0  0  0  0  0
   10.3084  -16.9850   25.2580 C   0  0  2  0  0  0  0  0  0  0  0  0
    9.6919  -15.7072   24.7309 N   0  0  0  0  0  0  0  0  0  0  0  0
   10.5414  -16.6848   26.6705 C   0  0  0  0  0  0  0  0  0  0  0  0
   10.6141  -15.5291   27.1352 O   0  0  0  0  0  0  0  0  0  0  0  0
   10.6943  -17.7097   27.5899 O   0  0  0  0  0  0  0  0  0  0  0  0
  2  3  1  0
  2  1  1  1
  3  4  1  0
  5  4  1  0
  6  5  1  0
  7  6  1  0
  8  9  2  0
  8  2  1  0
 10 11  1  0
 11 21  2  0
 12 11  1  0
 12 13  2  0
 13 14  1  0
 14 20  2  0
 14 15  1  0
 16 15  1  1
 16 17  1  0
 17  8  1  0
 18 19  2  0
 18 16  1  0
 21 20  1  0
 23 24  2  0
 23 22  1  0
 25 23  1  0
 26 25  1  0
 27 26  1  0
 28 27  1  0
 29 28  1  6
 29 30  1  0
 30 18  1  0
 31 29  1  0
 32 31  2  0
 33 31  1  0
M  END
$$$$
