KYR.pdb
     RDKit          3D

 33 33  0  0  1  0  0  0  0  0999 V2000
    8.2916  -16.4494   19.7561 N   0  0  0  0  0  0  0  0  0  0  0  0
    9.4513  -15.6087   19.8689 C   0  0  1  0  0  0  0  0  0  0  0  0
    9.4270  -14.5312   18.8533 C   0  0  0  0  0  0  0  0  0  0  0  0
    8.4679  -14.7769   17.7458 C   0  0  0  0  0  0  0  0  0  0  0  0
    8.6886  -13.9942   16.4961 C   0  0  0  0  0  0  0  0  0  0  0  0
    7.5298  -14.2120   15.5118 C   0  0  0  0  0  0  0  0  0  0  0  0
    7.8657  -13.4919   14.2856 N   0  0  0  0  0  0  0  0  0  0  0  0
    9.5766  -15.0759   21.2631 C   0  0  0  0  0  0  0  0  0  0  0  0
   10.6393  -14.4999   21.5786 O   0  0  0  0  0  0  0  0  0  0  0  0
    6.2393  -11.7472   28.8050 O   0  0  0  0  0  0  0  0  0  0  0  0
    6.4739  -12.3331   27.5718 C   0  0  0  0  0  0  0  0  0  0  0  0
    6.0454  -13.6046   27.3084 C   0  0  0  0  0  0  0  0  0  0  0  0
    6.3232  -14.1106   26.0511 C   0  0  0  0  0  0  0  0  0  0  0  0
    6.9975  -13.4014   25.0790 C   0  0  0  0  0  0  0  0  0  0  0  0
    7.3019  -13.9896   23.7890 C   0  0  0  0  0  0  0  0  0  0  0  0
    8.6144  -14.6211   23.5721 C   0  0  2  0  0  0  0  0  0  0  0  0
    8.5331  -15.2135   22.2028 N   0  0  0  0  0  0  0  0  0  0  0  0
    9.0988  -15.6302   24.4999 C   0  0  0  0  0  0  0  0  0  0  0  0
    9.3073  -15.3316   25.7477 O   0  0  0  0  0  0  0  0  0  0  0  0
    7.4070  -12.1300   25.3902 C   0  0  0  0  0  0  0  0  0  0  0  0
    7.1472  -11.5907   26.6373 C   0  0  0  0  0  0  0  0  0  0  0  0
   12.3217  -20.0893   21.1710 N   0  0  0  0  0  0  0  0  0  0  0  0
   11.0969  -20.2273   20.4738 C   0  0  0  0  0  0  0  0  0  0  0  0
   11.0446  -19.9016   19.2380 N   0  0  0  0  0  0  0  0  0  0  0  0
    9.9391  -20.7130   21.1120 N   0  0  0  0  0  0  0  0  0  0  0  0
    9.8176  -20.7697   22.5795 C   0  0  0  0  0  0  0  0  0  0  0  0
    9.9684  -19.4280   23.1750 C   0  0  0  0  0  0  0  0  0  0  0  0
    9.8649  -19.2211   24.6066 C   0  0  0  0  0  0  0  0  0  0  0  0
    9.8905  -17.8932   25.2752 C   0  0  2  0  0  0  0  0  0  0  0  0
    9.3791  -16.9730   24.1881 N   0  0  0  0  0  0  0  0  0  0  0  0
   11.2273  -17.3691   25.5543 C   0  0  0  0  0  0  0  0  0  0  0  0
   11.6769  -17.1808   26.7028 O   0  0  0  0  0  0  0  0  0  0  0  0
   12.0868  -17.0494   24.5158 O   0  0  0  0  0  0  0  0  0  0  0  0
  2  3  1  0
  2  1  1  1
  3  4  1  0
  5  4  1  0
  6  5  1  0
  7  6  1  0
  8  9  2  0
  8  2  1  0
 10 11  1  0
 11 21  2  0
 12 11  1  0
 12 13  2  0
 13 14  1  0
 14 20  2  0
 14 15  1  0
 16 15  1  1
 16 17  1  0
 17  8  1  0
 18 19  2  0
 18 16  1  0
 21 20  1  0
 23 24  2  0
 23 22  1  0
 25 23  1  0
 26 25  1  0
 27 26  1  0
 28 27  1  0
 29 28  1  6
 29 30  1  0
 30 18  1  0
 31 29  1  0
 32 31  2  0
 33 31  1  0
M  END
$$$$
