KYR.pdb
     RDKit          3D

 33 33  0  0  1  0  0  0  0  0999 V2000
    9.4277  -16.2665   18.3499 N   0  0  0  0  0  0  0  0  0  0  0  0
    8.3649  -16.3560   19.3127 C   0  0  1  0  0  0  0  0  0  0  0  0
    7.9115  -17.7565   19.4746 C   0  0  0  0  0  0  0  0  0  0  0  0
    7.6340  -18.4460   18.1883 C   0  0  0  0  0  0  0  0  0  0  0  0
    7.0258  -19.8039   18.2855 C   0  0  0  0  0  0  0  0  0  0  0  0
    6.8184  -20.4031   16.8866 C   0  0  0  0  0  0  0  0  0  0  0  0
    6.1391  -21.6846   17.0638 N   0  0  0  0  0  0  0  0  0  0  0  0
    8.7832  -15.7382   20.6114 C   0  0  0  0  0  0  0  0  0  0  0  0
    9.9691  -15.8840   20.9763 O   0  0  0  0  0  0  0  0  0  0  0  0
    6.9783  -11.5680   28.3400 O   0  0  0  0  0  0  0  0  0  0  0  0
    6.9879  -12.0794   27.0526 C   0  0  0  0  0  0  0  0  0  0  0  0
    6.1706  -13.1197   26.7068 C   0  0  0  0  0  0  0  0  0  0  0  0
    6.2461  -13.5670   25.3998 C   0  0  0  0  0  0  0  0  0  0  0  0
    7.0911  -13.0191   24.4572 C   0  0  0  0  0  0  0  0  0  0  0  0
    7.1649  -13.5494   23.1095 C   0  0  0  0  0  0  0  0  0  0  0  0
    8.2487  -14.4815   22.7560 C   0  0  2  0  0  0  0  0  0  0  0  0
    7.8752  -15.0105   21.4094 N   0  0  0  0  0  0  0  0  0  0  0  0
    8.5659  -15.5958   23.6344 C   0  0  0  0  0  0  0  0  0  0  0  0
    7.7860  -16.6341   23.6888 O   0  0  0  0  0  0  0  0  0  0  0  0
    7.8914  -11.9775   24.8515 C   0  0  0  0  0  0  0  0  0  0  0  0
    7.8434  -11.5035   26.1502 C   0  0  0  0  0  0  0  0  0  0  0  0
   15.6334  -20.1082   22.3863 N   0  0  0  0  0  0  0  0  0  0  0  0
   15.0218  -19.4473   23.4792 C   0  0  0  0  0  0  0  0  0  0  0  0
   15.5818  -19.4966   24.6281 N   0  0  0  0  0  0  0  0  0  0  0  0
   13.8131  -18.7405   23.3273 N   0  0  0  0  0  0  0  0  0  0  0  0
   12.5004  -19.4054   23.4061 C   0  0  0  0  0  0  0  0  0  0  0  0
   11.6884  -18.8445   24.5031 C   0  0  0  0  0  0  0  0  0  0  0  0
   11.1839  -17.4859   24.4508 C   0  0  0  0  0  0  0  0  0  0  0  0
    9.9802  -17.0001   25.1761 C   0  0  2  0  0  0  0  0  0  0  0  0
    9.6878  -15.6897   24.4777 N   0  0  0  0  0  0  0  0  0  0  0  0
   10.2169  -16.5941   26.5613 C   0  0  0  0  0  0  0  0  0  0  0  0
   10.3321  -15.4078   26.9304 O   0  0  0  0  0  0  0  0  0  0  0  0
   10.3246  -17.5452   27.5628 O   0  0  0  0  0  0  0  0  0  0  0  0
  2  3  1  0
  2  1  1  6
  3  4  1  0
  5  4  1  0
  6  5  1  0
  7  6  1  0
  8  9  2  0
  8  2  1  0
 10 11  1  0
 11 21  2  0
 12 11  1  0
 12 13  2  0
 13 14  1  0
 14 20  2  0
 14 15  1  0
 16 15  1  1
 16 17  1  0
 17  8  1  0
 18 19  2  0
 18 16  1  0
 21 20  1  0
 23 24  2  0
 23 22  1  0
 25 23  1  0
 26 25  1  0
 27 26  1  0
 28 27  1  0
 29 28  1  6
 29 30  1  0
 30 18  1  0
 31 29  1  0
 32 31  2  0
 33 31  1  0
M  END
$$$$
