KYR.pdb
     RDKit          3D

 33 33  0  0  1  0  0  0  0  0999 V2000
    8.2022  -17.1635   17.6248 N   0  0  0  0  0  0  0  0  0  0  0  0
    7.8242  -17.6383   18.9272 C   0  0  1  0  0  0  0  0  0  0  0  0
    8.3003  -19.0234   19.1463 C   0  0  0  0  0  0  0  0  0  0  0  0
    7.4986  -20.0496   18.4315 C   0  0  0  0  0  0  0  0  0  0  0  0
    7.7477  -20.1792   16.9671 C   0  0  0  0  0  0  0  0  0  0  0  0
    6.9869  -21.3847   16.3954 C   0  0  0  0  0  0  0  0  0  0  0  0
    7.1589  -21.3534   14.9447 N   0  0  0  0  0  0  0  0  0  0  0  0
    8.3054  -16.6954   19.9868 C   0  0  0  0  0  0  0  0  0  0  0  0
    9.4602  -16.2310   19.8796 O   0  0  0  0  0  0  0  0  0  0  0  0
    7.1220  -12.0763   27.5818 O   0  0  0  0  0  0  0  0  0  0  0  0
    7.0099  -12.7929   26.4016 C   0  0  0  0  0  0  0  0  0  0  0  0
    6.7823  -14.1411   26.4207 C   0  0  0  0  0  0  0  0  0  0  0  0
    6.6845  -14.7766   25.1957 C   0  0  0  0  0  0  0  0  0  0  0  0
    6.8045  -14.1207   23.9882 C   0  0  0  0  0  0  0  0  0  0  0  0
    6.7358  -14.8369   22.7292 C   0  0  0  0  0  0  0  0  0  0  0  0
    7.9640  -15.4103   22.1538 C   0  0  2  0  0  0  0  0  0  0  0  0
    7.4892  -16.3337   21.0794 N   0  0  0  0  0  0  0  0  0  0  0  0
    8.9067  -16.1161   23.0065 C   0  0  0  0  0  0  0  0  0  0  0  0
    8.6574  -17.3294   23.4005 O   0  0  0  0  0  0  0  0  0  0  0  0
    7.0320  -12.7685   24.0204 C   0  0  0  0  0  0  0  0  0  0  0  0
    7.1358  -12.0992   25.2266 C   0  0  0  0  0  0  0  0  0  0  0  0
   16.0005  -17.4706   25.6766 N   0  0  0  0  0  0  0  0  0  0  0  0
   16.5565  -17.5375   24.3759 C   0  0  0  0  0  0  0  0  0  0  0  0
   17.5568  -18.3066   24.1661 N   0  0  0  0  0  0  0  0  0  0  0  0
   16.0330  -16.7759   23.3131 N   0  0  0  0  0  0  0  0  0  0  0  0
   14.9054  -15.8450   23.4962 C   0  0  0  0  0  0  0  0  0  0  0  0
   13.6490  -16.5784   23.7437 C   0  0  0  0  0  0  0  0  0  0  0  0
   12.4002  -15.8794   23.9782 C   0  0  0  0  0  0  0  0  0  0  0  0
   11.0866  -16.5408   24.1968 C   0  0  2  0  0  0  0  0  0  0  0  0
   10.1324  -15.6119   23.4778 N   0  0  0  0  0  0  0  0  0  0  0  0
   10.6036  -16.5118   25.5772 C   0  0  0  0  0  0  0  0  0  0  0  0
   10.1877  -15.4838   26.1491 O   0  0  0  0  0  0  0  0  0  0  0  0
   10.5831  -17.6692   26.3381 O   0  0  0  0  0  0  0  0  0  0  0  0
  2  3  1  0
  2  1  1  6
  3  4  1  0
  5  4  1  0
  6  5  1  0
  7  6  1  0
  8  9  2  0
  8  2  1  0
 10 11  1  0
 11 21  2  0
 12 11  1  0
 12 13  2  0
 13 14  1  0
 14 20  2  0
 14 15  1  0
 16 15  1  1
 16 17  1  0
 17  8  1  0
 18 19  2  0
 18 16  1  0
 21 20  1  0
 23 24  2  0
 23 22  1  0
 25 23  1  0
 26 25  1  0
 27 26  1  0
 28 27  1  0
 29 28  1  1
 29 30  1  0
 30 18  1  0
 31 29  1  0
 32 31  2  0
 33 31  1  0
M  END
$$$$
