KYR.pdb
     RDKit          3D

 33 33  0  0  1  0  0  0  0  0999 V2000
    7.3173  -15.9387   18.6056 N   0  0  0  0  0  0  0  0  0  0  0  0
    8.5813  -15.2568   18.6477 C   0  0  1  0  0  0  0  0  0  0  0  0
    8.5944  -14.1043   17.7178 C   0  0  0  0  0  0  0  0  0  0  0  0
    8.1546  -14.4445   16.3402 C   0  0  0  0  0  0  0  0  0  0  0  0
    9.0152  -13.9435   15.2304 C   0  0  0  0  0  0  0  0  0  0  0  0
    8.3674  -14.2404   13.8698 C   0  0  0  0  0  0  0  0  0  0  0  0
    9.2595  -13.7068   12.8429 N   0  0  0  0  0  0  0  0  0  0  0  0
    8.9139  -14.8596   20.0531 C   0  0  0  0  0  0  0  0  0  0  0  0
   10.0911  -14.5269   20.3065 O   0  0  0  0  0  0  0  0  0  0  0  0
    6.7441  -12.2063   28.3438 O   0  0  0  0  0  0  0  0  0  0  0  0
    6.8405  -12.5914   27.0166 C   0  0  0  0  0  0  0  0  0  0  0  0
    7.3328  -11.7330   26.0729 C   0  0  0  0  0  0  0  0  0  0  0  0
    7.3931  -12.2007   24.7723 C   0  0  0  0  0  0  0  0  0  0  0  0
    6.9869  -13.4653   24.4004 C   0  0  0  0  0  0  0  0  0  0  0  0
    7.0306  -13.8965   23.0166 C   0  0  0  0  0  0  0  0  0  0  0  0
    8.2633  -14.5013   22.4846 C   0  0  2  0  0  0  0  0  0  0  0  0
    7.9365  -14.8569   21.0706 N   0  0  0  0  0  0  0  0  0  0  0  0
    8.8500  -15.6570   23.1433 C   0  0  0  0  0  0  0  0  0  0  0  0
    8.3779  -16.8485   22.9267 O   0  0  0  0  0  0  0  0  0  0  0  0
    6.5006  -14.2900   25.3825 C   0  0  0  0  0  0  0  0  0  0  0  0
    6.4252  -13.8568   26.6940 C   0  0  0  0  0  0  0  0  0  0  0  0
   16.6521  -20.6881   24.1326 N   0  0  0  0  0  0  0  0  0  0  0  0
   16.0580  -19.4229   24.3598 C   0  0  0  0  0  0  0  0  0  0  0  0
   16.5362  -18.6664   25.2735 N   0  0  0  0  0  0  0  0  0  0  0  0
   14.9542  -18.9833   23.6034 N   0  0  0  0  0  0  0  0  0  0  0  0
   14.3397  -17.6598   23.8089 C   0  0  0  0  0  0  0  0  0  0  0  0
   12.9833  -17.7887   24.3756 C   0  0  0  0  0  0  0  0  0  0  0  0
   11.9211  -16.8722   24.0083 C   0  0  0  0  0  0  0  0  0  0  0  0
   10.5253  -16.9454   24.5154 C   0  0  2  0  0  0  0  0  0  0  0  0
    9.9372  -15.6360   24.0357 N   0  0  0  0  0  0  0  0  0  0  0  0
   10.3921  -16.8578   25.9695 C   0  0  0  0  0  0  0  0  0  0  0  0
   10.3636  -15.7837   26.6038 O   0  0  0  0  0  0  0  0  0  0  0  0
   10.2845  -18.0074   26.7349 O   0  0  0  0  0  0  0  0  0  0  0  0
  2  3  1  0
  2  1  1  1
  3  4  1  0
  5  4  1  0
  6  5  1  0
  7  6  1  0
  8  9  2  0
  8  2  1  0
 10 11  1  0
 11 21  2  0
 12 11  1  0
 12 13  2  0
 13 14  1  0
 14 20  2  0
 14 15  1  0
 16 15  1  1
 16 17  1  0
 17  8  1  0
 18 19  2  0
 18 16  1  0
 21 20  1  0
 23 24  2  0
 23 22  1  0
 25 23  1  0
 26 25  1  0
 27 26  1  0
 28 27  1  0
 29 28  1  1
 29 30  1  0
 30 18  1  0
 31 29  1  0
 32 31  2  0
 33 31  1  0
M  END
$$$$
