KYR.pdb
     RDKit          3D

 33 33  0  0  1  0  0  0  0  0999 V2000
    7.8904  -16.4312   19.1216 N   0  0  0  0  0  0  0  0  0  0  0  0
    8.9079  -15.4167   19.1290 C   0  0  1  0  0  0  0  0  0  0  0  0
    8.6054  -14.3540   18.1430 C   0  0  0  0  0  0  0  0  0  0  0  0
    8.2713  -14.8720   16.7914 C   0  0  0  0  0  0  0  0  0  0  0  0
    8.7026  -14.0317   15.6376 C   0  0  0  0  0  0  0  0  0  0  0  0
    8.3259  -14.7051   14.3096 C   0  0  0  0  0  0  0  0  0  0  0  0
    8.7666  -13.8167   13.2365 N   0  0  0  0  0  0  0  0  0  0  0  0
    9.0949  -14.8747   20.5127 C   0  0  0  0  0  0  0  0  0  0  0  0
   10.1699  -14.2953   20.7763 O   0  0  0  0  0  0  0  0  0  0  0  0
    6.1963  -12.1842   28.5508 O   0  0  0  0  0  0  0  0  0  0  0  0
    6.4299  -12.5920   27.2476 C   0  0  0  0  0  0  0  0  0  0  0  0
    7.1306  -11.7992   26.3814 C   0  0  0  0  0  0  0  0  0  0  0  0
    7.3166  -12.2850   25.0995 C   0  0  0  0  0  0  0  0  0  0  0  0
    6.8356  -13.5052   24.6725 C   0  0  0  0  0  0  0  0  0  0  0  0
    7.0201  -13.9539   23.3060 C   0  0  0  0  0  0  0  0  0  0  0  0
    8.3041  -14.5548   22.9077 C   0  0  2  0  0  0  0  0  0  0  0  0
    8.0950  -15.0075   21.4992 N   0  0  0  0  0  0  0  0  0  0  0  0
    8.8666  -15.6496   23.6816 C   0  0  0  0  0  0  0  0  0  0  0  0
    8.3691  -16.8467   23.5868 O   0  0  0  0  0  0  0  0  0  0  0  0
    6.1391  -14.2647   25.5777 C   0  0  0  0  0  0  0  0  0  0  0  0
    5.9333  -13.8115   26.8683 C   0  0  0  0  0  0  0  0  0  0  0  0
   13.0373  -20.5883   22.1233 N   0  0  0  0  0  0  0  0  0  0  0  0
   13.8978  -20.7666   23.2337 C   0  0  0  0  0  0  0  0  0  0  0  0
   14.3152  -21.9427   23.5143 N   0  0  0  0  0  0  0  0  0  0  0  0
   14.3007  -19.6792   24.0330 N   0  0  0  0  0  0  0  0  0  0  0  0
   13.7291  -18.3309   23.8688 C   0  0  0  0  0  0  0  0  0  0  0  0
   12.6949  -18.0672   24.8877 C   0  0  0  0  0  0  0  0  0  0  0  0
   11.8683  -16.8768   24.8343 C   0  0  0  0  0  0  0  0  0  0  0  0
   10.4461  -16.8124   25.2635 C   0  0  2  0  0  0  0  0  0  0  0  0
    9.9544  -15.5609   24.5690 N   0  0  0  0  0  0  0  0  0  0  0  0
   10.2425  -16.5096   26.6800 C   0  0  0  0  0  0  0  0  0  0  0  0
   10.2287  -15.3544   27.1513 O   0  0  0  0  0  0  0  0  0  0  0  0
   10.0454  -17.5311   27.5948 O   0  0  0  0  0  0  0  0  0  0  0  0
  2  3  1  0
  2  1  1  1
  3  4  1  0
  5  4  1  0
  6  5  1  0
  7  6  1  0
  8  9  2  0
  8  2  1  0
 10 11  1  0
 11 21  2  0
 12 11  1  0
 12 13  2  0
 13 14  1  0
 14 20  2  0
 14 15  1  0
 16 15  1  1
 16 17  1  0
 17  8  1  0
 18 19  2  0
 18 16  1  0
 21 20  1  0
 23 24  2  0
 23 22  1  0
 25 23  1  0
 26 25  1  0
 27 26  1  0
 28 27  1  0
 29 28  1  1
 29 30  1  0
 30 18  1  0
 31 29  1  0
 32 31  2  0
 33 31  1  0
M  END
$$$$
