PIK.pdb
     RDKit          3D

 25 25  0  0  1  0  0  0  0  0999 V2000
   28.6613  -20.9247  -15.5805 N   0  0  0  0  0  0  0  0  0  0  0  0
   29.0280  -20.1908  -16.7573 C   0  0  0  0  0  0  0  0  0  0  0  0
   28.6541  -18.7409  -16.4972 C   0  0  0  0  0  0  0  0  0  0  0  0
   27.4833  -18.9029  -15.5510 C   0  0  0  0  0  0  0  0  0  0  0  0
   27.9475  -20.0585  -14.6997 C   0  0  1  0  0  0  0  0  0  0  0  0
   26.8122  -20.7323  -14.0167 C   0  0  0  0  0  0  0  0  0  0  0  0
   26.3110  -21.7393  -14.5613 O   0  0  0  0  0  0  0  0  0  0  0  0
   26.5915  -20.5631   -8.5529 C   0  0  0  0  0  0  0  0  0  0  0  0
   26.4112  -21.0444   -9.9497 C   0  0  0  0  0  0  0  0  0  0  0  0
   25.1938  -20.5611  -10.6567 C   0  0  2  0  0  0  0  0  0  0  0  0
   23.9649  -21.0625   -9.9241 C   0  0  0  0  0  0  0  0  0  0  0  0
   25.1441  -20.8747  -12.1174 C   0  0  2  0  0  0  0  0  0  0  0  0
   26.2916  -20.2682  -12.7821 N   0  0  0  0  0  0  0  0  0  0  0  0
   23.9079  -20.3878  -12.7697 C   0  0  0  0  0  0  0  0  0  0  0  0
   23.6443  -19.1524  -12.8483 O   0  0  0  0  0  0  0  0  0  0  0  0
   23.0057  -21.3055  -13.3138 N   0  0  0  0  0  0  0  0  0  0  0  0
   21.8160  -20.7302  -14.0857 C   0  0  1  0  0  0  0  0  0  0  0  0
   21.9097  -21.3341  -15.4424 C   0  0  0  0  0  0  0  0  0  0  0  0
   20.9601  -21.0234  -16.4865 C   0  0  0  0  0  0  0  0  0  0  0  0
   19.9809  -22.0347  -16.9273 C   0  0  0  0  0  0  0  0  0  0  0  0
   19.6426  -21.8209  -18.4357 C   0  0  0  0  0  0  0  0  0  0  0  0
   18.8131  -22.8790  -18.9261 N   0  0  0  0  0  0  0  0  0  0  0  0
   20.6826  -21.2120  -13.2523 C   0  0  0  0  0  0  0  0  0  0  0  0
   20.7273  -22.1527  -12.2614 O   0  0  0  0  0  0  0  0  0  0  0  0
   19.5030  -20.7254  -13.4475 O   0  0  0  0  0  0  0  0  0  0  0  0
  1  5  1  0
  2  3  1  0
  2  1  1  0
  3  4  1  0
  4  5  1  0
  5  6  1  6
  7  6  2  0
  9  8  1  0
 10  9  1  0
 10 11  1  1
 12 10  1  0
 12 13  1  6
 13  6  1  0
 14 15  2  0
 14 12  1  0
 16 14  1  0
 17 16  1  0
 17 18  1  6
 19 20  1  0
 19 18  1  0
 20 21  1  0
 21 22  1  0
 23 24  1  0
 23 17  1  0
 25 23  2  0
M  END
$$$$
