PIK.pdb
     RDKit          3D

 25 25  0  0  1  0  0  0  0  0999 V2000
   16.3377  -13.6119    3.9134 N   0  0  0  0  0  0  0  0  0  0  0  0
   14.9198  -13.8214    3.9749 C   0  0  0  0  0  0  0  0  0  0  0  0
   14.4280  -13.0924    5.2144 C   0  0  0  0  0  0  0  0  0  0  0  0
   15.6497  -13.1672    6.1055 C   0  0  0  0  0  0  0  0  0  0  0  0
   16.7593  -12.9525    5.1063 C   0  0  1  0  0  0  0  0  0  0  0  0
   18.0643  -13.4507    5.6147 C   0  0  0  0  0  0  0  0  0  0  0  0
   18.5529  -14.4708    5.0833 O   0  0  0  0  0  0  0  0  0  0  0  0
   21.6397   -9.9258    7.9810 C   0  0  0  0  0  0  0  0  0  0  0  0
   21.0571  -11.0688    7.2262 C   0  0  0  0  0  0  0  0  0  0  0  0
   20.6672  -12.2563    8.0343 C   0  0  2  0  0  0  0  0  0  0  0  0
   21.8848  -12.7704    8.7769 C   0  0  0  0  0  0  0  0  0  0  0  0
   19.9746  -13.3401    7.2727 C   0  0  2  0  0  0  0  0  0  0  0  0
   18.7576  -12.8074    6.6712 N   0  0  0  0  0  0  0  0  0  0  0  0
   19.6154  -14.5001    8.1188 C   0  0  0  0  0  0  0  0  0  0  0  0
   18.6676  -14.4400    8.9555 O   0  0  0  0  0  0  0  0  0  0  0  0
   20.3332  -15.6928    7.9980 N   0  0  0  0  0  0  0  0  0  0  0  0
   19.8649  -16.8709    8.8553 C   0  0  1  0  0  0  0  0  0  0  0  0
   19.0315  -17.7017    7.9446 C   0  0  0  0  0  0  0  0  0  0  0  0
   18.4025  -18.9259    8.3853 C   0  0  0  0  0  0  0  0  0  0  0  0
   17.6009  -19.7314    7.4448 C   0  0  0  0  0  0  0  0  0  0  0  0
   17.1268  -21.0438    8.1436 C   0  0  0  0  0  0  0  0  0  0  0  0
   16.3869  -21.8654    7.2350 N   0  0  0  0  0  0  0  0  0  0  0  0
   21.1694  -17.4686    9.2456 C   0  0  0  0  0  0  0  0  0  0  0  0
   21.3972  -18.3755   10.2427 O   0  0  0  0  0  0  0  0  0  0  0  0
   22.2381  -17.1242    8.6087 O   0  0  0  0  0  0  0  0  0  0  0  0
  1  5  1  0
  2  3  1  0
  2  1  1  0
  3  4  1  0
  4  5  1  0
  5  6  1  1
  7  6  2  0
  9  8  1  0
 10  9  1  0
 10 11  1  6
 12 10  1  0
 12 13  1  1
 13  6  1  0
 14 15  2  0
 14 12  1  0
 16 14  1  0
 17 16  1  0
 17 18  1  6
 19 20  1  0
 19 18  1  0
 20 21  1  0
 21 22  1  0
 23 24  1  0
 23 17  1  0
 25 23  2  0
M  END
$$$$
