PIK.pdb
     RDKit          3D

 25 25  0  0  1  0  0  0  0  0999 V2000
   27.8883  -19.1715  -15.9900 N   0  0  0  0  0  0  0  0  0  0  0  0
   29.1367  -18.8585  -16.6237 C   0  0  0  0  0  0  0  0  0  0  0  0
   29.5790  -20.1162  -17.3532 C   0  0  0  0  0  0  0  0  0  0  0  0
   28.9559  -21.1929  -16.4903 C   0  0  0  0  0  0  0  0  0  0  0  0
   27.6280  -20.5656  -16.1459 C   0  0  1  0  0  0  0  0  0  0  0  0
   27.0232  -21.1821  -14.9359 C   0  0  0  0  0  0  0  0  0  0  0  0
   26.6092  -22.3583  -15.0185 O   0  0  0  0  0  0  0  0  0  0  0  0
   29.4992  -21.0937  -10.4011 C   0  0  0  0  0  0  0  0  0  0  0  0
   28.5364  -21.4134  -11.4901 C   0  0  0  0  0  0  0  0  0  0  0  0
   27.1684  -20.8461  -11.3421 C   0  0  2  0  0  0  0  0  0  0  0  0
   26.5495  -21.3749  -10.0633 C   0  0  0  0  0  0  0  0  0  0  0  0
   26.2718  -21.0402  -12.5223 C   0  0  2  0  0  0  0  0  0  0  0  0
   26.9062  -20.4797  -13.7097 N   0  0  0  0  0  0  0  0  0  0  0  0
   24.9461  -20.4050  -12.3498 C   0  0  0  0  0  0  0  0  0  0  0  0
   24.8305  -19.1613  -12.1459 O   0  0  0  0  0  0  0  0  0  0  0  0
   23.7907  -21.1882  -12.4121 N   0  0  0  0  0  0  0  0  0  0  0  0
   22.4522  -20.4463  -12.4096 C   0  0  1  0  0  0  0  0  0  0  0  0
   21.7041  -20.9992  -13.5710 C   0  0  0  0  0  0  0  0  0  0  0  0
   20.3418  -20.6125  -13.8592 C   0  0  0  0  0  0  0  0  0  0  0  0
   19.6383  -21.1780  -15.0259 C   0  0  0  0  0  0  0  0  0  0  0  0
   18.1726  -20.6439  -15.0695 C   0  0  0  0  0  0  0  0  0  0  0  0
   17.5188  -21.0497  -16.2761 N   0  0  0  0  0  0  0  0  0  0  0  0
   21.9236  -20.8278  -11.0731 C   0  0  0  0  0  0  0  0  0  0  0  0
   20.9209  -20.2141  -10.3754 O   0  0  0  0  0  0  0  0  0  0  0  0
   22.4355  -21.8397  -10.4563 O   0  0  0  0  0  0  0  0  0  0  0  0
  1  5  1  0
  2  3  1  0
  2  1  1  0
  3  4  1  0
  4  5  1  0
  5  6  1  1
  7  6  2  0
  9  8  1  0
 10  9  1  0
 10 11  1  1
 12 10  1  0
 12 13  1  6
 13  6  1  0
 14 15  2  0
 14 12  1  0
 16 14  1  0
 17 16  1  0
 17 18  1  6
 19 20  1  0
 19 18  1  0
 20 21  1  0
 21 22  1  0
 23 24  1  0
 23 17  1  0
 25 23  2  0
M  END
$$$$
