PIK.pdb
     RDKit          3D

 25 25  0  0  1  0  0  0  0  0999 V2000
   28.6519  -20.7061  -15.1990 N   0  0  0  0  0  0  0  0  0  0  0  0
   28.8637  -20.0058  -16.4329 C   0  0  0  0  0  0  0  0  0  0  0  0
   28.3804  -18.5821  -16.2110 C   0  0  0  0  0  0  0  0  0  0  0  0
   27.3013  -18.7953  -15.1705 C   0  0  0  0  0  0  0  0  0  0  0  0
   27.9291  -19.8602  -14.3059 C   0  0  1  0  0  0  0  0  0  0  0  0
   26.9122  -20.5933  -13.5071 C   0  0  0  0  0  0  0  0  0  0  0  0
   26.4211  -21.6351  -13.9922 O   0  0  0  0  0  0  0  0  0  0  0  0
   26.9657  -20.1535   -8.0276 C   0  0  0  0  0  0  0  0  0  0  0  0
   26.7363  -20.7473   -9.3730 C   0  0  0  0  0  0  0  0  0  0  0  0
   25.4724  -20.3557  -10.0547 C   0  0  2  0  0  0  0  0  0  0  0  0
   24.2961  -20.8726   -9.2503 C   0  0  0  0  0  0  0  0  0  0  0  0
   25.3832  -20.7459  -11.4949 C   0  0  2  0  0  0  0  0  0  0  0  0
   26.4921  -20.1470  -12.2285 N   0  0  0  0  0  0  0  0  0  0  0  0
   24.1140  -20.3241  -12.1288 C   0  0  0  0  0  0  0  0  0  0  0  0
   23.9159  -19.1236  -12.4770 O   0  0  0  0  0  0  0  0  0  0  0  0
   23.1061  -21.2657  -12.3518 N   0  0  0  0  0  0  0  0  0  0  0  0
   21.8804  -20.7931  -13.1371 C   0  0  1  0  0  0  0  0  0  0  0  0
   21.7999  -21.7055  -14.3097 C   0  0  0  0  0  0  0  0  0  0  0  0
   20.8114  -21.5313  -15.3495 C   0  0  0  0  0  0  0  0  0  0  0  0
   19.5644  -22.3190  -15.3307 C   0  0  0  0  0  0  0  0  0  0  0  0
   18.5948  -21.8003  -16.4381 C   0  0  0  0  0  0  0  0  0  0  0  0
   17.3616  -22.5263  -16.4154 N   0  0  0  0  0  0  0  0  0  0  0  0
   20.8110  -20.9700  -12.1192 C   0  0  0  0  0  0  0  0  0  0  0  0
   19.5807  -20.3744  -12.1016 O   0  0  0  0  0  0  0  0  0  0  0  0
   21.0161  -21.7579  -11.1174 O   0  0  0  0  0  0  0  0  0  0  0  0
  1  5  1  0
  2  3  1  0
  2  1  1  0
  3  4  1  0
  4  5  1  0
  5  6  1  6
  7  6  2  0
  9  8  1  0
 10  9  1  0
 10 11  1  1
 12 10  1  0
 12 13  1  6
 13  6  1  0
 14 15  2  0
 14 12  1  0
 16 14  1  0
 17 16  1  0
 17 18  1  6
 19 20  1  0
 19 18  1  0
 20 21  1  0
 21 22  1  0
 23 24  1  0
 23 17  1  0
 25 23  2  0
M  END
$$$$
