PIK.pdb
     RDKit          3D

 25 25  0  0  1  0  0  0  0  0999 V2000
   27.3745  -19.7312  -15.2330 N   0  0  0  0  0  0  0  0  0  0  0  0
   28.7998  -19.6492  -15.3734 C   0  0  0  0  0  0  0  0  0  0  0  0
   29.2805  -21.0458  -15.7313 C   0  0  0  0  0  0  0  0  0  0  0  0
   28.2305  -21.9019  -15.0553 C   0  0  0  0  0  0  0  0  0  0  0  0
   26.9801  -21.0998  -15.3173 C   0  0  1  0  0  0  0  0  0  0  0  0
   25.8908  -21.4495  -14.3681 C   0  0  0  0  0  0  0  0  0  0  0  0
   25.3801  -22.5871  -14.4508 O   0  0  0  0  0  0  0  0  0  0  0  0
   26.6221  -20.4647   -9.3418 C   0  0  0  0  0  0  0  0  0  0  0  0
   26.0065  -21.0866  -10.5458 C   0  0  0  0  0  0  0  0  0  0  0  0
   24.7782  -20.4276  -11.0675 C   0  0  2  0  0  0  0  0  0  0  0  0
   23.6610  -20.5925  -10.0561 C   0  0  0  0  0  0  0  0  0  0  0  0
   24.3633  -20.8569  -12.4379 C   0  0  2  0  0  0  0  0  0  0  0  0
   25.4239  -20.5387  -13.3868 N   0  0  0  0  0  0  0  0  0  0  0  0
   23.1127  -20.2080  -12.8913 C   0  0  0  0  0  0  0  0  0  0  0  0
   23.0592  -18.9649  -13.1230 O   0  0  0  0  0  0  0  0  0  0  0  0
   21.9601  -20.9773  -13.0704 N   0  0  0  0  0  0  0  0  0  0  0  0
   20.7424  -20.2687  -13.6681 C   0  0  1  0  0  0  0  0  0  0  0  0
   20.6351  -20.7938  -15.0563 C   0  0  0  0  0  0  0  0  0  0  0  0
   20.4004  -22.1932  -15.3300 C   0  0  0  0  0  0  0  0  0  0  0  0
   20.2277  -22.6615  -16.7181 C   0  0  0  0  0  0  0  0  0  0  0  0
   19.9734  -24.2012  -16.7288 C   0  0  0  0  0  0  0  0  0  0  0  0
   19.8657  -24.6898  -18.0696 N   0  0  0  0  0  0  0  0  0  0  0  0
   19.6736  -20.7147  -12.7353 C   0  0  0  0  0  0  0  0  0  0  0  0
   18.4025  -20.2212  -12.6391 O   0  0  0  0  0  0  0  0  0  0  0  0
   19.9214  -21.6663  -11.8990 O   0  0  0  0  0  0  0  0  0  0  0  0
  1  5  1  0
  2  3  1  0
  2  1  1  0
  3  4  1  0
  4  5  1  0
  5  6  1  1
  7  6  2  0
  9  8  1  0
 10  9  1  0
 10 11  1  1
 12 10  1  0
 12 13  1  6
 13  6  1  0
 14 15  2  0
 14 12  1  0
 16 14  1  0
 17 16  1  0
 17 18  1  6
 19 20  1  0
 19 18  1  0
 20 21  1  0
 21 22  1  0
 23 24  1  0
 23 17  1  0
 25 23  2  0
M  END
$$$$
