PIK.pdb
     RDKit          3D

 25 25  0  0  1  0  0  0  0  0999 V2000
   28.0097  -19.0689  -15.8074 N   0  0  0  0  0  0  0  0  0  0  0  0
   28.1013  -17.9530  -16.7043 C   0  0  0  0  0  0  0  0  0  0  0  0
   27.6283  -16.7346  -15.9288 C   0  0  0  0  0  0  0  0  0  0  0  0
   26.6513  -17.3632  -14.9580 C   0  0  0  0  0  0  0  0  0  0  0  0
   27.3648  -18.6451  -14.6073 C   0  0  1  0  0  0  0  0  0  0  0  0
   26.4319  -19.6641  -14.0586 C   0  0  0  0  0  0  0  0  0  0  0  0
   26.1659  -20.6602  -14.7650 O   0  0  0  0  0  0  0  0  0  0  0  0
   26.5678  -20.9154   -8.7864 C   0  0  0  0  0  0  0  0  0  0  0  0
   26.3411  -21.0183  -10.2538 C   0  0  0  0  0  0  0  0  0  0  0  0
   25.0191  -20.5443  -10.7469 C   0  0  2  0  0  0  0  0  0  0  0  0
   23.9253  -21.3743  -10.1046 C   0  0  0  0  0  0  0  0  0  0  0  0
   24.8817  -20.4882  -12.2343 C   0  0  2  0  0  0  0  0  0  0  0  0
   25.8454  -19.5360  -12.7741 N   0  0  0  0  0  0  0  0  0  0  0  0
   23.5258  -20.0891  -12.6733 C   0  0  0  0  0  0  0  0  0  0  0  0
   23.0568  -18.9430  -12.4120 O   0  0  0  0  0  0  0  0  0  0  0  0
   22.7384  -20.9915  -13.3931 N   0  0  0  0  0  0  0  0  0  0  0  0
   21.3876  -20.4796  -13.8985 C   0  0  1  0  0  0  0  0  0  0  0  0
   21.1682  -21.1847  -15.1903 C   0  0  0  0  0  0  0  0  0  0  0  0
   21.4694  -20.5664  -16.4614 C   0  0  0  0  0  0  0  0  0  0  0  0
   22.6841  -19.7448  -16.6203 C   0  0  0  0  0  0  0  0  0  0  0  0
   22.6976  -19.0895  -18.0366 C   0  0  0  0  0  0  0  0  0  0  0  0
   23.8192  -18.2124  -18.1808 N   0  0  0  0  0  0  0  0  0  0  0  0
   20.4953  -20.8994  -12.7855 C   0  0  0  0  0  0  0  0  0  0  0  0
   19.3566  -20.2747  -12.3591 O   0  0  0  0  0  0  0  0  0  0  0  0
   20.7838  -21.9613  -12.1105 O   0  0  0  0  0  0  0  0  0  0  0  0
  1  5  1  0
  2  3  1  0
  2  1  1  0
  3  4  1  0
  4  5  1  0
  5  6  1  6
  7  6  2  0
  9  8  1  0
 10  9  1  0
 10 11  1  6
 12 10  1  0
 12 13  1  1
 13  6  1  0
 14 15  2  0
 14 12  1  0
 16 14  1  0
 17 16  1  0
 17 18  1  6
 19 20  1  0
 19 18  1  0
 20 21  1  0
 21 22  1  0
 23 24  1  0
 23 17  1  0
 25 23  2  0
M  END
$$$$
