PIK.pdb
     RDKit          3D

 25 25  0  0  1  0  0  0  0  0999 V2000
   28.7694  -21.0876  -16.3093 N   0  0  0  0  0  0  0  0  0  0  0  0
   28.9726  -20.4814  -17.5935 C   0  0  0  0  0  0  0  0  0  0  0  0
   28.4507  -19.0580  -17.4875 C   0  0  0  0  0  0  0  0  0  0  0  0
   27.3694  -19.2169  -16.4397 C   0  0  0  0  0  0  0  0  0  0  0  0
   28.0179  -20.1933  -15.4901 C   0  0  1  0  0  0  0  0  0  0  0  0
   27.0142  -20.8879  -14.6416 C   0  0  0  0  0  0  0  0  0  0  0  0
   26.5042  -21.9427  -15.0764 O   0  0  0  0  0  0  0  0  0  0  0  0
   25.2591  -21.1143   -8.6859 C   0  0  0  0  0  0  0  0  0  0  0  0
   24.9657  -21.3537  -10.1253 C   0  0  0  0  0  0  0  0  0  0  0  0
   25.9538  -20.8068  -11.0947 C   0  0  2  0  0  0  0  0  0  0  0  0
   26.1909  -19.3417  -10.7856 C   0  0  0  0  0  0  0  0  0  0  0  0
   25.6182  -21.0301  -12.5342 C   0  0  2  0  0  0  0  0  0  0  0  0
   26.6269  -20.3910  -13.3713 N   0  0  0  0  0  0  0  0  0  0  0  0
   24.2885  -20.4968  -12.9055 C   0  0  0  0  0  0  0  0  0  0  0  0
   24.1114  -19.2654  -13.1384 O   0  0  0  0  0  0  0  0  0  0  0  0
   23.1980  -21.3649  -13.0036 N   0  0  0  0  0  0  0  0  0  0  0  0
   21.8884  -20.7726  -13.5293 C   0  0  1  0  0  0  0  0  0  0  0  0
   21.4129  -21.7407  -14.5543 C   0  0  0  0  0  0  0  0  0  0  0  0
   20.1540  -21.5702  -15.2435 C   0  0  0  0  0  0  0  0  0  0  0  0
   19.6918  -22.5833  -16.2109 C   0  0  0  0  0  0  0  0  0  0  0  0
   18.3037  -22.1668  -16.7899 C   0  0  0  0  0  0  0  0  0  0  0  0
   17.8063  -23.1648  -17.6869 N   0  0  0  0  0  0  0  0  0  0  0  0
   21.0831  -20.7223  -12.2803 C   0  0  0  0  0  0  0  0  0  0  0  0
   20.0402  -19.8831  -12.0031 O   0  0  0  0  0  0  0  0  0  0  0  0
   21.3600  -21.5354  -11.3166 O   0  0  0  0  0  0  0  0  0  0  0  0
  1  5  1  0
  2  3  1  0
  2  1  1  0
  3  4  1  0
  4  5  1  0
  5  6  1  6
  7  6  2  0
  9  8  1  0
 10  9  1  0
 10 11  1  6
 12 10  1  0
 12 13  1  6
 13  6  1  0
 14 15  2  0
 14 12  1  0
 16 14  1  0
 17 16  1  0
 17 18  1  6
 19 20  1  0
 19 18  1  0
 20 21  1  0
 21 22  1  0
 23 24  1  0
 23 17  1  0
 25 23  2  0
M  END
$$$$
