PIK.pdb
     RDKit          3D

 25 25  0  0  1  0  0  0  0  0999 V2000
   27.4585  -10.7150  -17.9154 N   0  0  0  0  0  0  0  0  0  0  0  0
   28.3139  -11.8494  -18.1135 C   0  0  0  0  0  0  0  0  0  0  0  0
   27.8351  -12.5362  -19.3819 C   0  0  0  0  0  0  0  0  0  0  0  0
   26.3627  -12.1836  -19.3710 C   0  0  0  0  0  0  0  0  0  0  0  0
   26.4023  -10.7600  -18.8736 C   0  0  1  0  0  0  0  0  0  0  0  0
   25.0926  -10.3338  -18.3144 C   0  0  0  0  0  0  0  0  0  0  0  0
   24.1068  -10.3017  -19.0818 O   0  0  0  0  0  0  0  0  0  0  0  0
   20.7529  -10.6650  -15.2399 C   0  0  0  0  0  0  0  0  0  0  0  0
   22.0166  -10.2352  -14.5815 C   0  0  0  0  0  0  0  0  0  0  0  0
   23.2754  -10.5548  -15.3086 C   0  0  2  0  0  0  0  0  0  0  0  0
   24.3879  -10.7678  -14.3011 C   0  0  0  0  0  0  0  0  0  0  0  0
   23.6589   -9.5751  -16.3704 C   0  0  2  0  0  0  0  0  0  0  0  0
   24.9365   -9.9682  -16.9533 N   0  0  0  0  0  0  0  0  0  0  0  0
   23.7774   -8.1904  -15.8614 C   0  0  0  0  0  0  0  0  0  0  0  0
   24.7961   -7.8086  -15.2146 O   0  0  0  0  0  0  0  0  0  0  0  0
   22.7462   -7.2770  -16.0954 N   0  0  0  0  0  0  0  0  0  0  0  0
   22.9352   -5.8640  -15.5387 C   0  0  1  0  0  0  0  0  0  0  0  0
   22.4729   -4.9580  -16.6248 C   0  0  0  0  0  0  0  0  0  0  0  0
   22.3800   -3.5275  -16.4415 C   0  0  0  0  0  0  0  0  0  0  0  0
   21.9319   -2.6626  -17.5492 C   0  0  0  0  0  0  0  0  0  0  0  0
   21.9717   -1.1679  -17.1023 C   0  0  0  0  0  0  0  0  0  0  0  0
   21.4348   -0.3178  -18.1207 N   0  0  0  0  0  0  0  0  0  0  0  0
   22.0586   -5.9168  -14.3387 C   0  0  0  0  0  0  0  0  0  0  0  0
   22.2236   -5.2362  -13.1647 O   0  0  0  0  0  0  0  0  0  0  0  0
   21.0156   -6.6773  -14.3509 O   0  0  0  0  0  0  0  0  0  0  0  0
  1  5  1  0
  2  3  1  0
  2  1  1  0
  3  4  1  0
  4  5  1  0
  5  6  1  1
  7  6  2  0
  9  8  1  0
 10  9  1  0
 10 11  1  1
 12 10  1  0
 12 13  1  1
 13  6  1  0
 14 15  2  0
 14 12  1  0
 16 14  1  0
 17 16  1  0
 17 18  1  6
 19 20  1  0
 19 18  1  0
 20 21  1  0
 21 22  1  0
 23 24  1  0
 23 17  1  0
 25 23  2  0
M  END
$$$$
