PIK.pdb
     RDKit          3D

 25 25  0  0  1  0  0  0  0  0999 V2000
   28.5596  -20.8337  -15.3284 N   0  0  0  0  0  0  0  0  0  0  0  0
   28.7986  -20.0580  -16.5112 C   0  0  0  0  0  0  0  0  0  0  0  0
   28.4521  -18.6198  -16.1629 C   0  0  0  0  0  0  0  0  0  0  0  0
   27.3881  -18.8203  -15.1045 C   0  0  0  0  0  0  0  0  0  0  0  0
   27.9416  -20.0019  -14.3476 C   0  0  1  0  0  0  0  0  0  0  0  0
   26.8858  -20.7048  -13.5723 C   0  0  0  0  0  0  0  0  0  0  0  0
   26.3060  -21.6726  -14.1098 O   0  0  0  0  0  0  0  0  0  0  0  0
   26.8864  -20.4497   -8.0492 C   0  0  0  0  0  0  0  0  0  0  0  0
   26.6464  -20.9773   -9.4201 C   0  0  0  0  0  0  0  0  0  0  0  0
   25.4341  -20.4656  -10.1156 C   0  0  2  0  0  0  0  0  0  0  0  0
   24.2022  -20.9026   -9.3480 C   0  0  0  0  0  0  0  0  0  0  0  0
   25.3439  -20.8119  -11.5670 C   0  0  2  0  0  0  0  0  0  0  0  0
   26.5257  -20.3104  -12.2588 N   0  0  0  0  0  0  0  0  0  0  0  0
   24.1400  -20.2506  -12.2198 C   0  0  0  0  0  0  0  0  0  0  0  0
   23.9913  -19.0029  -12.3717 O   0  0  0  0  0  0  0  0  0  0  0  0
   23.1399  -21.1098  -12.6819 N   0  0  0  0  0  0  0  0  0  0  0  0
   21.9567  -20.4657  -13.4080 C   0  0  1  0  0  0  0  0  0  0  0  0
   21.9763  -21.0559  -14.7738 C   0  0  0  0  0  0  0  0  0  0  0  0
   20.9213  -20.8091  -15.7302 C   0  0  0  0  0  0  0  0  0  0  0  0
   20.9128  -21.5120  -17.0271 C   0  0  0  0  0  0  0  0  0  0  0  0
   20.4016  -20.5514  -18.1457 C   0  0  0  0  0  0  0  0  0  0  0  0
   20.5130  -21.1653  -19.4336 N   0  0  0  0  0  0  0  0  0  0  0  0
   20.8277  -20.9007  -12.5435 C   0  0  0  0  0  0  0  0  0  0  0  0
   20.8053  -21.9671  -11.6885 O   0  0  0  0  0  0  0  0  0  0  0  0
   19.7209  -20.2368  -12.5677 O   0  0  0  0  0  0  0  0  0  0  0  0
  1  5  1  0
  2  3  1  0
  2  1  1  0
  3  4  1  0
  4  5  1  0
  5  6  1  6
  7  6  2  0
  9  8  1  0
 10  9  1  0
 10 11  1  1
 12 10  1  0
 12 13  1  6
 13  6  1  0
 14 15  2  0
 14 12  1  0
 16 14  1  0
 17 16  1  0
 17 18  1  6
 19 20  1  0
 19 18  1  0
 20 21  1  0
 21 22  1  0
 23 24  1  0
 23 17  1  0
 25 23  2  0
M  END
$$$$
