PIK.pdb
     RDKit          3D

 25 25  0  0  1  0  0  0  0  0999 V2000
   27.0531  -19.1537  -15.7212 N   0  0  0  0  0  0  0  0  0  0  0  0
   28.1562  -18.2521  -15.8895 C   0  0  0  0  0  0  0  0  0  0  0  0
   29.4189  -19.0945  -15.8149 C   0  0  0  0  0  0  0  0  0  0  0  0
   28.9704  -20.2192  -14.9059 C   0  0  0  0  0  0  0  0  0  0  0  0
   27.5591  -20.4454  -15.3881 C   0  0  1  0  0  0  0  0  0  0  0  0
   26.7337  -21.1474  -14.3704 C   0  0  0  0  0  0  0  0  0  0  0  0
   27.0272  -22.3286  -14.0867 O   0  0  0  0  0  0  0  0  0  0  0  0
   26.1267  -19.6341   -9.4821 C   0  0  0  0  0  0  0  0  0  0  0  0
   26.0725  -20.4586  -10.7200 C   0  0  0  0  0  0  0  0  0  0  0  0
   24.7876  -20.4288  -11.4708 C   0  0  2  0  0  0  0  0  0  0  0  0
   23.6653  -20.8599  -10.5473 C   0  0  0  0  0  0  0  0  0  0  0  0
   24.7863  -21.1968  -12.7532 C   0  0  2  0  0  0  0  0  0  0  0  0
   25.6388  -20.5201  -13.7237 N   0  0  0  0  0  0  0  0  0  0  0  0
   23.4333  -21.3454  -13.3346 C   0  0  0  0  0  0  0  0  0  0  0  0
   22.8255  -20.3642  -13.8541 O   0  0  0  0  0  0  0  0  0  0  0  0
   22.8051  -22.5933  -13.3142 N   0  0  0  0  0  0  0  0  0  0  0  0
   21.4282  -22.6846  -13.9760 C   0  0  1  0  0  0  0  0  0  0  0  0
   21.2805  -24.1145  -14.3602 C   0  0  0  0  0  0  0  0  0  0  0  0
   21.6794  -24.6037  -15.6602 C   0  0  0  0  0  0  0  0  0  0  0  0
   21.6159  -26.0456  -15.9647 C   0  0  0  0  0  0  0  0  0  0  0  0
   22.8733  -26.4683  -16.7867 C   0  0  0  0  0  0  0  0  0  0  0  0
   22.4954  -27.2184  -17.9453 N   0  0  0  0  0  0  0  0  0  0  0  0
   20.5523  -22.2316  -12.8630 C   0  0  0  0  0  0  0  0  0  0  0  0
   19.3292  -21.6300  -12.9668 O   0  0  0  0  0  0  0  0  0  0  0  0
   20.9439  -22.3955  -11.6439 O   0  0  0  0  0  0  0  0  0  0  0  0
  1  5  1  0
  2  3  1  0
  2  1  1  0
  3  4  1  0
  4  5  1  0
  5  6  1  1
  7  6  2  0
  9  8  1  0
 10  9  1  0
 10 11  1  1
 12 10  1  0
 12 13  1  6
 13  6  1  0
 14 15  2  0
 14 12  1  0
 16 14  1  0
 17 16  1  0
 17 18  1  1
 19 20  1  0
 19 18  1  0
 20 21  1  0
 21 22  1  0
 23 24  1  0
 23 17  1  0
 25 23  2  0
M  END
$$$$
