PIK.pdb
     RDKit          3D

 25 25  0  0  1  0  0  0  0  0999 V2000
   28.9368  -19.4799  -13.6870 N   0  0  0  0  0  0  0  0  0  0  0  0
   30.3691  -19.5529  -13.7221 C   0  0  0  0  0  0  0  0  0  0  0  0
   30.7190  -20.8522  -14.4284 C   0  0  0  0  0  0  0  0  0  0  0  0
   29.5237  -21.7117  -14.0753 C   0  0  0  0  0  0  0  0  0  0  0  0
   28.3997  -20.7102  -14.1703 C   0  0  1  0  0  0  0  0  0  0  0  0
   27.1983  -21.1551  -13.4163 C   0  0  0  0  0  0  0  0  0  0  0  0
   26.5524  -22.1291  -13.8590 O   0  0  0  0  0  0  0  0  0  0  0  0
   24.8798  -20.8228   -7.6800 C   0  0  0  0  0  0  0  0  0  0  0  0
   24.6923  -21.0848   -9.1331 C   0  0  0  0  0  0  0  0  0  0  0  0
   25.8313  -20.7159  -10.0173 C   0  0  2  0  0  0  0  0  0  0  0  0
   26.2674  -19.2998   -9.6969 C   0  0  0  0  0  0  0  0  0  0  0  0
   25.5867  -20.9113  -11.4789 C   0  0  2  0  0  0  0  0  0  0  0  0
   26.7737  -20.5120  -12.2261 N   0  0  0  0  0  0  0  0  0  0  0  0
   24.4299  -20.1351  -11.9787 C   0  0  0  0  0  0  0  0  0  0  0  0
   24.4763  -18.8749  -12.0868 O   0  0  0  0  0  0  0  0  0  0  0  0
   23.2558  -20.8000  -12.3416 N   0  0  0  0  0  0  0  0  0  0  0  0
   22.1728  -19.9648  -13.0284 C   0  0  1  0  0  0  0  0  0  0  0  0
   22.0743  -20.5204  -14.4052 C   0  0  0  0  0  0  0  0  0  0  0  0
   21.0931  -20.0461  -15.3544 C   0  0  0  0  0  0  0  0  0  0  0  0
   20.9648  -20.6882  -16.6762 C   0  0  0  0  0  0  0  0  0  0  0  0
   19.8255  -19.9993  -17.4903 C   0  0  0  0  0  0  0  0  0  0  0  0
   19.6392  -20.6467  -18.7529 N   0  0  0  0  0  0  0  0  0  0  0  0
   21.0070  -20.2394  -12.1471 C   0  0  0  0  0  0  0  0  0  0  0  0
   19.9338  -19.4241  -11.9189 O   0  0  0  0  0  0  0  0  0  0  0  0
   20.9543  -21.3540  -11.4979 O   0  0  0  0  0  0  0  0  0  0  0  0
  1  5  1  0
  2  3  1  0
  2  1  1  0
  3  4  1  0
  4  5  1  0
  5  6  1  1
  7  6  2  0
  9  8  1  0
 10  9  1  0
 10 11  1  6
 12 10  1  0
 12 13  1  6
 13  6  1  0
 14 15  2  0
 14 12  1  0
 16 14  1  0
 17 16  1  0
 17 18  1  6
 19 20  1  0
 19 18  1  0
 20 21  1  0
 21 22  1  0
 23 24  1  0
 23 17  1  0
 25 23  2  0
M  END
$$$$
