PIK.pdb
     RDKit          3D

 25 25  0  0  1  0  0  0  0  0999 V2000
   27.2146  -18.9019  -15.2499 N   0  0  0  0  0  0  0  0  0  0  0  0
   28.5473  -18.3737  -15.3050 C   0  0  0  0  0  0  0  0  0  0  0  0
   29.4381  -19.4982  -15.8066 C   0  0  0  0  0  0  0  0  0  0  0  0
   28.6943  -20.7143  -15.2965 C   0  0  0  0  0  0  0  0  0  0  0  0
   27.2610  -20.3016  -15.5223 C   0  0  1  0  0  0  0  0  0  0  0  0
   26.3209  -21.0882  -14.6813 C   0  0  0  0  0  0  0  0  0  0  0  0
   26.1950  -22.3081  -14.9218 O   0  0  0  0  0  0  0  0  0  0  0  0
   25.6482  -19.9244   -9.3026 C   0  0  0  0  0  0  0  0  0  0  0  0
   25.2158  -19.9276  -10.7267 C   0  0  0  0  0  0  0  0  0  0  0  0
   25.1403  -21.2603  -11.3851 C   0  0  2  0  0  0  0  0  0  0  0  0
   26.4865  -21.9472  -11.2666 C   0  0  0  0  0  0  0  0  0  0  0  0
   24.6406  -21.2427  -12.7938 C   0  0  2  0  0  0  0  0  0  0  0  0
   25.5750  -20.4980  -13.6297 N   0  0  0  0  0  0  0  0  0  0  0  0
   23.2994  -20.6300  -12.9220 C   0  0  0  0  0  0  0  0  0  0  0  0
   23.0850  -19.4305  -12.5799 O   0  0  0  0  0  0  0  0  0  0  0  0
   22.2399  -21.3853  -13.4312 N   0  0  0  0  0  0  0  0  0  0  0  0
   20.8992  -20.6675  -13.6022 C   0  0  1  0  0  0  0  0  0  0  0  0
   20.3822  -21.1275  -14.9195 C   0  0  0  0  0  0  0  0  0  0  0  0
   19.0822  -20.7330  -15.4125 C   0  0  0  0  0  0  0  0  0  0  0  0
   18.5888  -21.2462  -16.7044 C   0  0  0  0  0  0  0  0  0  0  0  0
   17.2171  -20.5853  -17.0468 C   0  0  0  0  0  0  0  0  0  0  0  0
   16.7801  -20.9682  -18.3546 N   0  0  0  0  0  0  0  0  0  0  0  0
   20.1579  -21.1733  -12.4165 C   0  0  0  0  0  0  0  0  0  0  0  0
   20.3854  -22.3359  -11.7344 O   0  0  0  0  0  0  0  0  0  0  0  0
   19.1787  -20.4800  -11.9404 O   0  0  0  0  0  0  0  0  0  0  0  0
  1  5  1  0
  2  3  1  0
  2  1  1  0
  3  4  1  0
  4  5  1  0
  5  6  1  1
  7  6  2  0
  9  8  1  0
 10  9  1  0
 10 11  1  6
 12 10  1  0
 12 13  1  6
 13  6  1  0
 14 15  2  0
 14 12  1  0
 16 14  1  0
 17 16  1  0
 17 18  1  6
 19 20  1  0
 19 18  1  0
 20 21  1  0
 21 22  1  0
 23 24  1  0
 23 17  1  0
 25 23  2  0
M  END
$$$$
