PIK.pdb
     RDKit          3D

 25 25  0  0  1  0  0  0  0  0999 V2000
   21.9901  -13.6983  -17.6960 N   0  0  0  0  0  0  0  0  0  0  0  0
   21.9477  -15.1189  -17.8916 C   0  0  0  0  0  0  0  0  0  0  0  0
   21.4498  -15.3458  -19.3094 C   0  0  0  0  0  0  0  0  0  0  0  0
   20.5839  -14.1214  -19.5180 C   0  0  0  0  0  0  0  0  0  0  0  0
   21.4018  -13.0585  -18.8274 C   0  0  1  0  0  0  0  0  0  0  0  0
   20.5767  -11.8771  -18.4623 C   0  0  0  0  0  0  0  0  0  0  0  0
   20.0426  -11.2241  -19.3843 O   0  0  0  0  0  0  0  0  0  0  0  0
   17.0284  -12.8719  -15.7777 C   0  0  0  0  0  0  0  0  0  0  0  0
   17.3811  -11.5778  -16.4228 C   0  0  0  0  0  0  0  0  0  0  0  0
   18.4867  -10.8097  -15.7879 C   0  0  2  0  0  0  0  0  0  0  0  0
   17.8972   -9.6674  -14.9843 C   0  0  0  0  0  0  0  0  0  0  0  0
   19.5539  -10.3448  -16.7256 C   0  0  2  0  0  0  0  0  0  0  0  0
   20.3838  -11.4789  -17.1152 N   0  0  0  0  0  0  0  0  0  0  0  0
   20.4240   -9.3020  -16.1372 C   0  0  0  0  0  0  0  0  0  0  0  0
   21.2555   -9.5736  -15.2225 O   0  0  0  0  0  0  0  0  0  0  0  0
   20.3325   -7.9854  -16.5958 N   0  0  0  0  0  0  0  0  0  0  0  0
   21.2915   -6.9684  -15.9727 C   0  0  1  0  0  0  0  0  0  0  0  0
   21.3947   -5.8733  -16.9747 C   0  0  0  0  0  0  0  0  0  0  0  0
   22.1120   -4.6490  -16.7005 C   0  0  0  0  0  0  0  0  0  0  0  0
   22.1912   -3.5878  -17.7220 C   0  0  0  0  0  0  0  0  0  0  0  0
   23.1422   -2.4518  -17.2316 C   0  0  0  0  0  0  0  0  0  0  0  0
   23.2787   -1.4359  -18.2303 N   0  0  0  0  0  0  0  0  0  0  0  0
   20.5599   -6.6221  -14.7253 C   0  0  0  0  0  0  0  0  0  0  0  0
   21.0980   -6.3800  -13.4923 O   0  0  0  0  0  0  0  0  0  0  0  0
   19.2725   -6.5318  -14.7521 O   0  0  0  0  0  0  0  0  0  0  0  0
  1  5  1  0
  2  3  1  0
  2  1  1  0
  3  4  1  0
  4  5  1  0
  5  6  1  1
  7  6  2  0
  9  8  1  0
 10  9  1  0
 10 11  1  6
 12 10  1  0
 12 13  1  1
 13  6  1  0
 14 15  2  0
 14 12  1  0
 16 14  1  0
 17 16  1  0
 17 18  1  6
 19 20  1  0
 19 18  1  0
 20 21  1  0
 21 22  1  0
 23 24  1  0
 23 17  1  0
 25 23  2  0
M  END
$$$$
