PIK.pdb
     RDKit          3D

 25 25  0  0  1  0  0  0  0  0999 V2000
   18.4615  -24.8023   -6.5608 N   0  0  0  0  0  0  0  0  0  0  0  0
   19.0315  -25.3744   -7.7464 C   0  0  0  0  0  0  0  0  0  0  0  0
   17.8916  -25.5407   -8.7378 C   0  0  0  0  0  0  0  0  0  0  0  0
   16.7157  -25.7405   -7.8051 C   0  0  0  0  0  0  0  0  0  0  0  0
   17.0423  -24.7640   -6.7026 C   0  0  1  0  0  0  0  0  0  0  0  0
   16.3239  -25.0926   -5.4434 C   0  0  0  0  0  0  0  0  0  0  0  0
   15.0770  -25.1682   -5.4791 O   0  0  0  0  0  0  0  0  0  0  0  0
   18.9664  -28.4636   -2.6838 C   0  0  0  0  0  0  0  0  0  0  0  0
   17.6064  -27.9247   -2.9582 C   0  0  0  0  0  0  0  0  0  0  0  0
   17.2416  -26.6722   -2.2415 C   0  0  2  0  0  0  0  0  0  0  0  0
   16.6785  -27.0278   -0.8797 C   0  0  0  0  0  0  0  0  0  0  0  0
   16.3413  -25.7495   -2.9983 C   0  0  2  0  0  0  0  0  0  0  0  0
   17.0075  -25.3185   -4.2218 N   0  0  0  0  0  0  0  0  0  0  0  0
   15.9593  -24.5500   -2.2200 C   0  0  0  0  0  0  0  0  0  0  0  0
   16.7689  -23.5942   -2.0385 O   0  0  0  0  0  0  0  0  0  0  0  0
   14.6781  -24.4620   -1.6694 N   0  0  0  0  0  0  0  0  0  0  0  0
   14.3655  -23.2122   -0.8433 C   0  0  1  0  0  0  0  0  0  0  0  0
   12.9995  -22.8026   -1.2680 C   0  0  0  0  0  0  0  0  0  0  0  0
   12.6720  -21.4285   -1.5737 C   0  0  0  0  0  0  0  0  0  0  0  0
   11.3038  -21.0635   -1.9868 C   0  0  0  0  0  0  0  0  0  0  0  0
   11.2125  -19.5216   -2.2097 C   0  0  0  0  0  0  0  0  0  0  0  0
    9.9713  -19.1696   -2.8290 N   0  0  0  0  0  0  0  0  0  0  0  0
   14.4656  -23.7570    0.5367 C   0  0  0  0  0  0  0  0  0  0  0  0
   14.7896  -23.0712    1.6740 O   0  0  0  0  0  0  0  0  0  0  0  0
   14.2364  -25.0111    0.7392 O   0  0  0  0  0  0  0  0  0  0  0  0
  1  5  1  0
  2  3  1  0
  2  1  1  0
  3  4  1  0
  4  5  1  0
  5  6  1  1
  7  6  2  0
  9  8  1  0
 10  9  1  0
 10 11  1  1
 12 10  1  0
 12 13  1  6
 13  6  1  0
 14 15  2  0
 14 12  1  0
 16 14  1  0
 17 16  1  0
 17 18  1  6
 19 20  1  0
 19 18  1  0
 20 21  1  0
 21 22  1  0
 23 24  1  0
 23 17  1  0
 25 23  2  0
M  END
$$$$
