PIK.pdb
     RDKit          3D

 25 25  0  0  1  0  0  0  0  0999 V2000
   27.4866  -19.4886  -15.0629 N   0  0  0  0  0  0  0  0  0  0  0  0
   28.8957  -19.2223  -15.1013 C   0  0  0  0  0  0  0  0  0  0  0  0
   29.5800  -20.5515  -15.3746 C   0  0  0  0  0  0  0  0  0  0  0  0
   28.6013  -21.5220  -14.7482 C   0  0  0  0  0  0  0  0  0  0  0  0
   27.2811  -20.8990  -15.1285 C   0  0  1  0  0  0  0  0  0  0  0  0
   26.1766  -21.3662  -14.2502 C   0  0  0  0  0  0  0  0  0  0  0  0
   25.8108  -22.5573  -14.3469 O   0  0  0  0  0  0  0  0  0  0  0  0
   26.3996  -20.5670   -9.0933 C   0  0  0  0  0  0  0  0  0  0  0  0
   26.0230  -21.0685  -10.4431 C   0  0  0  0  0  0  0  0  0  0  0  0
   24.7819  -20.4951  -11.0317 C   0  0  2  0  0  0  0  0  0  0  0  0
   23.6250  -20.7429  -10.0839 C   0  0  0  0  0  0  0  0  0  0  0  0
   24.4748  -20.9463  -12.4233 C   0  0  2  0  0  0  0  0  0  0  0  0
   25.5375  -20.5075  -13.3203 N   0  0  0  0  0  0  0  0  0  0  0  0
   23.1848  -20.4239  -12.9271 C   0  0  0  0  0  0  0  0  0  0  0  0
   22.9995  -19.1855  -13.1108 O   0  0  0  0  0  0  0  0  0  0  0  0
   22.1424  -21.3106  -13.2090 N   0  0  0  0  0  0  0  0  0  0  0  0
   20.8277  -20.6983  -13.6977 C   0  0  1  0  0  0  0  0  0  0  0  0
   20.1740  -21.7744  -14.4908 C   0  0  0  0  0  0  0  0  0  0  0  0
   18.8387  -21.6294  -15.0242 C   0  0  0  0  0  0  0  0  0  0  0  0
   18.2038  -22.7428  -15.7544 C   0  0  0  0  0  0  0  0  0  0  0  0
   16.7601  -22.3369  -16.1860 C   0  0  0  0  0  0  0  0  0  0  0  0
   16.1357  -23.3898  -16.9275 N   0  0  0  0  0  0  0  0  0  0  0  0
   20.1717  -20.3748  -12.4031 C   0  0  0  0  0  0  0  0  0  0  0  0
   19.2924  -19.3582  -12.1539 O   0  0  0  0  0  0  0  0  0  0  0  0
   20.4293  -21.0987  -11.3658 O   0  0  0  0  0  0  0  0  0  0  0  0
  1  5  1  0
  2  3  1  0
  2  1  1  0
  3  4  1  0
  4  5  1  0
  5  6  1  1
  7  6  2  0
  9  8  1  0
 10  9  1  0
 10 11  1  1
 12 10  1  0
 12 13  1  6
 13  6  1  0
 14 15  2  0
 14 12  1  0
 16 14  1  0
 17 16  1  0
 17 18  1  1
 19 20  1  0
 19 18  1  0
 20 21  1  0
 21 22  1  0
 23 24  1  0
 23 17  1  0
 25 23  2  0
M  END
$$$$
