INV.pdb
     RDKit          3D

 24 23  0  0  1  0  0  0  0  0999 V2000
    8.3761  -12.2976   20.3817 C   0  0  0  0  0  0  0  0  0  0  0  0
    8.2943  -13.4485   21.3564 C   0  0  0  0  0  0  0  0  0  0  0  0
    7.5703  -14.6357   20.8296 C   0  0  2  0  0  0  0  0  0  0  0  0
    6.1566  -14.2076   20.4936 C   0  0  0  0  0  0  0  0  0  0  0  0
    7.5538  -15.8049   21.7785 C   0  0  2  0  0  0  0  0  0  0  0  0
    6.8630  -15.5439   22.9971 N   0  0  0  0  0  0  0  0  0  0  0  0
    8.9094  -16.3356   22.0344 C   0  0  0  0  0  0  0  0  0  0  0  0
    9.5197  -16.9089   21.1152 O   0  0  0  0  0  0  0  0  0  0  0  0
   13.5500  -17.6746   21.5594 N   0  0  0  0  0  0  0  0  0  0  0  0
   12.2232  -17.1834   21.6167 C   0  0  0  0  0  0  0  0  0  0  0  0
   11.3718  -17.6159   20.8102 O   0  0  0  0  0  0  0  0  0  0  0  0
   11.8514  -16.1729   22.6171 C   0  0  0  0  0  0  0  0  0  0  0  0
   10.8338  -16.6877   23.6040 C   0  0  2  0  0  0  0  0  0  0  0  0
    9.4898  -16.1857   23.3109 N   0  0  0  0  0  0  0  0  0  0  0  0
   11.1653  -16.2722   24.9931 C   0  0  0  0  0  0  0  0  0  0  0  0
   12.3405  -16.3571   25.4507 O   0  0  0  0  0  0  0  0  0  0  0  0
    9.8555  -13.4295   28.7808 C   0  0  0  0  0  0  0  0  0  0  0  0
    9.5196  -14.1132   27.4728 C   0  0  1  0  0  0  0  0  0  0  0  0
    9.4738  -13.1298   26.3262 C   0  0  0  0  0  0  0  0  0  0  0  0
   10.4995  -15.2449   27.2046 C   0  0  2  0  0  0  0  0  0  0  0  0
   10.1819  -15.7569   25.8839 N   0  0  0  0  0  0  0  0  0  0  0  0
   10.3163  -16.3524   28.1776 C   0  0  0  0  0  0  0  0  0  0  0  0
   11.0585  -16.4253   29.3589 O   0  0  0  0  0  0  0  0  0  0  0  0
    9.4888  -17.2726   27.9857 O   0  0  0  0  0  0  0  0  0  0  0  0
  2  1  1  0
  3  2  1  0
  3  4  1  1
  5  7  1  0
  5  3  1  0
  5  6  1  1
  7  8  2  0
 10  9  1  0
 11 10  2  0
 13 12  1  6
 12 10  1  0
 14 13  1  0
 14  7  1  0
 15 21  1  0
 15 13  1  0
 16 15  2  0
 18 17  1  1
 19 18  1  0
 20 18  1  0
 20 21  1  6
 22 23  1  0
 22 20  1  0
 24 22  2  0
M  END
$$$$
