INV.pdb
     RDKit          3D

 24 23  0  0  1  0  0  0  0  0999 V2000
    7.8384  -12.1188   18.7782 C   0  0  0  0  0  0  0  0  0  0  0  0
    8.0376  -13.6009   18.9903 C   0  0  0  0  0  0  0  0  0  0  0  0
    7.4151  -14.1217   20.2363 C   0  0  2  0  0  0  0  0  0  0  0  0
    8.0942  -13.4501   21.4120 C   0  0  0  0  0  0  0  0  0  0  0  0
    7.4914  -15.6196   20.3708 C   0  0  2  0  0  0  0  0  0  0  0  0
    6.8105  -16.3231   19.3355 N   0  0  0  0  0  0  0  0  0  0  0  0
    7.0602  -16.0830   21.7065 C   0  0  0  0  0  0  0  0  0  0  0  0
    5.8462  -16.2199   21.9382 O   0  0  0  0  0  0  0  0  0  0  0  0
    8.0424  -19.6250   26.3176 N   0  0  0  0  0  0  0  0  0  0  0  0
    7.2885  -18.6926   25.5645 C   0  0  0  0  0  0  0  0  0  0  0  0
    6.2217  -18.2416   26.0344 O   0  0  0  0  0  0  0  0  0  0  0  0
    7.7578  -18.2594   24.2409 C   0  0  0  0  0  0  0  0  0  0  0  0
    7.6404  -16.7682   24.0485 C   0  0  2  0  0  0  0  0  0  0  0  0
    8.0261  -16.3624   22.6954 N   0  0  0  0  0  0  0  0  0  0  0  0
    8.5153  -16.0273   24.9959 C   0  0  0  0  0  0  0  0  0  0  0  0
    9.7630  -15.9345   24.8160 O   0  0  0  0  0  0  0  0  0  0  0  0
    8.5954  -12.5817   28.5498 C   0  0  0  0  0  0  0  0  0  0  0  0
    7.8411  -13.5366   27.6497 C   0  0  1  0  0  0  0  0  0  0  0  0
    7.0248  -12.7982   26.6142 C   0  0  0  0  0  0  0  0  0  0  0  0
    8.8029  -14.5246   27.0081 C   0  0  2  0  0  0  0  0  0  0  0  0
    8.0000  -15.3825   26.1556 N   0  0  0  0  0  0  0  0  0  0  0  0
    9.4518  -15.3816   28.0334 C   0  0  0  0  0  0  0  0  0  0  0  0
   10.6362  -15.0012   28.6690 O   0  0  0  0  0  0  0  0  0  0  0  0
    8.9686  -16.4848   28.3767 O   0  0  0  0  0  0  0  0  0  0  0  0
  2  1  1  0
  3  2  1  0
  3  4  1  1
  5  7  1  0
  5  3  1  0
  5  6  1  6
  7  8  2  0
 10  9  1  0
 11 10  2  0
 13 12  1  6
 12 10  1  0
 14 13  1  0
 14  7  1  0
 15 21  1  0
 15 13  1  0
 16 15  2  0
 18 17  1  6
 19 18  1  0
 20 18  1  0
 20 21  1  6
 22 23  1  0
 22 20  1  0
 24 22  2  0
M  END
$$$$
