INV.pdb
     RDKit          3D

 24 23  0  0  1  0  0  0  0  0999 V2000
    7.9546  -12.0962   19.2881 C   0  0  0  0  0  0  0  0  0  0  0  0
    7.9614  -13.5890   19.5178 C   0  0  0  0  0  0  0  0  0  0  0  0
    7.6221  -13.9874   20.9097 C   0  0  2  0  0  0  0  0  0  0  0  0
    8.6386  -13.3529   21.8365 C   0  0  0  0  0  0  0  0  0  0  0  0
    7.5784  -15.4779   21.1192 C   0  0  2  0  0  0  0  0  0  0  0  0
    6.7134  -16.1584   20.2143 N   0  0  0  0  0  0  0  0  0  0  0  0
    7.2760  -15.8362   22.5210 C   0  0  0  0  0  0  0  0  0  0  0  0
    6.1303  -15.6414   22.9631 O   0  0  0  0  0  0  0  0  0  0  0  0
    6.8715  -19.3534   23.0416 N   0  0  0  0  0  0  0  0  0  0  0  0
    6.6905  -18.6830   24.2756 C   0  0  0  0  0  0  0  0  0  0  0  0
    5.5376  -18.5508   24.7403 O   0  0  0  0  0  0  0  0  0  0  0  0
    7.8496  -18.1475   25.0032 C   0  0  0  0  0  0  0  0  0  0  0  0
    8.0559  -16.6746   24.7526 C   0  0  2  0  0  0  0  0  0  0  0  0
    8.2855  -16.3914   23.3344 N   0  0  0  0  0  0  0  0  0  0  0  0
    9.2316  -16.1554   25.5008 C   0  0  0  0  0  0  0  0  0  0  0  0
    9.9969  -15.2766   25.0112 O   0  0  0  0  0  0  0  0  0  0  0  0
    9.5256  -13.8143   26.9017 C   0  0  0  0  0  0  0  0  0  0  0  0
    9.9061  -14.6510   28.1043 C   0  0  1  0  0  0  0  0  0  0  0  0
    8.7239  -14.8855   29.0160 C   0  0  0  0  0  0  0  0  0  0  0  0
   10.5388  -15.9592   27.6554 C   0  0  2  0  0  0  0  0  0  0  0  0
    9.5616  -16.6162   26.8065 N   0  0  0  0  0  0  0  0  0  0  0  0
   10.8056  -16.8493   28.8145 C   0  0  0  0  0  0  0  0  0  0  0  0
   11.9528  -16.7120   29.5998 O   0  0  0  0  0  0  0  0  0  0  0  0
   10.0159  -17.7642   29.1426 O   0  0  0  0  0  0  0  0  0  0  0  0
  2  1  1  0
  3  2  1  0
  3  4  1  1
  5  7  1  0
  5  3  1  0
  5  6  1  6
  7  8  2  0
 10  9  1  0
 11 10  2  0
 13 12  1  6
 12 10  1  0
 14 13  1  0
 14  7  1  0
 15 21  1  0
 15 13  1  0
 16 15  2  0
 18 17  1  6
 19 18  1  0
 20 18  1  0
 20 21  1  6
 22 23  1  0
 22 20  1  0
 24 22  2  0
M  END
$$$$
