INV.pdb
     RDKit          3D

 24 23  0  0  1  0  0  0  0  0999 V2000
    7.0178  -11.9815   21.1241 C   0  0  0  0  0  0  0  0  0  0  0  0
    7.0182  -13.4915   21.1579 C   0  0  0  0  0  0  0  0  0  0  0  0
    8.2104  -14.1096   20.5193 C   0  0  2  0  0  0  0  0  0  0  0  0
    8.3469  -13.5281   19.1272 C   0  0  0  0  0  0  0  0  0  0  0  0
    8.1530  -15.6130   20.4576 C   0  0  2  0  0  0  0  0  0  0  0  0
    7.2295  -16.1119   19.4940 N   0  0  0  0  0  0  0  0  0  0  0  0
    7.9201  -16.2181   21.7859 C   0  0  0  0  0  0  0  0  0  0  0  0
    7.2211  -17.2428   21.8714 O   0  0  0  0  0  0  0  0  0  0  0  0
   11.1278  -18.4742   21.4340 N   0  0  0  0  0  0  0  0  0  0  0  0
   10.5343  -18.1970   22.6893 C   0  0  0  0  0  0  0  0  0  0  0  0
    9.9496  -19.1118   23.3087 O   0  0  0  0  0  0  0  0  0  0  0  0
   10.6060  -16.8438   23.2584 C   0  0  0  0  0  0  0  0  0  0  0  0
    9.2993  -16.4079   23.8723 C   0  0  2  0  0  0  0  0  0  0  0  0
    8.4906  -15.6283   22.9329 N   0  0  0  0  0  0  0  0  0  0  0  0
    9.5194  -15.5586   25.0732 C   0  0  0  0  0  0  0  0  0  0  0  0
   10.3133  -15.9022   25.9948 O   0  0  0  0  0  0  0  0  0  0  0  0
    7.7196  -11.7276   25.2600 C   0  0  0  0  0  0  0  0  0  0  0  0
    7.7764  -12.5950   26.4991 C   0  0  1  0  0  0  0  0  0  0  0  0
    6.4995  -13.3811   26.6875 C   0  0  0  0  0  0  0  0  0  0  0  0
    8.9946  -13.5040   26.4489 C   0  0  2  0  0  0  0  0  0  0  0  0
    8.8513  -14.3147   25.2533 N   0  0  0  0  0  0  0  0  0  0  0  0
    9.0267  -14.4199   27.6180 C   0  0  0  0  0  0  0  0  0  0  0  0
    9.6420  -14.0596   28.8194 O   0  0  0  0  0  0  0  0  0  0  0  0
    8.5043  -15.5576   27.5827 O   0  0  0  0  0  0  0  0  0  0  0  0
  2  1  1  0
  3  2  1  0
  3  4  1  6
  5  7  1  0
  5  3  1  0
  5  6  1  6
  7  8  2  0
 10  9  1  0
 11 10  2  0
 13 12  1  6
 12 10  1  0
 14 13  1  0
 14  7  1  0
 15 21  1  0
 15 13  1  0
 16 15  2  0
 18 17  1  6
 19 18  1  0
 20 18  1  0
 20 21  1  6
 22 23  1  0
 22 20  1  0
 24 22  2  0
M  END
$$$$
