INV.pdb
     RDKit          3D

 24 23  0  0  1  0  0  0  0  0999 V2000
    7.4060  -11.9130   18.8028 C   0  0  0  0  0  0  0  0  0  0  0  0
    7.7683  -13.3745   18.9217 C   0  0  0  0  0  0  0  0  0  0  0  0
    7.4439  -13.9715   20.2444 C   0  0  2  0  0  0  0  0  0  0  0  0
    8.2057  -13.2005   21.3026 C   0  0  0  0  0  0  0  0  0  0  0  0
    7.7564  -15.4415   20.3381 C   0  0  2  0  0  0  0  0  0  0  0  0
    7.0306  -16.2418   19.4092 N   0  0  0  0  0  0  0  0  0  0  0  0
    7.6120  -15.9564   21.7162 C   0  0  0  0  0  0  0  0  0  0  0  0
    6.4827  -16.2706   22.1309 O   0  0  0  0  0  0  0  0  0  0  0  0
   10.6791  -18.4889   26.1914 N   0  0  0  0  0  0  0  0  0  0  0  0
    9.4408  -18.2315   25.5548 C   0  0  0  0  0  0  0  0  0  0  0  0
    8.3795  -18.3449   26.2054 O   0  0  0  0  0  0  0  0  0  0  0  0
    9.4050  -17.8342   24.1403 C   0  0  0  0  0  0  0  0  0  0  0  0
    8.6468  -16.5488   23.9228 C   0  0  2  0  0  0  0  0  0  0  0  0
    8.7508  -16.0838   22.5382 N   0  0  0  0  0  0  0  0  0  0  0  0
    9.1636  -15.4589   24.7928 C   0  0  0  0  0  0  0  0  0  0  0  0
   10.3241  -14.9810   24.6424 O   0  0  0  0  0  0  0  0  0  0  0  0
    7.8231  -12.0623   25.5094 C   0  0  0  0  0  0  0  0  0  0  0  0
    7.8801  -12.7903   26.8352 C   0  0  1  0  0  0  0  0  0  0  0  0
    6.5189  -13.2987   27.2503 C   0  0  0  0  0  0  0  0  0  0  0  0
    8.9055  -13.9119   26.7752 C   0  0  2  0  0  0  0  0  0  0  0  0
    8.3843  -14.8932   25.8410 N   0  0  0  0  0  0  0  0  0  0  0  0
    9.0507  -14.5747   28.0967 C   0  0  0  0  0  0  0  0  0  0  0  0
    9.7733  -13.9890   29.1390 O   0  0  0  0  0  0  0  0  0  0  0  0
    8.5331  -15.6889   28.3394 O   0  0  0  0  0  0  0  0  0  0  0  0
  2  1  1  0
  3  2  1  0
  3  4  1  1
  5  7  1  0
  5  3  1  0
  5  6  1  6
  7  8  2  0
 10  9  1  0
 11 10  2  0
 13 12  1  6
 12 10  1  0
 14 13  1  0
 14  7  1  0
 15 21  1  0
 15 13  1  0
 16 15  2  0
 18 17  1  6
 19 18  1  0
 20 18  1  0
 20 21  1  6
 22 23  1  0
 22 20  1  0
 24 22  2  0
M  END
$$$$
