INV.pdb
     RDKit          3D

 24 23  0  0  1  0  0  0  0  0999 V2000
    8.3892  -12.1362   18.4609 C   0  0  0  0  0  0  0  0  0  0  0  0
    8.3708  -13.6382   18.6188 C   0  0  0  0  0  0  0  0  0  0  0  0
    7.7008  -14.1067   19.8609 C   0  0  2  0  0  0  0  0  0  0  0  0
    8.3787  -13.4351   21.0373 C   0  0  0  0  0  0  0  0  0  0  0  0
    7.7161  -15.6030   20.0296 C   0  0  2  0  0  0  0  0  0  0  0  0
    7.0568  -16.3047   18.9792 N   0  0  0  0  0  0  0  0  0  0  0  0
    7.2090  -16.0210   21.3536 C   0  0  0  0  0  0  0  0  0  0  0  0
    5.9816  -16.0999   21.5356 O   0  0  0  0  0  0  0  0  0  0  0  0
    6.8189  -17.6073   26.1979 N   0  0  0  0  0  0  0  0  0  0  0  0
    7.6030  -18.4969   25.4243 C   0  0  0  0  0  0  0  0  0  0  0  0
    7.9156  -19.6111   25.8968 O   0  0  0  0  0  0  0  0  0  0  0  0
    8.0453  -18.1121   24.0766 C   0  0  0  0  0  0  0  0  0  0  0  0
    7.6593  -16.6968   23.7267 C   0  0  2  0  0  0  0  0  0  0  0  0
    8.1192  -16.3231   22.3877 N   0  0  0  0  0  0  0  0  0  0  0  0
    8.2478  -15.7208   24.6822 C   0  0  0  0  0  0  0  0  0  0  0  0
    9.4595  -15.3679   24.6113 O   0  0  0  0  0  0  0  0  0  0  0  0
    7.1800  -12.2358   28.0630 C   0  0  0  0  0  0  0  0  0  0  0  0
    6.7588  -13.3306   27.1066 C   0  0  1  0  0  0  0  0  0  0  0  0
    5.8852  -12.7943   25.9962 C   0  0  0  0  0  0  0  0  0  0  0  0
    7.9820  -14.0518   26.5618 C   0  0  2  0  0  0  0  0  0  0  0  0
    7.4835  -15.1302   25.7277 N   0  0  0  0  0  0  0  0  0  0  0  0
    8.7786  -14.6574   27.6598 C   0  0  0  0  0  0  0  0  0  0  0  0
    9.7788  -13.9436   28.3243 O   0  0  0  0  0  0  0  0  0  0  0  0
    8.5919  -15.8354   28.0417 O   0  0  0  0  0  0  0  0  0  0  0  0
  2  1  1  0
  3  2  1  0
  3  4  1  1
  5  7  1  0
  5  3  1  0
  5  6  1  6
  7  8  2  0
 10  9  1  0
 11 10  2  0
 13 12  1  1
 12 10  1  0
 14 13  1  0
 14  7  1  0
 15 21  1  0
 15 13  1  0
 16 15  2  0
 18 17  1  1
 19 18  1  0
 20 18  1  0
 20 21  1  6
 22 23  1  0
 22 20  1  0
 24 22  2  0
M  END
$$$$
