INV.pdb
     RDKit          3D

 24 23  0  0  1  0  0  0  0  0999 V2000
    7.6878  -12.0337   19.3170 C   0  0  0  0  0  0  0  0  0  0  0  0
    7.6901  -13.5369   19.4650 C   0  0  0  0  0  0  0  0  0  0  0  0
    7.2945  -14.0112   20.8176 C   0  0  2  0  0  0  0  0  0  0  0  0
    8.2772  -13.4380   21.8178 C   0  0  0  0  0  0  0  0  0  0  0  0
    7.2348  -15.5108   20.9398 C   0  0  2  0  0  0  0  0  0  0  0  0
    6.3445  -16.1261   20.0130 N   0  0  0  0  0  0  0  0  0  0  0  0
    6.9533  -15.9477   22.3236 C   0  0  0  0  0  0  0  0  0  0  0  0
    5.8022  -15.8222   22.7767 O   0  0  0  0  0  0  0  0  0  0  0  0
    7.1138  -19.8375   23.0067 N   0  0  0  0  0  0  0  0  0  0  0  0
    6.7866  -19.0034   24.1031 C   0  0  0  0  0  0  0  0  0  0  0  0
    5.5938  -18.8988   24.4618 O   0  0  0  0  0  0  0  0  0  0  0  0
    7.8420  -18.2670   24.8128 C   0  0  0  0  0  0  0  0  0  0  0  0
    7.7995  -16.7861   24.5308 C   0  0  2  0  0  0  0  0  0  0  0  0
    7.9883  -16.4979   23.1076 N   0  0  0  0  0  0  0  0  0  0  0  0
    8.8658  -16.0608   25.2717 C   0  0  0  0  0  0  0  0  0  0  0  0
   10.0796  -16.1266   24.9251 O   0  0  0  0  0  0  0  0  0  0  0  0
    8.7065  -12.4144   26.3399 C   0  0  0  0  0  0  0  0  0  0  0  0
    9.0320  -13.2276   27.5742 C   0  0  1  0  0  0  0  0  0  0  0  0
    7.8278  -13.3793   28.4746 C   0  0  0  0  0  0  0  0  0  0  0  0
    9.6112  -14.5766   27.1772 C   0  0  2  0  0  0  0  0  0  0  0  0
    8.5821  -15.2539   26.4094 N   0  0  0  0  0  0  0  0  0  0  0  0
    9.9048  -15.4056   28.3744 C   0  0  0  0  0  0  0  0  0  0  0  0
   11.0727  -15.2333   29.1213 O   0  0  0  0  0  0  0  0  0  0  0  0
    9.1202  -16.2976   28.7710 O   0  0  0  0  0  0  0  0  0  0  0  0
  2  1  1  0
  3  2  1  0
  3  4  1  1
  5  7  1  0
  5  3  1  0
  5  6  1  6
  7  8  2  0
 10  9  1  0
 11 10  2  0
 13 12  1  6
 12 10  1  0
 14 13  1  0
 14  7  1  0
 15 21  1  0
 15 13  1  0
 16 15  2  0
 18 17  1  6
 19 18  1  0
 20 18  1  0
 20 21  1  6
 22 23  1  0
 22 20  1  0
 24 22  2  0
M  END
$$$$
