INV.pdb
     RDKit          3D

 24 23  0  0  1  0  0  0  0  0999 V2000
    5.6037  -11.6097   26.6061 C   0  0  0  0  0  0  0  0  0  0  0  0
    5.4489  -12.8387   25.7419 C   0  0  0  0  0  0  0  0  0  0  0  0
    6.6694  -13.6852   25.6716 C   0  0  2  0  0  0  0  0  0  0  0  0
    7.7724  -12.8605   25.0408 C   0  0  0  0  0  0  0  0  0  0  0  0
    6.4725  -14.9694   24.9102 C   0  0  2  0  0  0  0  0  0  0  0  0
    5.3449  -15.7251   25.3435 N   0  0  0  0  0  0  0  0  0  0  0  0
    7.6961  -15.7983   24.8874 C   0  0  0  0  0  0  0  0  0  0  0  0
    7.8580  -16.6648   25.7644 O   0  0  0  0  0  0  0  0  0  0  0  0
   11.5740  -18.4144   21.5901 N   0  0  0  0  0  0  0  0  0  0  0  0
   11.6855  -17.1894   22.2914 C   0  0  0  0  0  0  0  0  0  0  0  0
   12.7839  -16.8652   22.7921 O   0  0  0  0  0  0  0  0  0  0  0  0
   10.5182  -16.3071   22.4288 C   0  0  0  0  0  0  0  0  0  0  0  0
    9.8480  -16.4447   23.7728 C   0  0  2  0  0  0  0  0  0  0  0  0
    8.6588  -15.5967   23.8767 N   0  0  0  0  0  0  0  0  0  0  0  0
   10.7632  -16.0561   24.8789 C   0  0  0  0  0  0  0  0  0  0  0  0
   11.5824  -15.1008   24.7603 O   0  0  0  0  0  0  0  0  0  0  0  0
    9.4594  -14.9400   27.8722 C   0  0  0  0  0  0  0  0  0  0  0  0
   10.9448  -14.8645   27.5914 C   0  0  1  0  0  0  0  0  0  0  0  0
   11.6927  -14.2004   28.7243 C   0  0  0  0  0  0  0  0  0  0  0  0
   11.4939  -16.2506   27.2908 C   0  0  2  0  0  0  0  0  0  0  0  0
   10.7694  -16.7349   26.1299 N   0  0  0  0  0  0  0  0  0  0  0  0
   11.2293  -17.1856   28.4145 C   0  0  0  0  0  0  0  0  0  0  0  0
   12.1043  -17.3022   29.4972 O   0  0  0  0  0  0  0  0  0  0  0  0
   10.2104  -17.9131   28.4449 O   0  0  0  0  0  0  0  0  0  0  0  0
  2  1  1  0
  3  2  1  0
  3  4  1  6
  5  7  1  0
  5  3  1  0
  5  6  1  1
  7  8  2  0
 10  9  1  0
 11 10  2  0
 13 12  1  6
 12 10  1  0
 14 13  1  0
 14  7  1  0
 15 21  1  0
 15 13  1  0
 16 15  2  0
 18 17  1  1
 19 18  1  0
 20 18  1  0
 20 21  1  6
 22 23  1  0
 22 20  1  0
 24 22  2  0
M  END
$$$$
