INV.pdb
     RDKit          3D

 24 23  0  0  1  0  0  0  0  0999 V2000
    7.7674  -12.0820   19.0925 C   0  0  0  0  0  0  0  0  0  0  0  0
    7.7890  -13.5759   19.3138 C   0  0  0  0  0  0  0  0  0  0  0  0
    7.4550  -13.9854   20.7037 C   0  0  2  0  0  0  0  0  0  0  0  0
    8.4789  -13.3638   21.6310 C   0  0  0  0  0  0  0  0  0  0  0  0
    7.4059  -15.4776   20.8999 C   0  0  2  0  0  0  0  0  0  0  0  0
    6.5251  -16.1450   20.0005 N   0  0  0  0  0  0  0  0  0  0  0  0
    7.1203  -15.8474   22.3023 C   0  0  0  0  0  0  0  0  0  0  0  0
    6.0006  -15.5946   22.7802 O   0  0  0  0  0  0  0  0  0  0  0  0
    6.5761  -19.7164   22.7812 N   0  0  0  0  0  0  0  0  0  0  0  0
    6.5164  -18.9262   23.9546 C   0  0  0  0  0  0  0  0  0  0  0  0
    5.4061  -18.6735   24.4701 O   0  0  0  0  0  0  0  0  0  0  0  0
    7.7509  -18.4077   24.5605 C   0  0  0  0  0  0  0  0  0  0  0  0
    7.8589  -16.9074   24.4522 C   0  0  2  0  0  0  0  0  0  0  0  0
    8.1163  -16.4787   23.0759 N   0  0  0  0  0  0  0  0  0  0  0  0
    8.9677  -16.3802   25.2916 C   0  0  0  0  0  0  0  0  0  0  0  0
   10.1702  -16.4141   24.9038 O   0  0  0  0  0  0  0  0  0  0  0  0
   10.2206  -13.6917   29.2686 C   0  0  0  0  0  0  0  0  0  0  0  0
    9.1801  -14.2595   28.3273 C   0  0  1  0  0  0  0  0  0  0  0  0
    8.4943  -13.1715   27.5337 C   0  0  0  0  0  0  0  0  0  0  0  0
    9.8074  -15.3071   27.4206 C   0  0  2  0  0  0  0  0  0  0  0  0
    8.7394  -15.8092   26.5754 N   0  0  0  0  0  0  0  0  0  0  0  0
   10.3375  -16.4487   28.2097 C   0  0  0  0  0  0  0  0  0  0  0  0
   11.6767  -16.5141   28.6021 O   0  0  0  0  0  0  0  0  0  0  0  0
    9.6101  -17.4059   28.5605 O   0  0  0  0  0  0  0  0  0  0  0  0
  2  1  1  0
  3  2  1  0
  3  4  1  1
  5  7  1  0
  5  3  1  0
  5  6  1  6
  7  8  2  0
 10  9  1  0
 11 10  2  0
 13 12  1  6
 12 10  1  0
 14 13  1  0
 14  7  1  0
 15 21  1  0
 15 13  1  0
 16 15  2  0
 18 17  1  6
 19 18  1  0
 20 18  1  0
 20 21  1  6
 22 23  1  0
 22 20  1  0
 24 22  2  0
M  END
$$$$
