INV.pdb
     RDKit          3D

 24 23  0  0  1  0  0  0  0  0999 V2000
    7.0384  -12.1607   18.5732 C   0  0  0  0  0  0  0  0  0  0  0  0
    7.8948  -13.4049   18.5807 C   0  0  0  0  0  0  0  0  0  0  0  0
    7.7493  -14.2307   19.8087 C   0  0  2  0  0  0  0  0  0  0  0  0
    8.1805  -13.3872   20.9908 C   0  0  0  0  0  0  0  0  0  0  0  0
    8.5301  -15.5176   19.7688 C   0  0  2  0  0  0  0  0  0  0  0  0
    8.1796  -16.3668   18.6796 N   0  0  0  0  0  0  0  0  0  0  0  0
    8.4741  -16.2449   21.0544 C   0  0  0  0  0  0  0  0  0  0  0  0
    7.9479  -17.3709   21.0918 O   0  0  0  0  0  0  0  0  0  0  0  0
   11.4153  -18.1131   21.7292 N   0  0  0  0  0  0  0  0  0  0  0  0
   11.0544  -17.5618   22.9825 C   0  0  0  0  0  0  0  0  0  0  0  0
   11.9210  -16.9824   23.6721 O   0  0  0  0  0  0  0  0  0  0  0  0
    9.6713  -17.6707   23.4675 C   0  0  0  0  0  0  0  0  0  0  0  0
    8.9703  -16.3361   23.5113 C   0  0  2  0  0  0  0  0  0  0  0  0
    9.0153  -15.6554   22.2157 N   0  0  0  0  0  0  0  0  0  0  0  0
    9.5953  -15.4263   24.5081 C   0  0  0  0  0  0  0  0  0  0  0  0
   10.3370  -14.4645   24.1582 O   0  0  0  0  0  0  0  0  0  0  0  0
    7.5066  -12.7167   27.3369 C   0  0  0  0  0  0  0  0  0  0  0  0
    7.9796  -13.7125   26.2998 C   0  0  1  0  0  0  0  0  0  0  0  0
    8.2545  -13.0454   24.9720 C   0  0  0  0  0  0  0  0  0  0  0  0
    9.1961  -14.4676   26.8126 C   0  0  2  0  0  0  0  0  0  0  0  0
    9.3950  -15.5856   25.9083 N   0  0  0  0  0  0  0  0  0  0  0  0
    8.9499  -15.0190   28.1699 C   0  0  0  0  0  0  0  0  0  0  0  0
    8.4888  -16.3236   28.3624 O   0  0  0  0  0  0  0  0  0  0  0  0
    9.1436  -14.3416   29.2053 O   0  0  0  0  0  0  0  0  0  0  0  0
  2  1  1  0
  3  2  1  0
  3  4  1  1
  5  7  1  0
  5  3  1  0
  5  6  1  6
  7  8  2  0
 10  9  1  0
 11 10  2  0
 13 12  1  6
 12 10  1  0
 14 13  1  0
 14  7  1  0
 15 21  1  0
 15 13  1  0
 16 15  2  0
 18 17  1  1
 19 18  1  0
 20 18  1  0
 20 21  1  6
 22 23  1  0
 22 20  1  0
 24 22  2  0
M  END
$$$$
