INV.pdb
     RDKit          3D

 24 23  0  0  1  0  0  0  0  0999 V2000
    8.2386  -12.0699   18.3507 C   0  0  0  0  0  0  0  0  0  0  0  0
    8.5331  -13.5306   18.5976 C   0  0  0  0  0  0  0  0  0  0  0  0
    7.7886  -14.1110   19.7465 C   0  0  2  0  0  0  0  0  0  0  0  0
    8.1656  -13.3296   20.9882 C   0  0  0  0  0  0  0  0  0  0  0  0
    8.0437  -15.5806   19.9528 C   0  0  2  0  0  0  0  0  0  0  0  0
    7.6391  -16.3921   18.8537 N   0  0  0  0  0  0  0  0  0  0  0  0
    7.4701  -16.0741   21.2226 C   0  0  0  0  0  0  0  0  0  0  0  0
    6.5045  -16.8568   21.1882 O   0  0  0  0  0  0  0  0  0  0  0  0
    7.8784  -19.1979   25.7513 N   0  0  0  0  0  0  0  0  0  0  0  0
    7.1816  -18.1056   25.1802 C   0  0  0  0  0  0  0  0  0  0  0  0
    6.2679  -17.5519   25.8291 O   0  0  0  0  0  0  0  0  0  0  0  0
    7.5308  -17.6275   23.8350 C   0  0  0  0  0  0  0  0  0  0  0  0
    7.4898  -16.1236   23.7302 C   0  0  2  0  0  0  0  0  0  0  0  0
    8.0224  -15.6530   22.4500 N   0  0  0  0  0  0  0  0  0  0  0  0
    8.2942  -15.4817   24.8039 C   0  0  0  0  0  0  0  0  0  0  0  0
    9.5449  -15.6450   24.8864 O   0  0  0  0  0  0  0  0  0  0  0  0
    7.6031  -11.7529   25.5995 C   0  0  0  0  0  0  0  0  0  0  0  0
    7.6744  -12.5368   26.8922 C   0  0  1  0  0  0  0  0  0  0  0  0
    6.2977  -12.8283   27.4433 C   0  0  0  0  0  0  0  0  0  0  0  0
    8.4811  -13.8103   26.6909 C   0  0  2  0  0  0  0  0  0  0  0  0
    7.7044  -14.6497   25.7968 N   0  0  0  0  0  0  0  0  0  0  0  0
    8.6499  -14.5442   27.9714 C   0  0  0  0  0  0  0  0  0  0  0  0
    9.5777  -14.1409   28.9348 O   0  0  0  0  0  0  0  0  0  0  0  0
    7.9693  -15.5584   28.2482 O   0  0  0  0  0  0  0  0  0  0  0  0
  2  1  1  0
  3  2  1  0
  3  4  1  1
  5  7  1  0
  5  3  1  0
  5  6  1  6
  7  8  2  0
 10  9  1  0
 11 10  2  0
 13 12  1  6
 12 10  1  0
 14 13  1  0
 14  7  1  0
 15 21  1  0
 15 13  1  0
 16 15  2  0
 18 17  1  6
 19 18  1  0
 20 18  1  0
 20 21  1  6
 22 23  1  0
 22 20  1  0
 24 22  2  0
M  END
$$$$
