INV.pdb
     RDKit          3D

 24 23  0  0  1  0  0  0  0  0999 V2000
    7.5186  -11.9419   18.8425 C   0  0  0  0  0  0  0  0  0  0  0  0
    7.8521  -13.4128   18.9244 C   0  0  0  0  0  0  0  0  0  0  0  0
    7.6819  -13.9959   20.2816 C   0  0  2  0  0  0  0  0  0  0  0  0
    8.6136  -13.2619   21.2239 C   0  0  0  0  0  0  0  0  0  0  0  0
    7.9371  -15.4788   20.3397 C   0  0  2  0  0  0  0  0  0  0  0  0
    7.1243  -16.2353   19.4468 N   0  0  0  0  0  0  0  0  0  0  0  0
    7.8530  -16.0064   21.7179 C   0  0  0  0  0  0  0  0  0  0  0  0
    6.7364  -16.1460   22.2468 O   0  0  0  0  0  0  0  0  0  0  0  0
    8.7881  -20.0059   23.3052 N   0  0  0  0  0  0  0  0  0  0  0  0
    9.7978  -19.0368   23.0901 C   0  0  0  0  0  0  0  0  0  0  0  0
   10.5365  -19.1306   22.0861 O   0  0  0  0  0  0  0  0  0  0  0  0
    9.9749  -17.9299   24.0406 C   0  0  0  0  0  0  0  0  0  0  0  0
    9.0005  -16.8041   23.8007 C   0  0  2  0  0  0  0  0  0  0  0  0
    9.0341  -16.3427   22.4114 N   0  0  0  0  0  0  0  0  0  0  0  0
    9.3039  -15.6299   24.6616 C   0  0  0  0  0  0  0  0  0  0  0  0
   10.3742  -14.9698   24.5337 O   0  0  0  0  0  0  0  0  0  0  0  0
    7.5642  -12.1618   27.6956 C   0  0  0  0  0  0  0  0  0  0  0  0
    7.3773  -13.3253   26.7457 C   0  0  1  0  0  0  0  0  0  0  0  0
    6.7773  -12.8806   25.4319 C   0  0  0  0  0  0  0  0  0  0  0  0
    8.6957  -14.0559   26.5436 C   0  0  2  0  0  0  0  0  0  0  0  0
    8.4099  -15.1835   25.6753 N   0  0  0  0  0  0  0  0  0  0  0  0
    9.2125  -14.5917   27.8292 C   0  0  0  0  0  0  0  0  0  0  0  0
   10.0346  -13.8331   28.6660 O   0  0  0  0  0  0  0  0  0  0  0  0
    8.9362  -15.7477   28.2238 O   0  0  0  0  0  0  0  0  0  0  0  0
  2  1  1  0
  3  2  1  0
  3  4  1  1
  5  7  1  0
  5  3  1  0
  5  6  1  6
  7  8  2  0
 10  9  1  0
 11 10  2  0
 13 12  1  6
 12 10  1  0
 14 13  1  0
 14  7  1  0
 15 21  1  0
 15 13  1  0
 16 15  2  0
 18 17  1  1
 19 18  1  0
 20 18  1  0
 20 21  1  6
 22 23  1  0
 22 20  1  0
 24 22  2  0
M  END
$$$$
