VAT.pdb
     RDKit          3D

 20 19  0  0  1  0  0  0  0  0999 V2000
    6.6724  -15.7925   20.3763 C   0  0  0  0  0  0  0  0  0  0  0  0
    7.5397  -14.6876   19.8392 C   0  0  1  0  0  0  0  0  0  0  0  0
    6.9780  -14.2972   18.4818 C   0  0  0  0  0  0  0  0  0  0  0  0
    7.4594  -13.4823   20.7211 C   0  0  2  0  0  0  0  0  0  0  0  0
    8.2987  -12.4282   20.0943 N   0  0  0  0  0  0  0  0  0  0  0  0
    7.9124  -13.6371   22.0923 C   0  0  0  0  0  0  0  0  0  0  0  0
    9.1664  -13.8102   22.2911 O   0  0  0  0  0  0  0  0  0  0  0  0
    6.7355  -13.4158   25.6784 C   0  0  0  0  0  0  0  0  0  0  0  0
    7.6588  -13.8724   24.5895 C   0  0  2  0  0  0  0  0  0  0  0  0
    7.1379  -13.6204   23.2629 N   0  0  0  0  0  0  0  0  0  0  0  0
    8.0495  -15.3046   24.7580 C   0  0  0  0  0  0  0  0  0  0  0  0
    7.2871  -16.2375   24.3949 O   0  0  0  0  0  0  0  0  0  0  0  0
   11.3068  -18.7567   25.1283 C   0  0  0  0  0  0  0  0  0  0  0  0
   10.8655  -17.3435   24.7731 C   0  0  1  0  0  0  0  0  0  0  0  0
   10.4352  -17.3389   23.4463 O   0  0  0  0  0  0  0  0  0  0  0  0
    9.6544  -16.9954   25.6222 C   0  0  2  0  0  0  0  0  0  0  0  0
    9.2960  -15.6175   25.3348 N   0  0  0  0  0  0  0  0  0  0  0  0
    9.9986  -17.1248   27.0625 C   0  0  0  0  0  0  0  0  0  0  0  0
   10.3375  -16.1213   27.7272 O   0  0  0  0  0  0  0  0  0  0  0  0
    9.9465  -18.3645   27.6834 O   0  0  0  0  0  0  0  0  0  0  0  0
  2  1  1  1
  2  4  1  0
  3  2  1  0
  4  5  1  6
  6  4  1  0
  7  6  2  0
  9 10  1  0
  9  8  1  1
 10  6  1  0
 11  9  1  0
 12 11  2  0
 14 13  1  1
 14 15  1  0
 16 14  1  0
 16 17  1  1
 17 11  1  0
 18 20  1  0
 18 16  1  0
 19 18  2  0
M  END
$$$$
