VAT.pdb
     RDKit          3D

 20 19  0  0  1  0  0  0  0  0999 V2000
    8.6451  -13.3379   18.0387 C   0  0  0  0  0  0  0  0  0  0  0  0
    8.5549  -13.5250   19.5281 C   0  0  1  0  0  0  0  0  0  0  0  0
    7.4343  -12.6265   20.0252 C   0  0  0  0  0  0  0  0  0  0  0  0
    8.1789  -14.9346   19.8577 C   0  0  2  0  0  0  0  0  0  0  0  0
    7.0717  -15.3148   18.9423 N   0  0  0  0  0  0  0  0  0  0  0  0
    7.7286  -15.1973   21.2133 C   0  0  0  0  0  0  0  0  0  0  0  0
    6.5137  -14.9128   21.5048 O   0  0  0  0  0  0  0  0  0  0  0  0
    8.2320  -17.3243   24.1394 C   0  0  0  0  0  0  0  0  0  0  0  0
    7.9428  -15.9525   23.6090 C   0  0  2  0  0  0  0  0  0  0  0  0
    8.4675  -15.7383   22.2772 N   0  0  0  0  0  0  0  0  0  0  0  0
    8.3979  -14.8863   24.5515 C   0  0  0  0  0  0  0  0  0  0  0  0
    9.4876  -14.2815   24.3777 O   0  0  0  0  0  0  0  0  0  0  0  0
    6.2158  -11.9406   25.7565 C   0  0  0  0  0  0  0  0  0  0  0  0
    6.7070  -12.7383   26.9568 C   0  0  1  0  0  0  0  0  0  0  0  0
    5.7569  -13.7157   27.2522 O   0  0  0  0  0  0  0  0  0  0  0  0
    7.9739  -13.4739   26.5532 C   0  0  2  0  0  0  0  0  0  0  0  0
    7.5915  -14.5509   25.6567 N   0  0  0  0  0  0  0  0  0  0  0  0
    8.6271  -14.0457   27.7597 C   0  0  0  0  0  0  0  0  0  0  0  0
    8.6733  -15.2836   27.9306 O   0  0  0  0  0  0  0  0  0  0  0  0
    9.1929  -13.2077   28.7098 O   0  0  0  0  0  0  0  0  0  0  0  0
  2  1  1  6
  2  4  1  0
  3  2  1  0
  4  5  1  6
  6  4  1  0
  7  6  2  0
  9 10  1  0
  9  8  1  1
 10  6  1  0
 11  9  1  0
 12 11  2  0
 14 13  1  6
 14 15  1  0
 16 14  1  0
 16 17  1  6
 17 11  1  0
 18 20  1  0
 18 16  1  0
 19 18  2  0
M  END
$$$$
