VAT.pdb
     RDKit          3D

 20 19  0  0  1  0  0  0  0  0999 V2000
    8.5503  -12.2751   20.3979 C   0  0  0  0  0  0  0  0  0  0  0  0
    7.7362  -13.1467   19.4818 C   0  0  1  0  0  0  0  0  0  0  0  0
    7.8767  -12.5768   18.0798 C   0  0  0  0  0  0  0  0  0  0  0  0
    8.2846  -14.5380   19.4573 C   0  0  2  0  0  0  0  0  0  0  0  0
    7.4332  -15.3247   18.5276 N   0  0  0  0  0  0  0  0  0  0  0  0
    8.3221  -15.2543   20.7202 C   0  0  0  0  0  0  0  0  0  0  0  0
    7.2178  -15.7151   21.1785 O   0  0  0  0  0  0  0  0  0  0  0  0
   10.4578  -17.3668   22.7870 C   0  0  0  0  0  0  0  0  0  0  0  0
    9.4000  -16.3056   22.7422 C   0  0  2  0  0  0  0  0  0  0  0  0
    9.4391  -15.5183   21.5284 N   0  0  0  0  0  0  0  0  0  0  0  0
    9.4352  -15.4361   23.9567 C   0  0  0  0  0  0  0  0  0  0  0  0
   10.3236  -14.5577   24.1064 O   0  0  0  0  0  0  0  0  0  0  0  0
    6.7819  -13.2146   25.2595 C   0  0  0  0  0  0  0  0  0  0  0  0
    7.0611  -14.2377   26.3520 C   0  0  1  0  0  0  0  0  0  0  0  0
    6.1923  -15.3147   26.1765 O   0  0  0  0  0  0  0  0  0  0  0  0
    8.4669  -14.7780   26.1500 C   0  0  2  0  0  0  0  0  0  0  0  0
    8.4545  -15.6024   24.9541 N   0  0  0  0  0  0  0  0  0  0  0  0
    8.8562  -15.6106   27.3182 C   0  0  0  0  0  0  0  0  0  0  0  0
    8.9910  -15.0946   28.4493 O   0  0  0  0  0  0  0  0  0  0  0  0
    9.0740  -16.9720   27.1629 O   0  0  0  0  0  0  0  0  0  0  0  0
  2  1  1  1
  2  4  1  0
  3  2  1  0
  4  5  1  6
  6  4  1  0
  7  6  2  0
  9 10  1  0
  9  8  1  1
 10  6  1  0
 11  9  1  0
 12 11  2  0
 14 13  1  6
 14 15  1  0
 16 14  1  0
 16 17  1  6
 17 11  1  0
 18 20  1  0
 18 16  1  0
 19 18  2  0
M  END
$$$$
