VAT.pdb
     RDKit          3D

 20 19  0  0  1  0  0  0  0  0999 V2000
    7.8839  -19.4211   17.6542 C   0  0  0  0  0  0  0  0  0  0  0  0
    8.4464  -18.9188   18.9553 C   0  0  1  0  0  0  0  0  0  0  0  0
    9.6945  -19.7352   19.2484 C   0  0  0  0  0  0  0  0  0  0  0  0
    8.8658  -17.4888   18.8279 C   0  0  2  0  0  0  0  0  0  0  0  0
    9.8379  -17.4189   17.7061 N   0  0  0  0  0  0  0  0  0  0  0  0
    9.4975  -16.8812   19.9860 C   0  0  0  0  0  0  0  0  0  0  0  0
   10.7552  -17.0667   20.1463 O   0  0  0  0  0  0  0  0  0  0  0  0
    8.7909  -14.6064   22.9343 C   0  0  0  0  0  0  0  0  0  0  0  0
    9.5710  -15.6396   22.1788 C   0  0  2  0  0  0  0  0  0  0  0  0
    8.8973  -16.0937   20.9810 N   0  0  0  0  0  0  0  0  0  0  0  0
    9.9621  -16.7872   23.0519 C   0  0  0  0  0  0  0  0  0  0  0  0
    9.1933  -17.7681   23.2259 O   0  0  0  0  0  0  0  0  0  0  0  0
   13.5576  -19.2690   25.1857 C   0  0  0  0  0  0  0  0  0  0  0  0
   13.1062  -18.1245   24.2888 C   0  0  1  0  0  0  0  0  0  0  0  0
   13.2187  -18.5372   22.9612 O   0  0  0  0  0  0  0  0  0  0  0  0
   11.6285  -17.8763   24.5413 C   0  0  2  0  0  0  0  0  0  0  0  0
   11.2160  -16.7714   23.6934 N   0  0  0  0  0  0  0  0  0  0  0  0
   11.4186  -17.5088   25.9662 C   0  0  0  0  0  0  0  0  0  0  0  0
   11.4279  -16.3097   26.3210 O   0  0  0  0  0  0  0  0  0  0  0  0
   11.2100  -18.4967   26.9179 O   0  0  0  0  0  0  0  0  0  0  0  0
  2  1  1  6
  2  4  1  0
  3  2  1  0
  4  5  1  6
  6  4  1  0
  7  6  2  0
  9 10  1  0
  9  8  1  1
 10  6  1  0
 11  9  1  0
 12 11  2  0
 14 13  1  1
 14 15  1  0
 16 14  1  0
 16 17  1  6
 17 11  1  0
 18 20  1  0
 18 16  1  0
 19 18  2  0
M  END
$$$$
