VAT.pdb
     RDKit          3D

 20 19  0  0  1  0  0  0  0  0999 V2000
    6.7570  -17.3914   21.0074 C   0  0  0  0  0  0  0  0  0  0  0  0
    7.4878  -16.4535   20.0866 C   0  0  1  0  0  0  0  0  0  0  0  0
    6.7342  -16.4443   18.7667 C   0  0  0  0  0  0  0  0  0  0  0  0
    7.4606  -15.0597   20.6282 C   0  0  2  0  0  0  0  0  0  0  0  0
    8.1622  -14.1964   19.6429 N   0  0  0  0  0  0  0  0  0  0  0  0
    8.0892  -14.8415   21.9192 C   0  0  0  0  0  0  0  0  0  0  0  0
    9.3664  -14.9224   21.9828 O   0  0  0  0  0  0  0  0  0  0  0  0
    7.3965  -13.7386   25.4623 C   0  0  0  0  0  0  0  0  0  0  0  0
    8.1500  -14.5042   24.4168 C   0  0  2  0  0  0  0  0  0  0  0  0
    7.4667  -14.5436   23.1415 N   0  0  0  0  0  0  0  0  0  0  0  0
    8.5083  -15.8770   24.8852 C   0  0  0  0  0  0  0  0  0  0  0  0
    7.6675  -16.8130   24.8706 O   0  0  0  0  0  0  0  0  0  0  0  0
   12.0432  -19.1124   25.6241 C   0  0  0  0  0  0  0  0  0  0  0  0
   11.6185  -17.7047   25.2288 C   0  0  1  0  0  0  0  0  0  0  0  0
   11.5412  -17.6445   23.8374 O   0  0  0  0  0  0  0  0  0  0  0  0
   10.2115  -17.4677   25.7513 C   0  0  2  0  0  0  0  0  0  0  0  0
    9.8130  -16.1290   25.3526 N   0  0  0  0  0  0  0  0  0  0  0  0
   10.2055  -17.5622   27.2347 C   0  0  0  0  0  0  0  0  0  0  0  0
   10.3162  -16.5336   27.9372 O   0  0  0  0  0  0  0  0  0  0  0  0
   10.0765  -18.7968   27.8545 O   0  0  0  0  0  0  0  0  0  0  0  0
  2  1  1  1
  2  4  1  0
  3  2  1  0
  4  5  1  6
  6  4  1  0
  7  6  2  0
  9 10  1  0
  9  8  1  1
 10  6  1  0
 11  9  1  0
 12 11  2  0
 14 13  1  6
 14 15  1  0
 16 14  1  0
 16 17  1  1
 17 11  1  0
 18 20  1  0
 18 16  1  0
 19 18  2  0
M  END
$$$$
