VAT.pdb
     RDKit          3D

 20 19  0  0  1  0  0  0  0  0999 V2000
    8.1493  -12.4051   18.5842 C   0  0  0  0  0  0  0  0  0  0  0  0
    8.5588  -13.2693   19.7449 C   0  0  1  0  0  0  0  0  0  0  0  0
    7.5048  -13.0957   20.8261 C   0  0  0  0  0  0  0  0  0  0  0  0
    8.5619  -14.7117   19.3492 C   0  0  2  0  0  0  0  0  0  0  0  0
    7.2271  -15.0054   18.7656 N   0  0  0  0  0  0  0  0  0  0  0  0
    8.7967  -15.6838   20.4023 C   0  0  0  0  0  0  0  0  0  0  0  0
    7.7985  -16.0341   21.1253 O   0  0  0  0  0  0  0  0  0  0  0  0
   11.4163  -18.0534   21.7483 C   0  0  0  0  0  0  0  0  0  0  0  0
   10.1630  -17.2368   21.8436 C   0  0  2  0  0  0  0  0  0  0  0  0
   10.0059  -16.3104   20.7428 N   0  0  0  0  0  0  0  0  0  0  0  0
   10.0536  -16.5406   23.1610 C   0  0  0  0  0  0  0  0  0  0  0  0
   10.7018  -15.4891   23.4007 O   0  0  0  0  0  0  0  0  0  0  0  0
    7.4159  -14.8387   24.7155 C   0  0  0  0  0  0  0  0  0  0  0  0
    7.6886  -15.9947   25.6681 C   0  0  1  0  0  0  0  0  0  0  0  0
    6.8757  -17.0669   25.3004 O   0  0  0  0  0  0  0  0  0  0  0  0
    9.1240  -16.4501   25.4652 C   0  0  2  0  0  0  0  0  0  0  0  0
    9.2082  -17.0714   24.1549 N   0  0  0  0  0  0  0  0  0  0  0  0
    9.4854  -17.4467   26.5070 C   0  0  0  0  0  0  0  0  0  0  0  0
    9.6944  -18.6405   26.1989 O   0  0  0  0  0  0  0  0  0  0  0  0
    9.5943  -17.0594   27.8349 O   0  0  0  0  0  0  0  0  0  0  0  0
  2  1  1  6
  2  4  1  0
  3  2  1  0
  4  5  1  1
  6  4  1  0
  7  6  2  0
  9 10  1  0
  9  8  1  6
 10  6  1  0
 11  9  1  0
 12 11  2  0
 14 13  1  6
 14 15  1  0
 16 14  1  0
 16 17  1  6
 17 11  1  0
 18 20  1  0
 18 16  1  0
 19 18  2  0
M  END
$$$$
