VAT.pdb
     RDKit          3D

 20 19  0  0  1  0  0  0  0  0999 V2000
    7.9633  -13.2376   17.7962 C   0  0  0  0  0  0  0  0  0  0  0  0
    8.5350  -13.2150   19.1870 C   0  0  1  0  0  0  0  0  0  0  0  0
    7.5001  -12.5584   20.0858 C   0  0  0  0  0  0  0  0  0  0  0  0
    8.7464  -14.6077   19.6897 C   0  0  2  0  0  0  0  0  0  0  0  0
    7.4856  -15.3549   19.4437 N   0  0  0  0  0  0  0  0  0  0  0  0
    9.0708  -14.7586   21.0973 C   0  0  0  0  0  0  0  0  0  0  0  0
   10.3034  -14.6781   21.4381 O   0  0  0  0  0  0  0  0  0  0  0  0
    7.5478  -14.5398   24.4954 C   0  0  0  0  0  0  0  0  0  0  0  0
    8.5910  -15.0611   23.5537 C   0  0  2  0  0  0  0  0  0  0  0  0
    8.1887  -14.9858   22.1654 N   0  0  0  0  0  0  0  0  0  0  0  0
    9.0281  -16.4421   23.9198 C   0  0  0  0  0  0  0  0  0  0  0  0
    8.2653  -17.4313   23.7678 O   0  0  0  0  0  0  0  0  0  0  0  0
   11.5651  -18.1601   22.3923 C   0  0  0  0  0  0  0  0  0  0  0  0
   12.0147  -18.2302   23.8452 C   0  0  1  0  0  0  0  0  0  0  0  0
   12.9028  -17.1807   24.0805 O   0  0  0  0  0  0  0  0  0  0  0  0
   10.8051  -17.9805   24.7304 C   0  0  2  0  0  0  0  0  0  0  0  0
   10.3196  -16.6414   24.4456 N   0  0  0  0  0  0  0  0  0  0  0  0
   11.2040  -18.0663   26.1596 C   0  0  0  0  0  0  0  0  0  0  0  0
   11.1963  -17.0467   26.8836 O   0  0  0  0  0  0  0  0  0  0  0  0
   11.5896  -19.2827   26.7043 O   0  0  0  0  0  0  0  0  0  0  0  0
  2  1  1  6
  2  4  1  0
  3  2  1  0
  4  5  1  1
  6  4  1  0
  7  6  2  0
  9 10  1  0
  9  8  1  1
 10  6  1  0
 11  9  1  0
 12 11  2  0
 14 13  1  6
 14 15  1  0
 16 14  1  0
 16 17  1  1
 17 11  1  0
 18 20  1  0
 18 16  1  0
 19 18  2  0
M  END
$$$$
