VAT.pdb
     RDKit          3D

 20 19  0  0  1  0  0  0  0  0999 V2000
    5.9717  -18.5588   16.4709 C   0  0  0  0  0  0  0  0  0  0  0  0
    6.5863  -17.9576   17.7048 C   0  0  1  0  0  0  0  0  0  0  0  0
    7.6369  -18.9361   18.2038 C   0  0  0  0  0  0  0  0  0  0  0  0
    7.2868  -16.6788   17.3720 C   0  0  2  0  0  0  0  0  0  0  0  0
    8.2952  -16.9944   16.3271 N   0  0  0  0  0  0  0  0  0  0  0  0
    7.9825  -16.0067   18.4554 C   0  0  0  0  0  0  0  0  0  0  0  0
    9.1591  -16.4165   18.7546 O   0  0  0  0  0  0  0  0  0  0  0  0
    7.6422  -13.1005   20.8696 C   0  0  0  0  0  0  0  0  0  0  0  0
    8.2675  -14.3551   20.3387 C   0  0  2  0  0  0  0  0  0  0  0  0
    7.5256  -14.9362   19.2400 N   0  0  0  0  0  0  0  0  0  0  0  0
    8.5093  -15.3555   21.4218 C   0  0  0  0  0  0  0  0  0  0  0  0
    7.5552  -15.9439   21.9933 O   0  0  0  0  0  0  0  0  0  0  0  0
   10.0622  -18.4432   21.3433 C   0  0  0  0  0  0  0  0  0  0  0  0
   10.9068  -17.7145   22.3796 C   0  0  1  0  0  0  0  0  0  0  0  0
   12.0145  -17.1646   21.7344 O   0  0  0  0  0  0  0  0  0  0  0  0
   10.0965  -16.5476   22.9188 C   0  0  2  0  0  0  0  0  0  0  0  0
    9.8315  -15.6460   21.8112 N   0  0  0  0  0  0  0  0  0  0  0  0
   10.8800  -15.8322   23.9598 C   0  0  0  0  0  0  0  0  0  0  0  0
   11.4279  -14.7380   23.7025 O   0  0  0  0  0  0  0  0  0  0  0  0
   11.0104  -16.3745   25.2302 O   0  0  0  0  0  0  0  0  0  0  0  0
  2  1  1  6
  2  4  1  0
  3  2  1  0
  4  5  1  6
  6  4  1  0
  7  6  2  0
  9 10  1  0
  9  8  1  1
 10  6  1  0
 11  9  1  0
 12 11  2  0
 14 13  1  6
 14 15  1  0
 16 14  1  0
 16 17  1  6
 17 11  1  0
 18 20  1  0
 18 16  1  0
 19 18  2  0
M  END
$$$$
