VDR.pdb
     RDKit          3D

 27 26  0  0  1  0  0  0  0  0999 V2000
   24.7517  -16.0017  -15.9635 C   0  0  0  0  0  0  0  0  0  0  0  0
   24.7681  -16.1215  -17.4883 C   0  0  1  0  0  0  0  0  0  0  0  0
   25.2831  -14.8670  -18.1298 C   0  0  0  0  0  0  0  0  0  0  0  0
   25.5587  -17.3402  -17.8561 C   0  0  2  0  0  0  0  0  0  0  0  0
   25.6389  -17.5775  -19.2637 N   0  0  0  0  0  0  0  0  0  0  0  0
   25.0632  -18.5094  -17.0841 C   0  0  0  0  0  0  0  0  0  0  0  0
   23.9334  -18.9552  -17.3922 O   0  0  0  0  0  0  0  0  0  0  0  0
   25.8181  -19.1082  -16.0429 N   0  0  0  0  0  0  0  0  0  0  0  0
   25.2822  -20.2144  -15.2763 C   0  0  1  0  0  0  0  0  0  0  0  0
   26.3303  -20.9850  -14.5390 C   0  0  0  0  0  0  0  0  0  0  0  0
   27.3135  -21.6493  -15.4110 C   0  0  0  0  0  0  0  0  0  0  0  0
   27.1074  -21.6339  -16.6490 O   0  0  0  0  0  0  0  0  0  0  0  0
   24.2778  -19.7607  -14.2827 C   0  0  0  0  0  0  0  0  0  0  0  0
   24.5964  -18.8938  -13.4357 O   0  0  0  0  0  0  0  0  0  0  0  0
   28.4529  -22.2910  -14.9516 O   0  0  0  0  0  0  0  0  0  0  0  0
   16.9534  -17.7943  -13.1619 N   0  0  0  0  0  0  0  0  0  0  0  0
   17.4475  -16.4568  -13.3832 C   0  0  0  0  0  0  0  0  0  0  0  0
   16.8605  -15.4776  -12.7923 N   0  0  0  0  0  0  0  0  0  0  0  0
   18.5446  -16.2126  -14.2228 N   0  0  0  0  0  0  0  0  0  0  0  0
   19.2291  -17.3529  -14.8939 C   0  0  0  0  0  0  0  0  0  0  0  0
   19.9922  -18.1169  -13.8851 C   0  0  0  0  0  0  0  0  0  0  0  0
   21.2574  -18.7454  -14.1818 C   0  0  0  0  0  0  0  0  0  0  0  0
   21.9393  -19.7685  -13.3778 C   0  0  2  0  0  0  0  0  0  0  0  0
   22.9962  -20.2956  -14.2956 N   0  0  0  0  0  0  0  0  0  0  0  0
   21.2073  -20.9023  -12.8359 C   0  0  0  0  0  0  0  0  0  0  0  0
   20.4858  -20.7191  -11.7878 O   0  0  0  0  0  0  0  0  0  0  0  0
   21.1946  -22.1660  -13.3296 O   0  0  0  0  0  0  0  0  0  0  0  0
  2  1  1  1
  3  2  1  0
  4  2  1  0
  4  5  1  6
  6  7  2  0
  6  4  1  0
  8  6  1  0
  9  8  1  0
 10 11  1  0
  9 10  1  1
 11 12  2  0
 13 24  1  0
 13  9  1  0
 14 13  2  0
 15 11  1  0
 17 16  1  0
 18 17  2  0
 19 17  1  0
 20 21  1  0
 20 19  1  0
 23 22  1  6
 22 21  1  0
 23 25  1  0
 23 24  1  0
 25 27  1  0
 26 25  2  0
M  END
$$$$
