VDR.pdb
     RDKit          3D

 27 26  0  0  1  0  0  0  0  0999 V2000
   29.1857  -22.0845  -10.4319 C   0  0  0  0  0  0  0  0  0  0  0  0
   27.9577  -21.4219  -11.0584 C   0  0  1  0  0  0  0  0  0  0  0  0
   27.2574  -20.5294  -10.0768 C   0  0  0  0  0  0  0  0  0  0  0  0
   28.3919  -20.7064  -12.3015 C   0  0  2  0  0  0  0  0  0  0  0  0
   29.4480  -19.7658  -12.0912 N   0  0  0  0  0  0  0  0  0  0  0  0
   27.2066  -20.1254  -12.9839 C   0  0  0  0  0  0  0  0  0  0  0  0
   26.9846  -18.9065  -12.7965 O   0  0  0  0  0  0  0  0  0  0  0  0
   26.3527  -20.8971  -13.8135 N   0  0  0  0  0  0  0  0  0  0  0  0
   25.1356  -20.3322  -14.3595 C   0  0  1  0  0  0  0  0  0  0  0  0
   24.9546  -20.6151  -15.8165 C   0  0  0  0  0  0  0  0  0  0  0  0
   24.4602  -19.4674  -16.5953 C   0  0  0  0  0  0  0  0  0  0  0  0
   24.1607  -18.4192  -15.9732 O   0  0  0  0  0  0  0  0  0  0  0  0
   23.9306  -20.8327  -13.6528 C   0  0  0  0  0  0  0  0  0  0  0  0
   24.0268  -21.8308  -12.9010 O   0  0  0  0  0  0  0  0  0  0  0  0
   24.3042  -19.4706  -17.9725 O   0  0  0  0  0  0  0  0  0  0  0  0
   20.0154  -23.0435   -7.6081 N   0  0  0  0  0  0  0  0  0  0  0  0
   19.1725  -23.0664   -8.7791 C   0  0  0  0  0  0  0  0  0  0  0  0
   18.0002  -23.5856   -8.6842 N   0  0  0  0  0  0  0  0  0  0  0  0
   19.6077  -22.5374  -10.0033 N   0  0  0  0  0  0  0  0  0  0  0  0
   21.0015  -22.0278  -10.1338 C   0  0  0  0  0  0  0  0  0  0  0  0
   20.9587  -20.6163  -10.5692 C   0  0  0  0  0  0  0  0  0  0  0  0
   21.6329  -20.1502  -11.7575 C   0  0  0  0  0  0  0  0  0  0  0  0
   21.4853  -20.6855  -13.1176 C   0  0  2  0  0  0  0  0  0  0  0  0
   22.7083  -20.1966  -13.8265 N   0  0  0  0  0  0  0  0  0  0  0  0
   20.3282  -20.3479  -13.9312 C   0  0  0  0  0  0  0  0  0  0  0  0
   20.4025  -19.3229  -14.7035 O   0  0  0  0  0  0  0  0  0  0  0  0
   19.1478  -21.0155  -13.9731 O   0  0  0  0  0  0  0  0  0  0  0  0
  2  1  1  1
  3  2  1  0
  4  2  1  0
  4  5  1  1
  6  7  2  0
  6  4  1  0
  8  6  1  0
  9  8  1  0
 10 11  1  0
  9 10  1  6
 11 12  2  0
 13 24  1  0
 13  9  1  0
 14 13  2  0
 15 11  1  0
 17 16  1  0
 18 17  2  0
 19 17  1  0
 20 21  1  0
 20 19  1  0
 23 22  1  1
 22 21  1  0
 23 25  1  0
 23 24  1  0
 25 27  1  0
 26 25  2  0
M  END
$$$$
