VDR.pdb
     RDKit          3D

 27 26  0  0  1  0  0  0  0  0999 V2000
   16.2617  -12.9221  -17.7538 C   0  0  0  0  0  0  0  0  0  0  0  0
   15.6936  -12.8669  -16.3347 C   0  0  1  0  0  0  0  0  0  0  0  0
   15.0238  -14.1568  -15.9632 C   0  0  0  0  0  0  0  0  0  0  0  0
   16.8005  -12.4857  -15.3993 C   0  0  2  0  0  0  0  0  0  0  0  0
   16.4765  -12.6539  -14.0169 N   0  0  0  0  0  0  0  0  0  0  0  0
   17.2898  -11.1227  -15.7327 C   0  0  0  0  0  0  0  0  0  0  0  0
   17.7696  -10.9564  -16.8783 O   0  0  0  0  0  0  0  0  0  0  0  0
   17.2261  -10.0455  -14.8117 N   0  0  0  0  0  0  0  0  0  0  0  0
   17.7854   -8.7503  -15.1410 C   0  0  1  0  0  0  0  0  0  0  0  0
   16.8961   -7.6093  -14.7629 C   0  0  0  0  0  0  0  0  0  0  0  0
   17.4127   -6.2879  -15.1570 C   0  0  0  0  0  0  0  0  0  0  0  0
   17.7964   -6.1355  -16.3422 O   0  0  0  0  0  0  0  0  0  0  0  0
   19.0973   -8.5331  -14.4825 C   0  0  0  0  0  0  0  0  0  0  0  0
   19.3151   -9.0434  -13.3588 O   0  0  0  0  0  0  0  0  0  0  0  0
   17.5022   -5.2007  -14.3019 O   0  0  0  0  0  0  0  0  0  0  0  0
   25.7675  -12.5830  -16.6670 N   0  0  0  0  0  0  0  0  0  0  0  0
   26.3600  -11.4639  -15.9751 C   0  0  0  0  0  0  0  0  0  0  0  0
   27.6411  -11.4011  -15.8892 N   0  0  0  0  0  0  0  0  0  0  0  0
   25.5690  -10.4568  -15.4024 N   0  0  0  0  0  0  0  0  0  0  0  0
   24.1264  -10.3573  -15.7610 C   0  0  0  0  0  0  0  0  0  0  0  0
   23.5485   -9.1665  -15.1038 C   0  0  0  0  0  0  0  0  0  0  0  0
   22.1693   -8.7774  -15.2774 C   0  0  0  0  0  0  0  0  0  0  0  0
   21.4630   -7.7058  -14.5627 C   0  0  2  0  0  0  0  0  0  0  0  0
   20.0727   -7.7697  -15.1106 N   0  0  0  0  0  0  0  0  0  0  0  0
   21.9172   -6.3268  -14.6472 C   0  0  0  0  0  0  0  0  0  0  0  0
   21.3290   -5.5396  -15.4761 O   0  0  0  0  0  0  0  0  0  0  0  0
   22.9158   -5.7597  -13.9247 O   0  0  0  0  0  0  0  0  0  0  0  0
  2  1  1  6
  3  2  1  0
  4  2  1  0
  4  5  1  1
  6  7  2  0
  6  4  1  0
  8  6  1  0
  9  8  1  0
 10 11  1  0
  9 10  1  1
 11 12  2  0
 13 24  1  0
 13  9  1  0
 14 13  2  0
 15 11  1  0
 17 16  1  0
 18 17  2  0
 19 17  1  0
 20 21  1  0
 20 19  1  0
 23 22  1  6
 22 21  1  0
 23 25  1  0
 23 24  1  0
 25 27  1  0
 26 25  2  0
M  END
$$$$
