VDR.pdb
     RDKit          3D

 27 26  0  0  1  0  0  0  0  0999 V2000
   26.7081  -17.8871  -15.0422 C   0  0  0  0  0  0  0  0  0  0  0  0
   27.3882  -18.9763  -15.8734 C   0  0  1  0  0  0  0  0  0  0  0  0
   28.6177  -18.4551  -16.5568 C   0  0  0  0  0  0  0  0  0  0  0  0
   27.6612  -20.1482  -14.9802 C   0  0  2  0  0  0  0  0  0  0  0  0
   28.3812  -21.2075  -15.6156 N   0  0  0  0  0  0  0  0  0  0  0  0
   26.3970  -20.5920  -14.3372 C   0  0  0  0  0  0  0  0  0  0  0  0
   25.6530  -21.3448  -15.0079 O   0  0  0  0  0  0  0  0  0  0  0  0
   26.0304  -20.1936  -13.0258 N   0  0  0  0  0  0  0  0  0  0  0  0
   24.8235  -20.6992  -12.4042 C   0  0  1  0  0  0  0  0  0  0  0  0
   24.8159  -20.5455  -10.9170 C   0  0  0  0  0  0  0  0  0  0  0  0
   23.6628  -21.1764  -10.2529 C   0  0  0  0  0  0  0  0  0  0  0  0
   22.8780  -21.8569  -10.9572 O   0  0  0  0  0  0  0  0  0  0  0  0
   23.6097  -20.0269  -12.9303 C   0  0  0  0  0  0  0  0  0  0  0  0
   23.3857  -18.8321  -12.6256 O   0  0  0  0  0  0  0  0  0  0  0  0
   23.3888  -21.0665   -8.8987 O   0  0  0  0  0  0  0  0  0  0  0  0
   24.8963  -19.1914  -18.9232 N   0  0  0  0  0  0  0  0  0  0  0  0
   24.1306  -17.9685  -18.8992 C   0  0  0  0  0  0  0  0  0  0  0  0
   24.1095  -17.2341  -19.9540 N   0  0  0  0  0  0  0  0  0  0  0  0
   23.4183  -17.5747  -17.7566 N   0  0  0  0  0  0  0  0  0  0  0  0
   23.3026  -18.5072  -16.6006 C   0  0  0  0  0  0  0  0  0  0  0  0
   22.0933  -19.3389  -16.7727 C   0  0  0  0  0  0  0  0  0  0  0  0
   21.6537  -20.2847  -15.7747 C   0  0  0  0  0  0  0  0  0  0  0  0
   21.5299  -20.0435  -14.3310 C   0  0  2  0  0  0  0  0  0  0  0  0
   22.7320  -20.7206  -13.7533 N   0  0  0  0  0  0  0  0  0  0  0  0
   20.3605  -20.4981  -13.5957 C   0  0  0  0  0  0  0  0  0  0  0  0
   20.4303  -21.6185  -12.9691 O   0  0  0  0  0  0  0  0  0  0  0  0
   19.1725  -19.8517  -13.4881 O   0  0  0  0  0  0  0  0  0  0  0  0
  2  1  1  1
  3  2  1  0
  4  2  1  0
  4  5  1  6
  6  7  2  0
  6  4  1  0
  8  6  1  0
  9  8  1  0
 10 11  1  0
  9 10  1  1
 11 12  2  0
 13 24  1  0
 13  9  1  0
 14 13  2  0
 15 11  1  0
 17 16  1  0
 18 17  2  0
 19 17  1  0
 20 21  1  0
 20 19  1  0
 23 22  1  6
 22 21  1  0
 23 25  1  0
 23 24  1  0
 25 27  1  0
 26 25  2  0
M  END
$$$$
