VDR.pdb
     RDKit          3D

 27 26  0  0  1  0  0  0  0  0999 V2000
   27.5443  -19.8510  -13.5252 C   0  0  0  0  0  0  0  0  0  0  0  0
   26.1631  -20.4091  -13.8722 C   0  0  1  0  0  0  0  0  0  0  0  0
   26.2643  -21.5732  -14.8131 C   0  0  0  0  0  0  0  0  0  0  0  0
   25.4558  -20.7429  -12.5940 C   0  0  2  0  0  0  0  0  0  0  0  0
   26.1002  -21.7592  -11.8219 N   0  0  0  0  0  0  0  0  0  0  0  0
   24.0245  -21.0282  -12.8743 C   0  0  0  0  0  0  0  0  0  0  0  0
   23.6727  -22.2308  -12.8625 O   0  0  0  0  0  0  0  0  0  0  0  0
   23.0835  -20.0016  -13.1450 N   0  0  0  0  0  0  0  0  0  0  0  0
   21.6763  -20.3054  -13.3071 C   0  0  1  0  0  0  0  0  0  0  0  0
   20.7769  -19.3054  -12.6540 C   0  0  0  0  0  0  0  0  0  0  0  0
   20.3959  -19.6500  -11.2739 C   0  0  0  0  0  0  0  0  0  0  0  0
   19.6952  -18.8284  -10.6342 O   0  0  0  0  0  0  0  0  0  0  0  0
   21.2915  -20.3868  -14.7379 C   0  0  0  0  0  0  0  0  0  0  0  0
   21.6925  -19.5069  -15.5352 O   0  0  0  0  0  0  0  0  0  0  0  0
   20.7620  -20.8247  -10.6358 O   0  0  0  0  0  0  0  0  0  0  0  0
   24.4244  -25.9661  -16.0767 N   0  0  0  0  0  0  0  0  0  0  0  0
   24.7003  -24.5675  -16.3002 C   0  0  0  0  0  0  0  0  0  0  0  0
   25.9085  -24.2115  -16.5573 N   0  0  0  0  0  0  0  0  0  0  0  0
   23.6830  -23.6034  -16.2417 N   0  0  0  0  0  0  0  0  0  0  0  0
   22.2897  -24.0188  -15.9167 C   0  0  0  0  0  0  0  0  0  0  0  0
   21.4148  -23.7088  -17.0665 C   0  0  0  0  0  0  0  0  0  0  0  0
   20.1946  -22.9495  -16.9303 C   0  0  0  0  0  0  0  0  0  0  0  0
   20.0815  -21.5181  -16.6204 C   0  0  2  0  0  0  0  0  0  0  0  0
   20.4933  -21.4316  -15.1851 N   0  0  0  0  0  0  0  0  0  0  0  0
   18.8141  -20.8203  -16.7678 C   0  0  0  0  0  0  0  0  0  0  0  0
   18.1532  -20.5231  -15.7059 O   0  0  0  0  0  0  0  0  0  0  0  0
   18.2373  -20.4308  -17.9325 O   0  0  0  0  0  0  0  0  0  0  0  0
  2  1  1  1
  3  2  1  0
  4  2  1  0
  4  5  1  6
  6  7  2  0
  6  4  1  0
  8  6  1  0
  9  8  1  0
 10 11  1  0
  9 10  1  1
 11 12  2  0
 13 24  1  0
 13  9  1  0
 14 13  2  0
 15 11  1  0
 17 16  1  0
 18 17  2  0
 19 17  1  0
 20 21  1  0
 20 19  1  0
 23 22  1  1
 22 21  1  0
 23 25  1  0
 23 24  1  0
 25 27  1  0
 26 25  2  0
M  END
$$$$
