VDR.pdb
     RDKit          3D

 27 26  0  0  1  0  0  0  0  0999 V2000
   26.8688  -18.2532  -15.6838 C   0  0  0  0  0  0  0  0  0  0  0  0
   27.5555  -19.3689  -16.4734 C   0  0  1  0  0  0  0  0  0  0  0  0
   28.6174  -18.8225  -17.3814 C   0  0  0  0  0  0  0  0  0  0  0  0
   28.0755  -20.3827  -15.5000 C   0  0  2  0  0  0  0  0  0  0  0  0
   28.7492  -21.4846  -16.1134 N   0  0  0  0  0  0  0  0  0  0  0  0
   26.9866  -20.7928  -14.5756 C   0  0  0  0  0  0  0  0  0  0  0  0
   26.1471  -21.6123  -15.0158 O   0  0  0  0  0  0  0  0  0  0  0  0
   26.8837  -20.2918  -13.2523 N   0  0  0  0  0  0  0  0  0  0  0  0
   25.8536  -20.7704  -12.3531 C   0  0  1  0  0  0  0  0  0  0  0  0
   26.1249  -20.4477  -10.9186 C   0  0  0  0  0  0  0  0  0  0  0  0
   25.1498  -21.0239   -9.9775 C   0  0  0  0  0  0  0  0  0  0  0  0
   25.2799  -20.7565   -8.7581 O   0  0  0  0  0  0  0  0  0  0  0  0
   24.5218  -20.2117  -12.6938 C   0  0  0  0  0  0  0  0  0  0  0  0
   24.3418  -18.9725  -12.6432 O   0  0  0  0  0  0  0  0  0  0  0  0
   24.0967  -21.8432  -10.3526 O   0  0  0  0  0  0  0  0  0  0  0  0
   19.5093  -23.4310  -18.9423 N   0  0  0  0  0  0  0  0  0  0  0  0
   20.0691  -22.1014  -18.9753 C   0  0  0  0  0  0  0  0  0  0  0  0
   20.2398  -21.5330  -20.1156 N   0  0  0  0  0  0  0  0  0  0  0  0
   20.4251  -21.4289  -17.7967 N   0  0  0  0  0  0  0  0  0  0  0  0
   20.1821  -22.0741  -16.4761 C   0  0  0  0  0  0  0  0  0  0  0  0
   20.5642  -21.1326  -15.4032 C   0  0  0  0  0  0  0  0  0  0  0  0
   21.7310  -21.3305  -14.5766 C   0  0  0  0  0  0  0  0  0  0  0  0
   22.1433  -20.5109  -13.4294 C   0  0  2  0  0  0  0  0  0  0  0  0
   23.4863  -21.0595  -13.0652 N   0  0  0  0  0  0  0  0  0  0  0  0
   21.3359  -20.4581  -12.2210 C   0  0  0  0  0  0  0  0  0  0  0  0
   21.6147  -21.2699  -11.2640 O   0  0  0  0  0  0  0  0  0  0  0  0
   20.2960  -19.6206  -11.9805 O   0  0  0  0  0  0  0  0  0  0  0  0
  2  1  1  1
  3  2  1  0
  4  2  1  0
  4  5  1  6
  6  7  2  0
  6  4  1  0
  8  6  1  0
  9  8  1  0
 10 11  1  0
  9 10  1  1
 11 12  2  0
 13 24  1  0
 13  9  1  0
 14 13  2  0
 15 11  1  0
 17 16  1  0
 18 17  2  0
 19 17  1  0
 20 21  1  0
 20 19  1  0
 23 22  1  6
 22 21  1  0
 23 25  1  0
 23 24  1  0
 25 27  1  0
 26 25  2  0
M  END
$$$$
