VDR.pdb
     RDKit          3D

 27 26  0  0  1  0  0  0  0  0999 V2000
   15.7776   -6.5317   -8.6846 C   0  0  0  0  0  0  0  0  0  0  0  0
   14.7759   -7.6859   -8.6200 C   0  0  1  0  0  0  0  0  0  0  0  0
   14.2080   -7.8405   -7.2401 C   0  0  0  0  0  0  0  0  0  0  0  0
   13.7285   -7.4591   -9.6675 C   0  0  2  0  0  0  0  0  0  0  0  0
   12.7034   -8.4556   -9.6890 N   0  0  0  0  0  0  0  0  0  0  0  0
   14.3786   -7.2476  -10.9870 C   0  0  0  0  0  0  0  0  0  0  0  0
   14.2694   -8.1702  -11.8278 O   0  0  0  0  0  0  0  0  0  0  0  0
   15.0945   -6.0636  -11.3008 N   0  0  0  0  0  0  0  0  0  0  0  0
   15.6060   -5.8350  -12.6367 C   0  0  1  0  0  0  0  0  0  0  0  0
   15.0119   -4.6334  -13.2992 C   0  0  0  0  0  0  0  0  0  0  0  0
   15.4688   -4.4219  -14.6830 C   0  0  0  0  0  0  0  0  0  0  0  0
   15.4841   -5.4111  -15.4554 O   0  0  0  0  0  0  0  0  0  0  0  0
   17.0802   -5.6659  -12.6408 C   0  0  0  0  0  0  0  0  0  0  0  0
   17.6231   -4.9680  -11.7526 O   0  0  0  0  0  0  0  0  0  0  0  0
   15.8834   -3.1993  -15.1875 O   0  0  0  0  0  0  0  0  0  0  0  0
   22.5624  -11.8338  -15.6656 N   0  0  0  0  0  0  0  0  0  0  0  0
   23.4007  -10.6796  -15.4480 C   0  0  0  0  0  0  0  0  0  0  0  0
   24.6476  -10.7580  -15.7508 N   0  0  0  0  0  0  0  0  0  0  0  0
   22.8817   -9.4890  -14.9178 N   0  0  0  0  0  0  0  0  0  0  0  0
   21.4360   -9.4046  -14.5685 C   0  0  0  0  0  0  0  0  0  0  0  0
   21.1168   -8.0169  -14.1734 C   0  0  0  0  0  0  0  0  0  0  0  0
   19.7646   -7.5674  -13.9428 C   0  0  0  0  0  0  0  0  0  0  0  0
   19.3412   -6.2085  -13.5793 C   0  0  2  0  0  0  0  0  0  0  0  0
   17.8477   -6.2781  -13.6230 N   0  0  0  0  0  0  0  0  0  0  0  0
   19.7615   -5.0601  -14.3664 C   0  0  0  0  0  0  0  0  0  0  0  0
   20.7883   -4.3934  -13.9740 O   0  0  0  0  0  0  0  0  0  0  0  0
   19.1796   -4.6040  -15.5039 O   0  0  0  0  0  0  0  0  0  0  0  0
  2  1  1  1
  3  2  1  0
  4  2  1  0
  4  5  1  6
  6  7  2  0
  6  4  1  0
  8  6  1  0
  9  8  1  0
 10 11  1  0
  9 10  1  1
 11 12  2  0
 13 24  1  0
 13  9  1  0
 14 13  2  0
 15 11  1  0
 17 16  1  0
 18 17  2  0
 19 17  1  0
 20 21  1  0
 20 19  1  0
 23 22  1  6
 22 21  1  0
 23 25  1  0
 23 24  1  0
 25 27  1  0
 26 25  2  0
M  END
$$$$
