VDR.pdb
     RDKit          3D

 27 26  0  0  1  0  0  0  0  0999 V2000
   17.3316  -26.8223   -4.5474 C   0  0  0  0  0  0  0  0  0  0  0  0
   16.9191  -26.6564   -6.0109 C   0  0  1  0  0  0  0  0  0  0  0  0
   15.4283  -26.7109   -6.1684 C   0  0  0  0  0  0  0  0  0  0  0  0
   17.5215  -25.3855   -6.5284 C   0  0  2  0  0  0  0  0  0  0  0  0
   17.1917  -24.2294   -5.7545 N   0  0  0  0  0  0  0  0  0  0  0  0
   17.2141  -25.2392   -7.9749 C   0  0  0  0  0  0  0  0  0  0  0  0
   17.5412  -26.1893   -8.7235 O   0  0  0  0  0  0  0  0  0  0  0  0
   16.5802  -24.0858   -8.5046 N   0  0  0  0  0  0  0  0  0  0  0  0
   16.3340  -23.9584   -9.9265 C   0  0  1  0  0  0  0  0  0  0  0  0
   14.9195  -23.5989  -10.2513 C   0  0  0  0  0  0  0  0  0  0  0  0
   13.9338  -24.6197   -9.8579 C   0  0  0  0  0  0  0  0  0  0  0  0
   14.1425  -25.8061  -10.2106 O   0  0  0  0  0  0  0  0  0  0  0  0
   17.2104  -22.9348  -10.5479 C   0  0  0  0  0  0  0  0  0  0  0  0
   17.3638  -21.8279   -9.9805 O   0  0  0  0  0  0  0  0  0  0  0  0
   12.7894  -24.3540   -9.1225 O   0  0  0  0  0  0  0  0  0  0  0  0
   24.0287  -24.6465  -14.7075 N   0  0  0  0  0  0  0  0  0  0  0  0
   22.8231  -25.3390  -14.3214 C   0  0  0  0  0  0  0  0  0  0  0  0
   22.9239  -26.5177  -13.8184 N   0  0  0  0  0  0  0  0  0  0  0  0
   21.5592  -24.7524  -14.4848 N   0  0  0  0  0  0  0  0  0  0  0  0
   21.4526  -23.3614  -15.0071 C   0  0  0  0  0  0  0  0  0  0  0  0
   20.7575  -22.5241  -14.0074 C   0  0  0  0  0  0  0  0  0  0  0  0
   19.6045  -22.9885  -13.2735 C   0  0  0  0  0  0  0  0  0  0  0  0
   18.7542  -22.1919  -12.3788 C   0  0  2  0  0  0  0  0  0  0  0  0
   17.8533  -23.2060  -11.7487 N   0  0  0  0  0  0  0  0  0  0  0  0
   17.9260  -21.1154  -12.8987 C   0  0  0  0  0  0  0  0  0  0  0  0
   16.7441  -21.4009  -13.3162 O   0  0  0  0  0  0  0  0  0  0  0  0
   18.2675  -19.8055  -12.9895 O   0  0  0  0  0  0  0  0  0  0  0  0
  2  1  1  1
  3  2  1  0
  4  2  1  0
  4  5  1  1
  6  7  2  0
  6  4  1  0
  8  6  1  0
  9  8  1  0
 10 11  1  0
  9 10  1  1
 11 12  2  0
 13 24  1  0
 13  9  1  0
 14 13  2  0
 15 11  1  0
 17 16  1  0
 18 17  2  0
 19 17  1  0
 20 21  1  0
 20 19  1  0
 23 22  1  6
 22 21  1  0
 23 25  1  0
 23 24  1  0
 25 27  1  0
 26 25  2  0
M  END
$$$$
