VDR.pdb
     RDKit          3D

 27 26  0  0  1  0  0  0  0  0999 V2000
   21.1205  -17.9937  -20.3188 C   0  0  0  0  0  0  0  0  0  0  0  0
   21.1931  -16.5623  -19.7845 C   0  0  1  0  0  0  0  0  0  0  0  0
   20.2946  -16.3753  -18.5978 C   0  0  0  0  0  0  0  0  0  0  0  0
   22.6277  -16.2402  -19.4954 C   0  0  2  0  0  0  0  0  0  0  0  0
   23.2377  -17.1123  -18.5406 N   0  0  0  0  0  0  0  0  0  0  0  0
   22.7575  -14.8002  -19.1521 C   0  0  0  0  0  0  0  0  0  0  0  0
   22.9631  -14.5202  -17.9481 O   0  0  0  0  0  0  0  0  0  0  0  0
   22.6567  -13.7741  -20.1266 N   0  0  0  0  0  0  0  0  0  0  0  0
   22.8432  -12.3836  -19.7655 C   0  0  1  0  0  0  0  0  0  0  0  0
   23.7457  -11.6459  -20.7020 C   0  0  0  0  0  0  0  0  0  0  0  0
   24.0507  -10.2676  -20.2829 C   0  0  0  0  0  0  0  0  0  0  0  0
   23.5955   -9.8729  -19.1818 O   0  0  0  0  0  0  0  0  0  0  0  0
   21.5544  -11.6499  -19.7145 C   0  0  0  0  0  0  0  0  0  0  0  0
   20.7526  -11.7447  -20.6731 O   0  0  0  0  0  0  0  0  0  0  0  0
   24.8089   -9.3776  -21.0273 O   0  0  0  0  0  0  0  0  0  0  0  0
   16.0240  -12.3215  -13.2720 N   0  0  0  0  0  0  0  0  0  0  0  0
   15.3246  -11.8127  -14.4271 C   0  0  0  0  0  0  0  0  0  0  0  0
   14.0428  -11.9056  -14.4614 N   0  0  0  0  0  0  0  0  0  0  0  0
   16.0137  -11.2259  -15.4989 N   0  0  0  0  0  0  0  0  0  0  0  0
   17.4980  -11.3325  -15.5694 C   0  0  0  0  0  0  0  0  0  0  0  0
   17.9646  -10.7214  -16.8314 C   0  0  0  0  0  0  0  0  0  0  0  0
   19.3387  -10.7955  -17.2676 C   0  0  0  0  0  0  0  0  0  0  0  0
   19.9038  -10.2120  -18.4916 C   0  0  2  0  0  0  0  0  0  0  0  0
   21.2437  -10.8659  -18.6111 N   0  0  0  0  0  0  0  0  0  0  0  0
   20.0913   -8.7753  -18.6160 C   0  0  0  0  0  0  0  0  0  0  0  0
   21.2595   -8.3361  -18.9243 O   0  0  0  0  0  0  0  0  0  0  0  0
   19.1438   -7.8193  -18.4448 O   0  0  0  0  0  0  0  0  0  0  0  0
  2  1  1  1
  3  2  1  0
  4  2  1  0
  4  5  1  1
  6  7  2  0
  6  4  1  0
  8  6  1  0
  9  8  1  0
 10 11  1  0
  9 10  1  6
 11 12  2  0
 13 24  1  0
 13  9  1  0
 14 13  2  0
 15 11  1  0
 17 16  1  0
 18 17  2  0
 19 17  1  0
 20 21  1  0
 20 19  1  0
 23 22  1  1
 22 21  1  0
 23 25  1  0
 23 24  1  0
 25 27  1  0
 26 25  2  0
M  END
$$$$
