VDR.pdb
     RDKit          3D

 27 26  0  0  1  0  0  0  0  0999 V2000
   25.8013  -17.1905  -20.8868 C   0  0  0  0  0  0  0  0  0  0  0  0
   24.6920  -16.9415  -19.8635 C   0  0  1  0  0  0  0  0  0  0  0  0
   23.3649  -16.7406  -20.5336 C   0  0  0  0  0  0  0  0  0  0  0  0
   24.6929  -18.0751  -18.8834 C   0  0  2  0  0  0  0  0  0  0  0  0
   24.5779  -19.3657  -19.4880 N   0  0  0  0  0  0  0  0  0  0  0  0
   23.6800  -17.8226  -17.8258 C   0  0  0  0  0  0  0  0  0  0  0  0
   23.8601  -16.8207  -17.0951 O   0  0  0  0  0  0  0  0  0  0  0  0
   22.5538  -18.6641  -17.6351 N   0  0  0  0  0  0  0  0  0  0  0  0
   21.6327  -18.4384  -16.5401 C   0  0  1  0  0  0  0  0  0  0  0  0
   20.3088  -17.9025  -16.9826 C   0  0  0  0  0  0  0  0  0  0  0  0
   19.3605  -17.6584  -15.8827 C   0  0  0  0  0  0  0  0  0  0  0  0
   19.8283  -17.4679  -14.7337 O   0  0  0  0  0  0  0  0  0  0  0  0
   21.3782  -19.6805  -15.7692 C   0  0  0  0  0  0  0  0  0  0  0  0
   20.7968  -20.6422  -16.3239 O   0  0  0  0  0  0  0  0  0  0  0  0
   17.9833  -17.6257  -16.0354 O   0  0  0  0  0  0  0  0  0  0  0  0
   27.0222  -21.3003   -9.9788 N   0  0  0  0  0  0  0  0  0  0  0  0
   25.6720  -20.8913   -9.6762 C   0  0  0  0  0  0  0  0  0  0  0  0
   25.3588  -20.6579   -8.4514 N   0  0  0  0  0  0  0  0  0  0  0  0
   24.7086  -20.7465  -10.6857 N   0  0  0  0  0  0  0  0  0  0  0  0
   25.1253  -20.7876  -12.1154 C   0  0  0  0  0  0  0  0  0  0  0  0
   23.9540  -20.4914  -12.9664 C   0  0  0  0  0  0  0  0  0  0  0  0
   22.6826  -21.1527  -12.7938 C   0  0  0  0  0  0  0  0  0  0  0  0
   21.4907  -20.9977  -13.6385 C   0  0  2  0  0  0  0  0  0  0  0  0
   21.7830  -19.7716  -14.4438 N   0  0  0  0  0  0  0  0  0  0  0  0
   20.1713  -20.8437  -13.0467 C   0  0  0  0  0  0  0  0  0  0  0  0
   19.9022  -19.7480  -12.4306 O   0  0  0  0  0  0  0  0  0  0  0  0
   19.1614  -21.7492  -13.0781 O   0  0  0  0  0  0  0  0  0  0  0  0
  2  1  1  6
  3  2  1  0
  4  2  1  0
  4  5  1  6
  6  7  2  0
  6  4  1  0
  8  6  1  0
  9  8  1  0
 10 11  1  0
  9 10  1  6
 11 12  2  0
 13 24  1  0
 13  9  1  0
 14 13  2  0
 15 11  1  0
 17 16  1  0
 18 17  2  0
 19 17  1  0
 20 21  1  0
 20 19  1  0
 23 22  1  1
 22 21  1  0
 23 25  1  0
 23 24  1  0
 25 27  1  0
 26 25  2  0
M  END
$$$$
