VDR.pdb
     RDKit          3D

 27 26  0  0  1  0  0  0  0  0999 V2000
   25.8223  -12.1504  -15.8690 C   0  0  0  0  0  0  0  0  0  0  0  0
   25.2770  -10.8820  -15.2107 C   0  0  1  0  0  0  0  0  0  0  0  0
   26.2477   -9.7443  -15.3281 C   0  0  0  0  0  0  0  0  0  0  0  0
   23.9374  -10.5794  -15.8103 C   0  0  2  0  0  0  0  0  0  0  0  0
   23.9529  -10.4572  -17.2347 N   0  0  0  0  0  0  0  0  0  0  0  0
   23.3336   -9.4097  -15.1206 C   0  0  0  0  0  0  0  0  0  0  0  0
   22.9649   -9.5782  -13.9349 O   0  0  0  0  0  0  0  0  0  0  0  0
   23.1726   -8.1518  -15.7566 N   0  0  0  0  0  0  0  0  0  0  0  0
   22.4149   -7.0903  -15.1260 C   0  0  1  0  0  0  0  0  0  0  0  0
   23.0309   -5.7394  -15.3027 C   0  0  0  0  0  0  0  0  0  0  0  0
   22.3261   -4.6593  -14.5919 C   0  0  0  0  0  0  0  0  0  0  0  0
   21.5573   -3.9218  -15.2555 O   0  0  0  0  0  0  0  0  0  0  0  0
   21.0265   -7.0210  -15.6451 C   0  0  0  0  0  0  0  0  0  0  0  0
   20.8259   -7.0918  -16.8802 O   0  0  0  0  0  0  0  0  0  0  0  0
   22.4577   -4.4049  -13.2358 O   0  0  0  0  0  0  0  0  0  0  0  0
   15.0529  -12.6668  -14.3027 N   0  0  0  0  0  0  0  0  0  0  0  0
   14.2910  -11.5482  -14.8029 C   0  0  0  0  0  0  0  0  0  0  0  0
   13.0523  -11.7283  -15.0959 N   0  0  0  0  0  0  0  0  0  0  0  0
   14.8745  -10.2837  -14.9718 N   0  0  0  0  0  0  0  0  0  0  0  0
   16.3257  -10.0966  -14.6920 C   0  0  0  0  0  0  0  0  0  0  0  0
   16.7102   -8.7151  -15.0487 C   0  0  0  0  0  0  0  0  0  0  0  0
   18.0552   -8.2173  -14.8849 C   0  0  0  0  0  0  0  0  0  0  0  0
   18.5516   -6.8880  -15.2649 C   0  0  2  0  0  0  0  0  0  0  0  0
   19.9614   -6.8789  -14.7654 N   0  0  0  0  0  0  0  0  0  0  0  0
   17.8964   -5.6814  -14.7856 C   0  0  0  0  0  0  0  0  0  0  0  0
   18.2810   -5.1812  -13.6655 O   0  0  0  0  0  0  0  0  0  0  0  0
   16.9012   -5.0011  -15.4081 O   0  0  0  0  0  0  0  0  0  0  0  0
  2  1  1  6
  3  2  1  0
  4  2  1  0
  4  5  1  6
  6  7  2  0
  6  4  1  0
  8  6  1  0
  9  8  1  0
 10 11  1  0
  9 10  1  6
 11 12  2  0
 13 24  1  0
 13  9  1  0
 14 13  2  0
 15 11  1  0
 17 16  1  0
 18 17  2  0
 19 17  1  0
 20 21  1  0
 20 19  1  0
 23 22  1  1
 22 21  1  0
 23 25  1  0
 23 24  1  0
 25 27  1  0
 26 25  2  0
M  END
$$$$
