VDR.pdb
     RDKit          3D

 27 26  0  0  1  0  0  0  0  0999 V2000
   24.1385  -31.0565   -9.6648 C   0  0  0  0  0  0  0  0  0  0  0  0
   24.3810  -31.9343   -8.4359 C   0  0  1  0  0  0  0  0  0  0  0  0
   23.0974  -32.2465   -7.7249 C   0  0  0  0  0  0  0  0  0  0  0  0
   25.1272  -33.1585   -8.8719 C   0  0  2  0  0  0  0  0  0  0  0  0
   24.4414  -33.9370   -9.8558 N   0  0  0  0  0  0  0  0  0  0  0  0
   25.5433  -33.9418   -7.6795 C   0  0  0  0  0  0  0  0  0  0  0  0
   24.8527  -34.9470   -7.3916 O   0  0  0  0  0  0  0  0  0  0  0  0
   26.6668  -33.5855   -6.8899 N   0  0  0  0  0  0  0  0  0  0  0  0
   27.0210  -34.3500   -5.7115 C   0  0  1  0  0  0  0  0  0  0  0  0
   28.4556  -34.1986   -5.3183 C   0  0  0  0  0  0  0  0  0  0  0  0
   28.9277  -35.2143   -4.3622 C   0  0  0  0  0  0  0  0  0  0  0  0
   30.1488  -35.2273   -4.0724 O   0  0  0  0  0  0  0  0  0  0  0  0
   26.1930  -33.9714   -4.5398 C   0  0  0  0  0  0  0  0  0  0  0  0
   26.2428  -32.7978   -4.1030 O   0  0  0  0  0  0  0  0  0  0  0  0
   28.1089  -36.1576   -3.7614 O   0  0  0  0  0  0  0  0  0  0  0  0
   18.4544  -34.1026   -1.9780 N   0  0  0  0  0  0  0  0  0  0  0  0
   18.8716  -34.0157   -3.3566 C   0  0  0  0  0  0  0  0  0  0  0  0
   18.1944  -33.2746   -4.1597 N   0  0  0  0  0  0  0  0  0  0  0  0
   19.9905  -34.7189   -3.8273 N   0  0  0  0  0  0  0  0  0  0  0  0
   20.6838  -35.6876   -2.9327 C   0  0  0  0  0  0  0  0  0  0  0  0
   21.9386  -35.0785   -2.4446 C   0  0  0  0  0  0  0  0  0  0  0  0
   23.1668  -35.1197   -3.2020 C   0  0  0  0  0  0  0  0  0  0  0  0
   24.4542  -34.5242   -2.8198 C   0  0  2  0  0  0  0  0  0  0  0  0
   25.3711  -34.9137   -3.9355 N   0  0  0  0  0  0  0  0  0  0  0  0
   25.0971  -34.8784   -1.5643 C   0  0  0  0  0  0  0  0  0  0  0  0
   24.5694  -34.4612   -0.4687 O   0  0  0  0  0  0  0  0  0  0  0  0
   26.2192  -35.6262   -1.4144 O   0  0  0  0  0  0  0  0  0  0  0  0
  2  1  1  6
  3  2  1  0
  4  2  1  0
  4  5  1  6
  6  7  2  0
  6  4  1  0
  8  6  1  0
  9  8  1  0
 10 11  1  0
  9 10  1  1
 11 12  2  0
 13 24  1  0
 13  9  1  0
 14 13  2  0
 15 11  1  0
 17 16  1  0
 18 17  2  0
 19 17  1  0
 20 21  1  0
 20 19  1  0
 23 22  1  6
 22 21  1  0
 23 25  1  0
 23 24  1  0
 25 27  1  0
 26 25  2  0
M  END
$$$$
