FHM.pdb
     RDKit          3D

 30 31  0  0  1  0  0  0  0  0999 V2000
    5.5831  -18.3890   24.1616 N   0  0  0  0  0  0  0  0  0  0  0  0
    6.4100  -17.1889   24.2352 C   0  0  1  0  0  0  0  0  0  0  0  0
    6.4752  -16.6078   25.5828 C   0  0  0  0  0  0  0  0  0  0  0  0
    6.5009  -15.1333   25.5766 C   0  0  0  0  0  0  0  0  0  0  0  0
    5.8647  -14.3767   24.6163 C   0  0  0  0  0  0  0  0  0  0  0  0
    5.8923  -12.9993   24.5868 C   0  0  0  0  0  0  0  0  0  0  0  0
    6.5898  -12.3140   25.5652 C   0  0  0  0  0  0  0  0  0  0  0  0
    7.2369  -13.0316   26.5412 C   0  0  0  0  0  0  0  0  0  0  0  0
    7.1945  -14.4139   26.5480 C   0  0  0  0  0  0  0  0  0  0  0  0
    7.6900  -17.3446   23.5672 C   0  0  0  0  0  0  0  0  0  0  0  0
    8.4295  -18.3643   23.7854 O   0  0  0  0  0  0  0  0  0  0  0  0
    8.1865  -16.3958   22.6463 N   0  0  0  0  0  0  0  0  0  0  0  0
    9.5835  -16.4051   22.2118 C   0  0  1  0  0  0  0  0  0  0  0  0
    9.7975  -15.6084   20.9738 C   0  0  0  0  0  0  0  0  0  0  0  0
   11.1675  -15.8595   20.4359 C   0  0  0  0  0  0  0  0  0  0  0  0
   11.5481  -16.8087   19.4846 C   0  0  0  0  0  0  0  0  0  0  0  0
   12.8726  -16.7135   19.2734 N   0  0  0  0  0  0  0  0  0  0  0  0
   13.3579  -15.7354   20.0563 C   0  0  0  0  0  0  0  0  0  0  0  0
   12.3081  -15.2237   20.7586 N   0  0  0  0  0  0  0  0  0  0  0  0
   10.5597  -16.2311   23.2833 C   0  0  0  0  0  0  0  0  0  0  0  0
   11.7869  -16.2938   23.0390 O   0  0  0  0  0  0  0  0  0  0  0  0
    9.6235  -14.1596   29.8333 C   0  0  0  0  0  0  0  0  0  0  0  0
   11.3367  -14.2502   29.2700 S   0  0  0  0  0  0  0  0  0  0  0  0
   11.5111  -15.6784   28.1871 C   0  0  0  0  0  0  0  0  0  0  0  0
   10.4788  -15.7401   27.0912 C   0  0  0  0  0  0  0  0  0  0  0  0
   11.1101  -15.9186   25.7266 C   0  0  2  0  0  0  0  0  0  0  0  0
   10.1970  -15.9843   24.6398 N   0  0  0  0  0  0  0  0  0  0  0  0
   12.0933  -16.9970   25.7880 C   0  0  0  0  0  0  0  0  0  0  0  0
   11.7396  -18.1790   25.5744 O   0  0  0  0  0  0  0  0  0  0  0  0
   13.4248  -16.7550   26.0792 O   0  0  0  0  0  0  0  0  0  0  0  0
  2  1  1  1
  2  3  1  0
  3  4  1  0
  4  5  2  0
  5  6  1  0
  7  6  2  0
  8  7  1  0
  9  4  1  0
  9  8  2  0
 10 11  2  0
 10  2  1  0
 12 10  1  0
 13 12  1  0
 14 15  1  0
 13 14  1  6
 15 19  1  0
 15 16  2  0
 16 17  1  0
 18 17  1  0
 19 18  2  0
 20 21  2  0
 20 13  1  0
 23 22  1  0
 24 23  1  0
 24 25  1  0
 26 25  1  1
 26 27  1  0
 27 20  1  0
 28 26  1  0
 29 28  2  0
 30 28  1  0
M  END
$$$$
