FHM.pdb
     RDKit          3D

 30 31  0  0  1  0  0  0  0  0999 V2000
    6.7923  -18.3219   20.0043 N   0  0  0  0  0  0  0  0  0  0  0  0
    7.3483  -17.0326   20.4017 C   0  0  1  0  0  0  0  0  0  0  0  0
    6.3254  -16.0067   20.6448 C   0  0  0  0  0  0  0  0  0  0  0  0
    6.8959  -14.6884   20.9790 C   0  0  0  0  0  0  0  0  0  0  0  0
    6.9053  -14.1787   22.2593 C   0  0  0  0  0  0  0  0  0  0  0  0
    7.4195  -12.9426   22.5857 C   0  0  0  0  0  0  0  0  0  0  0  0
    7.9633  -12.1502   21.5908 C   0  0  0  0  0  0  0  0  0  0  0  0
    7.9739  -12.6226   20.3012 C   0  0  0  0  0  0  0  0  0  0  0  0
    7.4507  -13.8667   19.9996 C   0  0  0  0  0  0  0  0  0  0  0  0
    8.3625  -17.1505   21.4343 C   0  0  0  0  0  0  0  0  0  0  0  0
    8.0836  -17.6411   22.5814 O   0  0  0  0  0  0  0  0  0  0  0  0
    9.6994  -16.7406   21.2362 N   0  0  0  0  0  0  0  0  0  0  0  0
   10.7023  -16.8521   22.2957 C   0  0  1  0  0  0  0  0  0  0  0  0
   12.0914  -16.8568   21.7633 C   0  0  0  0  0  0  0  0  0  0  0  0
   12.3809  -18.1649   21.1044 C   0  0  0  0  0  0  0  0  0  0  0  0
   11.5433  -19.2794   21.0193 C   0  0  0  0  0  0  0  0  0  0  0  0
   12.1766  -20.2555   20.3453 N   0  0  0  0  0  0  0  0  0  0  0  0
   13.3934  -19.8075   19.9934 C   0  0  0  0  0  0  0  0  0  0  0  0
   13.5040  -18.5326   20.4620 N   0  0  0  0  0  0  0  0  0  0  0  0
   10.4497  -16.0201   23.4684 C   0  0  0  0  0  0  0  0  0  0  0  0
   10.3870  -14.7735   23.3593 O   0  0  0  0  0  0  0  0  0  0  0  0
    7.6217  -11.3203   26.2505 C   0  0  0  0  0  0  0  0  0  0  0  0
    6.9884  -12.9394   26.7385 S   0  0  0  0  0  0  0  0  0  0  0  0
    8.3803  -14.0640   26.9407 C   0  0  0  0  0  0  0  0  0  0  0  0
    8.6700  -14.8985   25.7200 C   0  0  0  0  0  0  0  0  0  0  0  0
    9.8781  -15.7900   25.9159 C   0  0  2  0  0  0  0  0  0  0  0  0
   10.2616  -16.5502   24.7784 N   0  0  0  0  0  0  0  0  0  0  0  0
    9.7221  -16.5473   27.1550 C   0  0  0  0  0  0  0  0  0  0  0  0
    9.9964  -16.0128   28.2537 O   0  0  0  0  0  0  0  0  0  0  0  0
    9.2744  -17.8572   27.1584 O   0  0  0  0  0  0  0  0  0  0  0  0
  2  1  1  1
  2  3  1  0
  3  4  1  0
  4  5  2  0
  5  6  1  0
  7  6  2  0
  8  7  1  0
  9  4  1  0
  9  8  2  0
 10 11  2  0
 10  2  1  0
 12 10  1  0
 13 12  1  0
 14 15  1  0
 13 14  1  6
 15 19  1  0
 15 16  2  0
 16 17  1  0
 18 17  1  0
 19 18  2  0
 20 21  2  0
 20 13  1  0
 23 22  1  0
 24 23  1  0
 24 25  1  0
 26 25  1  6
 26 27  1  0
 27 20  1  0
 28 26  1  0
 29 28  2  0
 30 28  1  0
M  END
$$$$
