FHM.pdb
     RDKit          3D

 30 31  0  0  1  0  0  0  0  0999 V2000
    7.2725  -16.6097   26.1051 N   0  0  0  0  0  0  0  0  0  0  0  0
    6.2916  -16.3594   25.0542 C   0  0  1  0  0  0  0  0  0  0  0  0
    5.2584  -15.3892   25.4403 C   0  0  0  0  0  0  0  0  0  0  0  0
    5.8154  -14.1323   25.9741 C   0  0  0  0  0  0  0  0  0  0  0  0
    6.5609  -13.2594   25.2115 C   0  0  0  0  0  0  0  0  0  0  0  0
    7.1018  -12.0895   25.6988 C   0  0  0  0  0  0  0  0  0  0  0  0
    6.8986  -11.7489   27.0240 C   0  0  0  0  0  0  0  0  0  0  0  0
    6.1599  -12.5921   27.8175 C   0  0  0  0  0  0  0  0  0  0  0  0
    5.6284  -13.7611   27.3043 C   0  0  0  0  0  0  0  0  0  0  0  0
    6.9020  -16.1284   23.7569 C   0  0  0  0  0  0  0  0  0  0  0  0
    6.4114  -16.6434   22.6947 O   0  0  0  0  0  0  0  0  0  0  0  0
    8.0547  -15.3293   23.5914 N   0  0  0  0  0  0  0  0  0  0  0  0
    8.6374  -15.0853   22.2717 C   0  0  1  0  0  0  0  0  0  0  0  0
    7.9987  -13.9375   21.5733 C   0  0  0  0  0  0  0  0  0  0  0  0
    8.4716  -13.8740   20.1586 C   0  0  0  0  0  0  0  0  0  0  0  0
    7.7115  -13.6067   19.0177 C   0  0  0  0  0  0  0  0  0  0  0  0
    8.5115  -13.6419   17.9376 N   0  0  0  0  0  0  0  0  0  0  0  0
    9.7609  -13.9228   18.3439 C   0  0  0  0  0  0  0  0  0  0  0  0
    9.7219  -14.0612   19.6991 N   0  0  0  0  0  0  0  0  0  0  0  0
   10.0947  -15.1572   22.2227 C   0  0  0  0  0  0  0  0  0  0  0  0
   10.7592  -14.2177   21.7273 O   0  0  0  0  0  0  0  0  0  0  0  0
    9.9700  -13.8083   27.5877 C   0  0  0  0  0  0  0  0  0  0  0  0
   10.8032  -15.3797   27.8997 S   0  0  0  0  0  0  0  0  0  0  0  0
   11.6719  -15.8769   26.4028 C   0  0  0  0  0  0  0  0  0  0  0  0
   10.8119  -15.8573   25.1657 C   0  0  0  0  0  0  0  0  0  0  0  0
   11.5855  -16.2670   23.9303 C   0  0  2  0  0  0  0  0  0  0  0  0
   10.8408  -16.2655   22.7202 N   0  0  0  0  0  0  0  0  0  0  0  0
   12.3269  -17.4938   24.2110 C   0  0  0  0  0  0  0  0  0  0  0  0
   11.9054  -18.5917   23.7811 O   0  0  0  0  0  0  0  0  0  0  0  0
   13.4985  -17.4861   24.9483 O   0  0  0  0  0  0  0  0  0  0  0  0
  2  1  1  1
  2  3  1  0
  3  4  1  0
  4  5  2  0
  5  6  1  0
  7  6  2  0
  8  7  1  0
  9  4  1  0
  9  8  2  0
 10 11  2  0
 10  2  1  0
 12 10  1  0
 13 12  1  0
 14 15  1  0
 13 14  1  1
 15 19  1  0
 15 16  2  0
 16 17  1  0
 18 17  1  0
 19 18  2  0
 20 21  2  0
 20 13  1  0
 23 22  1  0
 24 23  1  0
 24 25  1  0
 26 25  1  1
 26 27  1  0
 27 20  1  0
 28 26  1  0
 29 28  2  0
 30 28  1  0
M  END
$$$$
