FHM.pdb
     RDKit          3D

 30 31  0  0  1  0  0  0  0  0999 V2000
    5.8525  -16.5358   25.3736 N   0  0  0  0  0  0  0  0  0  0  0  0
    7.0164  -15.7778   24.9265 C   0  0  1  0  0  0  0  0  0  0  0  0
    7.6057  -14.9396   25.9792 C   0  0  0  0  0  0  0  0  0  0  0  0
    6.9595  -13.6192   26.0972 C   0  0  0  0  0  0  0  0  0  0  0  0
    5.7980  -13.4143   26.8101 C   0  0  0  0  0  0  0  0  0  0  0  0
    5.1729  -12.1909   26.9169 C   0  0  0  0  0  0  0  0  0  0  0  0
    5.7226  -11.0910   26.2832 C   0  0  0  0  0  0  0  0  0  0  0  0
    6.8808  -11.2532   25.5631 C   0  0  0  0  0  0  0  0  0  0  0  0
    7.4883  -12.4921   25.4708 C   0  0  0  0  0  0  0  0  0  0  0  0
    7.9628  -16.5869   24.1791 C   0  0  0  0  0  0  0  0  0  0  0  0
    8.1035  -17.8338   24.4234 O   0  0  0  0  0  0  0  0  0  0  0  0
    8.7701  -16.0549   23.1496 N   0  0  0  0  0  0  0  0  0  0  0  0
   10.0342  -16.6818   22.7630 C   0  0  1  0  0  0  0  0  0  0  0  0
   10.4857  -16.2599   21.4097 C   0  0  0  0  0  0  0  0  0  0  0  0
   11.5677  -17.1684   20.9266 C   0  0  0  0  0  0  0  0  0  0  0  0
   11.6274  -18.5589   21.0432 C   0  0  0  0  0  0  0  0  0  0  0  0
   12.7663  -18.9993   20.4802 N   0  0  0  0  0  0  0  0  0  0  0  0
   13.4421  -17.9398   20.0051 C   0  0  0  0  0  0  0  0  0  0  0  0
   12.7000  -16.8312   20.2837 N   0  0  0  0  0  0  0  0  0  0  0  0
   11.0473  -16.7167   23.8136 C   0  0  0  0  0  0  0  0  0  0  0  0
   12.0085  -15.9132   23.7940 O   0  0  0  0  0  0  0  0  0  0  0  0
   10.3562  -13.1680   27.8584 C   0  0  0  0  0  0  0  0  0  0  0  0
   10.6621  -14.8897   28.3088 S   0  0  0  0  0  0  0  0  0  0  0  0
   11.6929  -15.6418   27.0382 C   0  0  0  0  0  0  0  0  0  0  0  0
   11.8452  -17.1338   27.1832 C   0  0  0  0  0  0  0  0  0  0  0  0
   12.0601  -17.8147   25.8480 C   0  0  2  0  0  0  0  0  0  0  0  0
   11.0151  -17.6373   24.9017 N   0  0  0  0  0  0  0  0  0  0  0  0
   12.4767  -19.1963   26.0733 C   0  0  0  0  0  0  0  0  0  0  0  0
   13.4865  -19.4391   26.7727 O   0  0  0  0  0  0  0  0  0  0  0  0
   11.7835  -20.2652   25.5319 O   0  0  0  0  0  0  0  0  0  0  0  0
  2  1  1  1
  2  3  1  0
  3  4  1  0
  4  5  2  0
  5  6  1  0
  7  6  2  0
  8  7  1  0
  9  4  1  0
  9  8  2  0
 10 11  2  0
 10  2  1  0
 12 10  1  0
 13 12  1  0
 14 15  1  0
 13 14  1  6
 15 19  1  0
 15 16  2  0
 16 17  1  0
 18 17  1  0
 19 18  2  0
 20 21  2  0
 20 13  1  0
 23 22  1  0
 24 23  1  0
 24 25  1  0
 26 25  1  1
 26 27  1  0
 27 20  1  0
 28 26  1  0
 29 28  2  0
 30 28  1  0
M  END
$$$$
