FHM.pdb
     RDKit          3D

 30 31  0  0  1  0  0  0  0  0999 V2000
    5.8969  -18.0414   23.7168 N   0  0  0  0  0  0  0  0  0  0  0  0
    6.5880  -16.7771   23.9479 C   0  0  1  0  0  0  0  0  0  0  0  0
    6.2822  -16.1756   25.2526 C   0  0  0  0  0  0  0  0  0  0  0  0
    6.2265  -14.7025   25.2120 C   0  0  0  0  0  0  0  0  0  0  0  0
    7.0772  -13.9414   24.4398 C   0  0  0  0  0  0  0  0  0  0  0  0
    7.0491  -12.5642   24.4029 C   0  0  0  0  0  0  0  0  0  0  0  0
    6.1238  -11.8839   25.1740 C   0  0  0  0  0  0  0  0  0  0  0  0
    5.2570  -12.6062   25.9570 C   0  0  0  0  0  0  0  0  0  0  0  0
    5.3062  -13.9881   25.9769 C   0  0  0  0  0  0  0  0  0  0  0  0
    7.9993  -16.8365   23.6107 C   0  0  0  0  0  0  0  0  0  0  0  0
    8.6621  -17.9231   23.7303 O   0  0  0  0  0  0  0  0  0  0  0  0
    8.7139  -15.7158   23.1332 N   0  0  0  0  0  0  0  0  0  0  0  0
   10.1097  -15.8194   22.7068 C   0  0  1  0  0  0  0  0  0  0  0  0
   10.5005  -14.7271   21.7755 C   0  0  0  0  0  0  0  0  0  0  0  0
    9.4329  -14.5230   20.7519 C   0  0  0  0  0  0  0  0  0  0  0  0
    9.2505  -15.2270   19.5595 C   0  0  0  0  0  0  0  0  0  0  0  0
    8.1747  -14.7366   18.9189 N   0  0  0  0  0  0  0  0  0  0  0  0
    7.6582  -13.7408   19.6582 C   0  0  0  0  0  0  0  0  0  0  0  0
    8.4344  -13.6219   20.7720 N   0  0  0  0  0  0  0  0  0  0  0  0
   11.0532  -16.1449   23.7723 C   0  0  0  0  0  0  0  0  0  0  0  0
   12.2849  -16.1654   23.5436 O   0  0  0  0  0  0  0  0  0  0  0  0
   11.0346  -12.5453   27.3761 C   0  0  0  0  0  0  0  0  0  0  0  0
   11.4432  -13.8085   28.6001 S   0  0  0  0  0  0  0  0  0  0  0  0
   12.2303  -15.1919   27.7577 C   0  0  0  0  0  0  0  0  0  0  0  0
   11.3039  -16.3511   27.4961 C   0  0  0  0  0  0  0  0  0  0  0  0
   11.5153  -16.9470   26.1203 C   0  0  2  0  0  0  0  0  0  0  0  0
   10.6526  -16.4516   25.1057 N   0  0  0  0  0  0  0  0  0  0  0  0
   11.5856  -18.4017   26.2310 C   0  0  0  0  0  0  0  0  0  0  0  0
   12.3613  -18.9292   27.0604 O   0  0  0  0  0  0  0  0  0  0  0  0
   10.8124  -19.2323   25.4382 O   0  0  0  0  0  0  0  0  0  0  0  0
  2  1  1  1
  2  3  1  0
  3  4  1  0
  4  5  2  0
  5  6  1  0
  7  6  2  0
  8  7  1  0
  9  4  1  0
  9  8  2  0
 10 11  2  0
 10  2  1  0
 12 10  1  0
 13 12  1  0
 14 15  1  0
 13 14  1  1
 15 19  1  0
 15 16  2  0
 16 17  1  0
 18 17  1  0
 19 18  2  0
 20 21  2  0
 20 13  1  0
 23 22  1  0
 24 23  1  0
 24 25  1  0
 26 25  1  1
 26 27  1  0
 27 20  1  0
 28 26  1  0
 29 28  2  0
 30 28  1  0
M  END
$$$$
