FHM.pdb
     RDKit          3D

 30 31  0  0  1  0  0  0  0  0999 V2000
    5.6004  -18.1918   24.1848 N   0  0  0  0  0  0  0  0  0  0  0  0
    6.2735  -16.9088   24.3582 C   0  0  1  0  0  0  0  0  0  0  0  0
    6.2737  -16.4338   25.7482 C   0  0  0  0  0  0  0  0  0  0  0  0
    6.7044  -15.0295   25.8799 C   0  0  0  0  0  0  0  0  0  0  0  0
    5.8185  -13.9747   25.9216 C   0  0  0  0  0  0  0  0  0  0  0  0
    6.2049  -12.6563   26.0281 C   0  0  0  0  0  0  0  0  0  0  0  0
    7.5515  -12.3480   26.0998 C   0  0  0  0  0  0  0  0  0  0  0  0
    8.4668  -13.3712   26.0625 C   0  0  0  0  0  0  0  0  0  0  0  0
    8.0531  -14.6864   25.9545 C   0  0  0  0  0  0  0  0  0  0  0  0
    7.5593  -16.8515   23.6857 C   0  0  0  0  0  0  0  0  0  0  0  0
    8.4240  -17.7816   23.8328 O   0  0  0  0  0  0  0  0  0  0  0  0
    7.9260  -15.7833   22.8376 N   0  0  0  0  0  0  0  0  0  0  0  0
    9.2212  -15.7520   22.1577 C   0  0  1  0  0  0  0  0  0  0  0  0
    9.1598  -15.0387   20.8536 C   0  0  0  0  0  0  0  0  0  0  0  0
    8.9342  -16.0160   19.7476 C   0  0  0  0  0  0  0  0  0  0  0  0
    8.8582  -17.4074   19.8430 C   0  0  0  0  0  0  0  0  0  0  0  0
    8.6459  -17.9216   18.6189 N   0  0  0  0  0  0  0  0  0  0  0  0
    8.5826  -16.9087   17.7384 C   0  0  0  0  0  0  0  0  0  0  0  0
    8.7595  -15.7538   18.4399 N   0  0  0  0  0  0  0  0  0  0  0  0
   10.3590  -15.4487   23.0207 C   0  0  0  0  0  0  0  0  0  0  0  0
   10.8403  -14.2924   23.0518 O   0  0  0  0  0  0  0  0  0  0  0  0
   11.3460  -14.0213   30.1203 C   0  0  0  0  0  0  0  0  0  0  0  0
   10.3668  -14.2872   28.6265 S   0  0  0  0  0  0  0  0  0  0  0  0
   11.3854  -15.1494   27.4174 C   0  0  0  0  0  0  0  0  0  0  0  0
   10.7064  -15.3580   26.0886 C   0  0  0  0  0  0  0  0  0  0  0  0
   11.5763  -16.1345   25.1226 C   0  0  2  0  0  0  0  0  0  0  0  0
   10.9821  -16.4157   23.8629 N   0  0  0  0  0  0  0  0  0  0  0  0
   12.1579  -17.2821   25.8139 C   0  0  0  0  0  0  0  0  0  0  0  0
   12.9104  -17.1038   26.7987 O   0  0  0  0  0  0  0  0  0  0  0  0
   11.9030  -18.5821   25.4123 O   0  0  0  0  0  0  0  0  0  0  0  0
  2  1  1  1
  2  3  1  0
  3  4  1  0
  4  5  2  0
  5  6  1  0
  7  6  2  0
  8  7  1  0
  9  4  1  0
  9  8  2  0
 10 11  2  0
 10  2  1  0
 12 10  1  0
 13 12  1  0
 14 15  1  0
 13 14  1  6
 15 19  1  0
 15 16  2  0
 16 17  1  0
 18 17  1  0
 19 18  2  0
 20 21  2  0
 20 13  1  0
 23 22  1  0
 24 23  1  0
 24 25  1  0
 26 25  1  1
 26 27  1  0
 27 20  1  0
 28 26  1  0
 29 28  2  0
 30 28  1  0
M  END
$$$$
