FHM.pdb
     RDKit          3D

 30 31  0  0  1  0  0  0  0  0999 V2000
    5.5796  -17.4153   25.4904 N   0  0  0  0  0  0  0  0  0  0  0  0
    6.4744  -16.3969   24.9506 C   0  0  1  0  0  0  0  0  0  0  0  0
    7.0098  -15.4895   25.9743 C   0  0  0  0  0  0  0  0  0  0  0  0
    6.5487  -14.0980   25.8125 C   0  0  0  0  0  0  0  0  0  0  0  0
    7.2869  -13.1351   25.1590 C   0  0  0  0  0  0  0  0  0  0  0  0
    6.8782  -11.8273   25.0132 C   0  0  0  0  0  0  0  0  0  0  0  0
    5.6622  -11.4339   25.5426 C   0  0  0  0  0  0  0  0  0  0  0  0
    4.8957  -12.3642   26.2008 C   0  0  0  0  0  0  0  0  0  0  0  0
    5.3291  -13.6707   26.3342 C   0  0  0  0  0  0  0  0  0  0  0  0
    7.4587  -16.9411   24.0320 C   0  0  0  0  0  0  0  0  0  0  0  0
    8.1516  -17.9704   24.3396 O   0  0  0  0  0  0  0  0  0  0  0  0
    7.7039  -16.3778   22.7603 N   0  0  0  0  0  0  0  0  0  0  0  0
    9.0204  -16.4550   22.1267 C   0  0  1  0  0  0  0  0  0  0  0  0
    8.9697  -16.1397   20.6737 C   0  0  0  0  0  0  0  0  0  0  0  0
   10.2704  -16.4902   20.0298 C   0  0  0  0  0  0  0  0  0  0  0  0
   11.3920  -17.0636   20.6331 C   0  0  0  0  0  0  0  0  0  0  0  0
   12.3573  -17.2188   19.7099 N   0  0  0  0  0  0  0  0  0  0  0  0
   11.8954  -16.7649   18.5328 C   0  0  0  0  0  0  0  0  0  0  0  0
   10.6229  -16.3245   18.7424 N   0  0  0  0  0  0  0  0  0  0  0  0
   10.1058  -15.8509   22.8936 C   0  0  0  0  0  0  0  0  0  0  0  0
   10.1059  -14.6206   23.1306 O   0  0  0  0  0  0  0  0  0  0  0  0
   11.8732  -14.6924   29.7863 C   0  0  0  0  0  0  0  0  0  0  0  0
   10.8112  -15.4145   28.5169 S   0  0  0  0  0  0  0  0  0  0  0  0
   11.8154  -15.7812   27.0678 C   0  0  0  0  0  0  0  0  0  0  0  0
   11.0109  -16.0433   25.8210 C   0  0  0  0  0  0  0  0  0  0  0  0
   11.8950  -16.2945   24.6176 C   0  0  2  0  0  0  0  0  0  0  0  0
   11.2065  -16.5945   23.4114 N   0  0  0  0  0  0  0  0  0  0  0  0
   12.9554  -17.2290   24.9857 C   0  0  0  0  0  0  0  0  0  0  0  0
   13.7340  -16.9527   25.9266 O   0  0  0  0  0  0  0  0  0  0  0  0
   13.1338  -18.4295   24.3200 O   0  0  0  0  0  0  0  0  0  0  0  0
  2  1  1  1
  2  3  1  0
  3  4  1  0
  4  5  2  0
  5  6  1  0
  7  6  2  0
  8  7  1  0
  9  4  1  0
  9  8  2  0
 10 11  2  0
 10  2  1  0
 12 10  1  0
 13 12  1  0
 14 15  1  0
 13 14  1  6
 15 19  1  0
 15 16  2  0
 16 17  1  0
 18 17  1  0
 19 18  2  0
 20 21  2  0
 20 13  1  0
 23 22  1  0
 24 23  1  0
 24 25  1  0
 26 25  1  1
 26 27  1  0
 27 20  1  0
 28 26  1  0
 29 28  2  0
 30 28  1  0
M  END
$$$$
