FHM.pdb
     RDKit          3D

 30 31  0  0  1  0  0  0  0  0999 V2000
    7.5415  -16.8264   18.5125 N   0  0  0  0  0  0  0  0  0  0  0  0
    8.7606  -16.7977   19.3140 C   0  0  1  0  0  0  0  0  0  0  0  0
    9.4469  -15.4993   19.2848 C   0  0  0  0  0  0  0  0  0  0  0  0
    8.6745  -14.4218   19.9309 C   0  0  0  0  0  0  0  0  0  0  0  0
    7.9402  -13.4967   19.2208 C   0  0  0  0  0  0  0  0  0  0  0  0
    7.2264  -12.4746   19.8079 C   0  0  0  0  0  0  0  0  0  0  0  0
    7.2303  -12.3490   21.1854 C   0  0  0  0  0  0  0  0  0  0  0  0
    7.9494  -13.2520   21.9296 C   0  0  0  0  0  0  0  0  0  0  0  0
    8.6582  -14.2686   21.3160 C   0  0  0  0  0  0  0  0  0  0  0  0
    8.5796  -17.3712   20.6358 C   0  0  0  0  0  0  0  0  0  0  0  0
    8.0719  -18.5346   20.7875 O   0  0  0  0  0  0  0  0  0  0  0  0
    8.9517  -16.6909   21.8163 N   0  0  0  0  0  0  0  0  0  0  0  0
    9.8316  -17.3041   22.8115 C   0  0  1  0  0  0  0  0  0  0  0  0
   11.0563  -17.8886   22.2019 C   0  0  0  0  0  0  0  0  0  0  0  0
   10.8113  -19.3141   21.8313 C   0  0  0  0  0  0  0  0  0  0  0  0
    9.6567  -20.0666   22.0581 C   0  0  0  0  0  0  0  0  0  0  0  0
    9.8380  -21.3077   21.5735 N   0  0  0  0  0  0  0  0  0  0  0  0
   11.0699  -21.3800   21.0424 C   0  0  0  0  0  0  0  0  0  0  0  0
   11.6513  -20.1584   21.2061 N   0  0  0  0  0  0  0  0  0  0  0  0
   10.0120  -16.5249   24.0328 C   0  0  0  0  0  0  0  0  0  0  0  0
   10.3135  -15.3104   23.9709 O   0  0  0  0  0  0  0  0  0  0  0  0
    7.1845  -12.1937   26.9534 C   0  0  0  0  0  0  0  0  0  0  0  0
    6.9823  -13.2122   25.4761 S   0  0  0  0  0  0  0  0  0  0  0  0
    8.3406  -14.3921   25.4010 C   0  0  0  0  0  0  0  0  0  0  0  0
    8.2005  -15.5428   26.3636 C   0  0  0  0  0  0  0  0  0  0  0  0
    9.4852  -16.3334   26.4937 C   0  0  2  0  0  0  0  0  0  0  0  0
    9.8616  -17.0730   25.3402 N   0  0  0  0  0  0  0  0  0  0  0  0
    9.4623  -17.0874   27.7444 C   0  0  0  0  0  0  0  0  0  0  0  0
    9.0538  -18.2710   27.7540 O   0  0  0  0  0  0  0  0  0  0  0  0
    9.8828  -16.5306   28.9400 O   0  0  0  0  0  0  0  0  0  0  0  0
  2  1  1  1
  2  3  1  0
  3  4  1  0
  4  5  2  0
  5  6  1  0
  7  6  2  0
  8  7  1  0
  9  4  1  0
  9  8  2  0
 10 11  2  0
 10  2  1  0
 12 10  1  0
 13 12  1  0
 14 15  1  0
 13 14  1  6
 15 19  1  0
 15 16  2  0
 16 17  1  0
 18 17  1  0
 19 18  2  0
 20 21  2  0
 20 13  1  0
 23 22  1  0
 24 23  1  0
 24 25  1  0
 26 25  1  6
 26 27  1  0
 27 20  1  0
 28 26  1  0
 29 28  2  0
 30 28  1  0
M  END
$$$$
