FHM.pdb
     RDKit          3D

 30 31  0  0  1  0  0  0  0  0999 V2000
    5.6479  -17.9499   25.6344 N   0  0  0  0  0  0  0  0  0  0  0  0
    6.4243  -16.7615   25.2963 C   0  0  1  0  0  0  0  0  0  0  0  0
    6.7085  -15.9023   26.4534 C   0  0  0  0  0  0  0  0  0  0  0  0
    6.6186  -14.4636   26.1419 C   0  0  0  0  0  0  0  0  0  0  0  0
    7.7190  -13.6935   25.8332 C   0  0  0  0  0  0  0  0  0  0  0  0
    7.6543  -12.3452   25.5557 C   0  0  0  0  0  0  0  0  0  0  0  0
    6.4279  -11.7059   25.5808 C   0  0  0  0  0  0  0  0  0  0  0  0
    5.3064  -12.4387   25.8832 C   0  0  0  0  0  0  0  0  0  0  0  0
    5.3983  -13.7907   26.1588 C   0  0  0  0  0  0  0  0  0  0  0  0
    7.5673  -17.0569   24.4507 C   0  0  0  0  0  0  0  0  0  0  0  0
    8.3509  -18.0316   24.7156 O   0  0  0  0  0  0  0  0  0  0  0  0
    7.8761  -16.2997   23.2992 N   0  0  0  0  0  0  0  0  0  0  0  0
    9.0931  -16.5418   22.5240 C   0  0  1  0  0  0  0  0  0  0  0  0
    8.9086  -16.2574   21.0755 C   0  0  0  0  0  0  0  0  0  0  0  0
   10.1098  -16.7060   20.3105 C   0  0  0  0  0  0  0  0  0  0  0  0
   10.6723  -17.9841   20.2809 C   0  0  0  0  0  0  0  0  0  0  0  0
   11.7459  -17.9738   19.4714 N   0  0  0  0  0  0  0  0  0  0  0  0
   11.8940  -16.7327   18.9787 C   0  0  0  0  0  0  0  0  0  0  0  0
   10.8902  -15.9710   19.4980 N   0  0  0  0  0  0  0  0  0  0  0  0
   10.3207  -16.0475   23.1406 C   0  0  0  0  0  0  0  0  0  0  0  0
   10.6135  -14.8307   23.0826 O   0  0  0  0  0  0  0  0  0  0  0  0
    9.9195  -13.8040   27.8493 C   0  0  0  0  0  0  0  0  0  0  0  0
   11.0734  -15.1186   28.2979 S   0  0  0  0  0  0  0  0  0  0  0  0
   11.3349  -16.1696   26.8592 C   0  0  0  0  0  0  0  0  0  0  0  0
   12.0193  -15.4717   25.7126 C   0  0  0  0  0  0  0  0  0  0  0  0
   12.3546  -16.4262   24.5861 C   0  0  2  0  0  0  0  0  0  0  0  0
   11.2429  -16.8875   23.8309 N   0  0  0  0  0  0  0  0  0  0  0  0
   13.2500  -17.4661   25.0863 C   0  0  0  0  0  0  0  0  0  0  0  0
   14.3156  -17.1499   25.6631 O   0  0  0  0  0  0  0  0  0  0  0  0
   12.9582  -18.8116   24.9429 O   0  0  0  0  0  0  0  0  0  0  0  0
  2  1  1  1
  2  3  1  0
  3  4  1  0
  4  5  2  0
  5  6  1  0
  7  6  2  0
  8  7  1  0
  9  4  1  0
  9  8  2  0
 10 11  2  0
 10  2  1  0
 12 10  1  0
 13 12  1  0
 14 15  1  0
 13 14  1  6
 15 19  1  0
 15 16  2  0
 16 17  1  0
 18 17  1  0
 19 18  2  0
 20 21  2  0
 20 13  1  0
 23 22  1  0
 24 23  1  0
 24 25  1  0
 26 25  1  1
 26 27  1  0
 27 20  1  0
 28 26  1  0
 29 28  2  0
 30 28  1  0
M  END
$$$$
