FHM.pdb
     RDKit          3D

 30 31  0  0  1  0  0  0  0  0999 V2000
    5.9405  -16.2050   24.8577 N   0  0  0  0  0  0  0  0  0  0  0  0
    7.1078  -15.4045   24.5027 C   0  0  1  0  0  0  0  0  0  0  0  0
    7.6450  -14.6267   25.6271 C   0  0  0  0  0  0  0  0  0  0  0  0
    6.9302  -13.3553   25.8453 C   0  0  0  0  0  0  0  0  0  0  0  0
    5.8532  -13.2377   26.6970 C   0  0  0  0  0  0  0  0  0  0  0  0
    5.1645  -12.0616   26.8999 C   0  0  0  0  0  0  0  0  0  0  0  0
    5.5570  -10.9206   26.2233 C   0  0  0  0  0  0  0  0  0  0  0  0
    6.6271  -10.9959   25.3656 C   0  0  0  0  0  0  0  0  0  0  0  0
    7.3011  -12.1888   25.1790 C   0  0  0  0  0  0  0  0  0  0  0  0
    8.0933  -16.1518   23.7418 C   0  0  0  0  0  0  0  0  0  0  0  0
    8.1432  -17.4280   23.7987 O   0  0  0  0  0  0  0  0  0  0  0  0
    9.0398  -15.5245   22.9019 N   0  0  0  0  0  0  0  0  0  0  0  0
   10.1282  -16.2753   22.2757 C   0  0  1  0  0  0  0  0  0  0  0  0
   10.3060  -15.9255   20.8407 C   0  0  0  0  0  0  0  0  0  0  0  0
    9.2007  -15.0267   20.3940 C   0  0  0  0  0  0  0  0  0  0  0  0
    9.2323  -13.6362   20.2673 C   0  0  0  0  0  0  0  0  0  0  0  0
    8.0332  -13.2060   19.8369 N   0  0  0  0  0  0  0  0  0  0  0  0
    7.2305  -14.2722   19.6821 C   0  0  0  0  0  0  0  0  0  0  0  0
    7.9549  -15.3746   20.0246 N   0  0  0  0  0  0  0  0  0  0  0  0
   11.3406  -16.3839   23.0818 C   0  0  0  0  0  0  0  0  0  0  0  0
   12.2261  -15.4999   23.0167 O   0  0  0  0  0  0  0  0  0  0  0  0
    9.5831  -14.9078   28.5247 C   0  0  0  0  0  0  0  0  0  0  0  0
   11.3882  -14.8580   28.5279 S   0  0  0  0  0  0  0  0  0  0  0  0
   12.0027  -16.2289   27.5349 C   0  0  0  0  0  0  0  0  0  0  0  0
   11.4643  -16.2499   26.1278 C   0  0  0  0  0  0  0  0  0  0  0  0
   12.1076  -17.3349   25.2902 C   0  0  2  0  0  0  0  0  0  0  0  0
   11.5940  -17.4681   23.9721 N   0  0  0  0  0  0  0  0  0  0  0  0
   12.1717  -18.5694   26.0680 C   0  0  0  0  0  0  0  0  0  0  0  0
   12.8520  -18.6125   27.1184 O   0  0  0  0  0  0  0  0  0  0  0  0
   11.4962  -19.7133   25.6787 O   0  0  0  0  0  0  0  0  0  0  0  0
  2  1  1  1
  2  3  1  0
  3  4  1  0
  4  5  2  0
  5  6  1  0
  7  6  2  0
  8  7  1  0
  9  4  1  0
  9  8  2  0
 10 11  2  0
 10  2  1  0
 12 10  1  0
 13 12  1  0
 14 15  1  0
 13 14  1  6
 15 19  1  0
 15 16  2  0
 16 17  1  0
 18 17  1  0
 19 18  2  0
 20 21  2  0
 20 13  1  0
 23 22  1  0
 24 23  1  0
 24 25  1  0
 26 25  1  1
 26 27  1  0
 27 20  1  0
 28 26  1  0
 29 28  2  0
 30 28  1  0
M  END
$$$$
