FHM.pdb
     RDKit          3D

 30 31  0  0  1  0  0  0  0  0999 V2000
    5.6329  -17.8060   24.1740 N   0  0  0  0  0  0  0  0  0  0  0  0
    6.5658  -16.7021   24.3750 C   0  0  1  0  0  0  0  0  0  0  0  0
    6.6625  -16.2683   25.7751 C   0  0  0  0  0  0  0  0  0  0  0  0
    6.9992  -14.8394   25.9164 C   0  0  0  0  0  0  0  0  0  0  0  0
    8.0960  -14.2646   25.3117 C   0  0  0  0  0  0  0  0  0  0  0  0
    8.4337  -12.9354   25.4465 C   0  0  0  0  0  0  0  0  0  0  0  0
    7.6429  -12.1107   26.2262 C   0  0  0  0  0  0  0  0  0  0  0  0
    6.5395  -12.6451   26.8453 C   0  0  0  0  0  0  0  0  0  0  0  0
    6.2227  -13.9828   26.6946 C   0  0  0  0  0  0  0  0  0  0  0  0
    7.8366  -16.9087   23.7032 C   0  0  0  0  0  0  0  0  0  0  0  0
    8.4769  -18.0085   23.8243 O   0  0  0  0  0  0  0  0  0  0  0  0
    8.4316  -15.9240   22.8841 N   0  0  0  0  0  0  0  0  0  0  0  0
    9.7698  -16.1004   22.3195 C   0  0  1  0  0  0  0  0  0  0  0  0
    9.9686  -15.3105   21.0747 C   0  0  0  0  0  0  0  0  0  0  0  0
    9.2109  -15.9331   19.9489 C   0  0  0  0  0  0  0  0  0  0  0  0
    8.4721  -17.1182   19.9721 C   0  0  0  0  0  0  0  0  0  0  0  0
    7.9433  -17.3312   18.7543 N   0  0  0  0  0  0  0  0  0  0  0  0
    8.3164  -16.3236   17.9477 C   0  0  0  0  0  0  0  0  0  0  0  0
    9.0878  -15.4792   18.6886 N   0  0  0  0  0  0  0  0  0  0  0  0
   10.8550  -16.0743   23.2959 C   0  0  0  0  0  0  0  0  0  0  0  0
   11.7778  -15.2329   23.1952 O   0  0  0  0  0  0  0  0  0  0  0  0
    9.0514  -13.8345   29.0060 C   0  0  0  0  0  0  0  0  0  0  0  0
   10.6117  -13.9111   28.1003 S   0  0  0  0  0  0  0  0  0  0  0  0
   10.6229  -15.4086   27.1001 C   0  0  0  0  0  0  0  0  0  0  0  0
   11.8311  -15.5355   26.2088 C   0  0  0  0  0  0  0  0  0  0  0  0
   11.8580  -16.8595   25.4747 C   0  0  2  0  0  0  0  0  0  0  0  0
   10.9380  -16.9748   24.3980 N   0  0  0  0  0  0  0  0  0  0  0  0
   11.8289  -17.9497   26.4463 C   0  0  0  0  0  0  0  0  0  0  0  0
   10.8954  -18.7839   26.4227 O   0  0  0  0  0  0  0  0  0  0  0  0
   12.8129  -18.0960   27.4089 O   0  0  0  0  0  0  0  0  0  0  0  0
  2  1  1  1
  2  3  1  0
  3  4  1  0
  4  5  2  0
  5  6  1  0
  7  6  2  0
  8  7  1  0
  9  4  1  0
  9  8  2  0
 10 11  2  0
 10  2  1  0
 12 10  1  0
 13 12  1  0
 14 15  1  0
 13 14  1  6
 15 19  1  0
 15 16  2  0
 16 17  1  0
 18 17  1  0
 19 18  2  0
 20 21  2  0
 20 13  1  0
 23 22  1  0
 24 23  1  0
 24 25  1  0
 26 25  1  1
 26 27  1  0
 27 20  1  0
 28 26  1  0
 29 28  2  0
 30 28  1  0
M  END
$$$$
