FHM.pdb
     RDKit          3D

 30 31  0  0  1  0  0  0  0  0999 V2000
    7.4346  -17.7653   18.3055 N   0  0  0  0  0  0  0  0  0  0  0  0
    7.7819  -16.5899   19.0975 C   0  0  1  0  0  0  0  0  0  0  0  0
    6.6914  -15.6107   19.1964 C   0  0  0  0  0  0  0  0  0  0  0  0
    6.9319  -14.5782   20.2216 C   0  0  0  0  0  0  0  0  0  0  0  0
    6.5792  -14.7388   21.5441 C   0  0  0  0  0  0  0  0  0  0  0  0
    6.7821  -13.7781   22.5110 C   0  0  0  0  0  0  0  0  0  0  0  0
    7.3719  -12.5770   22.1602 C   0  0  0  0  0  0  0  0  0  0  0  0
    7.7391  -12.3781   20.8518 C   0  0  0  0  0  0  0  0  0  0  0  0
    7.5239  -13.3581   19.9001 C   0  0  0  0  0  0  0  0  0  0  0  0
    8.4247  -16.9276   20.3552 C   0  0  0  0  0  0  0  0  0  0  0  0
    8.0909  -17.9752   21.0075 O   0  0  0  0  0  0  0  0  0  0  0  0
    9.4453  -16.1340   20.9237 N   0  0  0  0  0  0  0  0  0  0  0  0
   10.3029  -16.6381   21.9965 C   0  0  1  0  0  0  0  0  0  0  0  0
   11.6197  -17.1136   21.4936 C   0  0  0  0  0  0  0  0  0  0  0  0
   12.3642  -17.8052   22.5875 C   0  0  0  0  0  0  0  0  0  0  0  0
   11.8458  -18.3160   23.7797 C   0  0  0  0  0  0  0  0  0  0  0  0
   12.8446  -18.8614   24.4959 N   0  0  0  0  0  0  0  0  0  0  0  0
   13.9884  -18.7193   23.8056 C   0  0  0  0  0  0  0  0  0  0  0  0
   13.6808  -18.0746   22.6451 N   0  0  0  0  0  0  0  0  0  0  0  0
   10.3166  -15.8199   23.2055 C   0  0  0  0  0  0  0  0  0  0  0  0
   10.5282  -14.5871   23.1340 O   0  0  0  0  0  0  0  0  0  0  0  0
    6.9428  -11.6757   25.9242 C   0  0  0  0  0  0  0  0  0  0  0  0
    7.8766  -13.0068   26.7098 S   0  0  0  0  0  0  0  0  0  0  0  0
    7.1831  -14.5834   26.1842 C   0  0  0  0  0  0  0  0  0  0  0  0
    7.9481  -15.2414   25.0653 C   0  0  0  0  0  0  0  0  0  0  0  0
    9.3088  -15.7278   25.5176 C   0  0  2  0  0  0  0  0  0  0  0  0
   10.0964  -16.3487   24.5110 N   0  0  0  0  0  0  0  0  0  0  0  0
    9.1617  -16.4854   26.7577 C   0  0  0  0  0  0  0  0  0  0  0  0
    9.4988  -15.9714   27.8486 O   0  0  0  0  0  0  0  0  0  0  0  0
    8.6548  -17.7735   26.7703 O   0  0  0  0  0  0  0  0  0  0  0  0
  2  1  1  1
  2  3  1  0
  3  4  1  0
  4  5  2  0
  5  6  1  0
  7  6  2  0
  8  7  1  0
  9  4  1  0
  9  8  2  0
 10 11  2  0
 10  2  1  0
 12 10  1  0
 13 12  1  0
 14 15  1  0
 13 14  1  6
 15 19  1  0
 15 16  2  0
 16 17  1  0
 18 17  1  0
 19 18  2  0
 20 21  2  0
 20 13  1  0
 23 22  1  0
 24 23  1  0
 24 25  1  0
 26 25  1  6
 26 27  1  0
 27 20  1  0
 28 26  1  0
 29 28  2  0
 30 28  1  0
M  END
$$$$
