FHM.pdb
     RDKit          3D

 30 31  0  0  1  0  0  0  0  0999 V2000
    6.7592  -18.1931   19.7637 N   0  0  0  0  0  0  0  0  0  0  0  0
    6.9022  -17.0212   20.6213 C   0  0  1  0  0  0  0  0  0  0  0  0
    6.0216  -15.9090   20.2402 C   0  0  0  0  0  0  0  0  0  0  0  0
    6.7409  -14.6325   20.0727 C   0  0  0  0  0  0  0  0  0  0  0  0
    6.8444  -13.6934   21.0760 C   0  0  0  0  0  0  0  0  0  0  0  0
    7.4987  -12.4893   20.9309 C   0  0  0  0  0  0  0  0  0  0  0  0
    8.0941  -12.1828   19.7206 C   0  0  0  0  0  0  0  0  0  0  0  0
    8.0144  -13.0930   18.6952 C   0  0  0  0  0  0  0  0  0  0  0  0
    7.3510  -14.2944   18.8662 C   0  0  0  0  0  0  0  0  0  0  0  0
    6.9006  -17.3538   22.0349 C   0  0  0  0  0  0  0  0  0  0  0  0
    5.8670  -17.1529   22.7599 O   0  0  0  0  0  0  0  0  0  0  0  0
    8.0222  -17.9150   22.6844 N   0  0  0  0  0  0  0  0  0  0  0  0
    8.0517  -18.1120   24.1339 C   0  0  1  0  0  0  0  0  0  0  0  0
    8.3720  -19.5155   24.5089 C   0  0  0  0  0  0  0  0  0  0  0  0
    8.2493  -19.6894   25.9867 C   0  0  0  0  0  0  0  0  0  0  0  0
    7.1043  -19.5308   26.7707 C   0  0  0  0  0  0  0  0  0  0  0  0
    7.4131  -19.7779   28.0559 N   0  0  0  0  0  0  0  0  0  0  0  0
    8.7180  -20.0902   28.1262 C   0  0  0  0  0  0  0  0  0  0  0  0
    9.2146  -20.0327   26.8584 N   0  0  0  0  0  0  0  0  0  0  0  0
    8.7330  -17.0592   24.8815 C   0  0  0  0  0  0  0  0  0  0  0  0
    9.9629  -16.8714   24.7337 O   0  0  0  0  0  0  0  0  0  0  0  0
    8.0893  -10.2433   24.8841 C   0  0  0  0  0  0  0  0  0  0  0  0
    7.3957  -11.4641   26.0197 S   0  0  0  0  0  0  0  0  0  0  0  0
    8.4536  -12.9214   26.0132 C   0  0  0  0  0  0  0  0  0  0  0  0
    8.0020  -14.0047   26.9581 C   0  0  0  0  0  0  0  0  0  0  0  0
    8.7193  -15.3139   26.7046 C   0  0  2  0  0  0  0  0  0  0  0  0
    8.0680  -16.1974   25.8022 N   0  0  0  0  0  0  0  0  0  0  0  0
    9.1172  -15.9002   27.9818 C   0  0  0  0  0  0  0  0  0  0  0  0
    9.7860  -15.2265   28.7982 O   0  0  0  0  0  0  0  0  0  0  0  0
    8.7758  -17.1964   28.3278 O   0  0  0  0  0  0  0  0  0  0  0  0
  2  1  1  6
  2  3  1  0
  3  4  1  0
  4  5  2  0
  5  6  1  0
  7  6  2  0
  8  7  1  0
  9  4  1  0
  9  8  2  0
 10 11  2  0
 10  2  1  0
 12 10  1  0
 13 12  1  0
 14 15  1  0
 13 14  1  6
 15 19  1  0
 15 16  2  0
 16 17  1  0
 18 17  1  0
 19 18  2  0
 20 21  2  0
 20 13  1  0
 23 22  1  0
 24 23  1  0
 24 25  1  0
 26 25  1  1
 26 27  1  0
 27 20  1  0
 28 26  1  0
 29 28  2  0
 30 28  1  0
M  END
$$$$
