FHM.pdb
     RDKit          3D

 30 31  0  0  1  0  0  0  0  0999 V2000
    9.0525  -14.4519   22.8450 N   0  0  0  0  0  0  0  0  0  0  0  0
    8.5284  -15.3148   23.8987 C   0  0  1  0  0  0  0  0  0  0  0  0
    7.0909  -15.1329   24.1398 C   0  0  0  0  0  0  0  0  0  0  0  0
    6.7508  -13.7798   24.6176 C   0  0  0  0  0  0  0  0  0  0  0  0
    6.0566  -13.5499   25.7857 C   0  0  0  0  0  0  0  0  0  0  0  0
    5.7169  -12.2933   26.2379 C   0  0  0  0  0  0  0  0  0  0  0  0
    6.0825  -11.1842   25.4965 C   0  0  0  0  0  0  0  0  0  0  0  0
    6.7766  -11.3707   24.3262 C   0  0  0  0  0  0  0  0  0  0  0  0
    7.1048  -12.6427   23.8938 C   0  0  0  0  0  0  0  0  0  0  0  0
    8.9628  -16.6941   23.7656 C   0  0  0  0  0  0  0  0  0  0  0  0
    8.3762  -17.6357   24.4008 O   0  0  0  0  0  0  0  0  0  0  0  0
   10.0405  -17.0744   22.9358 N   0  0  0  0  0  0  0  0  0  0  0  0
   10.9705  -18.1357   23.3224 C   0  0  1  0  0  0  0  0  0  0  0  0
   11.7805  -18.6255   22.1747 C   0  0  0  0  0  0  0  0  0  0  0  0
   12.5419  -19.8468   22.5720 C   0  0  0  0  0  0  0  0  0  0  0  0
   12.6958  -20.3742   23.8562 C   0  0  0  0  0  0  0  0  0  0  0  0
   13.4546  -21.4823   23.7889 N   0  0  0  0  0  0  0  0  0  0  0  0
   13.7945  -21.6864   22.5052 C   0  0  0  0  0  0  0  0  0  0  0  0
   13.2313  -20.6829   21.7751 N   0  0  0  0  0  0  0  0  0  0  0  0
   11.6802  -17.9016   24.5765 C   0  0  0  0  0  0  0  0  0  0  0  0
   12.6284  -17.0841   24.6249 O   0  0  0  0  0  0  0  0  0  0  0  0
    9.6745  -13.6483   28.3597 C   0  0  0  0  0  0  0  0  0  0  0  0
   11.1170  -14.6840   28.6873 S   0  0  0  0  0  0  0  0  0  0  0  0
   10.9079  -16.2506   27.8242 C   0  0  0  0  0  0  0  0  0  0  0  0
   12.2063  -16.9056   27.4299 C   0  0  0  0  0  0  0  0  0  0  0  0
   12.0140  -18.3551   27.0368 C   0  0  2  0  0  0  0  0  0  0  0  0
   11.3543  -18.5646   25.7958 N   0  0  0  0  0  0  0  0  0  0  0  0
   11.4675  -19.0937   28.1721 C   0  0  0  0  0  0  0  0  0  0  0  0
   12.0735  -19.0950   29.2678 O   0  0  0  0  0  0  0  0  0  0  0  0
   10.2834  -19.8047   28.0785 O   0  0  0  0  0  0  0  0  0  0  0  0
  2  1  1  6
  2  3  1  0
  3  4  1  0
  4  5  2  0
  5  6  1  0
  7  6  2  0
  8  7  1  0
  9  4  1  0
  9  8  2  0
 10 11  2  0
 10  2  1  0
 12 10  1  0
 13 12  1  0
 14 15  1  0
 13 14  1  6
 15 19  1  0
 15 16  2  0
 16 17  1  0
 18 17  1  0
 19 18  2  0
 20 21  2  0
 20 13  1  0
 23 22  1  0
 24 23  1  0
 24 25  1  0
 26 25  1  1
 26 27  1  0
 27 20  1  0
 28 26  1  0
 29 28  2  0
 30 28  1  0
M  END
$$$$
