FHM.pdb
     RDKit          3D

 30 31  0  0  1  0  0  0  0  0999 V2000
    5.4939  -17.8362   25.3604 N   0  0  0  0  0  0  0  0  0  0  0  0
    6.3483  -16.6989   25.0352 C   0  0  1  0  0  0  0  0  0  0  0  0
    6.7461  -15.9136   26.2112 C   0  0  0  0  0  0  0  0  0  0  0  0
    6.4742  -14.4717   26.0633 C   0  0  0  0  0  0  0  0  0  0  0  0
    7.3330  -13.6096   25.4165 C   0  0  0  0  0  0  0  0  0  0  0  0
    7.1018  -12.2577   25.2837 C   0  0  0  0  0  0  0  0  0  0  0  0
    5.9499  -11.7109   25.8200 C   0  0  0  0  0  0  0  0  0  0  0  0
    5.0674  -12.5370   26.4718 C   0  0  0  0  0  0  0  0  0  0  0  0
    5.3231  -13.8907   26.5922 C   0  0  0  0  0  0  0  0  0  0  0  0
    7.4295  -17.0467   24.1303 C   0  0  0  0  0  0  0  0  0  0  0  0
    8.2971  -17.9309   24.4463 O   0  0  0  0  0  0  0  0  0  0  0  0
    7.5838  -16.4420   22.8633 N   0  0  0  0  0  0  0  0  0  0  0  0
    8.8692  -16.4398   22.1645 C   0  0  1  0  0  0  0  0  0  0  0  0
    8.7497  -15.9661   20.7593 C   0  0  0  0  0  0  0  0  0  0  0  0
   10.0141  -16.2478   20.0168 C   0  0  0  0  0  0  0  0  0  0  0  0
   10.8515  -17.3575   20.1513 C   0  0  0  0  0  0  0  0  0  0  0  0
   11.8871  -17.2328   19.3027 N   0  0  0  0  0  0  0  0  0  0  0  0
   11.7451  -16.0807   18.6264 C   0  0  0  0  0  0  0  0  0  0  0  0
   10.5997  -15.4913   19.0712 N   0  0  0  0  0  0  0  0  0  0  0  0
    9.9885  -15.9169   22.9424 C   0  0  0  0  0  0  0  0  0  0  0  0
   10.0272  -14.7060   23.2620 O   0  0  0  0  0  0  0  0  0  0  0  0
   11.1997  -12.9177   27.7185 C   0  0  0  0  0  0  0  0  0  0  0  0
   11.6072  -14.6195   28.1642 S   0  0  0  0  0  0  0  0  0  0  0  0
   12.3234  -15.4344   26.7269 C   0  0  0  0  0  0  0  0  0  0  0  0
   11.3128  -15.8099   25.6743 C   0  0  0  0  0  0  0  0  0  0  0  0
   11.9695  -16.3815   24.4355 C   0  0  2  0  0  0  0  0  0  0  0  0
   11.0810  -16.7214   23.3801 N   0  0  0  0  0  0  0  0  0  0  0  0
   12.9094  -17.4283   24.8281 C   0  0  0  0  0  0  0  0  0  0  0  0
   13.8832  -17.1507   25.5646 O   0  0  0  0  0  0  0  0  0  0  0  0
   12.7599  -18.7387   24.4076 O   0  0  0  0  0  0  0  0  0  0  0  0
  2  1  1  1
  2  3  1  0
  3  4  1  0
  4  5  2  0
  5  6  1  0
  7  6  2  0
  8  7  1  0
  9  4  1  0
  9  8  2  0
 10 11  2  0
 10  2  1  0
 12 10  1  0
 13 12  1  0
 14 15  1  0
 13 14  1  6
 15 19  1  0
 15 16  2  0
 16 17  1  0
 18 17  1  0
 19 18  2  0
 20 21  2  0
 20 13  1  0
 23 22  1  0
 24 23  1  0
 24 25  1  0
 26 25  1  1
 26 27  1  0
 27 20  1  0
 28 26  1  0
 29 28  2  0
 30 28  1  0
M  END
$$$$
