FHM.pdb
     RDKit          3D

 30 31  0  0  1  0  0  0  0  0999 V2000
    6.1024  -18.0300   19.7578 N   0  0  0  0  0  0  0  0  0  0  0  0
    6.8448  -16.8228   20.1052 C   0  0  1  0  0  0  0  0  0  0  0  0
    6.0030  -15.6211   20.1770 C   0  0  0  0  0  0  0  0  0  0  0  0
    6.7412  -14.4227   20.6170 C   0  0  0  0  0  0  0  0  0  0  0  0
    6.7604  -13.9930   21.9263 C   0  0  0  0  0  0  0  0  0  0  0  0
    7.4316  -12.8670   22.3511 C   0  0  0  0  0  0  0  0  0  0  0  0
    8.1337  -12.1088   21.4315 C   0  0  0  0  0  0  0  0  0  0  0  0
    8.1403  -12.5041   20.1162 C   0  0  0  0  0  0  0  0  0  0  0  0
    7.4579  -13.6381   19.7153 C   0  0  0  0  0  0  0  0  0  0  0  0
    7.7414  -17.0169   21.2309 C   0  0  0  0  0  0  0  0  0  0  0  0
    7.3181  -17.4969   22.3376 O   0  0  0  0  0  0  0  0  0  0  0  0
    9.1156  -16.6963   21.1716 N   0  0  0  0  0  0  0  0  0  0  0  0
   10.0320  -17.0389   22.2594 C   0  0  1  0  0  0  0  0  0  0  0  0
   11.3464  -17.5260   21.7612 C   0  0  0  0  0  0  0  0  0  0  0  0
   12.1569  -18.0584   22.8965 C   0  0  0  0  0  0  0  0  0  0  0  0
   11.7840  -18.1511   24.2393 C   0  0  0  0  0  0  0  0  0  0  0  0
   12.7978  -18.6865   24.9417 N   0  0  0  0  0  0  0  0  0  0  0  0
   13.8109  -18.9419   24.0970 C   0  0  0  0  0  0  0  0  0  0  0  0
   13.4065  -18.5547   22.8546 N   0  0  0  0  0  0  0  0  0  0  0  0
   10.0596  -16.0819   23.3616 C   0  0  0  0  0  0  0  0  0  0  0  0
   10.0361  -14.8504   23.1323 O   0  0  0  0  0  0  0  0  0  0  0  0
    5.7833  -12.4265   26.0749 C   0  0  0  0  0  0  0  0  0  0  0  0
    7.5395  -12.5298   26.4823 S   0  0  0  0  0  0  0  0  0  0  0  0
    7.9341  -14.2374   26.8960 C   0  0  0  0  0  0  0  0  0  0  0  0
    8.3000  -15.0830   25.7037 C   0  0  0  0  0  0  0  0  0  0  0  0
    9.6955  -15.6583   25.8229 C   0  0  2  0  0  0  0  0  0  0  0  0
   10.1125  -16.4687   24.7328 N   0  0  0  0  0  0  0  0  0  0  0  0
    9.8602  -16.2520   27.1471 C   0  0  0  0  0  0  0  0  0  0  0  0
    9.7381  -15.5415   28.1709 O   0  0  0  0  0  0  0  0  0  0  0  0
   10.1519  -17.5949   27.3137 O   0  0  0  0  0  0  0  0  0  0  0  0
  2  1  1  1
  2  3  1  0
  3  4  1  0
  4  5  2  0
  5  6  1  0
  7  6  2  0
  8  7  1  0
  9  4  1  0
  9  8  2  0
 10 11  2  0
 10  2  1  0
 12 10  1  0
 13 12  1  0
 14 15  1  0
 13 14  1  6
 15 19  1  0
 15 16  2  0
 16 17  1  0
 18 17  1  0
 19 18  2  0
 20 21  2  0
 20 13  1  0
 23 22  1  0
 24 23  1  0
 24 25  1  0
 26 25  1  6
 26 27  1  0
 27 20  1  0
 28 26  1  0
 29 28  2  0
 30 28  1  0
M  END
$$$$
