MQL.pdb
     RDKit          3D

 26 25  0  0  1  0  0  0  0  0999 V2000
   31.9941  -21.1693  -18.9346 C   0  0  0  0  0  0  0  0  0  0  0  0
   32.1900  -22.9738  -18.9125 S   0  0  0  0  0  0  0  0  0  0  0  0
   32.0388  -23.6107  -17.2291 C   0  0  0  0  0  0  0  0  0  0  0  0
   32.1428  -25.1286  -17.2300 C   0  0  0  0  0  0  0  0  0  0  0  0
   30.7412  -25.7147  -17.1743 C   0  0  2  0  0  0  0  0  0  0  0  0
   30.2564  -25.5513  -15.8216 N   0  0  0  0  0  0  0  0  0  0  0  0
   30.8260  -27.1494  -17.5452 C   0  0  0  0  0  0  0  0  0  0  0  0
   31.9629  -27.7066  -17.4315 O   0  0  0  0  0  0  0  0  0  0  0  0
   26.3763  -31.1379  -16.8894 N   0  0  0  0  0  0  0  0  0  0  0  0
   27.5057  -31.1236  -16.0509 C   0  0  0  0  0  0  0  0  0  0  0  0
   27.5073  -31.6400  -14.8948 O   0  0  0  0  0  0  0  0  0  0  0  0
   28.7444  -30.4751  -16.5463 C   0  0  0  0  0  0  0  0  0  0  0  0
   28.5255  -29.9662  -17.9332 C   0  0  0  0  0  0  0  0  0  0  0  0
   29.7922  -29.2821  -18.3969 C   0  0  2  0  0  0  0  0  0  0  0  0
   29.7157  -27.9007  -18.0092 N   0  0  0  0  0  0  0  0  0  0  0  0
   29.9134  -29.4735  -19.8497 C   0  0  0  0  0  0  0  0  0  0  0  0
   29.3669  -28.6614  -20.6246 O   0  0  0  0  0  0  0  0  0  0  0  0
   34.0583  -31.5298  -23.5466 C   0  0  0  0  0  0  0  0  0  0  0  0
   32.5819  -31.1399  -23.5040 C   0  0  2  0  0  0  0  0  0  0  0  0
   32.3352  -30.0252  -24.4496 C   0  0  0  0  0  0  0  0  0  0  0  0
   32.2523  -30.8451  -22.0749 C   0  0  0  0  0  0  0  0  0  0  0  0
   30.7815  -30.8541  -21.7695 C   0  0  2  0  0  0  0  0  0  0  0  0
   30.6372  -30.5599  -20.3565 N   0  0  0  0  0  0  0  0  0  0  0  0
   30.0886  -32.0815  -22.1458 C   0  0  0  0  0  0  0  0  0  0  0  0
   29.7595  -33.0026  -21.3908 O   0  0  0  0  0  0  0  0  0  0  0  0
   29.7514  -32.2528  -23.5044 O   0  0  0  0  0  0  0  0  0  0  0  0
  2  1  1  0
  3  2  1  0
  4  3  1  0
  4  5  1  0
  5  6  1  1
  7  5  1  0
  7  8  2  0
  9 10  1  0
 10 12  1  0
 11 10  2  0
 12 13  1  0
 14 13  1  6
 14 15  1  0
 15  7  1  0
 16 14  1  0
 17 16  2  0
 19 18  1  1
 19 21  1  0
 20 19  1  0
 22 23  1  0
 22 21  1  1
 23 16  1  0
 24 22  1  0
 25 24  2  0
 26 24  1  0
M  END
$$$$
