MQL.pdb
     RDKit          3D

 26 25  0  0  1  0  0  0  0  0999 V2000
   31.4530  -23.9791  -14.5143 C   0  0  0  0  0  0  0  0  0  0  0  0
   31.3872  -24.2801  -16.3031 S   0  0  0  0  0  0  0  0  0  0  0  0
   29.9342  -23.4902  -17.0293 C   0  0  0  0  0  0  0  0  0  0  0  0
   29.3744  -22.4432  -16.0778 C   0  0  0  0  0  0  0  0  0  0  0  0
   28.0943  -21.8776  -16.6715 C   0  0  2  0  0  0  0  0  0  0  0  0
   28.4690  -21.0302  -17.7820 N   0  0  0  0  0  0  0  0  0  0  0  0
   27.3990  -21.1017  -15.6142 C   0  0  0  0  0  0  0  0  0  0  0  0
   28.0028  -20.0797  -15.1595 O   0  0  0  0  0  0  0  0  0  0  0  0
   21.3170  -20.9346  -14.4639 N   0  0  0  0  0  0  0  0  0  0  0  0
   21.8056  -20.1143  -13.4307 C   0  0  0  0  0  0  0  0  0  0  0  0
   21.0456  -19.4586  -12.6589 O   0  0  0  0  0  0  0  0  0  0  0  0
   23.2736  -20.0165  -13.2416 C   0  0  0  0  0  0  0  0  0  0  0  0
   23.9714  -20.7793  -14.3194 C   0  0  0  0  0  0  0  0  0  0  0  0
   25.4592  -20.7338  -14.0508 C   0  0  2  0  0  0  0  0  0  0  0  0
   26.1208  -21.4495  -15.1065 N   0  0  0  0  0  0  0  0  0  0  0  0
   25.7039  -21.3041  -12.7179 C   0  0  0  0  0  0  0  0  0  0  0  0
   25.5044  -22.5212  -12.5238 O   0  0  0  0  0  0  0  0  0  0  0  0
   27.3697  -18.7780   -7.4119 C   0  0  0  0  0  0  0  0  0  0  0  0
   27.2260  -20.1320   -8.1047 C   0  0  2  0  0  0  0  0  0  0  0  0
   28.3897  -20.9871   -7.7697 C   0  0  0  0  0  0  0  0  0  0  0  0
   27.0402  -19.8554   -9.5631 C   0  0  0  0  0  0  0  0  0  0  0  0
   26.2512  -20.9058  -10.2916 C   0  0  2  0  0  0  0  0  0  0  0  0
   26.1574  -20.4851  -11.6766 N   0  0  0  0  0  0  0  0  0  0  0  0
   24.9410  -21.1914   -9.7172 C   0  0  0  0  0  0  0  0  0  0  0  0
   23.8997  -20.5530   -9.9042 O   0  0  0  0  0  0  0  0  0  0  0  0
   24.8311  -22.3049   -8.8589 O   0  0  0  0  0  0  0  0  0  0  0  0
  2  1  1  0
  3  2  1  0
  4  3  1  0
  4  5  1  0
  5  6  1  6
  7  5  1  0
  7  8  2  0
  9 10  1  0
 10 12  1  0
 11 10  2  0
 12 13  1  0
 14 13  1  6
 14 15  1  0
 15  7  1  0
 16 14  1  0
 17 16  2  0
 19 18  1  1
 19 21  1  0
 20 19  1  0
 22 23  1  0
 22 21  1  1
 23 16  1  0
 24 22  1  0
 25 24  2  0
 26 24  1  0
M  END
$$$$
