MQL.pdb
     RDKit          3D

 26 25  0  0  1  0  0  0  0  0999 V2000
   27.1559  -18.2155   -7.4040 C   0  0  0  0  0  0  0  0  0  0  0  0
   27.3871  -19.9949   -7.1300 S   0  0  0  0  0  0  0  0  0  0  0  0
   27.7221  -20.8416   -8.6899 C   0  0  0  0  0  0  0  0  0  0  0  0
   26.7846  -20.3341   -9.7754 C   0  0  0  0  0  0  0  0  0  0  0  0
   26.2568  -21.5237  -10.5611 C   0  0  2  0  0  0  0  0  0  0  0  0
   27.3778  -22.1149  -11.2577 N   0  0  0  0  0  0  0  0  0  0  0  0
   25.2320  -21.0292  -11.5142 C   0  0  0  0  0  0  0  0  0  0  0  0
   25.6356  -20.7032  -12.6747 O   0  0  0  0  0  0  0  0  0  0  0  0
   19.2851  -22.2859  -10.2231 N   0  0  0  0  0  0  0  0  0  0  0  0
   19.2162  -22.1255  -11.6189 C   0  0  0  0  0  0  0  0  0  0  0  0
   18.1580  -22.3363  -12.2814 O   0  0  0  0  0  0  0  0  0  0  0  0
   20.4372  -21.6912  -12.3405 C   0  0  0  0  0  0  0  0  0  0  0  0
   21.5419  -21.4557  -11.3634 C   0  0  0  0  0  0  0  0  0  0  0  0
   22.7917  -21.0914  -12.1334 C   0  0  2  0  0  0  0  0  0  0  0  0
   23.8570  -20.9099  -11.1864 N   0  0  0  0  0  0  0  0  0  0  0  0
   22.5080  -19.8878  -12.9288 C   0  0  0  0  0  0  0  0  0  0  0  0
   22.2145  -18.8222  -12.3482 O   0  0  0  0  0  0  0  0  0  0  0  0
   24.5220  -18.1377  -18.1200 C   0  0  0  0  0  0  0  0  0  0  0  0
   23.8579  -17.8421  -16.7763 C   0  0  2  0  0  0  0  0  0  0  0  0
   24.8993  -17.5690  -15.7572 C   0  0  0  0  0  0  0  0  0  0  0  0
   22.9601  -18.9994  -16.4724 C   0  0  0  0  0  0  0  0  0  0  0  0
   22.1756  -18.8503  -15.2000 C   0  0  2  0  0  0  0  0  0  0  0  0
   22.5675  -19.9403  -14.3269 N   0  0  0  0  0  0  0  0  0  0  0  0
   20.7292  -18.7870  -15.3798 C   0  0  0  0  0  0  0  0  0  0  0  0
   19.9572  -19.7462  -15.4828 O   0  0  0  0  0  0  0  0  0  0  0  0
   20.1329  -17.5108  -15.4450 O   0  0  0  0  0  0  0  0  0  0  0  0
  2  1  1  0
  3  2  1  0
  4  3  1  0
  4  5  1  0
  5  6  1  6
  7  5  1  0
  7  8  2  0
  9 10  1  0
 10 12  1  0
 11 10  2  0
 12 13  1  0
 14 13  1  1
 14 15  1  0
 15  7  1  0
 16 14  1  0
 17 16  2  0
 19 18  1  6
 19 21  1  0
 20 19  1  0
 22 23  1  0
 22 21  1  6
 23 16  1  0
 24 22  1  0
 25 24  2  0
 26 24  1  0
M  END
$$$$
