MQL.pdb
     RDKit          3D

 26 25  0  0  1  0  0  0  0  0999 V2000
   20.0087  -17.4616  -15.6770 C   0  0  0  0  0  0  0  0  0  0  0  0
   21.6427  -17.9413  -15.0488 S   0  0  0  0  0  0  0  0  0  0  0  0
   22.8371  -18.0530  -16.3991 C   0  0  0  0  0  0  0  0  0  0  0  0
   23.3496  -16.6676  -16.7635 C   0  0  0  0  0  0  0  0  0  0  0  0
   22.2071  -15.8665  -17.3668 C   0  0  2  0  0  0  0  0  0  0  0  0
   21.8060  -16.5338  -18.5856 N   0  0  0  0  0  0  0  0  0  0  0  0
   22.7011  -14.4944  -17.6430 C   0  0  0  0  0  0  0  0  0  0  0  0
   23.9308  -14.2686  -17.4129 O   0  0  0  0  0  0  0  0  0  0  0  0
   19.8221  -10.3162  -21.2475 N   0  0  0  0  0  0  0  0  0  0  0  0
   21.0339   -9.6565  -20.9732 C   0  0  0  0  0  0  0  0  0  0  0  0
   21.3677   -8.5737  -21.5380 O   0  0  0  0  0  0  0  0  0  0  0  0
   21.9562  -10.2589  -19.9797 C   0  0  0  0  0  0  0  0  0  0  0  0
   21.3729  -11.5311  -19.4586 C   0  0  0  0  0  0  0  0  0  0  0  0
   22.3583  -12.1480  -18.4912 C   0  0  2  0  0  0  0  0  0  0  0  0
   21.8742  -13.4544  -18.1402 N   0  0  0  0  0  0  0  0  0  0  0  0
   22.4949  -11.2478  -17.3367 C   0  0  0  0  0  0  0  0  0  0  0  0
   21.5900  -11.2081  -16.4775 O   0  0  0  0  0  0  0  0  0  0  0  0
   26.0133  -11.0968  -14.8212 C   0  0  0  0  0  0  0  0  0  0  0  0
   26.2631  -10.3372  -16.1228 C   0  0  2  0  0  0  0  0  0  0  0  0
   27.7007   -9.9910  -16.2277 C   0  0  0  0  0  0  0  0  0  0  0  0
   25.3268   -9.1704  -16.1305 C   0  0  0  0  0  0  0  0  0  0  0  0
   23.8737   -9.5490  -16.0884 C   0  0  2  0  0  0  0  0  0  0  0  0
   23.6330  -10.4425  -17.2054 N   0  0  0  0  0  0  0  0  0  0  0  0
   22.9498   -8.4199  -16.0827 C   0  0  0  0  0  0  0  0  0  0  0  0
   22.3444   -7.9587  -17.0561 O   0  0  0  0  0  0  0  0  0  0  0  0
   22.7102   -7.7763  -14.8510 O   0  0  0  0  0  0  0  0  0  0  0  0
  2  1  1  0
  3  2  1  0
  4  3  1  0
  4  5  1  0
  5  6  1  6
  7  5  1  0
  7  8  2  0
  9 10  1  0
 10 12  1  0
 11 10  2  0
 12 13  1  0
 14 13  1  6
 14 15  1  0
 15  7  1  0
 16 14  1  0
 17 16  2  0
 19 18  1  1
 19 21  1  0
 20 19  1  0
 22 23  1  0
 22 21  1  6
 23 16  1  0
 24 22  1  0
 25 24  2  0
 26 24  1  0
M  END
$$$$
