MQL.pdb
     RDKit          3D

 26 25  0  0  1  0  0  0  0  0999 V2000
   25.2292  -18.7920  -19.1989 C   0  0  0  0  0  0  0  0  0  0  0  0
   26.9786  -18.4169  -18.8931 S   0  0  0  0  0  0  0  0  0  0  0  0
   27.6360  -19.4689  -17.5802 C   0  0  0  0  0  0  0  0  0  0  0  0
   26.4998  -20.1666  -16.8473 C   0  0  0  0  0  0  0  0  0  0  0  0
   27.0726  -20.9076  -15.6498 C   0  0  2  0  0  0  0  0  0  0  0  0
   27.9560  -21.9340  -16.1571 N   0  0  0  0  0  0  0  0  0  0  0  0
   25.9430  -21.4985  -14.8895 C   0  0  0  0  0  0  0  0  0  0  0  0
   25.5165  -22.6305  -15.2800 O   0  0  0  0  0  0  0  0  0  0  0  0
   24.5972  -20.4855   -9.0034 N   0  0  0  0  0  0  0  0  0  0  0  0
   25.7145  -21.0788   -9.6188 C   0  0  0  0  0  0  0  0  0  0  0  0
   26.7981  -21.3015   -9.0029 O   0  0  0  0  0  0  0  0  0  0  0  0
   25.6140  -21.4575  -11.0494 C   0  0  0  0  0  0  0  0  0  0  0  0
   24.3285  -20.9496  -11.6151 C   0  0  0  0  0  0  0  0  0  0  0  0
   24.2232  -21.4103  -13.0518 C   0  0  2  0  0  0  0  0  0  0  0  0
   25.3385  -20.8637  -13.7741 N   0  0  0  0  0  0  0  0  0  0  0  0
   22.9201  -20.9794  -13.5790 C   0  0  0  0  0  0  0  0  0  0  0  0
   22.7080  -19.7651  -13.7770 O   0  0  0  0  0  0  0  0  0  0  0  0
   18.2117  -24.0130  -16.0434 C   0  0  0  0  0  0  0  0  0  0  0  0
   18.7169  -22.6251  -15.6535 C   0  0  2  0  0  0  0  0  0  0  0  0
   18.6736  -21.7309  -16.8351 C   0  0  0  0  0  0  0  0  0  0  0  0
   20.0719  -22.8112  -15.0474 C   0  0  0  0  0  0  0  0  0  0  0  0
   20.5984  -21.5974  -14.3361 C   0  0  2  0  0  0  0  0  0  0  0  0
   21.9269  -21.9269  -13.8559 N   0  0  0  0  0  0  0  0  0  0  0  0
   19.7398  -21.0966  -13.2683 C   0  0  0  0  0  0  0  0  0  0  0  0
   19.7046  -21.5004  -12.1010 O   0  0  0  0  0  0  0  0  0  0  0  0
   18.8531  -20.0452  -13.5799 O   0  0  0  0  0  0  0  0  0  0  0  0
  2  1  1  0
  3  2  1  0
  4  3  1  0
  4  5  1  0
  5  6  1  6
  7  5  1  0
  7  8  2  0
  9 10  1  0
 10 12  1  0
 11 10  2  0
 12 13  1  0
 14 13  1  1
 14 15  1  0
 15  7  1  0
 16 14  1  0
 17 16  2  0
 19 18  1  6
 19 21  1  0
 20 19  1  0
 22 23  1  0
 22 21  1  1
 23 16  1  0
 24 22  1  0
 25 24  2  0
 26 24  1  0
M  END
$$$$
