MQL.pdb
     RDKit          3D

 26 25  0  0  1  0  0  0  0  0999 V2000
   29.4071  -17.9590  -17.4417 C   0  0  0  0  0  0  0  0  0  0  0  0
   29.4574  -19.6871  -16.8888 S   0  0  0  0  0  0  0  0  0  0  0  0
   27.7865  -20.3220  -16.6289 C   0  0  0  0  0  0  0  0  0  0  0  0
   26.9042  -19.2445  -16.0160 C   0  0  0  0  0  0  0  0  0  0  0  0
   25.5393  -19.8426  -15.7156 C   0  0  2  0  0  0  0  0  0  0  0  0
   24.5836  -19.2044  -16.5935 N   0  0  0  0  0  0  0  0  0  0  0  0
   25.2220  -19.5752  -14.2905 C   0  0  0  0  0  0  0  0  0  0  0  0
   25.1845  -18.3573  -13.9283 O   0  0  0  0  0  0  0  0  0  0  0  0
   20.6192  -22.2121  -12.4963 N   0  0  0  0  0  0  0  0  0  0  0  0
   20.8520  -20.8326  -12.3491 C   0  0  0  0  0  0  0  0  0  0  0  0
   19.9529  -20.0215  -11.9793 O   0  0  0  0  0  0  0  0  0  0  0  0
   22.2097  -20.3110  -12.6408 C   0  0  0  0  0  0  0  0  0  0  0  0
   23.2119  -21.0082  -11.7806 C   0  0  0  0  0  0  0  0  0  0  0  0
   24.5589  -20.3527  -11.9886 C   0  0  2  0  0  0  0  0  0  0  0  0
   24.9664  -20.6005  -13.3440 N   0  0  0  0  0  0  0  0  0  0  0  0
   25.4934  -20.8944  -10.9911 C   0  0  0  0  0  0  0  0  0  0  0  0
   25.8381  -22.0925  -11.0584 O   0  0  0  0  0  0  0  0  0  0  0  0
   27.7407  -18.3630   -5.8807 C   0  0  0  0  0  0  0  0  0  0  0  0
   27.5254  -19.7047   -6.5787 C   0  0  2  0  0  0  0  0  0  0  0  0
   28.7553  -20.5248   -6.4685 C   0  0  0  0  0  0  0  0  0  0  0  0
   27.0878  -19.4009   -7.9766 C   0  0  0  0  0  0  0  0  0  0  0  0
   26.4055  -20.5462   -8.6690 C   0  0  2  0  0  0  0  0  0  0  0  0
   25.9910  -20.0695   -9.9748 N   0  0  0  0  0  0  0  0  0  0  0  0
   25.2973  -21.1349   -7.9250 C   0  0  0  0  0  0  0  0  0  0  0  0
   24.1221  -20.7533   -7.9292 O   0  0  0  0  0  0  0  0  0  0  0  0
   25.5751  -22.2539   -7.1129 O   0  0  0  0  0  0  0  0  0  0  0  0
  2  1  1  0
  3  2  1  0
  4  3  1  0
  4  5  1  0
  5  6  1  6
  7  5  1  0
  7  8  2  0
  9 10  1  0
 10 12  1  0
 11 10  2  0
 12 13  1  0
 14 13  1  1
 14 15  1  0
 15  7  1  0
 16 14  1  0
 17 16  2  0
 19 18  1  1
 19 21  1  0
 20 19  1  0
 22 23  1  0
 22 21  1  1
 23 16  1  0
 24 22  1  0
 25 24  2  0
 26 24  1  0
M  END
$$$$
