MQL.pdb
     RDKit          3D

 26 25  0  0  1  0  0  0  0  0999 V2000
   18.3717  -14.1418  -16.6272 C   0  0  0  0  0  0  0  0  0  0  0  0
   18.4381  -12.3537  -16.3226 S   0  0  0  0  0  0  0  0  0  0  0  0
   17.0764  -11.8383  -15.2536 C   0  0  0  0  0  0  0  0  0  0  0  0
   17.1913  -10.3551  -14.9342 C   0  0  0  0  0  0  0  0  0  0  0  0
   16.0675   -9.9709  -13.9853 C   0  0  2  0  0  0  0  0  0  0  0  0
   14.8458   -9.9214  -14.7577 N   0  0  0  0  0  0  0  0  0  0  0  0
   16.3890   -8.6441  -13.4026 C   0  0  0  0  0  0  0  0  0  0  0  0
   16.2238   -7.6312  -14.1527 O   0  0  0  0  0  0  0  0  0  0  0  0
   15.3509   -6.7454   -7.7809 N   0  0  0  0  0  0  0  0  0  0  0  0
   14.4933   -6.9742   -8.8723 C   0  0  0  0  0  0  0  0  0  0  0  0
   13.2336   -7.0252   -8.7549 O   0  0  0  0  0  0  0  0  0  0  0  0
   15.0948   -7.1630  -10.2150 C   0  0  0  0  0  0  0  0  0  0  0  0
   16.5841   -7.1573  -10.1043 C   0  0  0  0  0  0  0  0  0  0  0  0
   17.1674   -7.1901  -11.4993 C   0  0  2  0  0  0  0  0  0  0  0  0
   16.8612   -8.4699  -12.0763 N   0  0  0  0  0  0  0  0  0  0  0  0
   18.6104   -6.9256  -11.4012 C   0  0  0  0  0  0  0  0  0  0  0  0
   19.2963   -7.5574  -10.5711 O   0  0  0  0  0  0  0  0  0  0  0  0
   21.5935   -8.8589  -14.1197 C   0  0  0  0  0  0  0  0  0  0  0  0
   20.9097   -7.5014  -13.9670 C   0  0  2  0  0  0  0  0  0  0  0  0
   21.2312   -6.6490  -15.1365 C   0  0  0  0  0  0  0  0  0  0  0  0
   21.3334   -6.9489  -12.6429 C   0  0  0  0  0  0  0  0  0  0  0  0
   20.6283   -5.6812  -12.2525 C   0  0  2  0  0  0  0  0  0  0  0  0
   19.2072   -5.9715  -12.2345 N   0  0  0  0  0  0  0  0  0  0  0  0
   20.9401   -4.5279  -13.0898 C   0  0  0  0  0  0  0  0  0  0  0  0
   22.0280   -3.9474  -13.1684 O   0  0  0  0  0  0  0  0  0  0  0  0
   19.9085   -4.0082  -13.8987 O   0  0  0  0  0  0  0  0  0  0  0  0
  2  1  1  0
  3  2  1  0
  4  3  1  0
  4  5  1  0
  5  6  1  6
  7  5  1  0
  7  8  2  0
  9 10  1  0
 10 12  1  0
 11 10  2  0
 12 13  1  0
 14 13  1  1
 14 15  1  0
 15  7  1  0
 16 14  1  0
 17 16  2  0
 19 18  1  6
 19 21  1  0
 20 19  1  0
 22 23  1  0
 22 21  1  6
 23 16  1  0
 24 22  1  0
 25 24  2  0
 26 24  1  0
M  END
$$$$
