MQL.pdb
     RDKit          3D

 26 25  0  0  1  0  0  0  0  0999 V2000
   20.2209  -15.9418  -15.3376 C   0  0  0  0  0  0  0  0  0  0  0  0
   18.4457  -15.6951  -15.0496 S   0  0  0  0  0  0  0  0  0  0  0  0
   17.7192  -14.6961  -16.3673 C   0  0  0  0  0  0  0  0  0  0  0  0
   18.5990  -13.4893  -16.6580 C   0  0  0  0  0  0  0  0  0  0  0  0
   17.9810  -12.6971  -17.7989 C   0  0  2  0  0  0  0  0  0  0  0  0
   18.1267  -13.4852  -19.0027 N   0  0  0  0  0  0  0  0  0  0  0  0
   18.7061  -11.4067  -17.9103 C   0  0  0  0  0  0  0  0  0  0  0  0
   19.8091  -11.4194  -18.5420 O   0  0  0  0  0  0  0  0  0  0  0  0
   14.4512   -7.3533  -16.6862 N   0  0  0  0  0  0  0  0  0  0  0  0
   15.5673   -7.7647  -17.4372 C   0  0  0  0  0  0  0  0  0  0  0  0
   15.4872   -8.1023  -18.6548 O   0  0  0  0  0  0  0  0  0  0  0  0
   16.8916   -7.8029  -16.7699 C   0  0  0  0  0  0  0  0  0  0  0  0
   17.9719   -7.8645  -17.7993 C   0  0  0  0  0  0  0  0  0  0  0  0
   18.9469   -8.9513  -17.4048 C   0  0  2  0  0  0  0  0  0  0  0  0
   18.2267  -10.1935  -17.3529 N   0  0  0  0  0  0  0  0  0  0  0  0
   19.5574   -8.5778  -16.1204 C   0  0  0  0  0  0  0  0  0  0  0  0
   19.0285   -8.9568  -15.0549 O   0  0  0  0  0  0  0  0  0  0  0  0
   22.1813   -9.9296  -13.2771 C   0  0  0  0  0  0  0  0  0  0  0  0
   22.6020   -9.8399  -14.7429 C   0  0  2  0  0  0  0  0  0  0  0  0
   23.8018  -10.6810  -14.9675 C   0  0  0  0  0  0  0  0  0  0  0  0
   22.7771   -8.3875  -15.0557 C   0  0  0  0  0  0  0  0  0  0  0  0
   21.5239   -7.5723  -14.9091 C   0  0  2  0  0  0  0  0  0  0  0  0
   20.7235   -7.8029  -16.0967 N   0  0  0  0  0  0  0  0  0  0  0  0
   21.7463   -6.1510  -14.6672 C   0  0  0  0  0  0  0  0  0  0  0  0
   22.2037   -5.6416  -13.6386 O   0  0  0  0  0  0  0  0  0  0  0  0
   21.4116   -5.2509  -15.7000 O   0  0  0  0  0  0  0  0  0  0  0  0
  2  1  1  0
  3  2  1  0
  4  3  1  0
  4  5  1  0
  5  6  1  6
  7  5  1  0
  7  8  2  0
  9 10  1  0
 10 12  1  0
 11 10  2  0
 12 13  1  0
 14 13  1  1
 14 15  1  0
 15  7  1  0
 16 14  1  0
 17 16  2  0
 19 18  1  1
 19 21  1  0
 20 19  1  0
 22 23  1  0
 22 21  1  6
 23 16  1  0
 24 22  1  0
 25 24  2  0
 26 24  1  0
M  END
$$$$
