MQL.pdb
     RDKit          3D

 26 25  0  0  1  0  0  0  0  0999 V2000
   23.1260  -17.7428  -15.6666 C   0  0  0  0  0  0  0  0  0  0  0  0
   23.3827  -18.7295  -17.1684 S   0  0  0  0  0  0  0  0  0  0  0  0
   24.8469  -19.7740  -17.0020 C   0  0  0  0  0  0  0  0  0  0  0  0
   25.0324  -20.1919  -15.5509 C   0  0  0  0  0  0  0  0  0  0  0  0
   26.3572  -20.9258  -15.4189 C   0  0  2  0  0  0  0  0  0  0  0  0
   26.2946  -22.0905  -16.2739 N   0  0  0  0  0  0  0  0  0  0  0  0
   26.5309  -21.3121  -13.9963 C   0  0  0  0  0  0  0  0  0  0  0  0
   25.6527  -22.0849  -13.4988 O   0  0  0  0  0  0  0  0  0  0  0  0
   31.7989  -21.1964  -10.7589 N   0  0  0  0  0  0  0  0  0  0  0  0
   31.3958  -22.1549  -11.7064 C   0  0  0  0  0  0  0  0  0  0  0  0
   32.2002  -22.9799  -12.2313 O   0  0  0  0  0  0  0  0  0  0  0  0
   29.9674  -22.1969  -12.1041 C   0  0  0  0  0  0  0  0  0  0  0  0
   29.2317  -21.0701  -11.4564 C   0  0  0  0  0  0  0  0  0  0  0  0
   27.7650  -21.1942  -11.8042 C   0  0  2  0  0  0  0  0  0  0  0  0
   27.6108  -20.8627  -13.1937 N   0  0  0  0  0  0  0  0  0  0  0  0
   27.0031  -20.3130  -10.9070 C   0  0  0  0  0  0  0  0  0  0  0  0
   26.8670  -19.1070  -11.1995 O   0  0  0  0  0  0  0  0  0  0  0  0
   23.2616  -19.2074   -9.9347 C   0  0  0  0  0  0  0  0  0  0  0  0
   23.5101  -20.6668   -9.5579 C   0  0  2  0  0  0  0  0  0  0  0  0
   22.2155  -21.3382   -9.2916 C   0  0  0  0  0  0  0  0  0  0  0  0
   24.4702  -20.6611   -8.4107 C   0  0  0  0  0  0  0  0  0  0  0  0
   25.7913  -20.0157   -8.7188 C   0  0  2  0  0  0  0  0  0  0  0  0
   26.4358  -20.8265   -9.7343 N   0  0  0  0  0  0  0  0  0  0  0  0
   26.6518  -19.8054   -7.5597 C   0  0  0  0  0  0  0  0  0  0  0  0
   27.6850  -20.4258   -7.2873 O   0  0  0  0  0  0  0  0  0  0  0  0
   26.2842  -18.7962   -6.6459 O   0  0  0  0  0  0  0  0  0  0  0  0
  2  1  1  0
  3  2  1  0
  4  3  1  0
  4  5  1  0
  5  6  1  6
  7  5  1  0
  7  8  2  0
  9 10  1  0
 10 12  1  0
 11 10  2  0
 12 13  1  0
 14 13  1  1
 14 15  1  0
 15  7  1  0
 16 14  1  0
 17 16  2  0
 19 18  1  1
 19 21  1  0
 20 19  1  0
 22 23  1  0
 22 21  1  1
 23 16  1  0
 24 22  1  0
 25 24  2  0
 26 24  1  0
M  END
$$$$
