MQL.pdb
     RDKit          3D

 26 25  0  0  1  0  0  0  0  0999 V2000
   19.7930  -20.1198  -16.7800 C   0  0  0  0  0  0  0  0  0  0  0  0
   20.7959  -18.7111  -17.3321 S   0  0  0  0  0  0  0  0  0  0  0  0
   21.9898  -18.2417  -16.0607 C   0  0  0  0  0  0  0  0  0  0  0  0
   22.6360  -19.4825  -15.4626 C   0  0  0  0  0  0  0  0  0  0  0  0
   23.5067  -19.0629  -14.2891 C   0  0  2  0  0  0  0  0  0  0  0  0
   24.3768  -18.0044  -14.7516 N   0  0  0  0  0  0  0  0  0  0  0  0
   24.2872  -20.2458  -13.8477 C   0  0  0  0  0  0  0  0  0  0  0  0
   23.6263  -21.2791  -13.5139 O   0  0  0  0  0  0  0  0  0  0  0  0
   27.8916  -22.8019  -16.2183 N   0  0  0  0  0  0  0  0  0  0  0  0
   27.7701  -21.4172  -16.4344 C   0  0  0  0  0  0  0  0  0  0  0  0
   27.7146  -20.9066  -17.5917 O   0  0  0  0  0  0  0  0  0  0  0  0
   27.7046  -20.5217  -15.2537 C   0  0  0  0  0  0  0  0  0  0  0  0
   27.8280  -21.3286  -14.0030 C   0  0  0  0  0  0  0  0  0  0  0  0
   26.4692  -21.3973  -13.3423 C   0  0  2  0  0  0  0  0  0  0  0  0
   25.7043  -20.2648  -13.7861 N   0  0  0  0  0  0  0  0  0  0  0  0
   26.6668  -21.4321  -11.8858 C   0  0  0  0  0  0  0  0  0  0  0  0
   27.7439  -21.8598  -11.4215 O   0  0  0  0  0  0  0  0  0  0  0  0
   27.4820  -18.9575   -7.2500 C   0  0  0  0  0  0  0  0  0  0  0  0
   27.0857  -20.3849   -7.6233 C   0  0  2  0  0  0  0  0  0  0  0  0
   28.0802  -21.3364   -7.0727 C   0  0  0  0  0  0  0  0  0  0  0  0
   26.9319  -20.4172   -9.1110 C   0  0  0  0  0  0  0  0  0  0  0  0
   25.6908  -21.1183   -9.5849 C   0  0  2  0  0  0  0  0  0  0  0  0
   25.6521  -20.9880  -11.0290 N   0  0  0  0  0  0  0  0  0  0  0  0
   24.4550  -20.6577   -8.9612 C   0  0  0  0  0  0  0  0  0  0  0  0
   23.6076  -19.9139   -9.4666 O   0  0  0  0  0  0  0  0  0  0  0  0
   24.1817  -21.0948   -7.6486 O   0  0  0  0  0  0  0  0  0  0  0  0
  2  1  1  0
  3  2  1  0
  4  3  1  0
  4  5  1  0
  5  6  1  6
  7  5  1  0
  7  8  2  0
  9 10  1  0
 10 12  1  0
 11 10  2  0
 12 13  1  0
 14 13  1  6
 14 15  1  0
 15  7  1  0
 16 14  1  0
 17 16  2  0
 19 18  1  6
 19 21  1  0
 20 19  1  0
 22 23  1  0
 22 21  1  1
 23 16  1  0
 24 22  1  0
 25 24  2  0
 26 24  1  0
M  END
$$$$
