MQL.pdb
     RDKit          3D

 26 25  0  0  1  0  0  0  0  0999 V2000
   31.1400  -14.9012  -19.0300 C   0  0  0  0  0  0  0  0  0  0  0  0
   31.6061  -16.4047  -18.1261 S   0  0  0  0  0  0  0  0  0  0  0  0
   30.3539  -17.6891  -18.3370 C   0  0  0  0  0  0  0  0  0  0  0  0
   28.9891  -17.1676  -17.9123 C   0  0  0  0  0  0  0  0  0  0  0  0
   27.9546  -18.2563  -18.1480 C   0  0  2  0  0  0  0  0  0  0  0  0
   27.4551  -18.0951  -19.4956 N   0  0  0  0  0  0  0  0  0  0  0  0
   26.8701  -18.0862  -17.1490 C   0  0  0  0  0  0  0  0  0  0  0  0
   26.7848  -16.9526  -16.5800 O   0  0  0  0  0  0  0  0  0  0  0  0
   23.5735  -19.7291  -19.1990 N   0  0  0  0  0  0  0  0  0  0  0  0
   23.6586  -18.3442  -18.9673 C   0  0  0  0  0  0  0  0  0  0  0  0
   23.8388  -17.5037  -19.8969 O   0  0  0  0  0  0  0  0  0  0  0  0
   23.5311  -17.8528  -17.5735 C   0  0  0  0  0  0  0  0  0  0  0  0
   23.5757  -19.0072  -16.6271 C   0  0  0  0  0  0  0  0  0  0  0  0
   24.8826  -18.9527  -15.8677 C   0  0  2  0  0  0  0  0  0  0  0  0
   25.9510  -19.1138  -16.8149 N   0  0  0  0  0  0  0  0  0  0  0  0
   24.8582  -19.9978  -14.8338 C   0  0  0  0  0  0  0  0  0  0  0  0
   25.1815  -21.1661  -15.1327 O   0  0  0  0  0  0  0  0  0  0  0  0
   23.9665  -20.7871   -9.4945 C   0  0  0  0  0  0  0  0  0  0  0  0
   25.2866  -21.1422  -10.1762 C   0  0  2  0  0  0  0  0  0  0  0  0
   26.4043  -20.9600   -9.2194 C   0  0  0  0  0  0  0  0  0  0  0  0
   25.3712  -20.3112  -11.4172 C   0  0  0  0  0  0  0  0  0  0  0  0
   24.3428  -20.6542  -12.4571 C   0  0  2  0  0  0  0  0  0  0  0  0
   24.4746  -19.6812  -13.5248 N   0  0  0  0  0  0  0  0  0  0  0  0
   22.9746  -20.7354  -11.9574 C   0  0  0  0  0  0  0  0  0  0  0  0
   22.1556  -19.8120  -11.8996 O   0  0  0  0  0  0  0  0  0  0  0  0
   22.5220  -21.9860  -11.4885 O   0  0  0  0  0  0  0  0  0  0  0  0
  2  1  1  0
  3  2  1  0
  4  3  1  0
  4  5  1  0
  5  6  1  6
  7  5  1  0
  7  8  2  0
  9 10  1  0
 10 12  1  0
 11 10  2  0
 12 13  1  0
 14 13  1  6
 14 15  1  0
 15  7  1  0
 16 14  1  0
 17 16  2  0
 19 18  1  1
 19 21  1  0
 20 19  1  0
 22 23  1  0
 22 21  1  1
 23 16  1  0
 24 22  1  0
 25 24  2  0
 26 24  1  0
M  END
$$$$
