MQL.pdb
     RDKit          3D

 26 25  0  0  1  0  0  0  0  0999 V2000
   28.6701  -16.4315  -16.2417 C   0  0  0  0  0  0  0  0  0  0  0  0
   29.1571  -18.1029  -16.7556 S   0  0  0  0  0  0  0  0  0  0  0  0
   27.8775  -19.3014  -16.3213 C   0  0  0  0  0  0  0  0  0  0  0  0
   27.2568  -18.9445  -14.9788 C   0  0  0  0  0  0  0  0  0  0  0  0
   27.6379  -20.0112  -13.9649 C   0  0  2  0  0  0  0  0  0  0  0  0
   27.2282  -21.2887  -14.5049 N   0  0  0  0  0  0  0  0  0  0  0  0
   26.9311  -19.7133  -12.6941 C   0  0  0  0  0  0  0  0  0  0  0  0
   27.1619  -18.5836  -12.1587 O   0  0  0  0  0  0  0  0  0  0  0  0
   21.3383  -21.5004  -11.3407 N   0  0  0  0  0  0  0  0  0  0  0  0
   21.7509  -20.3694  -12.0684 C   0  0  0  0  0  0  0  0  0  0  0  0
   20.9605  -19.6934  -12.7905 O   0  0  0  0  0  0  0  0  0  0  0  0
   23.1727  -19.9554  -11.9829 C   0  0  0  0  0  0  0  0  0  0  0  0
   23.8996  -20.8462  -11.0298 C   0  0  0  0  0  0  0  0  0  0  0  0
   25.3092  -20.3229  -10.8665 C   0  0  2  0  0  0  0  0  0  0  0  0
   26.0325  -20.6179  -12.0724 N   0  0  0  0  0  0  0  0  0  0  0  0
   25.8948  -20.9436   -9.6692 C   0  0  0  0  0  0  0  0  0  0  0  0
   26.2393  -22.1431   -9.7046 O   0  0  0  0  0  0  0  0  0  0  0  0
   29.1127  -20.4799   -6.3355 C   0  0  0  0  0  0  0  0  0  0  0  0
   28.2351  -19.2601   -6.6106 C   0  0  2  0  0  0  0  0  0  0  0  0
   28.7359  -18.1024   -5.8317 C   0  0  0  0  0  0  0  0  0  0  0  0
   26.8257  -19.6638   -6.3130 C   0  0  0  0  0  0  0  0  0  0  0  0
   26.3046  -20.7664   -7.1901 C   0  0  2  0  0  0  0  0  0  0  0  0
   26.0634  -20.1918   -8.4999 N   0  0  0  0  0  0  0  0  0  0  0  0
   25.1280  -21.4543   -6.6699 C   0  0  0  0  0  0  0  0  0  0  0  0
   25.0943  -22.2345   -5.7123 O   0  0  0  0  0  0  0  0  0  0  0  0
   23.8945  -21.2179   -7.3112 O   0  0  0  0  0  0  0  0  0  0  0  0
  2  1  1  0
  3  2  1  0
  4  3  1  0
  4  5  1  0
  5  6  1  6
  7  5  1  0
  7  8  2  0
  9 10  1  0
 10 12  1  0
 11 10  2  0
 12 13  1  0
 14 13  1  6
 14 15  1  0
 15  7  1  0
 16 14  1  0
 17 16  2  0
 19 18  1  1
 19 21  1  0
 20 19  1  0
 22 23  1  0
 22 21  1  1
 23 16  1  0
 24 22  1  0
 25 24  2  0
 26 24  1  0
M  END
$$$$
