KKL.pdb
     RDKit          3D

 27 26  0  0  1  0  0  0  0  0999 V2000
   18.9248  -12.8403  -16.5221 N   0  0  0  0  0  0  0  0  0  0  0  0
   18.6340  -11.4780  -16.8542 C   0  0  1  0  0  0  0  0  0  0  0  0
   17.3643  -10.9918  -16.1719 C   0  0  0  0  0  0  0  0  0  0  0  0
   16.1752  -11.8052  -16.6163 C   0  0  0  0  0  0  0  0  0  0  0  0
   15.3979  -12.3590  -15.4698 C   0  0  0  0  0  0  0  0  0  0  0  0
   13.9316  -12.0388  -15.5281 C   0  0  0  0  0  0  0  0  0  0  0  0
   13.5264  -11.0643  -14.5530 N   0  0  0  0  0  0  0  0  0  0  0  0
   19.8001  -10.6402  -16.4754 C   0  0  0  0  0  0  0  0  0  0  0  0
   20.0342  -10.4165  -15.2389 O   0  0  0  0  0  0  0  0  0  0  0  0
   20.6602  -10.0830  -17.4611 N   0  0  0  0  0  0  0  0  0  0  0  0
   21.7751   -9.2473  -17.0633 C   0  0  1  0  0  0  0  0  0  0  0  0
   22.7770   -9.2937  -18.1690 C   0  0  0  0  0  0  0  0  0  0  0  0
   23.4881  -10.6009  -18.3211 C   0  0  0  0  0  0  0  0  0  0  0  0
   24.5692  -10.5427  -19.3931 C   0  0  0  0  0  0  0  0  0  0  0  0
   25.3202  -11.8581  -19.3921 C   0  0  0  0  0  0  0  0  0  0  0  0
   26.2088  -11.8754  -20.5632 N   0  0  0  0  0  0  0  0  0  0  0  0
   21.2859   -7.9146  -16.7227 C   0  0  0  0  0  0  0  0  0  0  0  0
   20.4183   -7.2825  -17.3793 O   0  0  0  0  0  0  0  0  0  0  0  0
   20.4412   -3.5152  -14.4920 C   0  0  0  0  0  0  0  0  0  0  0  0
   19.3445   -4.5508  -14.5956 C   0  0  1  0  0  0  0  0  0  0  0  0
   18.3914   -4.0074  -15.6785 C   0  0  0  0  0  0  0  0  0  0  0  0
   19.8513   -5.8979  -14.9761 C   0  0  0  0  0  0  0  0  0  0  0  0
   21.3273   -5.9008  -15.1860 C   0  0  2  0  0  0  0  0  0  0  0  0
   21.7964   -7.2452  -15.5782 N   0  0  0  0  0  0  0  0  0  0  0  0
   22.1271   -5.4695  -14.0247 C   0  0  0  0  0  0  0  0  0  0  0  0
   22.4366   -4.2626  -13.8905 O   0  0  0  0  0  0  0  0  0  0  0  0
   22.5709   -6.3343  -13.0432 O   0  0  0  0  0  0  0  0  0  0  0  0
  2  1  1  1
  3  2  1  0
  4  5  1  0
  4  3  1  0
  5  6  1  0
  7  6  1  0
  8  2  1  0
  8  9  2  0
 10  8  1  0
 11 10  1  0
 11 12  1  6
 13 12  1  0
 14 15  1  0
 14 13  1  0
 15 16  1  0
 17 11  1  0
 18 17  2  0
 20 19  1  6
 20 22  1  0
 20 21  1  0
 23 22  1  1
 23 24  1  0
 23 25  1  0
 24 17  1  0
 25 27  1  0
 26 25  2  0
M  END
$$$$
