KKL.pdb
     RDKit          3D

 27 26  0  0  1  0  0  0  0  0999 V2000
   21.5940  -26.8422  -13.9222 N   0  0  0  0  0  0  0  0  0  0  0  0
   20.8895  -25.7272  -13.3643 C   0  0  1  0  0  0  0  0  0  0  0  0
   20.2810  -24.8483  -14.4466 C   0  0  0  0  0  0  0  0  0  0  0  0
   21.3554  -24.0919  -15.1858 C   0  0  0  0  0  0  0  0  0  0  0  0
   20.7985  -23.1184  -16.1695 C   0  0  0  0  0  0  0  0  0  0  0  0
   21.8509  -22.3336  -16.8992 C   0  0  0  0  0  0  0  0  0  0  0  0
   21.3056  -21.3233  -17.7631 N   0  0  0  0  0  0  0  0  0  0  0  0
   19.8454  -26.2419  -12.4423 C   0  0  0  0  0  0  0  0  0  0  0  0
   19.1654  -27.2705  -12.7790 O   0  0  0  0  0  0  0  0  0  0  0  0
   19.5881  -25.6127  -11.1933 N   0  0  0  0  0  0  0  0  0  0  0  0
   18.5951  -26.1640  -10.2935 C   0  0  1  0  0  0  0  0  0  0  0  0
   18.9754  -25.7495   -8.9106 C   0  0  0  0  0  0  0  0  0  0  0  0
   18.0222  -26.1765   -7.8398 C   0  0  0  0  0  0  0  0  0  0  0  0
   18.4501  -25.6834   -6.4632 C   0  0  0  0  0  0  0  0  0  0  0  0
   17.3473  -25.9993   -5.4739 C   0  0  0  0  0  0  0  0  0  0  0  0
   17.8089  -25.6013   -4.1360 N   0  0  0  0  0  0  0  0  0  0  0  0
   17.2641  -25.7464  -10.7242 C   0  0  0  0  0  0  0  0  0  0  0  0
   16.9535  -24.5704  -11.0463 O   0  0  0  0  0  0  0  0  0  0  0  0
   12.1101  -27.2368  -12.4005 C   0  0  0  0  0  0  0  0  0  0  0  0
   13.1904  -26.3915  -13.0364 C   0  0  1  0  0  0  0  0  0  0  0  0
   12.8658  -24.9478  -12.6043 C   0  0  0  0  0  0  0  0  0  0  0  0
   14.5607  -26.7716  -12.5955 C   0  0  0  0  0  0  0  0  0  0  0  0
   14.8439  -26.3230  -11.2023 C   0  0  2  0  0  0  0  0  0  0  0  0
   16.2140  -26.7004  -10.8004 N   0  0  0  0  0  0  0  0  0  0  0  0
   13.9189  -26.8393  -10.1765 C   0  0  0  0  0  0  0  0  0  0  0  0
   12.8457  -26.2371   -9.9404 O   0  0  0  0  0  0  0  0  0  0  0  0
   14.1639  -27.9794   -9.4359 O   0  0  0  0  0  0  0  0  0  0  0  0
  2  1  1  6
  3  2  1  0
  4  5  1  0
  4  3  1  0
  5  6  1  0
  7  6  1  0
  8  2  1  0
  8  9  2  0
 10  8  1  0
 11 10  1  0
 11 12  1  1
 13 12  1  0
 14 15  1  0
 14 13  1  0
 15 16  1  0
 17 11  1  0
 18 17  2  0
 20 19  1  1
 20 22  1  0
 20 21  1  0
 23 22  1  6
 23 24  1  0
 23 25  1  0
 24 17  1  0
 25 27  1  0
 26 25  2  0
M  END
$$$$
