KKL.pdb
     RDKit          3D

 27 26  0  0  1  0  0  0  0  0999 V2000
   23.4733  -36.4304  -10.1537 N   0  0  0  0  0  0  0  0  0  0  0  0
   24.8453  -36.7936   -9.9628 C   0  0  1  0  0  0  0  0  0  0  0  0
   25.7888  -35.7429  -10.5284 C   0  0  0  0  0  0  0  0  0  0  0  0
   25.8754  -35.8566  -12.0292 C   0  0  0  0  0  0  0  0  0  0  0  0
   25.9707  -34.5280  -12.7009 C   0  0  0  0  0  0  0  0  0  0  0  0
   26.0799  -34.6176  -14.1962 C   0  0  0  0  0  0  0  0  0  0  0  0
   26.2138  -33.3357  -14.8313 N   0  0  0  0  0  0  0  0  0  0  0  0
   25.0815  -36.9999   -8.5113 C   0  0  0  0  0  0  0  0  0  0  0  0
   24.3261  -36.4113   -7.6648 O   0  0  0  0  0  0  0  0  0  0  0  0
   26.1311  -37.8389   -8.0460 N   0  0  0  0  0  0  0  0  0  0  0  0
   26.2870  -38.0875   -6.6270 C   0  0  1  0  0  0  0  0  0  0  0  0
   27.2407  -39.2267   -6.4816 C   0  0  0  0  0  0  0  0  0  0  0  0
   26.7289  -40.5440   -6.9720 C   0  0  0  0  0  0  0  0  0  0  0  0
   27.7651  -41.6512   -6.8244 C   0  0  0  0  0  0  0  0  0  0  0  0
   27.1390  -42.9588   -7.2629 C   0  0  0  0  0  0  0  0  0  0  0  0
   28.0915  -44.0398   -6.9703 N   0  0  0  0  0  0  0  0  0  0  0  0
   26.6866  -36.8526   -5.9586 C   0  0  0  0  0  0  0  0  0  0  0  0
   27.1469  -35.8391   -6.5453 O   0  0  0  0  0  0  0  0  0  0  0  0
   27.1748  -32.3358   -3.9950 C   0  0  0  0  0  0  0  0  0  0  0  0
   25.9436  -33.1351   -3.6330 C   0  0  1  0  0  0  0  0  0  0  0  0
   24.7590  -32.2104   -3.9766 C   0  0  0  0  0  0  0  0  0  0  0  0
   25.8401  -34.4157   -4.3853 C   0  0  0  0  0  0  0  0  0  0  0  0
   26.7609  -35.4566   -3.8458 C   0  0  2  0  0  0  0  0  0  0  0  0
   26.5652  -36.7413   -4.5474 N   0  0  0  0  0  0  0  0  0  0  0  0
   26.6380  -35.7141   -2.3990 C   0  0  0  0  0  0  0  0  0  0  0  0
   27.4452  -35.1876   -1.5980 O   0  0  0  0  0  0  0  0  0  0  0  0
   25.6608  -36.5217   -1.8504 O   0  0  0  0  0  0  0  0  0  0  0  0
  2  1  1  1
  3  2  1  0
  4  5  1  0
  4  3  1  0
  5  6  1  0
  7  6  1  0
  8  2  1  0
  8  9  2  0
 10  8  1  0
 11 10  1  0
 11 12  1  6
 13 12  1  0
 14 15  1  0
 14 13  1  0
 15 16  1  0
 17 11  1  0
 18 17  2  0
 20 19  1  6
 20 22  1  0
 20 21  1  0
 23 22  1  6
 23 24  1  0
 23 25  1  0
 24 17  1  0
 25 27  1  0
 26 25  2  0
M  END
$$$$
