KKL.pdb
     RDKit          3D

 27 26  0  0  1  0  0  0  0  0999 V2000
   28.1002  -23.5327  -18.1925 N   0  0  0  0  0  0  0  0  0  0  0  0
   26.9282  -23.9024  -17.4574 C   0  0  1  0  0  0  0  0  0  0  0  0
   27.2108  -25.0345  -16.4814 C   0  0  0  0  0  0  0  0  0  0  0  0
   27.0610  -26.3728  -17.1592 C   0  0  0  0  0  0  0  0  0  0  0  0
   25.6980  -26.5778  -17.7298 C   0  0  0  0  0  0  0  0  0  0  0  0
   25.5020  -27.9344  -18.3438 C   0  0  0  0  0  0  0  0  0  0  0  0
   26.7378  -28.5988  -18.6538 N   0  0  0  0  0  0  0  0  0  0  0  0
   26.4155  -22.7012  -16.7507 C   0  0  0  0  0  0  0  0  0  0  0  0
   27.2028  -22.0376  -15.9933 O   0  0  0  0  0  0  0  0  0  0  0  0
   25.0669  -22.2759  -16.9004 N   0  0  0  0  0  0  0  0  0  0  0  0
   24.5895  -21.1102  -16.1843 C   0  0  1  0  0  0  0  0  0  0  0  0
   23.4977  -20.5063  -17.0040 C   0  0  0  0  0  0  0  0  0  0  0  0
   22.7726  -19.3724  -16.3513 C   0  0  0  0  0  0  0  0  0  0  0  0
   21.6755  -18.8056  -17.2437 C   0  0  0  0  0  0  0  0  0  0  0  0
   21.5649  -17.3172  -16.9852 C   0  0  0  0  0  0  0  0  0  0  0  0
   20.4202  -16.8061  -17.7531 N   0  0  0  0  0  0  0  0  0  0  0  0
   24.2091  -21.4952  -14.8284 C   0  0  0  0  0  0  0  0  0  0  0  0
   23.4798  -22.4801  -14.5432 O   0  0  0  0  0  0  0  0  0  0  0  0
   25.0627  -22.1248   -9.4585 C   0  0  0  0  0  0  0  0  0  0  0  0
   24.8365  -20.7143   -9.9538 C   0  0  1  0  0  0  0  0  0  0  0  0
   25.6664  -19.8265   -9.0055 C   0  0  0  0  0  0  0  0  0  0  0  0
   25.2698  -20.5172  -11.3644 C   0  0  0  0  0  0  0  0  0  0  0  0
   24.2718  -21.0501  -12.3351 C   0  0  2  0  0  0  0  0  0  0  0  0
   24.6711  -20.7338  -13.7214 N   0  0  0  0  0  0  0  0  0  0  0  0
   22.8919  -20.5660  -12.1458 C   0  0  0  0  0  0  0  0  0  0  0  0
   22.5905  -19.3920  -12.4640 O   0  0  0  0  0  0  0  0  0  0  0  0
   21.8769  -21.3454  -11.6257 O   0  0  0  0  0  0  0  0  0  0  0  0
  2  1  1  1
  3  2  1  0
  4  5  1  0
  4  3  1  0
  5  6  1  0
  7  6  1  0
  8  2  1  0
  8  9  2  0
 10  8  1  0
 11 10  1  0
 11 12  1  6
 13 12  1  0
 14 15  1  0
 14 13  1  0
 15 16  1  0
 17 11  1  0
 18 17  2  0
 20 19  1  1
 20 22  1  0
 20 21  1  0
 23 22  1  1
 23 24  1  0
 23 25  1  0
 24 17  1  0
 25 27  1  0
 26 25  2  0
M  END
$$$$
