KKL.pdb
     RDKit          3D

 27 26  0  0  1  0  0  0  0  0999 V2000
   26.2474  -20.5462  -10.6301 N   0  0  0  0  0  0  0  0  0  0  0  0
   25.9216  -21.2265  -11.8474 C   0  0  1  0  0  0  0  0  0  0  0  0
   24.5886  -21.9523  -11.7462 C   0  0  0  0  0  0  0  0  0  0  0  0
   24.1840  -22.5138  -13.0856 C   0  0  0  0  0  0  0  0  0  0  0  0
   24.5415  -23.9544  -13.2357 C   0  0  0  0  0  0  0  0  0  0  0  0
   24.2440  -24.5078  -14.5999 C   0  0  0  0  0  0  0  0  0  0  0  0
   23.2580  -25.5528  -14.5837 N   0  0  0  0  0  0  0  0  0  0  0  0
   25.9093  -20.2356  -12.9534 C   0  0  0  0  0  0  0  0  0  0  0  0
   25.2609  -19.1437  -12.8078 O   0  0  0  0  0  0  0  0  0  0  0  0
   26.6045  -20.4782  -14.1698 N   0  0  0  0  0  0  0  0  0  0  0  0
   26.5544  -19.5042  -15.2415 C   0  0  1  0  0  0  0  0  0  0  0  0
   27.7381  -19.7512  -16.1170 C   0  0  0  0  0  0  0  0  0  0  0  0
   27.7803  -18.9304  -17.3667 C   0  0  0  0  0  0  0  0  0  0  0  0
   29.1261  -18.2408  -17.5531 C   0  0  0  0  0  0  0  0  0  0  0  0
   29.0848  -17.4433  -18.8402 C   0  0  0  0  0  0  0  0  0  0  0  0
   30.3695  -16.7428  -18.9825 N   0  0  0  0  0  0  0  0  0  0  0  0
   25.2589  -19.5839  -15.9100 C   0  0  0  0  0  0  0  0  0  0  0  0
   24.6152  -20.6488  -16.0964 O   0  0  0  0  0  0  0  0  0  0  0  0
   20.2257  -17.8107  -16.6867 C   0  0  0  0  0  0  0  0  0  0  0  0
   21.2747  -17.1544  -17.5554 C   0  0  1  0  0  0  0  0  0  0  0  0
   20.7605  -15.7179  -17.7756 C   0  0  0  0  0  0  0  0  0  0  0  0
   22.6227  -17.1341  -16.9238 C   0  0  0  0  0  0  0  0  0  0  0  0
   23.3389  -18.4304  -17.0939 C   0  0  2  0  0  0  0  0  0  0  0  0
   24.6429  -18.4015  -16.4012 N   0  0  0  0  0  0  0  0  0  0  0  0
   23.5839  -18.8334  -18.4911 C   0  0  0  0  0  0  0  0  0  0  0  0
   24.5563  -18.3546  -19.1200 O   0  0  0  0  0  0  0  0  0  0  0  0
   22.7883  -19.7327  -19.1741 O   0  0  0  0  0  0  0  0  0  0  0  0
  2  1  1  1
  3  2  1  0
  4  5  1  0
  4  3  1  0
  5  6  1  0
  7  6  1  0
  8  2  1  0
  8  9  2  0
 10  8  1  0
 11 10  1  0
 11 12  1  6
 13 12  1  0
 14 15  1  0
 14 13  1  0
 15 16  1  0
 17 11  1  0
 18 17  2  0
 20 19  1  1
 20 22  1  0
 20 21  1  0
 23 22  1  6
 23 24  1  0
 23 25  1  0
 24 17  1  0
 25 27  1  0
 26 25  2  0
M  END
$$$$
