KKL.pdb
     RDKit          3D

 27 26  0  0  1  0  0  0  0  0999 V2000
   25.6339  -22.1626  -10.7217 N   0  0  0  0  0  0  0  0  0  0  0  0
   24.8595  -20.9624  -10.8251 C   0  0  1  0  0  0  0  0  0  0  0  0
   25.3357  -19.9002   -9.8459 C   0  0  0  0  0  0  0  0  0  0  0  0
   25.2446  -20.4031   -8.4276 C   0  0  0  0  0  0  0  0  0  0  0  0
   23.8823  -20.9038   -8.0826 C   0  0  0  0  0  0  0  0  0  0  0  0
   23.7464  -21.3364   -6.6507 C   0  0  0  0  0  0  0  0  0  0  0  0
   22.4243  -21.7924   -6.3208 N   0  0  0  0  0  0  0  0  0  0  0  0
   24.9330  -20.4722  -12.2249 C   0  0  0  0  0  0  0  0  0  0  0  0
   24.4934  -19.3045  -12.5026 O   0  0  0  0  0  0  0  0  0  0  0  0
   25.4826  -21.2763  -13.2609 N   0  0  0  0  0  0  0  0  0  0  0  0
   25.5824  -20.7549  -14.6092 C   0  0  1  0  0  0  0  0  0  0  0  0
   26.6182  -21.5629  -15.3183 C   0  0  0  0  0  0  0  0  0  0  0  0
   26.9113  -21.1238  -16.7179 C   0  0  0  0  0  0  0  0  0  0  0  0
   27.9795  -21.9876  -17.3767 C   0  0  0  0  0  0  0  0  0  0  0  0
   28.3047  -21.4001  -18.7344 C   0  0  0  0  0  0  0  0  0  0  0  0
   29.4208  -22.1672  -19.3064 N   0  0  0  0  0  0  0  0  0  0  0  0
   24.2607  -20.7558  -15.2293 C   0  0  0  0  0  0  0  0  0  0  0  0
   23.4535  -21.7203  -15.1900 O   0  0  0  0  0  0  0  0  0  0  0  0
   19.6045  -18.1027  -16.2771 C   0  0  0  0  0  0  0  0  0  0  0  0
   20.7009  -17.9726  -17.3100 C   0  0  1  0  0  0  0  0  0  0  0  0
   20.5004  -16.5721  -17.9221 C   0  0  0  0  0  0  0  0  0  0  0  0
   22.0655  -18.0963  -16.7279 C   0  0  0  0  0  0  0  0  0  0  0  0
   22.4445  -19.5182  -16.4896 C   0  0  2  0  0  0  0  0  0  0  0  0
   23.8113  -19.6090  -15.9375 N   0  0  0  0  0  0  0  0  0  0  0  0
   22.3828  -20.3914  -17.6763 C   0  0  0  0  0  0  0  0  0  0  0  0
   21.3222  -20.9989  -17.9528 O   0  0  0  0  0  0  0  0  0  0  0  0
   23.4497  -20.5898  -18.5311 O   0  0  0  0  0  0  0  0  0  0  0  0
  2  1  1  6
  3  2  1  0
  4  5  1  0
  4  3  1  0
  5  6  1  0
  7  6  1  0
  8  2  1  0
  8  9  2  0
 10  8  1  0
 11 10  1  0
 11 12  1  6
 13 12  1  0
 14 15  1  0
 14 13  1  0
 15 16  1  0
 17 11  1  0
 18 17  2  0
 20 19  1  1
 20 22  1  0
 20 21  1  0
 23 22  1  6
 23 24  1  0
 23 25  1  0
 24 17  1  0
 25 27  1  0
 26 25  2  0
M  END
$$$$
