KKL.pdb
     RDKit          3D

 27 26  0  0  1  0  0  0  0  0999 V2000
   27.7603  -21.7643  -17.6235 N   0  0  0  0  0  0  0  0  0  0  0  0
   26.6654  -22.3751  -16.9316 C   0  0  1  0  0  0  0  0  0  0  0  0
   27.1413  -23.2108  -15.7530 C   0  0  0  0  0  0  0  0  0  0  0  0
   27.5348  -24.5943  -16.2046 C   0  0  0  0  0  0  0  0  0  0  0  0
   26.3561  -25.4475  -16.5339 C   0  0  0  0  0  0  0  0  0  0  0  0
   26.7237  -26.8370  -16.9696 C   0  0  0  0  0  0  0  0  0  0  0  0
   25.5948  -27.6084  -17.4113 N   0  0  0  0  0  0  0  0  0  0  0  0
   25.7319  -21.3082  -16.4896 C   0  0  0  0  0  0  0  0  0  0  0  0
   26.1599  -20.3821  -15.7197 O   0  0  0  0  0  0  0  0  0  0  0  0
   24.3724  -21.2974  -16.9063 N   0  0  0  0  0  0  0  0  0  0  0  0
   23.4679  -20.2816  -16.4068 C   0  0  1  0  0  0  0  0  0  0  0  0
   22.6687  -19.7932  -17.5693 C   0  0  0  0  0  0  0  0  0  0  0  0
   23.3955  -18.8630  -18.4879 C   0  0  0  0  0  0  0  0  0  0  0  0
   23.6201  -17.4948  -17.8563 C   0  0  0  0  0  0  0  0  0  0  0  0
   24.3384  -16.6138  -18.8575 C   0  0  0  0  0  0  0  0  0  0  0  0
   24.6490  -15.3367  -18.1989 N   0  0  0  0  0  0  0  0  0  0  0  0
   22.6871  -20.8280  -15.3008 C   0  0  0  0  0  0  0  0  0  0  0  0
   22.1433  -21.9627  -15.3019 O   0  0  0  0  0  0  0  0  0  0  0  0
   22.0525  -20.2413   -9.2421 C   0  0  0  0  0  0  0  0  0  0  0  0
   21.3007  -20.3106  -10.5520 C   0  0  1  0  0  0  0  0  0  0  0  0
   20.0900  -19.3759  -10.3607 C   0  0  0  0  0  0  0  0  0  0  0  0
   22.1191  -19.8716  -11.7156 C   0  0  0  0  0  0  0  0  0  0  0  0
   21.7233  -20.5695  -12.9721 C   0  0  2  0  0  0  0  0  0  0  0  0
   22.5013  -20.0605  -14.1196 N   0  0  0  0  0  0  0  0  0  0  0  0
   20.2941  -20.4699  -13.3216 C   0  0  0  0  0  0  0  0  0  0  0  0
   19.8826  -19.5057  -14.0081 O   0  0  0  0  0  0  0  0  0  0  0  0
   19.3491  -21.3988  -12.9314 O   0  0  0  0  0  0  0  0  0  0  0  0
  2  1  1  1
  3  2  1  0
  4  5  1  0
  4  3  1  0
  5  6  1  0
  7  6  1  0
  8  2  1  0
  8  9  2  0
 10  8  1  0
 11 10  1  0
 11 12  1  6
 13 12  1  0
 14 15  1  0
 14 13  1  0
 15 16  1  0
 17 11  1  0
 18 17  2  0
 20 19  1  1
 20 22  1  0
 20 21  1  0
 23 22  1  1
 23 24  1  0
 23 25  1  0
 24 17  1  0
 25 27  1  0
 26 25  2  0
M  END
$$$$
