KKL.pdb
     RDKit          3D

 27 26  0  0  1  0  0  0  0  0999 V2000
   28.5824  -31.5975  -15.8727 N   0  0  0  0  0  0  0  0  0  0  0  0
   28.9288  -30.5217  -16.7521 C   0  0  1  0  0  0  0  0  0  0  0  0
   29.0012  -30.9808  -18.2006 C   0  0  0  0  0  0  0  0  0  0  0  0
   30.1149  -31.9795  -18.3884 C   0  0  0  0  0  0  0  0  0  0  0  0
   30.2099  -32.4761  -19.7918 C   0  0  0  0  0  0  0  0  0  0  0  0
   31.3026  -33.4856  -19.9989 C   0  0  0  0  0  0  0  0  0  0  0  0
   31.4394  -33.8980  -21.3684 N   0  0  0  0  0  0  0  0  0  0  0  0
   27.9312  -29.4346  -16.5840 C   0  0  0  0  0  0  0  0  0  0  0  0
   26.8392  -29.6778  -15.9659 O   0  0  0  0  0  0  0  0  0  0  0  0
   28.1677  -28.1297  -17.0971 N   0  0  0  0  0  0  0  0  0  0  0  0
   27.1815  -27.0852  -16.9074 C   0  0  1  0  0  0  0  0  0  0  0  0
   27.8587  -25.7842  -17.1859 C   0  0  0  0  0  0  0  0  0  0  0  0
   26.9844  -24.5775  -17.0549 C   0  0  0  0  0  0  0  0  0  0  0  0
   27.7559  -23.2842  -17.2860 C   0  0  0  0  0  0  0  0  0  0  0  0
   27.6447  -22.4278  -16.0416 C   0  0  0  0  0  0  0  0  0  0  0  0
   28.4834  -21.2357  -16.2335 N   0  0  0  0  0  0  0  0  0  0  0  0
   26.0111  -27.3665  -17.7335 C   0  0  0  0  0  0  0  0  0  0  0  0
   26.0239  -28.0749  -18.7733 O   0  0  0  0  0  0  0  0  0  0  0  0
   22.2636  -30.1869  -19.1585 C   0  0  0  0  0  0  0  0  0  0  0  0
   22.2194  -29.5975  -17.7669 C   0  0  1  0  0  0  0  0  0  0  0  0
   21.9544  -30.7995  -16.8389 C   0  0  0  0  0  0  0  0  0  0  0  0
   23.4855  -28.9136  -17.3849 C   0  0  0  0  0  0  0  0  0  0  0  0
   23.4801  -27.4731  -17.7689 C   0  0  2  0  0  0  0  0  0  0  0  0
   24.7473  -26.8236  -17.3773 N   0  0  0  0  0  0  0  0  0  0  0  0
   22.3759  -26.6768  -17.2023 C   0  0  0  0  0  0  0  0  0  0  0  0
   21.1882  -26.9709  -17.4728 O   0  0  0  0  0  0  0  0  0  0  0  0
   22.5696  -25.5947  -16.3658 O   0  0  0  0  0  0  0  0  0  0  0  0
  2  1  1  1
  3  2  1  0
  4  5  1  0
  4  3  1  0
  5  6  1  0
  7  6  1  0
  8  2  1  0
  8  9  2  0
 10  8  1  0
 11 10  1  0
 11 12  1  6
 13 12  1  0
 14 15  1  0
 14 13  1  0
 15 16  1  0
 17 11  1  0
 18 17  2  0
 20 19  1  6
 20 22  1  0
 20 21  1  0
 23 22  1  1
 23 24  1  0
 23 25  1  0
 24 17  1  0
 25 27  1  0
 26 25  2  0
M  END
$$$$
