KKL.pdb
     RDKit          3D

 27 26  0  0  1  0  0  0  0  0999 V2000
   22.8678  -16.3274  -19.6542 N   0  0  0  0  0  0  0  0  0  0  0  0
   22.5309  -16.1561  -18.2729 C   0  0  1  0  0  0  0  0  0  0  0  0
   21.5943  -14.9755  -18.0651 C   0  0  0  0  0  0  0  0  0  0  0  0
   21.2305  -14.3446  -19.3851 C   0  0  0  0  0  0  0  0  0  0  0  0
   19.7701  -14.0649  -19.5044 C   0  0  0  0  0  0  0  0  0  0  0  0
   19.3618  -13.5746  -20.8641 C   0  0  0  0  0  0  0  0  0  0  0  0
   19.9422  -14.3340  -21.9370 N   0  0  0  0  0  0  0  0  0  0  0  0
   21.9230  -17.4162  -17.7753 C   0  0  0  0  0  0  0  0  0  0  0  0
   21.1386  -18.0763  -18.5386 O   0  0  0  0  0  0  0  0  0  0  0  0
   22.1968  -17.9017  -16.4671 N   0  0  0  0  0  0  0  0  0  0  0  0
   21.6104  -19.1483  -16.0179 C   0  0  1  0  0  0  0  0  0  0  0  0
   22.5126  -19.7062  -14.9675 C   0  0  0  0  0  0  0  0  0  0  0  0
   23.7113  -20.4342  -15.4877 C   0  0  0  0  0  0  0  0  0  0  0  0
   24.6072  -20.9383  -14.3630 C   0  0  0  0  0  0  0  0  0  0  0  0
   25.7076  -21.7862  -14.9667 C   0  0  0  0  0  0  0  0  0  0  0  0
   26.5902  -22.2286  -13.8773 N   0  0  0  0  0  0  0  0  0  0  0  0
   20.2335  -18.9123  -15.5938 C   0  0  0  0  0  0  0  0  0  0  0  0
   19.8492  -17.9083  -14.9400 O   0  0  0  0  0  0  0  0  0  0  0  0
   15.2353  -17.7726  -16.1173 C   0  0  0  0  0  0  0  0  0  0  0  0
   15.5221  -19.2420  -16.3281 C   0  0  1  0  0  0  0  0  0  0  0  0
   14.5700  -19.6700  -17.4624 C   0  0  0  0  0  0  0  0  0  0  0  0
   16.9369  -19.5095  -16.7067 C   0  0  0  0  0  0  0  0  0  0  0  0
   17.8153  -19.6636  -15.5122 C   0  0  2  0  0  0  0  0  0  0  0  0
   19.2219  -19.8554  -15.9196 N   0  0  0  0  0  0  0  0  0  0  0  0
   17.4567  -20.7721  -14.6083 C   0  0  0  0  0  0  0  0  0  0  0  0
   17.9326  -21.9155  -14.7994 O   0  0  0  0  0  0  0  0  0  0  0  0
   16.6049  -20.6294  -13.5302 O   0  0  0  0  0  0  0  0  0  0  0  0
  2  1  1  6
  3  2  1  0
  4  5  1  0
  4  3  1  0
  5  6  1  0
  7  6  1  0
  8  2  1  0
  8  9  2  0
 10  8  1  0
 11 10  1  0
 11 12  1  1
 13 12  1  0
 14 15  1  0
 14 13  1  0
 15 16  1  0
 17 11  1  0
 18 17  2  0
 20 19  1  6
 20 22  1  0
 20 21  1  0
 23 22  1  6
 23 24  1  0
 23 25  1  0
 24 17  1  0
 25 27  1  0
 26 25  2  0
M  END
$$$$
