KKL.pdb
     RDKit          3D

 27 26  0  0  1  0  0  0  0  0999 V2000
   20.9411  -18.7597  -16.8456 N   0  0  0  0  0  0  0  0  0  0  0  0
   21.3505  -17.6820  -15.9959 C   0  0  1  0  0  0  0  0  0  0  0  0
   20.8023  -17.8389  -14.5856 C   0  0  0  0  0  0  0  0  0  0  0  0
   20.5050  -19.2864  -14.2870 C   0  0  0  0  0  0  0  0  0  0  0  0
   21.5895  -19.9452  -13.5026 C   0  0  0  0  0  0  0  0  0  0  0  0
   21.3304  -21.3978  -13.2224 C   0  0  0  0  0  0  0  0  0  0  0  0
   22.3865  -22.0275  -12.4790 N   0  0  0  0  0  0  0  0  0  0  0  0
   22.8342  -17.6225  -15.9904 C   0  0  0  0  0  0  0  0  0  0  0  0
   23.5024  -18.6363  -16.3898 O   0  0  0  0  0  0  0  0  0  0  0  0
   23.5248  -16.4602  -15.5498 N   0  0  0  0  0  0  0  0  0  0  0  0
   24.9638  -16.3719  -15.6951 C   0  0  1  0  0  0  0  0  0  0  0  0
   25.3342  -14.9335  -15.5454 C   0  0  0  0  0  0  0  0  0  0  0  0
   25.0292  -14.0769  -16.7332 C   0  0  0  0  0  0  0  0  0  0  0  0
   25.3330  -12.6070  -16.4717 C   0  0  0  0  0  0  0  0  0  0  0  0
   24.9686  -11.8121  -17.7085 C   0  0  0  0  0  0  0  0  0  0  0  0
   25.0521  -10.3835  -17.3719 N   0  0  0  0  0  0  0  0  0  0  0  0
   25.6042  -17.2808  -14.7489 C   0  0  0  0  0  0  0  0  0  0  0  0
   25.6055  -17.1276  -13.5000 O   0  0  0  0  0  0  0  0  0  0  0  0
   25.2875  -21.2526  -11.3121 C   0  0  0  0  0  0  0  0  0  0  0  0
   26.3404  -20.6087  -12.1853 C   0  0  1  0  0  0  0  0  0  0  0  0
   27.3040  -21.7553  -12.5501 C   0  0  0  0  0  0  0  0  0  0  0  0
   25.7760  -19.9907  -13.4166 C   0  0  0  0  0  0  0  0  0  0  0  0
   26.8407  -19.4475  -14.3075 C   0  0  2  0  0  0  0  0  0  0  0  0
   26.2857  -18.4327  -15.2258 N   0  0  0  0  0  0  0  0  0  0  0  0
   27.5474  -20.4510  -15.1248 C   0  0  0  0  0  0  0  0  0  0  0  0
   28.7979  -20.5232  -15.0854 O   0  0  0  0  0  0  0  0  0  0  0  0
   26.9025  -21.3458  -15.9564 O   0  0  0  0  0  0  0  0  0  0  0  0
  2  1  1  6
  3  2  1  0
  4  5  1  0
  4  3  1  0
  5  6  1  0
  7  6  1  0
  8  2  1  0
  8  9  2  0
 10  8  1  0
 11 10  1  0
 11 12  1  1
 13 12  1  0
 14 15  1  0
 14 13  1  0
 15 16  1  0
 17 11  1  0
 18 17  2  0
 20 19  1  1
 20 22  1  0
 20 21  1  0
 23 22  1  6
 23 24  1  0
 23 25  1  0
 24 17  1  0
 25 27  1  0
 26 25  2  0
M  END
$$$$
