KKL.pdb
     RDKit          3D

 27 26  0  0  1  0  0  0  0  0999 V2000
   28.8163  -20.3707  -18.2984 N   0  0  0  0  0  0  0  0  0  0  0  0
   28.0343  -21.1940  -17.4257 C   0  0  1  0  0  0  0  0  0  0  0  0
   28.9015  -21.9078  -16.3999 C   0  0  0  0  0  0  0  0  0  0  0  0
   29.1314  -23.3426  -16.8018 C   0  0  0  0  0  0  0  0  0  0  0  0
   27.9643  -24.2191  -16.4932 C   0  0  0  0  0  0  0  0  0  0  0  0
   28.1830  -25.6600  -16.8564 C   0  0  0  0  0  0  0  0  0  0  0  0
   27.0835  -26.5089  -16.4891 N   0  0  0  0  0  0  0  0  0  0  0  0
   27.0123  -20.3435  -16.7644 C   0  0  0  0  0  0  0  0  0  0  0  0
   27.3405  -19.1802  -16.3486 O   0  0  0  0  0  0  0  0  0  0  0  0
   25.6771  -20.7984  -16.5851 N   0  0  0  0  0  0  0  0  0  0  0  0
   24.7192  -19.9758  -15.8742 C   0  0  1  0  0  0  0  0  0  0  0  0
   23.7986  -19.3909  -16.8935 C   0  0  0  0  0  0  0  0  0  0  0  0
   22.7629  -18.4600  -16.3475 C   0  0  0  0  0  0  0  0  0  0  0  0
   21.8873  -17.8704  -17.4461 C   0  0  0  0  0  0  0  0  0  0  0  0
   20.8557  -16.9645  -16.8062 C   0  0  0  0  0  0  0  0  0  0  0  0
   19.9980  -16.4275  -17.8726 N   0  0  0  0  0  0  0  0  0  0  0  0
   24.0719  -20.7719  -14.8355 C   0  0  0  0  0  0  0  0  0  0  0  0
   23.5134  -21.8824  -15.0302 O   0  0  0  0  0  0  0  0  0  0  0  0
   26.0063  -20.2415   -9.7495 C   0  0  0  0  0  0  0  0  0  0  0  0
   25.4067  -20.8328  -11.0052 C   0  0  1  0  0  0  0  0  0  0  0  0
   25.7683  -22.3301  -10.9464 C   0  0  0  0  0  0  0  0  0  0  0  0
   23.9305  -20.6560  -11.0833 C   0  0  0  0  0  0  0  0  0  0  0  0
   23.3892  -21.0586  -12.4127 C   0  0  2  0  0  0  0  0  0  0  0  0
   24.0461  -20.2994  -13.4958 N   0  0  0  0  0  0  0  0  0  0  0  0
   21.9323  -20.8956  -12.5725 C   0  0  0  0  0  0  0  0  0  0  0  0
   21.1453  -21.5829  -11.8808 O   0  0  0  0  0  0  0  0  0  0  0  0
   21.3593  -20.0068  -13.4613 O   0  0  0  0  0  0  0  0  0  0  0  0
  2  1  1  6
  3  2  1  0
  4  5  1  0
  4  3  1  0
  5  6  1  0
  7  6  1  0
  8  2  1  0
  8  9  2  0
 10  8  1  0
 11 10  1  0
 11 12  1  6
 13 12  1  0
 14 15  1  0
 14 13  1  0
 15 16  1  0
 17 11  1  0
 18 17  2  0
 20 19  1  1
 20 22  1  0
 20 21  1  0
 23 22  1  1
 23 24  1  0
 23 25  1  0
 24 17  1  0
 25 27  1  0
 26 25  2  0
M  END
$$$$
