KKL.pdb
     RDKit          3D

 27 26  0  0  1  0  0  0  0  0999 V2000
   27.8241  -21.6611  -16.0029 N   0  0  0  0  0  0  0  0  0  0  0  0
   27.1349  -20.5497  -15.4192 C   0  0  1  0  0  0  0  0  0  0  0  0
   26.7110  -19.5359  -16.4711 C   0  0  0  0  0  0  0  0  0  0  0  0
   27.8399  -19.2604  -17.4317 C   0  0  0  0  0  0  0  0  0  0  0  0
   27.8567  -17.8466  -17.9073 C   0  0  0  0  0  0  0  0  0  0  0  0
   28.9739  -17.5488  -18.8659 C   0  0  0  0  0  0  0  0  0  0  0  0
   28.9365  -16.2071  -19.3788 N   0  0  0  0  0  0  0  0  0  0  0  0
   25.9620  -21.0636  -14.6672 C   0  0  0  0  0  0  0  0  0  0  0  0
   25.2981  -22.0481  -15.1401 O   0  0  0  0  0  0  0  0  0  0  0  0
   25.5641  -20.4816  -13.4323 N   0  0  0  0  0  0  0  0  0  0  0  0
   24.4115  -20.9998  -12.7234 C   0  0  1  0  0  0  0  0  0  0  0  0
   24.5966  -20.6685  -11.2796 C   0  0  0  0  0  0  0  0  0  0  0  0
   23.5128  -21.1631  -10.3752 C   0  0  0  0  0  0  0  0  0  0  0  0
   23.8283  -20.9014   -8.9077 C   0  0  0  0  0  0  0  0  0  0  0  0
   22.6808  -21.4226   -8.0676 C   0  0  0  0  0  0  0  0  0  0  0  0
   22.9987  -21.1675   -6.6551 N   0  0  0  0  0  0  0  0  0  0  0  0
   23.1918  -20.4753  -13.3306 C   0  0  0  0  0  0  0  0  0  0  0  0
   23.0046  -19.2674  -13.6295 O   0  0  0  0  0  0  0  0  0  0  0  0
   19.5567  -20.2732  -17.0632 C   0  0  0  0  0  0  0  0  0  0  0  0
   19.2760  -21.4119  -16.1090 C   0  0  1  0  0  0  0  0  0  0  0  0
   18.7327  -22.5466  -16.9997 C   0  0  0  0  0  0  0  0  0  0  0  0
   20.4874  -21.8636  -15.3708 C   0  0  0  0  0  0  0  0  0  0  0  0
   20.8960  -20.8897  -14.3187 C   0  0  2  0  0  0  0  0  0  0  0  0
   22.1133  -21.3531  -13.6226 N   0  0  0  0  0  0  0  0  0  0  0  0
   19.8744  -20.6083  -13.2932 C   0  0  0  0  0  0  0  0  0  0  0  0
   19.7360  -21.3825  -12.3176 O   0  0  0  0  0  0  0  0  0  0  0  0
   19.0340  -19.5129  -13.3371 O   0  0  0  0  0  0  0  0  0  0  0  0
  2  1  1  6
  3  2  1  0
  4  5  1  0
  4  3  1  0
  5  6  1  0
  7  6  1  0
  8  2  1  0
  8  9  2  0
 10  8  1  0
 11 10  1  0
 11 12  1  1
 13 12  1  0
 14 15  1  0
 14 13  1  0
 15 16  1  0
 17 11  1  0
 18 17  2  0
 20 19  1  6
 20 22  1  0
 20 21  1  0
 23 22  1  6
 23 24  1  0
 23 25  1  0
 24 17  1  0
 25 27  1  0
 26 25  2  0
M  END
$$$$
