PHR.pdb
     RDKit          3D

 29 30  0  0  1  0  0  0  0  0999 V2000
   21.1138  -21.9050  -13.9947 N   0  0  0  0  0  0  0  0  0  0  0  0
   20.0207  -22.6977  -13.5206 C   0  0  0  0  0  0  0  0  0  0  0  0
   19.4066  -21.9486  -12.3410 C   0  0  0  0  0  0  0  0  0  0  0  0
   20.5520  -21.0340  -11.9229 C   0  0  0  0  0  0  0  0  0  0  0  0
   21.1430  -20.6744  -13.2695 C   0  0  1  0  0  0  0  0  0  0  0  0
   22.4805  -20.0890  -13.1465 C   0  0  0  0  0  0  0  0  0  0  0  0
   22.6221  -19.0046  -12.5289 O   0  0  0  0  0  0  0  0  0  0  0  0
   23.6276  -20.7135  -13.7071 N   0  0  0  0  0  0  0  0  0  0  0  0
   24.9708  -20.2250  -13.4870 C   0  0  1  0  0  0  0  0  0  0  0  0
   25.7639  -20.9919  -12.4914 C   0  0  0  0  0  0  0  0  0  0  0  0
   25.3921  -20.8112  -11.0844 C   0  0  0  0  0  0  0  0  0  0  0  0
   24.4284  -20.0230  -10.4984 C   0  0  0  0  0  0  0  0  0  0  0  0
   24.5041  -20.2179   -9.1511 N   0  0  0  0  0  0  0  0  0  0  0  0
   25.4726  -21.0905   -8.8926 C   0  0  0  0  0  0  0  0  0  0  0  0
   26.0089  -21.4486  -10.0615 N   0  0  0  0  0  0  0  0  0  0  0  0
   25.6985  -20.3677  -14.8010 C   0  0  0  0  0  0  0  0  0  0  0  0
   25.3880  -21.3176  -15.5466 O   0  0  0  0  0  0  0  0  0  0  0  0
   28.8292  -16.2518  -20.8832 N   0  0  0  0  0  0  0  0  0  0  0  0
   28.0111  -15.4347  -20.0291 C   0  0  0  0  0  0  0  0  0  0  0  0
   27.1657  -14.6282  -20.5661 N   0  0  0  0  0  0  0  0  0  0  0  0
   28.1236  -15.5067  -18.6246 N   0  0  0  0  0  0  0  0  0  0  0  0
   29.1165  -16.4051  -17.9880 C   0  0  0  0  0  0  0  0  0  0  0  0
   28.5765  -17.7831  -17.8976 C   0  0  0  0  0  0  0  0  0  0  0  0
   27.9031  -18.1965  -16.6639 C   0  0  0  0  0  0  0  0  0  0  0  0
   27.3285  -19.5336  -16.5019 C   0  0  2  0  0  0  0  0  0  0  0  0
   26.6794  -19.4446  -15.1307 N   0  0  0  0  0  0  0  0  0  0  0  0
   28.1116  -20.7321  -16.4380 C   0  0  0  0  0  0  0  0  0  0  0  0
   28.6747  -21.0548  -15.3259 O   0  0  0  0  0  0  0  0  0  0  0  0
   28.3231  -21.6079  -17.4721 O   0  0  0  0  0  0  0  0  0  0  0  0
  1  2  1  0
  3  2  1  0
  4  3  1  0
  5  4  1  0
  5  1  1  0
  5  6  1  1
  7  6  2  0
  8  6  1  0
  9  8  1  0
 10 11  1  0
  9 10  1  1
 11 15  1  0
 12 11  2  0
 12 13  1  0
 13 14  1  0
 15 14  2  0
 16  9  1  0
 16 17  2  0
 19 20  2  0
 19 18  1  0
 21 19  1  0
 22 21  1  0
 23 22  1  0
 24 23  1  0
 25 24  1  1
 25 26  1  0
 26 16  1  0
 27 25  1  0
 28 27  2  0
 29 27  1  0
M  END
$$$$
