PHR.pdb
     RDKit          3D

 29 30  0  0  1  0  0  0  0  0999 V2000
   23.1277  -18.9913  -20.5249 N   0  0  0  0  0  0  0  0  0  0  0  0
   23.5527  -18.6309  -21.8430 C   0  0  0  0  0  0  0  0  0  0  0  0
   24.8109  -19.4416  -22.1420 C   0  0  0  0  0  0  0  0  0  0  0  0
   25.2840  -19.8100  -20.7407 C   0  0  0  0  0  0  0  0  0  0  0  0
   23.9625  -20.0445  -20.0401 C   0  0  1  0  0  0  0  0  0  0  0  0
   24.1069  -20.0649  -18.5822 C   0  0  0  0  0  0  0  0  0  0  0  0
   24.8788  -20.9024  -18.0530 O   0  0  0  0  0  0  0  0  0  0  0  0
   23.3970  -19.1621  -17.7450 N   0  0  0  0  0  0  0  0  0  0  0  0
   23.5455  -19.1472  -16.3066 C   0  0  1  0  0  0  0  0  0  0  0  0
   24.0789  -17.8803  -15.7423 C   0  0  0  0  0  0  0  0  0  0  0  0
   25.4810  -17.5731  -16.0430 C   0  0  0  0  0  0  0  0  0  0  0  0
   26.4376  -18.2910  -16.7232 C   0  0  0  0  0  0  0  0  0  0  0  0
   27.5860  -17.5563  -16.7111 N   0  0  0  0  0  0  0  0  0  0  0  0
   27.3691  -16.4225  -16.0527 C   0  0  0  0  0  0  0  0  0  0  0  0
   26.0966  -16.4333  -15.6491 N   0  0  0  0  0  0  0  0  0  0  0  0
   22.1600  -19.3106  -15.7319 C   0  0  0  0  0  0  0  0  0  0  0  0
   21.1964  -18.8540  -16.3780 O   0  0  0  0  0  0  0  0  0  0  0  0
   18.7614  -24.6879  -10.8185 N   0  0  0  0  0  0  0  0  0  0  0  0
   17.5241  -24.0453  -11.1690 C   0  0  0  0  0  0  0  0  0  0  0  0
   16.4210  -24.5461  -10.7380 N   0  0  0  0  0  0  0  0  0  0  0  0
   17.5065  -22.8848  -11.9711 N   0  0  0  0  0  0  0  0  0  0  0  0
   18.6063  -22.6050  -12.9252 C   0  0  0  0  0  0  0  0  0  0  0  0
   19.6775  -21.8265  -12.2582 C   0  0  0  0  0  0  0  0  0  0  0  0
   20.7776  -21.3017  -13.0710 C   0  0  0  0  0  0  0  0  0  0  0  0
   20.6042  -20.1586  -13.9696 C   0  0  2  0  0  0  0  0  0  0  0  0
   22.0083  -19.9577  -14.5149 N   0  0  0  0  0  0  0  0  0  0  0  0
   20.2138  -18.8526  -13.5269 C   0  0  0  0  0  0  0  0  0  0  0  0
   18.9610  -18.5666  -13.4451 O   0  0  0  0  0  0  0  0  0  0  0  0
   21.0657  -17.8428  -13.1586 O   0  0  0  0  0  0  0  0  0  0  0  0
  1  2  1  0
  3  2  1  0
  4  3  1  0
  5  4  1  0
  5  1  1  0
  5  6  1  1
  7  6  2  0
  8  6  1  0
  9  8  1  0
 10 11  1  0
  9 10  1  1
 11 15  1  0
 12 11  2  0
 12 13  1  0
 13 14  1  0
 15 14  2  0
 16  9  1  0
 16 17  2  0
 19 20  2  0
 19 18  1  0
 21 19  1  0
 22 21  1  0
 23 22  1  0
 24 23  1  0
 25 24  1  1
 25 26  1  0
 26 16  1  0
 27 25  1  0
 28 27  2  0
 29 27  1  0
M  END
$$$$
