PHR.pdb
     RDKit          3D

 29 30  0  0  1  0  0  0  0  0999 V2000
   26.8670  -20.4736  -17.3028 N   0  0  0  0  0  0  0  0  0  0  0  0
   27.9714  -20.3933  -18.2093 C   0  0  0  0  0  0  0  0  0  0  0  0
   28.9523  -19.3793  -17.6269 C   0  0  0  0  0  0  0  0  0  0  0  0
   28.0548  -18.5822  -16.6876 C   0  0  0  0  0  0  0  0  0  0  0  0
   27.1509  -19.6732  -16.1539 C   0  0  1  0  0  0  0  0  0  0  0  0
   25.9582  -19.1303  -15.4986 C   0  0  0  0  0  0  0  0  0  0  0  0
   26.0922  -18.4039  -14.4829 O   0  0  0  0  0  0  0  0  0  0  0  0
   24.6485  -19.4017  -15.9794 N   0  0  0  0  0  0  0  0  0  0  0  0
   23.4600  -18.8520  -15.3657 C   0  0  1  0  0  0  0  0  0  0  0  0
   22.3906  -18.4491  -16.3154 C   0  0  0  0  0  0  0  0  0  0  0  0
   22.6400  -17.2354  -17.0998 C   0  0  0  0  0  0  0  0  0  0  0  0
   23.6658  -16.3199  -17.0467 C   0  0  0  0  0  0  0  0  0  0  0  0
   23.4148  -15.3689  -17.9909 N   0  0  0  0  0  0  0  0  0  0  0  0
   22.2804  -15.6666  -18.6158 C   0  0  0  0  0  0  0  0  0  0  0  0
   21.8125  -16.7948  -18.0768 N   0  0  0  0  0  0  0  0  0  0  0  0
   22.8716  -19.9499  -14.5142 C   0  0  0  0  0  0  0  0  0  0  0  0
   22.7782  -21.0916  -15.0064 O   0  0  0  0  0  0  0  0  0  0  0  0
   28.1754  -20.9806  -10.1435 N   0  0  0  0  0  0  0  0  0  0  0  0
   27.6248  -20.3440  -11.3089 C   0  0  0  0  0  0  0  0  0  0  0  0
   28.4187  -19.9936  -12.2578 N   0  0  0  0  0  0  0  0  0  0  0  0
   26.2396  -20.1022  -11.4223 N   0  0  0  0  0  0  0  0  0  0  0  0
   25.3007  -20.5603  -10.3702 C   0  0  0  0  0  0  0  0  0  0  0  0
   24.1640  -21.2909  -10.9807 C   0  0  0  0  0  0  0  0  0  0  0  0
   22.8846  -20.5955  -11.1421 C   0  0  0  0  0  0  0  0  0  0  0  0
   22.0336  -20.7953  -12.3168 C   0  0  2  0  0  0  0  0  0  0  0  0
   22.4584  -19.6528  -13.2243 N   0  0  0  0  0  0  0  0  0  0  0  0
   20.6038  -20.7013  -12.2869 C   0  0  0  0  0  0  0  0  0  0  0  0
   20.0463  -19.5567  -12.4793 O   0  0  0  0  0  0  0  0  0  0  0  0
   19.7359  -21.7424  -12.0772 O   0  0  0  0  0  0  0  0  0  0  0  0
  1  2  1  0
  3  2  1  0
  4  3  1  0
  5  4  1  0
  5  1  1  0
  5  6  1  6
  7  6  2  0
  8  6  1  0
  9  8  1  0
 10 11  1  0
  9 10  1  6
 11 15  1  0
 12 11  2  0
 12 13  1  0
 13 14  1  0
 15 14  2  0
 16  9  1  0
 16 17  2  0
 19 20  2  0
 19 18  1  0
 21 19  1  0
 22 21  1  0
 23 22  1  0
 24 23  1  0
 25 24  1  1
 25 26  1  0
 26 16  1  0
 27 25  1  0
 28 27  2  0
 29 27  1  0
M  END
$$$$
