PHR.pdb
     RDKit          3D

 29 30  0  0  1  0  0  0  0  0999 V2000
   27.8039  -17.9625  -18.1603 N   0  0  0  0  0  0  0  0  0  0  0  0
   28.9950  -17.5877  -18.8594 C   0  0  0  0  0  0  0  0  0  0  0  0
   29.2717  -16.1266  -18.5155 C   0  0  0  0  0  0  0  0  0  0  0  0
   27.8994  -15.6502  -18.0540 C   0  0  0  0  0  0  0  0  0  0  0  0
   27.3959  -16.8777  -17.3247 C   0  0  1  0  0  0  0  0  0  0  0  0
   25.9515  -16.8233  -17.0849 C   0  0  0  0  0  0  0  0  0  0  0  0
   25.4878  -15.9369  -16.3256 O   0  0  0  0  0  0  0  0  0  0  0  0
   25.0553  -17.7471  -17.6877 N   0  0  0  0  0  0  0  0  0  0  0  0
   23.6306  -17.7306  -17.4400 C   0  0  1  0  0  0  0  0  0  0  0  0
   22.7798  -17.8318  -18.6541 C   0  0  0  0  0  0  0  0  0  0  0  0
   22.6848  -16.6269  -19.4846 C   0  0  0  0  0  0  0  0  0  0  0  0
   23.0656  -15.3277  -19.2391 C   0  0  0  0  0  0  0  0  0  0  0  0
   22.7452  -14.5921  -20.3414 N   0  0  0  0  0  0  0  0  0  0  0  0
   22.1857  -15.3880  -21.2467 C   0  0  0  0  0  0  0  0  0  0  0  0
   22.1495  -16.6177  -20.7283 N   0  0  0  0  0  0  0  0  0  0  0  0
   23.3262  -18.9551  -16.6126 C   0  0  0  0  0  0  0  0  0  0  0  0
   23.8209  -20.0435  -16.9666 O   0  0  0  0  0  0  0  0  0  0  0  0
   27.4411  -20.3667  -12.4907 N   0  0  0  0  0  0  0  0  0  0  0  0
   26.8962  -21.2916  -11.5345 C   0  0  0  0  0  0  0  0  0  0  0  0
   27.5990  -22.3107  -11.1870 N   0  0  0  0  0  0  0  0  0  0  0  0
   25.6141  -21.0961  -10.9794 N   0  0  0  0  0  0  0  0  0  0  0  0
   24.7836  -19.9344  -11.3781 C   0  0  0  0  0  0  0  0  0  0  0  0
   23.7071  -20.3671  -12.3014 C   0  0  0  0  0  0  0  0  0  0  0  0
   23.4867  -19.6051  -13.5332 C   0  0  0  0  0  0  0  0  0  0  0  0
   22.4567  -19.9781  -14.5048 C   0  0  2  0  0  0  0  0  0  0  0  0
   22.5133  -18.8279  -15.4964 N   0  0  0  0  0  0  0  0  0  0  0  0
   21.0647  -20.0903  -14.1828 C   0  0  0  0  0  0  0  0  0  0  0  0
   20.6553  -21.1141  -13.5178 O   0  0  0  0  0  0  0  0  0  0  0  0
   20.0898  -19.1835  -14.5122 O   0  0  0  0  0  0  0  0  0  0  0  0
  1  2  1  0
  3  2  1  0
  4  3  1  0
  5  4  1  0
  5  1  1  0
  5  6  1  6
  7  6  2  0
  8  6  1  0
  9  8  1  0
 10 11  1  0
  9 10  1  6
 11 15  1  0
 12 11  2  0
 12 13  1  0
 13 14  1  0
 15 14  2  0
 16  9  1  0
 16 17  2  0
 19 20  2  0
 19 18  1  0
 21 19  1  0
 22 21  1  0
 23 22  1  0
 24 23  1  0
 25 24  1  1
 25 26  1  0
 26 16  1  0
 27 25  1  0
 28 27  2  0
 29 27  1  0
M  END
$$$$
