PHR.pdb
     RDKit          3D

 29 30  0  0  1  0  0  0  0  0999 V2000
   26.7371  -21.4602  -16.0429 N   0  0  0  0  0  0  0  0  0  0  0  0
   28.0740  -21.5981  -16.5346 C   0  0  0  0  0  0  0  0  0  0  0  0
   28.8934  -20.4672  -15.9188 C   0  0  0  0  0  0  0  0  0  0  0  0
   27.8071  -19.4694  -15.5344 C   0  0  0  0  0  0  0  0  0  0  0  0
   26.7026  -20.4017  -15.0840 C   0  0  1  0  0  0  0  0  0  0  0  0
   25.4078  -19.7215  -14.9965 C   0  0  0  0  0  0  0  0  0  0  0  0
   25.2751  -18.7522  -14.2089 O   0  0  0  0  0  0  0  0  0  0  0  0
   24.2927  -20.1267  -15.7789 N   0  0  0  0  0  0  0  0  0  0  0  0
   23.0263  -19.4287  -15.7572 C   0  0  1  0  0  0  0  0  0  0  0  0
   22.5136  -19.0139  -17.0888 C   0  0  0  0  0  0  0  0  0  0  0  0
   23.3164  -18.0257  -17.8165 C   0  0  0  0  0  0  0  0  0  0  0  0
   24.4230  -17.3025  -17.4347 C   0  0  0  0  0  0  0  0  0  0  0  0
   24.7796  -16.5138  -18.4881 N   0  0  0  0  0  0  0  0  0  0  0  0
   23.9375  -16.7262  -19.4940 C   0  0  0  0  0  0  0  0  0  0  0  0
   23.0534  -17.6401  -19.0874 N   0  0  0  0  0  0  0  0  0  0  0  0
   22.0127  -20.3989  -15.2023 C   0  0  0  0  0  0  0  0  0  0  0  0
   22.0881  -21.5936  -15.5509 O   0  0  0  0  0  0  0  0  0  0  0  0
   21.6102  -20.1872   -7.4037 N   0  0  0  0  0  0  0  0  0  0  0  0
   21.1616  -21.2700   -8.2362 C   0  0  0  0  0  0  0  0  0  0  0  0
   20.8301  -22.3821   -7.6824 N   0  0  0  0  0  0  0  0  0  0  0  0
   21.0816  -21.1280   -9.6375 N   0  0  0  0  0  0  0  0  0  0  0  0
   21.3833  -19.8299  -10.2872 C   0  0  0  0  0  0  0  0  0  0  0  0
   21.2920  -19.9614  -11.7613 C   0  0  0  0  0  0  0  0  0  0  0  0
   20.2284  -20.7930  -12.3300 C   0  0  0  0  0  0  0  0  0  0  0  0
   20.0283  -20.9192  -13.7750 C   0  0  2  0  0  0  0  0  0  0  0  0
   21.0406  -19.9314  -14.3309 N   0  0  0  0  0  0  0  0  0  0  0  0
   18.8065  -20.5753  -14.4406 C   0  0  0  0  0  0  0  0  0  0  0  0
   17.6948  -20.6670  -13.7977 O   0  0  0  0  0  0  0  0  0  0  0  0
   18.6950  -20.1334  -15.7342 O   0  0  0  0  0  0  0  0  0  0  0  0
  1  2  1  0
  3  2  1  0
  4  3  1  0
  5  4  1  0
  5  1  1  0
  5  6  1  6
  7  6  2  0
  8  6  1  0
  9  8  1  0
 10 11  1  0
  9 10  1  6
 11 15  1  0
 12 11  2  0
 12 13  1  0
 13 14  1  0
 15 14  2  0
 16  9  1  0
 16 17  2  0
 19 20  2  0
 19 18  1  0
 21 19  1  0
 22 21  1  0
 23 22  1  0
 24 23  1  0
 25 24  1  1
 25 26  1  0
 26 16  1  0
 27 25  1  0
 28 27  2  0
 29 27  1  0
M  END
$$$$
