PHR.pdb
     RDKit          3D

 29 30  0  0  1  0  0  0  0  0999 V2000
       nan       nan       nan N   0  0  0  0  0  0  0  0  0  0  0  0
       nan       nan       nan C   0  0  0  0  0  0  0  0  0  0  0  0
       nan       nan       nan C   0  0  0  0  0  0  0  0  0  0  0  0
       nan       nan       nan C   0  0  0  0  0  0  0  0  0  0  0  0
       nan       nan       nan C   0  0  0  0  0  0  0  0  0  0  0  0
       nan       nan       nan C   0  0  0  0  0  0  0  0  0  0  0  0
       nan       nan       nan O   0  0  0  0  0  0  0  0  0  0  0  0
       nan       nan       nan N   0  0  0  0  0  0  0  0  0  0  0  0
       nan       nan       nan C   0  0  0  0  0  0  0  0  0  0  0  0
       nan       nan       nan C   0  0  0  0  0  0  0  0  0  0  0  0
       nan       nan       nan C   0  0  0  0  0  0  0  0  0  0  0  0
       nan       nan       nan C   0  0  0  0  0  0  0  0  0  0  0  0
       nan       nan       nan N   0  0  0  0  0  0  0  0  0  0  0  0
       nan       nan       nan C   0  0  0  0  0  0  0  0  0  0  0  0
       nan       nan       nan N   0  0  0  0  0  0  0  0  0  0  0  0
       nan       nan       nan C   0  0  0  0  0  0  0  0  0  0  0  0
       nan       nan       nan O   0  0  0  0  0  0  0  0  0  0  0  0
       nan       nan       nan N   0  0  0  0  0  0  0  0  0  0  0  0
       nan       nan       nan C   0  0  0  0  0  0  0  0  0  0  0  0
       nan       nan       nan N   0  0  0  0  0  0  0  0  0  0  0  0
       nan       nan       nan N   0  0  0  0  0  0  0  0  0  0  0  0
       nan       nan       nan C   0  0  0  0  0  0  0  0  0  0  0  0
       nan       nan       nan C   0  0  0  0  0  0  0  0  0  0  0  0
       nan       nan       nan C   0  0  0  0  0  0  0  0  0  0  0  0
       nan       nan       nan C   0  0  0  0  0  0  0  0  0  0  0  0
       nan       nan       nan N   0  0  0  0  0  0  0  0  0  0  0  0
       nan       nan       nan C   0  0  0  0  0  0  0  0  0  0  0  0
       nan       nan       nan O   0  0  0  0  0  0  0  0  0  0  0  0
       nan       nan       nan O   0  0  0  0  0  0  0  0  0  0  0  0
  1  2  1  0
  3  2  1  0
  4  3  1  0
  5  4  1  0
  5  1  1  0
  5  6  1  6
  7  6  2  0
  8  6  1  0
  9  8  1  0
 10 11  1  0
  9 10  1  6
 11 15  1  0
 12 11  2  0
 12 13  1  0
 13 14  1  0
 15 14  2  0
 16  9  1  0
 16 17  2  0
 19 20  2  0
 19 18  1  0
 21 19  1  0
 22 21  1  0
 23 22  1  0
 24 23  1  0
 25 24  1  6
 25 26  1  0
 26 16  1  0
 27 25  1  0
 28 27  2  0
 29 27  1  0
M  END
$$$$
