PHR.pdb
     RDKit          3D

 29 30  0  0  1  0  0  0  0  0999 V2000
   31.0505  -22.5713  -11.2869 N   0  0  0  0  0  0  0  0  0  0  0  0
   32.2790  -22.7677  -10.5798 C   0  0  0  0  0  0  0  0  0  0  0  0
   32.0519  -22.2835   -9.1502 C   0  0  0  0  0  0  0  0  0  0  0  0
   30.8496  -21.3623   -9.3210 C   0  0  0  0  0  0  0  0  0  0  0  0
   30.0559  -22.1119  -10.3698 C   0  0  1  0  0  0  0  0  0  0  0  0
   29.0233  -21.2735  -10.9841 C   0  0  0  0  0  0  0  0  0  0  0  0
   28.1031  -20.8079  -10.2672 O   0  0  0  0  0  0  0  0  0  0  0  0
   29.0311  -20.9696  -12.3725 N   0  0  0  0  0  0  0  0  0  0  0  0
   28.1655  -19.9711  -12.9600 C   0  0  1  0  0  0  0  0  0  0  0  0
   28.5483  -19.5325  -14.3271 C   0  0  0  0  0  0  0  0  0  0  0  0
   27.8017  -18.3976  -14.8796 C   0  0  0  0  0  0  0  0  0  0  0  0
   26.8640  -17.5685  -14.3082 C   0  0  0  0  0  0  0  0  0  0  0  0
   26.4722  -16.6758  -15.2612 N   0  0  0  0  0  0  0  0  0  0  0  0
   27.1311  -16.9263  -16.3878 C   0  0  0  0  0  0  0  0  0  0  0  0
   27.9345  -17.9672  -16.1565 N   0  0  0  0  0  0  0  0  0  0  0  0
   26.8043  -20.6088  -13.0910 C   0  0  0  0  0  0  0  0  0  0  0  0
   26.7336  -21.7501  -13.5880 O   0  0  0  0  0  0  0  0  0  0  0  0
   19.9676  -21.5381  -10.4916 N   0  0  0  0  0  0  0  0  0  0  0  0
   20.3441  -21.8786   -9.1466 C   0  0  0  0  0  0  0  0  0  0  0  0
   19.6109  -22.7037   -8.4871 N   0  0  0  0  0  0  0  0  0  0  0  0
   21.4955  -21.3243   -8.5489 N   0  0  0  0  0  0  0  0  0  0  0  0
   22.3227  -20.3298   -9.2735 C   0  0  0  0  0  0  0  0  0  0  0  0
   22.8846  -20.9319  -10.5065 C   0  0  0  0  0  0  0  0  0  0  0  0
   23.7915  -20.1303  -11.3320 C   0  0  0  0  0  0  0  0  0  0  0  0
   24.3575  -20.6379  -12.5834 C   0  0  2  0  0  0  0  0  0  0  0  0
   25.6886  -19.9086  -12.6576 N   0  0  0  0  0  0  0  0  0  0  0  0
   23.7673  -20.4145  -13.8702 C   0  0  0  0  0  0  0  0  0  0  0  0
   24.1131  -19.3750  -14.5469 O   0  0  0  0  0  0  0  0  0  0  0  0
   22.8472  -21.2267  -14.4823 O   0  0  0  0  0  0  0  0  0  0  0  0
  1  2  1  0
  3  2  1  0
  4  3  1  0
  5  4  1  0
  5  1  1  0
  5  6  1  6
  7  6  2  0
  8  6  1  0
  9  8  1  0
 10 11  1  0
  9 10  1  6
 11 15  1  0
 12 11  2  0
 12 13  1  0
 13 14  1  0
 15 14  2  0
 16  9  1  0
 16 17  2  0
 19 20  2  0
 19 18  1  0
 21 19  1  0
 22 21  1  0
 23 22  1  0
 24 23  1  0
 25 24  1  1
 25 26  1  0
 26 16  1  0
 27 25  1  0
 28 27  2  0
 29 27  1  0
M  END
$$$$
