PHR.pdb
     RDKit          3D

 29 30  0  0  1  0  0  0  0  0999 V2000
   27.7974  -21.6965  -17.4535 N   0  0  0  0  0  0  0  0  0  0  0  0
   28.8274  -22.6866  -17.5357 C   0  0  0  0  0  0  0  0  0  0  0  0
   28.9928  -23.2736  -16.1364 C   0  0  0  0  0  0  0  0  0  0  0  0
   28.3883  -22.1782  -15.2659 C   0  0  0  0  0  0  0  0  0  0  0  0
   27.2408  -21.7143  -16.1378 C   0  0  1  0  0  0  0  0  0  0  0  0
   26.7040  -20.4225  -15.7022 C   0  0  0  0  0  0  0  0  0  0  0  0
   26.0471  -20.3590  -14.6337 O   0  0  0  0  0  0  0  0  0  0  0  0
   26.9049  -19.2339  -16.4552 N   0  0  0  0  0  0  0  0  0  0  0  0
   26.3851  -17.9490  -16.0428 C   0  0  1  0  0  0  0  0  0  0  0  0
   27.1284  -16.7728  -16.5645 C   0  0  0  0  0  0  0  0  0  0  0  0
   26.5959  -15.4545  -16.2053 C   0  0  0  0  0  0  0  0  0  0  0  0
   25.4687  -15.0961  -15.5022 C   0  0  0  0  0  0  0  0  0  0  0  0
   25.4302  -13.7340  -15.4576 N   0  0  0  0  0  0  0  0  0  0  0  0
   26.4853  -13.2486  -16.1035 C   0  0  0  0  0  0  0  0  0  0  0  0
   27.1894  -14.2890  -16.5552 N   0  0  0  0  0  0  0  0  0  0  0  0
   24.9912  -17.8490  -16.6117 C   0  0  0  0  0  0  0  0  0  0  0  0
   24.7966  -18.2647  -17.7709 O   0  0  0  0  0  0  0  0  0  0  0  0
   20.5906  -21.6257  -12.1488 N   0  0  0  0  0  0  0  0  0  0  0  0
   19.6662  -21.1959  -13.1624 C   0  0  0  0  0  0  0  0  0  0  0  0
   18.4063  -21.2310  -12.9081 N   0  0  0  0  0  0  0  0  0  0  0  0
   20.1203  -20.7412  -14.4183 N   0  0  0  0  0  0  0  0  0  0  0  0
   21.5704  -20.6504  -14.7136 C   0  0  0  0  0  0  0  0  0  0  0  0
   21.9799  -19.2308  -14.8385 C   0  0  0  0  0  0  0  0  0  0  0  0
   22.1239  -18.6542  -16.1776 C   0  0  0  0  0  0  0  0  0  0  0  0
   22.5693  -17.2751  -16.3869 C   0  0  2  0  0  0  0  0  0  0  0  0
   23.9836  -17.3024  -15.8315 N   0  0  0  0  0  0  0  0  0  0  0  0
   21.9680  -16.1410  -15.7494 C   0  0  0  0  0  0  0  0  0  0  0  0
   20.7967  -15.7591  -16.1236 O   0  0  0  0  0  0  0  0  0  0  0  0
   22.5259  -15.3997  -14.7393 O   0  0  0  0  0  0  0  0  0  0  0  0
  1  2  1  0
  3  2  1  0
  4  3  1  0
  5  4  1  0
  5  1  1  0
  5  6  1  1
  7  6  2  0
  8  6  1  0
  9  8  1  0
 10 11  1  0
  9 10  1  6
 11 15  1  0
 12 11  2  0
 12 13  1  0
 13 14  1  0
 15 14  2  0
 16  9  1  0
 16 17  2  0
 19 20  2  0
 19 18  1  0
 21 19  1  0
 22 21  1  0
 23 22  1  0
 24 23  1  0
 25 24  1  1
 25 26  1  0
 26 16  1  0
 27 25  1  0
 28 27  2  0
 29 27  1  0
M  END
$$$$
