PHR.pdb
     RDKit          3D

 29 30  0  0  1  0  0  0  0  0999 V2000
   27.2193  -12.4933  -17.1702 N   0  0  0  0  0  0  0  0  0  0  0  0
   27.7358  -13.8252  -17.0855 C   0  0  0  0  0  0  0  0  0  0  0  0
   28.8214  -13.8141  -16.0126 C   0  0  0  0  0  0  0  0  0  0  0  0
   29.1827  -12.3346  -15.9508 C   0  0  0  0  0  0  0  0  0  0  0  0
   27.8250  -11.6954  -16.1515 C   0  0  1  0  0  0  0  0  0  0  0  0
   27.9292  -10.2745  -16.4932 C   0  0  0  0  0  0  0  0  0  0  0  0
   28.4159   -9.4752  -15.6556 O   0  0  0  0  0  0  0  0  0  0  0  0
   27.4945   -9.7707  -17.7492 N   0  0  0  0  0  0  0  0  0  0  0  0
   27.6199   -8.3785  -18.1198 C   0  0  1  0  0  0  0  0  0  0  0  0
   28.3480   -8.1291  -19.3910 C   0  0  0  0  0  0  0  0  0  0  0  0
   29.7404   -8.5861  -19.4441 C   0  0  0  0  0  0  0  0  0  0  0  0
   30.7587   -8.4906  -18.5235 C   0  0  0  0  0  0  0  0  0  0  0  0
   31.8633   -9.0701  -19.0738 N   0  0  0  0  0  0  0  0  0  0  0  0
   31.5607   -9.5138  -20.2894 C   0  0  0  0  0  0  0  0  0  0  0  0
   30.2775   -9.2210  -20.5126 N   0  0  0  0  0  0  0  0  0  0  0  0
   26.2173   -7.8649  -18.3333 C   0  0  0  0  0  0  0  0  0  0  0  0
   25.3093   -8.6957  -18.5325 O   0  0  0  0  0  0  0  0  0  0  0  0
   20.8846   -8.6418  -13.5221 N   0  0  0  0  0  0  0  0  0  0  0  0
   21.1550   -9.1325  -14.8460 C   0  0  0  0  0  0  0  0  0  0  0  0
   20.8627  -10.3527  -15.1271 N   0  0  0  0  0  0  0  0  0  0  0  0
   21.7306   -8.3003  -15.8290 N   0  0  0  0  0  0  0  0  0  0  0  0
   22.0538   -6.8845  -15.5303 C   0  0  0  0  0  0  0  0  0  0  0  0
   22.6068   -6.2201  -16.7350 C   0  0  0  0  0  0  0  0  0  0  0  0
   23.9478   -6.5929  -17.1923 C   0  0  0  0  0  0  0  0  0  0  0  0
   24.5564   -5.9982  -18.3840 C   0  0  2  0  0  0  0  0  0  0  0  0
   25.9893   -6.4974  -18.3007 N   0  0  0  0  0  0  0  0  0  0  0  0
   24.6923   -4.5858  -18.5856 C   0  0  0  0  0  0  0  0  0  0  0  0
   25.8438   -4.0357  -18.4144 O   0  0  0  0  0  0  0  0  0  0  0  0
   23.6901   -3.7300  -18.9654 O   0  0  0  0  0  0  0  0  0  0  0  0
  1  2  1  0
  3  2  1  0
  4  3  1  0
  5  4  1  0
  5  1  1  0
  5  6  1  6
  7  6  2  0
  8  6  1  0
  9  8  1  0
 10 11  1  0
  9 10  1  6
 11 15  1  0
 12 11  2  0
 12 13  1  0
 13 14  1  0
 15 14  2  0
 16  9  1  0
 16 17  2  0
 19 20  2  0
 19 18  1  0
 21 19  1  0
 22 21  1  0
 23 22  1  0
 24 23  1  0
 25 24  1  1
 25 26  1  0
 26 16  1  0
 27 25  1  0
 28 27  2  0
 29 27  1  0
M  END
$$$$
