AWC.pdb
     RDKit          3D

 26 27  0  0  1  0  0  0  0  0999 V2000
   29.2247  -22.8280  -16.7060 C   0  0  0  0  0  0  0  0  0  0  0  0
   27.9090  -22.0894  -16.7856 C   0  0  2  0  0  0  0  0  0  0  0  0
   28.1941  -20.6900  -17.0438 N   0  0  0  0  0  0  0  0  0  0  0  0
   27.0961  -22.2793  -15.5683 C   0  0  0  0  0  0  0  0  0  0  0  0
   26.8004  -23.4737  -15.2450 O   0  0  0  0  0  0  0  0  0  0  0  0
   26.6671  -21.1970  -14.7969 N   0  0  0  0  0  0  0  0  0  0  0  0
   25.8840  -21.3755  -13.5282 C   0  0  1  0  0  0  0  0  0  0  0  0
   26.4974  -20.3398  -12.6547 C   0  0  0  0  0  0  0  0  0  0  0  0
   27.5539  -20.7110  -11.7343 C   0  0  0  0  0  0  0  0  0  0  0  0
   28.8827  -21.0046  -11.8437 C   0  0  0  0  0  0  0  0  0  0  0  0
   29.4096  -21.2632  -10.6346 N   0  0  0  0  0  0  0  0  0  0  0  0
   28.4449  -21.1457   -9.7031 C   0  0  0  0  0  0  0  0  0  0  0  0
   28.4571  -21.2948   -8.3100 C   0  0  0  0  0  0  0  0  0  0  0  0
   27.2996  -21.0969   -7.5973 C   0  0  0  0  0  0  0  0  0  0  0  0
   26.1157  -20.7544   -8.2089 C   0  0  0  0  0  0  0  0  0  0  0  0
   26.1486  -20.6178   -9.5825 C   0  0  0  0  0  0  0  0  0  0  0  0
   27.2869  -20.8047  -10.3529 C   0  0  0  0  0  0  0  0  0  0  0  0
   24.5037  -20.9817  -13.9086 C   0  0  0  0  0  0  0  0  0  0  0  0
   24.3701  -20.0344  -14.7756 O   0  0  0  0  0  0  0  0  0  0  0  0
   23.3159  -21.5750  -13.3944 N   0  0  0  0  0  0  0  0  0  0  0  0
   21.9913  -21.2146  -13.8657 C   0  0  1  0  0  0  0  0  0  0  0  0
   21.0496  -22.4077  -13.7660 C   0  0  0  0  0  0  0  0  0  0  0  0
   20.8274  -22.9782  -12.0598 S   0  0  0  0  0  0  0  0  0  0  0  0
   21.4549  -20.0859  -13.1178 C   0  0  0  0  0  0  0  0  0  0  0  0
   20.2991  -19.4445  -13.5950 O   0  0  0  0  0  0  0  0  0  0  0  0
   21.9558  -19.6268  -12.0492 O   0  0  0  0  0  0  0  0  0  0  0  0
  2  1  1  1
  3  2  1  0
  4  2  1  0
  4  5  2  0
  6  4  1  0
  7  6  1  0
  7  8  1  1
  9  8  1  0
  9 17  1  0
 10 11  1  0
 10  9  2  0
 11 12  1  0
 12 17  2  0
 12 13  1  0
 13 14  2  0
 14 15  1  0
 16 15  2  0
 17 16  1  0
 18  7  1  0
 19 18  2  0
 20 18  1  0
 21 20  1  0
 21 24  1  0
 21 22  1  1
 23 22  1  0
 24 25  1  0
 26 24  2  0
M  END
$$$$
