AWC.pdb
     RDKit          3D

 26 27  0  0  1  0  0  0  0  0999 V2000
   28.5234  -19.3466  -14.8553 C   0  0  0  0  0  0  0  0  0  0  0  0
   28.9038  -20.6557  -14.2038 C   0  0  2  0  0  0  0  0  0  0  0  0
   29.0377  -21.6550  -15.2477 N   0  0  0  0  0  0  0  0  0  0  0  0
   27.9338  -21.0571  -13.1663 C   0  0  0  0  0  0  0  0  0  0  0  0
   26.9318  -21.7463  -13.5402 O   0  0  0  0  0  0  0  0  0  0  0  0
   28.1032  -20.7003  -11.8268 N   0  0  0  0  0  0  0  0  0  0  0  0
   27.1248  -21.0989  -10.7597 C   0  0  1  0  0  0  0  0  0  0  0  0
   27.7874  -20.5678   -9.5387 C   0  0  0  0  0  0  0  0  0  0  0  0
   27.0465  -20.4925   -8.2951 C   0  0  0  0  0  0  0  0  0  0  0  0
   25.7473  -20.6840   -7.9221 C   0  0  0  0  0  0  0  0  0  0  0  0
   25.6055  -20.5043   -6.5976 N   0  0  0  0  0  0  0  0  0  0  0  0
   26.8032  -20.1924   -6.0682 C   0  0  0  0  0  0  0  0  0  0  0  0
   27.2111  -19.9208   -4.7556 C   0  0  0  0  0  0  0  0  0  0  0  0
   28.5314  -19.6394   -4.5009 C   0  0  0  0  0  0  0  0  0  0  0  0
   29.4776  -19.6140   -5.4993 C   0  0  0  0  0  0  0  0  0  0  0  0
   29.0326  -19.8875   -6.7774 C   0  0  0  0  0  0  0  0  0  0  0  0
   27.7134  -20.1782   -7.0932 C   0  0  0  0  0  0  0  0  0  0  0  0
   25.9124  -20.3032  -11.0793 C   0  0  0  0  0  0  0  0  0  0  0  0
   26.0804  -19.1759  -11.6859 O   0  0  0  0  0  0  0  0  0  0  0  0
   24.5776  -20.6933  -10.7736 N   0  0  0  0  0  0  0  0  0  0  0  0
   23.4316  -20.2327  -11.5359 C   0  0  1  0  0  0  0  0  0  0  0  0
   23.5797  -20.6182  -13.0021 C   0  0  0  0  0  0  0  0  0  0  0  0
   22.0774  -20.2917  -13.9627 S   0  0  0  0  0  0  0  0  0  0  0  0
   22.1899  -20.7700  -10.9970 C   0  0  0  0  0  0  0  0  0  0  0  0
   20.9777  -20.1441  -11.3345 O   0  0  0  0  0  0  0  0  0  0  0  0
   22.1126  -21.7774  -10.2337 O   0  0  0  0  0  0  0  0  0  0  0  0
  2  1  1  6
  3  2  1  0
  4  2  1  0
  4  5  2  0
  6  4  1  0
  7  6  1  0
  7  8  1  1
  9  8  1  0
  9 17  1  0
 10 11  1  0
 10  9  2  0
 11 12  1  0
 12 17  2  0
 12 13  1  0
 13 14  2  0
 14 15  1  0
 16 15  2  0
 17 16  1  0
 18  7  1  0
 19 18  2  0
 20 18  1  0
 21 20  1  0
 21 24  1  0
 21 22  1  6
 23 22  1  0
 24 25  1  0
 26 24  2  0
M  END
$$$$
