AWC.pdb
     RDKit          3D

 26 27  0  0  1  0  0  0  0  0999 V2000
   29.2302  -22.7383  -16.9303 C   0  0  0  0  0  0  0  0  0  0  0  0
   28.0367  -21.8351  -16.7233 C   0  0  2  0  0  0  0  0  0  0  0  0
   28.5100  -20.4634  -16.6995 N   0  0  0  0  0  0  0  0  0  0  0  0
   27.2835  -22.1882  -15.5041 C   0  0  0  0  0  0  0  0  0  0  0  0
   26.7756  -23.3535  -15.4495 O   0  0  0  0  0  0  0  0  0  0  0  0
   27.1317  -21.2861  -14.4489 N   0  0  0  0  0  0  0  0  0  0  0  0
   26.3696  -21.6301  -13.2017 C   0  0  1  0  0  0  0  0  0  0  0  0
   27.0778  -20.8055  -12.1864 C   0  0  0  0  0  0  0  0  0  0  0  0
   26.4581  -20.5647  -10.8983 C   0  0  0  0  0  0  0  0  0  0  0  0
   25.1860  -20.3417  -10.4557 C   0  0  0  0  0  0  0  0  0  0  0  0
   25.1693  -20.2033   -9.1189 N   0  0  0  0  0  0  0  0  0  0  0  0
   26.4247  -20.3321   -8.6504 C   0  0  0  0  0  0  0  0  0  0  0  0
   26.9562  -20.2861   -7.3548 C   0  0  0  0  0  0  0  0  0  0  0  0
   28.3051  -20.4678   -7.1690 C   0  0  0  0  0  0  0  0  0  0  0  0
   29.1623  -20.6952   -8.2209 C   0  0  0  0  0  0  0  0  0  0  0  0
   28.5967  -20.7328   -9.4799 C   0  0  0  0  0  0  0  0  0  0  0  0
   27.2431  -20.5567   -9.7270 C   0  0  0  0  0  0  0  0  0  0  0  0
   25.0123  -21.0847  -13.4573 C   0  0  0  0  0  0  0  0  0  0  0  0
   24.9260  -19.8603  -13.8576 O   0  0  0  0  0  0  0  0  0  0  0  0
   23.7987  -21.8128  -13.3011 N   0  0  0  0  0  0  0  0  0  0  0  0
   22.5267  -21.3367  -13.8129 C   0  0  1  0  0  0  0  0  0  0  0  0
   21.5993  -22.5095  -14.1042 C   0  0  0  0  0  0  0  0  0  0  0  0
   21.2211  -23.4824  -12.6222 S   0  0  0  0  0  0  0  0  0  0  0  0
   21.8948  -20.4150  -12.8791 C   0  0  0  0  0  0  0  0  0  0  0  0
   22.4139  -20.3066  -11.5777 O   0  0  0  0  0  0  0  0  0  0  0  0
   20.8949  -19.6872  -13.1513 O   0  0  0  0  0  0  0  0  0  0  0  0
  2  1  1  1
  3  2  1  0
  4  2  1  0
  4  5  2  0
  6  4  1  0
  7  6  1  0
  7  8  1  1
  9  8  1  0
  9 17  1  0
 10 11  1  0
 10  9  2  0
 11 12  1  0
 12 17  2  0
 12 13  1  0
 13 14  2  0
 14 15  1  0
 16 15  2  0
 17 16  1  0
 18  7  1  0
 19 18  2  0
 20 18  1  0
 21 20  1  0
 21 24  1  0
 21 22  1  1
 23 22  1  0
 24 25  1  0
 26 24  2  0
M  END
$$$$
