AWC.pdb
     RDKit          3D

 26 27  0  0  1  0  0  0  0  0999 V2000
   20.4687  -13.8202  -18.7174 C   0  0  0  0  0  0  0  0  0  0  0  0
   19.5121  -12.7280  -18.2990 C   0  0  2  0  0  0  0  0  0  0  0  0
   19.0250  -12.0731  -19.4990 N   0  0  0  0  0  0  0  0  0  0  0  0
   20.1379  -11.7783  -17.3582 C   0  0  0  0  0  0  0  0  0  0  0  0
   20.5388  -12.2410  -16.2429 O   0  0  0  0  0  0  0  0  0  0  0  0
   20.2887  -10.4261  -17.6732 N   0  0  0  0  0  0  0  0  0  0  0  0
   20.7605   -9.4153  -16.6681 C   0  0  1  0  0  0  0  0  0  0  0  0
   21.6148   -8.5372  -17.5114 C   0  0  0  0  0  0  0  0  0  0  0  0
   22.5881   -7.6655  -16.8838 C   0  0  0  0  0  0  0  0  0  0  0  0
   23.9509   -7.6095  -16.8251 C   0  0  0  0  0  0  0  0  0  0  0  0
   24.3486   -6.5464  -16.1053 N   0  0  0  0  0  0  0  0  0  0  0  0
   23.2620   -5.8786  -15.6750 C   0  0  0  0  0  0  0  0  0  0  0  0
   23.1133   -4.7145  -14.9095 C   0  0  0  0  0  0  0  0  0  0  0  0
   21.8534   -4.2450  -14.6280 C   0  0  0  0  0  0  0  0  0  0  0  0
   20.7200   -4.8840  -15.0751 C   0  0  0  0  0  0  0  0  0  0  0  0
   20.9122   -6.0268  -15.8257 C   0  0  0  0  0  0  0  0  0  0  0  0
   22.1592   -6.5464  -16.1410 C   0  0  0  0  0  0  0  0  0  0  0  0
   19.5175   -8.7050  -16.2736 C   0  0  0  0  0  0  0  0  0  0  0  0
   18.6062   -8.5501  -17.1750 O   0  0  0  0  0  0  0  0  0  0  0  0
   19.2518   -8.1880  -14.9739 N   0  0  0  0  0  0  0  0  0  0  0  0
   17.9880   -7.5686  -14.6192 C   0  0  1  0  0  0  0  0  0  0  0  0
   17.0595   -8.5891  -13.9735 C   0  0  0  0  0  0  0  0  0  0  0  0
   17.7678   -9.3247  -12.4757 S   0  0  0  0  0  0  0  0  0  0  0  0
   18.1887   -6.4352  -13.7270 C   0  0  0  0  0  0  0  0  0  0  0  0
   17.0931   -5.6086  -13.4244 O   0  0  0  0  0  0  0  0  0  0  0  0
   19.2936   -6.1285  -13.1898 O   0  0  0  0  0  0  0  0  0  0  0  0
  2  1  1  6
  3  2  1  0
  4  2  1  0
  4  5  2  0
  6  4  1  0
  7  6  1  0
  7  8  1  6
  9  8  1  0
  9 17  1  0
 10 11  1  0
 10  9  2  0
 11 12  1  0
 12 17  2  0
 12 13  1  0
 13 14  2  0
 14 15  1  0
 16 15  2  0
 17 16  1  0
 18  7  1  0
 19 18  2  0
 20 18  1  0
 21 20  1  0
 21 24  1  0
 21 22  1  1
 23 22  1  0
 24 25  1  0
 26 24  2  0
M  END
$$$$
