AWC.pdb
     RDKit          3D

 26 27  0  0  1  0  0  0  0  0999 V2000
   28.9855  -22.4541  -16.6033 C   0  0  0  0  0  0  0  0  0  0  0  0
   27.6334  -21.7911  -16.4803 C   0  0  2  0  0  0  0  0  0  0  0  0
   27.8159  -20.3621  -16.6557 N   0  0  0  0  0  0  0  0  0  0  0  0
   26.9740  -22.1178  -15.2008 C   0  0  0  0  0  0  0  0  0  0  0  0
   26.7551  -23.3468  -14.9548 O   0  0  0  0  0  0  0  0  0  0  0  0
   26.6043  -21.1242  -14.2917 N   0  0  0  0  0  0  0  0  0  0  0  0
   25.8984  -21.4367  -13.0038 C   0  0  1  0  0  0  0  0  0  0  0  0
   26.4345  -20.3765  -12.1089 C   0  0  0  0  0  0  0  0  0  0  0  0
   27.5235  -20.6846  -11.2033 C   0  0  0  0  0  0  0  0  0  0  0  0
   28.8313  -21.0515  -11.3415 C   0  0  0  0  0  0  0  0  0  0  0  0
   29.4124  -21.1885  -10.1373 N   0  0  0  0  0  0  0  0  0  0  0  0
   28.5056  -20.9153   -9.1807 C   0  0  0  0  0  0  0  0  0  0  0  0
   28.5877  -20.8975   -7.7821 C   0  0  0  0  0  0  0  0  0  0  0  0
   27.4798  -20.5616   -7.0426 C   0  0  0  0  0  0  0  0  0  0  0  0
   26.2794  -20.2390   -7.6323 C   0  0  0  0  0  0  0  0  0  0  0  0
   26.2428  -20.2691   -9.0122 C   0  0  0  0  0  0  0  0  0  0  0  0
   27.3288  -20.6001   -9.8093 C   0  0  0  0  0  0  0  0  0  0  0  0
   24.4694  -21.1790  -13.3146 C   0  0  0  0  0  0  0  0  0  0  0  0
   24.1887  -20.1241  -14.0040 O   0  0  0  0  0  0  0  0  0  0  0  0
   23.3856  -22.0117  -12.9155 N   0  0  0  0  0  0  0  0  0  0  0  0
   22.0048  -21.7177  -13.2526 C   0  0  1  0  0  0  0  0  0  0  0  0
   21.1533  -22.9764  -13.1481 C   0  0  0  0  0  0  0  0  0  0  0  0
   19.3784  -22.6277  -13.2673 S   0  0  0  0  0  0  0  0  0  0  0  0
   21.4644  -20.6716  -12.3955 C   0  0  0  0  0  0  0  0  0  0  0  0
   20.5936  -19.7203  -12.9540 O   0  0  0  0  0  0  0  0  0  0  0  0
   21.7203  -20.5481  -11.1615 O   0  0  0  0  0  0  0  0  0  0  0  0
  2  1  1  1
  3  2  1  0
  4  2  1  0
  4  5  2  0
  6  4  1  0
  7  6  1  0
  7  8  1  1
  9  8  1  0
  9 17  1  0
 10 11  1  0
 10  9  2  0
 11 12  1  0
 12 17  2  0
 12 13  1  0
 13 14  2  0
 14 15  1  0
 16 15  2  0
 17 16  1  0
 18  7  1  0
 19 18  2  0
 20 18  1  0
 21 20  1  0
 21 24  1  0
 21 22  1  1
 23 22  1  0
 24 25  1  0
 26 24  2  0
M  END
$$$$
