AWC.pdb
     RDKit          3D

 26 27  0  0  1  0  0  0  0  0999 V2000
   25.1117   -7.7770  -21.8537 C   0  0  0  0  0  0  0  0  0  0  0  0
   25.9461   -8.6590  -20.9543 C   0  0  2  0  0  0  0  0  0  0  0  0
   26.4320   -9.7751  -21.7446 N   0  0  0  0  0  0  0  0  0  0  0  0
   25.1931   -9.1019  -19.7646 C   0  0  0  0  0  0  0  0  0  0  0  0
   24.3544  -10.0454  -19.9232 O   0  0  0  0  0  0  0  0  0  0  0  0
   25.3892   -8.5153  -18.5125 N   0  0  0  0  0  0  0  0  0  0  0  0
   24.7422   -9.0474  -17.2663 C   0  0  1  0  0  0  0  0  0  0  0  0
   25.8800   -9.0209  -16.3088 C   0  0  0  0  0  0  0  0  0  0  0  0
   26.7100  -10.1983  -16.1477 C   0  0  0  0  0  0  0  0  0  0  0  0
   28.0460  -10.4671  -16.2305 C   0  0  0  0  0  0  0  0  0  0  0  0
   28.2847  -11.7607  -15.9543 N   0  0  0  0  0  0  0  0  0  0  0  0
   27.1167  -12.3725  -15.6830 C   0  0  0  0  0  0  0  0  0  0  0  0
   26.8041  -13.6916  -15.3290 C   0  0  0  0  0  0  0  0  0  0  0  0
   25.4958  -14.0379  -15.0933 C   0  0  0  0  0  0  0  0  0  0  0  0
   24.4703  -13.1262  -15.1940 C   0  0  0  0  0  0  0  0  0  0  0  0
   24.8229  -11.8382  -15.5451 C   0  0  0  0  0  0  0  0  0  0  0  0
   26.1257  -11.4319  -15.7942 C   0  0  0  0  0  0  0  0  0  0  0  0
   23.7449   -8.0047  -16.9152 C   0  0  0  0  0  0  0  0  0  0  0  0
   24.0984   -6.7703  -17.0502 O   0  0  0  0  0  0  0  0  0  0  0  0
   22.4252   -8.2637  -16.4476 N   0  0  0  0  0  0  0  0  0  0  0  0
   21.4508   -7.2111  -16.2258 C   0  0  1  0  0  0  0  0  0  0  0  0
   20.0547   -7.6932  -16.5985 C   0  0  0  0  0  0  0  0  0  0  0  0
   19.5369   -9.1382  -15.6342 S   0  0  0  0  0  0  0  0  0  0  0  0
   21.4734   -6.7549  -14.8430 C   0  0  0  0  0  0  0  0  0  0  0  0
   20.6983   -5.6387  -14.4848 O   0  0  0  0  0  0  0  0  0  0  0  0
   22.1485   -7.2949  -13.9176 O   0  0  0  0  0  0  0  0  0  0  0  0
  2  1  1  6
  3  2  1  0
  4  2  1  0
  4  5  2  0
  6  4  1  0
  7  6  1  0
  7  8  1  1
  9  8  1  0
  9 17  1  0
 10 11  1  0
 10  9  2  0
 11 12  1  0
 12 17  2  0
 12 13  1  0
 13 14  2  0
 14 15  1  0
 16 15  2  0
 17 16  1  0
 18  7  1  0
 19 18  2  0
 20 18  1  0
 21 20  1  0
 21 24  1  0
 21 22  1  1
 23 22  1  0
 24 25  1  0
 26 24  2  0
M  END
$$$$
