AWC.pdb
     RDKit          3D

 26 27  0  0  1  0  0  0  0  0999 V2000
   20.3831  -20.2905  -15.0162 C   0  0  0  0  0  0  0  0  0  0  0  0
   21.2910  -21.0282  -14.0599 C   0  0  2  0  0  0  0  0  0  0  0  0
   20.4870  -21.4927  -12.9446 N   0  0  0  0  0  0  0  0  0  0  0  0
   22.4255  -20.1919  -13.6216 C   0  0  0  0  0  0  0  0  0  0  0  0
   22.2059  -19.3524  -12.6912 O   0  0  0  0  0  0  0  0  0  0  0  0
   23.6916  -20.3129  -14.1985 N   0  0  0  0  0  0  0  0  0  0  0  0
   24.8822  -19.5534  -13.6887 C   0  0  1  0  0  0  0  0  0  0  0  0
   25.8977  -20.6347  -13.5804 C   0  0  0  0  0  0  0  0  0  0  0  0
   25.8629  -21.5414  -12.4499 C   0  0  0  0  0  0  0  0  0  0  0  0
   25.8517  -22.8970  -12.2885 C   0  0  0  0  0  0  0  0  0  0  0  0
   25.8435  -23.2163  -10.9829 N   0  0  0  0  0  0  0  0  0  0  0  0
   25.8501  -22.0835  -10.2558 C   0  0  0  0  0  0  0  0  0  0  0  0
   25.8572  -21.8508   -8.8742 C   0  0  0  0  0  0  0  0  0  0  0  0
   25.8770  -20.5600   -8.4046 C   0  0  0  0  0  0  0  0  0  0  0  0
   25.8896  -19.4758   -9.2514 C   0  0  0  0  0  0  0  0  0  0  0  0
   25.8821  -19.7504  -10.6045 C   0  0  0  0  0  0  0  0  0  0  0  0
   25.8627  -21.0319  -11.1352 C   0  0  0  0  0  0  0  0  0  0  0  0
   25.2192  -18.6359  -14.8066 C   0  0  0  0  0  0  0  0  0  0  0  0
   24.7691  -18.9330  -15.9797 O   0  0  0  0  0  0  0  0  0  0  0  0
   25.9955  -17.4490  -14.6811 N   0  0  0  0  0  0  0  0  0  0  0  0
   26.2874  -16.5798  -15.8062 C   0  0  1  0  0  0  0  0  0  0  0  0
   26.8624  -15.2560  -15.3191 C   0  0  0  0  0  0  0  0  0  0  0  0
   27.4304  -14.2012  -16.6796 S   0  0  0  0  0  0  0  0  0  0  0  0
   27.2078  -17.2158  -16.7386 C   0  0  0  0  0  0  0  0  0  0  0  0
   27.0169  -17.0227  -18.1174 O   0  0  0  0  0  0  0  0  0  0  0  0
   28.1875  -17.9432  -16.3999 O   0  0  0  0  0  0  0  0  0  0  0  0
  2  1  1  6
  3  2  1  0
  4  2  1  0
  4  5  2  0
  6  4  1  0
  7  6  1  0
  7  8  1  6
  9  8  1  0
  9 17  1  0
 10 11  1  0
 10  9  2  0
 11 12  1  0
 12 17  2  0
 12 13  1  0
 13 14  2  0
 14 15  1  0
 16 15  2  0
 17 16  1  0
 18  7  1  0
 19 18  2  0
 20 18  1  0
 21 20  1  0
 21 24  1  0
 21 22  1  1
 23 22  1  0
 24 25  1  0
 26 24  2  0
M  END
$$$$
