AWC.pdb
     RDKit          3D

 26 27  0  0  1  0  0  0  0  0999 V2000
   26.4274  -21.7636  -17.7152 C   0  0  0  0  0  0  0  0  0  0  0  0
   27.3849  -21.8311  -16.5483 C   0  0  2  0  0  0  0  0  0  0  0  0
   28.3871  -22.8374  -16.8469 N   0  0  0  0  0  0  0  0  0  0  0  0
   26.6853  -22.0986  -15.2764 C   0  0  0  0  0  0  0  0  0  0  0  0
   26.5606  -23.3147  -14.9241 O   0  0  0  0  0  0  0  0  0  0  0  0
   26.1800  -21.0641  -14.4859 N   0  0  0  0  0  0  0  0  0  0  0  0
   25.4814  -21.3183  -13.1813 C   0  0  1  0  0  0  0  0  0  0  0  0
   26.0734  -20.2612  -12.3188 C   0  0  0  0  0  0  0  0  0  0  0  0
   27.2332  -20.5654  -11.5042 C   0  0  0  0  0  0  0  0  0  0  0  0
   28.5523  -20.8224  -11.7448 C   0  0  0  0  0  0  0  0  0  0  0  0
   29.2124  -21.0195  -10.5907 N   0  0  0  0  0  0  0  0  0  0  0  0
   28.3480  -20.8966   -9.5662 C   0  0  0  0  0  0  0  0  0  0  0  0
   28.5123  -20.9931   -8.1781 C   0  0  0  0  0  0  0  0  0  0  0  0
   27.4303  -20.8040   -7.3530 C   0  0  0  0  0  0  0  0  0  0  0  0
   26.1775  -20.5207   -7.8461 C   0  0  0  0  0  0  0  0  0  0  0  0
   26.0605  -20.4346   -9.2192 C   0  0  0  0  0  0  0  0  0  0  0  0
   27.1169  -20.6155  -10.0999 C   0  0  0  0  0  0  0  0  0  0  0  0
   24.0595  -21.0094  -13.4778 C   0  0  0  0  0  0  0  0  0  0  0  0
   23.8155  -20.0137  -14.2626 O   0  0  0  0  0  0  0  0  0  0  0  0
   22.9447  -21.7332  -12.9673 N   0  0  0  0  0  0  0  0  0  0  0  0
   21.5709  -21.3639  -13.2554 C   0  0  1  0  0  0  0  0  0  0  0  0
   20.7952  -22.5680  -13.7737 C   0  0  0  0  0  0  0  0  0  0  0  0
   19.7894  -22.1739  -15.2294 S   0  0  0  0  0  0  0  0  0  0  0  0
   20.9156  -20.8116  -12.0780 C   0  0  0  0  0  0  0  0  0  0  0  0
   19.9946  -19.7632  -12.2440 O   0  0  0  0  0  0  0  0  0  0  0  0
   21.1121  -21.2089  -10.8918 O   0  0  0  0  0  0  0  0  0  0  0  0
  2  1  1  6
  3  2  1  0
  4  2  1  0
  4  5  2  0
  6  4  1  0
  7  6  1  0
  7  8  1  1
  9  8  1  0
  9 17  1  0
 10 11  1  0
 10  9  2  0
 11 12  1  0
 12 17  2  0
 12 13  1  0
 13 14  2  0
 14 15  1  0
 16 15  2  0
 17 16  1  0
 18  7  1  0
 19 18  2  0
 20 18  1  0
 21 20  1  0
 21 24  1  0
 21 22  1  1
 23 22  1  0
 24 25  1  0
 26 24  2  0
M  END
$$$$
