AWC.pdb
     RDKit          3D

 26 27  0  0  1  0  0  0  0  0999 V2000
   25.0118  -20.7069  -13.2975 C   0  0  0  0  0  0  0  0  0  0  0  0
   26.1745  -20.7449  -12.3333 C   0  0  2  0  0  0  0  0  0  0  0  0
   27.2521  -21.4899  -12.9579 N   0  0  0  0  0  0  0  0  0  0  0  0
   25.7879  -21.3106  -11.0260 C   0  0  0  0  0  0  0  0  0  0  0  0
   26.0369  -22.5423  -10.8270 O   0  0  0  0  0  0  0  0  0  0  0  0
   25.1751  -20.5314  -10.0422 N   0  0  0  0  0  0  0  0  0  0  0  0
   24.9422  -21.0365   -8.6475 C   0  0  1  0  0  0  0  0  0  0  0  0
   25.2846  -19.8365   -7.8382 C   0  0  0  0  0  0  0  0  0  0  0  0
   26.6660  -19.5826   -7.4799 C   0  0  0  0  0  0  0  0  0  0  0  0
   27.7388  -18.9981   -8.0893 C   0  0  0  0  0  0  0  0  0  0  0  0
   28.8066  -19.0054   -7.2730 N   0  0  0  0  0  0  0  0  0  0  0  0
   28.4641  -19.5916   -6.1106 C   0  0  0  0  0  0  0  0  0  0  0  0
   29.1830  -19.8430   -4.9346 C   0  0  0  0  0  0  0  0  0  0  0  0
   28.5590  -20.4605   -3.8779 C   0  0  0  0  0  0  0  0  0  0  0  0
   27.2393  -20.8454   -3.9338 C   0  0  0  0  0  0  0  0  0  0  0  0
   26.5687  -20.5786   -5.1109 C   0  0  0  0  0  0  0  0  0  0  0  0
   27.1469  -19.9583   -6.2088 C   0  0  0  0  0  0  0  0  0  0  0  0
   23.4797  -21.2902   -8.6050 C   0  0  0  0  0  0  0  0  0  0  0  0
   22.7222  -20.5432   -9.3365 O   0  0  0  0  0  0  0  0  0  0  0  0
   22.8501  -22.3004   -7.8237 N   0  0  0  0  0  0  0  0  0  0  0  0
   21.4085  -22.4541   -7.7542 C   0  0  1  0  0  0  0  0  0  0  0  0
   21.0400  -23.5741   -6.7898 C   0  0  0  0  0  0  0  0  0  0  0  0
   19.2490  -23.8252   -6.6665 S   0  0  0  0  0  0  0  0  0  0  0  0
   20.7649  -21.2112   -7.3519 C   0  0  0  0  0  0  0  0  0  0  0  0
   19.5459  -20.8537   -7.9531 O   0  0  0  0  0  0  0  0  0  0  0  0
   21.2240  -20.4104   -6.4850 O   0  0  0  0  0  0  0  0  0  0  0  0
  2  1  1  6
  3  2  1  0
  4  2  1  0
  4  5  2  0
  6  4  1  0
  7  6  1  0
  7  8  1  1
  9  8  1  0
  9 17  1  0
 10 11  1  0
 10  9  2  0
 11 12  1  0
 12 17  2  0
 12 13  1  0
 13 14  2  0
 14 15  1  0
 16 15  2  0
 17 16  1  0
 18  7  1  0
 19 18  2  0
 20 18  1  0
 21 20  1  0
 21 24  1  0
 21 22  1  1
 23 22  1  0
 24 25  1  0
 26 24  2  0
M  END
$$$$
