AWC.pdb
     RDKit          3D

 26 27  0  0  1  0  0  0  0  0999 V2000
   26.6469  -22.7249  -17.9987 C   0  0  0  0  0  0  0  0  0  0  0  0
   27.5271  -22.9167  -16.7857 C   0  0  2  0  0  0  0  0  0  0  0  0
   28.1746  -24.2105  -16.9003 N   0  0  0  0  0  0  0  0  0  0  0  0
   26.7679  -22.7808  -15.5272 C   0  0  0  0  0  0  0  0  0  0  0  0
   26.2774  -23.8417  -15.0246 O   0  0  0  0  0  0  0  0  0  0  0  0
   26.5927  -21.5419  -14.9068 N   0  0  0  0  0  0  0  0  0  0  0  0
   25.8748  -21.3946  -13.5962 C   0  0  1  0  0  0  0  0  0  0  0  0
   26.6213  -20.2676  -12.9760 C   0  0  0  0  0  0  0  0  0  0  0  0
   27.6228  -20.5404  -11.9642 C   0  0  0  0  0  0  0  0  0  0  0  0
   28.9678  -20.7747  -11.9632 C   0  0  0  0  0  0  0  0  0  0  0  0
   29.4155  -20.9462  -10.7075 N   0  0  0  0  0  0  0  0  0  0  0  0
   28.3809  -20.8284   -9.8546 C   0  0  0  0  0  0  0  0  0  0  0  0
   28.2974  -20.9062   -8.4581 C   0  0  0  0  0  0  0  0  0  0  0  0
   27.0831  -20.7287   -7.8409 C   0  0  0  0  0  0  0  0  0  0  0  0
   25.9332  -20.4750   -8.5526 C   0  0  0  0  0  0  0  0  0  0  0  0
   26.0607  -20.4065   -9.9257 C   0  0  0  0  0  0  0  0  0  0  0  0
   27.2597  -20.5770  -10.6023 C   0  0  0  0  0  0  0  0  0  0  0  0
   24.5108  -20.9589  -13.9894 C   0  0  0  0  0  0  0  0  0  0  0  0
   24.4129  -20.0684  -14.9192 O   0  0  0  0  0  0  0  0  0  0  0  0
   23.3020  -21.4544  -13.4232 N   0  0  0  0  0  0  0  0  0  0  0  0
   21.9908  -21.0231  -13.8720 C   0  0  1  0  0  0  0  0  0  0  0  0
   21.0210  -22.1977  -13.8842 C   0  0  0  0  0  0  0  0  0  0  0  0
   21.6410  -23.6019  -14.8484 S   0  0  0  0  0  0  0  0  0  0  0  0
   21.4729  -19.9512  -13.0330 C   0  0  0  0  0  0  0  0  0  0  0  0
   20.2755  -19.3171  -13.4059 O   0  0  0  0  0  0  0  0  0  0  0  0
   22.0255  -19.5366  -11.9718 O   0  0  0  0  0  0  0  0  0  0  0  0
  2  1  1  6
  3  2  1  0
  4  2  1  0
  4  5  2  0
  6  4  1  0
  7  6  1  0
  7  8  1  1
  9  8  1  0
  9 17  1  0
 10 11  1  0
 10  9  2  0
 11 12  1  0
 12 17  2  0
 12 13  1  0
 13 14  2  0
 14 15  1  0
 16 15  2  0
 17 16  1  0
 18  7  1  0
 19 18  2  0
 20 18  1  0
 21 20  1  0
 21 24  1  0
 21 22  1  1
 23 22  1  0
 24 25  1  0
 26 24  2  0
M  END
$$$$
