AWC.pdb
     RDKit          3D

 26 27  0  0  1  0  0  0  0  0999 V2000
   21.5429  -21.9191  -13.5107 C   0  0  0  0  0  0  0  0  0  0  0  0
   22.0565  -21.7075  -12.1056 C   0  0  2  0  0  0  0  0  0  0  0  0
   20.9827  -21.1325  -11.3165 N   0  0  0  0  0  0  0  0  0  0  0  0
   23.2746  -20.8742  -12.0839 C   0  0  0  0  0  0  0  0  0  0  0  0
   23.1175  -19.6117  -12.0838 O   0  0  0  0  0  0  0  0  0  0  0  0
   24.5506  -21.4414  -12.0625 N   0  0  0  0  0  0  0  0  0  0  0  0
   25.7964  -20.6112  -11.9461 C   0  0  1  0  0  0  0  0  0  0  0  0
   26.5482  -21.3527  -10.8987 C   0  0  0  0  0  0  0  0  0  0  0  0
   26.6114  -20.8240   -9.5505 C   0  0  0  0  0  0  0  0  0  0  0  0
   25.7397  -20.1946   -8.7091 C   0  0  0  0  0  0  0  0  0  0  0  0
   26.3269  -19.9379   -7.5277 N   0  0  0  0  0  0  0  0  0  0  0  0
   27.5940  -20.3910   -7.5617 C   0  0  0  0  0  0  0  0  0  0  0  0
   28.6213  -20.3886   -6.6090 C   0  0  0  0  0  0  0  0  0  0  0  0
   29.8375  -20.9451   -6.9226 C   0  0  0  0  0  0  0  0  0  0  0  0
   30.0858  -21.5104   -8.1521 C   0  0  0  0  0  0  0  0  0  0  0  0
   29.0462  -21.4913   -9.0606 C   0  0  0  0  0  0  0  0  0  0  0  0
   27.7985  -20.9443   -8.7992 C   0  0  0  0  0  0  0  0  0  0  0  0
   26.4524  -20.7741  -13.2683 C   0  0  0  0  0  0  0  0  0  0  0  0
   26.2120  -21.8596  -13.9248 O   0  0  0  0  0  0  0  0  0  0  0  0
   27.3210  -19.8200  -13.8703 N   0  0  0  0  0  0  0  0  0  0  0  0
   27.7651  -19.9228  -15.2483 C   0  0  1  0  0  0  0  0  0  0  0  0
   28.4463  -18.6320  -15.6841 C   0  0  0  0  0  0  0  0  0  0  0  0
   27.4026  -17.1726  -15.4255 S   0  0  0  0  0  0  0  0  0  0  0  0
   28.6655  -21.0531  -15.4288 C   0  0  0  0  0  0  0  0  0  0  0  0
   29.0854  -21.3843  -16.7284 O   0  0  0  0  0  0  0  0  0  0  0  0
   29.1109  -21.7761  -14.4893 O   0  0  0  0  0  0  0  0  0  0  0  0
  2  1  1  6
  3  2  1  0
  4  2  1  0
  4  5  2  0
  6  4  1  0
  7  6  1  0
  7  8  1  1
  9  8  1  0
  9 17  1  0
 10 11  1  0
 10  9  2  0
 11 12  1  0
 12 17  2  0
 12 13  1  0
 13 14  2  0
 14 15  1  0
 16 15  2  0
 17 16  1  0
 18  7  1  0
 19 18  2  0
 20 18  1  0
 21 20  1  0
 21 24  1  0
 21 22  1  1
 23 22  1  0
 24 25  1  0
 26 24  2  0
M  END
$$$$
