AWC.pdb
     RDKit          3D

 26 27  0  0  1  0  0  0  0  0999 V2000
   24.2793  -11.1442  -20.2747 C   0  0  0  0  0  0  0  0  0  0  0  0
   24.3959   -9.8003  -19.5940 C   0  0  2  0  0  0  0  0  0  0  0  0
   25.7597   -9.6534  -19.1200 N   0  0  0  0  0  0  0  0  0  0  0  0
   23.4069   -9.6446  -18.5094 C   0  0  0  0  0  0  0  0  0  0  0  0
   22.1768   -9.7009  -18.8294 O   0  0  0  0  0  0  0  0  0  0  0  0
   23.7979   -9.4451  -17.1836 N   0  0  0  0  0  0  0  0  0  0  0  0
   22.8049   -9.2519  -16.0740 C   0  0  1  0  0  0  0  0  0  0  0  0
   23.3567  -10.1501  -15.0247 C   0  0  0  0  0  0  0  0  0  0  0  0
   23.2769  -11.5873  -15.1956 C   0  0  0  0  0  0  0  0  0  0  0  0
   24.1115  -12.6433  -14.9668 C   0  0  0  0  0  0  0  0  0  0  0  0
   23.5072  -13.8001  -15.2881 N   0  0  0  0  0  0  0  0  0  0  0  0
   22.2648  -13.5353  -15.7335 C   0  0  0  0  0  0  0  0  0  0  0  0
   21.2271  -14.3644  -16.1793 C   0  0  0  0  0  0  0  0  0  0  0  0
   20.0345  -13.8063  -16.5706 C   0  0  0  0  0  0  0  0  0  0  0  0
   19.8202  -12.4476  -16.5407 C   0  0  0  0  0  0  0  0  0  0  0  0
   20.8689  -11.6679  -16.0947 C   0  0  0  0  0  0  0  0  0  0  0  0
   22.0937  -12.1759  -15.6872 C   0  0  0  0  0  0  0  0  0  0  0  0
   22.9838   -7.8299  -15.6856 C   0  0  0  0  0  0  0  0  0  0  0  0
   24.1099   -7.2686  -15.9753 O   0  0  0  0  0  0  0  0  0  0  0  0
   22.0042   -7.0363  -15.0240 N   0  0  0  0  0  0  0  0  0  0  0  0
   22.1826   -5.6180  -14.7727 C   0  0  1  0  0  0  0  0  0  0  0  0
   22.4329   -4.8749  -16.0787 C   0  0  0  0  0  0  0  0  0  0  0  0
   22.4733   -3.0759  -15.8591 S   0  0  0  0  0  0  0  0  0  0  0  0
   21.0280   -5.0550  -14.0865 C   0  0  0  0  0  0  0  0  0  0  0  0
   19.7675   -5.6438  -14.2859 O   0  0  0  0  0  0  0  0  0  0  0  0
   21.0692   -4.0577  -13.3073 O   0  0  0  0  0  0  0  0  0  0  0  0
  2  1  1  1
  3  2  1  0
  4  2  1  0
  4  5  2  0
  6  4  1  0
  7  6  1  0
  7  8  1  1
  9  8  1  0
  9 17  1  0
 10 11  1  0
 10  9  2  0
 11 12  1  0
 12 17  2  0
 12 13  1  0
 13 14  2  0
 14 15  1  0
 16 15  2  0
 17 16  1  0
 18  7  1  0
 19 18  2  0
 20 18  1  0
 21 20  1  0
 21 24  1  0
 21 22  1  6
 23 22  1  0
 24 25  1  0
 26 24  2  0
M  END
$$$$
