AWC.pdb
     RDKit          3D

 26 27  0  0  1  0  0  0  0  0999 V2000
   16.5842   -9.4857  -17.0124 C   0  0  0  0  0  0  0  0  0  0  0  0
   17.9905  -10.0160  -16.8567 C   0  0  2  0  0  0  0  0  0  0  0  0
   18.0184  -11.3731  -17.3703 N   0  0  0  0  0  0  0  0  0  0  0  0
   18.4572   -9.9373  -15.4587 C   0  0  0  0  0  0  0  0  0  0  0  0
   17.9368  -10.7441  -14.6239 O   0  0  0  0  0  0  0  0  0  0  0  0
   19.4313   -9.0188  -15.0615 N   0  0  0  0  0  0  0  0  0  0  0  0
   20.0194   -9.0190  -13.6799 C   0  0  1  0  0  0  0  0  0  0  0  0
   21.4759   -8.9862  -13.9793 C   0  0  0  0  0  0  0  0  0  0  0  0
   22.2058  -10.2293  -14.1305 C   0  0  0  0  0  0  0  0  0  0  0  0
   21.8869  -11.5564  -14.0982 C   0  0  0  0  0  0  0  0  0  0  0  0
   22.9756  -12.3089  -14.3325 N   0  0  0  0  0  0  0  0  0  0  0  0
   24.0335  -11.4991  -14.5251 C   0  0  0  0  0  0  0  0  0  0  0  0
   25.3801  -11.7600  -14.8109 C   0  0  0  0  0  0  0  0  0  0  0  0
   26.2538  -10.7124  -14.9723 C   0  0  0  0  0  0  0  0  0  0  0  0
   25.8499   -9.4018  -14.8616 C   0  0  0  0  0  0  0  0  0  0  0  0
   24.5150   -9.1901  -14.5794 C   0  0  0  0  0  0  0  0  0  0  0  0
   23.5884  -10.2079  -14.4068 C   0  0  0  0  0  0  0  0  0  0  0  0
   19.5780   -7.7209  -13.1096 C   0  0  0  0  0  0  0  0  0  0  0  0
   19.4275   -6.7307  -13.9243 O   0  0  0  0  0  0  0  0  0  0  0  0
   19.3012   -7.4877  -11.7326 N   0  0  0  0  0  0  0  0  0  0  0  0
   18.7410   -6.2407  -11.2451 C   0  0  1  0  0  0  0  0  0  0  0  0
   17.4654   -5.8992  -12.0044 C   0  0  0  0  0  0  0  0  0  0  0  0
   16.6419   -4.4216  -11.3527 S   0  0  0  0  0  0  0  0  0  0  0  0
   18.4734   -6.3065   -9.8151 C   0  0  0  0  0  0  0  0  0  0  0  0
   18.1465   -5.1228   -9.1316 O   0  0  0  0  0  0  0  0  0  0  0  0
   18.5111   -7.3666   -9.1236 O   0  0  0  0  0  0  0  0  0  0  0  0
  2  1  1  1
  3  2  1  0
  4  2  1  0
  4  5  2  0
  6  4  1  0
  7  6  1  0
  7  8  1  6
  9  8  1  0
  9 17  1  0
 10 11  1  0
 10  9  2  0
 11 12  1  0
 12 17  2  0
 12 13  1  0
 13 14  2  0
 14 15  1  0
 16 15  2  0
 17 16  1  0
 18  7  1  0
 19 18  2  0
 20 18  1  0
 21 20  1  0
 21 24  1  0
 21 22  1  6
 23 22  1  0
 24 25  1  0
 26 24  2  0
M  END
$$$$
