VFM.pdb
     RDKit          3D

 27 27  0  0  1  0  0  0  0  0999 V2000
   28.2055  -17.0643  -15.2293 C   0  0  0  0  0  0  0  0  0  0  0  0
   27.2155  -18.0177  -14.6605 C   0  0  1  0  0  0  0  0  0  0  0  0
   26.3315  -18.5824  -15.7452 C   0  0  0  0  0  0  0  0  0  0  0  0
   27.8423  -19.1243  -13.8556 C   0  0  2  0  0  0  0  0  0  0  0  0
   28.6711  -19.9681  -14.7508 N   0  0  0  0  0  0  0  0  0  0  0  0
   26.8687  -20.0148  -13.2194 C   0  0  0  0  0  0  0  0  0  0  0  0
   26.5512  -21.1249  -13.7790 O   0  0  0  0  0  0  0  0  0  0  0  0
   26.2101  -19.7776  -11.9986 N   0  0  0  0  0  0  0  0  0  0  0  0
   25.3370  -20.7936  -11.3941 C   0  0  1  0  0  0  0  0  0  0  0  0
   25.2775  -20.3749   -9.9464 C   0  0  0  0  0  0  0  0  0  0  0  0
   26.4773  -20.4895   -9.1626 C   0  0  0  0  0  0  0  0  0  0  0  0
   27.5090  -21.3079   -9.5444 C   0  0  0  0  0  0  0  0  0  0  0  0
   28.6807  -21.3989   -8.7916 C   0  0  0  0  0  0  0  0  0  0  0  0
   28.7741  -20.6428   -7.6513 C   0  0  0  0  0  0  0  0  0  0  0  0
   27.7643  -19.8107   -7.2337 C   0  0  0  0  0  0  0  0  0  0  0  0
   26.6228  -19.7528   -8.0107 C   0  0  0  0  0  0  0  0  0  0  0  0
   24.0019  -20.7790  -12.0681 C   0  0  0  0  0  0  0  0  0  0  0  0
   23.5036  -19.6645  -12.2936 O   0  0  0  0  0  0  0  0  0  0  0  0
   22.0996  -26.1054  -15.1973 C   0  0  0  0  0  0  0  0  0  0  0  0
   20.4968  -25.7012  -14.4479 S   0  0  0  0  0  0  0  0  0  0  0  0
   20.5244  -23.9548  -13.8886 C   0  0  0  0  0  0  0  0  0  0  0  0
   21.8707  -23.5942  -13.3695 C   0  0  0  0  0  0  0  0  0  0  0  0
   22.0635  -22.1752  -12.9714 C   0  0  2  0  0  0  0  0  0  0  0  0
   23.3671  -21.9871  -12.4200 N   0  0  0  0  0  0  0  0  0  0  0  0
   20.9346  -21.5542  -12.2948 C   0  0  0  0  0  0  0  0  0  0  0  0
   20.0313  -20.9604  -12.9642 O   0  0  0  0  0  0  0  0  0  0  0  0
   20.7616  -21.5533  -10.9366 O   0  0  0  0  0  0  0  0  0  0  0  0
  2  4  1  0
  2  1  1  6
  3  2  1  0
  4  6  1  0
  4  5  1  6
  6  7  2  0
  8  9  1  0
  8  6  1  0
  9 10  1  1
 10 11  1  0
 11 16  2  0
 12 13  2  0
 12 11  1  0
 13 14  1  0
 14 15  2  0
 16 15  1  0
 17 18  2  0
 17  9  1  0
 20 21  1  0
 20 19  1  0
 21 22  1  0
 23 22  1  1
 23 24  1  0
 23 25  1  0
 24 17  1  0
 25 27  1  0
 26 25  2  0
M  END
$$$$
