VFM.pdb
     RDKit          3D

 27 27  0  0  1  0  0  0  0  0999 V2000
   27.8747  -20.5889  -17.5987 C   0  0  0  0  0  0  0  0  0  0  0  0
   27.0220  -20.6282  -16.3805 C   0  0  1  0  0  0  0  0  0  0  0  0
   25.5591  -20.6012  -16.7497 C   0  0  0  0  0  0  0  0  0  0  0  0
   27.3207  -21.7939  -15.4765 C   0  0  2  0  0  0  0  0  0  0  0  0
   26.9222  -23.0510  -16.1554 N   0  0  0  0  0  0  0  0  0  0  0  0
   26.5960  -21.7540  -14.2042 C   0  0  0  0  0  0  0  0  0  0  0  0
   25.4589  -22.3378  -14.0935 O   0  0  0  0  0  0  0  0  0  0  0  0
   27.0312  -21.1156  -13.0280 N   0  0  0  0  0  0  0  0  0  0  0  0
   26.1922  -21.0870  -11.8217 C   0  0  1  0  0  0  0  0  0  0  0  0
   27.1922  -20.8618  -10.7155 C   0  0  0  0  0  0  0  0  0  0  0  0
   26.6879  -20.5758   -9.3998 C   0  0  0  0  0  0  0  0  0  0  0  0
   25.7640  -21.3872   -8.7930 C   0  0  0  0  0  0  0  0  0  0  0  0
   25.2939  -21.1175   -7.5068 C   0  0  0  0  0  0  0  0  0  0  0  0
   25.7837  -20.0114   -6.8608 C   0  0  0  0  0  0  0  0  0  0  0  0
   26.7092  -19.1732   -7.4326 C   0  0  0  0  0  0  0  0  0  0  0  0
   27.1460  -19.4797   -8.7075 C   0  0  0  0  0  0  0  0  0  0  0  0
   25.1806  -19.9911  -11.9350 C   0  0  0  0  0  0  0  0  0  0  0  0
   25.5303  -18.9716  -12.5511 O   0  0  0  0  0  0  0  0  0  0  0  0
   22.1006  -21.9578  -15.9301 C   0  0  0  0  0  0  0  0  0  0  0  0
   20.8487  -20.7701  -15.3679 S   0  0  0  0  0  0  0  0  0  0  0  0
   21.6463  -19.5425  -14.2632 C   0  0  0  0  0  0  0  0  0  0  0  0
   22.6846  -20.1946  -13.4216 C   0  0  0  0  0  0  0  0  0  0  0  0
   22.6284  -19.9039  -11.9650 C   0  0  2  0  0  0  0  0  0  0  0  0
   23.9014  -20.1390  -11.3625 N   0  0  0  0  0  0  0  0  0  0  0  0
   21.4413  -20.3853  -11.2744 C   0  0  0  0  0  0  0  0  0  0  0  0
   21.3823  -21.5849  -10.8572 O   0  0  0  0  0  0  0  0  0  0  0  0
   20.3329  -19.6192  -11.0317 O   0  0  0  0  0  0  0  0  0  0  0  0
  2  4  1  0
  2  1  1  6
  3  2  1  0
  4  6  1  0
  4  5  1  6
  6  7  2  0
  8  9  1  0
  8  6  1  0
  9 10  1  1
 10 11  1  0
 11 16  2  0
 12 13  2  0
 12 11  1  0
 13 14  1  0
 14 15  2  0
 16 15  1  0
 17 18  2  0
 17  9  1  0
 20 21  1  0
 20 19  1  0
 21 22  1  0
 23 22  1  6
 23 24  1  0
 23 25  1  0
 24 17  1  0
 25 27  1  0
 26 25  2  0
M  END
$$$$
