VFM.pdb
     RDKit          3D

 27 27  0  0  1  0  0  0  0  0999 V2000
   23.6115  -27.8559  -16.3092 C   0  0  0  0  0  0  0  0  0  0  0  0
   24.9497  -27.6546  -16.9268 C   0  0  1  0  0  0  0  0  0  0  0  0
   24.9457  -28.0969  -18.3695 C   0  0  0  0  0  0  0  0  0  0  0  0
   25.4607  -26.2442  -16.8047 C   0  0  2  0  0  0  0  0  0  0  0  0
   24.5410  -25.3291  -17.5237 N   0  0  0  0  0  0  0  0  0  0  0  0
   26.7909  -26.0468  -17.3854 C   0  0  0  0  0  0  0  0  0  0  0  0
   26.9105  -25.6977  -18.6143 O   0  0  0  0  0  0  0  0  0  0  0  0
   28.0159  -26.2031  -16.7106 N   0  0  0  0  0  0  0  0  0  0  0  0
   29.2976  -26.0515  -17.4135 C   0  0  1  0  0  0  0  0  0  0  0  0
   29.9517  -24.9031  -16.6870 C   0  0  0  0  0  0  0  0  0  0  0  0
   29.6834  -23.5703  -17.1545 C   0  0  0  0  0  0  0  0  0  0  0  0
   30.1873  -23.1118  -18.3445 C   0  0  0  0  0  0  0  0  0  0  0  0
   29.9059  -21.8245  -18.8045 C   0  0  0  0  0  0  0  0  0  0  0  0
   29.1063  -21.0240  -18.0297 C   0  0  0  0  0  0  0  0  0  0  0  0
   28.5816  -21.4444  -16.8321 C   0  0  0  0  0  0  0  0  0  0  0  0
   28.8870  -22.7265  -16.4166 C   0  0  0  0  0  0  0  0  0  0  0  0
   30.0763  -27.3255  -17.3262 C   0  0  0  0  0  0  0  0  0  0  0  0
   30.2952  -27.7677  -16.1870 O   0  0  0  0  0  0  0  0  0  0  0  0
   31.6852  -32.9623  -16.0658 C   0  0  0  0  0  0  0  0  0  0  0  0
   29.9786  -32.4779  -16.4489 S   0  0  0  0  0  0  0  0  0  0  0  0
   29.9460  -31.6598  -18.0900 C   0  0  0  0  0  0  0  0  0  0  0  0
   29.8177  -30.1861  -17.9361 C   0  0  0  0  0  0  0  0  0  0  0  0
   30.7897  -29.3585  -18.6974 C   0  0  2  0  0  0  0  0  0  0  0  0
   30.5235  -27.9701  -18.4969 N   0  0  0  0  0  0  0  0  0  0  0  0
   31.0798  -29.8149  -20.0485 C   0  0  0  0  0  0  0  0  0  0  0  0
   31.4704  -31.0072  -20.2543 O   0  0  0  0  0  0  0  0  0  0  0  0
   30.9662  -29.0286  -21.1636 O   0  0  0  0  0  0  0  0  0  0  0  0
  2  4  1  0
  2  1  1  6
  3  2  1  0
  4  6  1  0
  4  5  1  6
  6  7  2  0
  8  9  1  0
  8  6  1  0
  9 10  1  1
 10 11  1  0
 11 16  2  0
 12 13  2  0
 12 11  1  0
 13 14  1  0
 14 15  2  0
 16 15  1  0
 17 18  2  0
 17  9  1  0
 20 21  1  0
 20 19  1  0
 21 22  1  0
 23 22  1  6
 23 24  1  0
 23 25  1  0
 24 17  1  0
 25 27  1  0
 26 25  2  0
M  END
$$$$
