VFM.pdb
     RDKit          3D

 27 27  0  0  1  0  0  0  0  0999 V2000
   27.0685  -18.0400  -14.8395 C   0  0  0  0  0  0  0  0  0  0  0  0
   26.7075  -18.7478  -13.5820 C   0  0  1  0  0  0  0  0  0  0  0  0
   25.5052  -19.6350  -13.7931 C   0  0  0  0  0  0  0  0  0  0  0  0
   27.8468  -19.5296  -12.9854 C   0  0  2  0  0  0  0  0  0  0  0  0
   28.1765  -20.6676  -13.8778 N   0  0  0  0  0  0  0  0  0  0  0  0
   27.5458  -20.0991  -11.6698 C   0  0  0  0  0  0  0  0  0  0  0  0
   27.0312  -21.2709  -11.5791 O   0  0  0  0  0  0  0  0  0  0  0  0
   27.7717  -19.4731  -10.4299 N   0  0  0  0  0  0  0  0  0  0  0  0
   27.3466  -20.1009   -9.1709 C   0  0  1  0  0  0  0  0  0  0  0  0
   28.0922  -19.3094   -8.1259 C   0  0  0  0  0  0  0  0  0  0  0  0
   27.9441  -19.7024   -6.7508 C   0  0  0  0  0  0  0  0  0  0  0  0
   28.7173  -20.6916   -6.1995 C   0  0  0  0  0  0  0  0  0  0  0  0
   28.5849  -21.0544   -4.8584 C   0  0  0  0  0  0  0  0  0  0  0  0
   27.6544  -20.3908   -4.1004 C   0  0  0  0  0  0  0  0  0  0  0  0
   26.8604  -19.3946   -4.6135 C   0  0  0  0  0  0  0  0  0  0  0  0
   27.0264  -19.0690   -5.9463 C   0  0  0  0  0  0  0  0  0  0  0  0
   25.8603  -20.0054   -9.0346 C   0  0  0  0  0  0  0  0  0  0  0  0
   25.3592  -18.8782   -9.1746 O   0  0  0  0  0  0  0  0  0  0  0  0
   21.9566  -21.7744  -12.6907 C   0  0  0  0  0  0  0  0  0  0  0  0
   20.8716  -22.3829  -11.3692 S   0  0  0  0  0  0  0  0  0  0  0  0
   21.5317  -21.8238   -9.7520 C   0  0  0  0  0  0  0  0  0  0  0  0
   23.0165  -21.7500   -9.7917 C   0  0  0  0  0  0  0  0  0  0  0  0
   23.6834  -21.2535   -8.5596 C   0  0  2  0  0  0  0  0  0  0  0  0
   25.0933  -21.1561   -8.7631 N   0  0  0  0  0  0  0  0  0  0  0  0
   23.2070  -21.8315   -7.3118 C   0  0  0  0  0  0  0  0  0  0  0  0
   23.9458  -22.6248   -6.6474 O   0  0  0  0  0  0  0  0  0  0  0  0
   21.9722  -21.5834   -6.7749 O   0  0  0  0  0  0  0  0  0  0  0  0
  2  4  1  0
  2  1  1  6
  3  2  1  0
  4  6  1  0
  4  5  1  6
  6  7  2  0
  8  9  1  0
  8  6  1  0
  9 10  1  1
 10 11  1  0
 11 16  2  0
 12 13  2  0
 12 11  1  0
 13 14  1  0
 14 15  2  0
 16 15  1  0
 17 18  2  0
 17  9  1  0
 20 21  1  0
 20 19  1  0
 21 22  1  0
 23 22  1  6
 23 24  1  0
 23 25  1  0
 24 17  1  0
 25 27  1  0
 26 25  2  0
M  END
$$$$
