VFM.pdb
     RDKit          3D

 27 27  0  0  1  0  0  0  0  0999 V2000
   27.9001  -19.8517  -17.6111 C   0  0  0  0  0  0  0  0  0  0  0  0
   27.1404  -20.1468  -16.3668 C   0  0  1  0  0  0  0  0  0  0  0  0
   25.7049  -20.4872  -16.6838 C   0  0  0  0  0  0  0  0  0  0  0  0
   27.7677  -21.2228  -15.5218 C   0  0  2  0  0  0  0  0  0  0  0  0
   27.6819  -22.5178  -16.2400 N   0  0  0  0  0  0  0  0  0  0  0  0
   27.1096  -21.4144  -14.2273 C   0  0  0  0  0  0  0  0  0  0  0  0
   26.1829  -22.2927  -14.1010 O   0  0  0  0  0  0  0  0  0  0  0  0
   27.3967  -20.7077  -13.0447 N   0  0  0  0  0  0  0  0  0  0  0  0
   26.5891  -20.8938  -11.8310 C   0  0  1  0  0  0  0  0  0  0  0  0
   27.5581  -20.5667  -10.7226 C   0  0  0  0  0  0  0  0  0  0  0  0
   27.0270  -20.3632   -9.4021 C   0  0  0  0  0  0  0  0  0  0  0  0
   26.8273  -19.1053   -8.8945 C   0  0  0  0  0  0  0  0  0  0  0  0
   26.2908  -18.9128   -7.6205 C   0  0  0  0  0  0  0  0  0  0  0  0
   25.9661  -20.0230   -6.8840 C   0  0  0  0  0  0  0  0  0  0  0  0
   26.1500  -21.3000   -7.3549 C   0  0  0  0  0  0  0  0  0  0  0  0
   26.6840  -21.4421   -8.6217 C   0  0  0  0  0  0  0  0  0  0  0  0
   25.4041  -19.9820  -11.8671 C   0  0  0  0  0  0  0  0  0  0  0  0
   25.5796  -18.8596  -12.3678 O   0  0  0  0  0  0  0  0  0  0  0  0
   23.1745  -19.4022  -16.2448 C   0  0  0  0  0  0  0  0  0  0  0  0
   21.4943  -19.7700  -15.6655 S   0  0  0  0  0  0  0  0  0  0  0  0
   21.4524  -19.6362  -13.8369 C   0  0  0  0  0  0  0  0  0  0  0  0
   22.7337  -20.1104  -13.2493 C   0  0  0  0  0  0  0  0  0  0  0  0
   22.8523  -20.0197  -11.7704 C   0  0  2  0  0  0  0  0  0  0  0  0
   24.1621  -20.4055  -11.3529 N   0  0  0  0  0  0  0  0  0  0  0  0
   21.7139  -20.5247  -11.0174 C   0  0  0  0  0  0  0  0  0  0  0  0
   21.7771  -21.6539  -10.4367 O   0  0  0  0  0  0  0  0  0  0  0  0
   20.5272  -19.8554  -10.8822 O   0  0  0  0  0  0  0  0  0  0  0  0
  2  4  1  0
  2  1  1  6
  3  2  1  0
  4  6  1  0
  4  5  1  6
  6  7  2  0
  8  9  1  0
  8  6  1  0
  9 10  1  1
 10 11  1  0
 11 16  2  0
 12 13  2  0
 12 11  1  0
 13 14  1  0
 14 15  2  0
 16 15  1  0
 17 18  2  0
 17  9  1  0
 20 21  1  0
 20 19  1  0
 21 22  1  0
 23 22  1  6
 23 24  1  0
 23 25  1  0
 24 17  1  0
 25 27  1  0
 26 25  2  0
M  END
$$$$
