VFM.pdb
     RDKit          3D

 27 27  0  0  1  0  0  0  0  0999 V2000
   19.1149   -9.7085  -18.1383 C   0  0  0  0  0  0  0  0  0  0  0  0
   20.5773   -9.4595  -18.0298 C   0  0  1  0  0  0  0  0  0  0  0  0
   21.3452  -10.3644  -18.9617 C   0  0  0  0  0  0  0  0  0  0  0  0
   20.9590   -8.0206  -18.2518 C   0  0  2  0  0  0  0  0  0  0  0  0
   22.4264   -7.9310  -18.4488 N   0  0  0  0  0  0  0  0  0  0  0  0
   20.6305   -7.1431  -17.1259 C   0  0  0  0  0  0  0  0  0  0  0  0
   19.4303   -7.0983  -16.6746 O   0  0  0  0  0  0  0  0  0  0  0  0
   21.5315   -6.3017  -16.4471 N   0  0  0  0  0  0  0  0  0  0  0  0
   21.1185   -5.5465  -15.2559 C   0  0  1  0  0  0  0  0  0  0  0  0
   22.2371   -5.8108  -14.2793 C   0  0  0  0  0  0  0  0  0  0  0  0
   22.2802   -7.0963  -13.6368 C   0  0  0  0  0  0  0  0  0  0  0  0
   23.0315   -8.1264  -14.1414 C   0  0  0  0  0  0  0  0  0  0  0  0
   23.0875   -9.3656  -13.5019 C   0  0  0  0  0  0  0  0  0  0  0  0
   22.3662   -9.5276  -12.3469 C   0  0  0  0  0  0  0  0  0  0  0  0
   21.6014   -8.5221  -11.8082 C   0  0  0  0  0  0  0  0  0  0  0  0
   21.5760   -7.3122  -12.4757 C   0  0  0  0  0  0  0  0  0  0  0  0
   20.9667   -4.0994  -15.6018 C   0  0  0  0  0  0  0  0  0  0  0  0
   21.6987   -3.6625  -16.5044 O   0  0  0  0  0  0  0  0  0  0  0  0
   18.5013    1.2065  -19.5880 C   0  0  0  0  0  0  0  0  0  0  0  0
   18.8978   -0.4750  -19.0321 S   0  0  0  0  0  0  0  0  0  0  0  0
   19.1065   -0.4660  -17.2100 C   0  0  0  0  0  0  0  0  0  0  0  0
   19.4730   -1.8214  -16.7199 C   0  0  0  0  0  0  0  0  0  0  0  0
   19.5885   -1.9789  -15.2464 C   0  0  2  0  0  0  0  0  0  0  0  0
   20.0286   -3.2977  -14.9211 N   0  0  0  0  0  0  0  0  0  0  0  0
   18.5020   -1.4048  -14.4669 C   0  0  0  0  0  0  0  0  0  0  0  0
   17.4835   -2.1056  -14.1699 O   0  0  0  0  0  0  0  0  0  0  0  0
   18.4846   -0.1135  -14.0120 O   0  0  0  0  0  0  0  0  0  0  0  0
  2  4  1  0
  2  1  1  6
  3  2  1  0
  4  6  1  0
  4  5  1  1
  6  7  2  0
  8  9  1  0
  8  6  1  0
  9 10  1  1
 10 11  1  0
 11 16  2  0
 12 13  2  0
 12 11  1  0
 13 14  1  0
 14 15  2  0
 16 15  1  0
 17 18  2  0
 17  9  1  0
 20 21  1  0
 20 19  1  0
 21 22  1  0
 23 22  1  6
 23 24  1  0
 23 25  1  0
 24 17  1  0
 25 27  1  0
 26 25  2  0
M  END
$$$$
