VFM.pdb
     RDKit          3D

 27 27  0  0  1  0  0  0  0  0999 V2000
   26.6191  -19.9132  -16.3228 C   0  0  0  0  0  0  0  0  0  0  0  0
   25.8335  -20.3208  -15.1273 C   0  0  1  0  0  0  0  0  0  0  0  0
   24.7558  -21.3070  -15.5055 C   0  0  0  0  0  0  0  0  0  0  0  0
   26.6816  -20.8633  -14.0085 C   0  0  2  0  0  0  0  0  0  0  0  0
   27.3372  -22.1158  -14.4578 N   0  0  0  0  0  0  0  0  0  0  0  0
   25.9223  -21.1950  -12.8006 C   0  0  0  0  0  0  0  0  0  0  0  0
   25.4790  -22.3864  -12.6269 O   0  0  0  0  0  0  0  0  0  0  0  0
   25.6103  -20.3074  -11.7540 N   0  0  0  0  0  0  0  0  0  0  0  0
   24.8684  -20.7586  -10.5684 C   0  0  1  0  0  0  0  0  0  0  0  0
   25.2367  -19.7339   -9.5248 C   0  0  0  0  0  0  0  0  0  0  0  0
   26.3927  -19.9894   -8.7089 C   0  0  0  0  0  0  0  0  0  0  0  0
   27.2383  -21.0368   -8.9698 C   0  0  0  0  0  0  0  0  0  0  0  0
   28.3713  -21.2675   -8.1881 C   0  0  0  0  0  0  0  0  0  0  0  0
   28.6188  -20.4131   -7.1445 C   0  0  0  0  0  0  0  0  0  0  0  0
   27.7976  -19.3526   -6.8493 C   0  0  0  0  0  0  0  0  0  0  0  0
   26.6874  -19.1629   -7.6503 C   0  0  0  0  0  0  0  0  0  0  0  0
   23.4040  -20.7928  -10.8707 C   0  0  0  0  0  0  0  0  0  0  0  0
   23.0096  -20.0688  -11.7989 O   0  0  0  0  0  0  0  0  0  0  0  0
   19.8034  -23.9744   -6.5135 C   0  0  0  0  0  0  0  0  0  0  0  0
   18.6904  -24.1674   -7.9341 S   0  0  0  0  0  0  0  0  0  0  0  0
   19.1407  -22.9345   -9.2151 C   0  0  0  0  0  0  0  0  0  0  0  0
   20.6018  -22.6586   -9.1832 C   0  0  0  0  0  0  0  0  0  0  0  0
   21.1255  -21.7645  -10.2489 C   0  0  2  0  0  0  0  0  0  0  0  0
   22.5403  -21.6184  -10.1233 N   0  0  0  0  0  0  0  0  0  0  0  0
   20.3322  -20.5739  -10.5151 C   0  0  0  0  0  0  0  0  0  0  0  0
   20.5146  -19.5146   -9.8360 O   0  0  0  0  0  0  0  0  0  0  0  0
   19.3596  -20.5005  -11.4760 O   0  0  0  0  0  0  0  0  0  0  0  0
  2  4  1  0
  2  1  1  6
  3  2  1  0
  4  6  1  0
  4  5  1  6
  6  7  2  0
  8  9  1  0
  8  6  1  0
  9 10  1  1
 10 11  1  0
 11 16  2  0
 12 13  2  0
 12 11  1  0
 13 14  1  0
 14 15  2  0
 16 15  1  0
 17 18  2  0
 17  9  1  0
 20 21  1  0
 20 19  1  0
 21 22  1  0
 23 22  1  1
 23 24  1  0
 23 25  1  0
 24 17  1  0
 25 27  1  0
 26 25  2  0
M  END
$$$$
