VFM.pdb
     RDKit          3D

 27 27  0  0  1  0  0  0  0  0999 V2000
   29.1035  -22.1569  -17.6544 C   0  0  0  0  0  0  0  0  0  0  0  0
   28.1773  -22.4540  -16.5290 C   0  0  1  0  0  0  0  0  0  0  0  0
   28.8612  -22.2383  -15.2013 C   0  0  0  0  0  0  0  0  0  0  0  0
   26.8871  -21.6815  -16.5941 C   0  0  2  0  0  0  0  0  0  0  0  0
   27.1913  -20.2333  -16.6958 N   0  0  0  0  0  0  0  0  0  0  0  0
   26.0379  -21.8519  -15.4128 C   0  0  0  0  0  0  0  0  0  0  0  0
   25.5447  -23.0036  -15.1363 O   0  0  0  0  0  0  0  0  0  0  0  0
   25.6861  -20.8415  -14.4985 N   0  0  0  0  0  0  0  0  0  0  0  0
   24.7849  -21.1153  -13.3703 C   0  0  1  0  0  0  0  0  0  0  0  0
   25.2215  -20.1110  -12.3332 C   0  0  0  0  0  0  0  0  0  0  0  0
   24.4915  -20.0607  -11.0956 C   0  0  0  0  0  0  0  0  0  0  0  0
   23.2101  -19.5760  -11.0370 C   0  0  0  0  0  0  0  0  0  0  0  0
   22.4978  -19.5496   -9.8371 C   0  0  0  0  0  0  0  0  0  0  0  0
   23.1173  -20.0246   -8.7097 C   0  0  0  0  0  0  0  0  0  0  0  0
   24.3988  -20.5182   -8.7250 C   0  0  0  0  0  0  0  0  0  0  0  0
   25.0656  -20.5248   -9.9356 C   0  0  0  0  0  0  0  0  0  0  0  0
   23.3643  -20.9373  -13.8029 C   0  0  0  0  0  0  0  0  0  0  0  0
   23.1094  -19.9260  -14.4763 O   0  0  0  0  0  0  0  0  0  0  0  0
   20.0376  -25.7559  -15.6596 C   0  0  0  0  0  0  0  0  0  0  0  0
   18.5947  -25.0098  -14.8501 S   0  0  0  0  0  0  0  0  0  0  0  0
   19.0198  -23.3030  -14.3306 C   0  0  0  0  0  0  0  0  0  0  0  0
   20.4623  -23.2077  -13.9813 C   0  0  0  0  0  0  0  0  0  0  0  0
   20.9798  -21.8450  -13.6907 C   0  0  2  0  0  0  0  0  0  0  0  0
   22.3865  -21.8891  -13.4503 N   0  0  0  0  0  0  0  0  0  0  0  0
   20.1558  -21.0366  -12.8045 C   0  0  0  0  0  0  0  0  0  0  0  0
   20.2993  -21.1152  -11.5436 O   0  0  0  0  0  0  0  0  0  0  0  0
   19.1933  -20.1643  -13.2372 O   0  0  0  0  0  0  0  0  0  0  0  0
  2  4  1  0
  2  1  1  6
  3  2  1  0
  4  6  1  0
  4  5  1  1
  6  7  2  0
  8  9  1  0
  8  6  1  0
  9 10  1  1
 10 11  1  0
 11 16  2  0
 12 13  2  0
 12 11  1  0
 13 14  1  0
 14 15  2  0
 16 15  1  0
 17 18  2  0
 17  9  1  0
 20 21  1  0
 20 19  1  0
 21 22  1  0
 23 22  1  1
 23 24  1  0
 23 25  1  0
 24 17  1  0
 25 27  1  0
 26 25  2  0
M  END
$$$$
