VFM.pdb
     RDKit          3D

 27 27  0  0  1  0  0  0  0  0999 V2000
   23.7064  -20.3807  -13.6141 C   0  0  0  0  0  0  0  0  0  0  0  0
   24.4906  -21.4200  -14.3336 C   0  0  1  0  0  0  0  0  0  0  0  0
   24.2884  -21.3067  -15.8247 C   0  0  0  0  0  0  0  0  0  0  0  0
   25.9567  -21.4077  -13.9935 C   0  0  2  0  0  0  0  0  0  0  0  0
   26.6297  -22.5249  -14.7001 N   0  0  0  0  0  0  0  0  0  0  0  0
   26.2322  -21.5851  -12.5659 C   0  0  0  0  0  0  0  0  0  0  0  0
   26.1449  -22.7495  -12.0341 O   0  0  0  0  0  0  0  0  0  0  0  0
   26.6033  -20.5687  -11.6660 N   0  0  0  0  0  0  0  0  0  0  0  0
   26.6857  -20.8235  -10.2210 C   0  0  1  0  0  0  0  0  0  0  0  0
   27.6610  -19.7764   -9.7447 C   0  0  0  0  0  0  0  0  0  0  0  0
   27.9218  -19.6913   -8.3334 C   0  0  0  0  0  0  0  0  0  0  0  0
   27.2242  -18.8313   -7.5249 C   0  0  0  0  0  0  0  0  0  0  0  0
   27.4657  -18.7682   -6.1517 C   0  0  0  0  0  0  0  0  0  0  0  0
   28.4262  -19.5951   -5.6281 C   0  0  0  0  0  0  0  0  0  0  0  0
   29.1473  -20.4707   -6.4025 C   0  0  0  0  0  0  0  0  0  0  0  0
   28.8740  -20.4986   -7.7569 C   0  0  0  0  0  0  0  0  0  0  0  0
   25.3291  -20.6900   -9.6055 C   0  0  0  0  0  0  0  0  0  0  0  0
   24.5151  -19.9675  -10.2025 O   0  0  0  0  0  0  0  0  0  0  0  0
   25.0513  -21.8757   -3.4913 C   0  0  0  0  0  0  0  0  0  0  0  0
   23.2470  -21.7343   -3.6271 S   0  0  0  0  0  0  0  0  0  0  0  0
   22.7879  -21.6537   -5.4009 C   0  0  0  0  0  0  0  0  0  0  0  0
   24.0006  -21.4958   -6.2472 C   0  0  0  0  0  0  0  0  0  0  0  0
   23.7726  -21.4113   -7.7136 C   0  0  2  0  0  0  0  0  0  0  0  0
   25.0194  -21.3654   -8.4080 N   0  0  0  0  0  0  0  0  0  0  0  0
   22.7179  -20.5006   -8.1333 C   0  0  0  0  0  0  0  0  0  0  0  0
   22.9893  -19.2933   -8.4252 O   0  0  0  0  0  0  0  0  0  0  0  0
   21.3990  -20.8527   -8.2388 O   0  0  0  0  0  0  0  0  0  0  0  0
  2  4  1  0
  2  1  1  1
  3  2  1  0
  4  6  1  0
  4  5  1  6
  6  7  2  0
  8  9  1  0
  8  6  1  0
  9 10  1  1
 10 11  1  0
 11 16  2  0
 12 13  2  0
 12 11  1  0
 13 14  1  0
 14 15  2  0
 16 15  1  0
 17 18  2  0
 17  9  1  0
 20 21  1  0
 20 19  1  0
 21 22  1  0
 23 22  1  1
 23 24  1  0
 23 25  1  0
 24 17  1  0
 25 27  1  0
 26 25  2  0
M  END
$$$$
