VFM.pdb
     RDKit          3D

 27 27  0  0  1  0  0  0  0  0999 V2000
   21.2753  -23.3634  -11.1628 C   0  0  0  0  0  0  0  0  0  0  0  0
   22.4105  -22.4150  -11.3197 C   0  0  1  0  0  0  0  0  0  0  0  0
   22.4286  -21.8267  -12.7092 C   0  0  0  0  0  0  0  0  0  0  0  0
   22.4305  -21.3260  -10.2810 C   0  0  2  0  0  0  0  0  0  0  0  0
   21.1740  -20.5430  -10.3724 N   0  0  0  0  0  0  0  0  0  0  0  0
   23.5325  -20.3751  -10.4450 C   0  0  0  0  0  0  0  0  0  0  0  0
   23.4060  -19.3750  -11.2387 O   0  0  0  0  0  0  0  0  0  0  0  0
   24.7785  -20.4379   -9.7937 N   0  0  0  0  0  0  0  0  0  0  0  0
   25.8688  -19.5172  -10.1451 C   0  0  1  0  0  0  0  0  0  0  0  0
   26.1712  -18.8310   -8.8365 C   0  0  0  0  0  0  0  0  0  0  0  0
   26.7941  -19.6060   -7.7980 C   0  0  0  0  0  0  0  0  0  0  0  0
   26.0791  -20.0789   -6.7279 C   0  0  0  0  0  0  0  0  0  0  0  0
   26.6837  -20.8494   -5.7337 C   0  0  0  0  0  0  0  0  0  0  0  0
   28.0219  -21.1234   -5.8557 C   0  0  0  0  0  0  0  0  0  0  0  0
   28.7742  -20.6693   -6.9112 C   0  0  0  0  0  0  0  0  0  0  0  0
   28.1331  -19.9101   -7.8717 C   0  0  0  0  0  0  0  0  0  0  0  0
   27.0285  -20.2902  -10.6879 C   0  0  0  0  0  0  0  0  0  0  0  0
   27.2981  -21.3616  -10.1217 O   0  0  0  0  0  0  0  0  0  0  0  0
   25.2399  -23.9583  -13.2870 C   0  0  0  0  0  0  0  0  0  0  0  0
   26.0577  -23.5293  -14.8494 S   0  0  0  0  0  0  0  0  0  0  0  0
   27.4472  -22.3845  -14.4993 C   0  0  0  0  0  0  0  0  0  0  0  0
   27.1225  -21.5079  -13.3427 C   0  0  0  0  0  0  0  0  0  0  0  0
   28.1504  -20.5000  -12.9726 C   0  0  2  0  0  0  0  0  0  0  0  0
   27.7580  -19.8019  -11.7905 N   0  0  0  0  0  0  0  0  0  0  0  0
   28.6982  -19.7275  -14.0775 C   0  0  0  0  0  0  0  0  0  0  0  0
   29.7298  -20.1360  -14.6984 O   0  0  0  0  0  0  0  0  0  0  0  0
   28.1730  -18.5424  -14.5183 O   0  0  0  0  0  0  0  0  0  0  0  0
  2  4  1  0
  2  1  1  6
  3  2  1  0
  4  6  1  0
  4  5  1  6
  6  7  2  0
  8  9  1  0
  8  6  1  0
  9 10  1  1
 10 11  1  0
 11 16  2  0
 12 13  2  0
 12 11  1  0
 13 14  1  0
 14 15  2  0
 16 15  1  0
 17 18  2  0
 17  9  1  0
 20 21  1  0
 20 19  1  0
 21 22  1  0
 23 22  1  6
 23 24  1  0
 23 25  1  0
 24 17  1  0
 25 27  1  0
 26 25  2  0
M  END
$$$$
