VFM.pdb
     RDKit          3D

 27 27  0  0  1  0  0  0  0  0999 V2000
   25.3432  -19.6124  -16.4754 C   0  0  0  0  0  0  0  0  0  0  0  0
   26.4272  -20.6248  -16.3634 C   0  0  1  0  0  0  0  0  0  0  0  0
   27.5728  -20.2869  -17.2856 C   0  0  0  0  0  0  0  0  0  0  0  0
   26.9193  -20.8234  -14.9550 C   0  0  2  0  0  0  0  0  0  0  0  0
   27.9159  -21.9219  -14.9378 N   0  0  0  0  0  0  0  0  0  0  0  0
   25.8648  -21.1961  -14.0091 C   0  0  0  0  0  0  0  0  0  0  0  0
   25.4029  -22.3930  -14.0002 O   0  0  0  0  0  0  0  0  0  0  0  0
   25.2726  -20.3444  -13.0581 N   0  0  0  0  0  0  0  0  0  0  0  0
   24.2816  -20.8483  -12.0968 C   0  0  1  0  0  0  0  0  0  0  0  0
   24.4493  -19.9235  -10.9173 C   0  0  0  0  0  0  0  0  0  0  0  0
   25.4887  -20.2223   -9.9699 C   0  0  0  0  0  0  0  0  0  0  0  0
   26.2065  -21.3887  -10.0357 C   0  0  0  0  0  0  0  0  0  0  0  0
   27.2294  -21.6643   -9.1270 C   0  0  0  0  0  0  0  0  0  0  0  0
   27.5000  -20.7311   -8.1593 C   0  0  0  0  0  0  0  0  0  0  0  0
   26.8051  -19.5507   -8.0585 C   0  0  0  0  0  0  0  0  0  0  0  0
   25.8010  -19.3207   -8.9798 C   0  0  0  0  0  0  0  0  0  0  0  0
   22.9151  -20.7910  -12.7021 C   0  0  0  0  0  0  0  0  0  0  0  0
   22.6386  -19.7742  -13.3585 O   0  0  0  0  0  0  0  0  0  0  0  0
   16.7096  -25.6363  -13.8214 C   0  0  0  0  0  0  0  0  0  0  0  0
   18.2956  -25.3304  -12.9938 S   0  0  0  0  0  0  0  0  0  0  0  0
   18.7200  -23.5537  -13.1581 C   0  0  0  0  0  0  0  0  0  0  0  0
   20.1183  -23.3080  -12.7151 C   0  0  0  0  0  0  0  0  0  0  0  0
   20.6400  -21.9311  -12.9183 C   0  0  2  0  0  0  0  0  0  0  0  0
   22.0094  -21.8555  -12.5209 N   0  0  0  0  0  0  0  0  0  0  0  0
   19.7466  -20.8555  -12.5149 C   0  0  0  0  0  0  0  0  0  0  0  0
   19.8046  -20.3790  -11.3376 O   0  0  0  0  0  0  0  0  0  0  0  0
   18.8042  -20.2945  -13.3346 O   0  0  0  0  0  0  0  0  0  0  0  0
  2  4  1  0
  2  1  1  1
  3  2  1  0
  4  6  1  0
  4  5  1  6
  6  7  2  0
  8  9  1  0
  8  6  1  0
  9 10  1  1
 10 11  1  0
 11 16  2  0
 12 13  2  0
 12 11  1  0
 13 14  1  0
 14 15  2  0
 16 15  1  0
 17 18  2  0
 17  9  1  0
 20 21  1  0
 20 19  1  0
 21 22  1  0
 23 22  1  1
 23 24  1  0
 23 25  1  0
 24 17  1  0
 25 27  1  0
 26 25  2  0
M  END
$$$$
