VFM.pdb
     RDKit          3D

 27 27  0  0  1  0  0  0  0  0999 V2000
   22.0132  -18.6870  -16.3106 C   0  0  0  0  0  0  0  0  0  0  0  0
   22.7354  -19.6707  -17.1612 C   0  0  1  0  0  0  0  0  0  0  0  0
   22.7070  -19.2487  -18.6097 C   0  0  0  0  0  0  0  0  0  0  0  0
   24.1478  -19.9303  -16.7108 C   0  0  2  0  0  0  0  0  0  0  0  0
   24.7602  -20.9528  -17.5937 N   0  0  0  0  0  0  0  0  0  0  0  0
   24.2453  -20.4426  -15.3419 C   0  0  0  0  0  0  0  0  0  0  0  0
   23.8386  -21.6284  -15.0689 O   0  0  0  0  0  0  0  0  0  0  0  0
   24.7641  -19.7440  -14.2359 N   0  0  0  0  0  0  0  0  0  0  0  0
   24.7684  -20.3398  -12.8925 C   0  0  1  0  0  0  0  0  0  0  0  0
   26.0153  -19.7652  -12.2682 C   0  0  0  0  0  0  0  0  0  0  0  0
   26.2826  -20.0755  -10.8900 C   0  0  0  0  0  0  0  0  0  0  0  0
   25.6680  -19.3972   -9.8691 C   0  0  0  0  0  0  0  0  0  0  0  0
   25.9142  -19.7168   -8.5330 C   0  0  0  0  0  0  0  0  0  0  0  0
   26.7934  -20.7347   -8.2657 C   0  0  0  0  0  0  0  0  0  0  0  0
   27.4298  -21.4389   -9.2583 C   0  0  0  0  0  0  0  0  0  0  0  0
   27.1554  -21.0876  -10.5664 C   0  0  0  0  0  0  0  0  0  0  0  0
   23.5166  -19.9607  -12.1669 C   0  0  0  0  0  0  0  0  0  0  0  0
   22.8823  -18.9935  -12.6180 O   0  0  0  0  0  0  0  0  0  0  0  0
   19.5984  -24.2001  -13.1791 C   0  0  0  0  0  0  0  0  0  0  0  0
   18.7487  -22.6265  -12.8697 S   0  0  0  0  0  0  0  0  0  0  0  0
   19.5356  -21.7967  -11.4359 C   0  0  0  0  0  0  0  0  0  0  0  0
   20.9519  -21.4601  -11.7403 C   0  0  0  0  0  0  0  0  0  0  0  0
   21.7714  -20.9719  -10.6004 C   0  0  2  0  0  0  0  0  0  0  0  0
   23.1021  -20.6864  -11.0322 N   0  0  0  0  0  0  0  0  0  0  0  0
   21.5942  -21.6901   -9.3472 C   0  0  0  0  0  0  0  0  0  0  0  0
   20.9158  -21.1767   -8.4024 O   0  0  0  0  0  0  0  0  0  0  0  0
   22.1264  -22.9251   -9.0902 O   0  0  0  0  0  0  0  0  0  0  0  0
  2  4  1  0
  2  1  1  1
  3  2  1  0
  4  6  1  0
  4  5  1  6
  6  7  2  0
  8  9  1  0
  8  6  1  0
  9 10  1  1
 10 11  1  0
 11 16  2  0
 12 13  2  0
 12 11  1  0
 13 14  1  0
 14 15  2  0
 16 15  1  0
 17 18  2  0
 17  9  1  0
 20 21  1  0
 20 19  1  0
 21 22  1  0
 23 22  1  6
 23 24  1  0
 23 25  1  0
 24 17  1  0
 25 27  1  0
 26 25  2  0
M  END
$$$$
