VFM.pdb
     RDKit          3D

 27 27  0  0  1  0  0  0  0  0999 V2000
   29.4640  -18.9017  -17.3789 C   0  0  0  0  0  0  0  0  0  0  0  0
   28.5947  -18.8303  -16.1740 C   0  0  1  0  0  0  0  0  0  0  0  0
   28.5872  -17.4343  -15.6010 C   0  0  0  0  0  0  0  0  0  0  0  0
   27.1899  -19.3121  -16.4184 C   0  0  2  0  0  0  0  0  0  0  0  0
   26.5706  -18.4867  -17.4839 N   0  0  0  0  0  0  0  0  0  0  0  0
   26.3188  -19.2088  -15.2453 C   0  0  0  0  0  0  0  0  0  0  0  0
   25.9246  -18.0583  -14.8367 O   0  0  0  0  0  0  0  0  0  0  0  0
   25.8393  -20.2866  -14.4779 N   0  0  0  0  0  0  0  0  0  0  0  0
   25.0061  -20.0632  -13.2880 C   0  0  1  0  0  0  0  0  0  0  0  0
   23.6660  -20.6189  -13.7004 C   0  0  0  0  0  0  0  0  0  0  0  0
   22.8291  -19.8050  -14.5396 C   0  0  0  0  0  0  0  0  0  0  0  0
   22.9115  -19.8619  -15.9071 C   0  0  0  0  0  0  0  0  0  0  0  0
   22.0816  -19.0861  -16.7177 C   0  0  0  0  0  0  0  0  0  0  0  0
   21.1746  -18.2590  -16.1064 C   0  0  0  0  0  0  0  0  0  0  0  0
   21.0596  -18.1722  -14.7406 C   0  0  0  0  0  0  0  0  0  0  0  0
   21.9020  -18.9589  -13.9781 C   0  0  0  0  0  0  0  0  0  0  0  0
   25.6022  -20.7709  -12.1130 C   0  0  0  0  0  0  0  0  0  0  0  0
   25.9634  -21.9448  -12.2940 O   0  0  0  0  0  0  0  0  0  0  0  0
   28.7653  -17.8745   -7.6323 C   0  0  0  0  0  0  0  0  0  0  0  0
   27.9847  -18.9809   -6.4238 S   0  0  0  0  0  0  0  0  0  0  0  0
   26.9342  -20.1910   -7.3160 C   0  0  0  0  0  0  0  0  0  0  0  0
   26.7176  -19.7574   -8.7220 C   0  0  0  0  0  0  0  0  0  0  0  0
   25.9351  -20.6831   -9.5824 C   0  0  2  0  0  0  0  0  0  0  0  0
   25.7365  -20.1105  -10.8752 N   0  0  0  0  0  0  0  0  0  0  0  0
   24.8047  -21.3344   -8.9377 C   0  0  0  0  0  0  0  0  0  0  0  0
   23.6207  -20.9184   -9.1422 O   0  0  0  0  0  0  0  0  0  0  0  0
   24.9182  -22.4018   -8.0879 O   0  0  0  0  0  0  0  0  0  0  0  0
  2  4  1  0
  2  1  1  6
  3  2  1  0
  4  6  1  0
  4  5  1  6
  6  7  2  0
  8  9  1  0
  8  6  1  0
  9 10  1  6
 10 11  1  0
 11 16  2  0
 12 13  2  0
 12 11  1  0
 13 14  1  0
 14 15  2  0
 16 15  1  0
 17 18  2  0
 17  9  1  0
 20 21  1  0
 20 19  1  0
 21 22  1  0
 23 22  1  1
 23 24  1  0
 23 25  1  0
 24 17  1  0
 25 27  1  0
 26 25  2  0
M  END
$$$$
