VFM.pdb
     RDKit          3D

 27 27  0  0  1  0  0  0  0  0999 V2000
   20.4509  -12.7166  -18.0611 C   0  0  0  0  0  0  0  0  0  0  0  0
   21.6545  -13.0019  -18.8874 C   0  0  1  0  0  0  0  0  0  0  0  0
   21.5892  -14.3941  -19.4657 C   0  0  0  0  0  0  0  0  0  0  0  0
   21.8918  -11.9862  -19.9724 C   0  0  2  0  0  0  0  0  0  0  0  0
   23.1601  -12.3075  -20.6712 N   0  0  0  0  0  0  0  0  0  0  0  0
   22.0195  -10.6135  -19.4772 C   0  0  0  0  0  0  0  0  0  0  0  0
   23.1301  -10.2118  -18.9758 O   0  0  0  0  0  0  0  0  0  0  0  0
   21.0085   -9.6348  -19.4928 N   0  0  0  0  0  0  0  0  0  0  0  0
   21.2378   -8.2938  -18.9367 C   0  0  1  0  0  0  0  0  0  0  0  0
   20.5670   -7.3890  -19.9397 C   0  0  0  0  0  0  0  0  0  0  0  0
   21.2604   -7.1157  -21.1693 C   0  0  0  0  0  0  0  0  0  0  0  0
   22.2922   -6.2146  -21.2267 C   0  0  0  0  0  0  0  0  0  0  0  0
   22.9766   -5.9689  -22.4180 C   0  0  0  0  0  0  0  0  0  0  0  0
   22.5873   -6.6575  -23.5382 C   0  0  0  0  0  0  0  0  0  0  0  0
   21.5594   -7.5682  -23.5237 C   0  0  0  0  0  0  0  0  0  0  0  0
   20.9105   -7.7790  -22.3218 C   0  0  0  0  0  0  0  0  0  0  0  0
   20.6399   -8.2044  -17.5687 C   0  0  0  0  0  0  0  0  0  0  0  0
   19.4404   -8.5070  -17.4640 O   0  0  0  0  0  0  0  0  0  0  0  0
   22.4936   -9.7845  -10.2022 C   0  0  0  0  0  0  0  0  0  0  0  0
   22.8763   -9.7486  -11.9760 S   0  0  0  0  0  0  0  0  0  0  0  0
   21.6732   -8.6534  -12.8226 C   0  0  0  0  0  0  0  0  0  0  0  0
   21.9245   -8.6364  -14.2883 C   0  0  0  0  0  0  0  0  0  0  0  0
   21.0588   -7.7354  -15.0935 C   0  0  2  0  0  0  0  0  0  0  0  0
   21.4254   -7.7963  -16.4721 N   0  0  0  0  0  0  0  0  0  0  0  0
   20.7970   -6.4289  -14.5085 C   0  0  0  0  0  0  0  0  0  0  0  0
   21.5785   -5.4529  -14.7395 O   0  0  0  0  0  0  0  0  0  0  0  0
   19.7342   -6.1550  -13.6900 O   0  0  0  0  0  0  0  0  0  0  0  0
  2  4  1  0
  2  1  1  6
  3  2  1  0
  4  6  1  0
  4  5  1  1
  6  7  2  0
  8  9  1  0
  8  6  1  0
  9 10  1  6
 10 11  1  0
 11 16  2  0
 12 13  2  0
 12 11  1  0
 13 14  1  0
 14 15  2  0
 16 15  1  0
 17 18  2  0
 17  9  1  0
 20 21  1  0
 20 19  1  0
 21 22  1  0
 23 22  1  1
 23 24  1  0
 23 25  1  0
 24 17  1  0
 25 27  1  0
 26 25  2  0
M  END
$$$$
