HHE.pdb
     RDKit          3D

 30 31  0  0  1  0  0  0  0  0999 V2000
    8.3720  -17.2101   18.6570 N   0  0  0  0  0  0  0  0  0  0  0  0
    9.6740  -16.6597   18.9357 C   0  0  1  0  0  0  0  0  0  0  0  0
   10.0731  -15.8209   17.7450 C   0  0  0  0  0  0  0  0  0  0  0  0
    8.9428  -14.8912   17.4588 C   0  0  0  0  0  0  0  0  0  0  0  0
    7.7644  -14.7673   18.1681 C   0  0  0  0  0  0  0  0  0  0  0  0
    7.0271  -13.8157   17.5662 N   0  0  0  0  0  0  0  0  0  0  0  0
    7.6833  -13.3337   16.5121 C   0  0  0  0  0  0  0  0  0  0  0  0
    8.8444  -13.9855   16.4472 N   0  0  0  0  0  0  0  0  0  0  0  0
    9.6566  -15.8931   20.1966 C   0  0  0  0  0  0  0  0  0  0  0  0
   10.7072  -15.2675   20.5519 O   0  0  0  0  0  0  0  0  0  0  0  0
    8.4637  -15.8567   21.0094 N   0  0  0  0  0  0  0  0  0  0  0  0
    8.5922  -15.4470   22.3657 C   0  0  1  0  0  0  0  0  0  0  0  0
    7.2917  -15.0977   23.0175 C   0  0  0  0  0  0  0  0  0  0  0  0
    7.3569  -14.3584   24.2788 C   0  0  0  0  0  0  0  0  0  0  0  0
    8.3804  -13.8635   25.0288 C   0  0  0  0  0  0  0  0  0  0  0  0
    7.8677  -13.2432   26.1048 N   0  0  0  0  0  0  0  0  0  0  0  0
    6.5384  -13.3439   26.0360 C   0  0  0  0  0  0  0  0  0  0  0  0
    6.2062  -14.0169   24.9358 N   0  0  0  0  0  0  0  0  0  0  0  0
    9.2739  -16.4667   23.2296 C   0  0  0  0  0  0  0  0  0  0  0  0
    8.8644  -17.6493   23.1836 O   0  0  0  0  0  0  0  0  0  0  0  0
   10.3489  -16.1568   24.0879 N   0  0  0  0  0  0  0  0  0  0  0  0
   11.0224  -17.1045   24.9436 C   0  0  1  0  0  0  0  0  0  0  0  0
   12.5081  -16.9830   24.9432 C   0  0  0  0  0  0  0  0  0  0  0  0
   13.1294  -17.1278   23.5707 C   0  0  0  0  0  0  0  0  0  0  0  0
   14.5834  -16.9647   23.7320 C   0  0  0  0  0  0  0  0  0  0  0  0
   15.0544  -16.7251   24.8584 O   0  0  0  0  0  0  0  0  0  0  0  0
   10.5349  -16.8789   26.3305 C   0  0  0  0  0  0  0  0  0  0  0  0
    9.7820  -15.9028   26.6345 O   0  0  0  0  0  0  0  0  0  0  0  0
   15.4204  -17.0761   22.6470 O   0  0  0  0  0  0  0  0  0  0  0  0
   10.8731  -17.7242   27.3867 O   0  0  0  0  0  0  0  0  0  0  0  0
  2  1  1  6
  2  9  1  0
  2  3  1  0
  4  3  1  0
  4  8  1  0
  5  6  1  0
  5  4  2  0
  6  7  1  0
  7  8  2  0
  9 11  1  0
 10  9  2  0
 11 12  1  0
 12 13  1  1
 13 14  1  0
 14 18  1  0
 15 14  2  0
 15 16  1  0
 16 17  1  0
 18 17  2  0
 19 21  1  0
 19 12  1  0
 20 19  2  0
 22 27  1  0
 22 23  1  1
 22 21  1  0
 24 23  1  0
 25 24  1  0
 26 25  2  0
 27 30  1  0
 28 27  2  0
 29 25  1  0
M  END
$$$$
