HHE.pdb
     RDKit          3D

 30 31  0  0  1  0  0  0  0  0999 V2000
    9.7056  -15.5185   17.4120 N   0  0  0  0  0  0  0  0  0  0  0  0
   10.5129  -14.5718   18.1386 C   0  0  1  0  0  0  0  0  0  0  0  0
    9.7262  -14.1498   19.3566 C   0  0  0  0  0  0  0  0  0  0  0  0
    8.4853  -13.4791   18.8727 C   0  0  0  0  0  0  0  0  0  0  0  0
    8.0819  -13.3165   17.5620 C   0  0  0  0  0  0  0  0  0  0  0  0
    6.9087  -12.6570   17.5778 N   0  0  0  0  0  0  0  0  0  0  0  0
    6.5531  -12.3960   18.8345 C   0  0  0  0  0  0  0  0  0  0  0  0
    7.5087  -12.8944   19.6192 N   0  0  0  0  0  0  0  0  0  0  0  0
   11.8242  -15.1575   18.4781 C   0  0  0  0  0  0  0  0  0  0  0  0
   11.9043  -16.4116   18.6832 O   0  0  0  0  0  0  0  0  0  0  0  0
   12.9938  -14.3162   18.5740 N   0  0  0  0  0  0  0  0  0  0  0  0
   14.2443  -14.9394   18.8419 C   0  0  1  0  0  0  0  0  0  0  0  0
   15.3719  -14.4141   18.0107 C   0  0  0  0  0  0  0  0  0  0  0  0
   15.4842  -14.9236   16.6434 C   0  0  0  0  0  0  0  0  0  0  0  0
   15.0034  -16.0277   16.0071 C   0  0  0  0  0  0  0  0  0  0  0  0
   15.4005  -15.9947   14.7239 N   0  0  0  0  0  0  0  0  0  0  0  0
   16.1220  -14.8849   14.5509 C   0  0  0  0  0  0  0  0  0  0  0  0
   16.1858  -14.2196   15.7029 N   0  0  0  0  0  0  0  0  0  0  0  0
   14.6573  -14.8425   20.2809 C   0  0  0  0  0  0  0  0  0  0  0  0
   14.8363  -13.7033   20.7692 O   0  0  0  0  0  0  0  0  0  0  0  0
   14.8530  -15.9696   21.1055 N   0  0  0  0  0  0  0  0  0  0  0  0
   15.1923  -15.9182   22.5078 C   0  0  1  0  0  0  0  0  0  0  0  0
   14.8700  -17.1626   23.2625 C   0  0  0  0  0  0  0  0  0  0  0  0
   15.3591  -17.1488   24.6947 C   0  0  0  0  0  0  0  0  0  0  0  0
   14.8865  -18.3908   25.3278 C   0  0  0  0  0  0  0  0  0  0  0  0
   13.9709  -19.0431   24.7949 O   0  0  0  0  0  0  0  0  0  0  0  0
   16.6569  -15.6785   22.6043 C   0  0  0  0  0  0  0  0  0  0  0  0
   17.4593  -15.9972   21.6734 O   0  0  0  0  0  0  0  0  0  0  0  0
   15.4510  -18.8317   26.5014 O   0  0  0  0  0  0  0  0  0  0  0  0
   17.2439  -15.0886   23.7232 O   0  0  0  0  0  0  0  0  0  0  0  0
  2  1  1  1
  2  9  1  0
  2  3  1  0
  4  3  1  0
  4  8  1  0
  5  6  1  0
  5  4  2  0
  6  7  1  0
  7  8  2  0
  9 11  1  0
 10  9  2  0
 11 12  1  0
 12 13  1  6
 13 14  1  0
 14 18  1  0
 15 14  2  0
 15 16  1  0
 16 17  1  0
 18 17  2  0
 19 21  1  0
 19 12  1  0
 20 19  2  0
 22 27  1  0
 22 23  1  6
 22 21  1  0
 24 23  1  0
 25 24  1  0
 26 25  2  0
 27 30  1  0
 28 27  2  0
 29 25  1  0
M  END
$$$$
