HHE.pdb
     RDKit          3D

 30 31  0  0  1  0  0  0  0  0999 V2000
    7.4111  -16.9329   19.0093 N   0  0  0  0  0  0  0  0  0  0  0  0
    8.4863  -17.1853   19.9346 C   0  0  1  0  0  0  0  0  0  0  0  0
    9.4970  -16.0761   19.7645 C   0  0  0  0  0  0  0  0  0  0  0  0
    8.7458  -14.8470   19.3790 C   0  0  0  0  0  0  0  0  0  0  0  0
    7.3996  -14.7492   19.0871 C   0  0  0  0  0  0  0  0  0  0  0  0
    7.1419  -13.4623   18.7886 N   0  0  0  0  0  0  0  0  0  0  0  0
    8.2601  -12.7442   18.8781 C   0  0  0  0  0  0  0  0  0  0  0  0
    9.2320  -13.5836   19.2360 N   0  0  0  0  0  0  0  0  0  0  0  0
    7.9733  -17.2863   21.3146 C   0  0  0  0  0  0  0  0  0  0  0  0
    6.9136  -16.6529   21.6259 O   0  0  0  0  0  0  0  0  0  0  0  0
    8.6667  -18.0928   22.2912 N   0  0  0  0  0  0  0  0  0  0  0  0
    8.1516  -18.1256   23.6170 C   0  0  1  0  0  0  0  0  0  0  0  0
    8.0817  -19.4996   24.2045 C   0  0  0  0  0  0  0  0  0  0  0  0
    7.5461  -19.6167   25.5614 C   0  0  0  0  0  0  0  0  0  0  0  0
    7.0017  -18.7288   26.4391 C   0  0  0  0  0  0  0  0  0  0  0  0
    6.6542  -19.3852   27.5589 N   0  0  0  0  0  0  0  0  0  0  0  0
    6.9739  -20.6705   27.3915 C   0  0  0  0  0  0  0  0  0  0  0  0
    7.5166  -20.8337   26.1862 N   0  0  0  0  0  0  0  0  0  0  0  0
    8.9211  -17.2617   24.5721 C   0  0  0  0  0  0  0  0  0  0  0  0
   10.1552  -17.4479   24.6748 O   0  0  0  0  0  0  0  0  0  0  0  0
    8.3220  -16.2547   25.3566 N   0  0  0  0  0  0  0  0  0  0  0  0
    9.0409  -15.3137   26.1824 C   0  0  1  0  0  0  0  0  0  0  0  0
    8.3230  -14.0280   26.4140 C   0  0  0  0  0  0  0  0  0  0  0  0
    6.8186  -14.1766   26.4879 C   0  0  0  0  0  0  0  0  0  0  0  0
    6.2603  -12.8360   26.7282 C   0  0  0  0  0  0  0  0  0  0  0  0
    7.0198  -11.8990   27.0334 O   0  0  0  0  0  0  0  0  0  0  0  0
    9.2744  -15.9631   27.4999 C   0  0  0  0  0  0  0  0  0  0  0  0
    9.9647  -15.4148   28.4136 O   0  0  0  0  0  0  0  0  0  0  0  0
    4.9078  -12.6155   26.6169 O   0  0  0  0  0  0  0  0  0  0  0  0
    8.7509  -17.2160   27.8169 O   0  0  0  0  0  0  0  0  0  0  0  0
  2  1  1  6
  2  9  1  0
  2  3  1  0
  4  3  1  0
  4  8  1  0
  5  6  1  0
  5  4  2  0
  6  7  1  0
  7  8  2  0
  9 11  1  0
 10  9  2  0
 11 12  1  0
 12 13  1  1
 13 14  1  0
 14 18  1  0
 15 14  2  0
 15 16  1  0
 16 17  1  0
 18 17  2  0
 19 21  1  0
 19 12  1  0
 20 19  2  0
 22 27  1  0
 22 23  1  1
 22 21  1  0
 24 23  1  0
 25 24  1  0
 26 25  2  0
 27 30  1  0
 28 27  2  0
 29 25  1  0
M  END
$$$$
