HHE.pdb
     RDKit          3D

 30 31  0  0  1  0  0  0  0  0999 V2000
    7.7159  -17.2378   19.0695 N   0  0  0  0  0  0  0  0  0  0  0  0
    9.0379  -16.7227   19.3205 C   0  0  1  0  0  0  0  0  0  0  0  0
    8.8911  -15.5319   20.2374 C   0  0  0  0  0  0  0  0  0  0  0  0
    8.2120  -14.4552   19.4607 C   0  0  0  0  0  0  0  0  0  0  0  0
    7.8071  -14.5069   18.1414 C   0  0  0  0  0  0  0  0  0  0  0  0
    7.2420  -13.3221   17.8441 N   0  0  0  0  0  0  0  0  0  0  0  0
    7.2711  -12.5261   18.9115 C   0  0  0  0  0  0  0  0  0  0  0  0
    7.8589  -13.2130   19.8913 N   0  0  0  0  0  0  0  0  0  0  0  0
    9.9088  -17.7738   19.8814 C   0  0  0  0  0  0  0  0  0  0  0  0
    9.4126  -18.6128   20.7006 O   0  0  0  0  0  0  0  0  0  0  0  0
   11.3004  -17.8443   19.5027 N   0  0  0  0  0  0  0  0  0  0  0  0
   12.0880  -18.8967   20.0469 C   0  0  1  0  0  0  0  0  0  0  0  0
   13.3108  -19.2132   19.2453 C   0  0  0  0  0  0  0  0  0  0  0  0
   13.1113  -19.9114   17.9747 C   0  0  0  0  0  0  0  0  0  0  0  0
   12.0337  -20.4934   17.3788 C   0  0  0  0  0  0  0  0  0  0  0  0
   12.4108  -20.9818   16.1852 N   0  0  0  0  0  0  0  0  0  0  0  0
   13.7088  -20.7120   16.0282 C   0  0  0  0  0  0  0  0  0  0  0  0
   14.1545  -20.0628   17.1022 N   0  0  0  0  0  0  0  0  0  0  0  0
   12.5244  -18.6395   21.4590 C   0  0  0  0  0  0  0  0  0  0  0  0
   12.7761  -17.4595   21.7944 O   0  0  0  0  0  0  0  0  0  0  0  0
   12.6646  -19.6601   22.4218 N   0  0  0  0  0  0  0  0  0  0  0  0
   12.9562  -19.4433   23.8190 C   0  0  1  0  0  0  0  0  0  0  0  0
   12.1681  -20.3002   24.7499 C   0  0  0  0  0  0  0  0  0  0  0  0
   12.4880  -20.0651   26.2104 C   0  0  0  0  0  0  0  0  0  0  0  0
   11.6344  -20.9726   26.9943 C   0  0  0  0  0  0  0  0  0  0  0  0
   10.8066  -21.6955   26.4111 O   0  0  0  0  0  0  0  0  0  0  0  0
   14.4002  -19.7346   24.0241 C   0  0  0  0  0  0  0  0  0  0  0  0
   15.0619  -20.4752   23.2331 O   0  0  0  0  0  0  0  0  0  0  0  0
   11.7479  -21.0249   28.3635 O   0  0  0  0  0  0  0  0  0  0  0  0
   15.1207  -19.2137   25.0983 O   0  0  0  0  0  0  0  0  0  0  0  0
  2  1  1  1
  2  9  1  0
  2  3  1  0
  4  3  1  0
  4  8  1  0
  5  6  1  0
  5  4  2  0
  6  7  1  0
  7  8  2  0
  9 11  1  0
 10  9  2  0
 11 12  1  0
 12 13  1  6
 13 14  1  0
 14 18  1  0
 15 14  2  0
 15 16  1  0
 16 17  1  0
 18 17  2  0
 19 21  1  0
 19 12  1  0
 20 19  2  0
 22 27  1  0
 22 23  1  1
 22 21  1  0
 24 23  1  0
 25 24  1  0
 26 25  2  0
 27 30  1  0
 28 27  2  0
 29 25  1  0
M  END
$$$$
