HHE.pdb
     RDKit          3D

 30 31  0  0  1  0  0  0  0  0999 V2000
   11.6155  -15.0715   15.5669 N   0  0  0  0  0  0  0  0  0  0  0  0
   12.4218  -15.7910   16.5198 C   0  0  1  0  0  0  0  0  0  0  0  0
   13.8373  -15.8039   15.9937 C   0  0  0  0  0  0  0  0  0  0  0  0
   13.8441  -16.6409   14.7595 C   0  0  0  0  0  0  0  0  0  0  0  0
   13.6827  -18.0101   14.6792 C   0  0  0  0  0  0  0  0  0  0  0  0
   13.7585  -18.3516   13.3795 N   0  0  0  0  0  0  0  0  0  0  0  0
   13.9598  -17.2645   12.6368 C   0  0  0  0  0  0  0  0  0  0  0  0
   14.0115  -16.2278   13.4733 N   0  0  0  0  0  0  0  0  0  0  0  0
   12.3140  -15.1813   17.8593 C   0  0  0  0  0  0  0  0  0  0  0  0
   13.0947  -14.2229   18.1647 O   0  0  0  0  0  0  0  0  0  0  0  0
   11.3362  -15.6682   18.8037 N   0  0  0  0  0  0  0  0  0  0  0  0
   11.3026  -15.0743   20.0961 C   0  0  1  0  0  0  0  0  0  0  0  0
    9.9208  -14.8698   20.6316 C   0  0  0  0  0  0  0  0  0  0  0  0
    9.0598  -13.9313   19.9107 C   0  0  0  0  0  0  0  0  0  0  0  0
    9.2815  -13.0120   18.9305 C   0  0  0  0  0  0  0  0  0  0  0  0
    8.1144  -12.4256   18.6153 N   0  0  0  0  0  0  0  0  0  0  0  0
    7.1676  -12.9669   19.3853 C   0  0  0  0  0  0  0  0  0  0  0  0
    7.7190  -13.8831   20.1792 N   0  0  0  0  0  0  0  0  0  0  0  0
   12.0779  -15.8465   21.1223 C   0  0  0  0  0  0  0  0  0  0  0  0
   11.8692  -17.0776   21.2179 O   0  0  0  0  0  0  0  0  0  0  0  0
   13.0261  -15.2533   21.9810 N   0  0  0  0  0  0  0  0  0  0  0  0
   13.9460  -15.9799   22.8236 C   0  0  1  0  0  0  0  0  0  0  0  0
   15.1072  -15.1756   23.2998 C   0  0  0  0  0  0  0  0  0  0  0  0
   16.0196  -15.9263   24.2456 C   0  0  0  0  0  0  0  0  0  0  0  0
   17.3944  -15.4770   23.9721 C   0  0  0  0  0  0  0  0  0  0  0  0
   17.8735  -14.5312   24.6233 O   0  0  0  0  0  0  0  0  0  0  0  0
   13.1856  -16.4525   24.0113 C   0  0  0  0  0  0  0  0  0  0  0  0
   12.1594  -15.8442   24.4458 O   0  0  0  0  0  0  0  0  0  0  0  0
   18.1489  -16.0961   23.0038 O   0  0  0  0  0  0  0  0  0  0  0  0
   13.5505  -17.5937   24.7246 O   0  0  0  0  0  0  0  0  0  0  0  0
  2  1  1  6
  2  9  1  0
  2  3  1  0
  4  3  1  0
  4  8  1  0
  5  6  1  0
  5  4  2  0
  6  7  1  0
  7  8  2  0
  9 11  1  0
 10  9  2  0
 11 12  1  0
 12 13  1  1
 13 14  1  0
 14 18  1  0
 15 14  2  0
 15 16  1  0
 16 17  1  0
 18 17  2  0
 19 21  1  0
 19 12  1  0
 20 19  2  0
 22 27  1  0
 22 23  1  1
 22 21  1  0
 24 23  1  0
 25 24  1  0
 26 25  2  0
 27 30  1  0
 28 27  2  0
 29 25  1  0
M  END
$$$$
