HHE.pdb
     RDKit          3D

 30 31  0  0  1  0  0  0  0  0999 V2000
   11.7452  -16.0322   12.3821 N   0  0  0  0  0  0  0  0  0  0  0  0
   11.1831  -16.7697   13.4849 C   0  0  1  0  0  0  0  0  0  0  0  0
   12.0424  -17.9939   13.6932 C   0  0  0  0  0  0  0  0  0  0  0  0
   11.3626  -19.1338   13.0133 C   0  0  0  0  0  0  0  0  0  0  0  0
   10.0811  -19.1541   12.4991 C   0  0  0  0  0  0  0  0  0  0  0  0
    9.8726  -20.3775   11.9781 N   0  0  0  0  0  0  0  0  0  0  0  0
   10.9602  -21.1293   12.1390 C   0  0  0  0  0  0  0  0  0  0  0  0
   11.8632  -20.3753   12.7663 N   0  0  0  0  0  0  0  0  0  0  0  0
   11.0946  -15.9203   14.6885 C   0  0  0  0  0  0  0  0  0  0  0  0
   12.1241  -15.2703   15.0610 O   0  0  0  0  0  0  0  0  0  0  0  0
    9.8570  -15.8320   15.4271 N   0  0  0  0  0  0  0  0  0  0  0  0
    9.8353  -15.0268   16.5998 C   0  0  1  0  0  0  0  0  0  0  0  0
    8.4705  -14.8499   17.1864 C   0  0  0  0  0  0  0  0  0  0  0  0
    8.3635  -14.0128   18.3821 C   0  0  0  0  0  0  0  0  0  0  0  0
    9.2659  -13.3195   19.1304 C   0  0  0  0  0  0  0  0  0  0  0  0
    8.6141  -12.6970   20.1270 N   0  0  0  0  0  0  0  0  0  0  0  0
    7.3175  -12.9923   20.0104 C   0  0  0  0  0  0  0  0  0  0  0  0
    7.1425  -13.7897   18.9581 N   0  0  0  0  0  0  0  0  0  0  0  0
   10.7337  -15.5398   17.6862 C   0  0  0  0  0  0  0  0  0  0  0  0
   10.7887  -16.7769   17.8730 O   0  0  0  0  0  0  0  0  0  0  0  0
   11.5152  -14.6976   18.5037 N   0  0  0  0  0  0  0  0  0  0  0  0
   12.5386  -15.1498   19.4161 C   0  0  1  0  0  0  0  0  0  0  0  0
   13.6943  -14.2181   19.5516 C   0  0  0  0  0  0  0  0  0  0  0  0
   14.8061  -14.7524   20.4286 C   0  0  0  0  0  0  0  0  0  0  0  0
   16.0038  -13.9415   20.1550 C   0  0  0  0  0  0  0  0  0  0  0  0
   15.9858  -13.1106   19.2290 O   0  0  0  0  0  0  0  0  0  0  0  0
   11.9064  -15.3089   20.7529 C   0  0  0  0  0  0  0  0  0  0  0  0
   10.7941  -14.7711   21.0455 O   0  0  0  0  0  0  0  0  0  0  0  0
   17.1382  -14.0976   20.9159 O   0  0  0  0  0  0  0  0  0  0  0  0
   12.4943  -16.0582   21.7714 O   0  0  0  0  0  0  0  0  0  0  0  0
  2  1  1  6
  2  9  1  0
  2  3  1  0
  4  3  1  0
  4  8  1  0
  5  6  1  0
  5  4  2  0
  6  7  1  0
  7  8  2  0
  9 11  1  0
 10  9  2  0
 11 12  1  0
 12 13  1  1
 13 14  1  0
 14 18  1  0
 15 14  2  0
 15 16  1  0
 16 17  1  0
 18 17  2  0
 19 21  1  0
 19 12  1  0
 20 19  2  0
 22 27  1  0
 22 23  1  1
 22 21  1  0
 24 23  1  0
 25 24  1  0
 26 25  2  0
 27 30  1  0
 28 27  2  0
 29 25  1  0
M  END
$$$$
