HHE.pdb
     RDKit          3D

 30 31  0  0  1  0  0  0  0  0999 V2000
    9.7695  -17.5759   16.8426 N   0  0  0  0  0  0  0  0  0  0  0  0
   10.7784  -16.5476   16.8184 C   0  0  1  0  0  0  0  0  0  0  0  0
   10.3542  -15.5240   15.7923 C   0  0  0  0  0  0  0  0  0  0  0  0
   10.2826  -16.2197   14.4753 C   0  0  0  0  0  0  0  0  0  0  0  0
    9.6796  -17.4321   14.2039 C   0  0  0  0  0  0  0  0  0  0  0  0
    9.8519  -17.6863   12.8935 N   0  0  0  0  0  0  0  0  0  0  0  0
   10.5341  -16.6933   12.3257 C   0  0  0  0  0  0  0  0  0  0  0  0
   10.7950  -15.8044   13.2845 N   0  0  0  0  0  0  0  0  0  0  0  0
   10.9641  -15.9681   18.1628 C   0  0  0  0  0  0  0  0  0  0  0  0
   11.7776  -14.9995   18.3093 O   0  0  0  0  0  0  0  0  0  0  0  0
   10.2315  -16.4955   19.2899 N   0  0  0  0  0  0  0  0  0  0  0  0
   10.4404  -15.8944   20.5623 C   0  0  1  0  0  0  0  0  0  0  0  0
    9.1902  -15.3720   21.1966 C   0  0  0  0  0  0  0  0  0  0  0  0
    8.4174  -14.3904   20.4345 C   0  0  0  0  0  0  0  0  0  0  0  0
    7.3238  -14.4740   19.6269 C   0  0  0  0  0  0  0  0  0  0  0  0
    7.0134  -13.2418   19.1902 N   0  0  0  0  0  0  0  0  0  0  0  0
    7.8981  -12.3907   19.7145 C   0  0  0  0  0  0  0  0  0  0  0  0
    8.7595  -13.0661   20.4731 N   0  0  0  0  0  0  0  0  0  0  0  0
   11.1011  -16.8117   21.5485 C   0  0  0  0  0  0  0  0  0  0  0  0
   10.8127  -18.0297   21.5082 O   0  0  0  0  0  0  0  0  0  0  0  0
   12.0271  -16.3682   22.5151 N   0  0  0  0  0  0  0  0  0  0  0  0
   12.7747  -17.2302   23.3995 C   0  0  1  0  0  0  0  0  0  0  0  0
   14.2342  -16.9328   23.4563 C   0  0  0  0  0  0  0  0  0  0  0  0
   14.6020  -15.5816   22.8822 C   0  0  0  0  0  0  0  0  0  0  0  0
   16.0699  -15.4781   22.9193 C   0  0  0  0  0  0  0  0  0  0  0  0
   16.6115  -14.6996   23.7246 O   0  0  0  0  0  0  0  0  0  0  0  0
   12.2102  -17.0660   24.7656 C   0  0  0  0  0  0  0  0  0  0  0  0
   11.3133  -16.2071   25.0303 O   0  0  0  0  0  0  0  0  0  0  0  0
   16.8423  -16.2357   22.0709 O   0  0  0  0  0  0  0  0  0  0  0  0
   12.6293  -17.8441   25.8442 O   0  0  0  0  0  0  0  0  0  0  0  0
  2  1  1  1
  2  9  1  0
  2  3  1  0
  4  3  1  0
  4  8  1  0
  5  6  1  0
  5  4  2  0
  6  7  1  0
  7  8  2  0
  9 11  1  0
 10  9  2  0
 11 12  1  0
 12 13  1  1
 13 14  1  0
 14 18  1  0
 15 14  2  0
 15 16  1  0
 16 17  1  0
 18 17  2  0
 19 21  1  0
 19 12  1  0
 20 19  2  0
 22 27  1  0
 22 23  1  1
 22 21  1  0
 24 23  1  0
 25 24  1  0
 26 25  2  0
 27 30  1  0
 28 27  2  0
 29 25  1  0
M  END
$$$$
