HHE.pdb
     RDKit          3D

 30 31  0  0  1  0  0  0  0  0999 V2000
   12.4000  -16.0331   15.5009 N   0  0  0  0  0  0  0  0  0  0  0  0
   11.5246  -16.8098   16.3414 C   0  0  1  0  0  0  0  0  0  0  0  0
   12.0390  -18.2296   16.3379 C   0  0  0  0  0  0  0  0  0  0  0  0
   11.6623  -18.8344   15.0279 C   0  0  0  0  0  0  0  0  0  0  0  0
   10.4176  -18.8208   14.4298 C   0  0  0  0  0  0  0  0  0  0  0  0
   10.5218  -19.4815   13.2619 N   0  0  0  0  0  0  0  0  0  0  0  0
   11.7714  -19.9110   13.0946 C   0  0  0  0  0  0  0  0  0  0  0  0
   12.4625  -19.5186   14.1650 N   0  0  0  0  0  0  0  0  0  0  0  0
   11.4533  -16.2296   17.6965 C   0  0  0  0  0  0  0  0  0  0  0  0
   12.5064  -15.7300   18.2090 O   0  0  0  0  0  0  0  0  0  0  0  0
   10.2059  -16.2313   18.4238 N   0  0  0  0  0  0  0  0  0  0  0  0
   10.2011  -15.6968   19.7423 C   0  0  1  0  0  0  0  0  0  0  0  0
    8.8387  -15.3328   20.2420 C   0  0  0  0  0  0  0  0  0  0  0  0
    8.1027  -14.3172   19.4880 C   0  0  0  0  0  0  0  0  0  0  0  0
    8.0650  -12.9563   19.5295 C   0  0  0  0  0  0  0  0  0  0  0  0
    7.2149  -12.5181   18.5858 N   0  0  0  0  0  0  0  0  0  0  0  0
    6.7221  -13.5870   17.9558 C   0  0  0  0  0  0  0  0  0  0  0  0
    7.2473  -14.6896   18.4870 N   0  0  0  0  0  0  0  0  0  0  0  0
   10.8266  -16.6114   20.7536 C   0  0  0  0  0  0  0  0  0  0  0  0
   10.6951  -17.8466   20.5949 O   0  0  0  0  0  0  0  0  0  0  0  0
   11.5519  -16.1471   21.8702 N   0  0  0  0  0  0  0  0  0  0  0  0
   12.4760  -16.9419   22.6436 C   0  0  1  0  0  0  0  0  0  0  0  0
   13.8073  -16.3046   22.8523 C   0  0  0  0  0  0  0  0  0  0  0  0
   14.7803  -17.1685   23.6253 C   0  0  0  0  0  0  0  0  0  0  0  0
   16.0631  -16.4478   23.6678 C   0  0  0  0  0  0  0  0  0  0  0  0
   16.4816  -15.8759   22.6452 O   0  0  0  0  0  0  0  0  0  0  0  0
   11.8564  -17.1779   23.9749 C   0  0  0  0  0  0  0  0  0  0  0  0
   12.3713  -17.9582   24.8341 O   0  0  0  0  0  0  0  0  0  0  0  0
   16.7980  -16.4038   24.8289 O   0  0  0  0  0  0  0  0  0  0  0  0
   10.6700  -16.5581   24.3657 O   0  0  0  0  0  0  0  0  0  0  0  0
  2  1  1  6
  2  9  1  0
  2  3  1  0
  4  3  1  0
  4  8  1  0
  5  6  1  0
  5  4  2  0
  6  7  1  0
  7  8  2  0
  9 11  1  0
 10  9  2  0
 11 12  1  0
 12 13  1  1
 13 14  1  0
 14 18  1  0
 15 14  2  0
 15 16  1  0
 16 17  1  0
 18 17  2  0
 19 21  1  0
 19 12  1  0
 20 19  2  0
 22 27  1  0
 22 23  1  1
 22 21  1  0
 24 23  1  0
 25 24  1  0
 26 25  2  0
 27 30  1  0
 28 27  2  0
 29 25  1  0
M  END
$$$$
