HHE.pdb
     RDKit          3D

 30 31  0  0  1  0  0  0  0  0999 V2000
    8.9610  -16.2248   17.1414 N   0  0  0  0  0  0  0  0  0  0  0  0
    9.8111  -15.2638   16.4858 C   0  0  1  0  0  0  0  0  0  0  0  0
    9.1877  -13.9024   16.6825 C   0  0  0  0  0  0  0  0  0  0  0  0
    8.8445  -13.7765   18.1282 C   0  0  0  0  0  0  0  0  0  0  0  0
    7.8884  -14.4901   18.8238 C   0  0  0  0  0  0  0  0  0  0  0  0
    7.9091  -14.0594   20.0988 N   0  0  0  0  0  0  0  0  0  0  0  0
    8.8316  -13.1092   20.2408 C   0  0  0  0  0  0  0  0  0  0  0  0
    9.3985  -12.9380   19.0463 N   0  0  0  0  0  0  0  0  0  0  0  0
   11.1886  -15.3442   17.0091 C   0  0  0  0  0  0  0  0  0  0  0  0
   12.1346  -15.6424   16.2106 O   0  0  0  0  0  0  0  0  0  0  0  0
   11.4526  -15.0870   18.4052 N   0  0  0  0  0  0  0  0  0  0  0  0
   12.8079  -15.0783   18.8378 C   0  0  1  0  0  0  0  0  0  0  0  0
   13.6641  -14.0809   18.1234 C   0  0  0  0  0  0  0  0  0  0  0  0
   14.6456  -14.6059   17.1733 C   0  0  0  0  0  0  0  0  0  0  0  0
   14.8236  -15.8166   16.5752 C   0  0  0  0  0  0  0  0  0  0  0  0
   15.8912  -15.7449   15.7626 N   0  0  0  0  0  0  0  0  0  0  0  0
   16.3814  -14.5059   15.8452 C   0  0  0  0  0  0  0  0  0  0  0  0
   15.6409  -13.7974   16.6958 N   0  0  0  0  0  0  0  0  0  0  0  0
   12.9572  -14.8331   20.3103 C   0  0  0  0  0  0  0  0  0  0  0  0
   13.0496  -13.6486   20.7061 O   0  0  0  0  0  0  0  0  0  0  0  0
   12.9989  -15.8699   21.2653 N   0  0  0  0  0  0  0  0  0  0  0  0
   13.0550  -15.6746   22.6946 C   0  0  1  0  0  0  0  0  0  0  0  0
   12.0078  -16.4134   23.4558 C   0  0  0  0  0  0  0  0  0  0  0  0
   11.7564  -17.8142   22.9408 C   0  0  0  0  0  0  0  0  0  0  0  0
   10.8070  -18.4540   23.8659 C   0  0  0  0  0  0  0  0  0  0  0  0
    9.5913  -18.2085   23.7668 O   0  0  0  0  0  0  0  0  0  0  0  0
   14.3884  -16.1437   23.1573 C   0  0  0  0  0  0  0  0  0  0  0  0
   14.7845  -15.9885   24.3536 O   0  0  0  0  0  0  0  0  0  0  0  0
   11.2563  -19.3191   24.8354 O   0  0  0  0  0  0  0  0  0  0  0  0
   15.2899  -16.7837   22.3076 O   0  0  0  0  0  0  0  0  0  0  0  0
  2  1  1  1
  2  9  1  0
  2  3  1  0
  4  3  1  0
  4  8  1  0
  5  6  1  0
  5  4  2  0
  6  7  1  0
  7  8  2  0
  9 11  1  0
 10  9  2  0
 11 12  1  0
 12 13  1  6
 13 14  1  0
 14 18  1  0
 15 14  2  0
 15 16  1  0
 16 17  1  0
 18 17  2  0
 19 21  1  0
 19 12  1  0
 20 19  2  0
 22 27  1  0
 22 23  1  1
 22 21  1  0
 24 23  1  0
 25 24  1  0
 26 25  2  0
 27 30  1  0
 28 27  2  0
 29 25  1  0
M  END
$$$$
