HHE.pdb
     RDKit          3D

 30 31  0  0  1  0  0  0  0  0999 V2000
    6.8657  -17.7991   20.4157 N   0  0  0  0  0  0  0  0  0  0  0  0
    8.0036  -16.9214   20.5183 C   0  0  1  0  0  0  0  0  0  0  0  0
    7.5988  -15.7590   21.3932 C   0  0  0  0  0  0  0  0  0  0  0  0
    7.6820  -14.5259   20.5587 C   0  0  0  0  0  0  0  0  0  0  0  0
    8.0768  -14.4372   19.2384 C   0  0  0  0  0  0  0  0  0  0  0  0
    8.0065  -13.1417   18.8803 N   0  0  0  0  0  0  0  0  0  0  0  0
    7.5866  -12.4095   19.9106 C   0  0  0  0  0  0  0  0  0  0  0  0
    7.3898  -13.2486   20.9278 N   0  0  0  0  0  0  0  0  0  0  0  0
    9.1774  -17.6488   21.0390 C   0  0  0  0  0  0  0  0  0  0  0  0
    8.9986  -18.5764   21.8927 O   0  0  0  0  0  0  0  0  0  0  0  0
   10.5047  -17.3094   20.5828 N   0  0  0  0  0  0  0  0  0  0  0  0
   11.5952  -18.0854   21.0650 C   0  0  1  0  0  0  0  0  0  0  0  0
   12.8331  -17.9712   20.2327 C   0  0  0  0  0  0  0  0  0  0  0  0
   13.9812  -18.7860   20.6322 C   0  0  0  0  0  0  0  0  0  0  0  0
   14.2861  -19.4994   21.7518 C   0  0  0  0  0  0  0  0  0  0  0  0
   15.4838  -20.0836   21.5797 N   0  0  0  0  0  0  0  0  0  0  0  0
   15.9300  -19.7448   20.3680 C   0  0  0  0  0  0  0  0  0  0  0  0
   15.0341  -18.9576   19.7753 N   0  0  0  0  0  0  0  0  0  0  0  0
   11.9692  -17.7641   22.4819 C   0  0  0  0  0  0  0  0  0  0  0  0
   12.2593  -16.5786   22.7624 O   0  0  0  0  0  0  0  0  0  0  0  0
   12.0098  -18.7306   23.5078 N   0  0  0  0  0  0  0  0  0  0  0  0
   12.3201  -18.4550   24.8905 C   0  0  1  0  0  0  0  0  0  0  0  0
   11.4402  -19.1565   25.8680 C   0  0  0  0  0  0  0  0  0  0  0  0
   11.4222  -20.6605   25.6992 C   0  0  0  0  0  0  0  0  0  0  0  0
   10.5630  -21.2073   26.7620 C   0  0  0  0  0  0  0  0  0  0  0  0
   10.6773  -20.7815   27.9255 O   0  0  0  0  0  0  0  0  0  0  0  0
   13.7228  -18.8886   25.1284 C   0  0  0  0  0  0  0  0  0  0  0  0
   14.3903  -19.5319   24.2609 O   0  0  0  0  0  0  0  0  0  0  0  0
    9.6375  -22.1828   26.4754 O   0  0  0  0  0  0  0  0  0  0  0  0
   14.3954  -18.6173   26.3194 O   0  0  0  0  0  0  0  0  0  0  0  0
  2  1  1  1
  2  9  1  0
  2  3  1  0
  4  3  1  0
  4  8  1  0
  5  6  1  0
  5  4  2  0
  6  7  1  0
  7  8  2  0
  9 11  1  0
 10  9  2  0
 11 12  1  0
 12 13  1  6
 13 14  1  0
 14 18  1  0
 15 14  2  0
 15 16  1  0
 16 17  1  0
 18 17  2  0
 19 21  1  0
 19 12  1  0
 20 19  2  0
 22 27  1  0
 22 23  1  1
 22 21  1  0
 24 23  1  0
 25 24  1  0
 26 25  2  0
 27 30  1  0
 28 27  2  0
 29 25  1  0
M  END
$$$$
