HHE.pdb
     RDKit          3D

 30 31  0  0  1  0  0  0  0  0999 V2000
   13.1363  -17.1325   16.0189 N   0  0  0  0  0  0  0  0  0  0  0  0
   13.4163  -15.7354   16.2322 C   0  0  1  0  0  0  0  0  0  0  0  0
   12.4454  -14.9468   15.3860 C   0  0  0  0  0  0  0  0  0  0  0  0
   12.6751  -15.3389   13.9657 C   0  0  0  0  0  0  0  0  0  0  0  0
   13.7285  -16.0778   13.4642 C   0  0  0  0  0  0  0  0  0  0  0  0
   13.5448  -16.1958   12.1361 N   0  0  0  0  0  0  0  0  0  0  0  0
   12.4271  -15.5673   11.7760 C   0  0  0  0  0  0  0  0  0  0  0  0
   11.9000  -15.0481   12.8851 N   0  0  0  0  0  0  0  0  0  0  0  0
   13.3297  -15.3997   17.6667 C   0  0  0  0  0  0  0  0  0  0  0  0
   13.6128  -14.2159   18.0407 O   0  0  0  0  0  0  0  0  0  0  0  0
   12.9292  -16.4023   18.6255 N   0  0  0  0  0  0  0  0  0  0  0  0
   13.0438  -16.0874   20.0082 C   0  0  1  0  0  0  0  0  0  0  0  0
   11.8803  -16.5435   20.8305 C   0  0  0  0  0  0  0  0  0  0  0  0
   11.9123  -16.2311   22.2598 C   0  0  0  0  0  0  0  0  0  0  0  0
   12.4032  -15.1881   22.9853 C   0  0  0  0  0  0  0  0  0  0  0  0
   12.1424  -15.4048   24.2855 N   0  0  0  0  0  0  0  0  0  0  0  0
   11.4952  -16.5685   24.3809 C   0  0  0  0  0  0  0  0  0  0  0  0
   11.3448  -17.0875   23.1637 N   0  0  0  0  0  0  0  0  0  0  0  0
   14.2891  -16.6371   20.6389 C   0  0  0  0  0  0  0  0  0  0  0  0
   14.6102  -17.8196   20.3806 O   0  0  0  0  0  0  0  0  0  0  0  0
   15.1110  -15.8877   21.5057 N   0  0  0  0  0  0  0  0  0  0  0  0
   16.3281  -16.3710   22.1133 C   0  0  1  0  0  0  0  0  0  0  0  0
   17.4363  -15.3745   22.1427 C   0  0  0  0  0  0  0  0  0  0  0  0
   17.9842  -15.0342   20.7735 C   0  0  0  0  0  0  0  0  0  0  0  0
   19.0990  -14.0938   20.9725 C   0  0  0  0  0  0  0  0  0  0  0  0
   18.8907  -12.8692   20.9026 O   0  0  0  0  0  0  0  0  0  0  0  0
   16.0063  -16.7545   23.5138 C   0  0  0  0  0  0  0  0  0  0  0  0
   14.9240  -16.4084   24.0803 O   0  0  0  0  0  0  0  0  0  0  0  0
   20.3650  -14.5614   21.2348 O   0  0  0  0  0  0  0  0  0  0  0  0
   16.8721  -17.5186   24.2954 O   0  0  0  0  0  0  0  0  0  0  0  0
  2  1  1  1
  2  9  1  0
  2  3  1  0
  4  3  1  0
  4  8  1  0
  5  6  1  0
  5  4  2  0
  6  7  1  0
  7  8  2  0
  9 11  1  0
 10  9  2  0
 11 12  1  0
 12 13  1  1
 13 14  1  0
 14 18  1  0
 15 14  2  0
 15 16  1  0
 16 17  1  0
 18 17  2  0
 19 21  1  0
 19 12  1  0
 20 19  2  0
 22 27  1  0
 22 23  1  1
 22 21  1  0
 24 23  1  0
 25 24  1  0
 26 25  2  0
 27 30  1  0
 28 27  2  0
 29 25  1  0
M  END
$$$$
