HHE.pdb
     RDKit          3D

 30 31  0  0  1  0  0  0  0  0999 V2000
    9.0066  -18.4627   18.1455 N   0  0  0  0  0  0  0  0  0  0  0  0
   10.3060  -17.8557   18.2837 C   0  0  1  0  0  0  0  0  0  0  0  0
   10.6123  -17.1460   16.9864 C   0  0  0  0  0  0  0  0  0  0  0  0
   10.1258  -18.0176   15.8785 C   0  0  0  0  0  0  0  0  0  0  0  0
    9.6151  -19.2962   15.9858 C   0  0  0  0  0  0  0  0  0  0  0  0
    9.3016  -19.7130   14.7451 N   0  0  0  0  0  0  0  0  0  0  0  0
    9.5900  -18.7595   13.8609 C   0  0  0  0  0  0  0  0  0  0  0  0
   10.0894  -17.7320   14.5481 N   0  0  0  0  0  0  0  0  0  0  0  0
   10.3384  -16.9540   19.4515 C   0  0  0  0  0  0  0  0  0  0  0  0
   11.3909  -16.2734   19.6755 O   0  0  0  0  0  0  0  0  0  0  0  0
    9.1909  -16.8495   20.3219 N   0  0  0  0  0  0  0  0  0  0  0  0
    9.2621  -15.9410   21.4143 C   0  0  1  0  0  0  0  0  0  0  0  0
    8.1562  -14.9337   21.4359 C   0  0  0  0  0  0  0  0  0  0  0  0
    7.9863  -14.1063   20.2408 C   0  0  0  0  0  0  0  0  0  0  0  0
    8.4220  -12.8661   19.8840 C   0  0  0  0  0  0  0  0  0  0  0  0
    7.9816  -12.5930   18.6443 N   0  0  0  0  0  0  0  0  0  0  0  0
    7.2776  -13.6460   18.2227 C   0  0  0  0  0  0  0  0  0  0  0  0
    7.2673  -14.5763   19.1757 N   0  0  0  0  0  0  0  0  0  0  0  0
    9.2817  -16.6228   22.7505 C   0  0  0  0  0  0  0  0  0  0  0  0
    8.3898  -17.4667   22.9967 O   0  0  0  0  0  0  0  0  0  0  0  0
   10.2529  -16.3584   23.7380 N   0  0  0  0  0  0  0  0  0  0  0  0
   10.7583  -17.3285   24.6802 C   0  0  1  0  0  0  0  0  0  0  0  0
   12.0832  -17.9057   24.3147 C   0  0  0  0  0  0  0  0  0  0  0  0
   12.6511  -18.8366   25.3642 C   0  0  0  0  0  0  0  0  0  0  0  0
   13.9290  -19.3501   24.8447 C   0  0  0  0  0  0  0  0  0  0  0  0
   14.9289  -18.6099   24.8298 O   0  0  0  0  0  0  0  0  0  0  0  0
   10.8918  -16.6464   25.9951 C   0  0  0  0  0  0  0  0  0  0  0  0
   11.0326  -15.3886   26.0956 O   0  0  0  0  0  0  0  0  0  0  0  0
   14.0221  -20.6399   24.3777 O   0  0  0  0  0  0  0  0  0  0  0  0
   10.8712  -17.3438   27.2024 O   0  0  0  0  0  0  0  0  0  0  0  0
  2  1  1  6
  2  9  1  0
  2  3  1  0
  4  3  1  0
  4  8  1  0
  5  6  1  0
  5  4  2  0
  6  7  1  0
  7  8  2  0
  9 11  1  0
 10  9  2  0
 11 12  1  0
 12 13  1  1
 13 14  1  0
 14 18  1  0
 15 14  2  0
 15 16  1  0
 16 17  1  0
 18 17  2  0
 19 21  1  0
 19 12  1  0
 20 19  2  0
 22 27  1  0
 22 23  1  6
 22 21  1  0
 24 23  1  0
 25 24  1  0
 26 25  2  0
 27 30  1  0
 28 27  2  0
 29 25  1  0
M  END
$$$$
