YHL.pdb
     RDKit          3D

 31 32  0  0  1  0  0  0  0  0999 V2000
   17.8366  -12.2859  -16.9444 O   0  0  0  0  0  0  0  0  0  0  0  0
   18.5827  -13.3452  -16.4832 C   0  0  0  0  0  0  0  0  0  0  0  0
   19.9240  -13.4513  -16.8142 C   0  0  0  0  0  0  0  0  0  0  0  0
   20.6881  -14.5110  -16.3580 C   0  0  0  0  0  0  0  0  0  0  0  0
   20.1107  -15.4775  -15.5623 C   0  0  0  0  0  0  0  0  0  0  0  0
   20.9510  -16.6231  -15.0718 C   0  0  0  0  0  0  0  0  0  0  0  0
   21.0659  -17.5732  -16.2627 C   0  0  2  0  0  0  0  0  0  0  0  0
   19.8143  -18.1210  -16.6701 N   0  0  0  0  0  0  0  0  0  0  0  0
   22.1238  -18.5888  -16.0523 C   0  0  0  0  0  0  0  0  0  0  0  0
   21.8531  -19.7162  -15.5685 O   0  0  0  0  0  0  0  0  0  0  0  0
   18.7684  -15.3558  -15.2411 C   0  0  0  0  0  0  0  0  0  0  0  0
   18.0127  -14.3094  -15.6912 C   0  0  0  0  0  0  0  0  0  0  0  0
   23.4782  -18.3465  -16.3808 N   0  0  0  0  0  0  0  0  0  0  0  0
   24.5408  -19.2980  -16.1438 C   0  0  1  0  0  0  0  0  0  0  0  0
   25.7695  -19.0161  -16.9313 C   0  0  0  0  0  0  0  0  0  0  0  0
   26.8338  -20.0211  -16.7016 C   0  0  0  0  0  0  0  0  0  0  0  0
   26.8113  -21.0878  -15.8050 C   0  0  0  0  0  0  0  0  0  0  0  0
   27.9584  -21.7812  -15.8796 N   0  0  0  0  0  0  0  0  0  0  0  0
   28.7072  -21.1732  -16.8073 C   0  0  0  0  0  0  0  0  0  0  0  0
   28.0415  -20.1195  -17.3036 N   0  0  0  0  0  0  0  0  0  0  0  0
   24.8277  -19.4211  -14.6727 C   0  0  0  0  0  0  0  0  0  0  0  0
   24.7571  -18.4259  -13.9142 O   0  0  0  0  0  0  0  0  0  0  0  0
   22.4253  -20.0717  -10.3422 C   0  0  0  0  0  0  0  0  0  0  0  0
   23.8466  -20.3622  -10.6915 C   0  0  2  0  0  0  0  0  0  0  0  0
   24.8024  -19.4733   -9.8855 C   0  0  0  0  0  0  0  0  0  0  0  0
   24.1297  -20.2005  -12.1337 C   0  0  0  0  0  0  0  0  0  0  0  0
   25.3181  -20.8535  -12.7132 C   0  0  2  0  0  0  0  0  0  0  0  0
   25.1771  -20.7055  -14.1987 N   0  0  0  0  0  0  0  0  0  0  0  0
   25.7312  -22.1876  -12.4119 C   0  0  0  0  0  0  0  0  0  0  0  0
   26.5377  -22.6525  -11.3823 O   0  0  0  0  0  0  0  0  0  0  0  0
   25.3277  -23.1424  -13.1902 O   0  0  0  0  0  0  0  0  0  0  0  0
  1  2  1  0
  2 12  2  0
  3  2  1  0
  3  4  2  0
  4  5  1  0
  5 11  2  0
  5  6  1  0
  7  6  1  0
  7  8  1  1
  9  7  1  0
 10  9  2  0
 12 11  1  0
 13  9  1  0
 14 13  1  0
 14 15  1  6
 16 15  1  0
 17 16  2  0
 18 17  1  0
 19 18  1  0
 19 20  2  0
 20 16  1  0
 21 14  1  0
 21 28  1  0
 22 21  2  0
 24 23  1  6
 24 26  1  0
 24 25  1  0
 27 26  1  1
 27 28  1  0
 27 29  1  0
 29 31  2  0
 29 30  1  0
M  END
$$$$
