YHL.pdb
     RDKit          3D

 31 32  0  0  1  0  0  0  0  0999 V2000
   17.6072  -11.2200    3.0757 O   0  0  0  0  0  0  0  0  0  0  0  0
   18.1525  -12.1233    3.9578 C   0  0  0  0  0  0  0  0  0  0  0  0
   19.0604  -11.7025    4.9162 C   0  0  0  0  0  0  0  0  0  0  0  0
   19.6178  -12.5990    5.8110 C   0  0  0  0  0  0  0  0  0  0  0  0
   19.2675  -13.9312    5.7517 C   0  0  0  0  0  0  0  0  0  0  0  0
   19.8786  -14.8953    6.7296 C   0  0  0  0  0  0  0  0  0  0  0  0
   18.6983  -15.4874    7.4979 C   0  0  2  0  0  0  0  0  0  0  0  0
   17.9254  -14.5078    8.1872 N   0  0  0  0  0  0  0  0  0  0  0  0
   19.1151  -16.6275    8.3474 C   0  0  0  0  0  0  0  0  0  0  0  0
   19.4458  -16.4551    9.5470 O   0  0  0  0  0  0  0  0  0  0  0  0
   18.3583  -14.3345    4.7872 C   0  0  0  0  0  0  0  0  0  0  0  0
   17.8072  -13.4498    3.9028 C   0  0  0  0  0  0  0  0  0  0  0  0
   19.1623  -17.9543    7.8592 N   0  0  0  0  0  0  0  0  0  0  0  0
   19.5752  -19.0860    8.6587 C   0  0  1  0  0  0  0  0  0  0  0  0
   19.2332  -20.3960    8.0452 C   0  0  0  0  0  0  0  0  0  0  0  0
   17.7780  -20.6734    8.0740 C   0  0  0  0  0  0  0  0  0  0  0  0
   16.7817  -19.9058    8.6743 C   0  0  0  0  0  0  0  0  0  0  0  0
   15.5810  -20.4776    8.4907 N   0  0  0  0  0  0  0  0  0  0  0  0
   15.7986  -21.5937    7.7850 C   0  0  0  0  0  0  0  0  0  0  0  0
   17.1102  -21.7179    7.5319 N   0  0  0  0  0  0  0  0  0  0  0  0
   21.0350  -18.9884    9.0068 C   0  0  0  0  0  0  0  0  0  0  0  0
   21.8955  -18.7520    8.1268 O   0  0  0  0  0  0  0  0  0  0  0  0
   24.0810  -15.7433   12.3475 C   0  0  0  0  0  0  0  0  0  0  0  0
   24.2171  -17.0660   11.6703 C   0  0  2  0  0  0  0  0  0  0  0  0
   25.2768  -17.0088   10.5625 C   0  0  0  0  0  0  0  0  0  0  0  0
   22.9430  -17.5555   11.1016 C   0  0  0  0  0  0  0  0  0  0  0  0
   22.8208  -18.9753   10.7222 C   0  0  2  0  0  0  0  0  0  0  0  0
   21.3785  -19.1757   10.3645 N   0  0  0  0  0  0  0  0  0  0  0  0
   23.2587  -20.0664   11.5339 C   0  0  0  0  0  0  0  0  0  0  0  0
   24.5470  -20.5094   11.8000 O   0  0  0  0  0  0  0  0  0  0  0  0
   22.3585  -20.7876   12.1251 O   0  0  0  0  0  0  0  0  0  0  0  0
  1  2  1  0
  2 12  2  0
  3  2  1  0
  3  4  2  0
  4  5  1  0
  5 11  2  0
  5  6  1  0
  7  6  1  0
  7  8  1  1
  9  7  1  0
 10  9  2  0
 12 11  1  0
 13  9  1  0
 14 13  1  0
 14 15  1  6
 16 15  1  0
 17 16  2  0
 18 17  1  0
 19 18  1  0
 19 20  2  0
 20 16  1  0
 21 14  1  0
 21 28  1  0
 22 21  2  0
 24 23  1  6
 24 26  1  0
 24 25  1  0
 27 26  1  1
 27 28  1  0
 27 29  1  0
 29 31  2  0
 29 30  1  0
M  END
$$$$
