YHL.pdb
     RDKit          3D

 31 32  0  0  1  0  0  0  0  0999 V2000
   15.5842  -14.4899  -13.9339 O   0  0  0  0  0  0  0  0  0  0  0  0
   16.6958  -15.2883  -13.7986 C   0  0  0  0  0  0  0  0  0  0  0  0
   17.7529  -15.1700  -14.6866 C   0  0  0  0  0  0  0  0  0  0  0  0
   18.8782  -15.9659  -14.5637 C   0  0  0  0  0  0  0  0  0  0  0  0
   18.9530  -16.8913  -13.5444 C   0  0  0  0  0  0  0  0  0  0  0  0
   20.1809  -17.7493  -13.4204 C   0  0  0  0  0  0  0  0  0  0  0  0
   20.0659  -18.7767  -14.5452 C   0  0  2  0  0  0  0  0  0  0  0  0
   18.9400  -19.6402  -14.4076 N   0  0  0  0  0  0  0  0  0  0  0  0
   21.3449  -19.4913  -14.7664 C   0  0  0  0  0  0  0  0  0  0  0  0
   21.6806  -20.4594  -14.0396 O   0  0  0  0  0  0  0  0  0  0  0  0
   17.8870  -16.9962  -12.6657 C   0  0  0  0  0  0  0  0  0  0  0  0
   16.7749  -16.2105  -12.7862 C   0  0  0  0  0  0  0  0  0  0  0  0
   22.2449  -19.1261  -15.7948 N   0  0  0  0  0  0  0  0  0  0  0  0
   23.4812  -19.8269  -16.0611 C   0  0  1  0  0  0  0  0  0  0  0  0
   24.0224  -19.5694  -17.4213 C   0  0  0  0  0  0  0  0  0  0  0  0
   24.5400  -18.1894  -17.5742 C   0  0  0  0  0  0  0  0  0  0  0  0
   25.8669  -17.7702  -17.5006 C   0  0  0  0  0  0  0  0  0  0  0  0
   25.9459  -16.4435  -17.6901 N   0  0  0  0  0  0  0  0  0  0  0  0
   24.6929  -16.0146  -17.8824 C   0  0  0  0  0  0  0  0  0  0  0  0
   23.8461  -17.0530  -17.8146 N   0  0  0  0  0  0  0  0  0  0  0  0
   24.4952  -19.5460  -14.9865 C   0  0  0  0  0  0  0  0  0  0  0  0
   24.5065  -18.4504  -14.3780 O   0  0  0  0  0  0  0  0  0  0  0  0
   27.9815  -20.9416  -11.0723 C   0  0  0  0  0  0  0  0  0  0  0  0
   26.5648  -20.4751  -11.1153 C   0  0  2  0  0  0  0  0  0  0  0  0
   25.7566  -21.0677   -9.9538 C   0  0  0  0  0  0  0  0  0  0  0  0
   25.8914  -20.7962  -12.3919 C   0  0  0  0  0  0  0  0  0  0  0  0
   26.4503  -20.2753  -13.6532 C   0  0  2  0  0  0  0  0  0  0  0  0
   25.4233  -20.5733  -14.7044 N   0  0  0  0  0  0  0  0  0  0  0  0
   27.7461  -20.6048  -14.1567 C   0  0  0  0  0  0  0  0  0  0  0  0
   28.9640  -19.9736  -13.9448 O   0  0  0  0  0  0  0  0  0  0  0  0
   27.8540  -21.6321  -14.9397 O   0  0  0  0  0  0  0  0  0  0  0  0
  1  2  1  0
  2 12  2  0
  3  2  1  0
  3  4  2  0
  4  5  1  0
  5 11  2  0
  5  6  1  0
  7  6  1  0
  7  8  1  1
  9  7  1  0
 10  9  2  0
 12 11  1  0
 13  9  1  0
 14 13  1  0
 14 15  1  6
 16 15  1  0
 17 16  2  0
 18 17  1  0
 19 18  1  0
 19 20  2  0
 20 16  1  0
 21 14  1  0
 21 28  1  0
 22 21  2  0
 24 23  1  6
 24 26  1  0
 24 25  1  0
 27 26  1  1
 27 28  1  0
 27 29  1  0
 29 31  2  0
 29 30  1  0
M  END
$$$$
