YHL.pdb
     RDKit          3D

 31 32  0  0  1  0  0  0  0  0999 V2000
   20.9147  -17.3615  -19.9971 O   0  0  0  0  0  0  0  0  0  0  0  0
   21.0460  -16.0565  -19.5836 C   0  0  0  0  0  0  0  0  0  0  0  0
   19.9442  -15.3574  -19.1173 C   0  0  0  0  0  0  0  0  0  0  0  0
   20.0600  -14.0439  -18.6976 C   0  0  0  0  0  0  0  0  0  0  0  0
   21.2875  -13.4177  -18.7421 C   0  0  0  0  0  0  0  0  0  0  0  0
   21.4011  -11.9912  -18.2824 C   0  0  0  0  0  0  0  0  0  0  0  0
   20.7286  -11.1638  -19.3765 C   0  0  2  0  0  0  0  0  0  0  0  0
   21.3465  -11.3082  -20.6532 N   0  0  0  0  0  0  0  0  0  0  0  0
   20.5396   -9.7549  -18.9589 C   0  0  0  0  0  0  0  0  0  0  0  0
   21.4276   -8.8916  -19.1698 O   0  0  0  0  0  0  0  0  0  0  0  0
   22.3784  -14.1315  -19.2110 C   0  0  0  0  0  0  0  0  0  0  0  0
   22.2651  -15.4291  -19.6260 C   0  0  0  0  0  0  0  0  0  0  0  0
   19.3640   -9.3121  -18.3086 N   0  0  0  0  0  0  0  0  0  0  0  0
   19.1820   -7.9649  -17.8162 C   0  0  1  0  0  0  0  0  0  0  0  0
   17.8212   -7.4240  -18.0711 C   0  0  0  0  0  0  0  0  0  0  0  0
   17.3422   -7.7161  -19.4426 C   0  0  0  0  0  0  0  0  0  0  0  0
   18.0096   -8.4258  -20.4390 C   0  0  0  0  0  0  0  0  0  0  0  0
   17.2585   -8.4839  -21.5501 N   0  0  0  0  0  0  0  0  0  0  0  0
   16.1272   -7.8238  -21.2757 C   0  0  0  0  0  0  0  0  0  0  0  0
   16.1696   -7.3615  -20.0170 N   0  0  0  0  0  0  0  0  0  0  0  0
   19.5650   -7.8717  -16.3649 C   0  0  0  0  0  0  0  0  0  0  0  0
   19.2328   -8.7636  -15.5495 O   0  0  0  0  0  0  0  0  0  0  0  0
   23.6951   -9.8850  -14.5695 C   0  0  0  0  0  0  0  0  0  0  0  0
   22.7262   -8.8690  -14.0641 C   0  0  2  0  0  0  0  0  0  0  0  0
   21.7004   -9.5105  -13.1210 C   0  0  0  0  0  0  0  0  0  0  0  0
   22.0146   -8.1617  -15.1503 C   0  0  0  0  0  0  0  0  0  0  0  0
   21.2723   -6.9256  -14.8411 C   0  0  2  0  0  0  0  0  0  0  0  0
   20.3109   -6.7364  -15.9762 N   0  0  0  0  0  0  0  0  0  0  0  0
   21.8866   -5.6731  -14.5330 C   0  0  0  0  0  0  0  0  0  0  0  0
   22.1922   -5.1180  -13.2979 O   0  0  0  0  0  0  0  0  0  0  0  0
   22.2195   -4.8977  -15.5168 O   0  0  0  0  0  0  0  0  0  0  0  0
  1  2  1  0
  2 12  2  0
  3  2  1  0
  3  4  2  0
  4  5  1  0
  5 11  2  0
  5  6  1  0
  7  6  1  0
  7  8  1  6
  9  7  1  0
 10  9  2  0
 12 11  1  0
 13  9  1  0
 14 13  1  0
 14 15  1  1
 16 15  1  0
 17 16  2  0
 18 17  1  0
 19 18  1  0
 19 20  2  0
 20 16  1  0
 21 14  1  0
 21 28  1  0
 22 21  2  0
 24 23  1  6
 24 26  1  0
 24 25  1  0
 27 26  1  6
 27 28  1  0
 27 29  1  0
 29 31  2  0
 29 30  1  0
M  END
$$$$
