YHL.pdb
     RDKit          3D

 31 32  0  0  1  0  0  0  0  0999 V2000
   35.8301   -2.5871   -0.4948 O   0  0  0  0  0  0  0  0  0  0  0  0
   36.6240   -3.2503   -1.4011 C   0  0  0  0  0  0  0  0  0  0  0  0
   36.0536   -3.9082   -2.4790 C   0  0  0  0  0  0  0  0  0  0  0  0
   36.8388   -4.5798   -3.3995 C   0  0  0  0  0  0  0  0  0  0  0  0
   38.2089   -4.5971   -3.2460 C   0  0  0  0  0  0  0  0  0  0  0  0
   39.0513   -5.3289   -4.2530 C   0  0  0  0  0  0  0  0  0  0  0  0
   39.5362   -4.2545   -5.2248 C   0  0  2  0  0  0  0  0  0  0  0  0
   38.9763   -2.9686   -4.9694 N   0  0  0  0  0  0  0  0  0  0  0  0
   39.4087   -4.6937   -6.6341 C   0  0  0  0  0  0  0  0  0  0  0  0
   38.5715   -4.1624   -7.4054 O   0  0  0  0  0  0  0  0  0  0  0  0
   38.7623   -3.9341   -2.1626 C   0  0  0  0  0  0  0  0  0  0  0  0
   37.9876   -3.2704   -1.2526 C   0  0  0  0  0  0  0  0  0  0  0  0
   40.2126   -5.7219   -7.1794 N   0  0  0  0  0  0  0  0  0  0  0  0
   40.1635   -6.1239   -8.5674 C   0  0  1  0  0  0  0  0  0  0  0  0
   41.0863   -5.3488   -9.4375 C   0  0  0  0  0  0  0  0  0  0  0  0
   40.9227   -5.6773  -10.8731 C   0  0  0  0  0  0  0  0  0  0  0  0
   40.0629   -6.6204  -11.4329 C   0  0  0  0  0  0  0  0  0  0  0  0
   40.1958   -6.6347  -12.7687 N   0  0  0  0  0  0  0  0  0  0  0  0
   41.1242   -5.7177  -13.0653 C   0  0  0  0  0  0  0  0  0  0  0  0
   41.5639   -5.1407  -11.9368 N   0  0  0  0  0  0  0  0  0  0  0  0
   40.3730   -7.6072   -8.7004 C   0  0  0  0  0  0  0  0  0  0  0  0
   41.3679   -8.1689   -8.1854 O   0  0  0  0  0  0  0  0  0  0  0  0
   38.8116  -11.2296   -6.9399 C   0  0  0  0  0  0  0  0  0  0  0  0
   37.8571  -10.4808   -7.8086 C   0  0  2  0  0  0  0  0  0  0  0  0
   36.4550  -11.0999   -7.7444 C   0  0  0  0  0  0  0  0  0  0  0  0
   38.2954  -10.4111   -9.2191 C   0  0  0  0  0  0  0  0  0  0  0  0
   39.6011   -9.8053   -9.5396 C   0  0  2  0  0  0  0  0  0  0  0  0
   39.3977   -8.3238   -9.4296 N   0  0  0  0  0  0  0  0  0  0  0  0
   40.3522  -10.0892  -10.7213 C   0  0  0  0  0  0  0  0  0  0  0  0
   41.2673  -11.1040  -10.9652 O   0  0  0  0  0  0  0  0  0  0  0  0
   40.2001   -9.3076  -11.7442 O   0  0  0  0  0  0  0  0  0  0  0  0
  1  2  1  0
  2 12  2  0
  3  2  1  0
  3  4  2  0
  4  5  1  0
  5 11  2  0
  5  6  1  0
  7  6  1  0
  7  8  1  6
  9  7  1  0
 10  9  2  0
 12 11  1  0
 13  9  1  0
 14 13  1  0
 14 15  1  6
 16 15  1  0
 17 16  2  0
 18 17  1  0
 19 18  1  0
 19 20  2  0
 20 16  1  0
 21 14  1  0
 21 28  1  0
 22 21  2  0
 24 23  1  1
 24 26  1  0
 24 25  1  0
 27 26  1  6
 27 28  1  0
 27 29  1  0
 29 31  2  0
 29 30  1  0
M  END
$$$$
