YHL.pdb
     RDKit          3D

 31 32  0  0  1  0  0  0  0  0999 V2000
   43.3230  -10.7215    1.5926 O   0  0  0  0  0  0  0  0  0  0  0  0
   43.2037  -10.1274    0.3580 C   0  0  0  0  0  0  0  0  0  0  0  0
   44.0570   -9.0986   -0.0073 C   0  0  0  0  0  0  0  0  0  0  0  0
   43.9499   -8.4909   -1.2459 C   0  0  0  0  0  0  0  0  0  0  0  0
   42.9816   -8.9119   -2.1325 C   0  0  0  0  0  0  0  0  0  0  0  0
   42.8757   -8.2449   -3.4753 C   0  0  0  0  0  0  0  0  0  0  0  0
   43.6098   -9.1729   -4.4416 C   0  0  2  0  0  0  0  0  0  0  0  0
   44.9325   -9.4955   -4.0188 N   0  0  0  0  0  0  0  0  0  0  0  0
   43.5303   -8.6829   -5.8376 C   0  0  0  0  0  0  0  0  0  0  0  0
   44.5478   -8.2441   -6.4294 O   0  0  0  0  0  0  0  0  0  0  0  0
   42.1369   -9.9417   -1.7508 C   0  0  0  0  0  0  0  0  0  0  0  0
   42.2419  -10.5427   -0.5275 C   0  0  0  0  0  0  0  0  0  0  0  0
   42.3197   -8.6830   -6.5693 N   0  0  0  0  0  0  0  0  0  0  0  0
   42.1978   -8.1633   -7.9131 C   0  0  1  0  0  0  0  0  0  0  0  0
   43.0335   -8.8913   -8.9035 C   0  0  0  0  0  0  0  0  0  0  0  0
   42.9251   -8.3201  -10.2664 C   0  0  0  0  0  0  0  0  0  0  0  0
   43.6659   -7.2698  -10.8053 C   0  0  0  0  0  0  0  0  0  0  0  0
   43.2845   -7.0340  -12.0706 N   0  0  0  0  0  0  0  0  0  0  0  0
   42.3155   -7.9158  -12.3432 C   0  0  0  0  0  0  0  0  0  0  0  0
   42.0947   -8.6886  -11.2690 N   0  0  0  0  0  0  0  0  0  0  0  0
   40.7544   -8.0978   -8.3302 C   0  0  0  0  0  0  0  0  0  0  0  0
   40.1032   -9.1407   -8.5733 O   0  0  0  0  0  0  0  0  0  0  0  0
   37.1616   -7.9788   -6.6891 C   0  0  0  0  0  0  0  0  0  0  0  0
   37.8082   -6.6354   -6.6308 C   0  0  2  0  0  0  0  0  0  0  0  0
   37.0025   -5.6766   -5.7447 C   0  0  0  0  0  0  0  0  0  0  0  0
   37.9928   -6.0268   -7.9657 C   0  0  0  0  0  0  0  0  0  0  0  0
   38.7866   -6.7430   -8.9814 C   0  0  2  0  0  0  0  0  0  0  0  0
   40.1801   -6.8109   -8.4319 N   0  0  0  0  0  0  0  0  0  0  0  0
   38.8439   -6.3797  -10.3619 C   0  0  0  0  0  0  0  0  0  0  0  0
   37.9106   -6.5823  -11.3692 O   0  0  0  0  0  0  0  0  0  0  0  0
   39.9081   -5.7770  -10.7912 O   0  0  0  0  0  0  0  0  0  0  0  0
  1  2  1  0
  2 12  2  0
  3  2  1  0
  3  4  2  0
  4  5  1  0
  5 11  2  0
  5  6  1  0
  7  6  1  0
  7  8  1  1
  9  7  1  0
 10  9  2  0
 12 11  1  0
 13  9  1  0
 14 13  1  0
 14 15  1  6
 16 15  1  0
 17 16  2  0
 18 17  1  0
 19 18  1  0
 19 20  2  0
 20 16  1  0
 21 14  1  0
 21 28  1  0
 22 21  2  0
 24 23  1  6
 24 26  1  0
 24 25  1  0
 27 26  1  1
 27 28  1  0
 27 29  1  0
 29 31  2  0
 29 30  1  0
M  END
$$$$
