YHL.pdb
     RDKit          3D

 31 32  0  0  1  0  0  0  0  0999 V2000
   26.6822  -28.3702  -17.1961 O   0  0  0  0  0  0  0  0  0  0  0  0
   25.9732  -27.4909  -16.4116 C   0  0  0  0  0  0  0  0  0  0  0  0
   24.7196  -27.8365  -15.9330 C   0  0  0  0  0  0  0  0  0  0  0  0
   23.9939  -26.9629  -15.1423 C   0  0  0  0  0  0  0  0  0  0  0  0
   24.5219  -25.7299  -14.8235 C   0  0  0  0  0  0  0  0  0  0  0  0
   23.7247  -24.7900  -13.9630 C   0  0  0  0  0  0  0  0  0  0  0  0
   22.9657  -23.8971  -14.9431 C   0  0  2  0  0  0  0  0  0  0  0  0
   23.8073  -22.9820  -15.6406 N   0  0  0  0  0  0  0  0  0  0  0  0
   21.7890  -23.2615  -14.3056 C   0  0  0  0  0  0  0  0  0  0  0  0
   21.9257  -22.3190  -13.4864 O   0  0  0  0  0  0  0  0  0  0  0  0
   25.7765  -25.4008  -15.3105 C   0  0  0  0  0  0  0  0  0  0  0  0
   26.4943  -26.2629  -16.0917 C   0  0  0  0  0  0  0  0  0  0  0  0
   20.4652  -23.6768  -14.5818 N   0  0  0  0  0  0  0  0  0  0  0  0
   19.2984  -23.0976  -13.9544 C   0  0  1  0  0  0  0  0  0  0  0  0
   18.2983  -22.5880  -14.9288 C   0  0  0  0  0  0  0  0  0  0  0  0
   17.1436  -21.9355  -14.2681 C   0  0  0  0  0  0  0  0  0  0  0  0
   15.9906  -22.5478  -13.7804 C   0  0  0  0  0  0  0  0  0  0  0  0
   15.1674  -21.6304  -13.2483 N   0  0  0  0  0  0  0  0  0  0  0  0
   15.7780  -20.4481  -13.3901 C   0  0  0  0  0  0  0  0  0  0  0  0
   16.9606  -20.6221  -13.9992 N   0  0  0  0  0  0  0  0  0  0  0  0
   18.6903  -24.0583  -12.9701 C   0  0  0  0  0  0  0  0  0  0  0  0
   18.6664  -25.2903  -13.1988 O   0  0  0  0  0  0  0  0  0  0  0  0
   18.4031  -24.7255   -7.1560 C   0  0  0  0  0  0  0  0  0  0  0  0
   17.9500  -25.2806   -8.4648 C   0  0  2  0  0  0  0  0  0  0  0  0
   18.5027  -26.6952   -8.6817 C   0  0  0  0  0  0  0  0  0  0  0  0
   18.3266  -24.4285   -9.6130 C   0  0  0  0  0  0  0  0  0  0  0  0
   17.5017  -24.4589  -10.8350 C   0  0  2  0  0  0  0  0  0  0  0  0
   18.1539  -23.5018  -11.7873 N   0  0  0  0  0  0  0  0  0  0  0  0
   16.0881  -24.2530  -10.8577 C   0  0  0  0  0  0  0  0  0  0  0  0
   15.3492  -23.1460  -10.4635 O   0  0  0  0  0  0  0  0  0  0  0  0
   15.3376  -25.2156  -11.2937 O   0  0  0  0  0  0  0  0  0  0  0  0
  1  2  1  0
  2 12  2  0
  3  2  1  0
  3  4  2  0
  4  5  1  0
  5 11  2  0
  5  6  1  0
  7  6  1  0
  7  8  1  1
  9  7  1  0
 10  9  2  0
 12 11  1  0
 13  9  1  0
 14 13  1  0
 14 15  1  6
 16 15  1  0
 17 16  2  0
 18 17  1  0
 19 18  1  0
 19 20  2  0
 20 16  1  0
 21 14  1  0
 21 28  1  0
 22 21  2  0
 24 23  1  1
 24 26  1  0
 24 25  1  0
 27 26  1  1
 27 28  1  0
 27 29  1  0
 29 31  2  0
 29 30  1  0
M  END
$$$$
