YHL.pdb
     RDKit          3D

 31 32  0  0  1  0  0  0  0  0999 V2000
   15.1921  -23.0058   -7.2034 O   0  0  0  0  0  0  0  0  0  0  0  0
   15.5341  -23.9672   -8.1254 C   0  0  0  0  0  0  0  0  0  0  0  0
   15.0876  -23.8705   -9.4335 C   0  0  0  0  0  0  0  0  0  0  0  0
   15.4232  -24.8296  -10.3729 C   0  0  0  0  0  0  0  0  0  0  0  0
   16.2131  -25.8985  -10.0065 C   0  0  0  0  0  0  0  0  0  0  0  0
   16.5720  -26.9333  -11.0359 C   0  0  0  0  0  0  0  0  0  0  0  0
   18.0811  -27.1275  -10.8984 C   0  0  2  0  0  0  0  0  0  0  0  0
   18.4598  -27.7570   -9.6767 N   0  0  0  0  0  0  0  0  0  0  0  0
   18.8218  -25.8760  -11.1817 C   0  0  0  0  0  0  0  0  0  0  0  0
   19.8070  -25.5333  -10.4816 O   0  0  0  0  0  0  0  0  0  0  0  0
   16.6507  -25.9795   -8.6944 C   0  0  0  0  0  0  0  0  0  0  0  0
   16.3197  -25.0327   -7.7656 C   0  0  0  0  0  0  0  0  0  0  0  0
   18.4637  -25.0110  -12.2422 N   0  0  0  0  0  0  0  0  0  0  0  0
   19.4255  -24.3768  -13.1158 C   0  0  1  0  0  0  0  0  0  0  0  0
   19.9295  -25.2753  -14.1872 C   0  0  0  0  0  0  0  0  0  0  0  0
   21.0140  -24.6554  -14.9841 C   0  0  0  0  0  0  0  0  0  0  0  0
   21.4524  -23.3335  -14.9330 C   0  0  0  0  0  0  0  0  0  0  0  0
   22.4557  -23.1431  -15.8045 N   0  0  0  0  0  0  0  0  0  0  0  0
   22.6609  -24.3204  -16.4068 C   0  0  0  0  0  0  0  0  0  0  0  0
   21.8025  -25.2301  -15.9216 N   0  0  0  0  0  0  0  0  0  0  0  0
   18.8764  -23.0904  -13.6684 C   0  0  0  0  0  0  0  0  0  0  0  0
   17.7011  -23.0202  -14.0979 O   0  0  0  0  0  0  0  0  0  0  0  0
   20.8600  -17.3273  -14.0115 C   0  0  0  0  0  0  0  0  0  0  0  0
   19.6645  -18.2134  -13.9023 C   0  0  2  0  0  0  0  0  0  0  0  0
   18.7092  -17.7139  -12.8108 C   0  0  0  0  0  0  0  0  0  0  0  0
   20.0162  -19.6244  -13.6343 C   0  0  0  0  0  0  0  0  0  0  0  0
   19.1916  -20.6971  -14.2206 C   0  0  2  0  0  0  0  0  0  0  0  0
   19.7484  -21.9787  -13.6765 N   0  0  0  0  0  0  0  0  0  0  0  0
   18.9446  -20.8496  -15.6195 C   0  0  0  0  0  0  0  0  0  0  0  0
   19.6775  -21.5367  -16.5774 O   0  0  0  0  0  0  0  0  0  0  0  0
   17.8979  -20.2727  -16.1214 O   0  0  0  0  0  0  0  0  0  0  0  0
  1  2  1  0
  2 12  2  0
  3  2  1  0
  3  4  2  0
  4  5  1  0
  5 11  2  0
  5  6  1  0
  7  6  1  0
  7  8  1  1
  9  7  1  0
 10  9  2  0
 12 11  1  0
 13  9  1  0
 14 13  1  0
 14 15  1  6
 16 15  1  0
 17 16  2  0
 18 17  1  0
 19 18  1  0
 19 20  2  0
 20 16  1  0
 21 14  1  0
 21 28  1  0
 22 21  2  0
 24 23  1  1
 24 26  1  0
 24 25  1  0
 27 26  1  6
 27 28  1  0
 27 29  1  0
 29 31  2  0
 29 30  1  0
M  END
$$$$
