YHL.pdb
     RDKit          3D

 31 32  0  0  1  0  0  0  0  0999 V2000
   20.8792  -18.5925  -15.8940 O   0  0  0  0  0  0  0  0  0  0  0  0
   21.5954  -18.9921  -14.7900 C   0  0  0  0  0  0  0  0  0  0  0  0
   21.0202  -19.8338  -13.8515 C   0  0  0  0  0  0  0  0  0  0  0  0
   21.7278  -20.2448  -12.7355 C   0  0  0  0  0  0  0  0  0  0  0  0
   23.0241  -19.8132  -12.5507 C   0  0  0  0  0  0  0  0  0  0  0  0
   23.7829  -20.2673  -11.3353 C   0  0  0  0  0  0  0  0  0  0  0  0
   24.9713  -21.0589  -11.8786 C   0  0  2  0  0  0  0  0  0  0  0  0
   24.5880  -22.1604  -12.6984 N   0  0  0  0  0  0  0  0  0  0  0  0
   25.9277  -21.4159  -10.8049 C   0  0  0  0  0  0  0  0  0  0  0  0
   25.5655  -22.0998   -9.8153 O   0  0  0  0  0  0  0  0  0  0  0  0
   23.5835  -18.9720  -13.4989 C   0  0  0  0  0  0  0  0  0  0  0  0
   22.8854  -18.5653  -14.6016 C   0  0  0  0  0  0  0  0  0  0  0  0
   27.2827  -21.0109  -10.8363 N   0  0  0  0  0  0  0  0  0  0  0  0
   28.2219  -21.2786   -9.7701 C   0  0  1  0  0  0  0  0  0  0  0  0
   29.6214  -21.4374  -10.2448 C   0  0  0  0  0  0  0  0  0  0  0  0
   30.5728  -21.6807   -9.1353 C   0  0  0  0  0  0  0  0  0  0  0  0
   31.0070  -22.9117   -8.6472 C   0  0  0  0  0  0  0  0  0  0  0  0
   31.8693  -22.7316   -7.6342 N   0  0  0  0  0  0  0  0  0  0  0  0
   31.9894  -21.4087   -7.4717 C   0  0  0  0  0  0  0  0  0  0  0  0
   31.2170  -20.7732   -8.3657 N   0  0  0  0  0  0  0  0  0  0  0  0
   28.1065  -20.2429   -8.6858 C   0  0  0  0  0  0  0  0  0  0  0  0
   27.8073  -19.0558   -8.9541 O   0  0  0  0  0  0  0  0  0  0  0  0
   27.0419  -22.4593   -5.5681 C   0  0  0  0  0  0  0  0  0  0  0  0
   28.2672  -21.8147   -5.0118 C   0  0  2  0  0  0  0  0  0  0  0  0
   28.5396  -22.2971   -3.5812 C   0  0  0  0  0  0  0  0  0  0  0  0
   28.1967  -20.3378   -5.0233 C   0  0  0  0  0  0  0  0  0  0  0  0
   28.3478  -19.6185   -6.3017 C   0  0  2  0  0  0  0  0  0  0  0  0
   28.3514  -20.6770   -7.3637 N   0  0  0  0  0  0  0  0  0  0  0  0
   29.3843  -18.6745   -6.5769 C   0  0  0  0  0  0  0  0  0  0  0  0
   29.7493  -17.5326   -5.8771 O   0  0  0  0  0  0  0  0  0  0  0  0
   30.1162  -18.8609   -7.6303 O   0  0  0  0  0  0  0  0  0  0  0  0
  1  2  1  0
  2 12  2  0
  3  2  1  0
  3  4  2  0
  4  5  1  0
  5 11  2  0
  5  6  1  0
  7  6  1  0
  7  8  1  1
  9  7  1  0
 10  9  2  0
 12 11  1  0
 13  9  1  0
 14 13  1  0
 14 15  1  6
 16 15  1  0
 17 16  2  0
 18 17  1  0
 19 18  1  0
 19 20  2  0
 20 16  1  0
 21 14  1  0
 21 28  1  0
 22 21  2  0
 24 23  1  1
 24 26  1  0
 24 25  1  0
 27 26  1  1
 27 28  1  0
 27 29  1  0
 29 31  2  0
 29 30  1  0
M  END
$$$$
