YHL.pdb
     RDKit          3D

 31 32  0  0  1  0  0  0  0  0999 V2000
   26.7624  -40.2825  -12.3337 O   0  0  0  0  0  0  0  0  0  0  0  0
   26.3116  -39.5725  -13.4219 C   0  0  0  0  0  0  0  0  0  0  0  0
   25.0802  -38.9387  -13.3809 C   0  0  0  0  0  0  0  0  0  0  0  0
   24.6128  -38.2204  -14.4675 C   0  0  0  0  0  0  0  0  0  0  0  0
   25.3803  -38.1315  -15.6094 C   0  0  0  0  0  0  0  0  0  0  0  0
   24.8626  -37.3475  -16.7828 C   0  0  0  0  0  0  0  0  0  0  0  0
   25.3525  -35.9183  -16.5562 C   0  0  2  0  0  0  0  0  0  0  0  0
   26.7718  -35.8151  -16.4721 N   0  0  0  0  0  0  0  0  0  0  0  0
   24.6374  -35.2662  -15.4344 C   0  0  0  0  0  0  0  0  0  0  0  0
   25.2625  -34.6302  -14.5496 O   0  0  0  0  0  0  0  0  0  0  0  0
   26.6089  -38.7713  -15.6331 C   0  0  0  0  0  0  0  0  0  0  0  0
   27.0716  -39.4811  -14.5603 C   0  0  0  0  0  0  0  0  0  0  0  0
   23.2303  -35.3242  -15.3013 N   0  0  0  0  0  0  0  0  0  0  0  0
   22.4925  -34.6007  -14.2900 C   0  0  1  0  0  0  0  0  0  0  0  0
   21.0190  -34.7486  -14.4178 C   0  0  0  0  0  0  0  0  0  0  0  0
   20.2769  -33.8429  -13.5098 C   0  0  0  0  0  0  0  0  0  0  0  0
   20.7853  -32.7637  -12.7895 C   0  0  0  0  0  0  0  0  0  0  0  0
   19.8094  -32.1811  -12.0752 N   0  0  0  0  0  0  0  0  0  0  0  0
   18.6917  -32.8717  -12.3298 C   0  0  0  0  0  0  0  0  0  0  0  0
   18.9631  -33.8674  -13.1871 N   0  0  0  0  0  0  0  0  0  0  0  0
   22.9799  -34.9621  -12.9139 C   0  0  0  0  0  0  0  0  0  0  0  0
   23.1235  -36.1593  -12.5721 O   0  0  0  0  0  0  0  0  0  0  0  0
   24.5945  -32.9787   -8.0002 C   0  0  0  0  0  0  0  0  0  0  0  0
   25.5426  -33.3867   -9.0777 C   0  0  2  0  0  0  0  0  0  0  0  0
   26.7772  -32.4764   -9.0961 C   0  0  0  0  0  0  0  0  0  0  0  0
   24.9211  -33.3927  -10.4194 C   0  0  0  0  0  0  0  0  0  0  0  0
   23.7530  -34.2574  -10.6695 C   0  0  2  0  0  0  0  0  0  0  0  0
   23.2634  -33.8900  -12.0383 N   0  0  0  0  0  0  0  0  0  0  0  0
   22.6353  -34.3759   -9.7876 C   0  0  0  0  0  0  0  0  0  0  0  0
   22.4767  -35.1740   -8.6630 O   0  0  0  0  0  0  0  0  0  0  0  0
   21.5836  -33.6597  -10.0349 O   0  0  0  0  0  0  0  0  0  0  0  0
  1  2  1  0
  2 12  2  0
  3  2  1  0
  3  4  2  0
  4  5  1  0
  5 11  2  0
  5  6  1  0
  7  6  1  0
  7  8  1  1
  9  7  1  0
 10  9  2  0
 12 11  1  0
 13  9  1  0
 14 13  1  0
 14 15  1  1
 16 15  1  0
 17 16  2  0
 18 17  1  0
 19 18  1  0
 19 20  2  0
 20 16  1  0
 21 14  1  0
 21 28  1  0
 22 21  2  0
 24 23  1  1
 24 26  1  0
 24 25  1  0
 27 26  1  1
 27 28  1  0
 27 29  1  0
 29 31  2  0
 29 30  1  0
M  END
$$$$
