YHL.pdb
     RDKit          3D

 31 32  0  0  1  0  0  0  0  0999 V2000
   23.3492  -20.2454   -9.7811 O   0  0  0  0  0  0  0  0  0  0  0  0
   24.3880  -20.2124  -10.6818 C   0  0  0  0  0  0  0  0  0  0  0  0
   24.2617  -19.5075  -11.8680 C   0  0  0  0  0  0  0  0  0  0  0  0
   25.2978  -19.4646  -12.7843 C   0  0  0  0  0  0  0  0  0  0  0  0
   26.4746  -20.1313  -12.5172 C   0  0  0  0  0  0  0  0  0  0  0  0
   27.5933  -20.0764  -13.5196 C   0  0  0  0  0  0  0  0  0  0  0  0
   27.2497  -21.1402  -14.5608 C   0  0  2  0  0  0  0  0  0  0  0  0
   28.3170  -21.4080  -15.4672 N   0  0  0  0  0  0  0  0  0  0  0  0
   25.9564  -20.8572  -15.2259 C   0  0  0  0  0  0  0  0  0  0  0  0
   25.8281  -19.8796  -16.0043 O   0  0  0  0  0  0  0  0  0  0  0  0
   26.5837  -20.8312  -11.3264 C   0  0  0  0  0  0  0  0  0  0  0  0
   25.5608  -20.8742  -10.4206 C   0  0  0  0  0  0  0  0  0  0  0  0
   24.8114  -21.6626  -15.0225 N   0  0  0  0  0  0  0  0  0  0  0  0
   23.5714  -21.4862  -15.7450 C   0  0  1  0  0  0  0  0  0  0  0  0
   23.2655  -22.6077  -16.6713 C   0  0  0  0  0  0  0  0  0  0  0  0
   22.0842  -22.3341  -17.5229 C   0  0  0  0  0  0  0  0  0  0  0  0
   22.0495  -21.6160  -18.7167 C   0  0  0  0  0  0  0  0  0  0  0  0
   20.7978  -21.5798  -19.2005 N   0  0  0  0  0  0  0  0  0  0  0  0
   20.0388  -22.2619  -18.3348 C   0  0  0  0  0  0  0  0  0  0  0  0
   20.8009  -22.7163  -17.3285 N   0  0  0  0  0  0  0  0  0  0  0  0
   22.4370  -21.2100  -14.7971 C   0  0  0  0  0  0  0  0  0  0  0  0
   22.3725  -21.7786  -13.6821 O   0  0  0  0  0  0  0  0  0  0  0  0
   20.2258  -18.2522  -11.7525 C   0  0  0  0  0  0  0  0  0  0  0  0
   20.8011  -17.8081  -13.0558 C   0  0  2  0  0  0  0  0  0  0  0  0
   20.6064  -16.2997  -13.2560 C   0  0  0  0  0  0  0  0  0  0  0  0
   20.2312  -18.5312  -14.2129 C   0  0  0  0  0  0  0  0  0  0  0  0
   20.3413  -20.0006  -14.2706 C   0  0  2  0  0  0  0  0  0  0  0  0
   21.4596  -20.2852  -15.2281 N   0  0  0  0  0  0  0  0  0  0  0  0
   19.2500  -20.8796  -14.5493 C   0  0  0  0  0  0  0  0  0  0  0  0
   18.2776  -21.3807  -13.6949 O   0  0  0  0  0  0  0  0  0  0  0  0
   19.1068  -21.3095  -15.7637 O   0  0  0  0  0  0  0  0  0  0  0  0
  1  2  1  0
  2 12  2  0
  3  2  1  0
  3  4  2  0
  4  5  1  0
  5 11  2  0
  5  6  1  0
  7  6  1  0
  7  8  1  6
  9  7  1  0
 10  9  2  0
 12 11  1  0
 13  9  1  0
 14 13  1  0
 14 15  1  1
 16 15  1  0
 17 16  2  0
 18 17  1  0
 19 18  1  0
 19 20  2  0
 20 16  1  0
 21 14  1  0
 21 28  1  0
 22 21  2  0
 24 23  1  1
 24 26  1  0
 24 25  1  0
 27 26  1  6
 27 28  1  0
 27 29  1  0
 29 31  2  0
 29 30  1  0
M  END
$$$$
