CFR.pdb
     RDKit          3D

 29 29  0  0  1  0  0  0  0  0999 V2000
   29.3679  -23.0121  -17.4994 N   0  0  0  0  0  0  0  0  0  0  0  0
   28.5805  -21.8139  -17.2842 C   0  0  1  0  0  0  0  0  0  0  0  0
   27.7696  -21.5779  -18.5434 C   0  0  0  0  0  0  0  0  0  0  0  0
   28.9055  -20.9991  -19.8255 S   0  0  0  0  0  0  0  0  0  0  0  0
   27.7144  -22.0522  -16.1013 C   0  0  0  0  0  0  0  0  0  0  0  0
   27.3062  -23.2237  -15.8969 O   0  0  0  0  0  0  0  0  0  0  0  0
   27.3358  -21.0360  -15.2110 N   0  0  0  0  0  0  0  0  0  0  0  0
   26.5627  -21.3147  -13.9806 C   0  0  1  0  0  0  0  0  0  0  0  0
   26.9400  -20.3422  -12.9337 C   0  0  0  0  0  0  0  0  0  0  0  0
   26.1734  -20.3403  -11.6922 C   0  0  0  0  0  0  0  0  0  0  0  0
   24.9125  -19.8374  -11.5123 C   0  0  0  0  0  0  0  0  0  0  0  0
   24.3189  -19.8896  -10.2653 C   0  0  0  0  0  0  0  0  0  0  0  0
   24.9379  -20.4334   -9.1631 C   0  0  0  0  0  0  0  0  0  0  0  0
   26.2052  -20.9438   -9.3275 C   0  0  0  0  0  0  0  0  0  0  0  0
   26.7940  -20.8910  -10.5663 C   0  0  0  0  0  0  0  0  0  0  0  0
   25.1333  -21.3669  -14.3237 C   0  0  0  0  0  0  0  0  0  0  0  0
   24.6377  -20.5045  -15.1402 O   0  0  0  0  0  0  0  0  0  0  0  0
   19.1280  -27.6555  -15.0102 N   0  0  0  0  0  0  0  0  0  0  0  0
   18.4524  -26.4770  -15.4558 C   0  0  0  0  0  0  0  0  0  0  0  0
   17.2899  -26.6001  -15.9879 N   0  0  0  0  0  0  0  0  0  0  0  0
   19.0973  -25.2230  -15.2894 N   0  0  0  0  0  0  0  0  0  0  0  0
   20.4147  -25.1981  -14.7049 C   0  0  0  0  0  0  0  0  0  0  0  0
   20.9186  -23.7505  -14.6806 C   0  0  0  0  0  0  0  0  0  0  0  0
   22.3281  -23.7390  -14.1829 C   0  0  0  0  0  0  0  0  0  0  0  0
   22.8645  -22.3143  -14.1904 C   0  0  2  0  0  0  0  0  0  0  0  0
   24.2785  -22.3523  -13.7884 N   0  0  0  0  0  0  0  0  0  0  0  0
   22.0886  -21.4742  -13.2825 C   0  0  0  0  0  0  0  0  0  0  0  0
   21.0292  -20.6707  -13.6576 O   0  0  0  0  0  0  0  0  0  0  0  0
   22.3809  -21.4525  -12.0579 O   0  0  0  0  0  0  0  0  0  0  0  0
  2  3  1  0
  2  1  1  6
  4  3  1  0
  5  2  1  0
  6  5  2  0
  7  5  1  0
  8  7  1  0
  9 10  1  0
  8  9  1  1
 10 15  2  0
 11 12  2  0
 11 10  1  0
 12 13  1  0
 13 14  2  0
 15 14  1  0
 16  8  1  0
 16 17  2  0
 19 20  2  0
 19 18  1  0
 21 19  1  0
 22 21  1  0
 23 22  1  0
 24 23  1  0
 25 24  1  1
 25 26  1  0
 26 16  1  0
 27 25  1  0
 28 27  1  0
 29 27  2  0
M  END
$$$$
