CFR.pdb
     RDKit          3D

 29 29  0  0  1  0  0  0  0  0999 V2000
   13.4464  -24.0271  -10.3010 N   0  0  0  0  0  0  0  0  0  0  0  0
   14.2855  -24.2045  -11.4700 C   0  0  1  0  0  0  0  0  0  0  0  0
   13.3683  -24.2613  -12.6759 C   0  0  0  0  0  0  0  0  0  0  0  0
   13.0592  -26.0036  -13.0471 S   0  0  0  0  0  0  0  0  0  0  0  0
   15.2171  -23.0494  -11.5335 C   0  0  0  0  0  0  0  0  0  0  0  0
   14.7602  -21.9091  -11.2654 O   0  0  0  0  0  0  0  0  0  0  0  0
   16.5718  -23.1749  -11.8764 N   0  0  0  0  0  0  0  0  0  0  0  0
   17.5041  -22.0267  -11.8355 C   0  0  1  0  0  0  0  0  0  0  0  0
   18.7879  -22.4584  -11.2441 C   0  0  0  0  0  0  0  0  0  0  0  0
   19.8457  -21.4635  -11.1025 C   0  0  0  0  0  0  0  0  0  0  0  0
   19.9460  -20.5126  -10.1222 C   0  0  0  0  0  0  0  0  0  0  0  0
   21.0013  -19.6203  -10.1303 C   0  0  0  0  0  0  0  0  0  0  0  0
   21.9852  -19.6320  -11.0924 C   0  0  0  0  0  0  0  0  0  0  0  0
   21.8991  -20.5820  -12.0843 C   0  0  0  0  0  0  0  0  0  0  0  0
   20.8504  -21.4675  -12.0756 C   0  0  0  0  0  0  0  0  0  0  0  0
   17.5829  -21.4353  -13.1800 C   0  0  0  0  0  0  0  0  0  0  0  0
   17.6889  -22.1980  -14.2110 O   0  0  0  0  0  0  0  0  0  0  0  0
   20.2211  -14.9099  -17.1662 N   0  0  0  0  0  0  0  0  0  0  0  0
   18.9973  -14.9223  -17.9053 C   0  0  0  0  0  0  0  0  0  0  0  0
   19.0185  -14.5477  -19.1337 N   0  0  0  0  0  0  0  0  0  0  0  0
   17.8135  -15.3489  -17.2478 N   0  0  0  0  0  0  0  0  0  0  0  0
   17.9248  -15.9126  -15.9258 C   0  0  0  0  0  0  0  0  0  0  0  0
   17.7625  -17.4341  -16.0207 C   0  0  0  0  0  0  0  0  0  0  0  0
   17.9571  -18.0254  -14.6616 C   0  0  0  0  0  0  0  0  0  0  0  0
   17.8124  -19.5391  -14.7339 C   0  0  2  0  0  0  0  0  0  0  0  0
   17.5338  -20.0404  -13.3798 N   0  0  0  0  0  0  0  0  0  0  0  0
   19.0295  -20.1412  -15.2706 C   0  0  0  0  0  0  0  0  0  0  0  0
   19.1426  -20.7192  -16.5203 O   0  0  0  0  0  0  0  0  0  0  0  0
   20.0743  -20.1558  -14.5680 O   0  0  0  0  0  0  0  0  0  0  0  0
  2  3  1  0
  2  1  1  1
  4  3  1  0
  5  2  1  0
  6  5  2  0
  7  5  1  0
  8  7  1  0
  9 10  1  0
  8  9  1  6
 10 15  2  0
 11 12  2  0
 11 10  1  0
 12 13  1  0
 13 14  2  0
 15 14  1  0
 16  8  1  0
 16 17  2  0
 19 20  2  0
 19 18  1  0
 21 19  1  0
 22 21  1  0
 23 22  1  0
 24 23  1  0
 25 24  1  1
 25 26  1  0
 26 16  1  0
 27 25  1  0
 28 27  1  0
 29 27  2  0
M  END
$$$$
