CFR.pdb
     RDKit          3D

 29 29  0  0  1  0  0  0  0  0999 V2000
   27.6385  -21.6277  -17.0219 N   0  0  0  0  0  0  0  0  0  0  0  0
   28.1404  -20.8123  -15.9332 C   0  0  1  0  0  0  0  0  0  0  0  0
   28.0061  -19.3634  -16.3592 C   0  0  0  0  0  0  0  0  0  0  0  0
   26.2570  -19.0511  -16.6940 S   0  0  0  0  0  0  0  0  0  0  0  0
   27.3234  -21.1166  -14.7307 C   0  0  0  0  0  0  0  0  0  0  0  0
   26.3255  -21.8684  -14.8717 O   0  0  0  0  0  0  0  0  0  0  0  0
   27.6146  -20.6060  -13.4566 N   0  0  0  0  0  0  0  0  0  0  0  0
   26.7726  -20.9049  -12.2772 C   0  0  1  0  0  0  0  0  0  0  0  0
   27.5267  -20.5937  -11.0449 C   0  0  0  0  0  0  0  0  0  0  0  0
   26.7939  -20.5594   -9.7837 C   0  0  0  0  0  0  0  0  0  0  0  0
   26.3193  -21.6378   -9.0859 C   0  0  0  0  0  0  0  0  0  0  0  0
   25.6214  -21.4464   -7.9084 C   0  0  0  0  0  0  0  0  0  0  0  0
   25.3691  -20.2006   -7.3810 C   0  0  0  0  0  0  0  0  0  0  0  0
   25.8401  -19.1066   -8.0701 C   0  0  0  0  0  0  0  0  0  0  0  0
   26.5327  -19.2977   -9.2395 C   0  0  0  0  0  0  0  0  0  0  0  0
   25.4825  -20.2156  -12.4322 C   0  0  0  0  0  0  0  0  0  0  0  0
   25.4068  -19.1495  -13.1490 O   0  0  0  0  0  0  0  0  0  0  0  0
   18.5827  -22.7016  -14.3817 N   0  0  0  0  0  0  0  0  0  0  0  0
   18.5304  -21.6611  -15.3607 C   0  0  0  0  0  0  0  0  0  0  0  0
   17.3867  -21.3264  -15.8401 N   0  0  0  0  0  0  0  0  0  0  0  0
   19.7456  -21.0441  -15.7587 N   0  0  0  0  0  0  0  0  0  0  0  0
   20.9740  -21.4826  -15.1451 C   0  0  0  0  0  0  0  0  0  0  0  0
   21.5886  -20.3095  -14.3730 C   0  0  0  0  0  0  0  0  0  0  0  0
   22.8958  -20.7455  -13.7938 C   0  0  0  0  0  0  0  0  0  0  0  0
   23.0212  -20.2350  -12.3651 C   0  0  2  0  0  0  0  0  0  0  0  0
   24.3067  -20.6981  -11.8215 N   0  0  0  0  0  0  0  0  0  0  0  0
   21.9089  -20.7193  -11.5527 C   0  0  0  0  0  0  0  0  0  0  0  0
   20.7718  -19.9938  -11.2536 O   0  0  0  0  0  0  0  0  0  0  0  0
   21.9563  -21.8806  -11.0682 O   0  0  0  0  0  0  0  0  0  0  0  0
  2  3  1  0
  2  1  1  6
  4  3  1  0
  5  2  1  0
  6  5  2  0
  7  5  1  0
  8  7  1  0
  9 10  1  0
  8  9  1  1
 10 15  2  0
 11 12  2  0
 11 10  1  0
 12 13  1  0
 13 14  2  0
 15 14  1  0
 16  8  1  0
 16 17  2  0
 19 20  2  0
 19 18  1  0
 21 19  1  0
 22 21  1  0
 23 22  1  0
 24 23  1  0
 25 24  1  6
 25 26  1  0
 26 16  1  0
 27 25  1  0
 28 27  1  0
 29 27  2  0
M  END
$$$$
