CFR.pdb
     RDKit          3D

 29 29  0  0  1  0  0  0  0  0999 V2000
   29.4918  -20.0152  -14.2563 N   0  0  0  0  0  0  0  0  0  0  0  0
   28.4631  -19.2018  -13.6377 C   0  0  1  0  0  0  0  0  0  0  0  0
   27.8888  -18.3068  -14.7184 C   0  0  0  0  0  0  0  0  0  0  0  0
   28.5344  -16.6396  -14.4487 S   0  0  0  0  0  0  0  0  0  0  0  0
   27.4411  -20.1214  -13.0757 C   0  0  0  0  0  0  0  0  0  0  0  0
   27.2649  -21.2267  -13.6486 O   0  0  0  0  0  0  0  0  0  0  0  0
   26.6712  -19.8126  -11.9441 N   0  0  0  0  0  0  0  0  0  0  0  0
   25.7389  -20.7873  -11.3360 C   0  0  1  0  0  0  0  0  0  0  0  0
   25.4838  -20.4104   -9.9299 C   0  0  0  0  0  0  0  0  0  0  0  0
   26.5798  -20.5424   -8.9758 C   0  0  0  0  0  0  0  0  0  0  0  0
   26.7298  -19.8495   -7.8042 C   0  0  0  0  0  0  0  0  0  0  0  0
   27.8381  -20.0694   -7.0082 C   0  0  0  0  0  0  0  0  0  0  0  0
   28.8270  -20.9696   -7.3329 C   0  0  0  0  0  0  0  0  0  0  0  0
   28.6906  -21.6745   -8.5069 C   0  0  0  0  0  0  0  0  0  0  0  0
   27.5898  -21.4550   -9.2968 C   0  0  0  0  0  0  0  0  0  0  0  0
   24.5509  -20.9028  -12.1957 C   0  0  0  0  0  0  0  0  0  0  0  0
   24.0626  -19.8541  -12.7593 O   0  0  0  0  0  0  0  0  0  0  0  0
   21.4185  -27.6225  -13.7003 N   0  0  0  0  0  0  0  0  0  0  0  0
   20.2128  -26.9209  -13.3873 C   0  0  0  0  0  0  0  0  0  0  0  0
   19.3934  -27.4511  -12.5522 N   0  0  0  0  0  0  0  0  0  0  0  0
   19.9757  -25.6689  -14.0135 N   0  0  0  0  0  0  0  0  0  0  0  0
   20.9777  -25.1454  -14.9079 C   0  0  0  0  0  0  0  0  0  0  0  0
   21.2456  -23.6795  -14.5482 C   0  0  0  0  0  0  0  0  0  0  0  0
   22.5216  -23.5985  -13.7739 C   0  0  0  0  0  0  0  0  0  0  0  0
   22.7725  -22.1595  -13.3450 C   0  0  2  0  0  0  0  0  0  0  0  0
   23.9275  -22.1447  -12.4349 N   0  0  0  0  0  0  0  0  0  0  0  0
   21.5884  -21.6102  -12.6907 C   0  0  0  0  0  0  0  0  0  0  0  0
   20.5639  -20.9447  -13.3359 O   0  0  0  0  0  0  0  0  0  0  0  0
   21.4587  -21.7306  -11.4440 O   0  0  0  0  0  0  0  0  0  0  0  0
  2  3  1  0
  2  1  1  6
  4  3  1  0
  5  2  1  0
  6  5  2  0
  7  5  1  0
  8  7  1  0
  9 10  1  0
  8  9  1  1
 10 15  2  0
 11 12  2  0
 11 10  1  0
 12 13  1  0
 13 14  2  0
 15 14  1  0
 16  8  1  0
 16 17  2  0
 19 20  2  0
 19 18  1  0
 21 19  1  0
 22 21  1  0
 23 22  1  0
 24 23  1  0
 25 24  1  1
 25 26  1  0
 26 16  1  0
 27 25  1  0
 28 27  1  0
 29 27  2  0
M  END
$$$$
