CFR.pdb
     RDKit          3D

 29 29  0  0  1  0  0  0  0  0999 V2000
   30.2840  -37.2063   -5.1433 N   0  0  0  0  0  0  0  0  0  0  0  0
   30.2905  -36.0321   -4.2926 C   0  0  1  0  0  0  0  0  0  0  0  0
   29.1512  -36.1880   -3.3045 C   0  0  0  0  0  0  0  0  0  0  0  0
   29.5077  -37.6357   -2.2817 S   0  0  0  0  0  0  0  0  0  0  0  0
   31.6109  -35.9761   -3.6149 C   0  0  0  0  0  0  0  0  0  0  0  0
   32.3500  -36.9911   -3.6804 O   0  0  0  0  0  0  0  0  0  0  0  0
   32.0644  -34.8500   -2.9113 N   0  0  0  0  0  0  0  0  0  0  0  0
   33.3728  -34.8271   -2.2208 C   0  0  1  0  0  0  0  0  0  0  0  0
   34.1313  -33.6324   -2.6470 C   0  0  0  0  0  0  0  0  0  0  0  0
   35.2873  -33.2348   -1.8504 C   0  0  0  0  0  0  0  0  0  0  0  0
   35.2770  -32.4314   -0.7415 C   0  0  0  0  0  0  0  0  0  0  0  0
   36.4617  -32.1245   -0.0993 C   0  0  0  0  0  0  0  0  0  0  0  0
   37.6853  -32.5927   -0.5205 C   0  0  0  0  0  0  0  0  0  0  0  0
   37.7125  -33.4019   -1.6331 C   0  0  0  0  0  0  0  0  0  0  0  0
   36.5354  -33.7058   -2.2704 C   0  0  0  0  0  0  0  0  0  0  0  0
   33.1445  -34.9606   -0.7739 C   0  0  0  0  0  0  0  0  0  0  0  0
   32.0398  -34.5488   -0.2581 O   0  0  0  0  0  0  0  0  0  0  0  0
   34.8155  -41.2767    4.5018 N   0  0  0  0  0  0  0  0  0  0  0  0
   33.7971  -40.9474    3.5540 C   0  0  0  0  0  0  0  0  0  0  0  0
   33.1413  -41.9033    3.0010 N   0  0  0  0  0  0  0  0  0  0  0  0
   33.5563  -39.5779    3.2672 N   0  0  0  0  0  0  0  0  0  0  0  0
   34.3947  -38.5855    3.8917 C   0  0  0  0  0  0  0  0  0  0  0  0
   33.9377  -37.1943    3.4381 C   0  0  0  0  0  0  0  0  0  0  0  0
   34.2518  -37.0335    1.9855 C   0  0  0  0  0  0  0  0  0  0  0  0
   33.7599  -35.6770    1.5001 C   0  0  2  0  0  0  0  0  0  0  0  0
   34.1058  -35.5438    0.0770 N   0  0  0  0  0  0  0  0  0  0  0  0
   34.3666  -34.6055    2.2848 C   0  0  0  0  0  0  0  0  0  0  0  0
   35.3523  -33.7511    1.8296 O   0  0  0  0  0  0  0  0  0  0  0  0
   33.9903  -34.4186    3.4717 O   0  0  0  0  0  0  0  0  0  0  0  0
  2  3  1  0
  2  1  1  6
  4  3  1  0
  5  2  1  0
  6  5  2  0
  7  5  1  0
  8  7  1  0
  9 10  1  0
  8  9  1  1
 10 15  2  0
 11 12  2  0
 11 10  1  0
 12 13  1  0
 13 14  2  0
 15 14  1  0
 16  8  1  0
 16 17  2  0
 19 20  2  0
 19 18  1  0
 21 19  1  0
 22 21  1  0
 23 22  1  0
 24 23  1  0
 25 24  1  1
 25 26  1  0
 26 16  1  0
 27 25  1  0
 28 27  1  0
 29 27  2  0
M  END
$$$$
