CFR.pdb
     RDKit          3D

 29 29  0  0  1  0  0  0  0  0999 V2000
   27.8742  -23.4608  -16.6071 N   0  0  0  0  0  0  0  0  0  0  0  0
   27.2762  -22.1428  -16.5209 C   0  0  1  0  0  0  0  0  0  0  0  0
   26.5350  -21.9006  -17.8211 C   0  0  0  0  0  0  0  0  0  0  0  0
   27.7030  -21.1637  -18.9880 S   0  0  0  0  0  0  0  0  0  0  0  0
   26.3618  -22.1404  -15.3504 C   0  0  0  0  0  0  0  0  0  0  0  0
   25.9063  -23.2442  -14.9569 O   0  0  0  0  0  0  0  0  0  0  0  0
   25.9880  -20.9706  -14.6719 N   0  0  0  0  0  0  0  0  0  0  0  0
   25.2110  -21.0045  -13.4132 C   0  0  1  0  0  0  0  0  0  0  0  0
   25.8439  -20.1094  -12.4220 C   0  0  0  0  0  0  0  0  0  0  0  0
   27.2144  -20.3994  -12.0140 C   0  0  0  0  0  0  0  0  0  0  0  0
   28.3583  -19.9774  -12.6375 C   0  0  0  0  0  0  0  0  0  0  0  0
   29.5934  -20.3512  -12.1426 C   0  0  0  0  0  0  0  0  0  0  0  0
   29.7453  -21.1443  -11.0283 C   0  0  0  0  0  0  0  0  0  0  0  0
   28.6053  -21.5762  -10.3899 C   0  0  0  0  0  0  0  0  0  0  0  0
   27.3791  -21.2047  -10.8824 C   0  0  0  0  0  0  0  0  0  0  0  0
   23.8003  -20.7251  -13.7224 C   0  0  0  0  0  0  0  0  0  0  0  0
   23.4982  -19.7787  -14.5403 O   0  0  0  0  0  0  0  0  0  0  0  0
   19.1322  -24.6613   -8.8812 N   0  0  0  0  0  0  0  0  0  0  0  0
   18.1333  -23.8007   -9.4340 C   0  0  0  0  0  0  0  0  0  0  0  0
   17.1588  -23.4305   -8.6836 N   0  0  0  0  0  0  0  0  0  0  0  0
   18.2641  -23.3938  -10.7878 N   0  0  0  0  0  0  0  0  0  0  0  0
   19.4743  -23.7307  -11.4946 C   0  0  0  0  0  0  0  0  0  0  0  0
   20.2340  -22.4394  -11.8198 C   0  0  0  0  0  0  0  0  0  0  0  0
   20.5149  -22.4020  -13.2875 C   0  0  0  0  0  0  0  0  0  0  0  0
   21.3861  -21.1969  -13.6138 C   0  0  2  0  0  0  0  0  0  0  0  0
   22.7537  -21.4788  -13.1526 N   0  0  0  0  0  0  0  0  0  0  0  0
   20.8573  -19.9980  -12.9697 C   0  0  0  0  0  0  0  0  0  0  0  0
   19.7946  -19.2501  -13.4387 O   0  0  0  0  0  0  0  0  0  0  0  0
   21.3873  -19.5824  -11.9058 O   0  0  0  0  0  0  0  0  0  0  0  0
  2  3  1  0
  2  1  1  6
  4  3  1  0
  5  2  1  0
  6  5  2  0
  7  5  1  0
  8  7  1  0
  9 10  1  0
  8  9  1  1
 10 15  2  0
 11 12  2  0
 11 10  1  0
 12 13  1  0
 13 14  2  0
 15 14  1  0
 16  8  1  0
 16 17  2  0
 19 20  2  0
 19 18  1  0
 21 19  1  0
 22 21  1  0
 23 22  1  0
 24 23  1  0
 25 24  1  1
 25 26  1  0
 26 16  1  0
 27 25  1  0
 28 27  1  0
 29 27  2  0
M  END
$$$$
