CFR.pdb
     RDKit          3D

 29 29  0  0  1  0  0  0  0  0999 V2000
   25.6919  -23.3517  -15.9701 N   0  0  0  0  0  0  0  0  0  0  0  0
   25.8487  -22.0091  -15.4457 C   0  0  1  0  0  0  0  0  0  0  0  0
   24.7388  -21.1635  -16.0389 C   0  0  0  0  0  0  0  0  0  0  0  0
   23.2591  -22.1972  -16.1432 S   0  0  0  0  0  0  0  0  0  0  0  0
   25.7550  -22.0913  -13.9657 C   0  0  0  0  0  0  0  0  0  0  0  0
   25.3743  -23.1773  -13.4593 O   0  0  0  0  0  0  0  0  0  0  0  0
   26.0700  -21.0195  -13.1167 N   0  0  0  0  0  0  0  0  0  0  0  0
   25.9985  -21.1346  -11.6434 C   0  0  1  0  0  0  0  0  0  0  0  0
   27.0186  -20.2567  -11.0329 C   0  0  0  0  0  0  0  0  0  0  0  0
   27.1227  -20.2365   -9.5776 C   0  0  0  0  0  0  0  0  0  0  0  0
   27.8052  -21.1298   -8.7957 C   0  0  0  0  0  0  0  0  0  0  0  0
   27.7964  -20.9922   -7.4205 C   0  0  0  0  0  0  0  0  0  0  0  0
   27.1236  -19.9814   -6.7729 C   0  0  0  0  0  0  0  0  0  0  0  0
   26.4334  -19.0750   -7.5447 C   0  0  0  0  0  0  0  0  0  0  0  0
   26.4424  -19.2127   -8.9103 C   0  0  0  0  0  0  0  0  0  0  0  0
   24.6102  -20.8979  -11.2189 C   0  0  0  0  0  0  0  0  0  0  0  0
   23.8579  -20.1053  -11.8985 O   0  0  0  0  0  0  0  0  0  0  0  0
   17.7986  -23.2261   -7.5891 N   0  0  0  0  0  0  0  0  0  0  0  0
   18.7508  -24.2757   -7.7777 C   0  0  0  0  0  0  0  0  0  0  0  0
   18.3476  -25.3869   -8.2802 N   0  0  0  0  0  0  0  0  0  0  0  0
   20.0996  -24.0420   -7.4014 N   0  0  0  0  0  0  0  0  0  0  0  0
   20.4789  -22.7148   -6.9862 C   0  0  0  0  0  0  0  0  0  0  0  0
   20.8289  -21.8880   -8.2289 C   0  0  0  0  0  0  0  0  0  0  0  0
   22.2913  -22.0279   -8.5049 C   0  0  0  0  0  0  0  0  0  0  0  0
   22.6475  -21.2792   -9.7817 C   0  0  2  0  0  0  0  0  0  0  0  0
   24.0653  -21.5290  -10.0818 N   0  0  0  0  0  0  0  0  0  0  0  0
   22.3945  -19.8503   -9.6205 C   0  0  0  0  0  0  0  0  0  0  0  0
   23.1934  -18.9804   -8.9038 O   0  0  0  0  0  0  0  0  0  0  0  0
   21.3784  -19.3374  -10.1590 O   0  0  0  0  0  0  0  0  0  0  0  0
  2  3  1  0
  2  1  1  6
  4  3  1  0
  5  2  1  0
  6  5  2  0
  7  5  1  0
  8  7  1  0
  9 10  1  0
  8  9  1  1
 10 15  2  0
 11 12  2  0
 11 10  1  0
 12 13  1  0
 13 14  2  0
 15 14  1  0
 16  8  1  0
 16 17  2  0
 19 20  2  0
 19 18  1  0
 21 19  1  0
 22 21  1  0
 23 22  1  0
 24 23  1  0
 25 24  1  1
 25 26  1  0
 26 16  1  0
 27 25  1  0
 28 27  1  0
 29 27  2  0
M  END
$$$$
