CFR.pdb
     RDKit          3D

 29 29  0  0  1  0  0  0  0  0999 V2000
   27.3189  -20.6188  -17.7103 N   0  0  0  0  0  0  0  0  0  0  0  0
   26.8570  -21.9862  -17.5721 C   0  0  1  0  0  0  0  0  0  0  0  0
   28.0702  -22.8853  -17.7082 C   0  0  0  0  0  0  0  0  0  0  0  0
   29.1345  -22.5891  -16.2769 S   0  0  0  0  0  0  0  0  0  0  0  0
   26.2186  -22.1117  -16.2369 C   0  0  0  0  0  0  0  0  0  0  0  0
   25.7026  -23.2171  -15.9326 O   0  0  0  0  0  0  0  0  0  0  0  0
   26.1670  -21.0599  -15.3098 N   0  0  0  0  0  0  0  0  0  0  0  0
   25.5588  -21.2197  -13.9705 C   0  0  1  0  0  0  0  0  0  0  0  0
   26.2430  -20.3272  -13.0116 C   0  0  0  0  0  0  0  0  0  0  0  0
   25.8182  -20.3665  -11.6163 C   0  0  0  0  0  0  0  0  0  0  0  0
   24.7508  -19.7058  -11.0691 C   0  0  0  0  0  0  0  0  0  0  0  0
   24.4827  -19.8251   -9.7185 C   0  0  0  0  0  0  0  0  0  0  0  0
   25.2465  -20.5910   -8.8678 C   0  0  0  0  0  0  0  0  0  0  0  0
   26.3224  -21.2619   -9.4025 C   0  0  0  0  0  0  0  0  0  0  0  0
   26.5881  -21.1424  -10.7437 C   0  0  0  0  0  0  0  0  0  0  0  0
   24.1037  -21.0404  -14.0892 C   0  0  0  0  0  0  0  0  0  0  0  0
   23.6314  -20.1043  -14.8352 O   0  0  0  0  0  0  0  0  0  0  0  0
   17.0493  -26.1422  -12.9143 N   0  0  0  0  0  0  0  0  0  0  0  0
   16.7897  -24.7387  -12.8331 C   0  0  0  0  0  0  0  0  0  0  0  0
   15.6814  -24.2913  -13.3037 N   0  0  0  0  0  0  0  0  0  0  0  0
   17.7690  -23.9024  -12.2352 N   0  0  0  0  0  0  0  0  0  0  0  0
   19.1588  -24.1555  -12.5219 C   0  0  0  0  0  0  0  0  0  0  0  0
   19.7303  -22.9622  -13.2960 C   0  0  0  0  0  0  0  0  0  0  0  0
   20.9896  -22.5125  -12.6278 C   0  0  0  0  0  0  0  0  0  0  0  0
   21.7625  -21.5868  -13.5570 C   0  0  2  0  0  0  0  0  0  0  0  0
   23.1961  -21.8802  -13.4115 N   0  0  0  0  0  0  0  0  0  0  0  0
   21.4823  -20.1910  -13.2325 C   0  0  0  0  0  0  0  0  0  0  0  0
   20.6513  -19.3604  -13.9593 O   0  0  0  0  0  0  0  0  0  0  0  0
   22.0242  -19.6699  -12.2224 O   0  0  0  0  0  0  0  0  0  0  0  0
  2  3  1  0
  2  1  1  1
  4  3  1  0
  5  2  1  0
  6  5  2  0
  7  5  1  0
  8  7  1  0
  9 10  1  0
  8  9  1  1
 10 15  2  0
 11 12  2  0
 11 10  1  0
 12 13  1  0
 13 14  2  0
 15 14  1  0
 16  8  1  0
 16 17  2  0
 19 20  2  0
 19 18  1  0
 21 19  1  0
 22 21  1  0
 23 22  1  0
 24 23  1  0
 25 24  1  1
 25 26  1  0
 26 16  1  0
 27 25  1  0
 28 27  1  0
 29 27  2  0
M  END
$$$$
