CFR.pdb
     RDKit          3D

 29 29  0  0  1  0  0  0  0  0999 V2000
   30.5024  -22.1811  -11.2072 N   0  0  0  0  0  0  0  0  0  0  0  0
   29.8918  -20.8815  -11.0063 C   0  0  1  0  0  0  0  0  0  0  0  0
   29.7125  -20.2539  -12.3748 C   0  0  0  0  0  0  0  0  0  0  0  0
   31.1253  -19.1640  -12.6667 S   0  0  0  0  0  0  0  0  0  0  0  0
   28.5932  -21.0970  -10.3186 C   0  0  0  0  0  0  0  0  0  0  0  0
   27.9479  -22.1407  -10.5925 O   0  0  0  0  0  0  0  0  0  0  0  0
   28.0607  -20.1946   -9.3854 N   0  0  0  0  0  0  0  0  0  0  0  0
   26.7108  -20.3671   -8.8048 C   0  0  1  0  0  0  0  0  0  0  0  0
   26.6523  -19.6929   -7.4909 C   0  0  0  0  0  0  0  0  0  0  0  0
   27.6217  -20.0881   -6.4745 C   0  0  0  0  0  0  0  0  0  0  0  0
   28.2102  -21.3175   -6.3422 C   0  0  0  0  0  0  0  0  0  0  0  0
   29.1004  -21.5502   -5.3108 C   0  0  0  0  0  0  0  0  0  0  0  0
   29.4400  -20.5916   -4.3836 C   0  0  0  0  0  0  0  0  0  0  0  0
   28.8577  -19.3506   -4.5034 C   0  0  0  0  0  0  0  0  0  0  0  0
   27.9734  -19.1207   -5.5277 C   0  0  0  0  0  0  0  0  0  0  0  0
   25.7130  -19.9329   -9.7945 C   0  0  0  0  0  0  0  0  0  0  0  0
   25.6025  -18.6850  -10.0890 O   0  0  0  0  0  0  0  0  0  0  0  0
   25.3109  -24.5515  -16.3370 N   0  0  0  0  0  0  0  0  0  0  0  0
   24.7542  -25.2242  -15.2050 C   0  0  0  0  0  0  0  0  0  0  0  0
   24.6216  -26.5009  -15.2538 N   0  0  0  0  0  0  0  0  0  0  0  0
   24.3735  -24.4503  -14.0772 N   0  0  0  0  0  0  0  0  0  0  0  0
   24.6026  -23.0275  -14.1090 C   0  0  0  0  0  0  0  0  0  0  0  0
   24.1115  -22.4170  -12.7913 C   0  0  0  0  0  0  0  0  0  0  0  0
   24.3631  -20.9438  -12.8192 C   0  0  0  0  0  0  0  0  0  0  0  0
   23.9663  -20.3290  -11.4842 C   0  0  2  0  0  0  0  0  0  0  0  0
   24.8692  -20.8537  -10.4489 N   0  0  0  0  0  0  0  0  0  0  0  0
   22.5761  -20.6471  -11.1711 C   0  0  0  0  0  0  0  0  0  0  0  0
   21.4800  -20.1813  -11.8713 O   0  0  0  0  0  0  0  0  0  0  0  0
   22.3184  -21.3975  -10.1934 O   0  0  0  0  0  0  0  0  0  0  0  0
  2  3  1  0
  2  1  1  6
  4  3  1  0
  5  2  1  0
  6  5  2  0
  7  5  1  0
  8  7  1  0
  9 10  1  0
  8  9  1  1
 10 15  2  0
 11 12  2  0
 11 10  1  0
 12 13  1  0
 13 14  2  0
 15 14  1  0
 16  8  1  0
 16 17  2  0
 19 20  2  0
 19 18  1  0
 21 19  1  0
 22 21  1  0
 23 22  1  0
 24 23  1  0
 25 24  1  6
 25 26  1  0
 26 16  1  0
 27 25  1  0
 28 27  1  0
 29 27  2  0
M  END
$$$$
