CFR.pdb
     RDKit          3D

 29 29  0  0  1  0  0  0  0  0999 V2000
   20.2011  -28.2398  -11.5426 N   0  0  0  0  0  0  0  0  0  0  0  0
   18.9047  -28.0079  -10.9361 C   0  0  1  0  0  0  0  0  0  0  0  0
   18.3673  -29.3559  -10.4972 C   0  0  0  0  0  0  0  0  0  0  0  0
   19.6644  -30.1781   -9.5429 S   0  0  0  0  0  0  0  0  0  0  0  0
   19.1046  -27.0879   -9.7874 C   0  0  0  0  0  0  0  0  0  0  0  0
   20.2752  -26.9292   -9.3568 O   0  0  0  0  0  0  0  0  0  0  0  0
   18.0534  -26.3951   -9.1680 N   0  0  0  0  0  0  0  0  0  0  0  0
   18.2901  -25.3786   -8.1193 C   0  0  1  0  0  0  0  0  0  0  0  0
   17.5912  -24.1279   -8.4820 C   0  0  0  0  0  0  0  0  0  0  0  0
   17.8957  -23.5231   -9.7744 C   0  0  0  0  0  0  0  0  0  0  0  0
   17.7727  -24.1165  -11.0025 C   0  0  0  0  0  0  0  0  0  0  0  0
   18.1207  -23.4201  -12.1445 C   0  0  0  0  0  0  0  0  0  0  0  0
   18.5963  -22.1290  -12.1190 C   0  0  0  0  0  0  0  0  0  0  0  0
   18.7251  -21.5184  -10.8926 C   0  0  0  0  0  0  0  0  0  0  0  0
   18.3796  -22.2110   -9.7590 C   0  0  0  0  0  0  0  0  0  0  0  0
   17.9363  -25.9568   -6.8139 C   0  0  0  0  0  0  0  0  0  0  0  0
   17.2336  -27.0334   -6.7584 O   0  0  0  0  0  0  0  0  0  0  0  0
   12.8635  -23.6912   -3.1615 N   0  0  0  0  0  0  0  0  0  0  0  0
   13.6604  -23.0204   -2.1823 C   0  0  0  0  0  0  0  0  0  0  0  0
   13.0728  -22.4960   -1.1675 N   0  0  0  0  0  0  0  0  0  0  0  0
   15.0658  -22.9645   -2.3756 N   0  0  0  0  0  0  0  0  0  0  0  0
   15.6280  -23.6118   -3.5344 C   0  0  0  0  0  0  0  0  0  0  0  0
   15.6679  -25.1241   -3.2866 C   0  0  0  0  0  0  0  0  0  0  0  0
   16.2454  -25.7949   -4.4911 C   0  0  0  0  0  0  0  0  0  0  0  0
   17.7600  -25.8737   -4.3593 C   0  0  2  0  0  0  0  0  0  0  0  0
   18.3577  -25.3678   -5.6041 N   0  0  0  0  0  0  0  0  0  0  0  0
   18.1773  -27.2495   -4.1043 C   0  0  0  0  0  0  0  0  0  0  0  0
   18.9007  -27.6666   -3.0037 O   0  0  0  0  0  0  0  0  0  0  0  0
   17.8757  -28.1506   -4.9304 O   0  0  0  0  0  0  0  0  0  0  0  0
  2  3  1  0
  2  1  1  1
  4  3  1  0
  5  2  1  0
  6  5  2  0
  7  5  1  0
  8  7  1  0
  9 10  1  0
  8  9  1  6
 10 15  2  0
 11 12  2  0
 11 10  1  0
 12 13  1  0
 13 14  2  0
 15 14  1  0
 16  8  1  0
 16 17  2  0
 19 20  2  0
 19 18  1  0
 21 19  1  0
 22 21  1  0
 23 22  1  0
 24 23  1  0
 25 24  1  6
 25 26  1  0
 26 16  1  0
 27 25  1  0
 28 27  1  0
 29 27  2  0
M  END
$$$$
