CFR.pdb
     RDKit          3D

 29 29  0  0  1  0  0  0  0  0999 V2000
   20.0558  -19.9181  -12.6933 N   0  0  0  0  0  0  0  0  0  0  0  0
   20.9273  -21.0735  -12.6053 C   0  0  1  0  0  0  0  0  0  0  0  0
   20.4942  -22.0453  -13.6854 C   0  0  0  0  0  0  0  0  0  0  0  0
   19.5945  -23.3919  -12.8816 S   0  0  0  0  0  0  0  0  0  0  0  0
   22.3208  -20.6012  -12.8081 C   0  0  0  0  0  0  0  0  0  0  0  0
   22.5277  -19.7453  -13.7055 O   0  0  0  0  0  0  0  0  0  0  0  0
   23.4057  -21.0648  -12.0486 N   0  0  0  0  0  0  0  0  0  0  0  0
   24.8009  -20.6739  -12.3481 C   0  0  1  0  0  0  0  0  0  0  0  0
   25.6351  -20.8731  -11.1445 C   0  0  0  0  0  0  0  0  0  0  0  0
   27.0823  -20.7528  -11.2865 C   0  0  0  0  0  0  0  0  0  0  0  0
   28.0245  -21.6236  -10.8078 C   0  0  0  0  0  0  0  0  0  0  0  0
   29.3679  -21.3649  -11.0042 C   0  0  0  0  0  0  0  0  0  0  0  0
   29.8268  -20.2526  -11.6721 C   0  0  0  0  0  0  0  0  0  0  0  0
   28.8924  -19.3681  -12.1599 C   0  0  0  0  0  0  0  0  0  0  0  0
   27.5585  -19.6257  -11.9640 C   0  0  0  0  0  0  0  0  0  0  0  0
   25.2400  -21.3848  -13.5587 C   0  0  0  0  0  0  0  0  0  0  0  0
   25.2281  -22.6712  -13.5870 O   0  0  0  0  0  0  0  0  0  0  0  0
   22.5234  -17.5851  -16.7856 N   0  0  0  0  0  0  0  0  0  0  0  0
   22.5225  -18.0261  -18.1455 C   0  0  0  0  0  0  0  0  0  0  0  0
   22.1194  -17.2126  -19.0542 N   0  0  0  0  0  0  0  0  0  0  0  0
   22.9676  -19.3438  -18.4304 N   0  0  0  0  0  0  0  0  0  0  0  0
   23.4284  -20.1661  -17.3399 C   0  0  0  0  0  0  0  0  0  0  0  0
   24.9600  -20.2224  -17.3745 C   0  0  0  0  0  0  0  0  0  0  0  0
   25.4020  -21.5855  -16.9490 C   0  0  0  0  0  0  0  0  0  0  0  0
   26.3436  -21.4724  -15.7581 C   0  0  2  0  0  0  0  0  0  0  0  0
   25.6689  -20.6925  -14.7098 N   0  0  0  0  0  0  0  0  0  0  0  0
   27.5941  -20.8331  -16.1576 C   0  0  0  0  0  0  0  0  0  0  0  0
   27.9361  -19.5227  -15.8848 O   0  0  0  0  0  0  0  0  0  0  0  0
   28.4481  -21.4949  -16.8042 O   0  0  0  0  0  0  0  0  0  0  0  0
  2  3  1  0
  2  1  1  6
  4  3  1  0
  5  2  1  0
  6  5  2  0
  7  5  1  0
  8  7  1  0
  9 10  1  0
  8  9  1  1
 10 15  2  0
 11 12  2  0
 11 10  1  0
 12 13  1  0
 13 14  2  0
 15 14  1  0
 16  8  1  0
 16 17  2  0
 19 20  2  0
 19 18  1  0
 21 19  1  0
 22 21  1  0
 23 22  1  0
 24 23  1  0
 25 24  1  6
 25 26  1  0
 26 16  1  0
 27 25  1  0
 28 27  1  0
 29 27  2  0
M  END
$$$$
