CFR.pdb
     RDKit          3D

 29 29  0  0  1  0  0  0  0  0999 V2000
   27.9777  -20.7194  -17.5063 N   0  0  0  0  0  0  0  0  0  0  0  0
   27.6504  -22.1201  -17.3246 C   0  0  1  0  0  0  0  0  0  0  0  0
   28.9491  -22.8983  -17.4050 C   0  0  0  0  0  0  0  0  0  0  0  0
   29.9415  -22.1719  -18.7304 S   0  0  0  0  0  0  0  0  0  0  0  0
   26.9990  -22.2604  -15.9972 C   0  0  0  0  0  0  0  0  0  0  0  0
   26.6881  -23.4166  -15.6131 O   0  0  0  0  0  0  0  0  0  0  0  0
   26.7184  -21.1688  -15.1616 N   0  0  0  0  0  0  0  0  0  0  0  0
   26.0634  -21.3327  -13.8451 C   0  0  1  0  0  0  0  0  0  0  0  0
   26.7957  -20.5450  -12.8315 C   0  0  0  0  0  0  0  0  0  0  0  0
   26.2921  -20.5536  -11.4621 C   0  0  0  0  0  0  0  0  0  0  0  0
   26.6082  -21.4560  -10.4819 C   0  0  0  0  0  0  0  0  0  0  0  0
   26.0326  -21.3467   -9.2301 C   0  0  0  0  0  0  0  0  0  0  0  0
   25.1357  -20.3559   -8.9018 C   0  0  0  0  0  0  0  0  0  0  0  0
   24.8081  -19.4407   -9.8758 C   0  0  0  0  0  0  0  0  0  0  0  0
   25.3800  -19.5504  -11.1188 C   0  0  0  0  0  0  0  0  0  0  0  0
   24.6326  -21.0229  -13.9886 C   0  0  0  0  0  0  0  0  0  0  0  0
   24.2640  -19.9944  -14.6685 O   0  0  0  0  0  0  0  0  0  0  0  0
   16.9877  -24.4832  -11.9898 N   0  0  0  0  0  0  0  0  0  0  0  0
   18.3003  -25.0221  -11.8149 C   0  0  0  0  0  0  0  0  0  0  0  0
   18.4322  -26.2957  -11.7122 N   0  0  0  0  0  0  0  0  0  0  0  0
   19.3994  -24.1248  -11.7632 N   0  0  0  0  0  0  0  0  0  0  0  0
   19.1442  -22.7138  -11.9113 C   0  0  0  0  0  0  0  0  0  0  0  0
   20.4819  -21.9651  -11.9045 C   0  0  0  0  0  0  0  0  0  0  0  0
   21.3389  -22.4989  -13.0067 C   0  0  0  0  0  0  0  0  0  0  0  0
   22.2403  -21.3935  -13.5387 C   0  0  2  0  0  0  0  0  0  0  0  0
   23.6370  -21.8343  -13.4068 N   0  0  0  0  0  0  0  0  0  0  0  0
   22.0147  -20.1541  -12.8005 C   0  0  0  0  0  0  0  0  0  0  0  0
   21.2270  -19.1056  -13.2350 O   0  0  0  0  0  0  0  0  0  0  0  0
   22.5667  -19.9920  -11.6805 O   0  0  0  0  0  0  0  0  0  0  0  0
  2  3  1  0
  2  1  1  1
  4  3  1  0
  5  2  1  0
  6  5  2  0
  7  5  1  0
  8  7  1  0
  9 10  1  0
  8  9  1  1
 10 15  2  0
 11 12  2  0
 11 10  1  0
 12 13  1  0
 13 14  2  0
 15 14  1  0
 16  8  1  0
 16 17  2  0
 19 20  2  0
 19 18  1  0
 21 19  1  0
 22 21  1  0
 23 22  1  0
 24 23  1  0
 25 24  1  1
 25 26  1  0
 26 16  1  0
 27 25  1  0
 28 27  1  0
 29 27  2  0
M  END
$$$$
