CFR.pdb
     RDKit          3D

 29 29  0  0  1  0  0  0  0  0999 V2000
   26.9350  -22.9045  -17.1273 N   0  0  0  0  0  0  0  0  0  0  0  0
   26.0247  -21.8364  -16.7629 C   0  0  1  0  0  0  0  0  0  0  0  0
   24.7972  -21.9739  -17.6421 C   0  0  0  0  0  0  0  0  0  0  0  0
   23.6290  -20.6819  -17.1572 S   0  0  0  0  0  0  0  0  0  0  0  0
   25.6983  -21.9964  -15.3228 C   0  0  0  0  0  0  0  0  0  0  0  0
   25.6181  -23.1641  -14.8635 O   0  0  0  0  0  0  0  0  0  0  0  0
   25.4778  -20.9111  -14.4614 N   0  0  0  0  0  0  0  0  0  0  0  0
   25.1952  -21.0939  -13.0207 C   0  0  1  0  0  0  0  0  0  0  0  0
   25.9720  -20.1086  -12.2397 C   0  0  0  0  0  0  0  0  0  0  0  0
   25.8290  -20.1193  -10.7877 C   0  0  0  0  0  0  0  0  0  0  0  0
   24.7980  -19.5805  -10.0651 C   0  0  0  0  0  0  0  0  0  0  0  0
   24.8104  -19.6512   -8.6849 C   0  0  0  0  0  0  0  0  0  0  0  0
   25.8263  -20.2487   -7.9744 C   0  0  0  0  0  0  0  0  0  0  0  0
   26.8694  -20.7956   -8.6860 C   0  0  0  0  0  0  0  0  0  0  0  0
   26.8563  -20.7244  -10.0567 C   0  0  0  0  0  0  0  0  0  0  0  0
   23.7383  -21.0686  -12.8191 C   0  0  0  0  0  0  0  0  0  0  0  0
   23.0006  -20.3223  -13.5640 O   0  0  0  0  0  0  0  0  0  0  0  0
   18.4735  -24.9595   -7.0208 N   0  0  0  0  0  0  0  0  0  0  0  0
   17.7976  -24.9674   -8.2805 C   0  0  0  0  0  0  0  0  0  0  0  0
   16.7641  -25.7177   -8.4176 N   0  0  0  0  0  0  0  0  0  0  0  0
   18.2992  -24.1449   -9.3233 N   0  0  0  0  0  0  0  0  0  0  0  0
   19.3533  -23.2105   -9.0171 C   0  0  0  0  0  0  0  0  0  0  0  0
   19.7498  -22.4727  -10.3011 C   0  0  0  0  0  0  0  0  0  0  0  0
   21.2381  -22.5051  -10.4357 C   0  0  0  0  0  0  0  0  0  0  0  0
   21.6619  -21.6983  -11.6552 C   0  0  2  0  0  0  0  0  0  0  0  0
   23.1136  -21.8553  -11.8297 N   0  0  0  0  0  0  0  0  0  0  0  0
   21.3084  -20.2922  -11.4825 C   0  0  0  0  0  0  0  0  0  0  0  0
   22.0531  -19.3697  -10.7730 O   0  0  0  0  0  0  0  0  0  0  0  0
   20.2496  -19.8521  -12.0028 O   0  0  0  0  0  0  0  0  0  0  0  0
  2  3  1  0
  2  1  1  6
  4  3  1  0
  5  2  1  0
  6  5  2  0
  7  5  1  0
  8  7  1  0
  9 10  1  0
  8  9  1  1
 10 15  2  0
 11 12  2  0
 11 10  1  0
 12 13  1  0
 13 14  2  0
 15 14  1  0
 16  8  1  0
 16 17  2  0
 19 20  2  0
 19 18  1  0
 21 19  1  0
 22 21  1  0
 23 22  1  0
 24 23  1  0
 25 24  1  1
 25 26  1  0
 26 16  1  0
 27 25  1  0
 28 27  1  0
 29 27  2  0
M  END
$$$$
