CFR.pdb
     RDKit          3D

 29 29  0  0  1  0  0  0  0  0999 V2000
   29.0598  -22.6030  -18.1264 N   0  0  0  0  0  0  0  0  0  0  0  0
   28.7698  -21.3322  -17.4915 C   0  0  1  0  0  0  0  0  0  0  0  0
   28.0244  -20.4849  -18.5040 C   0  0  0  0  0  0  0  0  0  0  0  0
   26.8029  -21.5452  -19.3119 S   0  0  0  0  0  0  0  0  0  0  0  0
   27.9480  -21.6098  -16.2859 C   0  0  0  0  0  0  0  0  0  0  0  0
   27.4073  -22.7408  -16.1895 O   0  0  0  0  0  0  0  0  0  0  0  0
   27.7512  -20.6733  -15.2598 N   0  0  0  0  0  0  0  0  0  0  0  0
   26.8886  -20.9551  -14.0912 C   0  0  1  0  0  0  0  0  0  0  0  0
   27.3865  -20.2018  -12.9212 C   0  0  0  0  0  0  0  0  0  0  0  0
   26.5954  -20.2384  -11.6957 C   0  0  0  0  0  0  0  0  0  0  0  0
   25.4923  -19.4778  -11.4134 C   0  0  0  0  0  0  0  0  0  0  0  0
   24.8551  -19.6102  -10.1941 C   0  0  0  0  0  0  0  0  0  0  0  0
   25.2757  -20.4868   -9.2202 C   0  0  0  0  0  0  0  0  0  0  0  0
   26.3826  -21.2590   -9.4889 C   0  0  0  0  0  0  0  0  0  0  0  0
   27.0149  -21.1263  -10.6999 C   0  0  0  0  0  0  0  0  0  0  0  0
   25.4887  -20.7055  -14.4675 C   0  0  0  0  0  0  0  0  0  0  0  0
   25.1858  -19.6610  -15.1553 O   0  0  0  0  0  0  0  0  0  0  0  0
   18.0855  -23.8114  -13.0493 N   0  0  0  0  0  0  0  0  0  0  0  0
   18.7110  -24.8925  -13.7449 C   0  0  0  0  0  0  0  0  0  0  0  0
   18.2664  -26.0827  -13.5560 N   0  0  0  0  0  0  0  0  0  0  0  0
   19.7954  -24.6015  -14.6138 N   0  0  0  0  0  0  0  0  0  0  0  0
   21.0957  -24.3663  -14.0377 C   0  0  0  0  0  0  0  0  0  0  0  0
   21.3195  -22.8542  -13.9206 C   0  0  0  0  0  0  0  0  0  0  0  0
   22.3377  -22.4378  -14.9326 C   0  0  0  0  0  0  0  0  0  0  0  0
   23.0771  -21.2017  -14.4396 C   0  0  2  0  0  0  0  0  0  0  0  0
   24.4545  -21.5922  -14.1037 N   0  0  0  0  0  0  0  0  0  0  0  0
   22.3999  -20.6340  -13.2772 C   0  0  0  0  0  0  0  0  0  0  0  0
   21.2448  -19.8776  -13.3247 O   0  0  0  0  0  0  0  0  0  0  0  0
   22.8782  -20.8250  -12.1282 O   0  0  0  0  0  0  0  0  0  0  0  0
  2  3  1  0
  2  1  1  6
  4  3  1  0
  5  2  1  0
  6  5  2  0
  7  5  1  0
  8  7  1  0
  9 10  1  0
  8  9  1  1
 10 15  2  0
 11 12  2  0
 11 10  1  0
 12 13  1  0
 13 14  2  0
 15 14  1  0
 16  8  1  0
 16 17  2  0
 19 20  2  0
 19 18  1  0
 21 19  1  0
 22 21  1  0
 23 22  1  0
 24 23  1  0
 25 24  1  1
 25 26  1  0
 26 16  1  0
 27 25  1  0
 28 27  1  0
 29 27  2  0
M  END
$$$$
