FCN.pdb
     RDKit          3D

 26 26  0  0  1  0  0  0  0  0999 V2000
    6.7421  -14.0549   23.6988 N   0  0  0  0  0  0  0  0  0  0  0  0
    7.7431  -14.9516   23.2208 C   0  0  1  0  0  0  0  0  0  0  0  0
    8.7918  -14.3524   22.3442 C   0  0  0  0  0  0  0  0  0  0  0  0
    8.1398  -13.8451   21.1105 C   0  0  0  0  0  0  0  0  0  0  0  0
    7.7194  -14.7002   20.1114 C   0  0  0  0  0  0  0  0  0  0  0  0
    7.1214  -14.2531   18.9570 C   0  0  0  0  0  0  0  0  0  0  0  0
    6.9320  -12.9034   18.7824 C   0  0  0  0  0  0  0  0  0  0  0  0
    7.3409  -12.0068   19.7633 C   0  0  0  0  0  0  0  0  0  0  0  0
    7.9435  -12.4945   20.9234 C   0  0  0  0  0  0  0  0  0  0  0  0
    8.2931  -15.7907   24.3283 C   0  0  0  0  0  0  0  0  0  0  0  0
    8.3932  -15.2615   25.4592 O   0  0  0  0  0  0  0  0  0  0  0  0
    8.6935  -17.1216   24.1545 N   0  0  0  0  0  0  0  0  0  0  0  0
    9.2359  -17.9651   25.1664 C   0  0  1  0  0  0  0  0  0  0  0  0
    8.1928  -18.8384   25.8270 C   0  0  0  0  0  0  0  0  0  0  0  0
    6.6628  -17.8681   26.0911 S   0  0  0  0  0  0  0  0  0  0  0  0
   10.2651  -18.8837   24.5765 C   0  0  0  0  0  0  0  0  0  0  0  0
    9.9073  -19.9196   23.9706 O   0  0  0  0  0  0  0  0  0  0  0  0
   15.1753  -18.9017   21.6197 N   0  0  0  0  0  0  0  0  0  0  0  0
   14.2327  -18.3010   22.4901 C   0  0  0  0  0  0  0  0  0  0  0  0
   14.5480  -17.2257   23.0715 O   0  0  0  0  0  0  0  0  0  0  0  0
   12.9282  -18.9018   22.7121 C   0  0  0  0  0  0  0  0  0  0  0  0
   12.7009  -19.4466   24.1024 C   0  0  2  0  0  0  0  0  0  0  0  0
   11.6497  -18.6199   24.6820 N   0  0  0  0  0  0  0  0  0  0  0  0
   13.9935  -19.2140   24.8483 C   0  0  0  0  0  0  0  0  0  0  0  0
   15.0065  -19.8768   24.5159 O   0  0  0  0  0  0  0  0  0  0  0  0
   14.0879  -18.3058   25.8714 O   0  0  0  0  0  0  0  0  0  0  0  0
  2  1  1  1
  3  2  1  0
  4  9  2  0
  4  3  1  0
  5  4  1  0
  6  7  1  0
  6  5  2  0
  7  8  2  0
  8  9  1  0
 10  2  1  0
 10 11  2  0
 12 13  1  0
 12 10  1  0
 13 14  1  6
 15 14  1  0
 16 17  2  0
 16 13  1  0
 19 21  1  0
 19 18  1  0
 20 19  2  0
 22 21  1  6
 22 23  1  0
 23 16  1  0
 24 22  1  0
 24 26  1  0
 25 24  2  0
M  END
$$$$
