FCN.pdb
     RDKit          3D

 26 26  0  0  1  0  0  0  0  0999 V2000
    6.9899  -16.3331   26.1255 N   0  0  0  0  0  0  0  0  0  0  0  0
    7.3399  -15.4958   25.0250 C   0  0  1  0  0  0  0  0  0  0  0  0
    8.2586  -14.3610   25.3342 C   0  0  0  0  0  0  0  0  0  0  0  0
    7.5345  -13.3907   26.1937 C   0  0  0  0  0  0  0  0  0  0  0  0
    6.3385  -12.8262   25.7972 C   0  0  0  0  0  0  0  0  0  0  0  0
    5.6548  -11.9193   26.5719 C   0  0  0  0  0  0  0  0  0  0  0  0
    6.1760  -11.5542   27.7897 C   0  0  0  0  0  0  0  0  0  0  0  0
    7.3784  -12.0979   28.2277 C   0  0  0  0  0  0  0  0  0  0  0  0
    8.0459  -13.0166   27.4169 C   0  0  0  0  0  0  0  0  0  0  0  0
    7.7608  -16.3042   23.8408 C   0  0  0  0  0  0  0  0  0  0  0  0
    8.1168  -17.4874   24.0460 O   0  0  0  0  0  0  0  0  0  0  0  0
    7.7725  -15.7997   22.5341 N   0  0  0  0  0  0  0  0  0  0  0  0
    8.6101  -16.2545   21.4753 C   0  0  1  0  0  0  0  0  0  0  0  0
    8.3784  -15.5099   20.1796 C   0  0  0  0  0  0  0  0  0  0  0  0
    6.5871  -15.1965   19.9675 S   0  0  0  0  0  0  0  0  0  0  0  0
   10.0530  -16.0613   21.8385 C   0  0  0  0  0  0  0  0  0  0  0  0
   10.3684  -15.2647   22.7519 O   0  0  0  0  0  0  0  0  0  0  0  0
   12.9860  -17.2979   24.6675 N   0  0  0  0  0  0  0  0  0  0  0  0
   11.9662  -18.1160   24.1220 C   0  0  0  0  0  0  0  0  0  0  0  0
   11.1093  -18.6140   24.9038 O   0  0  0  0  0  0  0  0  0  0  0  0
   11.8995  -18.3788   22.6942 C   0  0  0  0  0  0  0  0  0  0  0  0
   12.3147  -17.2269   21.8097 C   0  0  2  0  0  0  0  0  0  0  0  0
   11.0896  -16.7566   21.1754 N   0  0  0  0  0  0  0  0  0  0  0  0
   13.2265  -17.8234   20.7638 C   0  0  0  0  0  0  0  0  0  0  0  0
   14.4082  -17.4064   20.6887 O   0  0  0  0  0  0  0  0  0  0  0  0
   12.8000  -18.7997   19.9005 O   0  0  0  0  0  0  0  0  0  0  0  0
  2  1  1  1
  3  2  1  0
  4  9  2  0
  4  3  1  0
  5  4  1  0
  6  7  1  0
  6  5  2  0
  7  8  2  0
  8  9  1  0
 10  2  1  0
 10 11  2  0
 12 13  1  0
 12 10  1  0
 13 14  1  6
 15 14  1  0
 16 17  2  0
 16 13  1  0
 19 21  1  0
 19 18  1  0
 20 19  2  0
 22 21  1  1
 22 23  1  0
 23 16  1  0
 24 22  1  0
 24 26  1  0
 25 24  2  0
M  END
$$$$
