FCN.pdb
     RDKit          3D

 26 26  0  0  1  0  0  0  0  0999 V2000
    6.5947  -17.1208   26.1663 N   0  0  0  0  0  0  0  0  0  0  0  0
    7.2498  -16.1219   25.3868 C   0  0  1  0  0  0  0  0  0  0  0  0
    8.3533  -15.3824   26.0670 C   0  0  0  0  0  0  0  0  0  0  0  0
    7.8482  -14.0433   26.4623 C   0  0  0  0  0  0  0  0  0  0  0  0
    8.3832  -13.3567   27.5339 C   0  0  0  0  0  0  0  0  0  0  0  0
    7.9261  -12.1200   27.9238 C   0  0  0  0  0  0  0  0  0  0  0  0
    6.8959  -11.5381   27.2253 C   0  0  0  0  0  0  0  0  0  0  0  0
    6.3275  -12.1951   26.1396 C   0  0  0  0  0  0  0  0  0  0  0  0
    6.8163  -13.4486   25.7701 C   0  0  0  0  0  0  0  0  0  0  0  0
    7.6192  -16.6437   24.0362 C   0  0  0  0  0  0  0  0  0  0  0  0
    7.6650  -17.8868   23.8897 O   0  0  0  0  0  0  0  0  0  0  0  0
    7.9109  -15.8122   22.9474 N   0  0  0  0  0  0  0  0  0  0  0  0
    8.2742  -16.2502   21.6413 C   0  0  1  0  0  0  0  0  0  0  0  0
    7.9527  -15.2340   20.5685 C   0  0  0  0  0  0  0  0  0  0  0  0
    6.1713  -14.8169   20.6370 S   0  0  0  0  0  0  0  0  0  0  0  0
    9.7514  -16.5045   21.5738 C   0  0  0  0  0  0  0  0  0  0  0  0
   10.3109  -16.6597   20.4642 O   0  0  0  0  0  0  0  0  0  0  0  0
   14.8151  -16.6830   22.7447 N   0  0  0  0  0  0  0  0  0  0  0  0
   14.0837  -15.6802   22.0619 C   0  0  0  0  0  0  0  0  0  0  0  0
   14.7204  -14.8158   21.3977 O   0  0  0  0  0  0  0  0  0  0  0  0
   12.6320  -15.6419   22.1177 C   0  0  0  0  0  0  0  0  0  0  0  0
   11.9821  -16.8510   22.7480 C   0  0  2  0  0  0  0  0  0  0  0  0
   10.5503  -16.5783   22.7374 N   0  0  0  0  0  0  0  0  0  0  0  0
   12.4781  -16.8841   24.1741 C   0  0  0  0  0  0  0  0  0  0  0  0
   11.7551  -16.3894   25.0733 O   0  0  0  0  0  0  0  0  0  0  0  0
   13.6884  -17.4347   24.5091 O   0  0  0  0  0  0  0  0  0  0  0  0
  2  1  1  1
  3  2  1  0
  4  9  2  0
  4  3  1  0
  5  4  1  0
  6  7  1  0
  6  5  2  0
  7  8  2  0
  8  9  1  0
 10  2  1  0
 10 11  2  0
 12 13  1  0
 12 10  1  0
 13 14  1  6
 15 14  1  0
 16 17  2  0
 16 13  1  0
 19 21  1  0
 19 18  1  0
 20 19  2  0
 22 21  1  6
 22 23  1  0
 23 16  1  0
 24 22  1  0
 24 26  1  0
 25 24  2  0
M  END
$$$$
