FCN.pdb
     RDKit          3D

 26 26  0  0  1  0  0  0  0  0999 V2000
    7.1647  -16.2392   26.0038 N   0  0  0  0  0  0  0  0  0  0  0  0
    6.9404  -15.5986   24.7492 C   0  0  1  0  0  0  0  0  0  0  0  0
    7.5574  -14.2497   24.5852 C   0  0  0  0  0  0  0  0  0  0  0  0
    7.2381  -13.4374   25.7862 C   0  0  0  0  0  0  0  0  0  0  0  0
    5.9666  -12.9482   26.0105 C   0  0  0  0  0  0  0  0  0  0  0  0
    5.6494  -12.1868   27.1105 C   0  0  0  0  0  0  0  0  0  0  0  0
    6.6310  -11.8958   28.0269 C   0  0  0  0  0  0  0  0  0  0  0  0
    7.9254  -12.3680   27.8397 C   0  0  0  0  0  0  0  0  0  0  0  0
    8.2128  -13.1390   26.7128 C   0  0  0  0  0  0  0  0  0  0  0  0
    7.2126  -16.5266   23.6100 C   0  0  0  0  0  0  0  0  0  0  0  0
    6.3712  -17.4265   23.3841 O   0  0  0  0  0  0  0  0  0  0  0  0
    8.3512  -16.4312   22.7997 N   0  0  0  0  0  0  0  0  0  0  0  0
    8.3879  -15.9030   21.4772 C   0  0  1  0  0  0  0  0  0  0  0  0
    7.5115  -14.6825   21.3057 C   0  0  0  0  0  0  0  0  0  0  0  0
    7.4849  -14.1930   19.5417 S   0  0  0  0  0  0  0  0  0  0  0  0
    9.7865  -15.4899   21.1244 C   0  0  0  0  0  0  0  0  0  0  0  0
   10.0675  -15.1697   19.9468 O   0  0  0  0  0  0  0  0  0  0  0  0
   11.2020  -16.9703   25.6329 N   0  0  0  0  0  0  0  0  0  0  0  0
   11.9631  -16.4864   24.5405 C   0  0  0  0  0  0  0  0  0  0  0  0
   12.6603  -15.4468   24.7043 O   0  0  0  0  0  0  0  0  0  0  0  0
   11.9490  -17.1676   23.2568 C   0  0  0  0  0  0  0  0  0  0  0  0
   12.0273  -16.2630   22.0496 C   0  0  2  0  0  0  0  0  0  0  0  0
   10.8188  -15.4490   22.0889 N   0  0  0  0  0  0  0  0  0  0  0  0
   11.9789  -17.1788   20.8495 C   0  0  0  0  0  0  0  0  0  0  0  0
   11.1136  -18.0879   20.8221 O   0  0  0  0  0  0  0  0  0  0  0  0
   12.8495  -17.0448   19.7986 O   0  0  0  0  0  0  0  0  0  0  0  0
  2  1  1  1
  3  2  1  0
  4  9  2  0
  4  3  1  0
  5  4  1  0
  6  7  1  0
  6  5  2  0
  7  8  2  0
  8  9  1  0
 10  2  1  0
 10 11  2  0
 12 13  1  0
 12 10  1  0
 13 14  1  1
 15 14  1  0
 16 17  2  0
 16 13  1  0
 19 21  1  0
 19 18  1  0
 20 19  2  0
 22 21  1  1
 22 23  1  0
 23 16  1  0
 24 22  1  0
 24 26  1  0
 25 24  2  0
M  END
$$$$
