FCN.pdb
     RDKit          3D

 26 26  0  0  1  0  0  0  0  0999 V2000
    8.8423  -16.8271   21.9044 N   0  0  0  0  0  0  0  0  0  0  0  0
    9.5296  -15.7221   22.4886 C   0  0  1  0  0  0  0  0  0  0  0  0
    8.6803  -14.5609   22.8857 C   0  0  0  0  0  0  0  0  0  0  0  0
    8.1427  -13.9287   21.6546 C   0  0  0  0  0  0  0  0  0  0  0  0
    8.9424  -13.1695   20.8238 C   0  0  0  0  0  0  0  0  0  0  0  0
    8.4650  -12.5675   19.6837 C   0  0  0  0  0  0  0  0  0  0  0  0
    7.1407  -12.7217   19.3514 C   0  0  0  0  0  0  0  0  0  0  0  0
    6.2997  -13.4778   20.1604 C   0  0  0  0  0  0  0  0  0  0  0  0
    6.8171  -14.0760   21.3098 C   0  0  0  0  0  0  0  0  0  0  0  0
   10.4701  -16.1727   23.5589 C   0  0  0  0  0  0  0  0  0  0  0  0
   11.1595  -15.2959   24.1289 O   0  0  0  0  0  0  0  0  0  0  0  0
   10.6082  -17.5126   23.9427 N   0  0  0  0  0  0  0  0  0  0  0  0
   11.5600  -18.0158   24.8758 C   0  0  1  0  0  0  0  0  0  0  0  0
   11.0885  -19.2678   25.5810 C   0  0  0  0  0  0  0  0  0  0  0  0
   12.3056  -19.7405   26.8645 S   0  0  0  0  0  0  0  0  0  0  0  0
   12.8383  -18.3654   24.1723 C   0  0  0  0  0  0  0  0  0  0  0  0
   12.8197  -19.1319   23.1821 O   0  0  0  0  0  0  0  0  0  0  0  0
   17.4387  -16.1727   21.7494 N   0  0  0  0  0  0  0  0  0  0  0  0
   17.2703  -16.8316   22.9921 C   0  0  0  0  0  0  0  0  0  0  0  0
   18.2517  -17.4570   23.4814 O   0  0  0  0  0  0  0  0  0  0  0  0
   15.9995  -16.7909   23.6961 C   0  0  0  0  0  0  0  0  0  0  0  0
   15.3627  -18.1370   23.9489 C   0  0  2  0  0  0  0  0  0  0  0  0
   14.0866  -17.8537   24.5937 N   0  0  0  0  0  0  0  0  0  0  0  0
   16.2743  -18.8430   24.9244 C   0  0  0  0  0  0  0  0  0  0  0  0
   16.7144  -19.9789   24.6212 O   0  0  0  0  0  0  0  0  0  0  0  0
   16.6296  -18.2804   26.1234 O   0  0  0  0  0  0  0  0  0  0  0  0
  2  1  1  1
  3  2  1  0
  4  9  2  0
  4  3  1  0
  5  4  1  0
  6  7  1  0
  6  5  2  0
  7  8  2  0
  8  9  1  0
 10  2  1  0
 10 11  2  0
 12 13  1  0
 12 10  1  0
 13 14  1  6
 15 14  1  0
 16 17  2  0
 16 13  1  0
 19 21  1  0
 19 18  1  0
 20 19  2  0
 22 21  1  1
 22 23  1  0
 23 16  1  0
 24 22  1  0
 24 26  1  0
 25 24  2  0
M  END
$$$$
