FCN.pdb
     RDKit          3D

 26 26  0  0  1  0  0  0  0  0999 V2000
    9.6416  -15.5415   21.8583 N   0  0  0  0  0  0  0  0  0  0  0  0
    9.0368  -14.9002   22.9797 C   0  0  1  0  0  0  0  0  0  0  0  0
    7.5461  -14.8318   22.9672 C   0  0  0  0  0  0  0  0  0  0  0  0
    7.1065  -13.9497   24.0777 C   0  0  0  0  0  0  0  0  0  0  0  0
    6.4454  -14.4516   25.1809 C   0  0  0  0  0  0  0  0  0  0  0  0
    6.0213  -13.6533   26.2168 C   0  0  0  0  0  0  0  0  0  0  0  0
    6.2601  -12.3014   26.1591 C   0  0  0  0  0  0  0  0  0  0  0  0
    6.9224  -11.7538   25.0660 C   0  0  0  0  0  0  0  0  0  0  0  0
    7.3402  -12.5928   24.0325 C   0  0  0  0  0  0  0  0  0  0  0  0
    9.6044  -15.4073   24.2657 C   0  0  0  0  0  0  0  0  0  0  0  0
   10.0350  -16.5834   24.2833 O   0  0  0  0  0  0  0  0  0  0  0  0
    9.6726  -14.6330   25.4310 N   0  0  0  0  0  0  0  0  0  0  0  0
   10.3954  -14.9701   26.6114 C   0  0  1  0  0  0  0  0  0  0  0  0
   10.0918  -14.0485   27.7714 C   0  0  0  0  0  0  0  0  0  0  0  0
   10.9209  -14.6723   29.2799 S   0  0  0  0  0  0  0  0  0  0  0  0
   10.0437  -16.3600   27.0536 C   0  0  0  0  0  0  0  0  0  0  0  0
    8.8545  -16.6524   27.3161 O   0  0  0  0  0  0  0  0  0  0  0  0
   11.9162  -19.2428   24.3152 N   0  0  0  0  0  0  0  0  0  0  0  0
   11.0631  -19.6460   25.3718 C   0  0  0  0  0  0  0  0  0  0  0  0
    9.8888  -20.0151   25.0918 O   0  0  0  0  0  0  0  0  0  0  0  0
   11.5230  -19.6403   26.7504 C   0  0  0  0  0  0  0  0  0  0  0  0
   10.7635  -18.7198   27.6763 C   0  0  2  0  0  0  0  0  0  0  0  0
   11.0223  -17.3707   27.1891 N   0  0  0  0  0  0  0  0  0  0  0  0
   11.3974  -18.8947   29.0360 C   0  0  0  0  0  0  0  0  0  0  0  0
   11.2564  -19.9928   29.6278 O   0  0  0  0  0  0  0  0  0  0  0  0
   12.1159  -17.8928   29.6362 O   0  0  0  0  0  0  0  0  0  0  0  0
  2  1  1  6
  3  2  1  0
  4  9  2  0
  4  3  1  0
  5  4  1  0
  6  7  1  0
  6  5  2  0
  7  8  2  0
  8  9  1  0
 10  2  1  0
 10 11  2  0
 12 13  1  0
 12 10  1  0
 13 14  1  1
 15 14  1  0
 16 17  2  0
 16 13  1  0
 19 21  1  0
 19 18  1  0
 20 19  2  0
 22 21  1  6
 22 23  1  0
 23 16  1  0
 24 22  1  0
 24 26  1  0
 25 24  2  0
M  END
$$$$
