FCN.pdb
     RDKit          3D

 26 26  0  0  1  0  0  0  0  0999 V2000
    8.2228  -14.5012   22.2360 N   0  0  0  0  0  0  0  0  0  0  0  0
    8.0116  -15.0495   23.5357 C   0  0  1  0  0  0  0  0  0  0  0  0
    6.6439  -14.8705   24.1055 C   0  0  0  0  0  0  0  0  0  0  0  0
    6.6369  -13.6377   24.9329 C   0  0  0  0  0  0  0  0  0  0  0  0
    6.6161  -12.3823   24.3587 C   0  0  0  0  0  0  0  0  0  0  0  0
    6.6181  -11.2269   25.1040 C   0  0  0  0  0  0  0  0  0  0  0  0
    6.6428  -11.3165   26.4749 C   0  0  0  0  0  0  0  0  0  0  0  0
    6.6648  -12.5611   27.0945 C   0  0  0  0  0  0  0  0  0  0  0  0
    6.6610  -13.7136   26.3082 C   0  0  0  0  0  0  0  0  0  0  0  0
    8.5196  -16.4522   23.6217 C   0  0  0  0  0  0  0  0  0  0  0  0
    7.8614  -17.3421   23.0353 O   0  0  0  0  0  0  0  0  0  0  0  0
    9.6818  -16.8045   24.3196 N   0  0  0  0  0  0  0  0  0  0  0  0
   10.0913  -18.1320   24.6355 C   0  0  1  0  0  0  0  0  0  0  0  0
   11.5402  -18.3986   24.2939 C   0  0  0  0  0  0  0  0  0  0  0  0
   11.9473  -20.1416   24.6791 S   0  0  0  0  0  0  0  0  0  0  0  0
    9.9352  -18.3846   26.1061 C   0  0  0  0  0  0  0  0  0  0  0  0
   10.2619  -17.5018   26.9322 O   0  0  0  0  0  0  0  0  0  0  0  0
    6.5165  -19.6030   27.3536 N   0  0  0  0  0  0  0  0  0  0  0  0
    6.9765  -20.9045   27.6717 C   0  0  0  0  0  0  0  0  0  0  0  0
    6.1590  -21.8646   27.6129 O   0  0  0  0  0  0  0  0  0  0  0  0
    8.3586  -21.1380   28.0557 C   0  0  0  0  0  0  0  0  0  0  0  0
    9.2500  -19.9193   28.0166 C   0  0  2  0  0  0  0  0  0  0  0  0
    9.4250  -19.6050   26.6042 N   0  0  0  0  0  0  0  0  0  0  0  0
   10.5706  -20.3607   28.6018 C   0  0  0  0  0  0  0  0  0  0  0  0
   11.4850  -20.7180   27.8194 O   0  0  0  0  0  0  0  0  0  0  0  0
   10.7942  -20.3821   29.9546 O   0  0  0  0  0  0  0  0  0  0  0  0
  2  1  1  6
  3  2  1  0
  4  9  2  0
  4  3  1  0
  5  4  1  0
  6  7  1  0
  6  5  2  0
  7  8  2  0
  8  9  1  0
 10  2  1  0
 10 11  2  0
 12 13  1  0
 12 10  1  0
 13 14  1  1
 15 14  1  0
 16 17  2  0
 16 13  1  0
 19 21  1  0
 19 18  1  0
 20 19  2  0
 22 21  1  6
 22 23  1  0
 23 16  1  0
 24 22  1  0
 24 26  1  0
 25 24  2  0
M  END
$$$$
