FCN.pdb
     RDKit          3D

 26 26  0  0  1  0  0  0  0  0999 V2000
    9.5765  -18.5209   27.5548 N   0  0  0  0  0  0  0  0  0  0  0  0
    8.7071  -17.8550   26.6409 C   0  0  1  0  0  0  0  0  0  0  0  0
    8.0194  -16.6377   27.1630 C   0  0  0  0  0  0  0  0  0  0  0  0
    9.0468  -15.7151   27.7089 C   0  0  0  0  0  0  0  0  0  0  0  0
    9.3445  -14.5175   27.0898 C   0  0  0  0  0  0  0  0  0  0  0  0
   10.2975  -13.6516   27.5717 C   0  0  0  0  0  0  0  0  0  0  0  0
   10.9860  -13.9842   28.7133 C   0  0  0  0  0  0  0  0  0  0  0  0
   10.7181  -15.1811   29.3683 C   0  0  0  0  0  0  0  0  0  0  0  0
    9.7438  -16.0364   28.8528 C   0  0  0  0  0  0  0  0  0  0  0  0
    9.3666  -17.6509   25.3156 C   0  0  0  0  0  0  0  0  0  0  0  0
   10.4315  -18.2735   25.0982 O   0  0  0  0  0  0  0  0  0  0  0  0
    8.8500  -16.8060   24.3251 N   0  0  0  0  0  0  0  0  0  0  0  0
    9.4158  -16.5952   23.0347 C   0  0  1  0  0  0  0  0  0  0  0  0
    8.5764  -15.6868   22.1645 C   0  0  0  0  0  0  0  0  0  0  0  0
    6.9414  -16.4584   21.8754 S   0  0  0  0  0  0  0  0  0  0  0  0
   10.7663  -15.9538   23.1612 C   0  0  0  0  0  0  0  0  0  0  0  0
   10.9413  -15.0154   23.9718 O   0  0  0  0  0  0  0  0  0  0  0  0
   16.0444  -17.1692   24.4735 N   0  0  0  0  0  0  0  0  0  0  0  0
   15.0966  -16.1535   24.1965 C   0  0  0  0  0  0  0  0  0  0  0  0
   15.4683  -14.9485   24.2570 O   0  0  0  0  0  0  0  0  0  0  0  0
   13.7250  -16.4832   23.8469 C   0  0  0  0  0  0  0  0  0  0  0  0
   13.2346  -15.8923   22.5462 C   0  0  2  0  0  0  0  0  0  0  0  0
   11.8692  -16.3758   22.3845 N   0  0  0  0  0  0  0  0  0  0  0  0
   14.1111  -16.4891   21.4707 C   0  0  0  0  0  0  0  0  0  0  0  0
   15.0099  -15.7747   20.9630 O   0  0  0  0  0  0  0  0  0  0  0  0
   13.9508  -17.7802   21.0372 O   0  0  0  0  0  0  0  0  0  0  0  0
  2  1  1  1
  3  2  1  0
  4  9  2  0
  4  3  1  0
  5  4  1  0
  6  7  1  0
  6  5  2  0
  7  8  2  0
  8  9  1  0
 10  2  1  0
 10 11  2  0
 12 13  1  0
 12 10  1  0
 13 14  1  6
 15 14  1  0
 16 17  2  0
 16 13  1  0
 19 21  1  0
 19 18  1  0
 20 19  2  0
 22 21  1  1
 22 23  1  0
 23 16  1  0
 24 22  1  0
 24 26  1  0
 25 24  2  0
M  END
$$$$
