FCN.pdb
     RDKit          3D

 26 26  0  0  1  0  0  0  0  0999 V2000
    9.4439  -13.2752   22.8174 N   0  0  0  0  0  0  0  0  0  0  0  0
    9.3996  -14.6962   22.7020 C   0  0  1  0  0  0  0  0  0  0  0  0
    9.3331  -15.2367   21.3124 C   0  0  0  0  0  0  0  0  0  0  0  0
    8.3456  -14.4376   20.5439 C   0  0  0  0  0  0  0  0  0  0  0  0
    8.7414  -13.5426   19.5700 C   0  0  0  0  0  0  0  0  0  0  0  0
    7.8461  -12.7857   18.8518 C   0  0  0  0  0  0  0  0  0  0  0  0
    6.5027  -12.9184   19.1081 C   0  0  0  0  0  0  0  0  0  0  0  0
    6.0604  -13.8079   20.0810 C   0  0  0  0  0  0  0  0  0  0  0  0
    6.9960  -14.5616   20.7906 C   0  0  0  0  0  0  0  0  0  0  0  0
   10.4480  -15.3422   23.5485 C   0  0  0  0  0  0  0  0  0  0  0  0
   11.6452  -15.1002   23.2703 O   0  0  0  0  0  0  0  0  0  0  0  0
   10.1500  -16.1920   24.6213 N   0  0  0  0  0  0  0  0  0  0  0  0
   10.9688  -16.4009   25.7682 C   0  0  1  0  0  0  0  0  0  0  0  0
   11.0732  -15.1758   26.6487 C   0  0  0  0  0  0  0  0  0  0  0  0
    9.4165  -14.4210   26.8432 S   0  0  0  0  0  0  0  0  0  0  0  0
   10.4004  -17.5010   26.6154 C   0  0  0  0  0  0  0  0  0  0  0  0
    9.4242  -17.2736   27.3662 O   0  0  0  0  0  0  0  0  0  0  0  0
   11.9170  -21.4575   24.7463 N   0  0  0  0  0  0  0  0  0  0  0  0
   11.0051  -21.4598   25.8305 C   0  0  0  0  0  0  0  0  0  0  0  0
    9.8157  -21.8255   25.6178 O   0  0  0  0  0  0  0  0  0  0  0  0
   11.4227  -21.0540   27.1621 C   0  0  0  0  0  0  0  0  0  0  0  0
   10.7882  -19.7824   27.6737 C   0  0  2  0  0  0  0  0  0  0  0  0
   10.9360  -18.8089   26.5990 N   0  0  0  0  0  0  0  0  0  0  0  0
   11.6241  -19.3568   28.8574 C   0  0  0  0  0  0  0  0  0  0  0  0
   11.5815  -20.0499   29.9032 O   0  0  0  0  0  0  0  0  0  0  0  0
   12.4207  -18.2413   28.8200 O   0  0  0  0  0  0  0  0  0  0  0  0
  2  1  1  6
  3  2  1  0
  4  9  2  0
  4  3  1  0
  5  4  1  0
  6  7  1  0
  6  5  2  0
  7  8  2  0
  8  9  1  0
 10  2  1  0
 10 11  2  0
 12 13  1  0
 12 10  1  0
 13 14  1  1
 15 14  1  0
 16 17  2  0
 16 13  1  0
 19 21  1  0
 19 18  1  0
 20 19  2  0
 22 21  1  6
 22 23  1  0
 23 16  1  0
 24 22  1  0
 24 26  1  0
 25 24  2  0
M  END
$$$$
