FCN.pdb
     RDKit          3D

 26 26  0  0  1  0  0  0  0  0999 V2000
    8.0753  -15.6524   25.7665 N   0  0  0  0  0  0  0  0  0  0  0  0
    6.9413  -15.8808   24.9319 C   0  0  1  0  0  0  0  0  0  0  0  0
    6.1888  -14.6646   24.5054 C   0  0  0  0  0  0  0  0  0  0  0  0
    6.5284  -13.5534   25.4297 C   0  0  0  0  0  0  0  0  0  0  0  0
    7.6612  -12.7848   25.2503 C   0  0  0  0  0  0  0  0  0  0  0  0
    8.0006  -11.7568   26.0978 C   0  0  0  0  0  0  0  0  0  0  0  0
    7.1861  -11.4776   27.1686 C   0  0  0  0  0  0  0  0  0  0  0  0
    6.0355  -12.2272   27.3870 C   0  0  0  0  0  0  0  0  0  0  0  0
    5.7201  -13.2627   26.5067 C   0  0  0  0  0  0  0  0  0  0  0  0
    7.2733  -16.8072   23.8073 C   0  0  0  0  0  0  0  0  0  0  0  0
    6.3182  -17.3131   23.1743 O   0  0  0  0  0  0  0  0  0  0  0  0
    8.5868  -17.1261   23.4401 N   0  0  0  0  0  0  0  0  0  0  0  0
    9.3087  -16.5520   22.3542 C   0  0  1  0  0  0  0  0  0  0  0  0
    8.7209  -15.2402   21.8841 C   0  0  0  0  0  0  0  0  0  0  0  0
    9.6781  -14.6211   20.4514 S   0  0  0  0  0  0  0  0  0  0  0  0
   10.7249  -16.2744   22.7646 C   0  0  0  0  0  0  0  0  0  0  0  0
   11.5877  -16.0058   21.8975 O   0  0  0  0  0  0  0  0  0  0  0  0
    9.7394  -19.4686   25.8858 N   0  0  0  0  0  0  0  0  0  0  0  0
   10.8406  -18.5819   25.9742 C   0  0  0  0  0  0  0  0  0  0  0  0
   10.9885  -17.9069   27.0308 O   0  0  0  0  0  0  0  0  0  0  0  0
   11.7855  -18.4482   24.8781 C   0  0  0  0  0  0  0  0  0  0  0  0
   12.2805  -17.0437   24.6254 C   0  0  2  0  0  0  0  0  0  0  0  0
   11.1301  -16.3064   24.1182 N   0  0  0  0  0  0  0  0  0  0  0  0
   13.3198  -17.1670   23.5365 C   0  0  0  0  0  0  0  0  0  0  0  0
   12.9820  -16.9200   22.3529 O   0  0  0  0  0  0  0  0  0  0  0  0
   14.6118  -17.5401   23.8049 O   0  0  0  0  0  0  0  0  0  0  0  0
  2  1  1  6
  3  2  1  0
  4  9  2  0
  4  3  1  0
  5  4  1  0
  6  7  1  0
  6  5  2  0
  7  8  2  0
  8  9  1  0
 10  2  1  0
 10 11  2  0
 12 13  1  0
 12 10  1  0
 13 14  1  1
 15 14  1  0
 16 17  2  0
 16 13  1  0
 19 21  1  0
 19 18  1  0
 20 19  2  0
 22 21  1  6
 22 23  1  0
 23 16  1  0
 24 22  1  0
 24 26  1  0
 25 24  2  0
M  END
$$$$
