FCN.pdb
     RDKit          3D

 26 26  0  0  1  0  0  0  0  0999 V2000
    6.7819  -16.5066   25.4584 N   0  0  0  0  0  0  0  0  0  0  0  0
    7.6050  -15.8509   24.4955 C   0  0  1  0  0  0  0  0  0  0  0  0
    7.0402  -14.6085   23.8915 C   0  0  0  0  0  0  0  0  0  0  0  0
    6.9304  -13.5771   24.9539 C   0  0  0  0  0  0  0  0  0  0  0  0
    7.8276  -12.5314   25.0413 C   0  0  0  0  0  0  0  0  0  0  0  0
    7.7512  -11.5699   26.0211 C   0  0  0  0  0  0  0  0  0  0  0  0
    6.7458  -11.6461   26.9546 C   0  0  0  0  0  0  0  0  0  0  0  0
    5.8209  -12.6832   26.9039 C   0  0  0  0  0  0  0  0  0  0  0  0
    5.9269  -13.6416   25.8955 C   0  0  0  0  0  0  0  0  0  0  0  0
    9.0044  -15.6936   24.9954 C   0  0  0  0  0  0  0  0  0  0  0  0
    9.9117  -15.5629   24.1416 O   0  0  0  0  0  0  0  0  0  0  0  0
    9.3354  -15.6865   26.3564 N   0  0  0  0  0  0  0  0  0  0  0  0
   10.6367  -15.8979   26.8962 C   0  0  1  0  0  0  0  0  0  0  0  0
   10.7841  -15.3657   28.3041 C   0  0  0  0  0  0  0  0  0  0  0  0
   10.3909  -13.5776   28.3249 S   0  0  0  0  0  0  0  0  0  0  0  0
   10.9417  -17.3660   26.9498 C   0  0  0  0  0  0  0  0  0  0  0  0
   10.0971  -18.1653   27.4149 O   0  0  0  0  0  0  0  0  0  0  0  0
   12.2342  -19.8382   23.5067 N   0  0  0  0  0  0  0  0  0  0  0  0
   13.2579  -19.1300   24.1831 C   0  0  0  0  0  0  0  0  0  0  0  0
   13.8328  -18.1802   23.5823 O   0  0  0  0  0  0  0  0  0  0  0  0
   13.6419  -19.4814   25.5400 C   0  0  0  0  0  0  0  0  0  0  0  0
   12.5645  -19.2910   26.5813 C   0  0  2  0  0  0  0  0  0  0  0  0
   12.1699  -17.8910   26.4877 N   0  0  0  0  0  0  0  0  0  0  0  0
   13.2350  -19.5374   27.9121 C   0  0  0  0  0  0  0  0  0  0  0  0
   13.5591  -20.7123   28.2131 O   0  0  0  0  0  0  0  0  0  0  0  0
   13.4954  -18.5195   28.7932 O   0  0  0  0  0  0  0  0  0  0  0  0
  2  1  1  1
  3  2  1  0
  4  9  2  0
  4  3  1  0
  5  4  1  0
  6  7  1  0
  6  5  2  0
  7  8  2  0
  8  9  1  0
 10  2  1  0
 10 11  2  0
 12 13  1  0
 12 10  1  0
 13 14  1  1
 15 14  1  0
 16 17  2  0
 16 13  1  0
 19 21  1  0
 19 18  1  0
 20 19  2  0
 22 21  1  6
 22 23  1  0
 23 16  1  0
 24 22  1  0
 24 26  1  0
 25 24  2  0
M  END
$$$$
