FCN.pdb
     RDKit          3D

 26 26  0  0  1  0  0  0  0  0999 V2000
    5.5032  -17.4910   25.0974 N   0  0  0  0  0  0  0  0  0  0  0  0
    6.5145  -16.4852   25.0940 C   0  0  1  0  0  0  0  0  0  0  0  0
    7.0553  -16.0982   26.4301 C   0  0  0  0  0  0  0  0  0  0  0  0
    7.0568  -14.6165   26.5255 C   0  0  0  0  0  0  0  0  0  0  0  0
    5.9055  -13.9097   26.8104 C   0  0  0  0  0  0  0  0  0  0  0  0
    5.8808  -12.5376   26.8952 C   0  0  0  0  0  0  0  0  0  0  0  0
    7.0432  -11.8347   26.6886 C   0  0  0  0  0  0  0  0  0  0  0  0
    8.2254  -12.5069   26.3987 C   0  0  0  0  0  0  0  0  0  0  0  0
    8.2154  -13.8999   26.3212 C   0  0  0  0  0  0  0  0  0  0  0  0
    7.5720  -16.7827   24.0809 C   0  0  0  0  0  0  0  0  0  0  0  0
    8.0424  -17.9435   24.0605 O   0  0  0  0  0  0  0  0  0  0  0  0
    8.0491  -15.8318   23.1699 N   0  0  0  0  0  0  0  0  0  0  0  0
    9.0925  -16.0392   22.2222 C   0  0  1  0  0  0  0  0  0  0  0  0
    8.9943  -15.1181   21.0268 C   0  0  0  0  0  0  0  0  0  0  0  0
    7.9990  -13.6468   21.4701 S   0  0  0  0  0  0  0  0  0  0  0  0
   10.4271  -15.7873   22.8598 C   0  0  0  0  0  0  0  0  0  0  0  0
   10.4906  -15.2633   23.9954 O   0  0  0  0  0  0  0  0  0  0  0  0
   13.1728  -17.2562   26.0984 N   0  0  0  0  0  0  0  0  0  0  0  0
   12.3090  -17.4719   24.9965 C   0  0  0  0  0  0  0  0  0  0  0  0
   11.0685  -17.5651   25.2115 O   0  0  0  0  0  0  0  0  0  0  0  0
   12.8314  -17.5819   23.6448 C   0  0  0  0  0  0  0  0  0  0  0  0
   12.9234  -16.2800   22.8846 C   0  0  2  0  0  0  0  0  0  0  0  0
   11.6386  -16.1241   22.2143 N   0  0  0  0  0  0  0  0  0  0  0  0
   14.0079  -16.4851   21.8536 C   0  0  0  0  0  0  0  0  0  0  0  0
   13.6721  -16.7104   20.6651 O   0  0  0  0  0  0  0  0  0  0  0  0
   15.3388  -16.4334   22.1798 O   0  0  0  0  0  0  0  0  0  0  0  0
  2  1  1  1
  3  2  1  0
  4  9  2  0
  4  3  1  0
  5  4  1  0
  6  7  1  0
  6  5  2  0
  7  8  2  0
  8  9  1  0
 10  2  1  0
 10 11  2  0
 12 13  1  0
 12 10  1  0
 13 14  1  6
 15 14  1  0
 16 17  2  0
 16 13  1  0
 19 21  1  0
 19 18  1  0
 20 19  2  0
 22 21  1  1
 22 23  1  0
 23 16  1  0
 24 22  1  0
 24 26  1  0
 25 24  2  0
M  END
$$$$
