FQI.pdb
     RDKit          3D

 29 29  0  0  1  0  0  0  0  0999 V2000
    5.6769  -16.7451   24.6762 N   0  0  0  0  0  0  0  0  0  0  0  0
    6.9039  -16.0305   24.5300 C   0  0  1  0  0  0  0  0  0  0  0  0
    7.2110  -15.1424   25.7179 C   0  0  0  0  0  0  0  0  0  0  0  0
    6.7364  -13.7532   25.5189 C   0  0  0  0  0  0  0  0  0  0  0  0
    5.6025  -13.3043   26.1674 C   0  0  0  0  0  0  0  0  0  0  0  0
    5.1220  -12.0208   26.0141 C   0  0  0  0  0  0  0  0  0  0  0  0
    5.7731  -11.1260   25.1905 C   0  0  0  0  0  0  0  0  0  0  0  0
    6.9058  -11.5735   24.5423 C   0  0  0  0  0  0  0  0  0  0  0  0
    7.3877  -12.8553   24.6939 C   0  0  0  0  0  0  0  0  0  0  0  0
    8.0810  -16.9123   24.3236 C   0  0  0  0  0  0  0  0  0  0  0  0
    8.0208  -18.0509   24.8512 O   0  0  0  0  0  0  0  0  0  0  0  0
   13.5178  -16.8155   20.3612 N   0  0  0  0  0  0  0  0  0  0  0  0
   13.4378  -17.3930   21.6713 C   0  0  0  0  0  0  0  0  0  0  0  0
   14.4004  -17.2028   22.4271 O   0  0  0  0  0  0  0  0  0  0  0  0
   12.2428  -18.1758   22.0658 C   0  0  0  0  0  0  0  0  0  0  0  0
   10.9963  -17.3720   22.2025 C   0  0  0  0  0  0  0  0  0  0  0  0
   10.3576  -17.4775   23.5629 C   0  0  2  0  0  0  0  0  0  0  0  0
    9.2135  -16.5483   23.5955 N   0  0  0  0  0  0  0  0  0  0  0  0
   11.2047  -17.1032   24.6924 C   0  0  0  0  0  0  0  0  0  0  0  0
   11.9859  -16.0861   24.5757 O   0  0  0  0  0  0  0  0  0  0  0  0
   10.5702  -13.9523   28.9937 C   0  0  0  0  0  0  0  0  0  0  0  0
   11.5200  -15.0797   28.6486 C   0  0  0  0  0  0  0  0  0  0  0  0
   10.9360  -15.8378   27.4765 C   0  0  2  0  0  0  0  0  0  0  0  0
    9.5001  -16.2015   27.6822 C   0  0  0  0  0  0  0  0  0  0  0  0
   11.7629  -17.0582   27.1364 C   0  0  2  0  0  0  0  0  0  0  0  0
   11.2856  -17.7292   25.9551 N   0  0  0  0  0  0  0  0  0  0  0  0
   11.7219  -17.9973   28.2755 C   0  0  0  0  0  0  0  0  0  0  0  0
   12.2835  -17.6835   29.3485 O   0  0  0  0  0  0  0  0  0  0  0  0
   11.0712  -19.2309   28.1881 O   0  0  0  0  0  0  0  0  0  0  0  0
  2  3  1  0
  2  1  1  1
  4  3  1  0
  4  9  2  0
  5  4  1  0
  6  5  2  0
  6  7  1  0
  7  8  2  0
  8  9  1  0
 10  2  1  0
 11 10  2  0
 12 13  1  0
 13 15  1  0
 14 13  2  0
 16 15  1  0
 17 16  1  6
 17 18  1  0
 18 10  1  0
 19 17  1  0
 19 20  2  0
 21 22  1  0
 22 23  1  0
 23 25  1  0
 23 24  1  1
 25 26  1  6
 26 19  1  0
 27 25  1  0
 28 27  2  0
 29 27  1  0
M  END
$$$$
