FQI.pdb
     RDKit          3D

 29 29  0  0  1  0  0  0  0  0999 V2000
    5.5354  -17.1229   21.0306 N   0  0  0  0  0  0  0  0  0  0  0  0
    6.6414  -16.4946   21.6783 C   0  0  1  0  0  0  0  0  0  0  0  0
    6.4711  -14.9951   21.8078 C   0  0  0  0  0  0  0  0  0  0  0  0
    7.2128  -14.2527   20.7621 C   0  0  0  0  0  0  0  0  0  0  0  0
    6.5333  -13.4748   19.8450 C   0  0  0  0  0  0  0  0  0  0  0  0
    7.1791  -12.7657   18.8541 C   0  0  0  0  0  0  0  0  0  0  0  0
    8.5535  -12.8123   18.7458 C   0  0  0  0  0  0  0  0  0  0  0  0
    9.2330  -13.5890   19.6615 C   0  0  0  0  0  0  0  0  0  0  0  0
    8.5899  -14.2983   20.6523 C   0  0  0  0  0  0  0  0  0  0  0  0
    6.9101  -17.0263   23.0388 C   0  0  0  0  0  0  0  0  0  0  0  0
    5.9679  -16.9383   23.8652 O   0  0  0  0  0  0  0  0  0  0  0  0
    8.4177  -20.8556   21.6410 N   0  0  0  0  0  0  0  0  0  0  0  0
    9.0859  -20.7904   22.9080 C   0  0  0  0  0  0  0  0  0  0  0  0
   10.2819  -21.1115   22.9278 O   0  0  0  0  0  0  0  0  0  0  0  0
    8.3459  -20.3551   24.1161 C   0  0  0  0  0  0  0  0  0  0  0  0
    9.0197  -19.2821   24.8990 C   0  0  0  0  0  0  0  0  0  0  0  0
    8.3021  -17.9583   24.8484 C   0  0  2  0  0  0  0  0  0  0  0  0
    8.1196  -17.6001   23.4300 N   0  0  0  0  0  0  0  0  0  0  0  0
    9.0061  -16.8313   25.4546 C   0  0  0  0  0  0  0  0  0  0  0  0
   10.0115  -16.3180   24.8350 O   0  0  0  0  0  0  0  0  0  0  0  0
    6.8998  -12.3783   26.8746 C   0  0  0  0  0  0  0  0  0  0  0  0
    7.9271  -13.3721   26.3751 C   0  0  0  0  0  0  0  0  0  0  0  0
    8.6749  -13.9110   27.5751 C   0  0  2  0  0  0  0  0  0  0  0  0
    9.5006  -12.8670   28.2571 C   0  0  0  0  0  0  0  0  0  0  0  0
    9.5139  -15.1163   27.2118 C   0  0  2  0  0  0  0  0  0  0  0  0
    8.7200  -16.1942   26.6815 N   0  0  0  0  0  0  0  0  0  0  0  0
   10.2240  -15.5870   28.4181 C   0  0  0  0  0  0  0  0  0  0  0  0
   11.1534  -14.8956   28.8908 O   0  0  0  0  0  0  0  0  0  0  0  0
    9.8858  -16.7874   29.0487 O   0  0  0  0  0  0  0  0  0  0  0  0
  2  3  1  0
  2  1  1  1
  4  3  1  0
  4  9  2  0
  5  4  1  0
  6  5  2  0
  6  7  1  0
  7  8  2  0
  8  9  1  0
 10  2  1  0
 11 10  2  0
 12 13  1  0
 13 15  1  0
 14 13  2  0
 16 15  1  0
 17 16  1  6
 17 18  1  0
 18 10  1  0
 19 17  1  0
 19 20  2  0
 21 22  1  0
 22 23  1  0
 23 25  1  0
 23 24  1  6
 25 26  1  1
 26 19  1  0
 27 25  1  0
 28 27  2  0
 29 27  1  0
M  END
$$$$
