FQI.pdb
     RDKit          3D

 29 29  0  0  1  0  0  0  0  0999 V2000
    7.3715  -16.7620   20.7673 N   0  0  0  0  0  0  0  0  0  0  0  0
    8.3478  -16.0284   21.5064 C   0  0  1  0  0  0  0  0  0  0  0  0
    7.8948  -14.6229   21.8433 C   0  0  0  0  0  0  0  0  0  0  0  0
    7.7742  -13.7675   20.6397 C   0  0  0  0  0  0  0  0  0  0  0  0
    8.8715  -13.0782   20.1616 C   0  0  0  0  0  0  0  0  0  0  0  0
    8.8088  -12.2702   19.0459 C   0  0  0  0  0  0  0  0  0  0  0  0
    7.6225  -12.1221   18.3577 C   0  0  0  0  0  0  0  0  0  0  0  0
    6.5258  -12.8102   18.8346 C   0  0  0  0  0  0  0  0  0  0  0  0
    6.5861  -13.6180   19.9491 C   0  0  0  0  0  0  0  0  0  0  0  0
    8.7389  -16.6824   22.7812 C   0  0  0  0  0  0  0  0  0  0  0  0
    7.7983  -17.0294   23.5384 O   0  0  0  0  0  0  0  0  0  0  0  0
   13.4005  -20.4966   24.3354 N   0  0  0  0  0  0  0  0  0  0  0  0
   13.0219  -19.9698   25.6141 C   0  0  0  0  0  0  0  0  0  0  0  0
   13.5570  -20.4765   26.6096 O   0  0  0  0  0  0  0  0  0  0  0  0
   12.0319  -18.8703   25.7006 C   0  0  0  0  0  0  0  0  0  0  0  0
   11.5173  -18.3987   24.3848 C   0  0  0  0  0  0  0  0  0  0  0  0
   10.3083  -17.5066   24.4955 C   0  0  2  0  0  0  0  0  0  0  0  0
   10.0581  -16.9218   23.1655 N   0  0  0  0  0  0  0  0  0  0  0  0
   10.4369  -16.3740   25.4089 C   0  0  0  0  0  0  0  0  0  0  0  0
   11.2493  -15.4208   25.1095 O   0  0  0  0  0  0  0  0  0  0  0  0
    6.6720  -13.5441   28.2219 C   0  0  0  0  0  0  0  0  0  0  0  0
    7.6614  -14.6705   28.0111 C   0  0  0  0  0  0  0  0  0  0  0  0
    8.9857  -14.0578   27.6104 C   0  0  2  0  0  0  0  0  0  0  0  0
    8.8993  -13.2792   26.3364 C   0  0  0  0  0  0  0  0  0  0  0  0
   10.0807  -15.0991   27.5382 C   0  0  2  0  0  0  0  0  0  0  0  0
    9.7582  -16.1684   26.6295 N   0  0  0  0  0  0  0  0  0  0  0  0
   10.2980  -15.6601   28.8870 C   0  0  0  0  0  0  0  0  0  0  0  0
   10.6649  -14.9034   29.8133 O   0  0  0  0  0  0  0  0  0  0  0  0
   10.1047  -17.0172   29.1586 O   0  0  0  0  0  0  0  0  0  0  0  0
  2  3  1  0
  2  1  1  1
  4  3  1  0
  4  9  2  0
  5  4  1  0
  6  5  2  0
  6  7  1  0
  7  8  2  0
  8  9  1  0
 10  2  1  0
 11 10  2  0
 12 13  1  0
 13 15  1  0
 14 13  2  0
 16 15  1  0
 17 16  1  6
 17 18  1  0
 18 10  1  0
 19 17  1  0
 19 20  2  0
 21 22  1  0
 22 23  1  0
 23 25  1  0
 23 24  1  6
 25 26  1  6
 26 19  1  0
 27 25  1  0
 28 27  2  0
 29 27  1  0
M  END
$$$$
