FQI.pdb
     RDKit          3D

 29 29  0  0  1  0  0  0  0  0999 V2000
    6.5134  -18.2820   19.9226 N   0  0  0  0  0  0  0  0  0  0  0  0
    7.1120  -17.1107   20.4770 C   0  0  1  0  0  0  0  0  0  0  0  0
    6.2543  -15.8746   20.3025 C   0  0  0  0  0  0  0  0  0  0  0  0
    6.9546  -14.6399   20.7265 C   0  0  0  0  0  0  0  0  0  0  0  0
    6.8837  -14.2140   22.0385 C   0  0  0  0  0  0  0  0  0  0  0  0
    7.5181  -13.0721   22.4807 C   0  0  0  0  0  0  0  0  0  0  0  0
    8.2592  -12.3032   21.6074 C   0  0  0  0  0  0  0  0  0  0  0  0
    8.3305  -12.7280   20.2967 C   0  0  0  0  0  0  0  0  0  0  0  0
    7.6976  -13.8683   19.8527 C   0  0  0  0  0  0  0  0  0  0  0  0
    7.4196  -17.2323   21.9249 C   0  0  0  0  0  0  0  0  0  0  0  0
    6.4368  -17.4038   22.6886 O   0  0  0  0  0  0  0  0  0  0  0  0
   10.8026  -21.5950   25.3864 N   0  0  0  0  0  0  0  0  0  0  0  0
   11.2424  -20.2317   25.3219 C   0  0  0  0  0  0  0  0  0  0  0  0
   12.4656  -20.0376   25.3110 O   0  0  0  0  0  0  0  0  0  0  0  0
   10.2493  -19.1327   25.2730 C   0  0  0  0  0  0  0  0  0  0  0  0
    9.8486  -18.7241   23.8978 C   0  0  0  0  0  0  0  0  0  0  0  0
    8.9019  -17.5524   23.8694 C   0  0  2  0  0  0  0  0  0  0  0  0
    8.7059  -17.1672   22.4599 N   0  0  0  0  0  0  0  0  0  0  0  0
    9.3651  -16.3456   24.5495 C   0  0  0  0  0  0  0  0  0  0  0  0
   10.2913  -15.6380   24.0020 O   0  0  0  0  0  0  0  0  0  0  0  0
    6.4249  -12.4329   26.4855 C   0  0  0  0  0  0  0  0  0  0  0  0
    7.5211  -13.2563   25.8431 C   0  0  0  0  0  0  0  0  0  0  0  0
    8.4671  -13.7047   26.9356 C   0  0  2  0  0  0  0  0  0  0  0  0
    9.1103  -12.5581   27.6485 C   0  0  0  0  0  0  0  0  0  0  0  0
    9.5064  -14.6699   26.4092 C   0  0  2  0  0  0  0  0  0  0  0  0
    8.9132  -15.8211   25.7797 N   0  0  0  0  0  0  0  0  0  0  0  0
   10.3568  -15.1169   27.5308 C   0  0  0  0  0  0  0  0  0  0  0  0
   10.0988  -16.2001   28.1013 O   0  0  0  0  0  0  0  0  0  0  0  0
   11.4454  -14.3613   27.9745 O   0  0  0  0  0  0  0  0  0  0  0  0
  2  3  1  0
  2  1  1  1
  4  3  1  0
  4  9  2  0
  5  4  1  0
  6  5  2  0
  6  7  1  0
  7  8  2  0
  8  9  1  0
 10  2  1  0
 11 10  2  0
 12 13  1  0
 13 15  1  0
 14 13  2  0
 16 15  1  0
 17 16  1  6
 17 18  1  0
 18 10  1  0
 19 17  1  0
 19 20  2  0
 21 22  1  0
 22 23  1  0
 23 25  1  0
 23 24  1  6
 25 26  1  1
 26 19  1  0
 27 25  1  0
 28 27  2  0
 29 27  1  0
M  END
$$$$
