FQI.pdb
     RDKit          3D

 29 29  0  0  1  0  0  0  0  0999 V2000
    6.3675  -19.1217   23.3557 N   0  0  0  0  0  0  0  0  0  0  0  0
    6.7080  -17.8133   23.8137 C   0  0  1  0  0  0  0  0  0  0  0  0
    6.2713  -17.5591   25.2415 C   0  0  0  0  0  0  0  0  0  0  0  0
    6.4503  -16.1437   25.6407 C   0  0  0  0  0  0  0  0  0  0  0  0
    6.0560  -15.1257   24.7945 C   0  0  0  0  0  0  0  0  0  0  0  0
    6.2019  -13.7939   25.1215 C   0  0  0  0  0  0  0  0  0  0  0  0
    6.7582  -13.4293   26.3301 C   0  0  0  0  0  0  0  0  0  0  0  0
    7.1523  -14.4456   27.1759 C   0  0  0  0  0  0  0  0  0  0  0  0
    7.0076  -15.7767   26.8513 C   0  0  0  0  0  0  0  0  0  0  0  0
    8.1621  -17.5203   23.7392 C   0  0  0  0  0  0  0  0  0  0  0  0
    8.9311  -18.4113   24.1789 O   0  0  0  0  0  0  0  0  0  0  0  0
   11.4320  -17.1224   20.0884 N   0  0  0  0  0  0  0  0  0  0  0  0
   10.1636  -16.5256   19.7863 C   0  0  0  0  0  0  0  0  0  0  0  0
    9.5787  -16.9350   18.7743 O   0  0  0  0  0  0  0  0  0  0  0  0
    9.6113  -15.4697   20.6675 C   0  0  0  0  0  0  0  0  0  0  0  0
   10.3915  -15.2365   21.9146 C   0  0  0  0  0  0  0  0  0  0  0  0
   10.1501  -16.2748   22.9793 C   0  0  2  0  0  0  0  0  0  0  0  0
    8.6973  -16.3412   23.2211 N   0  0  0  0  0  0  0  0  0  0  0  0
   10.7566  -16.0029   24.2800 C   0  0  0  0  0  0  0  0  0  0  0  0
   12.0405  -15.9681   24.3741 O   0  0  0  0  0  0  0  0  0  0  0  0
    9.0953  -12.3639   27.8753 C   0  0  0  0  0  0  0  0  0  0  0  0
    9.9237  -13.2457   26.9651 C   0  0  0  0  0  0  0  0  0  0  0  0
   10.1132  -14.5790   27.6553 C   0  0  2  0  0  0  0  0  0  0  0  0
   10.8310  -14.4557   28.9615 C   0  0  0  0  0  0  0  0  0  0  0  0
   10.7973  -15.5805   26.7511 C   0  0  2  0  0  0  0  0  0  0  0  0
   10.0986  -15.7570   25.5044 N   0  0  0  0  0  0  0  0  0  0  0  0
   10.8768  -16.8797   27.4487 C   0  0  0  0  0  0  0  0  0  0  0  0
   11.6344  -16.9989   28.4371 O   0  0  0  0  0  0  0  0  0  0  0  0
   10.1268  -17.9837   27.0343 O   0  0  0  0  0  0  0  0  0  0  0  0
  2  3  1  0
  2  1  1  1
  4  3  1  0
  4  9  2  0
  5  4  1  0
  6  5  2  0
  6  7  1  0
  7  8  2  0
  8  9  1  0
 10  2  1  0
 11 10  2  0
 12 13  1  0
 13 15  1  0
 14 13  2  0
 16 15  1  0
 17 16  1  6
 17 18  1  0
 18 10  1  0
 19 17  1  0
 19 20  2  0
 21 22  1  0
 22 23  1  0
 23 25  1  0
 23 24  1  1
 25 26  1  6
 26 19  1  0
 27 25  1  0
 28 27  2  0
 29 27  1  0
M  END
$$$$
