FQI.pdb
     RDKit          3D

 29 29  0  0  1  0  0  0  0  0999 V2000
    5.4703  -17.4631   23.8412 N   0  0  0  0  0  0  0  0  0  0  0  0
    6.4427  -16.4913   24.2253 C   0  0  1  0  0  0  0  0  0  0  0  0
    6.2446  -15.9905   25.6409 C   0  0  0  0  0  0  0  0  0  0  0  0
    6.5906  -14.5571   25.7838 C   0  0  0  0  0  0  0  0  0  0  0  0
    5.7292  -13.6933   26.4316 C   0  0  0  0  0  0  0  0  0  0  0  0
    6.0071  -12.3518   26.5895 C   0  0  0  0  0  0  0  0  0  0  0  0
    7.1796  -11.8195   26.0945 C   0  0  0  0  0  0  0  0  0  0  0  0
    8.0406  -12.6816   25.4472 C   0  0  0  0  0  0  0  0  0  0  0  0
    7.7650  -14.0221   25.2883 C   0  0  0  0  0  0  0  0  0  0  0  0
    7.8410  -16.9813   24.1233 C   0  0  0  0  0  0  0  0  0  0  0  0
    8.0997  -18.0513   24.7288 O   0  0  0  0  0  0  0  0  0  0  0  0
   11.7904  -17.6998   19.8080 N   0  0  0  0  0  0  0  0  0  0  0  0
   12.7037  -17.6719   20.9131 C   0  0  0  0  0  0  0  0  0  0  0  0
   13.7767  -18.2732   20.7686 O   0  0  0  0  0  0  0  0  0  0  0  0
   12.3444  -16.9472   22.1550 C   0  0  0  0  0  0  0  0  0  0  0  0
   10.9304  -16.4824   22.2109 C   0  0  0  0  0  0  0  0  0  0  0  0
   10.2194  -16.8675   23.4822 C   0  0  2  0  0  0  0  0  0  0  0  0
    8.8481  -16.3312   23.4103 N   0  0  0  0  0  0  0  0  0  0  0  0
   10.7904  -16.3325   24.7156 C   0  0  0  0  0  0  0  0  0  0  0  0
   11.5213  -15.2739   24.6563 O   0  0  0  0  0  0  0  0  0  0  0  0
    9.2898  -12.9646   27.4870 C   0  0  0  0  0  0  0  0  0  0  0  0
   10.2627  -13.9419   26.8619 C   0  0  0  0  0  0  0  0  0  0  0  0
   10.3691  -15.1421   27.7772 C   0  0  2  0  0  0  0  0  0  0  0  0
   10.8280  -14.7793   29.1536 C   0  0  0  0  0  0  0  0  0  0  0  0
   11.2443  -16.2213   27.1789 C   0  0  2  0  0  0  0  0  0  0  0  0
   10.6407  -16.8368   26.0256 N   0  0  0  0  0  0  0  0  0  0  0  0
   11.4965  -17.2558   28.2023 C   0  0  0  0  0  0  0  0  0  0  0  0
   10.7464  -18.2555   28.2607 O   0  0  0  0  0  0  0  0  0  0  0  0
   12.5531  -17.1491   29.1107 O   0  0  0  0  0  0  0  0  0  0  0  0
  2  3  1  0
  2  1  1  1
  4  3  1  0
  4  9  2  0
  5  4  1  0
  6  5  2  0
  6  7  1  0
  7  8  2  0
  8  9  1  0
 10  2  1  0
 11 10  2  0
 12 13  1  0
 13 15  1  0
 14 13  2  0
 16 15  1  0
 17 16  1  6
 17 18  1  0
 18 10  1  0
 19 17  1  0
 19 20  2  0
 21 22  1  0
 22 23  1  0
 23 25  1  0
 23 24  1  1
 25 26  1  6
 26 19  1  0
 27 25  1  0
 28 27  2  0
 29 27  1  0
M  END
$$$$
