FQI.pdb
     RDKit          3D

 29 29  0  0  1  0  0  0  0  0999 V2000
    6.8046  -18.1132   20.5459 N   0  0  0  0  0  0  0  0  0  0  0  0
    7.4388  -16.9452   21.0665 C   0  0  1  0  0  0  0  0  0  0  0  0
    6.4626  -15.8201   21.3408 C   0  0  0  0  0  0  0  0  0  0  0  0
    7.0393  -14.4893   21.0389 C   0  0  0  0  0  0  0  0  0  0  0  0
    7.5049  -14.2029   19.7704 C   0  0  0  0  0  0  0  0  0  0  0  0
    8.0496  -12.9794   19.4412 C   0  0  0  0  0  0  0  0  0  0  0  0
    8.1485  -11.9822   20.3893 C   0  0  0  0  0  0  0  0  0  0  0  0
    7.6837  -12.2675   21.6566 C   0  0  0  0  0  0  0  0  0  0  0  0
    7.1392  -13.4890   21.9877 C   0  0  0  0  0  0  0  0  0  0  0  0
    8.1917  -17.1911   22.3229 C   0  0  0  0  0  0  0  0  0  0  0  0
    7.5934  -17.8523   23.2081 O   0  0  0  0  0  0  0  0  0  0  0  0
   14.1281  -18.5519   22.7344 N   0  0  0  0  0  0  0  0  0  0  0  0
   12.9947  -19.3505   22.3688 C   0  0  0  0  0  0  0  0  0  0  0  0
   13.2245  -20.4021   21.7561 O   0  0  0  0  0  0  0  0  0  0  0  0
   11.6267  -18.9047   22.7242 C   0  0  0  0  0  0  0  0  0  0  0  0
   11.5682  -17.5910   23.4235 C   0  0  0  0  0  0  0  0  0  0  0  0
   10.1706  -17.1675   23.7940 C   0  0  2  0  0  0  0  0  0  0  0  0
    9.4892  -16.7376   22.5594 N   0  0  0  0  0  0  0  0  0  0  0  0
   10.0729  -16.0378   24.7148 C   0  0  0  0  0  0  0  0  0  0  0  0
   10.5417  -14.8949   24.3513 O   0  0  0  0  0  0  0  0  0  0  0  0
    6.2945  -13.3069   26.5273 C   0  0  0  0  0  0  0  0  0  0  0  0
    7.6613  -13.7847   26.0850 C   0  0  0  0  0  0  0  0  0  0  0  0
    8.4069  -14.2623   27.3121 C   0  0  2  0  0  0  0  0  0  0  0  0
    8.6406  -13.1701   28.3067 C   0  0  0  0  0  0  0  0  0  0  0  0
    9.7037  -14.9481   26.9425 C   0  0  2  0  0  0  0  0  0  0  0  0
    9.5048  -16.0245   26.0070 N   0  0  0  0  0  0  0  0  0  0  0  0
   10.3292  -15.4829   28.1687 C   0  0  0  0  0  0  0  0  0  0  0  0
   10.7877  -14.6881   29.0193 O   0  0  0  0  0  0  0  0  0  0  0  0
   10.4238  -16.8567   28.4067 O   0  0  0  0  0  0  0  0  0  0  0  0
  2  3  1  0
  2  1  1  1
  4  3  1  0
  4  9  2  0
  5  4  1  0
  6  5  2  0
  6  7  1  0
  7  8  2  0
  8  9  1  0
 10  2  1  0
 11 10  2  0
 12 13  1  0
 13 15  1  0
 14 13  2  0
 16 15  1  0
 17 16  1  6
 17 18  1  0
 18 10  1  0
 19 17  1  0
 19 20  2  0
 21 22  1  0
 22 23  1  0
 23 25  1  0
 23 24  1  1
 25 26  1  6
 26 19  1  0
 27 25  1  0
 28 27  2  0
 29 27  1  0
M  END
$$$$
