FQI.pdb
     RDKit          3D

 29 29  0  0  1  0  0  0  0  0999 V2000
    5.8869  -18.2133   23.1106 N   0  0  0  0  0  0  0  0  0  0  0  0
    6.5839  -17.0254   23.4857 C   0  0  1  0  0  0  0  0  0  0  0  0
    5.8712  -16.2445   24.5703 C   0  0  0  0  0  0  0  0  0  0  0  0
    6.5069  -14.9313   24.8276 C   0  0  0  0  0  0  0  0  0  0  0  0
    6.6658  -14.0207   23.8013 C   0  0  0  0  0  0  0  0  0  0  0  0
    7.2511  -12.7866   23.9914 C   0  0  0  0  0  0  0  0  0  0  0  0
    7.7058  -12.4152   25.2397 C   0  0  0  0  0  0  0  0  0  0  0  0
    7.5475  -13.3241   26.2655 C   0  0  0  0  0  0  0  0  0  0  0  0
    6.9631  -14.5576   26.0779 C   0  0  0  0  0  0  0  0  0  0  0  0
    7.9681  -17.2770   23.9616 C   0  0  0  0  0  0  0  0  0  0  0  0
    8.1005  -18.1677   24.8377 O   0  0  0  0  0  0  0  0  0  0  0  0
   13.0497  -16.5926   20.4049 N   0  0  0  0  0  0  0  0  0  0  0  0
   13.5086  -17.3796   21.5122 C   0  0  0  0  0  0  0  0  0  0  0  0
   14.6494  -17.8544   21.4274 O   0  0  0  0  0  0  0  0  0  0  0  0
   12.6293  -17.5938   22.6858 C   0  0  0  0  0  0  0  0  0  0  0  0
   11.2689  -17.0020   22.5536 C   0  0  0  0  0  0  0  0  0  0  0  0
   10.4249  -17.1490   23.7929 C   0  0  2  0  0  0  0  0  0  0  0  0
    9.0917  -16.5936   23.4972 N   0  0  0  0  0  0  0  0  0  0  0  0
   10.9004  -16.4319   24.9733 C   0  0  0  0  0  0  0  0  0  0  0  0
   11.6161  -15.3734   24.8133 O   0  0  0  0  0  0  0  0  0  0  0  0
    8.9906  -14.2853   29.5221 C   0  0  0  0  0  0  0  0  0  0  0  0
    9.5046  -15.4699   28.7316 C   0  0  0  0  0  0  0  0  0  0  0  0
   10.8288  -15.0774   28.1135 C   0  0  2  0  0  0  0  0  0  0  0  0
   10.7139  -13.8947   27.2055 C   0  0  0  0  0  0  0  0  0  0  0  0
   11.4796  -16.2454   27.4056 C   0  0  2  0  0  0  0  0  0  0  0  0
   10.6688  -16.7515   26.3286 N   0  0  0  0  0  0  0  0  0  0  0  0
   11.7149  -17.3272   28.3830 C   0  0  0  0  0  0  0  0  0  0  0  0
   12.4913  -17.1269   29.3434 O   0  0  0  0  0  0  0  0  0  0  0  0
   11.0926  -18.5729   28.2649 O   0  0  0  0  0  0  0  0  0  0  0  0
  2  3  1  0
  2  1  1  1
  4  3  1  0
  4  9  2  0
  5  4  1  0
  6  5  2  0
  6  7  1  0
  7  8  2  0
  8  9  1  0
 10  2  1  0
 11 10  2  0
 12 13  1  0
 13 15  1  0
 14 13  2  0
 16 15  1  0
 17 16  1  6
 17 18  1  0
 18 10  1  0
 19 17  1  0
 19 20  2  0
 21 22  1  0
 22 23  1  0
 23 25  1  0
 23 24  1  6
 25 26  1  6
 26 19  1  0
 27 25  1  0
 28 27  2  0
 29 27  1  0
M  END
$$$$
