FQI.pdb
     RDKit          3D

 29 29  0  0  1  0  0  0  0  0999 V2000
    7.0375  -18.8755   19.2945 N   0  0  0  0  0  0  0  0  0  0  0  0
    7.4108  -17.5863   19.7804 C   0  0  1  0  0  0  0  0  0  0  0  0
    7.0299  -16.4687   18.8317 C   0  0  0  0  0  0  0  0  0  0  0  0
    7.3283  -15.1299   19.3915 C   0  0  0  0  0  0  0  0  0  0  0  0
    8.4663  -14.4500   19.0036 C   0  0  0  0  0  0  0  0  0  0  0  0
    8.7866  -13.2024   19.4964 C   0  0  0  0  0  0  0  0  0  0  0  0
    7.9624  -12.5814   20.4118 C   0  0  0  0  0  0  0  0  0  0  0  0
    6.8254  -13.2598   20.7998 C   0  0  0  0  0  0  0  0  0  0  0  0
    6.5034  -14.5062   20.3089 C   0  0  0  0  0  0  0  0  0  0  0  0
    6.8221  -17.2598   21.1042 C   0  0  0  0  0  0  0  0  0  0  0  0
    5.5710  -17.3371   21.1896 O   0  0  0  0  0  0  0  0  0  0  0  0
    6.1970  -20.8451   24.8676 N   0  0  0  0  0  0  0  0  0  0  0  0
    7.5447  -20.4097   24.6434 C   0  0  0  0  0  0  0  0  0  0  0  0
    8.4435  -21.2329   24.8640 O   0  0  0  0  0  0  0  0  0  0  0  0
    7.8103  -19.0305   24.1704 C   0  0  0  0  0  0  0  0  0  0  0  0
    6.5907  -18.1952   23.9882 C   0  0  0  0  0  0  0  0  0  0  0  0
    6.8852  -16.7922   23.5246 C   0  0  2  0  0  0  0  0  0  0  0  0
    7.5678  -16.8837   22.2211 N   0  0  0  0  0  0  0  0  0  0  0  0
    7.7732  -16.0133   24.3837 C   0  0  0  0  0  0  0  0  0  0  0  0
    8.9928  -15.8274   24.0143 O   0  0  0  0  0  0  0  0  0  0  0  0
    5.9358  -11.7449   27.0382 C   0  0  0  0  0  0  0  0  0  0  0  0
    6.7581  -12.6771   26.1737 C   0  0  0  0  0  0  0  0  0  0  0  0
    7.6937  -13.4476   27.0796 C   0  0  2  0  0  0  0  0  0  0  0  0
    8.6832  -12.5654   27.7719 C   0  0  0  0  0  0  0  0  0  0  0  0
    8.3892  -14.5673   26.3371 C   0  0  2  0  0  0  0  0  0  0  0  0
    7.4632  -15.4037   25.6186 N   0  0  0  0  0  0  0  0  0  0  0  0
    9.1353  -15.3942   27.3070 C   0  0  0  0  0  0  0  0  0  0  0  0
    8.6180  -16.4483   27.7389 O   0  0  0  0  0  0  0  0  0  0  0  0
   10.4074  -15.0312   27.7574 O   0  0  0  0  0  0  0  0  0  0  0  0
  2  3  1  0
  2  1  1  6
  4  3  1  0
  4  9  2  0
  5  4  1  0
  6  5  2  0
  6  7  1  0
  7  8  2  0
  8  9  1  0
 10  2  1  0
 11 10  2  0
 12 13  1  0
 13 15  1  0
 14 13  2  0
 16 15  1  0
 17 16  1  1
 17 18  1  0
 18 10  1  0
 19 17  1  0
 19 20  2  0
 21 22  1  0
 22 23  1  0
 23 25  1  0
 23 24  1  6
 25 26  1  1
 26 19  1  0
 27 25  1  0
 28 27  2  0
 29 27  1  0
M  END
$$$$
