FQI.pdb
     RDKit          3D

 29 29  0  0  1  0  0  0  0  0999 V2000
    5.9357  -18.4981   23.9427 N   0  0  0  0  0  0  0  0  0  0  0  0
    6.5088  -17.2025   24.1173 C   0  0  1  0  0  0  0  0  0  0  0  0
    5.9560  -16.4740   25.3247 C   0  0  0  0  0  0  0  0  0  0  0  0
    6.3063  -15.0346   25.3218 C   0  0  0  0  0  0  0  0  0  0  0  0
    5.3176  -14.0768   25.2079 C   0  0  0  0  0  0  0  0  0  0  0  0
    5.5939  -12.7257   25.2006 C   0  0  0  0  0  0  0  0  0  0  0  0
    6.8947  -12.2793   25.3090 C   0  0  0  0  0  0  0  0  0  0  0  0
    7.8829  -13.2353   25.4229 C   0  0  0  0  0  0  0  0  0  0  0  0
    7.6091  -14.5856   25.4305 C   0  0  0  0  0  0  0  0  0  0  0  0
    7.9875  -17.2234   24.2547 C   0  0  0  0  0  0  0  0  0  0  0  0
    8.4703  -18.1779   24.9137 O   0  0  0  0  0  0  0  0  0  0  0  0
   12.0486  -15.5509   19.7022 N   0  0  0  0  0  0  0  0  0  0  0  0
   12.7764  -15.3595   20.9227 C   0  0  0  0  0  0  0  0  0  0  0  0
   13.8279  -14.7088   20.8519 O   0  0  0  0  0  0  0  0  0  0  0  0
   12.2630  -15.9300   22.1906 C   0  0  0  0  0  0  0  0  0  0  0  0
   10.7837  -15.8549   22.3465 C   0  0  0  0  0  0  0  0  0  0  0  0
   10.2665  -16.5966   23.5516 C   0  0  2  0  0  0  0  0  0  0  0  0
    8.8382  -16.2648   23.7046 N   0  0  0  0  0  0  0  0  0  0  0  0
   10.8924  -16.2520   24.8256 C   0  0  0  0  0  0  0  0  0  0  0  0
   12.1078  -15.8264   24.8281 O   0  0  0  0  0  0  0  0  0  0  0  0
    9.2797  -12.8210   28.3887 C   0  0  0  0  0  0  0  0  0  0  0  0
   10.1504  -13.6912   27.5073 C   0  0  0  0  0  0  0  0  0  0  0  0
   10.3240  -15.0264   28.1978 C   0  0  2  0  0  0  0  0  0  0  0  0
   10.9878  -14.9039   29.5323 C   0  0  0  0  0  0  0  0  0  0  0  0
   11.0526  -16.0171   27.3167 C   0  0  2  0  0  0  0  0  0  0  0  0
   10.3204  -16.3200   26.1144 N   0  0  0  0  0  0  0  0  0  0  0  0
   11.2708  -17.2643   28.0769 C   0  0  0  0  0  0  0  0  0  0  0  0
   12.0532  -17.2578   29.0531 O   0  0  0  0  0  0  0  0  0  0  0  0
   10.6255  -18.4559   27.7352 O   0  0  0  0  0  0  0  0  0  0  0  0
  2  3  1  0
  2  1  1  1
  4  3  1  0
  4  9  2  0
  5  4  1  0
  6  5  2  0
  6  7  1  0
  7  8  2  0
  8  9  1  0
 10  2  1  0
 11 10  2  0
 12 13  1  0
 13 15  1  0
 14 13  2  0
 16 15  1  0
 17 16  1  6
 17 18  1  0
 18 10  1  0
 19 17  1  0
 19 20  2  0
 21 22  1  0
 22 23  1  0
 23 25  1  0
 23 24  1  1
 25 26  1  6
 26 19  1  0
 27 25  1  0
 28 27  2  0
 29 27  1  0
M  END
$$$$
