FQI.pdb
     RDKit          3D

 29 29  0  0  1  0  0  0  0  0999 V2000
    5.9674  -17.6747   22.6773 N   0  0  0  0  0  0  0  0  0  0  0  0
    7.0401  -16.7558   22.4714 C   0  0  1  0  0  0  0  0  0  0  0  0
    6.6886  -15.3414   22.8834 C   0  0  0  0  0  0  0  0  0  0  0  0
    7.0732  -14.3448   21.8569 C   0  0  0  0  0  0  0  0  0  0  0  0
    7.5520  -14.7582   20.6290 C   0  0  0  0  0  0  0  0  0  0  0  0
    7.9225  -13.8690   19.6421 C   0  0  0  0  0  0  0  0  0  0  0  0
    7.8243  -12.5096   19.8554 C   0  0  0  0  0  0  0  0  0  0  0  0
    7.3462  -12.0958   21.0817 C   0  0  0  0  0  0  0  0  0  0  0  0
    6.9754  -12.9824   22.0690 C   0  0  0  0  0  0  0  0  0  0  0  0
    8.2843  -17.1280   23.1921 C   0  0  0  0  0  0  0  0  0  0  0  0
    8.1396  -17.8340   24.2212 O   0  0  0  0  0  0  0  0  0  0  0  0
   14.2948  -18.4984   20.8539 N   0  0  0  0  0  0  0  0  0  0  0  0
   13.0998  -19.0403   21.4319 C   0  0  0  0  0  0  0  0  0  0  0  0
   13.1473  -20.2164   21.8175 O   0  0  0  0  0  0  0  0  0  0  0  0
   11.8832  -18.2015   21.5448 C   0  0  0  0  0  0  0  0  0  0  0  0
   11.9236  -17.2013   22.6477 C   0  0  0  0  0  0  0  0  0  0  0  0
   10.7204  -17.2538   23.5530 C   0  0  2  0  0  0  0  0  0  0  0  0
    9.5643  -16.7434   22.7938 N   0  0  0  0  0  0  0  0  0  0  0  0
   10.7971  -16.4326   24.7585 C   0  0  0  0  0  0  0  0  0  0  0  0
   10.8018  -15.1503   24.6402 O   0  0  0  0  0  0  0  0  0  0  0  0
    7.9874  -13.6142   26.5733 C   0  0  0  0  0  0  0  0  0  0  0  0
    9.3503  -14.2285   26.3332 C   0  0  0  0  0  0  0  0  0  0  0  0
    9.6032  -15.2422   27.4278 C   0  0  2  0  0  0  0  0  0  0  0  0
    9.5317  -14.6435   28.7964 C   0  0  0  0  0  0  0  0  0  0  0  0
   10.9134  -15.9693   27.2199 C   0  0  2  0  0  0  0  0  0  0  0  0
   10.8652  -16.8714   26.0985 N   0  0  0  0  0  0  0  0  0  0  0  0
   11.2361  -16.7338   28.4416 C   0  0  0  0  0  0  0  0  0  0  0  0
   11.6669  -16.1276   29.4476 O   0  0  0  0  0  0  0  0  0  0  0  0
   11.0733  -18.1203   28.5057 O   0  0  0  0  0  0  0  0  0  0  0  0
  2  3  1  0
  2  1  1  1
  4  3  1  0
  4  9  2  0
  5  4  1  0
  6  5  2  0
  6  7  1  0
  7  8  2  0
  8  9  1  0
 10  2  1  0
 11 10  2  0
 12 13  1  0
 13 15  1  0
 14 13  2  0
 16 15  1  0
 17 16  1  6
 17 18  1  0
 18 10  1  0
 19 17  1  0
 19 20  2  0
 21 22  1  0
 22 23  1  0
 23 25  1  0
 23 24  1  1
 25 26  1  6
 26 19  1  0
 27 25  1  0
 28 27  2  0
 29 27  1  0
M  END
$$$$
