FQI.pdb
     RDKit          3D

 29 29  0  0  1  0  0  0  0  0999 V2000
    5.5256  -17.2675   20.2243 N   0  0  0  0  0  0  0  0  0  0  0  0
    6.5991  -16.4386   20.6693 C   0  0  1  0  0  0  0  0  0  0  0  0
    6.1621  -15.0179   20.9599 C   0  0  0  0  0  0  0  0  0  0  0  0
    7.0173  -14.0166   20.2811 C   0  0  0  0  0  0  0  0  0  0  0  0
    8.1482  -13.5278   20.9055 C   0  0  0  0  0  0  0  0  0  0  0  0
    8.9750  -12.5957   20.3145 C   0  0  0  0  0  0  0  0  0  0  0  0
    8.6921  -12.1121   19.0540 C   0  0  0  0  0  0  0  0  0  0  0  0
    7.5626  -12.5997   18.4294 C   0  0  0  0  0  0  0  0  0  0  0  0
    6.7352  -13.5309   19.0180 C   0  0  0  0  0  0  0  0  0  0  0  0
    7.2745  -16.9498   21.8894 C   0  0  0  0  0  0  0  0  0  0  0  0
    6.5255  -17.2645   22.8477 O   0  0  0  0  0  0  0  0  0  0  0  0
   12.9024  -19.7059   22.5952 N   0  0  0  0  0  0  0  0  0  0  0  0
   12.3864  -19.6386   23.9314 C   0  0  0  0  0  0  0  0  0  0  0  0
   13.0561  -20.1845   24.8187 O   0  0  0  0  0  0  0  0  0  0  0  0
   11.1068  -18.9404   24.1988 C   0  0  0  0  0  0  0  0  0  0  0  0
   10.4532  -18.3657   22.9901 C   0  0  0  0  0  0  0  0  0  0  0  0
    9.1958  -17.5937   23.2946 C   0  0  2  0  0  0  0  0  0  0  0  0
    8.6559  -17.0924   22.0177 N   0  0  0  0  0  0  0  0  0  0  0  0
    9.3635  -16.4171   24.1437 C   0  0  0  0  0  0  0  0  0  0  0  0
   10.0242  -15.4095   23.6892 O   0  0  0  0  0  0  0  0  0  0  0  0
    6.9637  -11.9300   26.8405 C   0  0  0  0  0  0  0  0  0  0  0  0
    8.1612  -12.8414   27.0063 C   0  0  0  0  0  0  0  0  0  0  0  0
    7.9001  -14.1020   26.2110 C   0  0  2  0  0  0  0  0  0  0  0  0
    6.6755  -14.8290   26.6674 C   0  0  0  0  0  0  0  0  0  0  0  0
    9.1055  -15.0162   26.2070 C   0  0  2  0  0  0  0  0  0  0  0  0
    8.8744  -16.2211   25.4533 N   0  0  0  0  0  0  0  0  0  0  0  0
    9.4399  -15.3743   27.6002 C   0  0  0  0  0  0  0  0  0  0  0  0
    9.1696  -16.5216   28.0195 O   0  0  0  0  0  0  0  0  0  0  0  0
   10.0518  -14.4643   28.4665 O   0  0  0  0  0  0  0  0  0  0  0  0
  2  3  1  0
  2  1  1  1
  4  3  1  0
  4  9  2  0
  5  4  1  0
  6  5  2  0
  6  7  1  0
  7  8  2  0
  8  9  1  0
 10  2  1  0
 11 10  2  0
 12 13  1  0
 13 15  1  0
 14 13  2  0
 16 15  1  0
 17 16  1  6
 17 18  1  0
 18 10  1  0
 19 17  1  0
 19 20  2  0
 21 22  1  0
 22 23  1  0
 23 25  1  0
 23 24  1  1
 25 26  1  6
 26 19  1  0
 27 25  1  0
 28 27  2  0
 29 27  1  0
M  END
$$$$
