FQI.pdb
     RDKit          3D

 29 29  0  0  1  0  0  0  0  0999 V2000
    5.1294  -16.6245   21.2518 N   0  0  0  0  0  0  0  0  0  0  0  0
    6.3860  -16.2691   21.8280 C   0  0  1  0  0  0  0  0  0  0  0  0
    6.5710  -14.7712   21.9548 C   0  0  0  0  0  0  0  0  0  0  0  0
    7.2606  -14.1885   20.7802 C   0  0  0  0  0  0  0  0  0  0  0  0
    8.2861  -14.8768   20.1617 C   0  0  0  0  0  0  0  0  0  0  0  0
    8.9576  -14.3761   19.0662 C   0  0  0  0  0  0  0  0  0  0  0  0
    8.6187  -13.1455   18.5428 C   0  0  0  0  0  0  0  0  0  0  0  0
    7.5945  -12.4573   19.1600 C   0  0  0  0  0  0  0  0  0  0  0  0
    6.9222  -12.9556   20.2545 C   0  0  0  0  0  0  0  0  0  0  0  0
    6.6061  -16.8554   23.1748 C   0  0  0  0  0  0  0  0  0  0  0  0
    5.6803  -16.6939   24.0085 O   0  0  0  0  0  0  0  0  0  0  0  0
    6.6203  -21.5261   25.7473 N   0  0  0  0  0  0  0  0  0  0  0  0
    7.6187  -21.0777   26.6737 C   0  0  0  0  0  0  0  0  0  0  0  0
    7.6359  -21.6223   27.7859 O   0  0  0  0  0  0  0  0  0  0  0  0
    8.5678  -20.0087   26.2826 C   0  0  0  0  0  0  0  0  0  0  0  0
    8.3324  -19.4408   24.9260 C   0  0  0  0  0  0  0  0  0  0  0  0
    7.8842  -18.0025   24.9444 C   0  0  2  0  0  0  0  0  0  0  0  0
    7.7546  -17.5542   23.5459 N   0  0  0  0  0  0  0  0  0  0  0  0
    8.8017  -17.0600   25.5796 C   0  0  0  0  0  0  0  0  0  0  0  0
    9.6747  -16.4538   24.8526 O   0  0  0  0  0  0  0  0  0  0  0  0
    7.2123  -12.9983   28.2249 C   0  0  0  0  0  0  0  0  0  0  0  0
    8.0443  -13.9000   27.3377 C   0  0  0  0  0  0  0  0  0  0  0  0
    9.0525  -14.6122   28.2129 C   0  0  2  0  0  0  0  0  0  0  0  0
   10.0258  -13.6741   28.8527 C   0  0  0  0  0  0  0  0  0  0  0  0
    9.7702  -15.7076   27.4556 C   0  0  2  0  0  0  0  0  0  0  0  0
    8.8632  -16.7019   26.9437 N   0  0  0  0  0  0  0  0  0  0  0  0
   10.7406  -16.3580   28.3590 C   0  0  0  0  0  0  0  0  0  0  0  0
   10.4251  -17.4249   28.9312 O   0  0  0  0  0  0  0  0  0  0  0  0
   12.0060  -15.8134   28.5936 O   0  0  0  0  0  0  0  0  0  0  0  0
  2  3  1  0
  2  1  1  1
  4  3  1  0
  4  9  2  0
  5  4  1  0
  6  5  2  0
  6  7  1  0
  7  8  2  0
  8  9  1  0
 10  2  1  0
 11 10  2  0
 12 13  1  0
 13 15  1  0
 14 13  2  0
 16 15  1  0
 17 16  1  6
 17 18  1  0
 18 10  1  0
 19 17  1  0
 19 20  2  0
 21 22  1  0
 22 23  1  0
 23 25  1  0
 23 24  1  6
 25 26  1  1
 26 19  1  0
 27 25  1  0
 28 27  2  0
 29 27  1  0
M  END
$$$$
