ESN.pdb
     RDKit          3D

 24 23  0  0  1  0  0  0  0  0999 V2000
   10.8466  -16.0377   20.3864 N   0  0  0  0  0  0  0  0  0  0  0  0
    9.7821  -16.4332   21.2516 C   0  0  1  0  0  0  0  0  0  0  0  0
    9.8361  -17.8951   21.5095 C   0  0  0  0  0  0  0  0  0  0  0  0
   11.1199  -18.4274   22.0408 C   0  0  0  0  0  0  0  0  0  0  0  0
   11.1087  -19.8617   22.3491 C   0  0  0  0  0  0  0  0  0  0  0  0
   11.1737  -20.2653   23.5274 O   0  0  0  0  0  0  0  0  0  0  0  0
    9.8176  -15.7010   22.5602 C   0  0  0  0  0  0  0  0  0  0  0  0
   10.9371  -15.4983   23.0974 O   0  0  0  0  0  0  0  0  0  0  0  0
   11.0252  -20.8168   21.3369 O   0  0  0  0  0  0  0  0  0  0  0  0
    7.3601  -13.2630   25.8486 O   0  0  0  0  0  0  0  0  0  0  0  0
    7.2510  -14.0671   24.7023 C   0  0  0  0  0  0  0  0  0  0  0  0
    8.6727  -14.5625   24.4019 C   0  0  2  0  0  0  0  0  0  0  0  0
    8.6087  -15.2573   23.1590 N   0  0  0  0  0  0  0  0  0  0  0  0
    9.1106  -15.3958   25.5352 C   0  0  0  0  0  0  0  0  0  0  0  0
    9.1559  -16.6449   25.4086 O   0  0  0  0  0  0  0  0  0  0  0  0
   10.2918  -18.2727   26.7924 N   0  0  0  0  0  0  0  0  0  0  0  0
   11.4963  -17.5292   26.8300 C   0  0  0  0  0  0  0  0  0  0  0  0
   12.5560  -18.0801   26.4454 O   0  0  0  0  0  0  0  0  0  0  0  0
   11.5578  -16.1269   27.3047 C   0  0  0  0  0  0  0  0  0  0  0  0
   10.2416  -15.6119   27.7771 C   0  0  2  0  0  0  0  0  0  0  0  0
    9.5015  -14.8677   26.8134 N   0  0  0  0  0  0  0  0  0  0  0  0
   10.4157  -14.8734   29.0652 C   0  0  0  0  0  0  0  0  0  0  0  0
   10.8613  -15.6040   30.1558 O   0  0  0  0  0  0  0  0  0  0  0  0
   10.1859  -13.6677   29.1996 O   0  0  0  0  0  0  0  0  0  0  0  0
  2  1  1  6
  3  2  1  0
  3  4  1  0
  4  5  1  0
  5  6  2  0
  5  9  1  0
  7  2  1  0
  7  8  2  0
 10 11  1  0
 12 11  1  1
 12 13  1  0
 13  7  1  0
 14 12  1  0
 15 14  2  0
 17 16  1  0
 17 18  2  0
 20 19  1  6
 19 17  1  0
 20 21  1  0
 21 14  1  0
 22 20  1  0
 23 22  1  0
 24 22  2  0
M  END
$$$$
