ESN.pdb
     RDKit          3D

 24 23  0  0  1  0  0  0  0  0999 V2000
    9.0815  -15.4110   13.5240 N   0  0  0  0  0  0  0  0  0  0  0  0
    8.6326  -15.7600   14.8336 C   0  0  1  0  0  0  0  0  0  0  0  0
    8.6641  -17.2334   15.0196 C   0  0  0  0  0  0  0  0  0  0  0  0
    9.8994  -17.9317   14.5723 C   0  0  0  0  0  0  0  0  0  0  0  0
   10.4781  -18.8485   15.5607 C   0  0  0  0  0  0  0  0  0  0  0  0
   10.0192  -19.9977   15.7161 O   0  0  0  0  0  0  0  0  0  0  0  0
    9.4587  -15.1110   15.9042 C   0  0  0  0  0  0  0  0  0  0  0  0
   10.6704  -14.8764   15.6595 O   0  0  0  0  0  0  0  0  0  0  0  0
   11.5570  -18.4648   16.3559 O   0  0  0  0  0  0  0  0  0  0  0  0
    7.9106  -14.5281   19.6131 O   0  0  0  0  0  0  0  0  0  0  0  0
    8.6438  -13.4436   19.1043 C   0  0  0  0  0  0  0  0  0  0  0  0
    9.6390  -14.0450   18.1020 C   0  0  2  0  0  0  0  0  0  0  0  0
    8.8693  -14.7787   17.1528 N   0  0  0  0  0  0  0  0  0  0  0  0
   10.6029  -14.8643   18.8571 C   0  0  0  0  0  0  0  0  0  0  0  0
   10.5163  -16.1172   18.8229 O   0  0  0  0  0  0  0  0  0  0  0  0
   15.1903  -13.1410   18.8443 N   0  0  0  0  0  0  0  0  0  0  0  0
   14.6559  -14.3807   19.2713 C   0  0  0  0  0  0  0  0  0  0  0  0
   14.7908  -15.3825   18.5278 O   0  0  0  0  0  0  0  0  0  0  0  0
   13.9435  -14.5449   20.5602 C   0  0  0  0  0  0  0  0  0  0  0  0
   12.5770  -15.1185   20.4032 C   0  0  2  0  0  0  0  0  0  0  0  0
   11.6670  -14.3181   19.6539 N   0  0  0  0  0  0  0  0  0  0  0  0
   12.0329  -15.5120   21.7388 C   0  0  0  0  0  0  0  0  0  0  0  0
   12.7965  -16.3843   22.4988 O   0  0  0  0  0  0  0  0  0  0  0  0
   10.9570  -15.1042   22.1870 O   0  0  0  0  0  0  0  0  0  0  0  0
  2  1  1  6
  3  2  1  0
  3  4  1  0
  4  5  1  0
  5  6  2  0
  5  9  1  0
  7  2  1  0
  7  8  2  0
 10 11  1  0
 12 11  1  1
 12 13  1  0
 13  7  1  0
 14 12  1  0
 15 14  2  0
 17 16  1  0
 17 18  2  0
 20 19  1  1
 19 17  1  0
 20 21  1  0
 21 14  1  0
 22 20  1  0
 23 22  1  0
 24 22  2  0
M  END
$$$$
