ESN.pdb
     RDKit          3D

 24 23  0  0  1  0  0  0  0  0999 V2000
    7.5675  -12.9900   16.4040 N   0  0  0  0  0  0  0  0  0  0  0  0
    7.5574  -14.1078   17.2921 C   0  0  1  0  0  0  0  0  0  0  0  0
    8.0405  -15.3290   16.5979 C   0  0  0  0  0  0  0  0  0  0  0  0
    8.7702  -15.1192   15.3184 C   0  0  0  0  0  0  0  0  0  0  0  0
    9.1734  -16.3519   14.6327 C   0  0  0  0  0  0  0  0  0  0  0  0
    9.9651  -17.1540   15.1670 O   0  0  0  0  0  0  0  0  0  0  0  0
    8.3999  -13.8680   18.5097 C   0  0  0  0  0  0  0  0  0  0  0  0
    9.6061  -13.5501   18.3444 O   0  0  0  0  0  0  0  0  0  0  0  0
    8.6855  -16.6651   13.3648 O   0  0  0  0  0  0  0  0  0  0  0  0
    6.9542  -14.9912   22.0821 O   0  0  0  0  0  0  0  0  0  0  0  0
    7.7653  -13.8483   22.1736 C   0  0  0  0  0  0  0  0  0  0  0  0
    8.6817  -13.8860   20.9426 C   0  0  2  0  0  0  0  0  0  0  0  0
    7.8317  -14.0015   19.8043 N   0  0  0  0  0  0  0  0  0  0  0  0
    9.6190  -15.0103   21.1102 C   0  0  0  0  0  0  0  0  0  0  0  0
    9.3701  -16.1147   20.5654 O   0  0  0  0  0  0  0  0  0  0  0  0
   13.4647  -14.1453   19.7213 N   0  0  0  0  0  0  0  0  0  0  0  0
   13.1639  -15.4607   20.1506 C   0  0  0  0  0  0  0  0  0  0  0  0
   12.9410  -16.3404   19.2840 O   0  0  0  0  0  0  0  0  0  0  0  0
   13.1013  -15.8422   21.5809 C   0  0  0  0  0  0  0  0  0  0  0  0
   11.7083  -16.0404   22.0721 C   0  0  2  0  0  0  0  0  0  0  0  0
   10.8336  -14.9332   21.8746 N   0  0  0  0  0  0  0  0  0  0  0  0
   11.7303  -16.5112   23.4908 C   0  0  0  0  0  0  0  0  0  0  0  0
   12.4862  -17.6393   23.7694 O   0  0  0  0  0  0  0  0  0  0  0  0
   11.1187  -15.9531   24.4069 O   0  0  0  0  0  0  0  0  0  0  0  0
  2  1  1  6
  3  2  1  0
  3  4  1  0
  4  5  1  0
  5  6  2  0
  5  9  1  0
  7  2  1  0
  7  8  2  0
 10 11  1  0
 12 11  1  1
 12 13  1  0
 13  7  1  0
 14 12  1  0
 15 14  2  0
 17 16  1  0
 17 18  2  0
 20 19  1  1
 19 17  1  0
 20 21  1  0
 21 14  1  0
 22 20  1  0
 23 22  1  0
 24 22  2  0
M  END
$$$$
