ESN.pdb
     RDKit          3D

 24 23  0  0  1  0  0  0  0  0999 V2000
    5.9546  -18.7501   20.8481 N   0  0  0  0  0  0  0  0  0  0  0  0
    5.5243  -18.4382   22.1731 C   0  0  1  0  0  0  0  0  0  0  0  0
    4.7622  -19.5733   22.7540 C   0  0  0  0  0  0  0  0  0  0  0  0
    3.9265  -20.3629   21.8096 C   0  0  0  0  0  0  0  0  0  0  0  0
    3.1156  -21.4119   22.4375 C   0  0  0  0  0  0  0  0  0  0  0  0
    3.5895  -22.5444   22.6572 O   0  0  0  0  0  0  0  0  0  0  0  0
    6.6749  -18.1048   23.0757 C   0  0  0  0  0  0  0  0  0  0  0  0
    7.7392  -18.7639   22.9498 O   0  0  0  0  0  0  0  0  0  0  0  0
    1.7922  -21.1764   22.8078 O   0  0  0  0  0  0  0  0  0  0  0  0
    6.0703  -15.3645   25.8921 O   0  0  0  0  0  0  0  0  0  0  0  0
    7.4105  -15.3850   25.4727 C   0  0  0  0  0  0  0  0  0  0  0  0
    7.6476  -16.7886   24.8979 C   0  0  2  0  0  0  0  0  0  0  0  0
    6.5451  -17.0697   24.0393 N   0  0  0  0  0  0  0  0  0  0  0  0
    7.7835  -17.7237   26.0283 C   0  0  0  0  0  0  0  0  0  0  0  0
    6.7697  -18.0414   26.6988 O   0  0  0  0  0  0  0  0  0  0  0  0
    6.9808  -20.6693   26.5916 N   0  0  0  0  0  0  0  0  0  0  0  0
    8.2414  -21.2955   26.7460 C   0  0  0  0  0  0  0  0  0  0  0  0
    8.3609  -22.4987   26.4104 O   0  0  0  0  0  0  0  0  0  0  0  0
    9.4260  -20.5893   27.2876 C   0  0  0  0  0  0  0  0  0  0  0  0
    9.1661  -19.1510   27.5785 C   0  0  2  0  0  0  0  0  0  0  0  0
    9.0290  -18.3166   26.4317 N   0  0  0  0  0  0  0  0  0  0  0  0
   10.1808  -18.6356   28.5478 C   0  0  0  0  0  0  0  0  0  0  0  0
   10.9277  -17.5360   28.1541 O   0  0  0  0  0  0  0  0  0  0  0  0
   10.3802  -19.1337   29.6599 O   0  0  0  0  0  0  0  0  0  0  0  0
  2  1  1  6
  3  2  1  0
  3  4  1  0
  4  5  1  0
  5  6  2  0
  5  9  1  0
  7  2  1  0
  7  8  2  0
 10 11  1  0
 12 11  1  1
 12 13  1  0
 13  7  1  0
 14 12  1  0
 15 14  2  0
 17 16  1  0
 17 18  2  0
 20 19  1  6
 19 17  1  0
 20 21  1  0
 21 14  1  0
 22 20  1  0
 23 22  1  0
 24 22  2  0
M  END
$$$$
