ESN.pdb
     RDKit          3D

 24 23  0  0  1  0  0  0  0  0999 V2000
    9.2660  -18.4986   12.7375 N   0  0  0  0  0  0  0  0  0  0  0  0
    8.9723  -19.6328   13.5533 C   0  0  1  0  0  0  0  0  0  0  0  0
    9.6111  -20.8534   12.9978 C   0  0  0  0  0  0  0  0  0  0  0  0
   11.0978  -20.8561   12.9409 C   0  0  0  0  0  0  0  0  0  0  0  0
   11.6883  -22.0779   12.3833 C   0  0  0  0  0  0  0  0  0  0  0  0
   11.8368  -22.2151   11.1526 O   0  0  0  0  0  0  0  0  0  0  0  0
    9.4263  -19.4410   14.9699 C   0  0  0  0  0  0  0  0  0  0  0  0
   10.2898  -18.5559   15.2025 O   0  0  0  0  0  0  0  0  0  0  0  0
   12.1013  -23.1220   13.2097 O   0  0  0  0  0  0  0  0  0  0  0  0
    7.8467  -21.7430   17.9779 O   0  0  0  0  0  0  0  0  0  0  0  0
    8.1678  -20.4061   18.2646 C   0  0  0  0  0  0  0  0  0  0  0  0
    9.3411  -20.0503   17.3407 C   0  0  2  0  0  0  0  0  0  0  0  0
    8.8833  -20.2472   16.0052 N   0  0  0  0  0  0  0  0  0  0  0  0
   10.4859  -20.8986   17.7155 C   0  0  0  0  0  0  0  0  0  0  0  0
   10.9072  -21.7667   16.9110 O   0  0  0  0  0  0  0  0  0  0  0  0
   15.9349  -21.9428   18.4346 N   0  0  0  0  0  0  0  0  0  0  0  0
   14.5936  -22.3522   18.6300 C   0  0  0  0  0  0  0  0  0  0  0  0
   14.3759  -23.4887   19.1154 O   0  0  0  0  0  0  0  0  0  0  0  0
   13.4356  -21.4945   18.2853 C   0  0  0  0  0  0  0  0  0  0  0  0
   12.3375  -21.5643   19.2904 C   0  0  2  0  0  0  0  0  0  0  0  0
   11.1764  -20.8022   18.9723 N   0  0  0  0  0  0  0  0  0  0  0  0
   12.8726  -21.2574   20.6521 C   0  0  0  0  0  0  0  0  0  0  0  0
   13.7805  -22.1561   21.1904 O   0  0  0  0  0  0  0  0  0  0  0  0
   12.5499  -20.2608   21.3060 O   0  0  0  0  0  0  0  0  0  0  0  0
  2  1  1  6
  3  2  1  0
  3  4  1  0
  4  5  1  0
  5  6  2  0
  5  9  1  0
  7  2  1  0
  7  8  2  0
 10 11  1  0
 12 11  1  1
 12 13  1  0
 13  7  1  0
 14 12  1  0
 15 14  2  0
 17 16  1  0
 17 18  2  0
 20 19  1  6
 19 17  1  0
 20 21  1  0
 21 14  1  0
 22 20  1  0
 23 22  1  0
 24 22  2  0
M  END
$$$$
