ESN.pdb
     RDKit          3D

 24 23  0  0  1  0  0  0  0  0999 V2000
   10.8427  -18.6393   15.0456 N   0  0  0  0  0  0  0  0  0  0  0  0
   11.0723  -19.2067   16.3354 C   0  0  1  0  0  0  0  0  0  0  0  0
   12.3925  -19.8864   16.3780 C   0  0  0  0  0  0  0  0  0  0  0  0
   13.5552  -19.1082   15.8719 C   0  0  0  0  0  0  0  0  0  0  0  0
   14.8254  -19.8423   15.8575 C   0  0  0  0  0  0  0  0  0  0  0  0
   15.6871  -19.6512   16.7386 O   0  0  0  0  0  0  0  0  0  0  0  0
   11.0144  -18.1757   17.4233 C   0  0  0  0  0  0  0  0  0  0  0  0
   11.3997  -17.0080   17.1564 O   0  0  0  0  0  0  0  0  0  0  0  0
   15.1087  -20.7747   14.8605 O   0  0  0  0  0  0  0  0  0  0  0  0
    8.9384  -18.9543   20.7847 O   0  0  0  0  0  0  0  0  0  0  0  0
    9.0600  -17.6271   20.3416 C   0  0  0  0  0  0  0  0  0  0  0  0
   10.4583  -17.5210   19.7170 C   0  0  2  0  0  0  0  0  0  0  0  0
   10.5341  -18.5291   18.7122 N   0  0  0  0  0  0  0  0  0  0  0  0
   11.4491  -17.6722   20.7968 C   0  0  0  0  0  0  0  0  0  0  0  0
   12.0670  -18.7584   20.9272 O   0  0  0  0  0  0  0  0  0  0  0  0
   15.6879  -16.0366   24.1039 N   0  0  0  0  0  0  0  0  0  0  0  0
   14.3230  -15.7739   24.3739 C   0  0  0  0  0  0  0  0  0  0  0  0
   13.9427  -15.7341   25.5691 O   0  0  0  0  0  0  0  0  0  0  0  0
   13.3242  -15.5438   23.3039 C   0  0  0  0  0  0  0  0  0  0  0  0
   12.7065  -16.8033   22.8008 C   0  0  2  0  0  0  0  0  0  0  0  0
   11.7698  -16.6365   21.7402 N   0  0  0  0  0  0  0  0  0  0  0  0
   12.1488  -17.5892   23.9436 C   0  0  0  0  0  0  0  0  0  0  0  0
   13.0246  -18.4206   24.6244 O   0  0  0  0  0  0  0  0  0  0  0  0
   10.9684  -17.5332   24.3016 O   0  0  0  0  0  0  0  0  0  0  0  0
  2  1  1  6
  3  2  1  0
  3  4  1  0
  4  5  1  0
  5  6  2  0
  5  9  1  0
  7  2  1  0
  7  8  2  0
 10 11  1  0
 12 11  1  1
 12 13  1  0
 13  7  1  0
 14 12  1  0
 15 14  2  0
 17 16  1  0
 17 18  2  0
 20 19  1  1
 19 17  1  0
 20 21  1  0
 21 14  1  0
 22 20  1  0
 23 22  1  0
 24 22  2  0
M  END
$$$$
