ESN.pdb
     RDKit          3D

 24 23  0  0  1  0  0  0  0  0999 V2000
    8.7736  -15.5776   19.6289 N   0  0  0  0  0  0  0  0  0  0  0  0
    9.7115  -16.3057   20.4216 C   0  0  1  0  0  0  0  0  0  0  0  0
   11.0534  -16.2916   19.7849 C   0  0  0  0  0  0  0  0  0  0  0  0
   11.4487  -17.5202   19.0446 C   0  0  0  0  0  0  0  0  0  0  0  0
   12.6820  -18.1548   19.5230 C   0  0  0  0  0  0  0  0  0  0  0  0
   12.6674  -19.3066   20.0011 O   0  0  0  0  0  0  0  0  0  0  0  0
    9.8210  -15.7554   21.8127 C   0  0  0  0  0  0  0  0  0  0  0  0
   10.1699  -14.5544   21.9507 O   0  0  0  0  0  0  0  0  0  0  0  0
   13.9067  -17.4917   19.4585 O   0  0  0  0  0  0  0  0  0  0  0  0
    7.2056  -15.5304   24.1791 O   0  0  0  0  0  0  0  0  0  0  0  0
    8.4518  -14.8828   24.1840 C   0  0  0  0  0  0  0  0  0  0  0  0
    9.5037  -16.0000   24.2289 C   0  0  2  0  0  0  0  0  0  0  0  0
    9.5340  -16.5846   22.9293 N   0  0  0  0  0  0  0  0  0  0  0  0
    9.1241  -16.9364   25.3011 C   0  0  0  0  0  0  0  0  0  0  0  0
    8.3404  -17.8857   25.0500 O   0  0  0  0  0  0  0  0  0  0  0  0
    9.8747  -20.1318   25.6262 N   0  0  0  0  0  0  0  0  0  0  0  0
   11.1698  -19.5667   25.7167 C   0  0  0  0  0  0  0  0  0  0  0  0
   12.0902  -20.0560   25.0181 O   0  0  0  0  0  0  0  0  0  0  0  0
   11.4841  -18.4211   26.6023 C   0  0  0  0  0  0  0  0  0  0  0  0
   10.2898  -17.8932   27.3204 C   0  0  2  0  0  0  0  0  0  0  0  0
    9.5993  -16.8399   26.6540 N   0  0  0  0  0  0  0  0  0  0  0  0
   10.6545  -17.5431   28.7272 C   0  0  0  0  0  0  0  0  0  0  0  0
   10.5568  -18.5513   29.6737 O   0  0  0  0  0  0  0  0  0  0  0  0
   11.0309  -16.4205   29.0779 O   0  0  0  0  0  0  0  0  0  0  0  0
  2  1  1  6
  3  2  1  0
  3  4  1  0
  4  5  1  0
  5  6  2  0
  5  9  1  0
  7  2  1  0
  7  8  2  0
 10 11  1  0
 12 11  1  6
 12 13  1  0
 13  7  1  0
 14 12  1  0
 15 14  2  0
 17 16  1  0
 17 18  2  0
 20 19  1  6
 19 17  1  0
 20 21  1  0
 21 14  1  0
 22 20  1  0
 23 22  1  0
 24 22  2  0
M  END
$$$$
