ESN.pdb
     RDKit          3D

 24 23  0  0  1  0  0  0  0  0999 V2000
   10.3016  -14.2522   19.1273 N   0  0  0  0  0  0  0  0  0  0  0  0
    9.0623  -14.0976   19.8190 C   0  0  1  0  0  0  0  0  0  0  0  0
    7.9248  -14.4704   18.9394 C   0  0  0  0  0  0  0  0  0  0  0  0
    7.6515  -13.5658   17.7901 C   0  0  0  0  0  0  0  0  0  0  0  0
    7.5974  -14.2321   16.4842 C   0  0  0  0  0  0  0  0  0  0  0  0
    8.4077  -13.9420   15.5816 O   0  0  0  0  0  0  0  0  0  0  0  0
    9.0082  -14.9234   21.0700 C   0  0  0  0  0  0  0  0  0  0  0  0
    7.9793  -14.8445   21.7900 O   0  0  0  0  0  0  0  0  0  0  0  0
    6.6405  -15.2086   16.2114 O   0  0  0  0  0  0  0  0  0  0  0  0
    9.9917  -18.7718   21.7203 O   0  0  0  0  0  0  0  0  0  0  0  0
   10.8526  -17.8316   22.3096 C   0  0  0  0  0  0  0  0  0  0  0  0
    9.9944  -16.5864   22.5736 C   0  0  2  0  0  0  0  0  0  0  0  0
   10.0994  -15.7648   21.4136 N   0  0  0  0  0  0  0  0  0  0  0  0
   10.4869  -15.9504   23.8079 C   0  0  0  0  0  0  0  0  0  0  0  0
   11.5827  -15.3358   23.7971 O   0  0  0  0  0  0  0  0  0  0  0  0
   11.1392  -14.0316   28.6015 N   0  0  0  0  0  0  0  0  0  0  0  0
    9.9023  -13.6569   28.0231 C   0  0  0  0  0  0  0  0  0  0  0  0
    9.2544  -12.7169   28.5439 O   0  0  0  0  0  0  0  0  0  0  0  0
    9.3404  -14.3285   26.8278 C   0  0  0  0  0  0  0  0  0  0  0  0
   10.2589  -15.3467   26.2442 C   0  0  2  0  0  0  0  0  0  0  0  0
    9.7840  -15.9829   25.0610 N   0  0  0  0  0  0  0  0  0  0  0  0
   10.6718  -16.3239   27.2975 C   0  0  0  0  0  0  0  0  0  0  0  0
   10.3887  -17.6606   27.0636 O   0  0  0  0  0  0  0  0  0  0  0  0
   11.2418  -16.0019   28.3445 O   0  0  0  0  0  0  0  0  0  0  0  0
  2  1  1  6
  3  2  1  0
  3  4  1  0
  4  5  1  0
  5  6  2  0
  5  9  1  0
  7  2  1  0
  7  8  2  0
 10 11  1  0
 12 11  1  6
 12 13  1  0
 13  7  1  0
 14 12  1  0
 15 14  2  0
 17 16  1  0
 17 18  2  0
 20 19  1  1
 19 17  1  0
 20 21  1  0
 21 14  1  0
 22 20  1  0
 23 22  1  0
 24 22  2  0
M  END
$$$$
