ESN.pdb
     RDKit          3D

 24 23  0  0  1  0  0  0  0  0999 V2000
    7.7319  -12.4012   18.9243 N   0  0  0  0  0  0  0  0  0  0  0  0
    7.2536  -13.4209   19.8016 C   0  0  1  0  0  0  0  0  0  0  0  0
    7.3521  -14.7539   19.1535 C   0  0  0  0  0  0  0  0  0  0  0  0
    8.6878  -15.1343   18.6197 C   0  0  0  0  0  0  0  0  0  0  0  0
    8.7308  -16.4362   17.9447 C   0  0  0  0  0  0  0  0  0  0  0  0
    7.6822  -17.0601   17.6864 O   0  0  0  0  0  0  0  0  0  0  0  0
    8.0066  -13.4474   21.0986 C   0  0  0  0  0  0  0  0  0  0  0  0
    8.7054  -12.4457   21.4005 O   0  0  0  0  0  0  0  0  0  0  0  0
    9.9425  -17.0159   17.5714 O   0  0  0  0  0  0  0  0  0  0  0  0
    6.6264  -13.9289   24.5898 O   0  0  0  0  0  0  0  0  0  0  0  0
    7.7481  -13.3519   23.9723 C   0  0  0  0  0  0  0  0  0  0  0  0
    8.4716  -14.5030   23.2593 C   0  0  2  0  0  0  0  0  0  0  0  0
    7.9190  -14.5823   21.9478 N   0  0  0  0  0  0  0  0  0  0  0  0
    8.2862  -15.7223   24.0651 C   0  0  0  0  0  0  0  0  0  0  0  0
    7.3114  -16.4801   23.8324 O   0  0  0  0  0  0  0  0  0  0  0  0
   11.8795  -19.3836   24.7334 N   0  0  0  0  0  0  0  0  0  0  0  0
   11.9427  -18.3043   23.8190 C   0  0  0  0  0  0  0  0  0  0  0  0
   12.8258  -18.3215   22.9277 O   0  0  0  0  0  0  0  0  0  0  0  0
   11.0093  -17.1546   23.8705 C   0  0  0  0  0  0  0  0  0  0  0  0
   10.0752  -17.2123   25.0303 C   0  0  2  0  0  0  0  0  0  0  0  0
    9.1658  -16.1199   25.1299 N   0  0  0  0  0  0  0  0  0  0  0  0
   10.8432  -17.4393   26.2925 C   0  0  0  0  0  0  0  0  0  0  0  0
   10.4045  -18.4589   27.1231 O   0  0  0  0  0  0  0  0  0  0  0  0
   11.8299  -16.7743   26.6227 O   0  0  0  0  0  0  0  0  0  0  0  0
  2  1  1  6
  3  2  1  0
  3  4  1  0
  4  5  1  0
  5  6  2  0
  5  9  1  0
  7  2  1  0
  7  8  2  0
 10 11  1  0
 12 11  1  1
 12 13  1  0
 13  7  1  0
 14 12  1  0
 15 14  2  0
 17 16  1  0
 17 18  2  0
 20 19  1  6
 19 17  1  0
 20 21  1  0
 21 14  1  0
 22 20  1  0
 23 22  1  0
 24 22  2  0
M  END
$$$$
