IVD.pdb
     RDKit          3D

 24 23  0  0  1  0  0  0  0  0999 V2000
    6.8856  -17.8335   19.1943 C   0  0  0  0  0  0  0  0  0  0  0  0
    6.8008  -16.3676   19.5229 C   0  0  0  0  0  0  0  0  0  0  0  0
    7.4833  -16.0289   20.8187 C   0  0  2  0  0  0  0  0  0  0  0  0
    7.1698  -17.0543   21.8707 C   0  0  0  0  0  0  0  0  0  0  0  0
    7.2635  -14.6240   21.2860 C   0  0  2  0  0  0  0  0  0  0  0  0
    7.7280  -13.7408   20.2334 N   0  0  0  0  0  0  0  0  0  0  0  0
    7.8917  -14.3301   22.5849 C   0  0  0  0  0  0  0  0  0  0  0  0
    9.1224  -14.1851   22.6636 O   0  0  0  0  0  0  0  0  0  0  0  0
    7.5943  -13.1498   27.4339 C   0  0  0  0  0  0  0  0  0  0  0  0
    6.8705  -13.3070   26.1046 C   0  0  1  0  0  0  0  0  0  0  0  0
    6.1386  -12.0657   25.6985 C   0  0  0  0  0  0  0  0  0  0  0  0
    7.7302  -13.8933   25.0460 C   0  0  2  0  0  0  0  0  0  0  0  0
    7.1829  -14.1935   23.7984 N   0  0  0  0  0  0  0  0  0  0  0  0
    8.3514  -15.1351   25.6056 C   0  0  0  0  0  0  0  0  0  0  0  0
    7.6374  -16.1541   25.8987 O   0  0  0  0  0  0  0  0  0  0  0  0
    9.7433  -15.2597   25.8422 N   0  0  0  0  0  0  0  0  0  0  0  0
   10.2805  -16.4963   26.4303 C   0  0  1  0  0  0  0  0  0  0  0  0
   11.7671  -16.5957   26.1395 C   0  0  0  0  0  0  0  0  0  0  0  0
   12.0170  -17.7393   25.2423 C   0  0  0  0  0  0  0  0  0  0  0  0
   11.0595  -18.4715   24.9051 O   0  0  0  0  0  0  0  0  0  0  0  0
    9.9695  -16.4730   27.8703 C   0  0  0  0  0  0  0  0  0  0  0  0
    9.5478  -17.6367   28.4927 O   0  0  0  0  0  0  0  0  0  0  0  0
   13.2749  -18.0410   24.7525 O   0  0  0  0  0  0  0  0  0  0  0  0
   10.0627  -15.4464   28.5895 O   0  0  0  0  0  0  0  0  0  0  0  0
  2  1  1  0
  3  5  1  0
  3  2  1  0
  3  4  1  1
  5  7  1  0
  5  6  1  6
  7  8  2  0
 10 12  1  0
 10  9  1  1
 11 10  1  0
 12 14  1  0
 13  7  1  0
 12 13  1  6
 14 15  2  0
 16 17  1  0
 16 14  1  0
 17 21  1  0
 17 18  1  1
 19 23  1  0
 19 18  1  0
 20 19  2  0
 21 24  2  0
 21 22  1  0
M  END
$$$$
