IVD.pdb
     RDKit          3D

 24 23  0  0  1  0  0  0  0  0999 V2000
    6.7309  -11.6673   27.8924 C   0  0  0  0  0  0  0  0  0  0  0  0
    6.0387  -12.7288   27.0813 C   0  0  0  0  0  0  0  0  0  0  0  0
    7.0077  -13.6464   26.3894 C   0  0  2  0  0  0  0  0  0  0  0  0
    8.0696  -12.8601   25.6749 C   0  0  0  0  0  0  0  0  0  0  0  0
    6.3666  -14.6860   25.5242 C   0  0  2  0  0  0  0  0  0  0  0  0
    5.5933  -15.5535   26.3921 N   0  0  0  0  0  0  0  0  0  0  0  0
    7.3249  -15.4326   24.6920 C   0  0  0  0  0  0  0  0  0  0  0  0
    7.8192  -16.4926   25.1089 O   0  0  0  0  0  0  0  0  0  0  0  0
    9.4549  -16.3043   20.2548 C   0  0  0  0  0  0  0  0  0  0  0  0
    8.6263  -15.3469   21.0990 C   0  0  1  0  0  0  0  0  0  0  0  0
    7.3234  -14.9915   20.4529 C   0  0  0  0  0  0  0  0  0  0  0  0
    8.5185  -15.7741   22.5165 C   0  0  2  0  0  0  0  0  0  0  0  0
    7.7462  -15.0275   23.4067 N   0  0  0  0  0  0  0  0  0  0  0  0
    9.9082  -15.8794   23.0630 C   0  0  0  0  0  0  0  0  0  0  0  0
   10.5583  -14.8364   23.4145 O   0  0  0  0  0  0  0  0  0  0  0  0
   10.5802  -17.1170   23.2232 N   0  0  0  0  0  0  0  0  0  0  0  0
   11.9578  -17.1434   23.7382 C   0  0  1  0  0  0  0  0  0  0  0  0
   12.2586  -18.5125   24.3209 C   0  0  0  0  0  0  0  0  0  0  0  0
   11.7628  -18.5757   25.7085 C   0  0  0  0  0  0  0  0  0  0  0  0
   11.4075  -17.5196   26.2787 O   0  0  0  0  0  0  0  0  0  0  0  0
   12.8526  -16.7745   22.6273 C   0  0  0  0  0  0  0  0  0  0  0  0
   13.9073  -15.9079   22.8642 O   0  0  0  0  0  0  0  0  0  0  0  0
   11.6724  -19.7620   26.4140 O   0  0  0  0  0  0  0  0  0  0  0  0
   12.7220  -17.2016   21.4525 O   0  0  0  0  0  0  0  0  0  0  0  0
  2  1  1  0
  3  5  1  0
  3  2  1  0
  3  4  1  6
  5  7  1  0
  5  6  1  1
  7  8  2  0
 10 12  1  0
 10  9  1  6
 11 10  1  0
 12 14  1  0
 13  7  1  0
 12 13  1  1
 14 15  2  0
 16 17  1  0
 16 14  1  0
 17 21  1  0
 17 18  1  6
 19 23  1  0
 19 18  1  0
 20 19  2  0
 21 24  2  0
 21 22  1  0
M  END
$$$$
