IVD.pdb
     RDKit          3D

 24 23  0  0  1  0  0  0  0  0999 V2000
    7.6948  -12.3795   28.1148 C   0  0  0  0  0  0  0  0  0  0  0  0
    6.8211  -13.3750   27.4011 C   0  0  0  0  0  0  0  0  0  0  0  0
    7.5359  -14.0595   26.2697 C   0  0  2  0  0  0  0  0  0  0  0  0
    8.1982  -13.0542   25.3712 C   0  0  0  0  0  0  0  0  0  0  0  0
    6.7037  -15.0544   25.5226 C   0  0  2  0  0  0  0  0  0  0  0  0
    6.2059  -16.0141   26.4895 N   0  0  0  0  0  0  0  0  0  0  0  0
    7.4160  -15.6984   24.4064 C   0  0  0  0  0  0  0  0  0  0  0  0
    7.7549  -16.8902   24.4877 O   0  0  0  0  0  0  0  0  0  0  0  0
    6.4647  -14.5900   20.4020 C   0  0  0  0  0  0  0  0  0  0  0  0
    7.9174  -14.9131   20.7197 C   0  0  1  0  0  0  0  0  0  0  0  0
    8.8144  -13.7224   20.5813 C   0  0  0  0  0  0  0  0  0  0  0  0
    8.0763  -15.6637   21.9904 C   0  0  2  0  0  0  0  0  0  0  0  0
    7.7603  -15.0477   23.2015 N   0  0  0  0  0  0  0  0  0  0  0  0
    9.4921  -16.1458   22.0556 C   0  0  0  0  0  0  0  0  0  0  0  0
   10.0346  -16.7325   21.0579 O   0  0  0  0  0  0  0  0  0  0  0  0
   10.3070  -15.9865   23.2043 N   0  0  0  0  0  0  0  0  0  0  0  0
   11.6810  -16.5115   23.2086 C   0  0  1  0  0  0  0  0  0  0  0  0
   12.6607  -15.3793   22.9577 C   0  0  0  0  0  0  0  0  0  0  0  0
   14.0253  -15.9267   22.8425 C   0  0  0  0  0  0  0  0  0  0  0  0
   14.1883  -17.1676   22.8522 O   0  0  0  0  0  0  0  0  0  0  0  0
   11.8922  -17.1883   24.5002 C   0  0  0  0  0  0  0  0  0  0  0  0
   10.8503  -17.2532   25.4110 O   0  0  0  0  0  0  0  0  0  0  0  0
   15.1434  -15.1212   22.7231 O   0  0  0  0  0  0  0  0  0  0  0  0
   12.9776  -17.7230   24.8404 O   0  0  0  0  0  0  0  0  0  0  0  0
  2  1  1  0
  3  5  1  0
  3  2  1  0
  3  4  1  6
  5  7  1  0
  5  6  1  1
  7  8  2  0
 10 12  1  0
 10  9  1  1
 11 10  1  0
 12 14  1  0
 13  7  1  0
 12 13  1  1
 14 15  2  0
 16 17  1  0
 16 14  1  0
 17 21  1  0
 17 18  1  1
 19 23  1  0
 19 18  1  0
 20 19  2  0
 21 24  2  0
 21 22  1  0
M  END
$$$$
