IVD.pdb
     RDKit          3D

 24 23  0  0  1  0  0  0  0  0999 V2000
    6.7701  -11.6833   27.8921 C   0  0  0  0  0  0  0  0  0  0  0  0
    5.9856  -12.6343   27.0296 C   0  0  0  0  0  0  0  0  0  0  0  0
    6.8713  -13.5250   26.2039 C   0  0  2  0  0  0  0  0  0  0  0  0
    7.8913  -12.7161   25.4545 C   0  0  0  0  0  0  0  0  0  0  0  0
    6.1356  -14.4935   25.3314 C   0  0  2  0  0  0  0  0  0  0  0  0
    5.3154  -15.3186   26.1977 N   0  0  0  0  0  0  0  0  0  0  0  0
    7.0172  -15.2921   24.4637 C   0  0  0  0  0  0  0  0  0  0  0  0
    7.5028  -16.3568   24.8789 O   0  0  0  0  0  0  0  0  0  0  0  0
    6.7394  -15.4860   20.1662 C   0  0  0  0  0  0  0  0  0  0  0  0
    8.1143  -15.3595   20.8059 C   0  0  1  0  0  0  0  0  0  0  0  0
    8.7845  -14.0622   20.4757 C   0  0  0  0  0  0  0  0  0  0  0  0
    8.1125  -15.7059   22.2493 C   0  0  2  0  0  0  0  0  0  0  0  0
    7.3715  -14.9341   23.1446 N   0  0  0  0  0  0  0  0  0  0  0  0
    9.5371  -15.7330   22.7086 C   0  0  0  0  0  0  0  0  0  0  0  0
   10.0500  -14.7361   23.3228 O   0  0  0  0  0  0  0  0  0  0  0  0
   10.3928  -16.8429   22.4969 N   0  0  0  0  0  0  0  0  0  0  0  0
   11.6802  -16.9230   23.2038 C   0  0  1  0  0  0  0  0  0  0  0  0
   11.7557  -18.2253   23.9804 C   0  0  0  0  0  0  0  0  0  0  0  0
   13.0591  -18.3145   24.6648 C   0  0  0  0  0  0  0  0  0  0  0  0
   13.8854  -17.3843   24.5283 O   0  0  0  0  0  0  0  0  0  0  0  0
   12.7472  -16.7830   22.1975 C   0  0  0  0  0  0  0  0  0  0  0  0
   14.0360  -16.4877   22.6110 O   0  0  0  0  0  0  0  0  0  0  0  0
   13.4118  -19.3912   25.4582 O   0  0  0  0  0  0  0  0  0  0  0  0
   12.5643  -16.9161   20.9611 O   0  0  0  0  0  0  0  0  0  0  0  0
  2  1  1  0
  3  5  1  0
  3  2  1  0
  3  4  1  6
  5  7  1  0
  5  6  1  1
  7  8  2  0
 10 12  1  0
 10  9  1  1
 11 10  1  0
 12 14  1  0
 13  7  1  0
 12 13  1  1
 14 15  2  0
 16 17  1  0
 16 14  1  0
 17 21  1  0
 17 18  1  6
 19 23  1  0
 19 18  1  0
 20 19  2  0
 21 24  2  0
 21 22  1  0
M  END
$$$$
