IVD.pdb
     RDKit          3D

 24 23  0  0  1  0  0  0  0  0999 V2000
    6.7651  -11.4156   27.9348 C   0  0  0  0  0  0  0  0  0  0  0  0
    6.0462  -12.4742   27.1434 C   0  0  0  0  0  0  0  0  0  0  0  0
    6.9914  -13.3880   26.4147 C   0  0  2  0  0  0  0  0  0  0  0  0
    8.0296  -12.5978   25.6703 C   0  0  0  0  0  0  0  0  0  0  0  0
    6.3217  -14.4223   25.5650 C   0  0  2  0  0  0  0  0  0  0  0  0
    5.5423  -15.2685   26.4482 N   0  0  0  0  0  0  0  0  0  0  0  0
    7.2567  -15.1929   24.7282 C   0  0  0  0  0  0  0  0  0  0  0  0
    7.8069  -16.2094   25.1819 O   0  0  0  0  0  0  0  0  0  0  0  0
    9.3253  -16.1764   20.2751 C   0  0  0  0  0  0  0  0  0  0  0  0
    8.4524  -15.2337   21.0908 C   0  0  1  0  0  0  0  0  0  0  0  0
    7.1467  -14.9361   20.4215 C   0  0  0  0  0  0  0  0  0  0  0  0
    8.3405  -15.6387   22.5144 C   0  0  2  0  0  0  0  0  0  0  0  0
    7.5941  -14.8591   23.3984 N   0  0  0  0  0  0  0  0  0  0  0  0
    9.7297  -15.7754   23.0553 C   0  0  0  0  0  0  0  0  0  0  0  0
   10.4305  -14.7445   23.3383 O   0  0  0  0  0  0  0  0  0  0  0  0
   10.3461  -17.0310   23.2842 N   0  0  0  0  0  0  0  0  0  0  0  0
   11.7127  -17.0905   23.8251 C   0  0  1  0  0  0  0  0  0  0  0  0
   11.9015  -18.3861   24.5934 C   0  0  0  0  0  0  0  0  0  0  0  0
   13.2933  -18.4748   25.0729 C   0  0  0  0  0  0  0  0  0  0  0  0
   14.0730  -17.5180   24.8648 O   0  0  0  0  0  0  0  0  0  0  0  0
   12.6437  -16.9447   22.6925 C   0  0  0  0  0  0  0  0  0  0  0  0
   13.7533  -16.1260   22.8267 O   0  0  0  0  0  0  0  0  0  0  0  0
   13.7794  -19.5793   25.7489 O   0  0  0  0  0  0  0  0  0  0  0  0
   12.4972  -17.5254   21.5874 O   0  0  0  0  0  0  0  0  0  0  0  0
  2  1  1  0
  3  5  1  0
  3  2  1  0
  3  4  1  6
  5  7  1  0
  5  6  1  1
  7  8  2  0
 10 12  1  0
 10  9  1  6
 11 10  1  0
 12 14  1  0
 13  7  1  0
 12 13  1  1
 14 15  2  0
 16 17  1  0
 16 14  1  0
 17 21  1  0
 17 18  1  6
 19 23  1  0
 19 18  1  0
 20 19  2  0
 21 24  2  0
 21 22  1  0
M  END
$$$$
