IVD.pdb
     RDKit          3D

 24 23  0  0  1  0  0  0  0  0999 V2000
    5.7274  -18.4218   20.3515 C   0  0  0  0  0  0  0  0  0  0  0  0
    5.7187  -16.9328   20.5677 C   0  0  0  0  0  0  0  0  0  0  0  0
    6.6290  -16.5094   21.6865 C   0  0  2  0  0  0  0  0  0  0  0  0
    6.4145  -17.3657   22.9018 C   0  0  0  0  0  0  0  0  0  0  0  0
    6.5982  -15.0440   21.9895 C   0  0  2  0  0  0  0  0  0  0  0  0
    6.7928  -14.3395   20.7366 N   0  0  0  0  0  0  0  0  0  0  0  0
    7.5662  -14.6351   23.0209 C   0  0  0  0  0  0  0  0  0  0  0  0
    8.7780  -14.5861   22.7543 O   0  0  0  0  0  0  0  0  0  0  0  0
    7.5242  -11.6201   26.0228 C   0  0  0  0  0  0  0  0  0  0  0  0
    7.6674  -13.0673   26.4708 C   0  0  1  0  0  0  0  0  0  0  0  0
    6.4789  -13.5501   27.2426 C   0  0  0  0  0  0  0  0  0  0  0  0
    8.1026  -13.9694   25.3754 C   0  0  2  0  0  0  0  0  0  0  0  0
    7.2179  -14.2793   24.3422 N   0  0  0  0  0  0  0  0  0  0  0  0
    8.5708  -15.2462   26.0013 C   0  0  0  0  0  0  0  0  0  0  0  0
    7.7386  -16.1488   26.3574 O   0  0  0  0  0  0  0  0  0  0  0  0
    9.9392  -15.5318   26.2354 N   0  0  0  0  0  0  0  0  0  0  0  0
   10.3204  -16.7486   26.9686 C   0  0  1  0  0  0  0  0  0  0  0  0
   11.6953  -17.2069   26.5168 C   0  0  0  0  0  0  0  0  0  0  0  0
   11.6711  -17.4785   25.0674 C   0  0  0  0  0  0  0  0  0  0  0  0
   10.7412  -18.1677   24.5907 O   0  0  0  0  0  0  0  0  0  0  0  0
   10.2545  -16.4373   28.4072 C   0  0  0  0  0  0  0  0  0  0  0  0
   10.3766  -17.4634   29.3302 O   0  0  0  0  0  0  0  0  0  0  0  0
   12.6399  -17.0006   24.2036 O   0  0  0  0  0  0  0  0  0  0  0  0
   10.0913  -15.2783   28.8653 O   0  0  0  0  0  0  0  0  0  0  0  0
  2  1  1  0
  3  5  1  0
  3  2  1  0
  3  4  1  1
  5  7  1  0
  5  6  1  6
  7  8  2  0
 10 12  1  0
 10  9  1  6
 11 10  1  0
 12 14  1  0
 13  7  1  0
 12 13  1  6
 14 15  2  0
 16 17  1  0
 16 14  1  0
 17 21  1  0
 17 18  1  6
 19 23  1  0
 19 18  1  0
 20 19  2  0
 21 24  2  0
 21 22  1  0
M  END
$$$$
