IVD.pdb
     RDKit          3D

 24 23  0  0  1  0  0  0  0  0999 V2000
    7.3028  -21.2248   16.9308 C   0  0  0  0  0  0  0  0  0  0  0  0
    7.2559  -19.7584   16.5975 C   0  0  0  0  0  0  0  0  0  0  0  0
    7.9158  -18.9090   17.6476 C   0  0  2  0  0  0  0  0  0  0  0  0
    7.4408  -19.2929   19.0200 C   0  0  0  0  0  0  0  0  0  0  0  0
    7.8389  -17.4363   17.3917 C   0  0  2  0  0  0  0  0  0  0  0  0
    8.4455  -17.1904   16.0973 N   0  0  0  0  0  0  0  0  0  0  0  0
    8.4413  -16.6205   18.4593 C   0  0  0  0  0  0  0  0  0  0  0  0
    9.6490  -16.7341   18.7245 O   0  0  0  0  0  0  0  0  0  0  0  0
    8.1168  -13.1304   22.0349 C   0  0  0  0  0  0  0  0  0  0  0  0
    7.4822  -13.7594   20.8031 C   0  0  1  0  0  0  0  0  0  0  0  0
    7.1223  -12.7463   19.7612 C   0  0  0  0  0  0  0  0  0  0  0  0
    8.2448  -14.9269   20.2943 C   0  0  2  0  0  0  0  0  0  0  0  0
    7.7316  -15.6812   19.2389 N   0  0  0  0  0  0  0  0  0  0  0  0
    8.4993  -15.8396   21.4533 C   0  0  0  0  0  0  0  0  0  0  0  0
    7.7509  -16.8530   21.6701 O   0  0  0  0  0  0  0  0  0  0  0  0
    9.5646  -15.6438   22.3674 N   0  0  0  0  0  0  0  0  0  0  0  0
   10.1625  -16.7977   23.0564 C   0  0  1  0  0  0  0  0  0  0  0  0
   10.5763  -17.8429   22.0362 C   0  0  0  0  0  0  0  0  0  0  0  0
   11.2192  -18.9764   22.7270 C   0  0  0  0  0  0  0  0  0  0  0  0
   10.6976  -19.4311   23.7700 O   0  0  0  0  0  0  0  0  0  0  0  0
   11.2876  -16.2962   23.8648 C   0  0  0  0  0  0  0  0  0  0  0  0
   11.2917  -16.5156   25.2327 O   0  0  0  0  0  0  0  0  0  0  0  0
   12.3841  -19.5644   22.2685 O   0  0  0  0  0  0  0  0  0  0  0  0
   12.2665  -15.6685   23.3877 O   0  0  0  0  0  0  0  0  0  0  0  0
  2  1  1  0
  3  5  1  0
  3  2  1  0
  3  4  1  1
  5  7  1  0
  5  6  1  6
  7  8  2  0
 10 12  1  0
 10  9  1  1
 11 10  1  0
 12 14  1  0
 13  7  1  0
 12 13  1  6
 14 15  2  0
 16 17  1  0
 16 14  1  0
 17 21  1  0
 17 18  1  6
 19 23  1  0
 19 18  1  0
 20 19  2  0
 21 24  2  0
 21 22  1  0
M  END
$$$$
