IVD.pdb
     RDKit          3D

 24 23  0  0  1  0  0  0  0  0999 V2000
    6.9390  -11.2001   27.8575 C   0  0  0  0  0  0  0  0  0  0  0  0
    6.1531  -12.2239   27.0841 C   0  0  0  0  0  0  0  0  0  0  0  0
    7.0375  -13.1938   26.3516 C   0  0  2  0  0  0  0  0  0  0  0  0
    8.0901  -12.4664   25.5646 C   0  0  0  0  0  0  0  0  0  0  0  0
    6.3007  -14.2140   25.5412 C   0  0  2  0  0  0  0  0  0  0  0  0
    5.4591  -14.9646   26.4534 N   0  0  0  0  0  0  0  0  0  0  0  0
    7.1830  -15.0836   24.7454 C   0  0  0  0  0  0  0  0  0  0  0  0
    7.6980  -16.0889   25.2611 O   0  0  0  0  0  0  0  0  0  0  0  0
    6.9589  -15.5552   20.4284 C   0  0  0  0  0  0  0  0  0  0  0  0
    8.3162  -15.4456   21.1077 C   0  0  1  0  0  0  0  0  0  0  0  0
    9.0500  -14.1973   20.7274 C   0  0  0  0  0  0  0  0  0  0  0  0
    8.2527  -15.7061   22.5677 C   0  0  2  0  0  0  0  0  0  0  0  0
    7.5060  -14.8610   23.3890 N   0  0  0  0  0  0  0  0  0  0  0  0
    9.6587  -15.7490   23.0799 C   0  0  0  0  0  0  0  0  0  0  0  0
   10.2248  -14.6986   23.5384 O   0  0  0  0  0  0  0  0  0  0  0  0
   10.4382  -16.9327   23.0899 N   0  0  0  0  0  0  0  0  0  0  0  0
   11.7821  -16.9221   23.6878 C   0  0  1  0  0  0  0  0  0  0  0  0
   12.1085  -18.3005   24.2338 C   0  0  0  0  0  0  0  0  0  0  0  0
   11.2355  -18.5920   25.3862 C   0  0  0  0  0  0  0  0  0  0  0  0
   10.5100  -19.6117   25.3601 O   0  0  0  0  0  0  0  0  0  0  0  0
   12.7247  -16.4692   22.6499 C   0  0  0  0  0  0  0  0  0  0  0  0
   12.4248  -16.6932   21.3160 O   0  0  0  0  0  0  0  0  0  0  0  0
   11.1827  -17.7804   26.5050 O   0  0  0  0  0  0  0  0  0  0  0  0
   13.8071  -15.8800   22.8971 O   0  0  0  0  0  0  0  0  0  0  0  0
  2  1  1  0
  3  5  1  0
  3  2  1  0
  3  4  1  6
  5  7  1  0
  5  6  1  1
  7  8  2  0
 10 12  1  0
 10  9  1  1
 11 10  1  0
 12 14  1  0
 13  7  1  0
 12 13  1  1
 14 15  2  0
 16 17  1  0
 16 14  1  0
 17 21  1  0
 17 18  1  6
 19 23  1  0
 19 18  1  0
 20 19  2  0
 21 24  2  0
 21 22  1  0
M  END
$$$$
