IVD.pdb
     RDKit          3D

 24 23  0  0  1  0  0  0  0  0999 V2000
    5.8953  -17.5312   20.5084 C   0  0  0  0  0  0  0  0  0  0  0  0
    6.0395  -16.1649   21.1219 C   0  0  0  0  0  0  0  0  0  0  0  0
    6.9161  -15.2577   20.3045 C   0  0  2  0  0  0  0  0  0  0  0  0
    8.2266  -15.9220   19.9918 C   0  0  0  0  0  0  0  0  0  0  0  0
    7.0771  -13.8800   20.8669 C   0  0  2  0  0  0  0  0  0  0  0  0
    7.7343  -13.0745   19.8554 N   0  0  0  0  0  0  0  0  0  0  0  0
    7.7850  -13.8495   22.1576 C   0  0  0  0  0  0  0  0  0  0  0  0
    9.0254  -13.8941   22.1897 O   0  0  0  0  0  0  0  0  0  0  0  0
    7.8134  -13.2553   27.1249 C   0  0  0  0  0  0  0  0  0  0  0  0
    6.9961  -13.2349   25.8415 C   0  0  1  0  0  0  0  0  0  0  0  0
    6.2517  -11.9495   25.6547 C   0  0  0  0  0  0  0  0  0  0  0  0
    7.7724  -13.6788   24.6567 C   0  0  2  0  0  0  0  0  0  0  0  0
    7.1452  -13.7706   23.4139 N   0  0  0  0  0  0  0  0  0  0  0  0
    8.3766  -15.0084   24.9853 C   0  0  0  0  0  0  0  0  0  0  0  0
    7.6679  -16.0723   24.9837 O   0  0  0  0  0  0  0  0  0  0  0  0
    9.7459  -15.1715   25.3131 N   0  0  0  0  0  0  0  0  0  0  0  0
   10.2911  -16.5184   25.5413 C   0  0  1  0  0  0  0  0  0  0  0  0
   11.6615  -16.6300   24.8977 C   0  0  0  0  0  0  0  0  0  0  0  0
   12.2523  -17.9414   25.2238 C   0  0  0  0  0  0  0  0  0  0  0  0
   13.0246  -18.0364   26.2042 O   0  0  0  0  0  0  0  0  0  0  0  0
   10.3114  -16.7469   26.9967 C   0  0  0  0  0  0  0  0  0  0  0  0
   10.2874  -18.0449   27.4805 O   0  0  0  0  0  0  0  0  0  0  0  0
   11.9878  -19.0816   24.4868 O   0  0  0  0  0  0  0  0  0  0  0  0
   10.3500  -15.8241   27.8491 O   0  0  0  0  0  0  0  0  0  0  0  0
  2  1  1  0
  3  5  1  0
  3  2  1  0
  3  4  1  1
  5  7  1  0
  5  6  1  6
  7  8  2  0
 10 12  1  0
 10  9  1  1
 11 10  1  0
 12 14  1  0
 13  7  1  0
 12 13  1  6
 14 15  2  0
 16 17  1  0
 16 14  1  0
 17 21  1  0
 17 18  1  1
 19 23  1  0
 19 18  1  0
 20 19  2  0
 21 24  2  0
 21 22  1  0
M  END
$$$$
