IVD.pdb
     RDKit          3D

 24 23  0  0  1  0  0  0  0  0999 V2000
    7.2175  -18.3756   19.8595 C   0  0  0  0  0  0  0  0  0  0  0  0
    6.9925  -16.9054   20.0870 C   0  0  0  0  0  0  0  0  0  0  0  0
    7.6815  -16.4036   21.3252 C   0  0  2  0  0  0  0  0  0  0  0  0
    7.4599  -17.3425   22.4766 C   0  0  0  0  0  0  0  0  0  0  0  0
    7.3817  -14.9773   21.6662 C   0  0  2  0  0  0  0  0  0  0  0  0
    7.7007  -14.1777   20.4989 N   0  0  0  0  0  0  0  0  0  0  0  0
    8.0713  -14.5038   22.8779 C   0  0  0  0  0  0  0  0  0  0  0  0
    9.3079  -14.3912   22.8878 O   0  0  0  0  0  0  0  0  0  0  0  0
    8.0790  -12.7502   27.5553 C   0  0  0  0  0  0  0  0  0  0  0  0
    7.2577  -13.0633   26.3131 C   0  0  1  0  0  0  0  0  0  0  0  0
    6.5109  -11.8706   25.8022 C   0  0  0  0  0  0  0  0  0  0  0  0
    8.0310  -13.7985   25.2811 C   0  0  2  0  0  0  0  0  0  0  0  0
    7.4176  -14.1524   24.0791 N   0  0  0  0  0  0  0  0  0  0  0  0
    8.5747  -15.0373   25.9220 C   0  0  0  0  0  0  0  0  0  0  0  0
    7.7978  -15.9828   26.2916 O   0  0  0  0  0  0  0  0  0  0  0  0
    9.9580  -15.2389   26.1561 N   0  0  0  0  0  0  0  0  0  0  0  0
   10.4236  -16.4898   26.7740 C   0  0  1  0  0  0  0  0  0  0  0  0
   11.8409  -16.7873   26.3185 C   0  0  0  0  0  0  0  0  0  0  0  0
   11.9322  -16.6207   24.8560 C   0  0  0  0  0  0  0  0  0  0  0  0
   11.1621  -17.2751   24.1175 O   0  0  0  0  0  0  0  0  0  0  0  0
   10.3023  -16.3342   28.2341 C   0  0  0  0  0  0  0  0  0  0  0  0
   10.2357  -15.0617   28.7780 O   0  0  0  0  0  0  0  0  0  0  0  0
   12.8402  -15.7649   24.2589 O   0  0  0  0  0  0  0  0  0  0  0  0
   10.2541  -17.2985   29.0387 O   0  0  0  0  0  0  0  0  0  0  0  0
  2  1  1  0
  3  5  1  0
  3  2  1  0
  3  4  1  1
  5  7  1  0
  5  6  1  6
  7  8  2  0
 10 12  1  0
 10  9  1  1
 11 10  1  0
 12 14  1  0
 13  7  1  0
 12 13  1  6
 14 15  2  0
 16 17  1  0
 16 14  1  0
 17 21  1  0
 17 18  1  1
 19 23  1  0
 19 18  1  0
 20 19  2  0
 21 24  2  0
 21 22  1  0
M  END
$$$$
