IVD.pdb
     RDKit          3D

 24 23  0  0  1  0  0  0  0  0999 V2000
    6.8180  -11.6607   27.5921 C   0  0  0  0  0  0  0  0  0  0  0  0
    6.0998  -12.8058   26.9313 C   0  0  0  0  0  0  0  0  0  0  0  0
    7.0381  -13.7349   26.2131 C   0  0  2  0  0  0  0  0  0  0  0  0
    7.9954  -12.9636   25.3499 C   0  0  0  0  0  0  0  0  0  0  0  0
    6.3639  -14.8548   25.4841 C   0  0  2  0  0  0  0  0  0  0  0  0
    5.8547  -15.7756   26.4825 N   0  0  0  0  0  0  0  0  0  0  0  0
    7.2291  -15.5195   24.4953 C   0  0  0  0  0  0  0  0  0  0  0  0
    7.7971  -16.5862   24.7808 O   0  0  0  0  0  0  0  0  0  0  0  0
    8.8776  -15.9976   19.7939 C   0  0  0  0  0  0  0  0  0  0  0  0
    8.0257  -15.2034   20.7734 C   0  0  1  0  0  0  0  0  0  0  0  0
    6.6216  -15.0126   20.2901 C   0  0  0  0  0  0  0  0  0  0  0  0
    8.1387  -15.6981   22.1683 C   0  0  2  0  0  0  0  0  0  0  0  0
    7.4774  -15.0254   23.1962 N   0  0  0  0  0  0  0  0  0  0  0  0
    9.5956  -15.7697   22.5051 C   0  0  0  0  0  0  0  0  0  0  0  0
   10.2372  -14.7287   22.8777 O   0  0  0  0  0  0  0  0  0  0  0  0
   10.3435  -16.9715   22.4343 N   0  0  0  0  0  0  0  0  0  0  0  0
   11.7627  -16.9772   22.8212 C   0  0  1  0  0  0  0  0  0  0  0  0
   11.9630  -17.8959   24.0129 C   0  0  0  0  0  0  0  0  0  0  0  0
   13.4010  -17.9859   24.3278 C   0  0  0  0  0  0  0  0  0  0  0  0
   14.0193  -16.9498   24.6608 O   0  0  0  0  0  0  0  0  0  0  0  0
   12.5423  -17.3807   21.6379 C   0  0  0  0  0  0  0  0  0  0  0  0
   13.8321  -16.9006   21.4786 O   0  0  0  0  0  0  0  0  0  0  0  0
   14.1031  -19.1764   24.2708 O   0  0  0  0  0  0  0  0  0  0  0  0
   12.1078  -18.1481   20.7423 O   0  0  0  0  0  0  0  0  0  0  0  0
  2  1  1  0
  3  5  1  0
  3  2  1  0
  3  4  1  6
  5  7  1  0
  5  6  1  1
  7  8  2  0
 10 12  1  0
 10  9  1  6
 11 10  1  0
 12 14  1  0
 13  7  1  0
 12 13  1  1
 14 15  2  0
 16 17  1  0
 16 14  1  0
 17 21  1  0
 17 18  1  1
 19 23  1  0
 19 18  1  0
 20 19  2  0
 21 24  2  0
 21 22  1  0
M  END
$$$$
