IVD.pdb
     RDKit          3D

 24 23  0  0  1  0  0  0  0  0999 V2000
    4.7291  -21.6796   20.8635 C   0  0  0  0  0  0  0  0  0  0  0  0
    4.6223  -20.4599   21.7380 C   0  0  0  0  0  0  0  0  0  0  0  0
    5.8689  -19.6206   21.7083 C   0  0  2  0  0  0  0  0  0  0  0  0
    6.3408  -19.3168   23.1017 C   0  0  0  0  0  0  0  0  0  0  0  0
    5.7756  -18.4029   20.8429 C   0  0  2  0  0  0  0  0  0  0  0  0
    5.3959  -18.8449   19.5146 N   0  0  0  0  0  0  0  0  0  0  0  0
    7.0032  -17.5898   20.8356 C   0  0  0  0  0  0  0  0  0  0  0  0
    8.0793  -18.0887   20.4685 O   0  0  0  0  0  0  0  0  0  0  0  0
    7.3228  -13.4597   19.9554 C   0  0  0  0  0  0  0  0  0  0  0  0
    8.0503  -13.9488   21.1993 C   0  0  1  0  0  0  0  0  0  0  0  0
    7.5096  -13.3425   22.4568 C   0  0  0  0  0  0  0  0  0  0  0  0
    8.1981  -15.4253   21.2374 C   0  0  2  0  0  0  0  0  0  0  0  0
    7.0617  -16.2344   21.2271 N   0  0  0  0  0  0  0  0  0  0  0  0
    9.0152  -15.7660   22.4447 C   0  0  0  0  0  0  0  0  0  0  0  0
    8.4581  -16.1412   23.5323 O   0  0  0  0  0  0  0  0  0  0  0  0
   10.4307  -15.6962   22.4605 N   0  0  0  0  0  0  0  0  0  0  0  0
   11.1984  -16.5590   23.3715 C   0  0  1  0  0  0  0  0  0  0  0  0
   10.8024  -18.0086   23.1562 C   0  0  0  0  0  0  0  0  0  0  0  0
   11.6711  -18.8812   23.9680 C   0  0  0  0  0  0  0  0  0  0  0  0
   12.0023  -18.5138   25.1178 O   0  0  0  0  0  0  0  0  0  0  0  0
   12.6280  -16.3034   23.1234 C   0  0  0  0  0  0  0  0  0  0  0  0
   12.9989  -15.4967   22.0598 O   0  0  0  0  0  0  0  0  0  0  0  0
   12.1404  -20.0991   23.5102 O   0  0  0  0  0  0  0  0  0  0  0  0
   13.5557  -16.7777   23.8265 O   0  0  0  0  0  0  0  0  0  0  0  0
  2  1  1  0
  3  5  1  0
  3  2  1  0
  3  4  1  1
  5  7  1  0
  5  6  1  6
  7  8  2  0
 10 12  1  0
 10  9  1  6
 11 10  1  0
 12 14  1  0
 13  7  1  0
 12 13  1  1
 14 15  2  0
 16 17  1  0
 16 14  1  0
 17 21  1  0
 17 18  1  6
 19 23  1  0
 19 18  1  0
 20 19  2  0
 21 24  2  0
 21 22  1  0
M  END
$$$$
