IVD.pdb
     RDKit          3D

 24 23  0  0  1  0  0  0  0  0999 V2000
    8.3580  -21.6012   17.6090 C   0  0  0  0  0  0  0  0  0  0  0  0
    8.0681  -20.1990   17.1467 C   0  0  0  0  0  0  0  0  0  0  0  0
    8.5956  -19.1602   18.0966 C   0  0  2  0  0  0  0  0  0  0  0  0
    8.1983  -19.4789   19.5098 C   0  0  0  0  0  0  0  0  0  0  0  0
    8.2868  -17.7489   17.7053 C   0  0  2  0  0  0  0  0  0  0  0  0
    8.8021  -17.5498   16.3642 N   0  0  0  0  0  0  0  0  0  0  0  0
    8.7964  -16.7485   18.6579 C   0  0  0  0  0  0  0  0  0  0  0  0
   10.0191  -16.5698   18.7800 O   0  0  0  0  0  0  0  0  0  0  0  0
    8.0581  -12.9382   21.8059 C   0  0  0  0  0  0  0  0  0  0  0  0
    7.5307  -13.8004   20.6683 C   0  0  1  0  0  0  0  0  0  0  0  0
    7.1268  -12.9923   19.4745 C   0  0  0  0  0  0  0  0  0  0  0  0
    8.4115  -14.9560   20.3647 C   0  0  2  0  0  0  0  0  0  0  0  0
    7.9776  -15.9419   19.4780 N   0  0  0  0  0  0  0  0  0  0  0  0
    8.7662  -15.6070   21.6653 C   0  0  0  0  0  0  0  0  0  0  0  0
    7.9081  -16.3019   22.3094 O   0  0  0  0  0  0  0  0  0  0  0  0
   10.0502  -15.4976   22.2555 N   0  0  0  0  0  0  0  0  0  0  0  0
   10.5316  -16.5475   23.1663 C   0  0  1  0  0  0  0  0  0  0  0  0
   10.4502  -17.8976   22.4771 C   0  0  0  0  0  0  0  0  0  0  0  0
   10.9703  -18.9421   23.3791 C   0  0  0  0  0  0  0  0  0  0  0  0
   10.7824  -18.8333   24.6118 O   0  0  0  0  0  0  0  0  0  0  0  0
   11.8997  -16.1849   23.5759 C   0  0  0  0  0  0  0  0  0  0  0  0
   12.5639  -15.1723   22.9030 O   0  0  0  0  0  0  0  0  0  0  0  0
   11.6634  -20.0469   22.9183 O   0  0  0  0  0  0  0  0  0  0  0  0
   12.5198  -16.7438   24.5154 O   0  0  0  0  0  0  0  0  0  0  0  0
  2  1  1  0
  3  5  1  0
  3  2  1  0
  3  4  1  1
  5  7  1  0
  5  6  1  6
  7  8  2  0
 10 12  1  0
 10  9  1  1
 11 10  1  0
 12 14  1  0
 13  7  1  0
 12 13  1  6
 14 15  2  0
 16 17  1  0
 16 14  1  0
 17 21  1  0
 17 18  1  6
 19 23  1  0
 19 18  1  0
 20 19  2  0
 21 24  2  0
 21 22  1  0
M  END
$$$$
