WEL.pdb
     RDKit          3D

 32 33  0  0  1  0  0  0  0  0999 V2000
    6.6232  -17.7201   23.1212 N   0  0  0  0  0  0  0  0  0  0  0  0
    7.5471  -16.7782   23.6967 C   0  0  1  0  0  0  0  0  0  0  0  0
    7.1705  -16.5388   25.1383 C   0  0  0  0  0  0  0  0  0  0  0  0
    6.4662  -15.2536   25.3304 C   0  0  0  0  0  0  0  0  0  0  0  0
    5.2365  -15.1080   25.9863 C   0  0  0  0  0  0  0  0  0  0  0  0
    4.8799  -13.8127   26.0171 N   0  0  0  0  0  0  0  0  0  0  0  0
    5.8296  -13.0962   25.4045 C   0  0  0  0  0  0  0  0  0  0  0  0
    5.9114  -11.7371   25.1794 C   0  0  0  0  0  0  0  0  0  0  0  0
    7.0102  -11.2455   24.5050 C   0  0  0  0  0  0  0  0  0  0  0  0
    7.9988  -12.1115   24.0710 C   0  0  0  0  0  0  0  0  0  0  0  0
    7.8887  -13.4688   24.3117 C   0  0  0  0  0  0  0  0  0  0  0  0
    6.8167  -13.9783   24.9747 C   0  0  0  0  0  0  0  0  0  0  0  0
    8.9157  -17.3644   23.5938 C   0  0  0  0  0  0  0  0  0  0  0  0
    9.1384  -18.5488   23.9436 O   0  0  0  0  0  0  0  0  0  0  0  0
   10.0286  -16.5951   23.0912 N   0  0  0  0  0  0  0  0  0  0  0  0
   11.3741  -17.0470   23.2530 C   0  0  1  0  0  0  0  0  0  0  0  0
   12.4154  -16.3839   22.4417 C   0  0  0  0  0  0  0  0  0  0  0  0
   13.8089  -16.8431   22.5017 C   0  0  0  0  0  0  0  0  0  0  0  0
   14.8168  -16.1491   21.7164 C   0  0  0  0  0  0  0  0  0  0  0  0
   15.9839  -15.9782   22.1495 O   0  0  0  0  0  0  0  0  0  0  0  0
   11.7496  -17.1582   24.7016 C   0  0  0  0  0  0  0  0  0  0  0  0
   12.8981  -17.5261   25.0579 O   0  0  0  0  0  0  0  0  0  0  0  0
   14.5614  -15.6262   20.4332 O   0  0  0  0  0  0  0  0  0  0  0  0
    8.9475  -13.8621   28.1463 C   0  0  0  0  0  0  0  0  0  0  0  0
   10.0921  -14.5744   27.4997 C   0  0  1  0  0  0  0  0  0  0  0  0
   11.3840  -13.7678   27.6227 C   0  0  0  0  0  0  0  0  0  0  0  0
   10.2610  -15.9901   27.8412 C   0  0  0  0  0  0  0  0  0  0  0  0
   11.2525  -16.8456   27.1721 C   0  0  2  0  0  0  0  0  0  0  0  0
   10.8231  -16.8524   25.7309 N   0  0  0  0  0  0  0  0  0  0  0  0
   11.4331  -18.2192   27.5704 C   0  0  0  0  0  0  0  0  0  0  0  0
   11.8719  -18.5113   28.7393 O   0  0  0  0  0  0  0  0  0  0  0  0
   11.1580  -19.3041   26.7717 O   0  0  0  0  0  0  0  0  0  0  0  0
  2  1  1  1
  2 13  1  0
  3  2  1  0
  4  3  1  0
  5  4  2  0
  6  5  1  0
  7  6  1  0
  7 12  2  0
  8  7  1  0
  9  8  2  0
  9 10  1  0
 10 11  2  0
 11 12  1  0
 12  4  1  0
 13 14  2  0
 15 13  1  0
 15 16  1  0
 16 17  1  6
 18 17  1  0
 19 23  1  0
 19 18  1  0
 20 19  2  0
 21 16  1  0
 21 22  2  0
 25 24  1  1
 25 27  1  0
 25 26  1  0
 28 27  1  1
 28 29  1  0
 29 21  1  0
 30 28  1  0
 31 30  2  0
 32 30  1  0
M  END
$$$$
