WEL.pdb
     RDKit          3D

 32 33  0  0  1  0  0  0  0  0999 V2000
    6.2076  -18.2367   25.2225 N   0  0  0  0  0  0  0  0  0  0  0  0
    7.0641  -17.1369   24.8638 C   0  0  1  0  0  0  0  0  0  0  0  0
    7.0264  -16.1054   25.9647 C   0  0  0  0  0  0  0  0  0  0  0  0
    6.4307  -14.8281   25.5195 C   0  0  0  0  0  0  0  0  0  0  0  0
    5.3843  -14.1647   26.1741 C   0  0  0  0  0  0  0  0  0  0  0  0
    5.0918  -13.0194   25.5348 N   0  0  0  0  0  0  0  0  0  0  0  0
    5.9070  -12.9017   24.4802 C   0  0  0  0  0  0  0  0  0  0  0  0
    5.9869  -11.9089   23.5250 C   0  0  0  0  0  0  0  0  0  0  0  0
    6.9254  -12.0339   22.5212 C   0  0  0  0  0  0  0  0  0  0  0  0
    7.7596  -13.1378   22.4889 C   0  0  0  0  0  0  0  0  0  0  0  0
    7.6557  -14.1163   23.4604 C   0  0  0  0  0  0  0  0  0  0  0  0
    6.7402  -14.0164   24.4606 C   0  0  0  0  0  0  0  0  0  0  0  0
    8.4443  -17.6760   24.6858 C   0  0  0  0  0  0  0  0  0  0  0  0
    8.8346  -18.6772   25.3340 O   0  0  0  0  0  0  0  0  0  0  0  0
    9.3771  -17.0693   23.7668 N   0  0  0  0  0  0  0  0  0  0  0  0
   10.7661  -17.4022   23.7941 C   0  0  1  0  0  0  0  0  0  0  0  0
   11.5760  -17.0345   22.6147 C   0  0  0  0  0  0  0  0  0  0  0  0
   13.0010  -17.3836   22.5535 C   0  0  0  0  0  0  0  0  0  0  0  0
   13.7683  -17.0197   21.3732 C   0  0  0  0  0  0  0  0  0  0  0  0
   14.9818  -17.3256   21.2589 O   0  0  0  0  0  0  0  0  0  0  0  0
   11.4069  -16.9948   25.0884 C   0  0  0  0  0  0  0  0  0  0  0  0
   12.4686  -16.3214   25.1145 O   0  0  0  0  0  0  0  0  0  0  0  0
   13.2154  -16.3089   20.2897 O   0  0  0  0  0  0  0  0  0  0  0  0
    9.8020  -13.7272   28.4105 C   0  0  0  0  0  0  0  0  0  0  0  0
   10.7488  -14.6680   27.7366 C   0  0  1  0  0  0  0  0  0  0  0  0
   12.1224  -14.0261   27.5466 C   0  0  0  0  0  0  0  0  0  0  0  0
   10.8176  -16.0289   28.2774 C   0  0  0  0  0  0  0  0  0  0  0  0
   11.5855  -17.0967   27.6195 C   0  0  2  0  0  0  0  0  0  0  0  0
   10.8406  -17.3528   26.3384 N   0  0  0  0  0  0  0  0  0  0  0  0
   11.7800  -18.3718   28.2628 C   0  0  0  0  0  0  0  0  0  0  0  0
   12.4908  -18.4692   29.3255 O   0  0  0  0  0  0  0  0  0  0  0  0
   11.2398  -19.5569   27.8218 O   0  0  0  0  0  0  0  0  0  0  0  0
  2  1  1  1
  2 13  1  0
  3  2  1  0
  4  3  1  0
  5  4  2  0
  6  5  1  0
  7  6  1  0
  7 12  2  0
  8  7  1  0
  9  8  2  0
  9 10  1  0
 10 11  2  0
 11 12  1  0
 12  4  1  0
 13 14  2  0
 15 13  1  0
 15 16  1  0
 16 17  1  6
 18 17  1  0
 19 23  1  0
 19 18  1  0
 20 19  2  0
 21 16  1  0
 21 22  2  0
 25 24  1  1
 25 27  1  0
 25 26  1  0
 28 27  1  1
 28 29  1  0
 29 21  1  0
 30 28  1  0
 31 30  2  0
 32 30  1  0
M  END
$$$$
