WEL.pdb
     RDKit          3D

 32 33  0  0  1  0  0  0  0  0999 V2000
    6.0888  -17.3371   24.1395 N   0  0  0  0  0  0  0  0  0  0  0  0
    7.3481  -16.6436   24.0669 C   0  0  1  0  0  0  0  0  0  0  0  0
    7.6468  -16.0255   25.4108 C   0  0  0  0  0  0  0  0  0  0  0  0
    6.8951  -14.7726   25.6340 C   0  0  0  0  0  0  0  0  0  0  0  0
    5.6811  -14.6835   26.3283 C   0  0  0  0  0  0  0  0  0  0  0  0
    5.2712  -13.4046   26.3797 N   0  0  0  0  0  0  0  0  0  0  0  0
    6.1705  -12.6447   25.7438 C   0  0  0  0  0  0  0  0  0  0  0  0
    6.1878  -11.2820   25.5265 C   0  0  0  0  0  0  0  0  0  0  0  0
    7.2436  -10.7401   24.8227 C   0  0  0  0  0  0  0  0  0  0  0  0
    8.2539  -11.5605   24.3521 C   0  0  0  0  0  0  0  0  0  0  0  0
    8.2088  -12.9227   24.5858 C   0  0  0  0  0  0  0  0  0  0  0  0
    7.1802  -13.4814   25.2774 C   0  0  0  0  0  0  0  0  0  0  0  0
    8.3943  -17.6406   23.6946 C   0  0  0  0  0  0  0  0  0  0  0  0
    8.5201  -18.7132   24.3337 O   0  0  0  0  0  0  0  0  0  0  0  0
    9.2960  -17.4097   22.5917 N   0  0  0  0  0  0  0  0  0  0  0  0
   10.7118  -17.3997   22.7825 C   0  0  1  0  0  0  0  0  0  0  0  0
   11.5481  -16.9779   21.6403 C   0  0  0  0  0  0  0  0  0  0  0  0
   13.0118  -16.9603   21.7572 C   0  0  0  0  0  0  0  0  0  0  0  0
   13.8142  -17.5175   20.6803 C   0  0  0  0  0  0  0  0  0  0  0  0
   14.1131  -18.7377   20.6478 O   0  0  0  0  0  0  0  0  0  0  0  0
   11.0922  -16.7176   24.0639 C   0  0  0  0  0  0  0  0  0  0  0  0
   11.1511  -15.4645   24.1508 O   0  0  0  0  0  0  0  0  0  0  0  0
   14.3069  -16.7418   19.6123 O   0  0  0  0  0  0  0  0  0  0  0  0
   10.8492  -14.2860   28.4043 C   0  0  0  0  0  0  0  0  0  0  0  0
    9.9366  -15.4075   28.0234 C   0  0  1  0  0  0  0  0  0  0  0  0
    8.4719  -14.9822   28.1155 C   0  0  0  0  0  0  0  0  0  0  0  0
   10.2541  -16.1186   26.7812 C   0  0  0  0  0  0  0  0  0  0  0  0
   11.5538  -16.7702   26.5604 C   0  0  2  0  0  0  0  0  0  0  0  0
   11.4015  -17.4594   25.2325 N   0  0  0  0  0  0  0  0  0  0  0  0
   12.0596  -17.7463   27.4927 C   0  0  0  0  0  0  0  0  0  0  0  0
   13.0345  -17.4625   28.2757 O   0  0  0  0  0  0  0  0  0  0  0  0
   11.5627  -19.0209   27.6317 O   0  0  0  0  0  0  0  0  0  0  0  0
  2  1  1  1
  2 13  1  0
  3  2  1  0
  4  3  1  0
  5  4  2  0
  6  5  1  0
  7  6  1  0
  7 12  2  0
  8  7  1  0
  9  8  2  0
  9 10  1  0
 10 11  2  0
 11 12  1  0
 12  4  1  0
 13 14  2  0
 15 13  1  0
 15 16  1  0
 16 17  1  6
 18 17  1  0
 19 23  1  0
 19 18  1  0
 20 19  2  0
 21 16  1  0
 21 22  2  0
 25 24  1  6
 25 27  1  0
 25 26  1  0
 28 27  1  1
 28 29  1  0
 29 21  1  0
 30 28  1  0
 31 30  2  0
 32 30  1  0
M  END
$$$$
