WEL.pdb
     RDKit          3D

 32 33  0  0  1  0  0  0  0  0999 V2000
    6.2482  -18.0543   24.9451 N   0  0  0  0  0  0  0  0  0  0  0  0
    6.9787  -17.7730   23.7371 C   0  0  1  0  0  0  0  0  0  0  0  0
    6.4403  -16.5049   23.1214 C   0  0  0  0  0  0  0  0  0  0  0  0
    6.3021  -15.4139   24.1090 C   0  0  0  0  0  0  0  0  0  0  0  0
    5.7553  -15.5625   25.3906 C   0  0  0  0  0  0  0  0  0  0  0  0
    5.7977  -14.3919   26.0494 N   0  0  0  0  0  0  0  0  0  0  0  0
    6.3527  -13.4742   25.2492 C   0  0  0  0  0  0  0  0  0  0  0  0
    6.6043  -12.1358   25.4723 C   0  0  0  0  0  0  0  0  0  0  0  0
    7.1873  -11.3974   24.4630 C   0  0  0  0  0  0  0  0  0  0  0  0
    7.5056  -12.0025   23.2597 C   0  0  0  0  0  0  0  0  0  0  0  0
    7.2413  -13.3459   23.0659 C   0  0  0  0  0  0  0  0  0  0  0  0
    6.6685  -14.0958   24.0446 C   0  0  0  0  0  0  0  0  0  0  0  0
    8.4174  -17.6188   24.1024 C   0  0  0  0  0  0  0  0  0  0  0  0
    8.8572  -18.0585   25.1925 O   0  0  0  0  0  0  0  0  0  0  0  0
    9.3520  -16.9616   23.2208 N   0  0  0  0  0  0  0  0  0  0  0  0
   10.7462  -16.9065   23.5277 C   0  0  1  0  0  0  0  0  0  0  0  0
   11.6277  -16.2192   22.5619 C   0  0  0  0  0  0  0  0  0  0  0  0
   13.0873  -16.2982   22.7011 C   0  0  0  0  0  0  0  0  0  0  0  0
   13.9182  -16.1874   21.5130 C   0  0  0  0  0  0  0  0  0  0  0  0
   14.8224  -17.0237   21.2636 O   0  0  0  0  0  0  0  0  0  0  0  0
   10.9838  -16.4698   24.9436 C   0  0  0  0  0  0  0  0  0  0  0  0
   10.9202  -15.2595   25.2790 O   0  0  0  0  0  0  0  0  0  0  0  0
   13.7719  -15.1505   20.5704 O   0  0  0  0  0  0  0  0  0  0  0  0
    7.9860  -14.9673   27.8806 C   0  0  0  0  0  0  0  0  0  0  0  0
    9.4548  -15.2447   27.9141 C   0  0  1  0  0  0  0  0  0  0  0  0
   10.1017  -14.6419   29.1603 C   0  0  0  0  0  0  0  0  0  0  0  0
    9.8669  -16.6290   27.6622 C   0  0  0  0  0  0  0  0  0  0  0  0
   11.2684  -16.9970   27.4113 C   0  0  2  0  0  0  0  0  0  0  0  0
   11.2904  -17.4057   25.9641 N   0  0  0  0  0  0  0  0  0  0  0  0
   11.9021  -18.0514   28.1625 C   0  0  0  0  0  0  0  0  0  0  0  0
   12.1036  -17.9295   29.4230 O   0  0  0  0  0  0  0  0  0  0  0  0
   12.3284  -19.2429   27.6247 O   0  0  0  0  0  0  0  0  0  0  0  0
  2  1  1  1
  2 13  1  0
  3  2  1  0
  4  3  1  0
  5  4  2  0
  6  5  1  0
  7  6  1  0
  7 12  2  0
  8  7  1  0
  9  8  2  0
  9 10  1  0
 10 11  2  0
 11 12  1  0
 12  4  1  0
 13 14  2  0
 15 13  1  0
 15 16  1  0
 16 17  1  6
 18 17  1  0
 19 23  1  0
 19 18  1  0
 20 19  2  0
 21 16  1  0
 21 22  2  0
 25 24  1  1
 25 27  1  0
 25 26  1  0
 28 27  1  1
 28 29  1  0
 29 21  1  0
 30 28  1  0
 31 30  2  0
 32 30  1  0
M  END
$$$$
