WEL.pdb
     RDKit          3D

 32 33  0  0  1  0  0  0  0  0999 V2000
    7.0502  -17.1643   23.2902 N   0  0  0  0  0  0  0  0  0  0  0  0
    8.3759  -16.6176   23.1651 C   0  0  1  0  0  0  0  0  0  0  0  0
    8.3838  -15.2154   23.7228 C   0  0  0  0  0  0  0  0  0  0  0  0
    7.6373  -14.2662   22.8705 C   0  0  0  0  0  0  0  0  0  0  0  0
    6.4413  -13.6349   23.2376 C   0  0  0  0  0  0  0  0  0  0  0  0
    6.0321  -12.8137   22.2555 N   0  0  0  0  0  0  0  0  0  0  0  0
    6.9145  -12.8796   21.2517 C   0  0  0  0  0  0  0  0  0  0  0  0
    6.9256  -12.2305   20.0340 C   0  0  0  0  0  0  0  0  0  0  0  0
    7.9628  -12.4853   19.1605 C   0  0  0  0  0  0  0  0  0  0  0  0
    8.9614  -13.3758   19.5147 C   0  0  0  0  0  0  0  0  0  0  0  0
    8.9229  -14.0109   20.7424 C   0  0  0  0  0  0  0  0  0  0  0  0
    7.9126  -13.7765   21.6214 C   0  0  0  0  0  0  0  0  0  0  0  0
    9.3048  -17.5004   23.9299 C   0  0  0  0  0  0  0  0  0  0  0  0
    9.1051  -17.7500   25.1435 O   0  0  0  0  0  0  0  0  0  0  0  0
   10.4615  -18.0968   23.3062 N   0  0  0  0  0  0  0  0  0  0  0  0
   11.7495  -18.0335   23.9210 C   0  0  1  0  0  0  0  0  0  0  0  0
   12.9219  -17.9121   23.0306 C   0  0  0  0  0  0  0  0  0  0  0  0
   14.2822  -17.9880   23.5784 C   0  0  0  0  0  0  0  0  0  0  0  0
   15.3946  -18.2413   22.6770 C   0  0  0  0  0  0  0  0  0  0  0  0
   15.5282  -19.3459   22.0929 O   0  0  0  0  0  0  0  0  0  0  0  0
   11.7745  -17.0472   25.0517 C   0  0  0  0  0  0  0  0  0  0  0  0
   12.1452  -15.8579   24.8803 O   0  0  0  0  0  0  0  0  0  0  0  0
   16.3876  -17.2816   22.3977 O   0  0  0  0  0  0  0  0  0  0  0  0
    9.9737  -14.2451   29.2369 C   0  0  0  0  0  0  0  0  0  0  0  0
    9.8735  -14.8079   27.8553 C   0  0  1  0  0  0  0  0  0  0  0  0
    9.0413  -13.9013   26.9494 C   0  0  0  0  0  0  0  0  0  0  0  0
   11.1258  -15.2509   27.2349 C   0  0  0  0  0  0  0  0  0  0  0  0
   11.7359  -16.5532   27.5423 C   0  0  2  0  0  0  0  0  0  0  0  0
   11.3801  -17.4162   26.3631 N   0  0  0  0  0  0  0  0  0  0  0  0
   11.3669  -17.2806   28.7308 C   0  0  0  0  0  0  0  0  0  0  0  0
   10.7082  -18.3778   28.6507 O   0  0  0  0  0  0  0  0  0  0  0  0
   11.6775  -16.8886   30.0116 O   0  0  0  0  0  0  0  0  0  0  0  0
  2  1  1  1
  2 13  1  0
  3  2  1  0
  4  3  1  0
  5  4  2  0
  6  5  1  0
  7  6  1  0
  7 12  2  0
  8  7  1  0
  9  8  2  0
  9 10  1  0
 10 11  2  0
 11 12  1  0
 12  4  1  0
 13 14  2  0
 15 13  1  0
 15 16  1  0
 16 17  1  6
 18 17  1  0
 19 23  1  0
 19 18  1  0
 20 19  2  0
 21 16  1  0
 21 22  2  0
 25 24  1  1
 25 27  1  0
 25 26  1  0
 28 27  1  6
 28 29  1  0
 29 21  1  0
 30 28  1  0
 31 30  2  0
 32 30  1  0
M  END
$$$$
