WEL.pdb
     RDKit          3D

 32 33  0  0  1  0  0  0  0  0999 V2000
    6.3431  -17.5114   24.2890 N   0  0  0  0  0  0  0  0  0  0  0  0
    7.5529  -16.7339   24.2263 C   0  0  1  0  0  0  0  0  0  0  0  0
    7.7532  -16.0294   25.5457 C   0  0  0  0  0  0  0  0  0  0  0  0
    6.8089  -14.9081   25.7344 C   0  0  0  0  0  0  0  0  0  0  0  0
    5.6467  -14.9665   26.5152 C   0  0  0  0  0  0  0  0  0  0  0  0
    5.0223  -13.7765   26.5037 N   0  0  0  0  0  0  0  0  0  0  0  0
    5.7296  -12.9332   25.7428 C   0  0  0  0  0  0  0  0  0  0  0  0
    5.4922  -11.6117   25.4237 C   0  0  0  0  0  0  0  0  0  0  0  0
    6.3871  -10.9616   24.5989 C   0  0  0  0  0  0  0  0  0  0  0  0
    7.4929  -11.6361   24.1114 C   0  0  0  0  0  0  0  0  0  0  0  0
    7.7040  -12.9604   24.4490 C   0  0  0  0  0  0  0  0  0  0  0  0
    6.8379  -13.6233   25.2606 C   0  0  0  0  0  0  0  0  0  0  0  0
    8.6803  -17.6708   23.9460 C   0  0  0  0  0  0  0  0  0  0  0  0
    8.8170  -18.7310   24.6035 O   0  0  0  0  0  0  0  0  0  0  0  0
    9.6506  -17.3942   22.9142 N   0  0  0  0  0  0  0  0  0  0  0  0
   11.0525  -17.4350   23.1860 C   0  0  1  0  0  0  0  0  0  0  0  0
   11.9590  -16.8710   22.1651 C   0  0  0  0  0  0  0  0  0  0  0  0
   13.4120  -17.0487   22.2816 C   0  0  0  0  0  0  0  0  0  0  0  0
   14.2430  -16.8723   21.1015 C   0  0  0  0  0  0  0  0  0  0  0  0
   13.7964  -16.3320   20.0586 O   0  0  0  0  0  0  0  0  0  0  0  0
   11.3616  -16.9462   24.5707 C   0  0  0  0  0  0  0  0  0  0  0  0
   11.7206  -15.7604   24.7859 O   0  0  0  0  0  0  0  0  0  0  0  0
   15.5879  -17.2882   21.0432 O   0  0  0  0  0  0  0  0  0  0  0  0
   11.2014  -14.1791   28.0593 C   0  0  0  0  0  0  0  0  0  0  0  0
   10.1933  -15.2718   28.2187 C   0  0  1  0  0  0  0  0  0  0  0  0
    8.7922  -14.7022   28.4362 C   0  0  0  0  0  0  0  0  0  0  0  0
   10.2305  -16.3488   27.2247 C   0  0  0  0  0  0  0  0  0  0  0  0
   11.3819  -17.2539   27.0913 C   0  0  2  0  0  0  0  0  0  0  0  0
   11.2614  -17.8030   25.6965 N   0  0  0  0  0  0  0  0  0  0  0  0
   11.5466  -18.3770   27.9797 C   0  0  0  0  0  0  0  0  0  0  0  0
   10.9628  -19.4934   27.7414 O   0  0  0  0  0  0  0  0  0  0  0  0
   12.3181  -18.3630   29.1178 O   0  0  0  0  0  0  0  0  0  0  0  0
  2  1  1  1
  2 13  1  0
  3  2  1  0
  4  3  1  0
  5  4  2  0
  6  5  1  0
  7  6  1  0
  7 12  2  0
  8  7  1  0
  9  8  2  0
  9 10  1  0
 10 11  2  0
 11 12  1  0
 12  4  1  0
 13 14  2  0
 15 13  1  0
 15 16  1  0
 16 17  1  6
 18 17  1  0
 19 23  1  0
 19 18  1  0
 20 19  2  0
 21 16  1  0
 21 22  2  0
 25 24  1  6
 25 27  1  0
 25 26  1  0
 28 27  1  1
 28 29  1  0
 29 21  1  0
 30 28  1  0
 31 30  2  0
 32 30  1  0
M  END
$$$$
