WEL.pdb
     RDKit          3D

 32 33  0  0  1  0  0  0  0  0999 V2000
    6.1963  -17.7937   24.9799 N   0  0  0  0  0  0  0  0  0  0  0  0
    7.2166  -16.8567   24.5886 C   0  0  1  0  0  0  0  0  0  0  0  0
    7.2162  -15.6979   25.5552 C   0  0  0  0  0  0  0  0  0  0  0  0
    6.6704  -14.4630   24.9537 C   0  0  0  0  0  0  0  0  0  0  0  0
    5.6443  -13.6894   25.5126 C   0  0  0  0  0  0  0  0  0  0  0  0
    5.3980  -12.6195   24.7375 N   0  0  0  0  0  0  0  0  0  0  0  0
    6.2242  -12.6580   23.6856 C   0  0  0  0  0  0  0  0  0  0  0  0
    6.3466  -11.7905   22.6194 C   0  0  0  0  0  0  0  0  0  0  0  0
    7.2868  -12.0679   21.6484 C   0  0  0  0  0  0  0  0  0  0  0  0
    8.0806  -13.1964   21.7577 C   0  0  0  0  0  0  0  0  0  0  0  0
    7.9345  -14.0470   22.8381 C   0  0  0  0  0  0  0  0  0  0  0  0
    7.0164  -13.7957   23.8088 C   0  0  0  0  0  0  0  0  0  0  0  0
    8.5254  -17.5733   24.6163 C   0  0  0  0  0  0  0  0  0  0  0  0
    8.7164  -18.5384   25.3954 O   0  0  0  0  0  0  0  0  0  0  0  0
    9.6149  -17.1852   23.7531 N   0  0  0  0  0  0  0  0  0  0  0  0
   10.9541  -17.6078   24.0154 C   0  0  1  0  0  0  0  0  0  0  0  0
   11.9265  -17.5099   22.9078 C   0  0  0  0  0  0  0  0  0  0  0  0
   13.2918  -18.0256   23.0696 C   0  0  0  0  0  0  0  0  0  0  0  0
   14.2530  -17.8321   21.9958 C   0  0  0  0  0  0  0  0  0  0  0  0
   14.1831  -18.4875   20.9259 O   0  0  0  0  0  0  0  0  0  0  0  0
   11.4751  -17.0294   25.2984 C   0  0  0  0  0  0  0  0  0  0  0  0
   12.3543  -16.1303   25.3064 O   0  0  0  0  0  0  0  0  0  0  0  0
   15.3155  -16.9103   22.0763 O   0  0  0  0  0  0  0  0  0  0  0  0
    9.5217  -13.8757   28.2686 C   0  0  0  0  0  0  0  0  0  0  0  0
   10.5586  -14.7727   27.6720 C   0  0  1  0  0  0  0  0  0  0  0  0
   11.8182  -13.9903   27.3028 C   0  0  0  0  0  0  0  0  0  0  0  0
   10.8428  -16.0173   28.3928 C   0  0  0  0  0  0  0  0  0  0  0  0
   11.6953  -17.0740   27.8278 C   0  0  2  0  0  0  0  0  0  0  0  0
   10.9966  -17.4734   26.5574 N   0  0  0  0  0  0  0  0  0  0  0  0
   11.9626  -18.2826   28.5665 C   0  0  0  0  0  0  0  0  0  0  0  0
   11.3731  -19.3804   28.2642 O   0  0  0  0  0  0  0  0  0  0  0  0
   12.8430  -18.3735   29.6187 O   0  0  0  0  0  0  0  0  0  0  0  0
  2  1  1  1
  2 13  1  0
  3  2  1  0
  4  3  1  0
  5  4  2  0
  6  5  1  0
  7  6  1  0
  7 12  2  0
  8  7  1  0
  9  8  2  0
  9 10  1  0
 10 11  2  0
 11 12  1  0
 12  4  1  0
 13 14  2  0
 15 13  1  0
 15 16  1  0
 16 17  1  6
 18 17  1  0
 19 23  1  0
 19 18  1  0
 20 19  2  0
 21 16  1  0
 21 22  2  0
 25 24  1  1
 25 27  1  0
 25 26  1  0
 28 27  1  1
 28 29  1  0
 29 21  1  0
 30 28  1  0
 31 30  2  0
 32 30  1  0
M  END
$$$$
