WEL.pdb
     RDKit          3D

 32 33  0  0  1  0  0  0  0  0999 V2000
    6.1994  -17.7568   24.5953 N   0  0  0  0  0  0  0  0  0  0  0  0
    7.3850  -17.0158   24.2529 C   0  0  1  0  0  0  0  0  0  0  0  0
    7.7269  -16.0835   25.3891 C   0  0  0  0  0  0  0  0  0  0  0  0
    6.8336  -14.9070   25.4406 C   0  0  0  0  0  0  0  0  0  0  0  0
    5.5667  -14.8929   26.0392 C   0  0  0  0  0  0  0  0  0  0  0  0
    5.0229  -13.6679   25.9408 N   0  0  0  0  0  0  0  0  0  0  0  0
    5.8848  -12.8712   25.2981 C   0  0  0  0  0  0  0  0  0  0  0  0
    5.7767  -11.5392   24.9539 C   0  0  0  0  0  0  0  0  0  0  0  0
    6.8218  -10.9469   24.2750 C   0  0  0  0  0  0  0  0  0  0  0  0
    7.9457  -11.6881   23.9543 C   0  0  0  0  0  0  0  0  0  0  0  0
    8.0248  -13.0213   24.3129 C   0  0  0  0  0  0  0  0  0  0  0  0
    7.0095  -13.6282   24.9830 C   0  0  0  0  0  0  0  0  0  0  0  0
    8.4835  -17.9990   24.0214 C   0  0  0  0  0  0  0  0  0  0  0  0
    8.5774  -19.0379   24.7191 O   0  0  0  0  0  0  0  0  0  0  0  0
    9.4742  -17.7930   22.9923 N   0  0  0  0  0  0  0  0  0  0  0  0
   10.8707  -17.8287   23.2912 C   0  0  1  0  0  0  0  0  0  0  0  0
   11.8100  -17.5813   22.1782 C   0  0  0  0  0  0  0  0  0  0  0  0
   13.2540  -17.7674   22.3690 C   0  0  0  0  0  0  0  0  0  0  0  0
   14.1496  -17.5528   21.2438 C   0  0  0  0  0  0  0  0  0  0  0  0
   14.6774  -16.4328   21.0290 O   0  0  0  0  0  0  0  0  0  0  0  0
   11.1950  -17.0227   24.5147 C   0  0  0  0  0  0  0  0  0  0  0  0
   10.9191  -15.7981   24.5890 O   0  0  0  0  0  0  0  0  0  0  0  0
   14.4850  -18.5692   20.3275 O   0  0  0  0  0  0  0  0  0  0  0  0
   11.3892  -14.3692   28.6697 C   0  0  0  0  0  0  0  0  0  0  0  0
   10.2824  -15.1075   27.9873 C   0  0  1  0  0  0  0  0  0  0  0  0
    9.1280  -14.1699   27.6367 C   0  0  0  0  0  0  0  0  0  0  0  0
   10.6664  -15.9889   26.8806 C   0  0  0  0  0  0  0  0  0  0  0  0
   11.7925  -16.9294   26.9810 C   0  0  2  0  0  0  0  0  0  0  0  0
   11.8273  -17.6098   25.6403 N   0  0  0  0  0  0  0  0  0  0  0  0
   11.8052  -17.9634   27.9852 C   0  0  0  0  0  0  0  0  0  0  0  0
   12.5095  -17.8365   29.0491 O   0  0  0  0  0  0  0  0  0  0  0  0
   11.0886  -19.1343   27.9063 O   0  0  0  0  0  0  0  0  0  0  0  0
  2  1  1  1
  2 13  1  0
  3  2  1  0
  4  3  1  0
  5  4  2  0
  6  5  1  0
  7  6  1  0
  7 12  2  0
  8  7  1  0
  9  8  2  0
  9 10  1  0
 10 11  2  0
 11 12  1  0
 12  4  1  0
 13 14  2  0
 15 13  1  0
 15 16  1  0
 16 17  1  6
 18 17  1  0
 19 23  1  0
 19 18  1  0
 20 19  2  0
 21 16  1  0
 21 22  2  0
 25 24  1  6
 25 27  1  0
 25 26  1  0
 28 27  1  6
 28 29  1  0
 29 21  1  0
 30 28  1  0
 31 30  2  0
 32 30  1  0
M  END
$$$$
