WEL.pdb
     RDKit          3D

 32 33  0  0  1  0  0  0  0  0999 V2000
    7.5691  -17.8010   21.5510 N   0  0  0  0  0  0  0  0  0  0  0  0
    8.6224  -16.9406   22.0224 C   0  0  1  0  0  0  0  0  0  0  0  0
    8.0217  -15.6346   22.4816 C   0  0  0  0  0  0  0  0  0  0  0  0
    7.5247  -14.8166   21.3553 C   0  0  0  0  0  0  0  0  0  0  0  0
    6.2156  -14.8568   20.8569 C   0  0  0  0  0  0  0  0  0  0  0  0
    6.0769  -13.9755   19.8517 N   0  0  0  0  0  0  0  0  0  0  0  0
    7.2475  -13.3542   19.6672 C   0  0  0  0  0  0  0  0  0  0  0  0
    7.6029  -12.3799   18.7567 C   0  0  0  0  0  0  0  0  0  0  0  0
    8.8985  -11.9056   18.7707 C   0  0  0  0  0  0  0  0  0  0  0  0
    9.8083  -12.4080   19.6847 C   0  0  0  0  0  0  0  0  0  0  0  0
    9.4224  -13.3841   20.5849 C   0  0  0  0  0  0  0  0  0  0  0  0
    8.1517  -13.8675   20.5925 C   0  0  0  0  0  0  0  0  0  0  0  0
    9.3072  -17.6379   23.1503 C   0  0  0  0  0  0  0  0  0  0  0  0
    8.6471  -18.1888   24.0644 O   0  0  0  0  0  0  0  0  0  0  0  0
   10.7466  -17.7041   23.2320 N   0  0  0  0  0  0  0  0  0  0  0  0
   11.4039  -18.0481   24.4528 C   0  0  1  0  0  0  0  0  0  0  0  0
   12.7823  -18.5706   24.3583 C   0  0  0  0  0  0  0  0  0  0  0  0
   13.4928  -19.0157   25.5638 C   0  0  0  0  0  0  0  0  0  0  0  0
   14.8782  -19.4425   25.4513 C   0  0  0  0  0  0  0  0  0  0  0  0
   15.8188  -18.6113   25.3929 O   0  0  0  0  0  0  0  0  0  0  0  0
   11.2630  -16.9641   25.4810 C   0  0  0  0  0  0  0  0  0  0  0  0
   11.8794  -15.8730   25.3766 O   0  0  0  0  0  0  0  0  0  0  0  0
   15.2600  -20.7978   25.4004 O   0  0  0  0  0  0  0  0  0  0  0  0
    7.4787  -13.8722   26.5617 C   0  0  0  0  0  0  0  0  0  0  0  0
    8.8917  -14.3450   26.6866 C   0  0  1  0  0  0  0  0  0  0  0  0
    9.8515  -13.1710   26.8744 C   0  0  0  0  0  0  0  0  0  0  0  0
    9.1349  -15.4450   27.6248 C   0  0  0  0  0  0  0  0  0  0  0  0
   10.4405  -16.1139   27.7280 C   0  0  2  0  0  0  0  0  0  0  0  0
   10.4271  -17.1255   26.6153 N   0  0  0  0  0  0  0  0  0  0  0  0
   10.8226  -16.8082   28.9320 C   0  0  0  0  0  0  0  0  0  0  0  0
   11.1264  -16.1595   29.9955 O   0  0  0  0  0  0  0  0  0  0  0  0
   10.8896  -18.1762   29.0541 O   0  0  0  0  0  0  0  0  0  0  0  0
  2  1  1  1
  2 13  1  0
  3  2  1  0
  4  3  1  0
  5  4  2  0
  6  5  1  0
  7  6  1  0
  7 12  2  0
  8  7  1  0
  9  8  2  0
  9 10  1  0
 10 11  2  0
 11 12  1  0
 12  4  1  0
 13 14  2  0
 15 13  1  0
 15 16  1  0
 16 17  1  6
 18 17  1  0
 19 23  1  0
 19 18  1  0
 20 19  2  0
 21 16  1  0
 21 22  2  0
 25 24  1  1
 25 27  1  0
 25 26  1  0
 28 27  1  1
 28 29  1  0
 29 21  1  0
 30 28  1  0
 31 30  2  0
 32 30  1  0
M  END
$$$$
