WEL.pdb
     RDKit          3D

 32 33  0  0  1  0  0  0  0  0999 V2000
    6.4565  -18.9871   22.4890 N   0  0  0  0  0  0  0  0  0  0  0  0
    7.2186  -17.8278   22.1053 C   0  0  1  0  0  0  0  0  0  0  0  0
    6.3070  -16.6253   22.0846 C   0  0  0  0  0  0  0  0  0  0  0  0
    6.9000  -15.4816   21.3601 C   0  0  0  0  0  0  0  0  0  0  0  0
    7.2309  -15.4847   19.9984 C   0  0  0  0  0  0  0  0  0  0  0  0
    7.7238  -14.2869   19.6402 N   0  0  0  0  0  0  0  0  0  0  0  0
    7.7313  -13.4917   20.7163 C   0  0  0  0  0  0  0  0  0  0  0  0
    8.1484  -12.1832   20.8517 C   0  0  0  0  0  0  0  0  0  0  0  0
    8.0564  -11.5870   22.0927 C   0  0  0  0  0  0  0  0  0  0  0  0
    7.5546  -12.3012   23.1668 C   0  0  0  0  0  0  0  0  0  0  0  0
    7.1445  -13.6112   22.9998 C   0  0  0  0  0  0  0  0  0  0  0  0
    7.2237  -14.2213   21.7874 C   0  0  0  0  0  0  0  0  0  0  0  0
    8.3110  -17.6512   23.1066 C   0  0  0  0  0  0  0  0  0  0  0  0
    8.1079  -17.8615   24.3270 O   0  0  0  0  0  0  0  0  0  0  0  0
    9.6347  -17.2338   22.7113 N   0  0  0  0  0  0  0  0  0  0  0  0
   10.7075  -17.1838   23.6533 C   0  0  1  0  0  0  0  0  0  0  0  0
   12.0818  -17.1236   23.1151 C   0  0  0  0  0  0  0  0  0  0  0  0
   13.2374  -17.1790   24.0195 C   0  0  0  0  0  0  0  0  0  0  0  0
   14.5767  -17.0751   23.4630 C   0  0  0  0  0  0  0  0  0  0  0  0
   15.3398  -16.1224   23.7617 O   0  0  0  0  0  0  0  0  0  0  0  0
   10.4572  -16.1610   24.7225 C   0  0  0  0  0  0  0  0  0  0  0  0
   10.8070  -14.9614   24.5812 O   0  0  0  0  0  0  0  0  0  0  0  0
   15.1072  -18.0203   22.5628 O   0  0  0  0  0  0  0  0  0  0  0  0
    6.7342  -13.2056   26.3030 C   0  0  0  0  0  0  0  0  0  0  0  0
    8.1534  -13.6761   26.3186 C   0  0  1  0  0  0  0  0  0  0  0  0
    9.1009  -12.5566   26.7471 C   0  0  0  0  0  0  0  0  0  0  0  0
    8.4158  -14.9470   27.0008 C   0  0  0  0  0  0  0  0  0  0  0  0
    9.7634  -15.5299   27.0824 C   0  0  2  0  0  0  0  0  0  0  0  0
    9.8145  -16.5055   25.9389 N   0  0  0  0  0  0  0  0  0  0  0  0
   10.1944  -16.2340   28.2640 C   0  0  0  0  0  0  0  0  0  0  0  0
   10.1647  -17.5149   28.3122 O   0  0  0  0  0  0  0  0  0  0  0  0
   10.6651  -15.6264   29.4042 O   0  0  0  0  0  0  0  0  0  0  0  0
  2  1  1  1
  2 13  1  0
  3  2  1  0
  4  3  1  0
  5  4  2  0
  6  5  1  0
  7  6  1  0
  7 12  2  0
  8  7  1  0
  9  8  2  0
  9 10  1  0
 10 11  2  0
 11 12  1  0
 12  4  1  0
 13 14  2  0
 15 13  1  0
 15 16  1  0
 16 17  1  6
 18 17  1  0
 19 23  1  0
 19 18  1  0
 20 19  2  0
 21 16  1  0
 21 22  2  0
 25 24  1  1
 25 27  1  0
 25 26  1  0
 28 27  1  1
 28 29  1  0
 29 21  1  0
 30 28  1  0
 31 30  2  0
 32 30  1  0
M  END
$$$$
