WEL.pdb
     RDKit          3D

 32 33  0  0  1  0  0  0  0  0999 V2000
    6.3398  -17.4528   25.0597 N   0  0  0  0  0  0  0  0  0  0  0  0
    7.4977  -16.7756   24.5377 C   0  0  1  0  0  0  0  0  0  0  0  0
    7.8306  -15.6088   25.4350 C   0  0  0  0  0  0  0  0  0  0  0  0
    6.9443  -14.4490   25.2028 C   0  0  0  0  0  0  0  0  0  0  0  0
    5.9392  -14.0243   26.0821 C   0  0  0  0  0  0  0  0  0  0  0  0
    5.3325  -12.9284   25.5954 N   0  0  0  0  0  0  0  0  0  0  0  0
    5.9000  -12.6132   24.4254 C   0  0  0  0  0  0  0  0  0  0  0  0
    5.6205  -11.5828   23.5509 C   0  0  0  0  0  0  0  0  0  0  0  0
    6.3597  -11.4846   22.3899 C   0  0  0  0  0  0  0  0  0  0  0  0
    7.3555  -12.4085   22.1247 C   0  0  0  0  0  0  0  0  0  0  0  0
    7.6123  -13.4301   23.0205 C   0  0  0  0  0  0  0  0  0  0  0  0
    6.8991  -13.5485   24.1719 C   0  0  0  0  0  0  0  0  0  0  0  0
    8.6205  -17.7580   24.5026 C   0  0  0  0  0  0  0  0  0  0  0  0
    8.5851  -18.8036   25.1958 O   0  0  0  0  0  0  0  0  0  0  0  0
    9.7832  -17.5437   23.6749 N   0  0  0  0  0  0  0  0  0  0  0  0
   11.0664  -18.0418   24.0574 C   0  0  1  0  0  0  0  0  0  0  0  0
   12.1395  -18.0042   23.0430 C   0  0  0  0  0  0  0  0  0  0  0  0
   11.8334  -18.2481   21.6277 C   0  0  0  0  0  0  0  0  0  0  0  0
   12.4767  -17.4286   20.6134 C   0  0  0  0  0  0  0  0  0  0  0  0
   11.8167  -16.8860   19.6918 O   0  0  0  0  0  0  0  0  0  0  0  0
   11.5010  -17.4896   25.3833 C   0  0  0  0  0  0  0  0  0  0  0  0
   12.2522  -16.4843   25.4639 O   0  0  0  0  0  0  0  0  0  0  0  0
   13.8647  -17.1876   20.5909 O   0  0  0  0  0  0  0  0  0  0  0  0
   11.2149  -14.4657   27.5558 C   0  0  0  0  0  0  0  0  0  0  0  0
   10.5705  -15.2696   28.6393 C   0  0  1  0  0  0  0  0  0  0  0  0
    9.2744  -14.6149   29.1152 C   0  0  0  0  0  0  0  0  0  0  0  0
   10.4344  -16.7089   28.3959 C   0  0  0  0  0  0  0  0  0  0  0  0
   11.5557  -17.5338   27.9217 C   0  0  2  0  0  0  0  0  0  0  0  0
   11.0818  -18.0797   26.6029 N   0  0  0  0  0  0  0  0  0  0  0  0
   12.0333  -18.6498   28.6991 C   0  0  0  0  0  0  0  0  0  0  0  0
   11.5298  -19.8191   28.5468 O   0  0  0  0  0  0  0  0  0  0  0  0
   13.0373  -18.5736   29.6355 O   0  0  0  0  0  0  0  0  0  0  0  0
  2  1  1  1
  2 13  1  0
  3  2  1  0
  4  3  1  0
  5  4  2  0
  6  5  1  0
  7  6  1  0
  7 12  2  0
  8  7  1  0
  9  8  2  0
  9 10  1  0
 10 11  2  0
 11 12  1  0
 12  4  1  0
 13 14  2  0
 15 13  1  0
 15 16  1  0
 16 17  1  6
 18 17  1  0
 19 23  1  0
 19 18  1  0
 20 19  2  0
 21 16  1  0
 21 22  2  0
 25 24  1  6
 25 27  1  0
 25 26  1  0
 28 27  1  1
 28 29  1  0
 29 21  1  0
 30 28  1  0
 31 30  2  0
 32 30  1  0
M  END
$$$$
