WEL.pdb
     RDKit          3D

 32 33  0  0  1  0  0  0  0  0999 V2000
    6.4849  -17.7133   24.7981 N   0  0  0  0  0  0  0  0  0  0  0  0
    7.5786  -16.8361   24.4717 C   0  0  1  0  0  0  0  0  0  0  0  0
    7.8293  -15.9092   25.6359 C   0  0  0  0  0  0  0  0  0  0  0  0
    6.8809  -14.7760   25.6679 C   0  0  0  0  0  0  0  0  0  0  0  0
    5.6528  -14.7822   26.3429 C   0  0  0  0  0  0  0  0  0  0  0  0
    5.0415  -13.5939   26.2005 N   0  0  0  0  0  0  0  0  0  0  0  0
    5.8210  -12.8020   25.4550 C   0  0  0  0  0  0  0  0  0  0  0  0
    5.6238  -11.5028   25.0335 C   0  0  0  0  0  0  0  0  0  0  0  0
    6.5944  -10.9083   24.2536 C   0  0  0  0  0  0  0  0  0  0  0  0
    7.7341  -11.6149   23.9110 C   0  0  0  0  0  0  0  0  0  0  0  0
    7.9034  -12.9156   24.3487 C   0  0  0  0  0  0  0  0  0  0  0  0
    6.9626  -13.5239   25.1190 C   0  0  0  0  0  0  0  0  0  0  0  0
    8.7753  -17.6850   24.1992 C   0  0  0  0  0  0  0  0  0  0  0  0
    8.7724  -18.9105   24.4697 O   0  0  0  0  0  0  0  0  0  0  0  0
    9.9747  -17.1316   23.6178 N   0  0  0  0  0  0  0  0  0  0  0  0
   11.2428  -17.7659   23.7919 C   0  0  1  0  0  0  0  0  0  0  0  0
   12.3272  -17.3822   22.8652 C   0  0  0  0  0  0  0  0  0  0  0  0
   12.0982  -17.3767   21.4147 C   0  0  0  0  0  0  0  0  0  0  0  0
   12.8455  -16.4461   20.5842 C   0  0  0  0  0  0  0  0  0  0  0  0
   13.7831  -15.7537   21.0539 O   0  0  0  0  0  0  0  0  0  0  0  0
   11.6750  -17.7524   25.2289 C   0  0  0  0  0  0  0  0  0  0  0  0
   12.8123  -18.1595   25.5785 O   0  0  0  0  0  0  0  0  0  0  0  0
   12.5763  -16.2563   19.2143 O   0  0  0  0  0  0  0  0  0  0  0  0
   11.1967  -14.3301   27.0923 C   0  0  0  0  0  0  0  0  0  0  0  0
   10.5881  -14.8930   28.3366 C   0  0  1  0  0  0  0  0  0  0  0  0
    9.3674  -14.0821   28.7692 C   0  0  0  0  0  0  0  0  0  0  0  0
   10.3559  -16.3405   28.3565 C   0  0  0  0  0  0  0  0  0  0  0  0
   11.2611  -17.2895   27.6912 C   0  0  2  0  0  0  0  0  0  0  0  0
   10.8173  -17.2789   26.2543 N   0  0  0  0  0  0  0  0  0  0  0  0
   11.3244  -18.6677   28.1086 C   0  0  0  0  0  0  0  0  0  0  0  0
   10.7275  -19.5842   27.4393 O   0  0  0  0  0  0  0  0  0  0  0  0
   12.0073  -19.1158   29.2147 O   0  0  0  0  0  0  0  0  0  0  0  0
  2  1  1  1
  2 13  1  0
  3  2  1  0
  4  3  1  0
  5  4  2  0
  6  5  1  0
  7  6  1  0
  7 12  2  0
  8  7  1  0
  9  8  2  0
  9 10  1  0
 10 11  2  0
 11 12  1  0
 12  4  1  0
 13 14  2  0
 15 13  1  0
 15 16  1  0
 16 17  1  6
 18 17  1  0
 19 23  1  0
 19 18  1  0
 20 19  2  0
 21 16  1  0
 21 22  2  0
 25 24  1  6
 25 27  1  0
 25 26  1  0
 28 27  1  1
 28 29  1  0
 29 21  1  0
 30 28  1  0
 31 30  2  0
 32 30  1  0
M  END
$$$$
