FTG.pdb
     RDKit          3D

 23 23  0  0  1  0  0  0  0  0999 V2000
   28.1855  -21.3899   -9.1118 N   0  0  0  0  0  0  0  0  0  0  0  0
   26.9468  -20.6741   -9.0226 C   0  0  1  0  0  0  0  0  0  0  0  0
   27.2046  -19.3733   -8.3073 C   0  0  0  0  0  0  0  0  0  0  0  0
   27.7083  -19.5349   -6.9523 C   0  0  0  0  0  0  0  0  0  0  0  0
   26.8871  -20.0424   -5.9652 C   0  0  0  0  0  0  0  0  0  0  0  0
   27.3093  -20.2193   -4.6577 C   0  0  0  0  0  0  0  0  0  0  0  0
   28.6101  -19.8771   -4.3075 C   0  0  0  0  0  0  0  0  0  0  0  0
   29.4549  -19.3671   -5.2728 C   0  0  0  0  0  0  0  0  0  0  0  0
   29.0042  -19.2033   -6.5649 C   0  0  0  0  0  0  0  0  0  0  0  0
   26.3890  -20.4378  -10.3595 C   0  0  0  0  0  0  0  0  0  0  0  0
   27.1523  -20.3532  -11.3716 O   0  0  0  0  0  0  0  0  0  0  0  0
   26.3058  -21.7069  -12.7683 C   0  0  0  0  0  0  0  0  0  0  0  0
   24.8205  -21.4539  -12.7623 C   0  0  1  0  0  0  0  0  0  0  0  0
   24.1335  -22.5317  -12.2188 O   0  0  0  0  0  0  0  0  0  0  0  0
   24.4648  -20.2060  -11.9811 C   0  0  2  0  0  0  0  0  0  0  0  0
   24.9970  -20.2900  -10.6191 N   0  0  0  0  0  0  0  0  0  0  0  0
   23.0032  -19.9774  -11.8935 C   0  0  0  0  0  0  0  0  0  0  0  0
   22.4378  -20.1809  -10.7841 O   0  0  0  0  0  0  0  0  0  0  0  0
   22.2013  -19.5428  -12.9824 N   0  0  0  0  0  0  0  0  0  0  0  0
   20.8516  -19.0912  -12.7243 C   0  0  0  0  0  0  0  0  0  0  0  0
   19.8572  -20.1294  -13.1530 C   0  0  0  0  0  0  0  0  0  0  0  0
   20.0205  -21.3421  -12.9266 O   0  0  0  0  0  0  0  0  0  0  0  0
   18.7116  -19.7337  -13.8263 O   0  0  0  0  0  0  0  0  0  0  0  0
  2  1  1  6
  2 10  1  0
  3  2  1  0
  4  5  2  0
  4  3  1  0
  6  5  1  0
  7  6  2  0
  8  7  1  0
  8  9  2  0
  9  4  1  0
 10 11  2  0
 10 16  1  0
 13 12  1  1
 13 14  1  0
 15 13  1  0
 15 16  1  1
 17 15  1  0
 17 18  2  0
 19 17  1  0
 20 19  1  0
 20 21  1  0
 21 23  1  0
 22 21  2  0
M  END
$$$$
