FTG.pdb
     RDKit          3D

 23 23  0  0  1  0  0  0  0  0999 V2000
   19.1816   -9.9252  -17.7212 N   0  0  0  0  0  0  0  0  0  0  0  0
   20.2801   -9.0486  -17.4386 C   0  0  1  0  0  0  0  0  0  0  0  0
   20.4915   -8.1572  -18.6347 C   0  0  0  0  0  0  0  0  0  0  0  0
   20.9070   -8.8679  -19.8340 C   0  0  0  0  0  0  0  0  0  0  0  0
   22.2338   -9.2050  -20.0133 C   0  0  0  0  0  0  0  0  0  0  0  0
   22.6897   -9.8810  -21.1333 C   0  0  0  0  0  0  0  0  0  0  0  0
   21.7881  -10.2426  -22.1273 C   0  0  0  0  0  0  0  0  0  0  0  0
   20.4546   -9.9192  -21.9763 C   0  0  0  0  0  0  0  0  0  0  0  0
   20.0329   -9.2461  -20.8500 C   0  0  0  0  0  0  0  0  0  0  0  0
   20.0119   -8.2562  -16.2326 C   0  0  0  0  0  0  0  0  0  0  0  0
   18.8193   -7.9740  -15.8977 O   0  0  0  0  0  0  0  0  0  0  0  0
   20.8120   -7.1513  -11.6409 C   0  0  0  0  0  0  0  0  0  0  0  0
   20.9910   -7.9068  -12.9321 C   0  0  1  0  0  0  0  0  0  0  0  0
   20.1499   -9.0108  -12.9843 O   0  0  0  0  0  0  0  0  0  0  0  0
   20.7215   -7.0321  -14.1388 C   0  0  2  0  0  0  0  0  0  0  0  0
   21.0313   -7.7584  -15.3725 N   0  0  0  0  0  0  0  0  0  0  0  0
   21.5107   -5.7777  -14.1297 C   0  0  0  0  0  0  0  0  0  0  0  0
   22.7677   -5.8690  -14.1862 O   0  0  0  0  0  0  0  0  0  0  0  0
   20.9372   -4.4799  -14.0619 N   0  0  0  0  0  0  0  0  0  0  0  0
   21.8106   -3.3280  -14.0136 C   0  0  0  0  0  0  0  0  0  0  0  0
   21.0114   -2.0587  -14.0437 C   0  0  0  0  0  0  0  0  0  0  0  0
   21.5370   -0.9374  -13.9209 O   0  0  0  0  0  0  0  0  0  0  0  0
   19.6372   -2.1267  -14.2140 O   0  0  0  0  0  0  0  0  0  0  0  0
  2  1  1  6
  2 10  1  0
  3  2  1  0
  4  5  2  0
  4  3  1  0
  6  5  1  0
  7  6  2  0
  8  7  1  0
  8  9  2  0
  9  4  1  0
 10 11  2  0
 10 16  1  0
 13 12  1  1
 13 14  1  0
 15 13  1  0
 15 16  1  6
 17 15  1  0
 17 18  2  0
 19 17  1  0
 20 19  1  0
 20 21  1  0
 21 23  1  0
 22 21  2  0
M  END
$$$$
