FTG.pdb
     RDKit          3D

 23 23  0  0  1  0  0  0  0  0999 V2000
   23.3601   -9.5061  -17.4157 N   0  0  0  0  0  0  0  0  0  0  0  0
   23.2009   -8.3389  -16.5989 C   0  0  1  0  0  0  0  0  0  0  0  0
   24.5562   -7.7093  -16.4073 C   0  0  0  0  0  0  0  0  0  0  0  0
   25.6257   -8.6687  -16.1799 C   0  0  0  0  0  0  0  0  0  0  0  0
   26.6842   -8.7464  -17.0628 C   0  0  0  0  0  0  0  0  0  0  0  0
   27.7312   -9.6388  -16.8997 C   0  0  0  0  0  0  0  0  0  0  0  0
   27.7322  -10.4988  -15.8078 C   0  0  0  0  0  0  0  0  0  0  0  0
   26.6872  -10.4446  -14.9075 C   0  0  0  0  0  0  0  0  0  0  0  0
   25.6604   -9.5452  -15.0982 C   0  0  0  0  0  0  0  0  0  0  0  0
   22.2656   -7.3952  -17.2226 C   0  0  0  0  0  0  0  0  0  0  0  0
   22.1245   -7.3656  -18.4849 O   0  0  0  0  0  0  0  0  0  0  0  0
   18.9856   -7.6315  -17.5521 C   0  0  0  0  0  0  0  0  0  0  0  0
   19.0760   -6.2590  -16.9372 C   0  0  1  0  0  0  0  0  0  0  0  0
   18.7946   -6.3023  -15.5778 O   0  0  0  0  0  0  0  0  0  0  0  0
   20.4463   -5.6438  -17.1312 C   0  0  2  0  0  0  0  0  0  0  0  0
   21.4702   -6.4706  -16.4883 N   0  0  0  0  0  0  0  0  0  0  0  0
   20.5460   -4.2718  -16.5799 C   0  0  0  0  0  0  0  0  0  0  0  0
   20.9291   -4.1406  -15.3850 O   0  0  0  0  0  0  0  0  0  0  0  0
   20.2370   -3.0966  -17.3155 N   0  0  0  0  0  0  0  0  0  0  0  0
   20.3188   -1.8127  -16.6546 C   0  0  0  0  0  0  0  0  0  0  0  0
   19.0552   -1.5277  -15.8979 C   0  0  0  0  0  0  0  0  0  0  0  0
   18.0825   -2.3040  -15.9090 O   0  0  0  0  0  0  0  0  0  0  0  0
   18.9575   -0.3602  -15.1565 O   0  0  0  0  0  0  0  0  0  0  0  0
  2  1  1  6
  2 10  1  0
  3  2  1  0
  4  5  2  0
  4  3  1  0
  6  5  1  0
  7  6  2  0
  8  7  1  0
  8  9  2  0
  9  4  1  0
 10 11  2  0
 10 16  1  0
 13 12  1  1
 13 14  1  0
 15 13  1  0
 15 16  1  1
 17 15  1  0
 17 18  2  0
 19 17  1  0
 20 19  1  0
 20 21  1  0
 21 23  1  0
 22 21  2  0
M  END
$$$$
