FTG.pdb
     RDKit          3D

 23 23  0  0  1  0  0  0  0  0999 V2000
   25.5689  -20.8537   -7.5985 N   0  0  0  0  0  0  0  0  0  0  0  0
   26.5942  -20.1678   -8.3288 C   0  0  1  0  0  0  0  0  0  0  0  0
   27.9200  -20.4778   -7.6835 C   0  0  0  0  0  0  0  0  0  0  0  0
   28.0396  -19.9912   -6.3179 C   0  0  0  0  0  0  0  0  0  0  0  0
   28.0929  -18.6341   -6.0696 C   0  0  0  0  0  0  0  0  0  0  0  0
   28.2065  -18.1107   -4.7920 C   0  0  0  0  0  0  0  0  0  0  0  0
   28.2709  -18.9727   -3.7037 C   0  0  0  0  0  0  0  0  0  0  0  0
   28.2201  -20.3351   -3.9203 C   0  0  0  0  0  0  0  0  0  0  0  0
   28.1068  -20.8241   -5.2039 C   0  0  0  0  0  0  0  0  0  0  0  0
   26.5865  -20.5769   -9.7383 C   0  0  0  0  0  0  0  0  0  0  0  0
   27.0536  -21.7063  -10.0852 O   0  0  0  0  0  0  0  0  0  0  0  0
   25.2027  -21.7585  -13.8923 C   0  0  0  0  0  0  0  0  0  0  0  0
   25.2888  -21.4060  -12.4299 C   0  0  1  0  0  0  0  0  0  0  0  0
   25.8071  -22.4626  -11.6923 O   0  0  0  0  0  0  0  0  0  0  0  0
   26.1481  -20.1810  -12.1954 C   0  0  2  0  0  0  0  0  0  0  0  0
   26.0730  -19.7687  -10.7919 N   0  0  0  0  0  0  0  0  0  0  0  0
   25.7515  -19.0284  -13.0382 C   0  0  0  0  0  0  0  0  0  0  0  0
   24.6510  -18.4639  -12.7890 O   0  0  0  0  0  0  0  0  0  0  0  0
   26.5356  -18.5208  -14.1084 N   0  0  0  0  0  0  0  0  0  0  0  0
   26.1528  -17.2714  -14.7283 C   0  0  0  0  0  0  0  0  0  0  0  0
   25.2241  -17.5173  -15.8805 C   0  0  0  0  0  0  0  0  0  0  0  0
   24.9214  -18.6634  -16.2595 O   0  0  0  0  0  0  0  0  0  0  0  0
   24.6778  -16.4354  -16.5539 O   0  0  0  0  0  0  0  0  0  0  0  0
  2  1  1  1
  2 10  1  0
  3  2  1  0
  4  5  2  0
  4  3  1  0
  6  5  1  0
  7  6  2  0
  8  7  1  0
  8  9  2  0
  9  4  1  0
 10 11  2  0
 10 16  1  0
 13 12  1  6
 13 14  1  0
 15 13  1  0
 15 16  1  1
 17 15  1  0
 17 18  2  0
 19 17  1  0
 20 19  1  0
 20 21  1  0
 21 23  1  0
 22 21  2  0
M  END
$$$$
