FTG.pdb
     RDKit          3D

 23 23  0  0  1  0  0  0  0  0999 V2000
   28.1124  -22.7032  -17.3662 N   0  0  0  0  0  0  0  0  0  0  0  0
   26.9876  -23.1651  -16.6070 C   0  0  1  0  0  0  0  0  0  0  0  0
   27.4886  -24.1241  -15.5584 C   0  0  0  0  0  0  0  0  0  0  0  0
   27.8105  -25.4459  -16.0733 C   0  0  0  0  0  0  0  0  0  0  0  0
   29.1122  -25.7583  -16.4111 C   0  0  0  0  0  0  0  0  0  0  0  0
   29.4802  -26.9988  -16.9060 C   0  0  0  0  0  0  0  0  0  0  0  0
   28.5119  -27.9813  -17.0758 C   0  0  0  0  0  0  0  0  0  0  0  0
   27.2014  -27.6987  -16.7468 C   0  0  0  0  0  0  0  0  0  0  0  0
   26.8678  -26.4545  -16.2567 C   0  0  0  0  0  0  0  0  0  0  0  0
   26.2799  -22.0358  -15.9921 C   0  0  0  0  0  0  0  0  0  0  0  0
   26.8022  -20.8777  -15.9776 O   0  0  0  0  0  0  0  0  0  0  0  0
   23.2584  -20.7526  -17.2299 C   0  0  0  0  0  0  0  0  0  0  0  0
   23.9755  -20.0448  -16.1097 C   0  0  1  0  0  0  0  0  0  0  0  0
   23.2418  -18.9555  -15.6579 O   0  0  0  0  0  0  0  0  0  0  0  0
   24.2449  -20.9690  -14.9404 C   0  0  2  0  0  0  0  0  0  0  0  0
   24.9971  -22.1447  -15.3846 N   0  0  0  0  0  0  0  0  0  0  0  0
   23.0049  -21.4364  -14.2771 C   0  0  0  0  0  0  0  0  0  0  0  0
   22.4985  -22.5238  -14.6679 O   0  0  0  0  0  0  0  0  0  0  0  0
   22.3531  -20.7346  -13.2281 N   0  0  0  0  0  0  0  0  0  0  0  0
   21.2079  -21.3395  -12.5841 C   0  0  0  0  0  0  0  0  0  0  0  0
   19.9434  -20.6458  -12.9969 C   0  0  0  0  0  0  0  0  0  0  0  0
   19.9421  -19.6569  -13.7524 O   0  0  0  0  0  0  0  0  0  0  0  0
   18.7273  -21.1157  -12.5252 O   0  0  0  0  0  0  0  0  0  0  0  0
  2  1  1  1
  2 10  1  0
  3  2  1  0
  4  5  2  0
  4  3  1  0
  6  5  1  0
  7  6  2  0
  8  7  1  0
  8  9  2  0
  9  4  1  0
 10 11  2  0
 10 16  1  0
 13 12  1  6
 13 14  1  0
 15 13  1  0
 15 16  1  6
 17 15  1  0
 17 18  2  0
 19 17  1  0
 20 19  1  0
 20 21  1  0
 21 23  1  0
 22 21  2  0
M  END
$$$$
