FTG.pdb
     RDKit          3D

 23 23  0  0  1  0  0  0  0  0999 V2000
   25.8126  -21.1977   -7.7997 N   0  0  0  0  0  0  0  0  0  0  0  0
   26.6161  -20.2469   -8.5105 C   0  0  1  0  0  0  0  0  0  0  0  0
   28.0516  -20.4387   -8.0948 C   0  0  0  0  0  0  0  0  0  0  0  0
   28.3218  -20.0626   -6.7159 C   0  0  0  0  0  0  0  0  0  0  0  0
   28.8562  -20.9858   -5.8393 C   0  0  0  0  0  0  0  0  0  0  0  0
   29.1350  -20.6872   -4.5156 C   0  0  0  0  0  0  0  0  0  0  0  0
   28.8724  -19.4104   -4.0333 C   0  0  0  0  0  0  0  0  0  0  0  0
   28.3380  -18.4655   -4.8860 C   0  0  0  0  0  0  0  0  0  0  0  0
   28.0719  -18.7944   -6.1977 C   0  0  0  0  0  0  0  0  0  0  0  0
   26.4604  -20.4194   -9.9597 C   0  0  0  0  0  0  0  0  0  0  0  0
   27.4293  -20.8364  -10.6679 O   0  0  0  0  0  0  0  0  0  0  0  0
   26.9895  -21.9156  -12.1622 C   0  0  0  0  0  0  0  0  0  0  0  0
   25.6027  -21.5547  -12.6279 C   0  0  1  0  0  0  0  0  0  0  0  0
   24.6741  -22.4972  -12.2057 O   0  0  0  0  0  0  0  0  0  0  0  0
   25.1762  -20.1915  -12.1241 C   0  0  2  0  0  0  0  0  0  0  0  0
   25.2535  -20.1429  -10.6623 N   0  0  0  0  0  0  0  0  0  0  0  0
   23.7956  -19.8338  -12.5268 C   0  0  0  0  0  0  0  0  0  0  0  0
   22.9163  -19.7609  -11.6250 O   0  0  0  0  0  0  0  0  0  0  0  0
   23.4032  -19.5677  -13.8658 N   0  0  0  0  0  0  0  0  0  0  0  0
   22.0838  -19.0312  -14.1175 C   0  0  0  0  0  0  0  0  0  0  0  0
   21.0531  -20.1199  -14.0654 C   0  0  0  0  0  0  0  0  0  0  0  0
   21.3587  -21.3229  -13.9739 O   0  0  0  0  0  0  0  0  0  0  0  0
   19.7090  -19.7844  -14.1202 O   0  0  0  0  0  0  0  0  0  0  0  0
  2  1  1  1
  2 10  1  0
  3  2  1  0
  4  5  2  0
  4  3  1  0
  6  5  1  0
  7  6  2  0
  8  7  1  0
  8  9  2  0
  9  4  1  0
 10 11  2  0
 10 16  1  0
 13 12  1  1
 13 14  1  0
 15 13  1  0
 15 16  1  1
 17 15  1  0
 17 18  2  0
 19 17  1  0
 20 19  1  0
 20 21  1  0
 21 23  1  0
 22 21  2  0
M  END
$$$$
