FTG.pdb
     RDKit          3D

 23 23  0  0  1  0  0  0  0  0999 V2000
   21.5858  -10.5094  -15.1491 N   0  0  0  0  0  0  0  0  0  0  0  0
   20.5502   -9.5620  -15.4406 C   0  0  1  0  0  0  0  0  0  0  0  0
   19.2229  -10.2052  -15.1331 C   0  0  0  0  0  0  0  0  0  0  0  0
   18.8830  -11.3089  -16.0175 C   0  0  0  0  0  0  0  0  0  0  0  0
   19.0316  -12.6119  -15.5858 C   0  0  0  0  0  0  0  0  0  0  0  0
   18.7250  -13.7038  -16.3814 C   0  0  0  0  0  0  0  0  0  0  0  0
   18.2469  -13.4974  -17.6701 C   0  0  0  0  0  0  0  0  0  0  0  0
   18.0877  -12.2056  -18.1300 C   0  0  0  0  0  0  0  0  0  0  0  0
   18.4019  -11.1407  -17.3135 C   0  0  0  0  0  0  0  0  0  0  0  0
   20.7354   -8.3359  -14.6554 C   0  0  0  0  0  0  0  0  0  0  0  0
   21.5728   -8.3013  -13.7005 O   0  0  0  0  0  0  0  0  0  0  0  0
   22.1619   -4.1580  -13.9393 C   0  0  0  0  0  0  0  0  0  0  0  0
   21.8011   -5.5009  -14.5193 C   0  0  1  0  0  0  0  0  0  0  0  0
   22.6313   -6.4976  -14.0229 O   0  0  0  0  0  0  0  0  0  0  0  0
   20.3630   -5.8739  -14.2248 C   0  0  2  0  0  0  0  0  0  0  0  0
   20.0166   -7.1303  -14.8932 N   0  0  0  0  0  0  0  0  0  0  0  0
   19.3976   -4.8369  -14.6595 C   0  0  0  0  0  0  0  0  0  0  0  0
   19.3854   -4.5139  -15.8790 O   0  0  0  0  0  0  0  0  0  0  0  0
   18.4855   -4.1859  -13.7866 N   0  0  0  0  0  0  0  0  0  0  0  0
   17.5561   -3.2221  -14.3337 C   0  0  0  0  0  0  0  0  0  0  0  0
   18.2285   -1.8962  -14.5340 C   0  0  0  0  0  0  0  0  0  0  0  0
   19.3974   -1.6794  -14.1658 O   0  0  0  0  0  0  0  0  0  0  0  0
   17.5313   -0.8686  -15.1508 O   0  0  0  0  0  0  0  0  0  0  0  0
  2  1  1  1
  2 10  1  0
  3  2  1  0
  4  5  2  0
  4  3  1  0
  6  5  1  0
  7  6  2  0
  8  7  1  0
  8  9  2  0
  9  4  1  0
 10 11  2  0
 10 16  1  0
 13 12  1  1
 13 14  1  0
 15 13  1  0
 15 16  1  6
 17 15  1  0
 17 18  2  0
 19 17  1  0
 20 19  1  0
 20 21  1  0
 21 23  1  0
 22 21  2  0
M  END
$$$$
