FTG.pdb
     RDKit          3D

 23 23  0  0  1  0  0  0  0  0999 V2000
   28.3832  -21.2178   -9.0258 N   0  0  0  0  0  0  0  0  0  0  0  0
   27.0751  -20.6436   -8.9070 C   0  0  1  0  0  0  0  0  0  0  0  0
   27.1922  -19.3626   -8.1225 C   0  0  0  0  0  0  0  0  0  0  0  0
   27.7073  -19.5416   -6.7740 C   0  0  0  0  0  0  0  0  0  0  0  0
   28.9442  -19.0317   -6.4329 C   0  0  0  0  0  0  0  0  0  0  0  0
   29.4876  -19.1700   -5.1661 C   0  0  0  0  0  0  0  0  0  0  0  0
   28.7719  -19.8471   -4.1858 C   0  0  0  0  0  0  0  0  0  0  0  0
   27.5320  -20.3682   -4.4968 C   0  0  0  0  0  0  0  0  0  0  0  0
   27.0193  -20.2135   -5.7667 C   0  0  0  0  0  0  0  0  0  0  0  0
   26.4961  -20.3976  -10.2331 C   0  0  0  0  0  0  0  0  0  0  0  0
   27.2451  -20.1425  -11.2271 O   0  0  0  0  0  0  0  0  0  0  0  0
   26.6064  -21.3303  -12.8238 C   0  0  0  0  0  0  0  0  0  0  0  0
   25.1007  -21.3411  -12.7681 C   0  0  1  0  0  0  0  0  0  0  0  0
   24.6269  -22.5710  -12.3304 O   0  0  0  0  0  0  0  0  0  0  0  0
   24.5630  -20.2592  -11.8547 C   0  0  2  0  0  0  0  0  0  0  0  0
   25.0982  -20.4243  -10.5013 N   0  0  0  0  0  0  0  0  0  0  0  0
   23.0834  -20.2584  -11.7703 C   0  0  0  0  0  0  0  0  0  0  0  0
   22.5538  -20.5428  -10.6611 O   0  0  0  0  0  0  0  0  0  0  0  0
   22.2265  -19.9563  -12.8621 N   0  0  0  0  0  0  0  0  0  0  0  0
   20.8204  -19.7298  -12.6094 C   0  0  0  0  0  0  0  0  0  0  0  0
   20.0526  -21.0145  -12.7122 C   0  0  0  0  0  0  0  0  0  0  0  0
   20.5975  -22.0949  -13.0031 O   0  0  0  0  0  0  0  0  0  0  0  0
   18.6864  -21.0086  -12.4762 O   0  0  0  0  0  0  0  0  0  0  0  0
  2  1  1  6
  2 10  1  0
  3  2  1  0
  4  5  2  0
  4  3  1  0
  6  5  1  0
  7  6  2  0
  8  7  1  0
  8  9  2  0
  9  4  1  0
 10 11  2  0
 10 16  1  0
 13 12  1  1
 13 14  1  0
 15 13  1  0
 15 16  1  1
 17 15  1  0
 17 18  2  0
 19 17  1  0
 20 19  1  0
 20 21  1  0
 21 23  1  0
 22 21  2  0
M  END
$$$$
