FTG.pdb
     RDKit          3D

 23 23  0  0  1  0  0  0  0  0999 V2000
   22.6962  -11.5822  -16.5596 N   0  0  0  0  0  0  0  0  0  0  0  0
   23.1475  -10.2515  -16.2756 C   0  0  1  0  0  0  0  0  0  0  0  0
   24.4369  -10.0222  -17.0205 C   0  0  0  0  0  0  0  0  0  0  0  0
   25.5596  -10.7918  -16.5074 C   0  0  0  0  0  0  0  0  0  0  0  0
   26.6623  -10.1438  -15.9876 C   0  0  0  0  0  0  0  0  0  0  0  0
   27.7609  -10.8215  -15.4847 C   0  0  0  0  0  0  0  0  0  0  0  0
   27.7703  -12.2113  -15.4960 C   0  0  0  0  0  0  0  0  0  0  0  0
   26.6819  -12.8875  -16.0095 C   0  0  0  0  0  0  0  0  0  0  0  0
   25.6043  -12.1837  -16.5024 C   0  0  0  0  0  0  0  0  0  0  0  0
   22.1316   -9.2668  -16.6665 C   0  0  0  0  0  0  0  0  0  0  0  0
   21.2415   -9.5632  -17.5231 O   0  0  0  0  0  0  0  0  0  0  0  0
   18.5514   -6.5377  -16.1361 C   0  0  0  0  0  0  0  0  0  0  0  0
   19.6647   -7.5319  -15.9304 C   0  0  1  0  0  0  0  0  0  0  0  0
   19.3670   -8.7459  -16.5359 O   0  0  0  0  0  0  0  0  0  0  0  0
   20.9819   -7.0243  -16.4793 C   0  0  2  0  0  0  0  0  0  0  0  0
   22.0656   -7.9477  -16.1352 N   0  0  0  0  0  0  0  0  0  0  0  0
   21.3398   -5.6799  -15.9687 C   0  0  0  0  0  0  0  0  0  0  0  0
   21.6416   -5.5713  -14.7485 O   0  0  0  0  0  0  0  0  0  0  0  0
   21.3641   -4.5073  -16.7701 N   0  0  0  0  0  0  0  0  0  0  0  0
   21.7425   -3.2499  -16.1635 C   0  0  0  0  0  0  0  0  0  0  0  0
   20.5390   -2.5522  -15.6018 C   0  0  0  0  0  0  0  0  0  0  0  0
   20.6242   -1.4895  -14.9598 O   0  0  0  0  0  0  0  0  0  0  0  0
   19.2821   -3.1029  -15.7998 O   0  0  0  0  0  0  0  0  0  0  0  0
  2  1  1  6
  2 10  1  0
  3  2  1  0
  4  5  2  0
  4  3  1  0
  6  5  1  0
  7  6  2  0
  8  7  1  0
  8  9  2  0
  9  4  1  0
 10 11  2  0
 10 16  1  0
 13 12  1  6
 13 14  1  0
 15 13  1  0
 15 16  1  1
 17 15  1  0
 17 18  2  0
 19 17  1  0
 20 19  1  0
 20 21  1  0
 21 23  1  0
 22 21  2  0
M  END
$$$$
