FTG.pdb
     RDKit          3D

 23 23  0  0  1  0  0  0  0  0999 V2000
   26.1935  -20.3332  -17.1272 N   0  0  0  0  0  0  0  0  0  0  0  0
   25.5364  -21.0082  -16.0467 C   0  0  1  0  0  0  0  0  0  0  0  0
   26.5763  -21.3817  -15.0224 C   0  0  0  0  0  0  0  0  0  0  0  0
   27.5840  -22.3078  -15.5152 C   0  0  0  0  0  0  0  0  0  0  0  0
   27.3128  -23.6605  -15.5686 C   0  0  0  0  0  0  0  0  0  0  0  0
   28.2312  -24.5906  -16.0278 C   0  0  0  0  0  0  0  0  0  0  0  0
   29.4819  -24.1618  -16.4561 C   0  0  0  0  0  0  0  0  0  0  0  0
   29.7824  -22.8151  -16.4145 C   0  0  0  0  0  0  0  0  0  0  0  0
   28.8466  -21.9152  -15.9522 C   0  0  0  0  0  0  0  0  0  0  0  0
   24.5000  -20.1527  -15.4567 C   0  0  0  0  0  0  0  0  0  0  0  0
   24.7416  -18.9332  -15.1951 O   0  0  0  0  0  0  0  0  0  0  0  0
   23.2366  -17.6275  -15.4645 C   0  0  0  0  0  0  0  0  0  0  0  0
   22.0021  -18.4914  -15.4632 C   0  0  1  0  0  0  0  0  0  0  0  0
   21.6843  -18.9085  -16.7493 O   0  0  0  0  0  0  0  0  0  0  0  0
   22.1699  -19.7126  -14.5831 C   0  0  2  0  0  0  0  0  0  0  0  0
   23.1876  -20.6057  -15.1417 N   0  0  0  0  0  0  0  0  0  0  0  0
   20.9151  -20.4842  -14.4219 C   0  0  0  0  0  0  0  0  0  0  0  0
   21.0020  -21.7373  -14.3036 O   0  0  0  0  0  0  0  0  0  0  0  0
   19.6214  -19.8983  -14.3919 N   0  0  0  0  0  0  0  0  0  0  0  0
   18.4618  -20.7598  -14.3211 C   0  0  0  0  0  0  0  0  0  0  0  0
   17.2007  -19.9473  -14.3179 C   0  0  0  0  0  0  0  0  0  0  0  0
   17.2096  -18.7036  -14.2747 O   0  0  0  0  0  0  0  0  0  0  0  0
   15.9761  -20.5958  -14.3644 O   0  0  0  0  0  0  0  0  0  0  0  0
  2  1  1  6
  2 10  1  0
  3  2  1  0
  4  5  2  0
  4  3  1  0
  6  5  1  0
  7  6  2  0
  8  7  1  0
  8  9  2  0
  9  4  1  0
 10 11  2  0
 10 16  1  0
 13 12  1  6
 13 14  1  0
 15 13  1  0
 15 16  1  6
 17 15  1  0
 17 18  2  0
 19 17  1  0
 20 19  1  0
 20 21  1  0
 21 23  1  0
 22 21  2  0
M  END
$$$$
