FTG.pdb
     RDKit          3D

 23 23  0  0  1  0  0  0  0  0999 V2000
   28.3530  -21.3294   -8.8689 N   0  0  0  0  0  0  0  0  0  0  0  0
   27.0776  -20.6826   -8.7704 C   0  0  1  0  0  0  0  0  0  0  0  0
   27.2619  -19.3890   -8.0201 C   0  0  0  0  0  0  0  0  0  0  0  0
   27.8216  -19.5544   -6.6877 C   0  0  0  0  0  0  0  0  0  0  0  0
   27.0375  -20.0495   -5.6649 C   0  0  0  0  0  0  0  0  0  0  0  0
   27.5135  -20.2292   -4.3764 C   0  0  0  0  0  0  0  0  0  0  0  0
   28.8324  -19.9027   -4.0835 C   0  0  0  0  0  0  0  0  0  0  0  0
   29.6411  -19.4053   -5.0856 C   0  0  0  0  0  0  0  0  0  0  0  0
   29.1370  -19.2383   -6.3575 C   0  0  0  0  0  0  0  0  0  0  0  0
   26.5158  -20.4415  -10.1048 C   0  0  0  0  0  0  0  0  0  0  0  0
   27.2793  -20.2275  -11.0975 O   0  0  0  0  0  0  0  0  0  0  0  0
   26.6662  -21.2898  -12.6782 C   0  0  0  0  0  0  0  0  0  0  0  0
   25.1595  -21.2936  -12.6698 C   0  0  1  0  0  0  0  0  0  0  0  0
   24.6663  -22.5344  -12.2874 O   0  0  0  0  0  0  0  0  0  0  0  0
   24.5986  -20.2389  -11.7386 C   0  0  2  0  0  0  0  0  0  0  0  0
   25.1196  -20.4289  -10.3829 N   0  0  0  0  0  0  0  0  0  0  0  0
   23.1183  -20.2565  -11.6721 C   0  0  0  0  0  0  0  0  0  0  0  0
   22.5785  -20.6717  -10.6100 O   0  0  0  0  0  0  0  0  0  0  0  0
   22.2713  -19.8337  -12.7312 N   0  0  0  0  0  0  0  0  0  0  0  0
   20.8553  -19.6800  -12.4792 C   0  0  0  0  0  0  0  0  0  0  0  0
   20.1272  -20.9605  -12.7635 C   0  0  0  0  0  0  0  0  0  0  0  0
   20.7076  -21.9776  -13.1847 O   0  0  0  0  0  0  0  0  0  0  0  0
   18.7583  -21.0233  -12.5525 O   0  0  0  0  0  0  0  0  0  0  0  0
  2  1  1  6
  2 10  1  0
  3  2  1  0
  4  5  2  0
  4  3  1  0
  6  5  1  0
  7  6  2  0
  8  7  1  0
  8  9  2  0
  9  4  1  0
 10 11  2  0
 10 16  1  0
 13 12  1  1
 13 14  1  0
 15 13  1  0
 15 16  1  1
 17 15  1  0
 17 18  2  0
 19 17  1  0
 20 19  1  0
 20 21  1  0
 21 23  1  0
 22 21  2  0
M  END
$$$$
