FTG.pdb
     RDKit          3D

 23 23  0  0  1  0  0  0  0  0999 V2000
   21.6685   -9.5774  -17.1926 N   0  0  0  0  0  0  0  0  0  0  0  0
   20.8012   -9.4244  -16.0615 C   0  0  1  0  0  0  0  0  0  0  0  0
   21.3702   -8.3483  -15.1736 C   0  0  0  0  0  0  0  0  0  0  0  0
   22.6504   -8.6930  -14.5750 C   0  0  0  0  0  0  0  0  0  0  0  0
   23.8148   -8.1346  -15.0635 C   0  0  0  0  0  0  0  0  0  0  0  0
   25.0625   -8.4238  -14.5356 C   0  0  0  0  0  0  0  0  0  0  0  0
   25.1649   -9.3104  -13.4702 C   0  0  0  0  0  0  0  0  0  0  0  0
   24.0181   -9.8848  -12.9600 C   0  0  0  0  0  0  0  0  0  0  0  0
   22.7916   -9.5763  -13.5077 C   0  0  0  0  0  0  0  0  0  0  0  0
   19.4410   -9.0839  -16.4955 C   0  0  0  0  0  0  0  0  0  0  0  0
   19.2398   -8.5555  -17.6332 O   0  0  0  0  0  0  0  0  0  0  0  0
   16.9159  -11.0643  -17.6694 C   0  0  0  0  0  0  0  0  0  0  0  0
   16.2247  -10.3300  -16.5499 C   0  0  1  0  0  0  0  0  0  0  0  0
   16.1515  -11.1171  -15.4080 O   0  0  0  0  0  0  0  0  0  0  0  0
   16.9313   -9.0356  -16.2044 C   0  0  2  0  0  0  0  0  0  0  0  0
   18.2799   -9.3108  -15.7036 N   0  0  0  0  0  0  0  0  0  0  0  0
   16.2112   -8.2406  -15.1819 C   0  0  0  0  0  0  0  0  0  0  0  0
   16.7079   -8.1769  -14.0239 O   0  0  0  0  0  0  0  0  0  0  0  0
   14.9967   -7.5459  -15.4273 N   0  0  0  0  0  0  0  0  0  0  0  0
   14.4454   -6.7062  -14.3865 C   0  0  0  0  0  0  0  0  0  0  0  0
   13.7854   -7.5414  -13.3295 C   0  0  0  0  0  0  0  0  0  0  0  0
   13.7381   -8.7833  -13.3947 O   0  0  0  0  0  0  0  0  0  0  0  0
   13.2043   -6.9169  -12.2365 O   0  0  0  0  0  0  0  0  0  0  0  0
  2  1  1  6
  2 10  1  0
  3  2  1  0
  4  5  2  0
  4  3  1  0
  6  5  1  0
  7  6  2  0
  8  7  1  0
  8  9  2  0
  9  4  1  0
 10 11  2  0
 10 16  1  0
 13 12  1  6
 13 14  1  0
 15 13  1  0
 15 16  1  1
 17 15  1  0
 17 18  2  0
 19 17  1  0
 20 19  1  0
 20 21  1  0
 21 23  1  0
 22 21  2  0
M  END
$$$$
