FTG.pdb
     RDKit          3D

 23 23  0  0  1  0  0  0  0  0999 V2000
   22.9127  -12.9240  -17.9265 N   0  0  0  0  0  0  0  0  0  0  0  0
   23.1064  -12.1916  -16.7096 C   0  0  1  0  0  0  0  0  0  0  0  0
   24.5746  -11.8812  -16.5749 C   0  0  0  0  0  0  0  0  0  0  0  0
   25.4035  -13.0489  -16.3194 C   0  0  0  0  0  0  0  0  0  0  0  0
   26.1345  -13.6157  -17.3444 C   0  0  0  0  0  0  0  0  0  0  0  0
   26.9412  -14.7272  -17.1629 C   0  0  0  0  0  0  0  0  0  0  0  0
   27.0301  -15.3085  -15.9036 C   0  0  0  0  0  0  0  0  0  0  0  0
   26.3108  -14.7642  -14.8587 C   0  0  0  0  0  0  0  0  0  0  0  0
   25.5173  -13.6578  -15.0722 C   0  0  0  0  0  0  0  0  0  0  0  0
   22.3065  -10.9610  -16.7140 C   0  0  0  0  0  0  0  0  0  0  0  0
   21.9825  -10.4058  -17.8099 O   0  0  0  0  0  0  0  0  0  0  0  0
   18.8061   -8.0893  -15.1274 C   0  0  0  0  0  0  0  0  0  0  0  0
   19.6399   -9.3442  -15.1207 C   0  0  1  0  0  0  0  0  0  0  0  0
   19.0819  -10.3177  -15.9392 O   0  0  0  0  0  0  0  0  0  0  0  0
   21.0597   -9.0798  -15.5772 C   0  0  2  0  0  0  0  0  0  0  0  0
   21.8463  -10.3145  -15.5320 N   0  0  0  0  0  0  0  0  0  0  0  0
   21.7503   -8.0606  -14.7524 C   0  0  0  0  0  0  0  0  0  0  0  0
   22.1619   -8.4035  -13.6101 O   0  0  0  0  0  0  0  0  0  0  0  0
   21.9771   -6.7221  -15.1704 N   0  0  0  0  0  0  0  0  0  0  0  0
   22.5638   -5.7850  -14.2379 C   0  0  0  0  0  0  0  0  0  0  0  0
   22.0985   -4.3891  -14.5300 C   0  0  0  0  0  0  0  0  0  0  0  0
   21.3684   -4.1197  -15.5012 O   0  0  0  0  0  0  0  0  0  0  0  0
   22.4902   -3.3548  -13.6938 O   0  0  0  0  0  0  0  0  0  0  0  0
  2  1  1  6
  2 10  1  0
  3  2  1  0
  4  5  2  0
  4  3  1  0
  6  5  1  0
  7  6  2  0
  8  7  1  0
  8  9  2  0
  9  4  1  0
 10 11  2  0
 10 16  1  0
 13 12  1  6
 13 14  1  0
 15 13  1  0
 15 16  1  1
 17 15  1  0
 17 18  2  0
 19 17  1  0
 20 19  1  0
 20 21  1  0
 21 23  1  0
 22 21  2  0
M  END
$$$$
