FTG.pdb
     RDKit          3D

 23 23  0  0  1  0  0  0  0  0999 V2000
   26.7806  -22.3899  -10.1440 N   0  0  0  0  0  0  0  0  0  0  0  0
   26.2646  -21.0875  -10.4479 C   0  0  1  0  0  0  0  0  0  0  0  0
   27.3690  -20.0834  -10.2428 C   0  0  0  0  0  0  0  0  0  0  0  0
   27.7159  -19.8647   -8.8472 C   0  0  0  0  0  0  0  0  0  0  0  0
   28.9026  -20.3593   -8.3440 C   0  0  0  0  0  0  0  0  0  0  0  0
   29.2875  -20.1834   -7.0248 C   0  0  0  0  0  0  0  0  0  0  0  0
   28.4569  -19.4828   -6.1583 C   0  0  0  0  0  0  0  0  0  0  0  0
   27.2635  -18.9762   -6.6324 C   0  0  0  0  0  0  0  0  0  0  0  0
   26.9094  -19.1684   -7.9504 C   0  0  0  0  0  0  0  0  0  0  0  0
   25.7594  -21.0402  -11.8252 C   0  0  0  0  0  0  0  0  0  0  0  0
   26.5579  -21.1324  -12.8091 O   0  0  0  0  0  0  0  0  0  0  0  0
   24.8931  -23.2866  -13.8520 C   0  0  0  0  0  0  0  0  0  0  0  0
   23.6297  -22.4657  -13.8698 C   0  0  1  0  0  0  0  0  0  0  0  0
   22.6963  -22.9680  -12.9724 O   0  0  0  0  0  0  0  0  0  0  0  0
   23.8966  -21.0135  -13.5326 C   0  0  2  0  0  0  0  0  0  0  0  0
   24.3827  -20.8923  -12.1563 N   0  0  0  0  0  0  0  0  0  0  0  0
   22.6952  -20.1578  -13.6762 C   0  0  0  0  0  0  0  0  0  0  0  0
   22.1039  -19.7869  -12.6253 O   0  0  0  0  0  0  0  0  0  0  0  0
   22.1703  -19.7300  -14.9249 N   0  0  0  0  0  0  0  0  0  0  0  0
   21.0520  -18.8128  -14.9393 C   0  0  0  0  0  0  0  0  0  0  0  0
   19.7558  -19.5600  -14.8282 C   0  0  0  0  0  0  0  0  0  0  0  0
   19.6994  -20.7431  -14.4462 O   0  0  0  0  0  0  0  0  0  0  0  0
   18.5726  -18.9182  -15.1605 O   0  0  0  0  0  0  0  0  0  0  0  0
  2  1  1  6
  2 10  1  0
  3  2  1  0
  4  5  2  0
  4  3  1  0
  6  5  1  0
  7  6  2  0
  8  7  1  0
  8  9  2  0
  9  4  1  0
 10 11  2  0
 10 16  1  0
 13 12  1  1
 13 14  1  0
 15 13  1  0
 15 16  1  1
 17 15  1  0
 17 18  2  0
 19 17  1  0
 20 19  1  0
 20 21  1  0
 21 23  1  0
 22 21  2  0
M  END
$$$$
