KYI.pdb
     RDKit          3D

 30 30  0  0  1  0  0  0  0  0999 V2000
    7.9331  -18.9399   20.1579 N   0  0  0  0  0  0  0  0  0  0  0  0
    7.3662  -17.6153   20.4143 C   0  0  1  0  0  0  0  0  0  0  0  0
    6.1237  -17.4063   19.6009 C   0  0  0  0  0  0  0  0  0  0  0  0
    6.3404  -17.6309   18.1452 C   0  0  0  0  0  0  0  0  0  0  0  0
    7.3802  -16.6361   17.6141 C   0  0  0  0  0  0  0  0  0  0  0  0
    7.5534  -16.7238   16.1295 C   0  0  0  0  0  0  0  0  0  0  0  0
    8.4915  -15.6833   15.7203 N   0  0  0  0  0  0  0  0  0  0  0  0
    7.1663  -17.4254   21.8774 C   0  0  0  0  0  0  0  0  0  0  0  0
    6.5275  -16.4709   22.3814 O   0  0  0  0  0  0  0  0  0  0  0  0
    8.1956  -18.8039   30.6396 O   0  0  0  0  0  0  0  0  0  0  0  0
    8.1397  -18.9491   29.2499 C   0  0  0  0  0  0  0  0  0  0  0  0
    9.2761  -18.9838   28.4786 C   0  0  0  0  0  0  0  0  0  0  0  0
    9.2403  -19.1282   27.0888 C   0  0  0  0  0  0  0  0  0  0  0  0
    8.0103  -19.2389   26.4829 C   0  0  0  0  0  0  0  0  0  0  0  0
    7.9112  -19.3928   25.0344 C   0  0  0  0  0  0  0  0  0  0  0  0
    7.5916  -18.1415   24.2755 C   0  0  2  0  0  0  0  0  0  0  0  0
    7.7126  -18.3565   22.8260 N   0  0  0  0  0  0  0  0  0  0  0  0
    8.3757  -16.9650   24.6308 C   0  0  0  0  0  0  0  0  0  0  0  0
    9.5950  -16.8006   24.3034 O   0  0  0  0  0  0  0  0  0  0  0  0
    6.8602  -19.2050   27.2514 C   0  0  0  0  0  0  0  0  0  0  0  0
    6.9177  -19.0603   28.6352 C   0  0  0  0  0  0  0  0  0  0  0  0
    5.5647  -12.3173   25.3777 C   0  0  0  0  0  0  0  0  0  0  0  0
    6.6397  -13.2895   25.0408 C   0  0  0  0  0  0  0  0  0  0  0  0
    7.5496  -13.6884   26.1530 C   0  0  2  0  0  0  0  0  0  0  0  0
    8.2549  -12.4163   26.6269 C   0  0  0  0  0  0  0  0  0  0  0  0
    8.5488  -14.7645   25.8155 C   0  0  2  0  0  0  0  0  0  0  0  0
    7.7813  -15.9163   25.3837 N   0  0  0  0  0  0  0  0  0  0  0  0
    9.4793  -15.0368   26.9031 C   0  0  0  0  0  0  0  0  0  0  0  0
    9.3727  -16.0284   27.8587 O   0  0  0  0  0  0  0  0  0  0  0  0
   10.5181  -14.2983   27.0154 O   0  0  0  0  0  0  0  0  0  0  0  0
  2  1  1  1
  3  4  1  0
  3  2  1  0
  5  6  1  0
  5  4  1  0
  6  7  1  0
  8  9  2  0
  8  2  1  0
 10 11  1  0
 11 12  2  0
 12 13  1  0
 14 13  2  0
 14 15  1  0
 16 15  1  1
 16 17  1  0
 17  8  1  0
 18 16  1  0
 18 19  2  0
 20 14  1  0
 21 11  1  0
 21 20  2  0
 23 22  1  0
 24 23  1  0
 24 26  1  0
 24 25  1  6
 26 27  1  1
 27 18  1  0
 28 29  1  0
 28 26  1  0
 30 28  2  0
M  END
$$$$
