KYI.pdb
     RDKit          3D

 30 30  0  0  1  0  0  0  0  0999 V2000
   10.9550  -18.3418   20.5922 N   0  0  0  0  0  0  0  0  0  0  0  0
   10.5223  -17.1656   21.3478 C   0  0  1  0  0  0  0  0  0  0  0  0
    9.1190  -16.7872   20.9778 C   0  0  0  0  0  0  0  0  0  0  0  0
    8.9814  -16.4051   19.5455 C   0  0  0  0  0  0  0  0  0  0  0  0
    7.5481  -15.9349   19.2674 C   0  0  0  0  0  0  0  0  0  0  0  0
    7.3614  -15.4624   17.8590 C   0  0  0  0  0  0  0  0  0  0  0  0
    7.5345  -16.6070   16.9702 N   0  0  0  0  0  0  0  0  0  0  0  0
   10.7173  -17.4008   22.8050 C   0  0  0  0  0  0  0  0  0  0  0  0
   10.5258  -18.5037   23.3707 O   0  0  0  0  0  0  0  0  0  0  0  0
   11.2983  -15.2265   31.4385 O   0  0  0  0  0  0  0  0  0  0  0  0
   11.4077  -15.2427   30.0444 C   0  0  0  0  0  0  0  0  0  0  0  0
   10.7454  -14.3339   29.2551 C   0  0  0  0  0  0  0  0  0  0  0  0
   10.8423  -14.3343   27.8607 C   0  0  0  0  0  0  0  0  0  0  0  0
   11.6365  -15.2889   27.2691 C   0  0  0  0  0  0  0  0  0  0  0  0
   11.7766  -15.3373   25.8167 C   0  0  0  0  0  0  0  0  0  0  0  0
   11.0368  -16.4480   25.1362 C   0  0  2  0  0  0  0  0  0  0  0  0
   11.1506  -16.3416   23.6742 N   0  0  0  0  0  0  0  0  0  0  0  0
    9.6251  -16.5740   25.4776 C   0  0  0  0  0  0  0  0  0  0  0  0
    9.1588  -17.4797   26.2414 O   0  0  0  0  0  0  0  0  0  0  0  0
   12.3074  -16.2084   28.0560 C   0  0  0  0  0  0  0  0  0  0  0  0
   12.1974  -16.1909   29.4440 C   0  0  0  0  0  0  0  0  0  0  0  0
    7.6723  -11.6600   25.3820 C   0  0  0  0  0  0  0  0  0  0  0  0
    7.9253  -13.0692   25.7880 C   0  0  0  0  0  0  0  0  0  0  0  0
    6.9422  -14.0856   25.3144 C   0  0  2  0  0  0  0  0  0  0  0  0
    5.6210  -13.7902   26.0266 C   0  0  0  0  0  0  0  0  0  0  0  0
    7.3518  -15.5219   25.5131 C   0  0  2  0  0  0  0  0  0  0  0  0
    8.6819  -15.6509   24.9502 N   0  0  0  0  0  0  0  0  0  0  0  0
    6.3805  -16.4684   24.9807 C   0  0  0  0  0  0  0  0  0  0  0  0
    5.3843  -17.1191   25.6822 O   0  0  0  0  0  0  0  0  0  0  0  0
    6.4251  -16.7505   23.7335 O   0  0  0  0  0  0  0  0  0  0  0  0
  2  1  1  6
  3  4  1  0
  3  2  1  0
  5  6  1  0
  5  4  1  0
  6  7  1  0
  8  9  2  0
  8  2  1  0
 10 11  1  0
 11 12  2  0
 12 13  1  0
 14 13  2  0
 14 15  1  0
 16 15  1  1
 16 17  1  0
 17  8  1  0
 18 16  1  0
 18 19  2  0
 20 14  1  0
 21 11  1  0
 21 20  2  0
 23 22  1  0
 24 23  1  0
 24 26  1  0
 24 25  1  1
 26 27  1  6
 27 18  1  0
 28 29  1  0
 28 26  1  0
 30 28  2  0
M  END
$$$$
