KYI.pdb
     RDKit          3D

 30 30  0  0  1  0  0  0  0  0999 V2000
    9.6140  -18.5772   20.2507 N   0  0  0  0  0  0  0  0  0  0  0  0
   10.5033  -17.4163   20.1933 C   0  0  1  0  0  0  0  0  0  0  0  0
   10.4828  -16.8027   18.8250 C   0  0  0  0  0  0  0  0  0  0  0  0
   10.0138  -17.7473   17.7743 C   0  0  0  0  0  0  0  0  0  0  0  0
   11.1422  -18.0102   16.7691 C   0  0  0  0  0  0  0  0  0  0  0  0
   10.6939  -18.8392   15.6057 C   0  0  0  0  0  0  0  0  0  0  0  0
   11.8558  -19.1037   14.7630 N   0  0  0  0  0  0  0  0  0  0  0  0
   10.1618  -16.4632   21.2850 C   0  0  0  0  0  0  0  0  0  0  0  0
   10.7807  -15.3946   21.5042 O   0  0  0  0  0  0  0  0  0  0  0  0
    5.8334  -11.8597   27.4079 O   0  0  0  0  0  0  0  0  0  0  0  0
    6.1914  -12.8067   26.4432 C   0  0  0  0  0  0  0  0  0  0  0  0
    5.8793  -14.1373   26.5831 C   0  0  0  0  0  0  0  0  0  0  0  0
    6.2285  -15.0982   25.6300 C   0  0  0  0  0  0  0  0  0  0  0  0
    6.9119  -14.6797   24.5120 C   0  0  0  0  0  0  0  0  0  0  0  0
    7.3020  -15.6385   23.4824 C   0  0  0  0  0  0  0  0  0  0  0  0
    8.7771  -15.8430   23.3203 C   0  0  2  0  0  0  0  0  0  0  0  0
    9.0669  -16.7232   22.1788 N   0  0  0  0  0  0  0  0  0  0  0  0
    9.4788  -16.3617   24.4881 C   0  0  0  0  0  0  0  0  0  0  0  0
   10.0367  -17.5054   24.5296 O   0  0  0  0  0  0  0  0  0  0  0  0
    7.2306  -13.3416   24.3623 C   0  0  0  0  0  0  0  0  0  0  0  0
    6.8734  -12.3999   25.3240 C   0  0  0  0  0  0  0  0  0  0  0  0
   10.2487  -12.5261   28.4583 C   0  0  0  0  0  0  0  0  0  0  0  0
   10.4970  -13.6204   27.4808 C   0  0  0  0  0  0  0  0  0  0  0  0
   10.0981  -14.9939   27.9030 C   0  0  2  0  0  0  0  0  0  0  0  0
   10.9184  -15.3305   29.1496 C   0  0  0  0  0  0  0  0  0  0  0  0
   10.2519  -16.0628   26.8522 C   0  0  2  0  0  0  0  0  0  0  0  0
    9.5707  -15.5755   25.6686 N   0  0  0  0  0  0  0  0  0  0  0  0
    9.8048  -17.3732   27.3053 C   0  0  0  0  0  0  0  0  0  0  0  0
   10.5974  -18.4130   27.7509 O   0  0  0  0  0  0  0  0  0  0  0  0
    8.5499  -17.6227   27.3043 O   0  0  0  0  0  0  0  0  0  0  0  0
  2  1  1  6
  3  4  1  0
  3  2  1  0
  5  6  1  0
  5  4  1  0
  6  7  1  0
  8  9  2  0
  8  2  1  0
 10 11  1  0
 11 12  2  0
 12 13  1  0
 14 13  2  0
 14 15  1  0
 16 15  1  1
 16 17  1  0
 17  8  1  0
 18 16  1  0
 18 19  2  0
 20 14  1  0
 21 11  1  0
 21 20  2  0
 23 22  1  0
 24 23  1  0
 24 26  1  0
 24 25  1  1
 26 27  1  6
 27 18  1  0
 28 29  1  0
 28 26  1  0
 30 28  2  0
M  END
$$$$
