KYI.pdb
     RDKit          3D

 30 30  0  0  1  0  0  0  0  0999 V2000
    7.6939  -16.7994   19.3031 N   0  0  0  0  0  0  0  0  0  0  0  0
    8.3189  -15.7037   20.0451 C   0  0  1  0  0  0  0  0  0  0  0  0
    7.6106  -14.4101   19.7728 C   0  0  0  0  0  0  0  0  0  0  0  0
    8.2768  -13.5964   18.7191 C   0  0  0  0  0  0  0  0  0  0  0  0
    7.7332  -13.9862   17.3387 C   0  0  0  0  0  0  0  0  0  0  0  0
    8.3821  -13.2197   16.2282 C   0  0  0  0  0  0  0  0  0  0  0  0
    7.8891  -13.7518   14.9617 N   0  0  0  0  0  0  0  0  0  0  0  0
    8.3992  -16.0528   21.4903 C   0  0  0  0  0  0  0  0  0  0  0  0
    7.4108  -16.3772   22.1910 O   0  0  0  0  0  0  0  0  0  0  0  0
   11.7354  -17.9276   29.5190 O   0  0  0  0  0  0  0  0  0  0  0  0
   11.5606  -17.6734   28.1550 C   0  0  0  0  0  0  0  0  0  0  0  0
   10.9080  -18.5580   27.3309 C   0  0  0  0  0  0  0  0  0  0  0  0
   10.7236  -18.3215   25.9658 C   0  0  0  0  0  0  0  0  0  0  0  0
   11.2211  -17.1516   25.4404 C   0  0  0  0  0  0  0  0  0  0  0  0
   11.0575  -16.8503   24.0212 C   0  0  0  0  0  0  0  0  0  0  0  0
    9.7367  -16.2563   23.6383 C   0  0  2  0  0  0  0  0  0  0  0  0
    9.6562  -16.0371   22.1866 N   0  0  0  0  0  0  0  0  0  0  0  0
    9.3809  -15.0122   24.3097 C   0  0  0  0  0  0  0  0  0  0  0  0
    9.7956  -13.8655   23.9433 O   0  0  0  0  0  0  0  0  0  0  0  0
   11.8799  -16.2546   26.2626 C   0  0  0  0  0  0  0  0  0  0  0  0
   12.0531  -16.5093   27.6206 C   0  0  0  0  0  0  0  0  0  0  0  0
    5.9591  -11.0488   26.6538 C   0  0  0  0  0  0  0  0  0  0  0  0
    7.0659  -11.9711   27.0264 C   0  0  0  0  0  0  0  0  0  0  0  0
    7.2504  -13.1732   26.1634 C   0  0  2  0  0  0  0  0  0  0  0  0
    6.0138  -14.0526   26.3576 C   0  0  0  0  0  0  0  0  0  0  0  0
    8.5132  -13.9575   26.4098 C   0  0  2  0  0  0  0  0  0  0  0  0
    8.5215  -15.0366   25.4414 N   0  0  0  0  0  0  0  0  0  0  0  0
    8.6511  -14.3917   27.7936 C   0  0  0  0  0  0  0  0  0  0  0  0
    8.6140  -15.6898   28.2644 O   0  0  0  0  0  0  0  0  0  0  0  0
    8.8273  -13.5025   28.6965 O   0  0  0  0  0  0  0  0  0  0  0  0
  2  1  1  6
  3  4  1  0
  3  2  1  0
  5  6  1  0
  5  4  1  0
  6  7  1  0
  8  9  2  0
  8  2  1  0
 10 11  1  0
 11 12  2  0
 12 13  1  0
 14 13  2  0
 14 15  1  0
 16 15  1  6
 16 17  1  0
 17  8  1  0
 18 16  1  0
 18 19  2  0
 20 14  1  0
 21 11  1  0
 21 20  2  0
 23 22  1  0
 24 23  1  0
 24 26  1  0
 24 25  1  1
 26 27  1  6
 27 18  1  0
 28 29  1  0
 28 26  1  0
 30 28  2  0
M  END
$$$$
