KYI.pdb
     RDKit          3D

 30 30  0  0  1  0  0  0  0  0999 V2000
    5.7729  -20.1971   21.4996 N   0  0  0  0  0  0  0  0  0  0  0  0
    6.5886  -18.9829   21.5441 C   0  0  1  0  0  0  0  0  0  0  0  0
    6.1832  -18.0344   20.4555 C   0  0  0  0  0  0  0  0  0  0  0  0
    6.6888  -18.4412   19.1156 C   0  0  0  0  0  0  0  0  0  0  0  0
    7.6604  -17.3811   18.5818 C   0  0  0  0  0  0  0  0  0  0  0  0
    8.1700  -17.7065   17.2121 C   0  0  0  0  0  0  0  0  0  0  0  0
    8.9674  -16.5768   16.7449 N   0  0  0  0  0  0  0  0  0  0  0  0
    6.5380  -18.3894   22.9087 C   0  0  0  0  0  0  0  0  0  0  0  0
    5.4764  -18.0923   23.5069 O   0  0  0  0  0  0  0  0  0  0  0  0
    5.1180  -22.9139   27.0977 O   0  0  0  0  0  0  0  0  0  0  0  0
    5.8976  -21.7860   26.8223 C   0  0  0  0  0  0  0  0  0  0  0  0
    6.8416  -21.7839   25.8240 C   0  0  0  0  0  0  0  0  0  0  0  0
    7.6300  -20.6668   25.5341 C   0  0  0  0  0  0  0  0  0  0  0  0
    7.4419  -19.5310   26.2869 C   0  0  0  0  0  0  0  0  0  0  0  0
    8.2360  -18.3333   26.0288 C   0  0  0  0  0  0  0  0  0  0  0  0
    7.7155  -17.4380   24.9465 C   0  0  2  0  0  0  0  0  0  0  0  0
    7.7433  -18.1145   23.6413 N   0  0  0  0  0  0  0  0  0  0  0  0
    8.3859  -16.1507   24.8093 C   0  0  0  0  0  0  0  0  0  0  0  0
    9.5162  -15.9971   24.2439 O   0  0  0  0  0  0  0  0  0  0  0  0
    6.4935  -19.5237   27.2944 C   0  0  0  0  0  0  0  0  0  0  0  0
    5.7181  -20.6477   27.5674 C   0  0  0  0  0  0  0  0  0  0  0  0
    5.7758  -11.2959   26.6624 C   0  0  0  0  0  0  0  0  0  0  0  0
    6.5065  -12.5819   26.4991 C   0  0  0  0  0  0  0  0  0  0  0  0
    7.5641  -12.6183   25.4483 C   0  0  2  0  0  0  0  0  0  0  0  0
    6.8468  -12.6313   24.0973 C   0  0  0  0  0  0  0  0  0  0  0  0
    8.5384  -13.7631   25.5520 C   0  0  2  0  0  0  0  0  0  0  0  0
    7.7749  -14.9738   25.3207 N   0  0  0  0  0  0  0  0  0  0  0  0
    9.2909  -13.7572   26.7995 C   0  0  0  0  0  0  0  0  0  0  0  0
   10.3448  -12.9277   27.1299 O   0  0  0  0  0  0  0  0  0  0  0  0
    8.9684  -14.5967   27.7096 O   0  0  0  0  0  0  0  0  0  0  0  0
  2  1  1  1
  3  4  1  0
  3  2  1  0
  5  6  1  0
  5  4  1  0
  6  7  1  0
  8  9  2  0
  8  2  1  0
 10 11  1  0
 11 12  2  0
 12 13  1  0
 14 13  2  0
 14 15  1  0
 16 15  1  1
 16 17  1  0
 17  8  1  0
 18 16  1  0
 18 19  2  0
 20 14  1  0
 21 11  1  0
 21 20  2  0
 23 22  1  0
 24 23  1  0
 24 26  1  0
 24 25  1  6
 26 27  1  1
 27 18  1  0
 28 29  1  0
 28 26  1  0
 30 28  2  0
M  END
$$$$
