KYI.pdb
     RDKit          3D

 30 30  0  0  1  0  0  0  0  0999 V2000
    8.7197  -18.8726   22.6136 N   0  0  0  0  0  0  0  0  0  0  0  0
    9.6216  -18.3026   21.6119 C   0  0  1  0  0  0  0  0  0  0  0  0
    9.2659  -18.7943   20.2405 C   0  0  0  0  0  0  0  0  0  0  0  0
    7.9407  -19.4712   20.1942 C   0  0  0  0  0  0  0  0  0  0  0  0
    7.6541  -19.9577   18.7680 C   0  0  0  0  0  0  0  0  0  0  0  0
    6.2787  -20.5313   18.6221 C   0  0  0  0  0  0  0  0  0  0  0  0
    6.0775  -20.8747   17.2179 N   0  0  0  0  0  0  0  0  0  0  0  0
    9.6389  -16.8187   21.7331 C   0  0  0  0  0  0  0  0  0  0  0  0
    9.5289  -16.0329   20.7618 O   0  0  0  0  0  0  0  0  0  0  0  0
    7.6305  -12.9366   17.3234 O   0  0  0  0  0  0  0  0  0  0  0  0
    7.7134  -13.3444   18.6585 C   0  0  0  0  0  0  0  0  0  0  0  0
    8.5205  -12.6996   19.5643 C   0  0  0  0  0  0  0  0  0  0  0  0
    8.6164  -13.0925   20.9022 C   0  0  0  0  0  0  0  0  0  0  0  0
    7.8668  -14.1698   21.3140 C   0  0  0  0  0  0  0  0  0  0  0  0
    7.9258  -14.6248   22.7001 C   0  0  0  0  0  0  0  0  0  0  0  0
    9.3038  -14.8154   23.2558 C   0  0  2  0  0  0  0  0  0  0  0  0
    9.7877  -16.1824   23.0130 N   0  0  0  0  0  0  0  0  0  0  0  0
    9.4638  -14.5183   24.6740 C   0  0  0  0  0  0  0  0  0  0  0  0
    9.4197  -13.3428   25.1612 O   0  0  0  0  0  0  0  0  0  0  0  0
    7.0511  -14.8255   20.4089 C   0  0  0  0  0  0  0  0  0  0  0  0
    6.9697  -14.4180   19.0798 C   0  0  0  0  0  0  0  0  0  0  0  0
    7.3902  -12.3656   27.0628 C   0  0  0  0  0  0  0  0  0  0  0  0
    8.4403  -13.3013   26.5765 C   0  0  0  0  0  0  0  0  0  0  0  0
    8.7895  -14.4371   27.4775 C   0  0  2  0  0  0  0  0  0  0  0  0
    9.0970  -13.8360   28.8502 C   0  0  0  0  0  0  0  0  0  0  0  0
    9.9230  -15.3106   27.0058 C   0  0  2  0  0  0  0  0  0  0  0  0
    9.6808  -15.5739   25.6007 N   0  0  0  0  0  0  0  0  0  0  0  0
   10.0948  -16.5068   27.8196 C   0  0  0  0  0  0  0  0  0  0  0  0
   10.9817  -16.6804   28.8642 O   0  0  0  0  0  0  0  0  0  0  0  0
    9.3620  -17.5251   27.5682 O   0  0  0  0  0  0  0  0  0  0  0  0
  2  1  1  1
  3  4  1  0
  3  2  1  0
  5  6  1  0
  5  4  1  0
  6  7  1  0
  8  9  2  0
  8  2  1  0
 10 11  1  0
 11 12  2  0
 12 13  1  0
 14 13  2  0
 14 15  1  0
 16 15  1  1
 16 17  1  0
 17  8  1  0
 18 16  1  0
 18 19  2  0
 20 14  1  0
 21 11  1  0
 21 20  2  0
 23 22  1  0
 24 23  1  0
 24 26  1  0
 24 25  1  1
 26 27  1  6
 27 18  1  0
 28 29  1  0
 28 26  1  0
 30 28  2  0
M  END
$$$$
