KYI.pdb
     RDKit          3D

 30 30  0  0  1  0  0  0  0  0999 V2000
    7.2564  -17.5534   20.4929 N   0  0  0  0  0  0  0  0  0  0  0  0
    7.6592  -16.1485   20.5685 C   0  0  1  0  0  0  0  0  0  0  0  0
    6.9760  -15.3454   19.5020 C   0  0  0  0  0  0  0  0  0  0  0  0
    7.6241  -15.4839   18.1689 C   0  0  0  0  0  0  0  0  0  0  0  0
    7.6505  -14.1244   17.4590 C   0  0  0  0  0  0  0  0  0  0  0  0
    8.2569  -14.2016   16.0921 C   0  0  0  0  0  0  0  0  0  0  0  0
    8.2700  -12.8567   15.5255 N   0  0  0  0  0  0  0  0  0  0  0  0
    7.4354  -15.6317   21.9467 C   0  0  0  0  0  0  0  0  0  0  0  0
    8.0039  -14.6180   22.4182 O   0  0  0  0  0  0  0  0  0  0  0  0
    9.1340  -20.9022   28.6291 O   0  0  0  0  0  0  0  0  0  0  0  0
    8.7471  -20.2430   27.4580 C   0  0  0  0  0  0  0  0  0  0  0  0
    9.6682  -19.7298   26.5773 C   0  0  0  0  0  0  0  0  0  0  0  0
    9.3008  -19.0680   25.4023 C   0  0  0  0  0  0  0  0  0  0  0  0
    7.9592  -18.9328   25.1301 C   0  0  0  0  0  0  0  0  0  0  0  0
    7.5162  -18.2517   23.9171 C   0  0  0  0  0  0  0  0  0  0  0  0
    6.9792  -16.8676   24.1168 C   0  0  2  0  0  0  0  0  0  0  0  0
    6.5248  -16.2877   22.8443 N   0  0  0  0  0  0  0  0  0  0  0  0
    7.8856  -15.9201   24.7539 C   0  0  0  0  0  0  0  0  0  0  0  0
    8.9360  -15.4617   24.1993 O   0  0  0  0  0  0  0  0  0  0  0  0
    7.0242  -19.4465   26.0112 C   0  0  0  0  0  0  0  0  0  0  0  0
    7.4112  -20.1027   27.1769 C   0  0  0  0  0  0  0  0  0  0  0  0
    5.8627  -11.5468   26.3993 C   0  0  0  0  0  0  0  0  0  0  0  0
    6.8230  -12.6143   26.0085 C   0  0  0  0  0  0  0  0  0  0  0  0
    7.5071  -13.3346   27.1207 C   0  0  2  0  0  0  0  0  0  0  0  0
    8.2479  -12.2789   27.9435 C   0  0  0  0  0  0  0  0  0  0  0  0
    8.4399  -14.4396   26.6973 C   0  0  2  0  0  0  0  0  0  0  0  0
    7.6159  -15.4539   26.0691 N   0  0  0  0  0  0  0  0  0  0  0  0
    9.2698  -14.9318   27.7888 C   0  0  0  0  0  0  0  0  0  0  0  0
    9.1117  -16.1148   28.4842 O   0  0  0  0  0  0  0  0  0  0  0  0
   10.2606  -14.2180   28.1706 O   0  0  0  0  0  0  0  0  0  0  0  0
  2  1  1  1
  3  4  1  0
  3  2  1  0
  5  6  1  0
  5  4  1  0
  6  7  1  0
  8  9  2  0
  8  2  1  0
 10 11  1  0
 11 12  2  0
 12 13  1  0
 14 13  2  0
 14 15  1  0
 16 15  1  6
 16 17  1  0
 17  8  1  0
 18 16  1  0
 18 19  2  0
 20 14  1  0
 21 11  1  0
 21 20  2  0
 23 22  1  0
 24 23  1  0
 24 26  1  0
 24 25  1  6
 26 27  1  1
 27 18  1  0
 28 29  1  0
 28 26  1  0
 30 28  2  0
M  END
$$$$
