KYI.pdb
     RDKit          3D

 30 30  0  0  1  0  0  0  0  0999 V2000
    9.0722  -18.7526   20.2225 N   0  0  0  0  0  0  0  0  0  0  0  0
   10.3276  -18.0067   20.3197 C   0  0  1  0  0  0  0  0  0  0  0  0
   10.6497  -17.3428   19.0141 C   0  0  0  0  0  0  0  0  0  0  0  0
   10.7155  -18.3024   17.8778 C   0  0  0  0  0  0  0  0  0  0  0  0
   11.8155  -17.8747   16.8981 C   0  0  0  0  0  0  0  0  0  0  0  0
   11.9602  -18.8218   15.7475 C   0  0  0  0  0  0  0  0  0  0  0  0
   12.9358  -18.2605   14.8183 N   0  0  0  0  0  0  0  0  0  0  0  0
   10.2698  -17.0678   21.4738 C   0  0  0  0  0  0  0  0  0  0  0  0
   11.2068  -16.3024   21.8047 O   0  0  0  0  0  0  0  0  0  0  0  0
    7.5780  -12.1850   18.5296 O   0  0  0  0  0  0  0  0  0  0  0  0
    7.6577  -12.9075   19.7243 C   0  0  0  0  0  0  0  0  0  0  0  0
    8.4711  -12.5109   20.7581 C   0  0  0  0  0  0  0  0  0  0  0  0
    8.5640  -13.2197   21.9591 C   0  0  0  0  0  0  0  0  0  0  0  0
    7.8047  -14.3584   22.0971 C   0  0  0  0  0  0  0  0  0  0  0  0
    7.8602  -15.1389   23.3297 C   0  0  0  0  0  0  0  0  0  0  0  0
    9.0289  -16.0682   23.4499 C   0  0  2  0  0  0  0  0  0  0  0  0
    9.0977  -16.9830   22.3009 N   0  0  0  0  0  0  0  0  0  0  0  0
    9.0865  -16.8620   24.6713 C   0  0  0  0  0  0  0  0  0  0  0  0
    8.3636  -17.8882   24.8843 O   0  0  0  0  0  0  0  0  0  0  0  0
    6.9826  -14.7657   21.0613 C   0  0  0  0  0  0  0  0  0  0  0  0
    6.9044  -14.0450   19.8723 C   0  0  0  0  0  0  0  0  0  0  0  0
   11.8457  -20.0973   24.3015 C   0  0  0  0  0  0  0  0  0  0  0  0
   10.8544  -19.2416   25.0084 C   0  0  0  0  0  0  0  0  0  0  0  0
   11.3807  -18.3807   26.1065 C   0  0  2  0  0  0  0  0  0  0  0  0
   11.9899  -19.3174   27.1513 C   0  0  0  0  0  0  0  0  0  0  0  0
   10.3756  -17.4517   26.7368 C   0  0  2  0  0  0  0  0  0  0  0  0
    9.9905  -16.5050   25.7083 N   0  0  0  0  0  0  0  0  0  0  0  0
   10.8619  -16.8381   27.9655 C   0  0  0  0  0  0  0  0  0  0  0  0
   10.6145  -17.2581   29.2580 O   0  0  0  0  0  0  0  0  0  0  0  0
   11.6003  -15.7971   27.8759 O   0  0  0  0  0  0  0  0  0  0  0  0
  2  1  1  6
  3  4  1  0
  3  2  1  0
  5  6  1  0
  5  4  1  0
  6  7  1  0
  8  9  2  0
  8  2  1  0
 10 11  1  0
 11 12  2  0
 12 13  1  0
 14 13  2  0
 14 15  1  0
 16 15  1  6
 16 17  1  0
 17  8  1  0
 18 16  1  0
 18 19  2  0
 20 14  1  0
 21 11  1  0
 21 20  2  0
 23 22  1  0
 24 23  1  0
 24 26  1  0
 24 25  1  1
 26 27  1  6
 27 18  1  0
 28 29  1  0
 28 26  1  0
 30 28  2  0
M  END
$$$$
