KYI.pdb
     RDKit          3D

 30 30  0  0  1  0  0  0  0  0999 V2000
   10.5907  -17.9818   19.8231 N   0  0  0  0  0  0  0  0  0  0  0  0
    9.9953  -18.2919   21.1235 C   0  0  1  0  0  0  0  0  0  0  0  0
   10.7646  -19.3809   21.8102 C   0  0  0  0  0  0  0  0  0  0  0  0
   11.7751  -20.0222   20.9247 C   0  0  0  0  0  0  0  0  0  0  0  0
   12.4635  -21.1735   21.6687 C   0  0  0  0  0  0  0  0  0  0  0  0
   13.5438  -21.8179   20.8566 C   0  0  0  0  0  0  0  0  0  0  0  0
   14.7899  -21.1017   21.1102 N   0  0  0  0  0  0  0  0  0  0  0  0
    9.8651  -17.0471   21.9298 C   0  0  0  0  0  0  0  0  0  0  0  0
   10.6368  -16.0632   21.8332 O   0  0  0  0  0  0  0  0  0  0  0  0
    5.8556  -10.8026   26.8812 O   0  0  0  0  0  0  0  0  0  0  0  0
    6.1827  -11.9518   26.1546 C   0  0  0  0  0  0  0  0  0  0  0  0
    6.8732  -11.8872   24.9686 C   0  0  0  0  0  0  0  0  0  0  0  0
    7.2091  -13.0243   24.2286 C   0  0  0  0  0  0  0  0  0  0  0  0
    6.8262  -14.2507   24.7200 C   0  0  0  0  0  0  0  0  0  0  0  0
    7.1501  -15.4732   23.9906 C   0  0  0  0  0  0  0  0  0  0  0  0
    8.5892  -15.6296   23.6053 C   0  0  2  0  0  0  0  0  0  0  0  0
    8.8123  -16.8984   22.8966 N   0  0  0  0  0  0  0  0  0  0  0  0
    9.5525  -15.5387   24.6957 C   0  0  0  0  0  0  0  0  0  0  0  0
   10.2358  -14.4955   24.9526 O   0  0  0  0  0  0  0  0  0  0  0  0
    6.1304  -14.3257   25.9137 C   0  0  0  0  0  0  0  0  0  0  0  0
    5.8054  -13.1803   26.6360 C   0  0  0  0  0  0  0  0  0  0  0  0
    9.8179  -13.0243   27.9693 C   0  0  0  0  0  0  0  0  0  0  0  0
   10.1457  -14.1283   27.0267 C   0  0  0  0  0  0  0  0  0  0  0  0
   10.1288  -15.5100   27.5875 C   0  0  2  0  0  0  0  0  0  0  0  0
   10.9058  -15.4636   28.9044 C   0  0  0  0  0  0  0  0  0  0  0  0
   10.6719  -16.5823   26.6790 C   0  0  2  0  0  0  0  0  0  0  0  0
    9.7697  -16.6563   25.5464 N   0  0  0  0  0  0  0  0  0  0  0  0
   10.8833  -17.8518   27.3619 C   0  0  0  0  0  0  0  0  0  0  0  0
   12.0674  -18.3197   27.8976 O   0  0  0  0  0  0  0  0  0  0  0  0
    9.8874  -18.6433   27.4986 O   0  0  0  0  0  0  0  0  0  0  0  0
  2  1  1  6
  3  4  1  0
  3  2  1  0
  5  6  1  0
  5  4  1  0
  6  7  1  0
  8  9  2  0
  8  2  1  0
 10 11  1  0
 11 12  2  0
 12 13  1  0
 14 13  2  0
 14 15  1  0
 16 15  1  1
 16 17  1  0
 17  8  1  0
 18 16  1  0
 18 19  2  0
 20 14  1  0
 21 11  1  0
 21 20  2  0
 23 22  1  0
 24 23  1  0
 24 26  1  0
 24 25  1  1
 26 27  1  6
 27 18  1  0
 28 29  1  0
 28 26  1  0
 30 28  2  0
M  END
$$$$
