KYI.pdb
     RDKit          3D

 30 30  0  0  1  0  0  0  0  0999 V2000
    4.9683  -17.5899   20.3366 N   0  0  0  0  0  0  0  0  0  0  0  0
    6.1708  -16.9492   20.8706 C   0  0  1  0  0  0  0  0  0  0  0  0
    6.2499  -15.5196   20.4242 C   0  0  0  0  0  0  0  0  0  0  0  0
    7.1827  -15.3213   19.2810 C   0  0  0  0  0  0  0  0  0  0  0  0
    7.1452  -13.8567   18.8266 C   0  0  0  0  0  0  0  0  0  0  0  0
    7.9195  -13.6263   17.5659 C   0  0  0  0  0  0  0  0  0  0  0  0
    7.7010  -12.2458   17.1457 N   0  0  0  0  0  0  0  0  0  0  0  0
    6.2216  -17.1215   22.3486 C   0  0  0  0  0  0  0  0  0  0  0  0
    5.2341  -16.9743   23.1077 O   0  0  0  0  0  0  0  0  0  0  0  0
    8.6284  -19.9631   30.3645 O   0  0  0  0  0  0  0  0  0  0  0  0
    8.4480  -19.7313   28.9973 C   0  0  0  0  0  0  0  0  0  0  0  0
    7.2025  -19.7477   28.4177 C   0  0  0  0  0  0  0  0  0  0  0  0
    7.0024  -19.5184   27.0535 C   0  0  0  0  0  0  0  0  0  0  0  0
    8.1065  -19.2675   26.2724 C   0  0  0  0  0  0  0  0  0  0  0  0
    7.9585  -19.0198   24.8412 C   0  0  0  0  0  0  0  0  0  0  0  0
    7.5162  -17.6375   24.4704 C   0  0  2  0  0  0  0  0  0  0  0  0
    7.4463  -17.4782   23.0104 N   0  0  0  0  0  0  0  0  0  0  0  0
    8.3179  -16.5470   25.0121 C   0  0  0  0  0  0  0  0  0  0  0  0
    9.4240  -16.1640   24.5113 O   0  0  0  0  0  0  0  0  0  0  0  0
    9.3650  -19.2489   26.8473 C   0  0  0  0  0  0  0  0  0  0  0  0
    9.5428  -19.4799   28.2090 C   0  0  0  0  0  0  0  0  0  0  0  0
    5.8045  -12.1490   26.4375 C   0  0  0  0  0  0  0  0  0  0  0  0
    6.8489  -13.1352   26.0485 C   0  0  0  0  0  0  0  0  0  0  0  0
    7.6760  -13.7001   27.1533 C   0  0  2  0  0  0  0  0  0  0  0  0
    8.3951  -12.5234   27.8153 C   0  0  0  0  0  0  0  0  0  0  0  0
    8.6559  -14.7693   26.7446 C   0  0  2  0  0  0  0  0  0  0  0  0
    7.8732  -15.8429   26.1638 N   0  0  0  0  0  0  0  0  0  0  0  0
    9.5299  -15.1850   27.8336 C   0  0  0  0  0  0  0  0  0  0  0  0
   10.8086  -14.7309   28.0919 O   0  0  0  0  0  0  0  0  0  0  0  0
    9.0997  -16.0630   28.6588 O   0  0  0  0  0  0  0  0  0  0  0  0
  2  1  1  1
  3  4  1  0
  3  2  1  0
  5  6  1  0
  5  4  1  0
  6  7  1  0
  8  9  2  0
  8  2  1  0
 10 11  1  0
 11 12  2  0
 12 13  1  0
 14 13  2  0
 14 15  1  0
 16 15  1  6
 16 17  1  0
 17  8  1  0
 18 16  1  0
 18 19  2  0
 20 14  1  0
 21 11  1  0
 21 20  2  0
 23 22  1  0
 24 23  1  0
 24 26  1  0
 24 25  1  6
 26 27  1  1
 27 18  1  0
 28 29  1  0
 28 26  1  0
 30 28  2  0
M  END
$$$$
