KYI.pdb
     RDKit          3D

 30 30  0  0  1  0  0  0  0  0999 V2000
    7.5011  -21.3396   23.3486 N   0  0  0  0  0  0  0  0  0  0  0  0
    7.0296  -20.0877   23.9420 C   0  0  1  0  0  0  0  0  0  0  0  0
    7.1910  -20.1164   25.4328 C   0  0  0  0  0  0  0  0  0  0  0  0
    6.6672  -21.3671   26.0475 C   0  0  0  0  0  0  0  0  0  0  0  0
    6.7741  -21.2808   27.5752 C   0  0  0  0  0  0  0  0  0  0  0  0
    6.4315  -22.5733   28.2490 C   0  0  0  0  0  0  0  0  0  0  0  0
    6.7112  -22.4295   29.6742 N   0  0  0  0  0  0  0  0  0  0  0  0
    7.7022  -18.9325   23.2864 C   0  0  0  0  0  0  0  0  0  0  0  0
    8.8991  -18.9364   22.9113 O   0  0  0  0  0  0  0  0  0  0  0  0
    8.8172  -11.4730   18.6488 O   0  0  0  0  0  0  0  0  0  0  0  0
    8.2870  -12.5044   19.4303 C   0  0  0  0  0  0  0  0  0  0  0  0
    8.2911  -13.8109   19.0055 C   0  0  0  0  0  0  0  0  0  0  0  0
    7.7659  -14.8549   19.7722 C   0  0  0  0  0  0  0  0  0  0  0  0
    7.2266  -14.5465   20.9995 C   0  0  0  0  0  0  0  0  0  0  0  0
    6.6643  -15.5959   21.8445 C   0  0  0  0  0  0  0  0  0  0  0  0
    7.6608  -16.5356   22.4510 C   0  0  2  0  0  0  0  0  0  0  0  0
    6.9938  -17.7070   23.0384 N   0  0  0  0  0  0  0  0  0  0  0  0
    8.5462  -15.9609   23.4565 C   0  0  0  0  0  0  0  0  0  0  0  0
    9.7665  -15.6679   23.2419 O   0  0  0  0  0  0  0  0  0  0  0  0
    7.2180  -13.2334   21.4358 C   0  0  0  0  0  0  0  0  0  0  0  0
    7.7464  -12.2076   20.6563 C   0  0  0  0  0  0  0  0  0  0  0  0
    6.2816  -12.1276   25.9770 C   0  0  0  0  0  0  0  0  0  0  0  0
    7.2849  -13.0660   25.4049 C   0  0  0  0  0  0  0  0  0  0  0  0
    7.9917  -13.9555   26.3709 C   0  0  2  0  0  0  0  0  0  0  0  0
    8.7997  -13.0479   27.3002 C   0  0  0  0  0  0  0  0  0  0  0  0
    8.8701  -15.0120   25.7522 C   0  0  2  0  0  0  0  0  0  0  0  0
    8.0574  -15.6943   24.7641 N   0  0  0  0  0  0  0  0  0  0  0  0
    9.4802  -15.8928   26.7394 C   0  0  0  0  0  0  0  0  0  0  0  0
   10.7267  -15.7546   27.3182 O   0  0  0  0  0  0  0  0  0  0  0  0
    8.8189  -16.9138   27.1363 O   0  0  0  0  0  0  0  0  0  0  0  0
  2  1  1  6
  3  4  1  0
  3  2  1  0
  5  6  1  0
  5  4  1  0
  6  7  1  0
  8  9  2  0
  8  2  1  0
 10 11  1  0
 11 12  2  0
 12 13  1  0
 14 13  2  0
 14 15  1  0
 16 15  1  1
 16 17  1  0
 17  8  1  0
 18 16  1  0
 18 19  2  0
 20 14  1  0
 21 11  1  0
 21 20  2  0
 23 22  1  0
 24 23  1  0
 24 26  1  0
 24 25  1  1
 26 27  1  6
 27 18  1  0
 28 29  1  0
 28 26  1  0
 30 28  2  0
M  END
$$$$
