KYI.pdb
     RDKit          3D

 30 30  0  0  1  0  0  0  0  0999 V2000
    9.8823  -18.9138   20.3243 N   0  0  0  0  0  0  0  0  0  0  0  0
   10.8845  -17.8474   20.3300 C   0  0  1  0  0  0  0  0  0  0  0  0
   10.9198  -17.1489   19.0033 C   0  0  0  0  0  0  0  0  0  0  0  0
   11.4956  -17.9929   17.9204 C   0  0  0  0  0  0  0  0  0  0  0  0
   11.5687  -17.1883   16.6165 C   0  0  0  0  0  0  0  0  0  0  0  0
   12.3085  -17.9128   15.5350 C   0  0  0  0  0  0  0  0  0  0  0  0
   12.2607  -17.0951   14.3270 N   0  0  0  0  0  0  0  0  0  0  0  0
   10.6467  -16.9362   21.4833 C   0  0  0  0  0  0  0  0  0  0  0  0
   11.4183  -16.0042   21.8134 O   0  0  0  0  0  0  0  0  0  0  0  0
    6.0746  -11.5280   26.6879 O   0  0  0  0  0  0  0  0  0  0  0  0
    6.4783  -12.5715   25.8491 C   0  0  0  0  0  0  0  0  0  0  0  0
    7.1546  -12.3381   24.6761 C   0  0  0  0  0  0  0  0  0  0  0  0
    7.5660  -13.3677   23.8251 C   0  0  0  0  0  0  0  0  0  0  0  0
    7.2750  -14.6617   24.1898 C   0  0  0  0  0  0  0  0  0  0  0  0
    7.6807  -15.7779   23.3406 C   0  0  0  0  0  0  0  0  0  0  0  0
    9.1454  -16.0920   23.3482 C   0  0  2  0  0  0  0  0  0  0  0  0
    9.4803  -17.0784   22.3106 N   0  0  0  0  0  0  0  0  0  0  0  0
    9.6884  -16.5603   24.6174 C   0  0  0  0  0  0  0  0  0  0  0  0
    9.9511  -17.7805   24.8688 O   0  0  0  0  0  0  0  0  0  0  0  0
    6.5942  -14.9066   25.3692 C   0  0  0  0  0  0  0  0  0  0  0  0
    6.1930  -13.8662   26.2034 C   0  0  0  0  0  0  0  0  0  0  0  0
    9.6095  -12.6511   28.5607 C   0  0  0  0  0  0  0  0  0  0  0  0
   10.1691  -13.6407   27.6004 C   0  0  0  0  0  0  0  0  0  0  0  0
   10.0176  -15.0794   27.9624 C   0  0  2  0  0  0  0  0  0  0  0  0
   10.7397  -15.2796   29.2961 C   0  0  0  0  0  0  0  0  0  0  0  0
   10.5106  -16.0604   26.9304 C   0  0  2  0  0  0  0  0  0  0  0  0
    9.9568  -15.6329   25.6604 N   0  0  0  0  0  0  0  0  0  0  0  0
   10.2178  -17.4448   27.2773 C   0  0  0  0  0  0  0  0  0  0  0  0
    9.0073  -18.0965   27.1432 O   0  0  0  0  0  0  0  0  0  0  0  0
   11.1593  -18.1641   27.7602 O   0  0  0  0  0  0  0  0  0  0  0  0
  2  1  1  6
  3  4  1  0
  3  2  1  0
  5  6  1  0
  5  4  1  0
  6  7  1  0
  8  9  2  0
  8  2  1  0
 10 11  1  0
 11 12  2  0
 12 13  1  0
 14 13  2  0
 14 15  1  0
 16 15  1  1
 16 17  1  0
 17  8  1  0
 18 16  1  0
 18 19  2  0
 20 14  1  0
 21 11  1  0
 21 20  2  0
 23 22  1  0
 24 23  1  0
 24 26  1  0
 24 25  1  1
 26 27  1  6
 27 18  1  0
 28 29  1  0
 28 26  1  0
 30 28  2  0
M  END
$$$$
