NTG.pdb
     RDKit          3D

 20 19  0  0  1  0  0  0  0  0999 V2000
    8.6439  -12.7989   15.5341 N   0  0  0  0  0  0  0  0  0  0  0  0
    7.9706  -13.7659   16.2996 C   0  0  0  0  0  0  0  0  0  0  0  0
    7.4978  -14.7721   15.6677 O   0  0  0  0  0  0  0  0  0  0  0  0
    7.7998  -13.6508   17.7815 C   0  0  0  0  0  0  0  0  0  0  0  0
    8.9658  -14.3472   18.4436 C   0  0  2  0  0  0  0  0  0  0  0  0
    9.0423  -15.7227   18.0595 N   0  0  0  0  0  0  0  0  0  0  0  0
    8.9799  -14.1547   19.9081 C   0  0  0  0  0  0  0  0  0  0  0  0
    9.0050  -13.0062   20.3867 O   0  0  0  0  0  0  0  0  0  0  0  0
    6.7248  -14.3271   22.8938 C   0  0  0  0  0  0  0  0  0  0  0  0
    7.7657  -15.4305   22.9973 C   0  0  1  0  0  0  0  0  0  0  0  0
    7.1860  -16.5368   22.3386 O   0  0  0  0  0  0  0  0  0  0  0  0
    9.0118  -15.1110   22.2477 C   0  0  2  0  0  0  0  0  0  0  0  0
    8.9664  -15.2194   20.8449 N   0  0  0  0  0  0  0  0  0  0  0  0
   10.0836  -16.0426   22.7514 C   0  0  0  0  0  0  0  0  0  0  0  0
   10.8723  -16.5028   21.8871 O   0  0  0  0  0  0  0  0  0  0  0  0
   10.1997  -16.3806   24.1065 N   0  0  0  0  0  0  0  0  0  0  0  0
   11.2878  -17.2191   24.5444 C   0  0  0  0  0  0  0  0  0  0  0  0
   11.2936  -17.4146   26.0024 C   0  0  0  0  0  0  0  0  0  0  0  0
   12.1692  -18.1110   26.5741 O   0  0  0  0  0  0  0  0  0  0  0  0
   10.3170  -16.8229   26.7731 O   0  0  0  0  0  0  0  0  0  0  0  0
  2  1  1  0
  3  2  2  0
  4  2  1  0
  5  4  1  0
  5  6  1  1
  7  5  1  0
  8  7  2  0
 10  9  1  6
 10 12  1  0
 11 10  1  0
 12 14  1  0
 12 13  1  6
 13  7  1  0
 14 16  1  0
 15 14  2  0
 16 17  1  0
 18 17  1  0
 18 20  1  0
 19 18  2  0
M  END
$$$$
