NTG.pdb
     RDKit          3D

 20 19  0  0  1  0  0  0  0  0999 V2000
    7.6074  -16.6920   13.2285 N   0  0  0  0  0  0  0  0  0  0  0  0
    7.8166  -15.3029   13.2584 C   0  0  0  0  0  0  0  0  0  0  0  0
    7.5629  -14.6601   12.1824 O   0  0  0  0  0  0  0  0  0  0  0  0
    8.3107  -14.5842   14.4740 C   0  0  0  0  0  0  0  0  0  0  0  0
    8.6557  -15.6168   15.5217 C   0  0  2  0  0  0  0  0  0  0  0  0
    7.5370  -16.4567   15.8189 N   0  0  0  0  0  0  0  0  0  0  0  0
    9.2636  -15.0163   16.7266 C   0  0  0  0  0  0  0  0  0  0  0  0
   10.2939  -14.3254   16.6280 O   0  0  0  0  0  0  0  0  0  0  0  0
    7.6310  -12.6785   19.1769 C   0  0  0  0  0  0  0  0  0  0  0  0
    8.3030  -13.7548   20.0146 C   0  0  1  0  0  0  0  0  0  0  0  0
    7.2529  -14.6110   20.4125 O   0  0  0  0  0  0  0  0  0  0  0  0
    9.2402  -14.5944   19.2188 C   0  0  2  0  0  0  0  0  0  0  0  0
    8.7423  -15.1734   18.0363 N   0  0  0  0  0  0  0  0  0  0  0  0
    9.7117  -15.7074   20.1184 C   0  0  0  0  0  0  0  0  0  0  0  0
    9.0367  -16.7678   20.0926 O   0  0  0  0  0  0  0  0  0  0  0  0
   10.8390  -15.5737   20.9402 N   0  0  0  0  0  0  0  0  0  0  0  0
   11.1897  -16.6337   21.8524 C   0  0  0  0  0  0  0  0  0  0  0  0
   12.3072  -16.2666   22.7358 C   0  0  0  0  0  0  0  0  0  0  0  0
   12.9335  -15.1862   22.5981 O   0  0  0  0  0  0  0  0  0  0  0  0
   12.6870  -17.1230   23.7459 O   0  0  0  0  0  0  0  0  0  0  0  0
  2  1  1  0
  3  2  2  0
  4  2  1  0
  5  4  1  0
  5  6  1  1
  7  5  1  0
  8  7  2  0
 10  9  1  6
 10 12  1  0
 11 10  1  0
 12 14  1  0
 12 13  1  6
 13  7  1  0
 14 16  1  0
 15 14  2  0
 16 17  1  0
 18 17  1  0
 18 20  1  0
 19 18  2  0
M  END
$$$$
