NTG.pdb
     RDKit          3D

 20 19  0  0  1  0  0  0  0  0999 V2000
   10.4196  -19.1335   29.0571 N   0  0  0  0  0  0  0  0  0  0  0  0
   11.3778  -18.1322   28.8256 C   0  0  0  0  0  0  0  0  0  0  0  0
   11.8378  -17.5280   29.8545 O   0  0  0  0  0  0  0  0  0  0  0  0
   11.8551  -17.7693   27.4549 C   0  0  0  0  0  0  0  0  0  0  0  0
   11.1426  -18.6554   26.4600 C   0  0  2  0  0  0  0  0  0  0  0  0
   11.2109  -20.0323   26.8405 N   0  0  0  0  0  0  0  0  0  0  0  0
   11.5880  -18.4167   25.0720 C   0  0  0  0  0  0  0  0  0  0  0  0
   12.4846  -19.1216   24.5740 O   0  0  0  0  0  0  0  0  0  0  0  0
    9.0528  -17.2364   22.0485 C   0  0  0  0  0  0  0  0  0  0  0  0
   10.3797  -16.4943   22.0339 C   0  0  1  0  0  0  0  0  0  0  0  0
   10.1014  -15.2450   22.6303 O   0  0  0  0  0  0  0  0  0  0  0  0
   11.4054  -17.1433   22.8962 C   0  0  2  0  0  0  0  0  0  0  0  0
   11.0512  -17.4073   24.2327 N   0  0  0  0  0  0  0  0  0  0  0  0
   12.6125  -16.2415   22.9048 C   0  0  0  0  0  0  0  0  0  0  0  0
   12.6783  -15.4084   23.8441 O   0  0  0  0  0  0  0  0  0  0  0  0
   13.6095  -16.3225   21.9232 N   0  0  0  0  0  0  0  0  0  0  0  0
   14.6868  -15.3643   21.9163 C   0  0  0  0  0  0  0  0  0  0  0  0
   15.1618  -15.0642   20.5567 C   0  0  0  0  0  0  0  0  0  0  0  0
   14.6850  -15.6390   19.5463 O   0  0  0  0  0  0  0  0  0  0  0  0
   16.1565  -14.1289   20.3734 O   0  0  0  0  0  0  0  0  0  0  0  0
  2  1  1  0
  3  2  2  0
  4  2  1  0
  5  4  1  0
  5  6  1  1
  7  5  1  0
  8  7  2  0
 10  9  1  1
 10 12  1  0
 11 10  1  0
 12 14  1  0
 12 13  1  1
 13  7  1  0
 14 16  1  0
 15 14  2  0
 16 17  1  0
 18 17  1  0
 18 20  1  0
 19 18  2  0
M  END
$$$$
