NTG.pdb
     RDKit          3D

 20 19  0  0  1  0  0  0  0  0999 V2000
   10.0689  -16.9080   13.9099 N   0  0  0  0  0  0  0  0  0  0  0  0
    9.2019  -16.1996   14.7589 C   0  0  0  0  0  0  0  0  0  0  0  0
    7.9544  -16.4606   14.6539 O   0  0  0  0  0  0  0  0  0  0  0  0
    9.6852  -15.1847   15.7461 C   0  0  0  0  0  0  0  0  0  0  0  0
    8.5081  -14.7521   16.5888 C   0  0  2  0  0  0  0  0  0  0  0  0
    7.7317  -13.7481   15.9297 N   0  0  0  0  0  0  0  0  0  0  0  0
    8.9059  -14.3683   17.9586 C   0  0  0  0  0  0  0  0  0  0  0  0
    9.5253  -13.3069   18.1547 O   0  0  0  0  0  0  0  0  0  0  0  0
    7.1580  -13.1828   20.8956 C   0  0  0  0  0  0  0  0  0  0  0  0
    7.8722  -14.4426   21.3588 C   0  0  1  0  0  0  0  0  0  0  0  0
    6.8990  -15.4620   21.2723 O   0  0  0  0  0  0  0  0  0  0  0  0
    8.9728  -14.8445   20.4401 C   0  0  2  0  0  0  0  0  0  0  0  0
    8.6248  -15.1471   19.1101 N   0  0  0  0  0  0  0  0  0  0  0  0
    9.6270  -16.0631   21.0381 C   0  0  0  0  0  0  0  0  0  0  0  0
    9.4651  -17.1435   20.4159 O   0  0  0  0  0  0  0  0  0  0  0  0
   10.3753  -16.0013   22.2214 N   0  0  0  0  0  0  0  0  0  0  0  0
   11.0107  -17.1916   22.7294 C   0  0  0  0  0  0  0  0  0  0  0  0
   11.8702  -16.9164   23.8911 C   0  0  0  0  0  0  0  0  0  0  0  0
   12.8804  -16.1740   23.8070 O   0  0  0  0  0  0  0  0  0  0  0  0
   11.5696  -17.4825   25.1105 O   0  0  0  0  0  0  0  0  0  0  0  0
  2  1  1  0
  3  2  2  0
  4  2  1  0
  5  4  1  0
  5  6  1  6
  7  5  1  0
  8  7  2  0
 10  9  1  6
 10 12  1  0
 11 10  1  0
 12 14  1  0
 12 13  1  6
 13  7  1  0
 14 16  1  0
 15 14  2  0
 16 17  1  0
 18 17  1  0
 18 20  1  0
 19 18  2  0
M  END
$$$$
