NTG.pdb
     RDKit          3D

 20 19  0  0  1  0  0  0  0  0999 V2000
   10.7788  -16.8301   24.1962 N   0  0  0  0  0  0  0  0  0  0  0  0
   10.3441  -18.0801   23.7243 C   0  0  0  0  0  0  0  0  0  0  0  0
   10.0678  -18.9633   24.6070 O   0  0  0  0  0  0  0  0  0  0  0  0
   10.2019  -18.3913   22.2679 C   0  0  0  0  0  0  0  0  0  0  0  0
   10.6942  -17.1978   21.4829 C   0  0  2  0  0  0  0  0  0  0  0  0
    9.9037  -16.0352   21.7447 N   0  0  0  0  0  0  0  0  0  0  0  0
   10.8334  -17.4894   20.0415 C   0  0  0  0  0  0  0  0  0  0  0  0
   11.5514  -18.4322   19.6616 O   0  0  0  0  0  0  0  0  0  0  0  0
    7.6506  -17.0553   17.5952 C   0  0  0  0  0  0  0  0  0  0  0  0
    8.9356  -16.6548   16.8877 C   0  0  1  0  0  0  0  0  0  0  0  0
    8.9223  -15.2428   16.8867 O   0  0  0  0  0  0  0  0  0  0  0  0
   10.1525  -17.0550   17.6463 C   0  0  2  0  0  0  0  0  0  0  0  0
   10.1865  -16.7484   19.0198 N   0  0  0  0  0  0  0  0  0  0  0  0
   11.3273  -16.3773   16.9897 C   0  0  0  0  0  0  0  0  0  0  0  0
   11.6700  -15.2676   17.4709 O   0  0  0  0  0  0  0  0  0  0  0  0
   12.0039  -16.9476   15.9029 N   0  0  0  0  0  0  0  0  0  0  0  0
   13.0626  -16.2148   15.2544 C   0  0  0  0  0  0  0  0  0  0  0  0
   13.7356  -17.0056   14.2124 C   0  0  0  0  0  0  0  0  0  0  0  0
   13.4545  -18.2137   14.0124 O   0  0  0  0  0  0  0  0  0  0  0  0
   14.7025  -16.4165   13.4277 O   0  0  0  0  0  0  0  0  0  0  0  0
  2  1  1  0
  3  2  2  0
  4  2  1  0
  5  4  1  0
  5  6  1  6
  7  5  1  0
  8  7  2  0
 10  9  1  1
 10 12  1  0
 11 10  1  0
 12 14  1  0
 12 13  1  1
 13  7  1  0
 14 16  1  0
 15 14  2  0
 16 17  1  0
 18 17  1  0
 18 20  1  0
 19 18  2  0
M  END
$$$$
