NTG.pdb
     RDKit          3D

 20 19  0  0  1  0  0  0  0  0999 V2000
    7.1785  -17.0017   13.1457 N   0  0  0  0  0  0  0  0  0  0  0  0
    8.4034  -17.4725   13.6478 C   0  0  0  0  0  0  0  0  0  0  0  0
    8.8405  -18.5708   13.1599 O   0  0  0  0  0  0  0  0  0  0  0  0
    9.1799  -16.7467   14.7007 C   0  0  0  0  0  0  0  0  0  0  0  0
    8.3660  -15.5539   15.1454 C   0  0  2  0  0  0  0  0  0  0  0  0
    8.0624  -14.6875   14.0488 N   0  0  0  0  0  0  0  0  0  0  0  0
    8.9797  -14.8467   16.2878 C   0  0  0  0  0  0  0  0  0  0  0  0
    9.7725  -13.9084   16.0884 O   0  0  0  0  0  0  0  0  0  0  0  0
    7.4764  -12.7196   18.8268 C   0  0  0  0  0  0  0  0  0  0  0  0
    8.2559  -13.7555   19.6212 C   0  0  1  0  0  0  0  0  0  0  0  0
    7.2882  -14.6977   20.0333 O   0  0  0  0  0  0  0  0  0  0  0  0
    9.2290  -14.5052   18.7799 C   0  0  2  0  0  0  0  0  0  0  0  0
    8.7243  -15.1682   17.6453 N   0  0  0  0  0  0  0  0  0  0  0  0
    9.8823  -15.5333   19.6668 C   0  0  0  0  0  0  0  0  0  0  0  0
    9.2968  -16.6422   19.7583 O   0  0  0  0  0  0  0  0  0  0  0  0
   11.0759  -15.2735   20.3537 N   0  0  0  0  0  0  0  0  0  0  0  0
   11.6301  -16.2754   21.2299 C   0  0  0  0  0  0  0  0  0  0  0  0
   12.9388  -15.8822   21.7746 C   0  0  0  0  0  0  0  0  0  0  0  0
   13.5210  -14.8314   21.4067 O   0  0  0  0  0  0  0  0  0  0  0  0
   13.5532  -16.6800   22.7148 O   0  0  0  0  0  0  0  0  0  0  0  0
  2  1  1  0
  3  2  2  0
  4  2  1  0
  5  4  1  0
  5  6  1  6
  7  5  1  0
  8  7  2  0
 10  9  1  6
 10 12  1  0
 11 10  1  0
 12 14  1  0
 12 13  1  6
 13  7  1  0
 14 16  1  0
 15 14  2  0
 16 17  1  0
 18 17  1  0
 18 20  1  0
 19 18  2  0
M  END
$$$$
