NTG.pdb
     RDKit          3D

 20 19  0  0  1  0  0  0  0  0999 V2000
    7.1576  -14.9167   12.5784 N   0  0  0  0  0  0  0  0  0  0  0  0
    8.3375  -15.2009   13.2866 C   0  0  0  0  0  0  0  0  0  0  0  0
    9.0858  -16.1222   12.8105 O   0  0  0  0  0  0  0  0  0  0  0  0
    8.7251  -14.4782   14.5379 C   0  0  0  0  0  0  0  0  0  0  0  0
    8.9598  -15.5063   15.6199 C   0  0  2  0  0  0  0  0  0  0  0  0
    7.8226  -16.3564   15.7916 N   0  0  0  0  0  0  0  0  0  0  0  0
    9.4232  -14.8988   16.8841 C   0  0  0  0  0  0  0  0  0  0  0  0
   10.4394  -14.1806   16.8960 O   0  0  0  0  0  0  0  0  0  0  0  0
    7.3497  -12.7709   19.3356 C   0  0  0  0  0  0  0  0  0  0  0  0
    8.0812  -13.8265   20.1496 C   0  0  1  0  0  0  0  0  0  0  0  0
    7.1049  -14.8075   20.4294 O   0  0  0  0  0  0  0  0  0  0  0  0
    9.1444  -14.5145   19.3668 C   0  0  2  0  0  0  0  0  0  0  0  0
    8.7733  -15.0788   18.1317 N   0  0  0  0  0  0  0  0  0  0  0  0
    9.6918  -15.6171   20.2358 C   0  0  0  0  0  0  0  0  0  0  0  0
    9.0376  -16.6906   20.2509 O   0  0  0  0  0  0  0  0  0  0  0  0
   10.8642  -15.4603   20.9874 N   0  0  0  0  0  0  0  0  0  0  0  0
   11.3000  -16.5193   21.8633 C   0  0  0  0  0  0  0  0  0  0  0  0
   12.5589  -16.1952   22.5520 C   0  0  0  0  0  0  0  0  0  0  0  0
   13.1956  -15.1402   22.3069 O   0  0  0  0  0  0  0  0  0  0  0  0
   13.0638  -17.0647   23.4938 O   0  0  0  0  0  0  0  0  0  0  0  0
  2  1  1  0
  3  2  2  0
  4  2  1  0
  5  4  1  0
  5  6  1  1
  7  5  1  0
  8  7  2  0
 10  9  1  6
 10 12  1  0
 11 10  1  0
 12 14  1  0
 12 13  1  6
 13  7  1  0
 14 16  1  0
 15 14  2  0
 16 17  1  0
 18 17  1  0
 18 20  1  0
 19 18  2  0
M  END
$$$$
