NTG.pdb
     RDKit          3D

 20 19  0  0  1  0  0  0  0  0999 V2000
    6.9749  -16.0380   13.9025 N   0  0  0  0  0  0  0  0  0  0  0  0
    8.1180  -16.6992   14.3826 C   0  0  0  0  0  0  0  0  0  0  0  0
    8.4557  -17.7749   13.7792 O   0  0  0  0  0  0  0  0  0  0  0  0
    8.9199  -16.1936   15.5401 C   0  0  0  0  0  0  0  0  0  0  0  0
    8.2003  -15.0000   16.1237 C   0  0  2  0  0  0  0  0  0  0  0  0
    8.0797  -13.9418   15.1693 N   0  0  0  0  0  0  0  0  0  0  0  0
    8.7880  -14.5584   17.4049 C   0  0  0  0  0  0  0  0  0  0  0  0
    9.7332  -13.7490   17.4123 O   0  0  0  0  0  0  0  0  0  0  0  0
    7.1628  -12.7111   20.2102 C   0  0  0  0  0  0  0  0  0  0  0  0
    7.8224  -13.9272   20.8410 C   0  0  1  0  0  0  0  0  0  0  0  0
    6.7745  -14.8580   21.0128 O   0  0  0  0  0  0  0  0  0  0  0  0
    8.8064  -14.5776   19.9325 C   0  0  2  0  0  0  0  0  0  0  0  0
    8.3396  -15.0036   18.6746 N   0  0  0  0  0  0  0  0  0  0  0  0
    9.3520  -15.7805   20.6576 C   0  0  0  0  0  0  0  0  0  0  0  0
    8.7281  -16.8596   20.4933 O   0  0  0  0  0  0  0  0  0  0  0  0
   10.4908  -15.7064   21.4710 N   0  0  0  0  0  0  0  0  0  0  0  0
   10.9580  -16.8850   22.1574 C   0  0  0  0  0  0  0  0  0  0  0  0
   12.1740  -16.6301   22.9453 C   0  0  0  0  0  0  0  0  0  0  0  0
   12.7373  -15.5071   22.9499 O   0  0  0  0  0  0  0  0  0  0  0  0
   12.7197  -17.6429   23.7031 O   0  0  0  0  0  0  0  0  0  0  0  0
  2  1  1  0
  3  2  2  0
  4  2  1  0
  5  4  1  0
  5  6  1  6
  7  5  1  0
  8  7  2  0
 10  9  1  6
 10 12  1  0
 11 10  1  0
 12 14  1  0
 12 13  1  6
 13  7  1  0
 14 16  1  0
 15 14  2  0
 16 17  1  0
 18 17  1  0
 18 20  1  0
 19 18  2  0
M  END
$$$$
