NTG.pdb
     RDKit          3D

 20 19  0  0  1  0  0  0  0  0999 V2000
   12.3569  -16.1611   14.5185 N   0  0  0  0  0  0  0  0  0  0  0  0
   12.1925  -17.1075   15.5441 C   0  0  0  0  0  0  0  0  0  0  0  0
   12.2268  -18.3389   15.2007 O   0  0  0  0  0  0  0  0  0  0  0  0
   11.9859  -16.7233   16.9752 C   0  0  0  0  0  0  0  0  0  0  0  0
   11.9065  -15.2164   17.0497 C   0  0  2  0  0  0  0  0  0  0  0  0
   13.1050  -14.6032   16.5672 N   0  0  0  0  0  0  0  0  0  0  0  0
   11.5121  -14.7381   18.3905 C   0  0  0  0  0  0  0  0  0  0  0  0
   12.3781  -14.3435   19.1924 O   0  0  0  0  0  0  0  0  0  0  0  0
    8.3494  -12.3577   19.3485 C   0  0  0  0  0  0  0  0  0  0  0  0
    8.4091  -13.6107   20.2077 C   0  0  1  0  0  0  0  0  0  0  0  0
    7.4735  -14.4932   19.6248 O   0  0  0  0  0  0  0  0  0  0  0  0
    9.7284  -14.2957   20.1260 C   0  0  2  0  0  0  0  0  0  0  0  0
   10.1712  -14.6927   18.8501 N   0  0  0  0  0  0  0  0  0  0  0  0
    9.6439  -15.5258   20.9921 C   0  0  0  0  0  0  0  0  0  0  0  0
    9.2400  -16.5755   20.4303 O   0  0  0  0  0  0  0  0  0  0  0  0
    9.9947  -15.5066   22.3488 N   0  0  0  0  0  0  0  0  0  0  0  0
    9.8470  -16.7006   23.1433 C   0  0  0  0  0  0  0  0  0  0  0  0
   10.3878  -16.5407   24.5020 C   0  0  0  0  0  0  0  0  0  0  0  0
   11.0165  -15.5093   24.8478 O   0  0  0  0  0  0  0  0  0  0  0  0
   10.2064  -17.5427   25.4299 O   0  0  0  0  0  0  0  0  0  0  0  0
  2  1  1  0
  3  2  2  0
  4  2  1  0
  5  4  1  0
  5  6  1  1
  7  5  1  0
  8  7  2  0
 10  9  1  6
 10 12  1  0
 11 10  1  0
 12 14  1  0
 12 13  1  6
 13  7  1  0
 14 16  1  0
 15 14  2  0
 16 17  1  0
 18 17  1  0
 18 20  1  0
 19 18  2  0
M  END
$$$$
