NTG.pdb
     RDKit          3D

 20 19  0  0  1  0  0  0  0  0999 V2000
    7.8912  -15.5343   16.7723 N   0  0  0  0  0  0  0  0  0  0  0  0
    8.1403  -14.2054   17.1546 C   0  0  0  0  0  0  0  0  0  0  0  0
    8.0565  -13.3182   16.2374 O   0  0  0  0  0  0  0  0  0  0  0  0
    8.4884  -13.8177   18.5570 C   0  0  0  0  0  0  0  0  0  0  0  0
    8.6326  -15.0822   19.3713 C   0  0  2  0  0  0  0  0  0  0  0  0
    7.4614  -15.8983   19.2851 N   0  0  0  0  0  0  0  0  0  0  0  0
    9.0477  -14.8125   20.7630 C   0  0  0  0  0  0  0  0  0  0  0  0
    9.9922  -14.0356   20.9936 O   0  0  0  0  0  0  0  0  0  0  0  0
    7.3865  -13.2298   23.6946 C   0  0  0  0  0  0  0  0  0  0  0  0
    7.8273  -14.6066   24.1657 C   0  0  1  0  0  0  0  0  0  0  0  0
    6.6628  -15.4021   24.0961 O   0  0  0  0  0  0  0  0  0  0  0  0
    8.8124  -15.2363   23.2438 C   0  0  2  0  0  0  0  0  0  0  0  0
    8.4281  -15.3935   21.8988 N   0  0  0  0  0  0  0  0  0  0  0  0
    9.1302  -16.6006   23.7989 C   0  0  0  0  0  0  0  0  0  0  0  0
    8.6000  -17.5777   23.2118 O   0  0  0  0  0  0  0  0  0  0  0  0
    9.9693  -16.7763   24.9076 N   0  0  0  0  0  0  0  0  0  0  0  0
   10.2199  -18.1034   25.4123 C   0  0  0  0  0  0  0  0  0  0  0  0
   11.1184  -18.1001   26.5771 C   0  0  0  0  0  0  0  0  0  0  0  0
   11.6645  -19.1513   26.9957 O   0  0  0  0  0  0  0  0  0  0  0  0
   11.3761  -16.9178   27.2356 O   0  0  0  0  0  0  0  0  0  0  0  0
  2  1  1  0
  3  2  2  0
  4  2  1  0
  5  4  1  0
  5  6  1  1
  7  5  1  0
  8  7  2  0
 10  9  1  6
 10 12  1  0
 11 10  1  0
 12 14  1  0
 12 13  1  6
 13  7  1  0
 14 16  1  0
 15 14  2  0
 16 17  1  0
 18 17  1  0
 18 20  1  0
 19 18  2  0
M  END
$$$$
