NTG.pdb
     RDKit          3D

 20 19  0  0  1  0  0  0  0  0999 V2000
   -0.3158  -29.1142   31.3729 N   0  0  0  0  0  0  0  0  0  0  0  0
   -0.8739  -28.1465   32.2251 C   0  0  0  0  0  0  0  0  0  0  0  0
   -0.8350  -28.3939   33.4792 O   0  0  0  0  0  0  0  0  0  0  0  0
   -1.4897  -26.8803   31.7194 C   0  0  0  0  0  0  0  0  0  0  0  0
   -1.2869  -26.8248   30.2232 C   0  0  2  0  0  0  0  0  0  0  0  0
    0.0967  -26.6941   29.8858 N   0  0  0  0  0  0  0  0  0  0  0  0
   -2.1381  -25.8058   29.5761 C   0  0  0  0  0  0  0  0  0  0  0  0
   -1.6988  -24.6580   29.3803 O   0  0  0  0  0  0  0  0  0  0  0  0
   -3.9569  -26.2049   26.1828 C   0  0  0  0  0  0  0  0  0  0  0  0
   -4.9563  -25.6829   27.2028 C   0  0  1  0  0  0  0  0  0  0  0  0
   -5.6881  -26.8211   27.6065 O   0  0  0  0  0  0  0  0  0  0  0  0
   -4.2970  -25.1599   28.4309 C   0  0  2  0  0  0  0  0  0  0  0  0
   -3.4679  -26.0454   29.1450 N   0  0  0  0  0  0  0  0  0  0  0  0
   -5.3905  -24.6970   29.3585 C   0  0  0  0  0  0  0  0  0  0  0  0
   -5.6996  -25.4824   30.2903 O   0  0  0  0  0  0  0  0  0  0  0  0
   -6.0309  -23.4610   29.1964 N   0  0  0  0  0  0  0  0  0  0  0  0
   -7.1038  -23.0887   30.0846 C   0  0  0  0  0  0  0  0  0  0  0  0
   -7.6062  -21.7318   29.8194 C   0  0  0  0  0  0  0  0  0  0  0  0
   -7.0534  -20.9718   28.9855 O   0  0  0  0  0  0  0  0  0  0  0  0
   -8.7127  -21.2701   30.4978 O   0  0  0  0  0  0  0  0  0  0  0  0
  2  1  1  0
  3  2  2  0
  4  2  1  0
  5  4  1  0
  5  6  1  1
  7  5  1  0
  8  7  2  0
 10  9  1  6
 10 12  1  0
 11 10  1  0
 12 14  1  0
 12 13  1  1
 13  7  1  0
 14 16  1  0
 15 14  2  0
 16 17  1  0
 18 17  1  0
 18 20  1  0
 19 18  2  0
M  END
$$$$
