NTG.pdb
     RDKit          3D

 20 19  0  0  1  0  0  0  0  0999 V2000
    8.9180  -18.8052   15.0011 N   0  0  0  0  0  0  0  0  0  0  0  0
    8.0361  -18.2321   15.9328 C   0  0  0  0  0  0  0  0  0  0  0  0
    6.8546  -18.7192   15.9807 O   0  0  0  0  0  0  0  0  0  0  0  0
    8.4313  -17.1074   16.8367 C   0  0  0  0  0  0  0  0  0  0  0  0
    8.5533  -17.6539   18.2399 C   0  0  2  0  0  0  0  0  0  0  0  0
    7.3322  -18.2573   18.6761 N   0  0  0  0  0  0  0  0  0  0  0  0
    9.0751  -16.6522   19.1919 C   0  0  0  0  0  0  0  0  0  0  0  0
   10.1115  -16.0173   18.9246 O   0  0  0  0  0  0  0  0  0  0  0  0
    7.0574  -13.8134   21.2015 C   0  0  0  0  0  0  0  0  0  0  0  0
    7.9219  -14.6402   22.1401 C   0  0  1  0  0  0  0  0  0  0  0  0
    7.0317  -15.5616   22.7335 O   0  0  0  0  0  0  0  0  0  0  0  0
    8.9344  -15.4547   21.4135 C   0  0  2  0  0  0  0  0  0  0  0  0
    8.4614  -16.3480   20.4338 N   0  0  0  0  0  0  0  0  0  0  0  0
    9.6855  -16.2537   22.4470 C   0  0  0  0  0  0  0  0  0  0  0  0
    9.0470  -17.1820   23.0049 O   0  0  0  0  0  0  0  0  0  0  0  0
   11.0213  -15.9817   22.7721 N   0  0  0  0  0  0  0  0  0  0  0  0
   11.7021  -16.7996   23.7448 C   0  0  0  0  0  0  0  0  0  0  0  0
   13.1041  -16.3962   23.9341 C   0  0  0  0  0  0  0  0  0  0  0  0
   13.6044  -15.4264   23.3113 O   0  0  0  0  0  0  0  0  0  0  0  0
   13.9006  -17.0933   24.8158 O   0  0  0  0  0  0  0  0  0  0  0  0
  2  1  1  0
  3  2  2  0
  4  2  1  0
  5  4  1  0
  5  6  1  1
  7  5  1  0
  8  7  2  0
 10  9  1  6
 10 12  1  0
 11 10  1  0
 12 14  1  0
 12 13  1  6
 13  7  1  0
 14 16  1  0
 15 14  2  0
 16 17  1  0
 18 17  1  0
 18 20  1  0
 19 18  2  0
M  END
$$$$
