PCH.pdb
     RDKit          3D

 24 25  0  0  1  0  0  0  0  0999 V2000
   28.5699  -20.6846  -14.7262 N   0  0  0  0  0  0  0  0  0  0  0  0
   28.0945  -20.0132  -15.8975 C   0  0  0  0  0  0  0  0  0  0  0  0
   27.5280  -18.6933  -15.4765 C   0  0  0  0  0  0  0  0  0  0  0  0
   27.6996  -18.6126  -13.9917 C   0  0  0  0  0  0  0  0  0  0  0  0
   28.0431  -20.0024  -13.5799 C   0  0  1  0  0  0  0  0  0  0  0  0
   26.8508  -20.7777  -13.1066 C   0  0  0  0  0  0  0  0  0  0  0  0
   26.2789  -21.6380  -13.8331 O   0  0  0  0  0  0  0  0  0  0  0  0
   26.3035  -20.5802  -11.8089 N   0  0  0  0  0  0  0  0  0  0  0  0
   25.0738  -21.1799  -11.3536 C   0  0  1  0  0  0  0  0  0  0  0  0
   24.9728  -20.9199   -9.8551 C   0  0  0  0  0  0  0  0  0  0  0  0
   26.4940  -20.2135   -9.1943 S   0  0  0  0  0  0  0  0  0  0  0  0
   23.9063  -20.6273  -12.0781 C   0  0  0  0  0  0  0  0  0  0  0  0
   23.9385  -19.4195  -12.4261 O   0  0  0  0  0  0  0  0  0  0  0  0
   22.7591  -21.3743  -12.4018 N   0  0  0  0  0  0  0  0  0  0  0  0
   21.6983  -20.8672  -13.2551 C   0  0  1  0  0  0  0  0  0  0  0  0
   21.8700  -21.5463  -14.5949 C   0  0  0  0  0  0  0  0  0  0  0  0
   21.5083  -20.7056  -15.7402 C   0  0  0  0  0  0  0  0  0  0  0  0
   20.9558  -19.4511  -15.6874 C   0  0  0  0  0  0  0  0  0  0  0  0
   20.7715  -19.0166  -16.9374 N   0  0  0  0  0  0  0  0  0  0  0  0
   21.2007  -19.9809  -17.7714 C   0  0  0  0  0  0  0  0  0  0  0  0
   21.6493  -21.0095  -17.0395 N   0  0  0  0  0  0  0  0  0  0  0  0
   20.3698  -21.0757  -12.6730 C   0  0  0  0  0  0  0  0  0  0  0  0
   19.2216  -20.4245  -13.1049 O   0  0  0  0  0  0  0  0  0  0  0  0
   20.2408  -21.8851  -11.7291 O   0  0  0  0  0  0  0  0  0  0  0  0
  1  5  1  0
  1  2  1  0
  2  3  1  0
  4  3  1  0
  5  4  1  0
  6  8  1  0
  5  6  1  6
  7  6  2  0
  9  8  1  0
  9 12  1  0
  9 10  1  1
 11 10  1  0
 12 14  1  0
 13 12  2  0
 14 15  1  0
 15 16  1  6
 15 22  1  0
 17 16  1  0
 18 17  2  0
 19 20  1  0
 19 18  1  0
 20 21  2  0
 21 17  1  0
 22 23  1  0
 24 22  2  0
M  END
$$$$
