PCH.pdb
     RDKit          3D

 24 25  0  0  1  0  0  0  0  0999 V2000
   18.9905  -12.9928  -16.8740 N   0  0  0  0  0  0  0  0  0  0  0  0
   18.2315  -13.6335  -17.9045 C   0  0  0  0  0  0  0  0  0  0  0  0
   19.1814  -14.4018  -18.7691 C   0  0  0  0  0  0  0  0  0  0  0  0
   20.5461  -14.1898  -18.1920 C   0  0  0  0  0  0  0  0  0  0  0  0
   20.3761  -13.0581  -17.2384 C   0  0  1  0  0  0  0  0  0  0  0  0
   20.7436  -11.7347  -17.8387 C   0  0  0  0  0  0  0  0  0  0  0  0
   21.8650  -11.5338  -18.3837 O   0  0  0  0  0  0  0  0  0  0  0  0
   19.8413  -10.6355  -17.8231 N   0  0  0  0  0  0  0  0  0  0  0  0
   20.1542   -9.3291  -18.3470 C   0  0  1  0  0  0  0  0  0  0  0  0
   19.3654   -9.1610  -19.6404 C   0  0  0  0  0  0  0  0  0  0  0  0
   19.8949  -10.3321  -20.9044 S   0  0  0  0  0  0  0  0  0  0  0  0
   19.8245   -8.2657  -17.3705 C   0  0  0  0  0  0  0  0  0  0  0  0
   18.6358   -8.1708  -16.9721 O   0  0  0  0  0  0  0  0  0  0  0  0
   20.7640   -7.3517  -16.8595 N   0  0  0  0  0  0  0  0  0  0  0  0
   20.4172   -6.3044  -15.9144 C   0  0  1  0  0  0  0  0  0  0  0  0
   21.1309   -6.6426  -14.6252 C   0  0  0  0  0  0  0  0  0  0  0  0
   20.4426   -7.6466  -13.8082 C   0  0  0  0  0  0  0  0  0  0  0  0
   19.2566   -8.2671  -14.1086 C   0  0  0  0  0  0  0  0  0  0  0  0
   18.9585   -9.1128  -13.1181 N   0  0  0  0  0  0  0  0  0  0  0  0
   19.9406   -9.0306  -12.2026 C   0  0  0  0  0  0  0  0  0  0  0  0
   20.8442   -8.1362  -12.6252 N   0  0  0  0  0  0  0  0  0  0  0  0
   20.7478   -4.9691  -16.4191 C   0  0  0  0  0  0  0  0  0  0  0  0
   21.3877   -4.7323  -17.6288 O   0  0  0  0  0  0  0  0  0  0  0  0
   20.4437   -3.9687  -15.7339 O   0  0  0  0  0  0  0  0  0  0  0  0
  1  5  1  0
  1  2  1  0
  2  3  1  0
  4  3  1  0
  5  4  1  0
  6  8  1  0
  5  6  1  6
  7  6  2  0
  9  8  1  0
  9 12  1  0
  9 10  1  6
 11 10  1  0
 12 14  1  0
 13 12  2  0
 14 15  1  0
 15 16  1  1
 15 22  1  0
 17 16  1  0
 18 17  2  0
 19 20  1  0
 19 18  1  0
 20 21  2  0
 21 17  1  0
 22 23  1  0
 24 22  2  0
M  END
$$$$
