PCH.pdb
     RDKit          3D

 24 25  0  0  1  0  0  0  0  0999 V2000
   29.8290  -30.1877  -20.5358 N   0  0  0  0  0  0  0  0  0  0  0  0
   30.6738  -29.0324  -20.5557 C   0  0  0  0  0  0  0  0  0  0  0  0
   32.0894  -29.4967  -20.6991 C   0  0  0  0  0  0  0  0  0  0  0  0
   32.0401  -30.9909  -20.7716 C   0  0  0  0  0  0  0  0  0  0  0  0
   30.6590  -31.3401  -20.3362 C   0  0  1  0  0  0  0  0  0  0  0  0
   30.5833  -31.6996  -18.8830 C   0  0  0  0  0  0  0  0  0  0  0  0
   31.3911  -32.5111  -18.3500 O   0  0  0  0  0  0  0  0  0  0  0  0
   29.5921  -31.1406  -18.0300 N   0  0  0  0  0  0  0  0  0  0  0  0
   29.4609  -31.4604  -16.6301 C   0  0  1  0  0  0  0  0  0  0  0  0
   29.0709  -30.1757  -15.9086 C   0  0  0  0  0  0  0  0  0  0  0  0
   27.5695  -29.4517  -16.5951 S   0  0  0  0  0  0  0  0  0  0  0  0
   28.4570  -32.5276  -16.4148 C   0  0  0  0  0  0  0  0  0  0  0  0
   28.4093  -33.4756  -17.2393 O   0  0  0  0  0  0  0  0  0  0  0  0
   27.5498  -32.5453  -15.3397 N   0  0  0  0  0  0  0  0  0  0  0  0
   26.6951  -33.6818  -15.0430 C   0  0  1  0  0  0  0  0  0  0  0  0
   27.6148  -34.8667  -14.8534 C   0  0  0  0  0  0  0  0  0  0  0  0
   26.9172  -36.1217  -14.5577 C   0  0  0  0  0  0  0  0  0  0  0  0
   25.5690  -36.3497  -14.6682 C   0  0  0  0  0  0  0  0  0  0  0  0
   25.3221  -37.6124  -14.3077 N   0  0  0  0  0  0  0  0  0  0  0  0
   26.4961  -38.1776  -13.9733 C   0  0  0  0  0  0  0  0  0  0  0  0
   27.4670  -37.2673  -14.1265 N   0  0  0  0  0  0  0  0  0  0  0  0
   25.8284  -33.4382  -13.8869 C   0  0  0  0  0  0  0  0  0  0  0  0
   24.5479  -33.9590  -13.7525 O   0  0  0  0  0  0  0  0  0  0  0  0
   26.2488  -32.7204  -12.9537 O   0  0  0  0  0  0  0  0  0  0  0  0
  1  5  1  0
  1  2  1  0
  2  3  1  0
  4  3  1  0
  5  4  1  0
  6  8  1  0
  5  6  1  1
  7  6  2  0
  9  8  1  0
  9 12  1  0
  9 10  1  1
 11 10  1  0
 12 14  1  0
 13 12  2  0
 14 15  1  0
 15 16  1  1
 15 22  1  0
 17 16  1  0
 18 17  2  0
 19 20  1  0
 19 18  1  0
 20 21  2  0
 21 17  1  0
 22 23  1  0
 24 22  2  0
M  END
$$$$
