PCH.pdb
     RDKit          3D

 24 25  0  0  1  0  0  0  0  0999 V2000
   21.2295  -14.9583  -18.0838 N   0  0  0  0  0  0  0  0  0  0  0  0
   20.3650  -16.0985  -18.1181 C   0  0  0  0  0  0  0  0  0  0  0  0
   19.8345  -16.2352  -19.5109 C   0  0  0  0  0  0  0  0  0  0  0  0
   20.4369  -15.1188  -20.3054 C   0  0  0  0  0  0  0  0  0  0  0  0
   21.0127  -14.2016  -19.2826 C   0  0  1  0  0  0  0  0  0  0  0  0
   20.0934  -13.0694  -18.9369 C   0  0  0  0  0  0  0  0  0  0  0  0
   19.6675  -12.2611  -19.8089 O   0  0  0  0  0  0  0  0  0  0  0  0
   19.6543  -12.8499  -17.6021 N   0  0  0  0  0  0  0  0  0  0  0  0
   18.7126  -11.8262  -17.2220 C   0  0  1  0  0  0  0  0  0  0  0  0
   17.5727  -12.5147  -16.4805 C   0  0  0  0  0  0  0  0  0  0  0  0
   16.4978  -11.3269  -15.6540 S   0  0  0  0  0  0  0  0  0  0  0  0
   19.3558  -10.7898  -16.3823 C   0  0  0  0  0  0  0  0  0  0  0  0
   20.0757  -11.1639  -15.4217 O   0  0  0  0  0  0  0  0  0  0  0  0
   19.2100   -9.4069  -16.5947 N   0  0  0  0  0  0  0  0  0  0  0  0
   19.6940   -8.4063  -15.6593 C   0  0  1  0  0  0  0  0  0  0  0  0
   20.4671   -7.3979  -16.4786 C   0  0  0  0  0  0  0  0  0  0  0  0
   21.0374   -6.3009  -15.6908 C   0  0  0  0  0  0  0  0  0  0  0  0
   21.3134   -6.3210  -14.3473 C   0  0  0  0  0  0  0  0  0  0  0  0
   21.8213   -5.1344  -14.0016 N   0  0  0  0  0  0  0  0  0  0  0  0
   21.8671   -4.3725  -15.1092 C   0  0  0  0  0  0  0  0  0  0  0  0
   21.3887   -5.0855  -16.1377 N   0  0  0  0  0  0  0  0  0  0  0  0
   18.6090   -7.8018  -14.8818 C   0  0  0  0  0  0  0  0  0  0  0  0
   17.3893   -7.4141  -15.4213 O   0  0  0  0  0  0  0  0  0  0  0  0
   18.7712   -7.6154  -13.6564 O   0  0  0  0  0  0  0  0  0  0  0  0
  1  5  1  0
  1  2  1  0
  2  3  1  0
  4  3  1  0
  5  4  1  0
  6  8  1  0
  5  6  1  1
  7  6  2  0
  9  8  1  0
  9 12  1  0
  9 10  1  1
 11 10  1  0
 12 14  1  0
 13 12  2  0
 14 15  1  0
 15 16  1  6
 15 22  1  0
 17 16  1  0
 18 17  2  0
 19 20  1  0
 19 18  1  0
 20 21  2  0
 21 17  1  0
 22 23  1  0
 24 22  2  0
M  END
$$$$
