PCH.pdb
     RDKit          3D

 24 25  0  0  1  0  0  0  0  0999 V2000
   27.3676  -18.8713  -14.7444 N   0  0  0  0  0  0  0  0  0  0  0  0
   28.7641  -18.8331  -14.4331 C   0  0  0  0  0  0  0  0  0  0  0  0
   29.4482  -19.8882  -15.2447 C   0  0  0  0  0  0  0  0  0  0  0  0
   28.3837  -20.5509  -16.0620 C   0  0  0  0  0  0  0  0  0  0  0  0
   27.1047  -20.0902  -15.4528 C   0  0  1  0  0  0  0  0  0  0  0  0
   26.5475  -21.0704  -14.4652 C   0  0  0  0  0  0  0  0  0  0  0  0
   26.2538  -22.2552  -14.7891 O   0  0  0  0  0  0  0  0  0  0  0  0
   26.3215  -20.7105  -13.1080 N   0  0  0  0  0  0  0  0  0  0  0  0
   25.4172  -21.4098  -12.2292 C   0  0  1  0  0  0  0  0  0  0  0  0
   25.9489  -21.2443  -10.8103 C   0  0  0  0  0  0  0  0  0  0  0  0
   25.2904  -19.7657  -10.0168 S   0  0  0  0  0  0  0  0  0  0  0  0
   24.0367  -20.8884  -12.3535 C   0  0  0  0  0  0  0  0  0  0  0  0
   23.8760  -19.6450  -12.4481 O   0  0  0  0  0  0  0  0  0  0  0  0
   22.8897  -21.7027  -12.3722 N   0  0  0  0  0  0  0  0  0  0  0  0
   21.5479  -21.1771  -12.5556 C   0  0  1  0  0  0  0  0  0  0  0  0
   20.8366  -22.1413  -13.4777 C   0  0  0  0  0  0  0  0  0  0  0  0
   19.4459  -21.7764  -13.7642 C   0  0  0  0  0  0  0  0  0  0  0  0
   18.7846  -20.6653  -13.3060 C   0  0  0  0  0  0  0  0  0  0  0  0
   17.5367  -20.6887  -13.7831 N   0  0  0  0  0  0  0  0  0  0  0  0
   17.4078  -21.7980  -14.5329 C   0  0  0  0  0  0  0  0  0  0  0  0
   18.5727  -22.4596  -14.5199 N   0  0  0  0  0  0  0  0  0  0  0  0
   20.8495  -20.9808  -11.2825 C   0  0  0  0  0  0  0  0  0  0  0  0
   19.7869  -20.1039  -11.1066 O   0  0  0  0  0  0  0  0  0  0  0  0
   21.2174  -21.6329  -10.2814 O   0  0  0  0  0  0  0  0  0  0  0  0
  1  5  1  0
  1  2  1  0
  2  3  1  0
  4  3  1  0
  5  4  1  0
  6  8  1  0
  5  6  1  1
  7  6  2  0
  9  8  1  0
  9 12  1  0
  9 10  1  1
 11 10  1  0
 12 14  1  0
 13 12  2  0
 14 15  1  0
 15 16  1  6
 15 22  1  0
 17 16  1  0
 18 17  2  0
 19 20  1  0
 19 18  1  0
 20 21  2  0
 21 17  1  0
 22 23  1  0
 24 22  2  0
M  END
$$$$
