PCH.pdb
     RDKit          3D

 24 25  0  0  1  0  0  0  0  0999 V2000
   23.2962  -18.9615  -14.8731 N   0  0  0  0  0  0  0  0  0  0  0  0
   23.4722  -17.8285  -15.7298 C   0  0  0  0  0  0  0  0  0  0  0  0
   23.2470  -18.2755  -17.1403 C   0  0  0  0  0  0  0  0  0  0  0  0
   22.9194  -19.7346  -17.0754 C   0  0  0  0  0  0  0  0  0  0  0  0
   23.2926  -20.1394  -15.6913 C   0  0  1  0  0  0  0  0  0  0  0  0
   24.6627  -20.7422  -15.6137 C   0  0  0  0  0  0  0  0  0  0  0  0
   24.9756  -21.7816  -16.2591 O   0  0  0  0  0  0  0  0  0  0  0  0
   25.6820  -20.1686  -14.8045 N   0  0  0  0  0  0  0  0  0  0  0  0
   26.8778  -20.8660  -14.4008 C   0  0  1  0  0  0  0  0  0  0  0  0
   28.0653  -20.0560  -14.9080 C   0  0  0  0  0  0  0  0  0  0  0  0
   28.0039  -18.3478  -14.3356 S   0  0  0  0  0  0  0  0  0  0  0  0
   26.9289  -21.0380  -12.9309 C   0  0  0  0  0  0  0  0  0  0  0  0
   27.7867  -21.8230  -12.4525 O   0  0  0  0  0  0  0  0  0  0  0  0
   26.0728  -20.3739  -12.0335 N   0  0  0  0  0  0  0  0  0  0  0  0
   26.0643  -20.6372  -10.6049 C   0  0  1  0  0  0  0  0  0  0  0  0
   26.7382  -19.4524   -9.9508 C   0  0  0  0  0  0  0  0  0  0  0  0
   26.8531  -19.5614   -8.4934 C   0  0  0  0  0  0  0  0  0  0  0  0
   26.4468  -20.6200   -7.7213 C   0  0  0  0  0  0  0  0  0  0  0  0
   26.7201  -20.3415   -6.4434 N   0  0  0  0  0  0  0  0  0  0  0  0
   27.2914  -19.1243   -6.4047 C   0  0  0  0  0  0  0  0  0  0  0  0
   27.3715  -18.6506   -7.6553 N   0  0  0  0  0  0  0  0  0  0  0  0
   24.7133  -20.8824  -10.0933 C   0  0  0  0  0  0  0  0  0  0  0  0
   24.4396  -21.5917   -8.9310 O   0  0  0  0  0  0  0  0  0  0  0  0
   23.7335  -20.4341  -10.7272 O   0  0  0  0  0  0  0  0  0  0  0  0
  1  5  1  0
  1  2  1  0
  2  3  1  0
  4  3  1  0
  5  4  1  0
  6  8  1  0
  5  6  1  6
  7  6  2  0
  9  8  1  0
  9 12  1  0
  9 10  1  1
 11 10  1  0
 12 14  1  0
 13 12  2  0
 14 15  1  0
 15 16  1  1
 15 22  1  0
 17 16  1  0
 18 17  2  0
 19 20  1  0
 19 18  1  0
 20 21  2  0
 21 17  1  0
 22 23  1  0
 24 22  2  0
M  END
$$$$
