PCH.pdb
     RDKit          3D

 24 25  0  0  1  0  0  0  0  0999 V2000
   27.4608  -19.1496  -15.0282 N   0  0  0  0  0  0  0  0  0  0  0  0
   28.6494  -18.8407  -14.2931 C   0  0  0  0  0  0  0  0  0  0  0  0
   29.5429  -20.0408  -14.3326 C   0  0  0  0  0  0  0  0  0  0  0  0
   28.8245  -21.0778  -15.1381 C   0  0  0  0  0  0  0  0  0  0  0  0
   27.4292  -20.5670  -15.2443 C   0  0  1  0  0  0  0  0  0  0  0  0
   26.5164  -21.1567  -14.2119 C   0  0  0  0  0  0  0  0  0  0  0  0
   26.2919  -22.3978  -14.1457 O   0  0  0  0  0  0  0  0  0  0  0  0
   25.8556  -20.3417  -13.2518 N   0  0  0  0  0  0  0  0  0  0  0  0
   24.9144  -20.8427  -12.2812 C   0  0  1  0  0  0  0  0  0  0  0  0
   25.1995  -20.1277  -10.9656 C   0  0  0  0  0  0  0  0  0  0  0  0
   26.1569  -21.1576   -9.8377 S   0  0  0  0  0  0  0  0  0  0  0  0
   23.5184  -20.6239  -12.7241 C   0  0  0  0  0  0  0  0  0  0  0  0
   23.0500  -19.4587  -12.6632 O   0  0  0  0  0  0  0  0  0  0  0  0
   22.6811  -21.6443  -13.2107 N   0  0  0  0  0  0  0  0  0  0  0  0
   21.3145  -21.4087  -13.6436 C   0  0  1  0  0  0  0  0  0  0  0  0
   20.8271  -22.7104  -14.2384 C   0  0  0  0  0  0  0  0  0  0  0  0
   19.4843  -22.6338  -14.8215 C   0  0  0  0  0  0  0  0  0  0  0  0
   18.6354  -21.5574  -14.7726 C   0  0  0  0  0  0  0  0  0  0  0  0
   17.5087  -21.8772  -15.4157 N   0  0  0  0  0  0  0  0  0  0  0  0
   17.6403  -23.1378  -15.8662 C   0  0  0  0  0  0  0  0  0  0  0  0
   18.8453  -23.5971  -15.5029 N   0  0  0  0  0  0  0  0  0  0  0  0
   20.4631  -20.9217  -12.5550 C   0  0  0  0  0  0  0  0  0  0  0  0
   20.4771  -21.4401  -11.2666 O   0  0  0  0  0  0  0  0  0  0  0  0
   19.6688  -19.9828  -12.7792 O   0  0  0  0  0  0  0  0  0  0  0  0
  1  5  1  0
  1  2  1  0
  2  3  1  0
  4  3  1  0
  5  4  1  0
  6  8  1  0
  5  6  1  1
  7  6  2  0
  9  8  1  0
  9 12  1  0
  9 10  1  1
 11 10  1  0
 12 14  1  0
 13 12  2  0
 14 15  1  0
 15 16  1  1
 15 22  1  0
 17 16  1  0
 18 17  2  0
 19 20  1  0
 19 18  1  0
 20 21  2  0
 21 17  1  0
 22 23  1  0
 24 22  2  0
M  END
$$$$
