PCH.pdb
     RDKit          3D

 24 25  0  0  1  0  0  0  0  0999 V2000
   19.4956  -14.9778  -17.0587 N   0  0  0  0  0  0  0  0  0  0  0  0
   18.2884  -15.4852  -16.4809 C   0  0  0  0  0  0  0  0  0  0  0  0
   17.1551  -14.6268  -16.9486 C   0  0  0  0  0  0  0  0  0  0  0  0
   17.7528  -13.5857  -17.8426 C   0  0  0  0  0  0  0  0  0  0  0  0
   19.2185  -13.6755  -17.5918 C   0  0  1  0  0  0  0  0  0  0  0  0
   19.6970  -12.6702  -16.5883 C   0  0  0  0  0  0  0  0  0  0  0  0
   19.1578  -12.5469  -15.4530 O   0  0  0  0  0  0  0  0  0  0  0  0
   20.7880  -11.8019  -16.8687 N   0  0  0  0  0  0  0  0  0  0  0  0
   21.2461  -10.7691  -15.9729 C   0  0  1  0  0  0  0  0  0  0  0  0
   22.7672  -10.7339  -16.0654 C   0  0  0  0  0  0  0  0  0  0  0  0
   23.5390  -10.8267  -14.4389 S   0  0  0  0  0  0  0  0  0  0  0  0
   20.6530   -9.4568  -16.3181 C   0  0  0  0  0  0  0  0  0  0  0  0
   20.6465   -9.1051  -17.5252 O   0  0  0  0  0  0  0  0  0  0  0  0
   20.0942   -8.5763  -15.3739 N   0  0  0  0  0  0  0  0  0  0  0  0
   19.6075   -7.2513  -15.7173 C   0  0  1  0  0  0  0  0  0  0  0  0
   18.1150   -7.2716  -15.4769 C   0  0  0  0  0  0  0  0  0  0  0  0
   17.4713   -5.9615  -15.6117 C   0  0  0  0  0  0  0  0  0  0  0  0
   17.4455   -5.1788  -16.7381 C   0  0  0  0  0  0  0  0  0  0  0  0
   16.7652   -4.0623  -16.4624 N   0  0  0  0  0  0  0  0  0  0  0  0
   16.3651   -4.1351  -15.1802 C   0  0  0  0  0  0  0  0  0  0  0  0
   16.7965   -5.2935  -14.6636 N   0  0  0  0  0  0  0  0  0  0  0  0
   20.2943   -6.1958  -14.9680 C   0  0  0  0  0  0  0  0  0  0  0  0
   20.2821   -4.8543  -15.3273 O   0  0  0  0  0  0  0  0  0  0  0  0
   20.9360   -6.5009  -13.9394 O   0  0  0  0  0  0  0  0  0  0  0  0
  1  5  1  0
  1  2  1  0
  2  3  1  0
  4  3  1  0
  5  4  1  0
  6  8  1  0
  5  6  1  1
  7  6  2  0
  9  8  1  0
  9 12  1  0
  9 10  1  6
 11 10  1  0
 12 14  1  0
 13 12  2  0
 14 15  1  0
 15 16  1  1
 15 22  1  0
 17 16  1  0
 18 17  2  0
 19 20  1  0
 19 18  1  0
 20 21  2  0
 21 17  1  0
 22 23  1  0
 24 22  2  0
M  END
$$$$
