PCH.pdb
     RDKit          3D

 24 25  0  0  1  0  0  0  0  0999 V2000
   28.7951  -11.1945  -17.4664 N   0  0  0  0  0  0  0  0  0  0  0  0
   28.7588  -12.3832  -18.2629 C   0  0  0  0  0  0  0  0  0  0  0  0
   29.5902  -12.1470  -19.4848 C   0  0  0  0  0  0  0  0  0  0  0  0
   30.1297  -10.7557  -19.3680 C   0  0  0  0  0  0  0  0  0  0  0  0
   29.3316  -10.1369  -18.2729 C   0  0  1  0  0  0  0  0  0  0  0  0
   28.1745   -9.3323  -18.7831 C   0  0  0  0  0  0  0  0  0  0  0  0
   28.3226   -8.4067  -19.6294 O   0  0  0  0  0  0  0  0  0  0  0  0
   26.8464   -9.5744  -18.3355 N   0  0  0  0  0  0  0  0  0  0  0  0
   25.6962   -8.8316  -18.7876 C   0  0  1  0  0  0  0  0  0  0  0  0
   24.8161   -9.7968  -19.5731 C   0  0  0  0  0  0  0  0  0  0  0  0
   24.3801  -11.2494  -18.5988 S   0  0  0  0  0  0  0  0  0  0  0  0
   24.9612   -8.2342  -17.6491 C   0  0  0  0  0  0  0  0  0  0  0  0
   24.8600   -8.9027  -16.5890 O   0  0  0  0  0  0  0  0  0  0  0  0
   24.3672   -6.9594  -17.6816 N   0  0  0  0  0  0  0  0  0  0  0  0
   23.5960   -6.4164  -16.5767 C   0  0  1  0  0  0  0  0  0  0  0  0
   23.2199   -5.0069  -16.9737 C   0  0  0  0  0  0  0  0  0  0  0  0
   22.4362   -4.2915  -15.9622 C   0  0  0  0  0  0  0  0  0  0  0  0
   22.5025   -4.4706  -14.6038 C   0  0  0  0  0  0  0  0  0  0  0  0
   21.6345   -3.6366  -14.0238 N   0  0  0  0  0  0  0  0  0  0  0  0
   21.0263   -2.9384  -14.9995 C   0  0  0  0  0  0  0  0  0  0  0  0
   21.5164   -3.3391  -16.1802 N   0  0  0  0  0  0  0  0  0  0  0  0
   22.4354   -7.2481  -16.2477 C   0  0  0  0  0  0  0  0  0  0  0  0
   22.0767   -7.6044  -14.9541 O   0  0  0  0  0  0  0  0  0  0  0  0
   21.7110   -7.6730  -17.1737 O   0  0  0  0  0  0  0  0  0  0  0  0
  1  5  1  0
  1  2  1  0
  2  3  1  0
  4  3  1  0
  5  4  1  0
  6  8  1  0
  5  6  1  6
  7  6  2  0
  9  8  1  0
  9 12  1  0
  9 10  1  1
 11 10  1  0
 12 14  1  0
 13 12  2  0
 14 15  1  0
 15 16  1  6
 15 22  1  0
 17 16  1  0
 18 17  2  0
 19 20  1  0
 19 18  1  0
 20 21  2  0
 21 17  1  0
 22 23  1  0
 24 22  2  0
M  END
$$$$
