PCH.pdb
     RDKit          3D

 24 25  0  0  1  0  0  0  0  0999 V2000
   27.1367  -19.4792  -15.3535 N   0  0  0  0  0  0  0  0  0  0  0  0
   28.4374  -19.0764  -14.9122 C   0  0  0  0  0  0  0  0  0  0  0  0
   29.3686  -20.2329  -15.1002 C   0  0  0  0  0  0  0  0  0  0  0  0
   28.5528  -21.3433  -15.6849 C   0  0  0  0  0  0  0  0  0  0  0  0
   27.1408  -20.9058  -15.5004 C   0  0  1  0  0  0  0  0  0  0  0  0
   26.5114  -21.4841  -14.2691 C   0  0  0  0  0  0  0  0  0  0  0  0
   26.3868  -22.7297  -14.1014 O   0  0  0  0  0  0  0  0  0  0  0  0
   26.0216  -20.6525  -13.2245 N   0  0  0  0  0  0  0  0  0  0  0  0
   25.1328  -21.1062  -12.1836 C   0  0  1  0  0  0  0  0  0  0  0  0
   25.7306  -20.6606  -10.8541 C   0  0  0  0  0  0  0  0  0  0  0  0
   24.4984  -20.6433   -9.5385 S   0  0  0  0  0  0  0  0  0  0  0  0
   23.7668  -20.5656  -12.3704 C   0  0  0  0  0  0  0  0  0  0  0  0
   23.6181  -19.3173  -12.3925 O   0  0  0  0  0  0  0  0  0  0  0  0
   22.6209  -21.3669  -12.5254 N   0  0  0  0  0  0  0  0  0  0  0  0
   21.2828  -20.8179  -12.6613 C   0  0  1  0  0  0  0  0  0  0  0  0
   20.8042  -21.2030  -14.0428 C   0  0  0  0  0  0  0  0  0  0  0  0
   21.5885  -20.6128  -15.1317 C   0  0  0  0  0  0  0  0  0  0  0  0
   22.6929  -21.1633  -15.7311 C   0  0  0  0  0  0  0  0  0  0  0  0
   23.1247  -20.3232  -16.6761 N   0  0  0  0  0  0  0  0  0  0  0  0
   22.3067  -19.2553  -16.6766 C   0  0  0  0  0  0  0  0  0  0  0  0
   21.3711  -19.4339  -15.7345 N   0  0  0  0  0  0  0  0  0  0  0  0
   20.3850  -21.2726  -11.5963 C   0  0  0  0  0  0  0  0  0  0  0  0
   19.2829  -20.5549  -11.1503 O   0  0  0  0  0  0  0  0  0  0  0  0
   20.6075  -22.3711  -11.0427 O   0  0  0  0  0  0  0  0  0  0  0  0
  1  5  1  0
  1  2  1  0
  2  3  1  0
  4  3  1  0
  5  4  1  0
  6  8  1  0
  5  6  1  1
  7  6  2  0
  9  8  1  0
  9 12  1  0
  9 10  1  1
 11 10  1  0
 12 14  1  0
 13 12  2  0
 14 15  1  0
 15 16  1  6
 15 22  1  0
 17 16  1  0
 18 17  2  0
 19 20  1  0
 19 18  1  0
 20 21  2  0
 21 17  1  0
 22 23  1  0
 24 22  2  0
M  END
$$$$
