PCH.pdb
     RDKit          3D

 24 25  0  0  1  0  0  0  0  0999 V2000
   20.9608  -11.6150  -18.7087 N   0  0  0  0  0  0  0  0  0  0  0  0
   21.1704  -13.0040  -18.4342 C   0  0  0  0  0  0  0  0  0  0  0  0
   19.9688  -13.5179  -17.7046 C   0  0  0  0  0  0  0  0  0  0  0  0
   19.0294  -12.3608  -17.5671 C   0  0  0  0  0  0  0  0  0  0  0  0
   19.8523  -11.1689  -17.9157 C   0  0  1  0  0  0  0  0  0  0  0  0
   20.4140  -10.4799  -16.7089 C   0  0  0  0  0  0  0  0  0  0  0  0
   19.7962  -10.4458  -15.6079 O   0  0  0  0  0  0  0  0  0  0  0  0
   21.6773   -9.8277  -16.7464 N   0  0  0  0  0  0  0  0  0  0  0  0
   22.2289   -9.0764  -15.6463 C   0  0  1  0  0  0  0  0  0  0  0  0
   23.6606   -9.5585  -15.4436 C   0  0  0  0  0  0  0  0  0  0  0  0
   23.7340  -11.0068  -14.3728 S   0  0  0  0  0  0  0  0  0  0  0  0
   22.1812   -7.6205  -15.9128 C   0  0  0  0  0  0  0  0  0  0  0  0
   22.5750   -7.2068  -17.0330 O   0  0  0  0  0  0  0  0  0  0  0  0
   21.7204   -6.6682  -14.9854 N   0  0  0  0  0  0  0  0  0  0  0  0
   21.6507   -5.2469  -15.2777 C   0  0  1  0  0  0  0  0  0  0  0  0
   20.1821   -4.8877  -15.2906 C   0  0  0  0  0  0  0  0  0  0  0  0
   19.4510   -5.4081  -16.4497 C   0  0  0  0  0  0  0  0  0  0  0  0
   19.7711   -5.2128  -17.7693 C   0  0  0  0  0  0  0  0  0  0  0  0
   18.8653   -5.8432  -18.5225 N   0  0  0  0  0  0  0  0  0  0  0  0
   17.9833   -6.4300  -17.6935 C   0  0  0  0  0  0  0  0  0  0  0  0
   18.3422   -6.1636  -16.4305 N   0  0  0  0  0  0  0  0  0  0  0  0
   22.4283   -4.4459  -14.3286 C   0  0  0  0  0  0  0  0  0  0  0  0
   22.6863   -3.0902  -14.4850 O   0  0  0  0  0  0  0  0  0  0  0  0
   22.8969   -4.9978  -13.3096 O   0  0  0  0  0  0  0  0  0  0  0  0
  1  5  1  0
  1  2  1  0
  2  3  1  0
  4  3  1  0
  5  4  1  0
  6  8  1  0
  5  6  1  1
  7  6  2  0
  9  8  1  0
  9 12  1  0
  9 10  1  6
 11 10  1  0
 12 14  1  0
 13 12  2  0
 14 15  1  0
 15 16  1  1
 15 22  1  0
 17 16  1  0
 18 17  2  0
 19 20  1  0
 19 18  1  0
 20 21  2  0
 21 17  1  0
 22 23  1  0
 24 22  2  0
M  END
$$$$
