PCH.pdb
     RDKit          3D

 24 25  0  0  1  0  0  0  0  0999 V2000
   16.6249  -20.9670    3.9954 N   0  0  0  0  0  0  0  0  0  0  0  0
   15.9377  -19.9048    3.3261 C   0  0  0  0  0  0  0  0  0  0  0  0
   16.9550  -19.0785    2.6033 C   0  0  0  0  0  0  0  0  0  0  0  0
   18.2842  -19.7118    2.8726 C   0  0  0  0  0  0  0  0  0  0  0  0
   18.0258  -20.6598    3.9922 C   0  0  1  0  0  0  0  0  0  0  0  0
   18.3592  -20.0777    5.3326 C   0  0  0  0  0  0  0  0  0  0  0  0
   17.4650  -19.7249    6.1518 O   0  0  0  0  0  0  0  0  0  0  0  0
   19.7068  -19.8939    5.7484 N   0  0  0  0  0  0  0  0  0  0  0  0
   20.0887  -19.4095    7.0517 C   0  0  1  0  0  0  0  0  0  0  0  0
   21.1536  -20.3573    7.5910 C   0  0  0  0  0  0  0  0  0  0  0  0
   22.3411  -20.8241    6.3176 S   0  0  0  0  0  0  0  0  0  0  0  0
   20.5890  -18.0174    6.9819 C   0  0  0  0  0  0  0  0  0  0  0  0
   21.2376  -17.6680    5.9631 O   0  0  0  0  0  0  0  0  0  0  0  0
   20.3821  -17.0584    7.9902 N   0  0  0  0  0  0  0  0  0  0  0  0
   20.7509  -15.6611    7.8422 C   0  0  1  0  0  0  0  0  0  0  0  0
   19.9467  -15.1309    6.6768 C   0  0  0  0  0  0  0  0  0  0  0  0
   20.1606  -13.7066    6.4036 C   0  0  0  0  0  0  0  0  0  0  0  0
   20.9498  -12.8482    7.1263 C   0  0  0  0  0  0  0  0  0  0  0  0
   20.8838  -11.6378    6.5644 N   0  0  0  0  0  0  0  0  0  0  0  0
   20.0651  -11.7264    5.5008 C   0  0  0  0  0  0  0  0  0  0  0  0
   19.6254  -12.9882    5.4046 N   0  0  0  0  0  0  0  0  0  0  0  0
   20.5434  -14.8982    9.0759 C   0  0  0  0  0  0  0  0  0  0  0  0
   21.0714  -13.6344    9.3057 O   0  0  0  0  0  0  0  0  0  0  0  0
   19.8520  -15.3980    9.9896 O   0  0  0  0  0  0  0  0  0  0  0  0
  1  5  1  0
  1  2  1  0
  2  3  1  0
  4  3  1  0
  5  4  1  0
  6  8  1  0
  5  6  1  1
  7  6  2  0
  9  8  1  0
  9 12  1  0
  9 10  1  6
 11 10  1  0
 12 14  1  0
 13 12  2  0
 14 15  1  0
 15 16  1  6
 15 22  1  0
 17 16  1  0
 18 17  2  0
 19 20  1  0
 19 18  1  0
 20 21  2  0
 21 17  1  0
 22 23  1  0
 24 22  2  0
M  END
$$$$
