PCH.pdb
     RDKit          3D

 24 25  0  0  1  0  0  0  0  0999 V2000
   26.6558  -25.1315  -18.4965 N   0  0  0  0  0  0  0  0  0  0  0  0
   25.4395  -25.7995  -18.1457 C   0  0  0  0  0  0  0  0  0  0  0  0
   25.6867  -26.5848  -16.8958 C   0  0  0  0  0  0  0  0  0  0  0  0
   27.1143  -26.3412  -16.5175 C   0  0  0  0  0  0  0  0  0  0  0  0
   27.7173  -25.7093  -17.7243 C   0  0  1  0  0  0  0  0  0  0  0  0
   28.4238  -26.6967  -18.6032 C   0  0  0  0  0  0  0  0  0  0  0  0
   27.8799  -27.1885  -19.6315 O   0  0  0  0  0  0  0  0  0  0  0  0
   29.7485  -27.1294  -18.3193 N   0  0  0  0  0  0  0  0  0  0  0  0
   30.4766  -28.0770  -19.1262 C   0  0  1  0  0  0  0  0  0  0  0  0
   31.8978  -27.5461  -19.2734 C   0  0  0  0  0  0  0  0  0  0  0  0
   32.1203  -26.6492  -20.8212 S   0  0  0  0  0  0  0  0  0  0  0  0
   30.4638  -29.4253  -18.5139 C   0  0  0  0  0  0  0  0  0  0  0  0
   30.2148  -29.5191  -17.2851 O   0  0  0  0  0  0  0  0  0  0  0  0
   30.7144  -30.6123  -19.2263 N   0  0  0  0  0  0  0  0  0  0  0  0
   30.4497  -31.9333  -18.6828 C   0  0  1  0  0  0  0  0  0  0  0  0
   28.9885  -31.9478  -18.2949 C   0  0  0  0  0  0  0  0  0  0  0  0
   28.7521  -32.2015  -16.8705 C   0  0  0  0  0  0  0  0  0  0  0  0
   29.7086  -32.4344  -15.9151 C   0  0  0  0  0  0  0  0  0  0  0  0
   29.0980  -32.6220  -14.7416 N   0  0  0  0  0  0  0  0  0  0  0  0
   27.7736  -32.5100  -14.9488 C   0  0  0  0  0  0  0  0  0  0  0  0
   27.5650  -32.2537  -16.2472 N   0  0  0  0  0  0  0  0  0  0  0  0
   30.8040  -33.0013  -19.6214 C   0  0  0  0  0  0  0  0  0  0  0  0
   31.3137  -34.2350  -19.2378 O   0  0  0  0  0  0  0  0  0  0  0  0
   30.6454  -32.8100  -20.8465 O   0  0  0  0  0  0  0  0  0  0  0  0
  1  5  1  0
  1  2  1  0
  2  3  1  0
  4  3  1  0
  5  4  1  0
  6  8  1  0
  5  6  1  6
  7  6  2  0
  9  8  1  0
  9 12  1  0
  9 10  1  1
 11 10  1  0
 12 14  1  0
 13 12  2  0
 14 15  1  0
 15 16  1  6
 15 22  1  0
 17 16  1  0
 18 17  2  0
 19 20  1  0
 19 18  1  0
 20 21  2  0
 21 17  1  0
 22 23  1  0
 24 22  2  0
M  END
$$$$
