PCH.pdb
     RDKit          3D

 24 25  0  0  1  0  0  0  0  0999 V2000
   19.3432  -11.5770  -17.7021 N   0  0  0  0  0  0  0  0  0  0  0  0
   19.9281  -12.8824  -17.6526 C   0  0  0  0  0  0  0  0  0  0  0  0
   19.3700  -13.5947  -16.4604 C   0  0  0  0  0  0  0  0  0  0  0  0
   18.4150  -12.6447  -15.8079 C   0  0  0  0  0  0  0  0  0  0  0  0
   18.7071  -11.3283  -16.4410 C   0  0  1  0  0  0  0  0  0  0  0  0
   19.6434  -10.4886  -15.6256 C   0  0  0  0  0  0  0  0  0  0  0  0
   19.4360  -10.2469  -14.4035 O   0  0  0  0  0  0  0  0  0  0  0  0
   20.8173   -9.9203  -16.1930 N   0  0  0  0  0  0  0  0  0  0  0  0
   21.7427   -9.0887  -15.4643 C   0  0  1  0  0  0  0  0  0  0  0  0
   23.1428   -9.4288  -15.9615 C   0  0  0  0  0  0  0  0  0  0  0  0
   23.3272   -9.0944  -17.7233 S   0  0  0  0  0  0  0  0  0  0  0  0
   21.4364   -7.6520  -15.6522 C   0  0  0  0  0  0  0  0  0  0  0  0
   21.0546   -7.2679  -16.7869 O   0  0  0  0  0  0  0  0  0  0  0  0
   21.5470   -6.6871  -14.6345 N   0  0  0  0  0  0  0  0  0  0  0  0
   21.2648   -5.2777  -14.8451 C   0  0  1  0  0  0  0  0  0  0  0  0
   19.7615   -5.1311  -14.7786 C   0  0  0  0  0  0  0  0  0  0  0  0
   19.2948   -3.7424  -14.8322 C   0  0  0  0  0  0  0  0  0  0  0  0
   19.6962   -2.7823  -15.7260 C   0  0  0  0  0  0  0  0  0  0  0  0
   19.0465   -1.6480  -15.4491 N   0  0  0  0  0  0  0  0  0  0  0  0
   18.2447   -1.8845  -14.3952 C   0  0  0  0  0  0  0  0  0  0  0  0
   18.3976   -3.1617  -14.0208 N   0  0  0  0  0  0  0  0  0  0  0  0
   21.9671   -4.4212  -13.8858 C   0  0  0  0  0  0  0  0  0  0  0  0
   22.2152   -3.0697  -14.0876 O   0  0  0  0  0  0  0  0  0  0  0  0
   22.3760   -4.9183  -12.8141 O   0  0  0  0  0  0  0  0  0  0  0  0
  1  5  1  0
  1  2  1  0
  2  3  1  0
  4  3  1  0
  5  4  1  0
  6  8  1  0
  5  6  1  1
  7  6  2  0
  9  8  1  0
  9 12  1  0
  9 10  1  6
 11 10  1  0
 12 14  1  0
 13 12  2  0
 14 15  1  0
 15 16  1  1
 15 22  1  0
 17 16  1  0
 18 17  2  0
 19 20  1  0
 19 18  1  0
 20 21  2  0
 21 17  1  0
 22 23  1  0
 24 22  2  0
M  END
$$$$
