GRQ.pdb
     RDKit          3D

 25 24  0  0  1  0  0  0  0  0999 V2000
    5.6096  -20.5275   24.4012 N   0  0  0  0  0  0  0  0  0  0  0  0
    5.4120  -19.0854   24.5265 C   0  0  0  0  0  0  0  0  0  0  0  0
    6.5284  -18.3568   23.8701 C   0  0  0  0  0  0  0  0  0  0  0  0
    7.5729  -18.9767   23.5484 O   0  0  0  0  0  0  0  0  0  0  0  0
    9.4790  -12.5193   19.6895 N   0  0  0  0  0  0  0  0  0  0  0  0
    8.5732  -13.0237   18.6973 C   0  0  0  0  0  0  0  0  0  0  0  0
    8.9385  -13.0860   17.4622 N   0  0  0  0  0  0  0  0  0  0  0  0
    7.2697  -13.4641   19.0275 N   0  0  0  0  0  0  0  0  0  0  0  0
    6.8143  -13.5125   20.4008 C   0  0  0  0  0  0  0  0  0  0  0  0
    7.5371  -14.6829   21.0504 C   0  0  0  0  0  0  0  0  0  0  0  0
    7.0391  -14.9649   22.4272 C   0  0  0  0  0  0  0  0  0  0  0  0
    7.6051  -16.2604   22.9527 C   0  0  2  0  0  0  0  0  0  0  0  0
    6.4756  -16.9730   23.5826 N   0  0  0  0  0  0  0  0  0  0  0  0
    8.6720  -16.0263   23.9652 C   0  0  0  0  0  0  0  0  0  0  0  0
    8.4224  -15.4975   25.0697 O   0  0  0  0  0  0  0  0  0  0  0  0
    8.2450  -13.3670   16.7412 N   0  0  0  0  0  0  0  0  0  0  0  0
    9.3576  -17.8493   28.1587 C   0  0  0  0  0  0  0  0  0  0  0  0
   10.7333  -18.1015   28.1164 O   0  0  0  0  0  0  0  0  0  0  0  0
   11.3628  -18.4666   29.1137 C   0  0  0  0  0  0  0  0  0  0  0  0
   11.4577  -17.9196   26.8135 C   0  0  0  0  0  0  0  0  0  0  0  0
   10.5069  -17.7118   25.6874 C   0  0  1  0  0  0  0  0  0  0  0  0
   10.9231  -16.5514   24.8298 N   0  0  0  0  0  0  0  0  0  0  0  0
   10.0138  -16.4029   23.6972 C   0  0  0  0  0  0  0  0  0  0  0  0
   12.3125  -16.7010   24.3834 O   0  0  0  0  0  0  0  0  0  0  0  0
   12.7447  -16.8730   23.0937 O   0  0  0  0  0  0  0  0  0  0  0  0
  1  2  1  0
  2  3  1  0
  3 13  1  0
  4  3  2  0
  5  6  1  0
  6  7  2  0
  6  8  1  0
  8  9  1  0
  9 10  1  0
 12 11  1  1
 11 10  1  0
 12 14  1  0
 13 12  1  0
 14 15  2  0
 16 17  1  0
 17 18  2  0
 17 19  1  0
 19 20  1  0
 21 20  1  1
 21 23  1  0
 22 21  1  0
 22 14  1  0
 23 25  2  0
 23 24  1  0
M  END
$$$$
