GRQ.pdb
     RDKit          3D

 25 24  0  0  1  0  0  0  0  0999 V2000
   14.0077  -18.4584   19.6796 N   0  0  0  0  0  0  0  0  0  0  0  0
   12.8675  -18.8722   20.4939 C   0  0  0  0  0  0  0  0  0  0  0  0
   12.2808  -17.6967   21.1881 C   0  0  0  0  0  0  0  0  0  0  0  0
   13.0280  -16.9123   21.8248 O   0  0  0  0  0  0  0  0  0  0  0  0
    7.9163  -12.1462   20.4374 N   0  0  0  0  0  0  0  0  0  0  0  0
    7.5172  -13.2329   19.5894 C   0  0  0  0  0  0  0  0  0  0  0  0
    7.6369  -13.1302   18.3095 N   0  0  0  0  0  0  0  0  0  0  0  0
    6.9874  -14.4360   20.1126 N   0  0  0  0  0  0  0  0  0  0  0  0
    6.8759  -14.6546   21.5393 C   0  0  0  0  0  0  0  0  0  0  0  0
    8.2901  -14.8913   22.0477 C   0  0  0  0  0  0  0  0  0  0  0  0
    8.9469  -16.0518   21.3809 C   0  0  0  0  0  0  0  0  0  0  0  0
   10.3146  -16.3076   21.9630 C   0  0  2  0  0  0  0  0  0  0  0  0
   10.8963  -17.4084   21.1693 N   0  0  0  0  0  0  0  0  0  0  0  0
   10.2385  -16.7128   23.3942 C   0  0  0  0  0  0  0  0  0  0  0  0
   10.0618  -17.9037   23.7294 O   0  0  0  0  0  0  0  0  0  0  0  0
    7.3502  -13.9269   17.7073 N   0  0  0  0  0  0  0  0  0  0  0  0
   10.2743  -14.5315   30.4739 C   0  0  0  0  0  0  0  0  0  0  0  0
   10.1160  -14.3085   29.1016 O   0  0  0  0  0  0  0  0  0  0  0  0
    9.8777  -13.1871   28.6438 C   0  0  0  0  0  0  0  0  0  0  0  0
   10.2414  -15.4756   28.1646 C   0  0  0  0  0  0  0  0  0  0  0  0
   10.1484  -15.0439   26.7433 C   0  0  2  0  0  0  0  0  0  0  0  0
   10.3181  -16.2068   25.8084 N   0  0  0  0  0  0  0  0  0  0  0  0
   10.3667  -15.7449   24.4241 C   0  0  0  0  0  0  0  0  0  0  0  0
    9.2534  -17.1968   26.0041 O   0  0  0  0  0  0  0  0  0  0  0  0
    9.3072  -18.3112   26.8010 O   0  0  0  0  0  0  0  0  0  0  0  0
  1  2  1  0
  2  3  1  0
  3 13  1  0
  4  3  2  0
  5  6  1  0
  6  7  2  0
  6  8  1  0
  8  9  1  0
  9 10  1  0
 12 11  1  6
 11 10  1  0
 12 14  1  0
 13 12  1  0
 14 15  2  0
 16 17  1  0
 17 18  2  0
 17 19  1  0
 19 20  1  0
 21 20  1  1
 21 23  1  0
 22 21  1  0
 22 14  1  0
 23 25  2  0
 23 24  1  0
M  END
$$$$
