GRQ.pdb
     RDKit          3D

 25 24  0  0  1  0  0  0  0  0999 V2000
   12.7446  -20.1330   19.6447 N   0  0  0  0  0  0  0  0  0  0  0  0
   11.7490  -20.2529   20.7073 C   0  0  0  0  0  0  0  0  0  0  0  0
   11.5052  -18.9270   21.3323 C   0  0  0  0  0  0  0  0  0  0  0  0
   12.4787  -18.1921   21.6340 O   0  0  0  0  0  0  0  0  0  0  0  0
    7.7450  -12.8256   18.6537 N   0  0  0  0  0  0  0  0  0  0  0  0
    8.0605  -12.6860   20.0467 C   0  0  0  0  0  0  0  0  0  0  0  0
    9.0874  -11.9956   20.4096 N   0  0  0  0  0  0  0  0  0  0  0  0
    7.2737  -13.2876   21.0570 N   0  0  0  0  0  0  0  0  0  0  0  0
    7.1812  -14.7265   21.1857 C   0  0  0  0  0  0  0  0  0  0  0  0
    8.5461  -15.2024   21.6601 C   0  0  0  0  0  0  0  0  0  0  0  0
    8.6074  -16.6834   21.8204 C   0  0  0  0  0  0  0  0  0  0  0  0
    9.9849  -17.1250   22.2474 C   0  0  2  0  0  0  0  0  0  0  0  0
   10.2075  -18.4387   21.6111 N   0  0  0  0  0  0  0  0  0  0  0  0
   10.0858  -17.2656   23.7267 C   0  0  0  0  0  0  0  0  0  0  0  0
    9.6337  -18.2672   24.3220 O   0  0  0  0  0  0  0  0  0  0  0  0
    9.3302  -11.9387   21.4184 N   0  0  0  0  0  0  0  0  0  0  0  0
    9.6343  -13.2145   28.2867 C   0  0  0  0  0  0  0  0  0  0  0  0
   10.1392  -14.3225   28.9762 O   0  0  0  0  0  0  0  0  0  0  0  0
   10.2081  -14.3510   30.2084 C   0  0  0  0  0  0  0  0  0  0  0  0
   10.6096  -15.5087   28.1842 C   0  0  0  0  0  0  0  0  0  0  0  0
   10.4064  -15.3027   26.7242 C   0  0  2  0  0  0  0  0  0  0  0  0
   10.8694  -16.4942   25.9361 N   0  0  0  0  0  0  0  0  0  0  0  0
   10.7054  -16.2538   24.5054 C   0  0  0  0  0  0  0  0  0  0  0  0
   10.1630  -17.7088   26.3581 O   0  0  0  0  0  0  0  0  0  0  0  0
   10.5836  -18.6176   27.2946 O   0  0  0  0  0  0  0  0  0  0  0  0
  1  2  1  0
  2  3  1  0
  3 13  1  0
  4  3  2  0
  5  6  1  0
  6  7  2  0
  6  8  1  0
  8  9  1  0
  9 10  1  0
 12 11  1  1
 11 10  1  0
 12 14  1  0
 13 12  1  0
 14 15  2  0
 16 17  1  0
 17 18  2  0
 17 19  1  0
 19 20  1  0
 21 20  1  6
 21 23  1  0
 22 21  1  0
 22 14  1  0
 23 25  2  0
 23 24  1  0
M  END
$$$$
