GRQ.pdb
     RDKit          3D

 25 24  0  0  1  0  0  0  0  0999 V2000
    8.8526  -20.2418   17.8642 N   0  0  0  0  0  0  0  0  0  0  0  0
    9.2777  -21.6392   17.8305 C   0  0  0  0  0  0  0  0  0  0  0  0
    9.2232  -22.2239   19.1956 C   0  0  0  0  0  0  0  0  0  0  0  0
    9.0624  -21.4719   20.1893 O   0  0  0  0  0  0  0  0  0  0  0  0
    6.8363  -28.9526   18.6989 N   0  0  0  0  0  0  0  0  0  0  0  0
    6.1229  -27.7675   18.3171 C   0  0  0  0  0  0  0  0  0  0  0  0
    5.6911  -27.6353   17.1092 N   0  0  0  0  0  0  0  0  0  0  0  0
    5.8697  -26.7181   19.2317 N   0  0  0  0  0  0  0  0  0  0  0  0
    6.4000  -26.7456   20.5783 C   0  0  0  0  0  0  0  0  0  0  0  0
    7.1051  -25.4140   20.7880 C   0  0  0  0  0  0  0  0  0  0  0  0
    8.5847  -25.5251   20.6417 C   0  0  0  0  0  0  0  0  0  0  0  0
    9.2467  -24.1792   20.7993 C   0  0  2  0  0  0  0  0  0  0  0  0
    9.3453  -23.6115   19.4398 N   0  0  0  0  0  0  0  0  0  0  0  0
   10.6096  -24.2997   21.3878 C   0  0  0  0  0  0  0  0  0  0  0  0
   11.5398  -24.8667   20.7753 O   0  0  0  0  0  0  0  0  0  0  0  0
    5.2227  -26.7503   16.8315 N   0  0  0  0  0  0  0  0  0  0  0  0
   12.9716  -20.7133   25.8847 C   0  0  0  0  0  0  0  0  0  0  0  0
   13.1434  -20.4238   24.5266 O   0  0  0  0  0  0  0  0  0  0  0  0
   13.5176  -19.3141   24.1360 C   0  0  0  0  0  0  0  0  0  0  0  0
   12.8612  -21.5024   23.5204 C   0  0  0  0  0  0  0  0  0  0  0  0
   12.5253  -22.7912   24.1849 C   0  0  2  0  0  0  0  0  0  0  0  0
   12.2551  -23.8703   23.1761 N   0  0  0  0  0  0  0  0  0  0  0  0
   10.8883  -23.7672   22.6734 C   0  0  0  0  0  0  0  0  0  0  0  0
   12.5166  -25.1971   23.7448 O   0  0  0  0  0  0  0  0  0  0  0  0
   13.6632  -25.9361   23.6071 O   0  0  0  0  0  0  0  0  0  0  0  0
  1  2  1  0
  2  3  1  0
  3 13  1  0
  4  3  2  0
  5  6  1  0
  6  7  2  0
  6  8  1  0
  8  9  1  0
  9 10  1  0
 12 11  1  6
 11 10  1  0
 12 14  1  0
 13 12  1  0
 14 15  2  0
 16 17  1  0
 17 18  2  0
 17 19  1  0
 19 20  1  0
 21 20  1  6
 21 23  1  0
 22 21  1  0
 22 14  1  0
 23 25  2  0
 23 24  1  0
M  END
$$$$
