GRQ.pdb
     RDKit          3D

 25 24  0  0  1  0  0  0  0  0999 V2000
   11.0626  -18.1942   18.4716 N   0  0  0  0  0  0  0  0  0  0  0  0
   10.1393  -18.5825   19.5353 C   0  0  0  0  0  0  0  0  0  0  0  0
   10.2597  -17.6476   20.6840 C   0  0  0  0  0  0  0  0  0  0  0  0
   11.3894  -17.2061   21.0122 O   0  0  0  0  0  0  0  0  0  0  0  0
    8.5100  -13.7390   18.4918 N   0  0  0  0  0  0  0  0  0  0  0  0
    8.1466  -12.7698   19.4857 C   0  0  0  0  0  0  0  0  0  0  0  0
    8.4937  -11.5363   19.3413 N   0  0  0  0  0  0  0  0  0  0  0  0
    7.4080  -13.1213   20.6402 N   0  0  0  0  0  0  0  0  0  0  0  0
    8.0353  -13.7795   21.7666 C   0  0  0  0  0  0  0  0  0  0  0  0
    7.3188  -15.1106   21.9378 C   0  0  0  0  0  0  0  0  0  0  0  0
    7.9095  -15.9378   23.0286 C   0  0  0  0  0  0  0  0  0  0  0  0
    9.2971  -16.4031   22.6641 C   0  0  2  0  0  0  0  0  0  0  0  0
    9.1458  -17.2197   21.4432 N   0  0  0  0  0  0  0  0  0  0  0  0
    9.9033  -17.2308   23.7438 C   0  0  0  0  0  0  0  0  0  0  0  0
    9.3901  -18.3105   24.1080 O   0  0  0  0  0  0  0  0  0  0  0  0
    8.2650  -10.8535   20.0905 N   0  0  0  0  0  0  0  0  0  0  0  0
   15.8950  -17.3492   25.1252 C   0  0  0  0  0  0  0  0  0  0  0  0
   15.2132  -17.5763   23.9246 O   0  0  0  0  0  0  0  0  0  0  0  0
   15.8068  -17.7182   22.8515 C   0  0  0  0  0  0  0  0  0  0  0  0
   13.7134  -17.6478   23.9522 C   0  0  0  0  0  0  0  0  0  0  0  0
   13.1918  -17.5859   25.3448 C   0  0  2  0  0  0  0  0  0  0  0  0
   11.6953  -17.7080   25.3722 N   0  0  0  0  0  0  0  0  0  0  0  0
   11.0927  -16.8084   24.3927 C   0  0  0  0  0  0  0  0  0  0  0  0
   11.1732  -17.4572   26.7200 O   0  0  0  0  0  0  0  0  0  0  0  0
   11.4725  -18.1601   27.8585 O   0  0  0  0  0  0  0  0  0  0  0  0
  1  2  1  0
  2  3  1  0
  3 13  1  0
  4  3  2  0
  5  6  1  0
  6  7  2  0
  6  8  1  0
  8  9  1  0
  9 10  1  0
 12 11  1  1
 11 10  1  0
 12 14  1  0
 13 12  1  0
 14 15  2  0
 16 17  1  0
 17 18  2  0
 17 19  1  0
 19 20  1  0
 21 20  1  6
 21 23  1  0
 22 21  1  0
 22 14  1  0
 23 25  2  0
 23 24  1  0
M  END
$$$$
