GRQ.pdb
     RDKit          3D

 25 24  0  0  1  0  0  0  0  0999 V2000
    4.1723  -20.4139   21.7380 N   0  0  0  0  0  0  0  0  0  0  0  0
    4.0682  -19.2204   22.5743 C   0  0  0  0  0  0  0  0  0  0  0  0
    5.4226  -18.6968   22.8900 C   0  0  0  0  0  0  0  0  0  0  0  0
    6.3495  -19.4968   23.1722 O   0  0  0  0  0  0  0  0  0  0  0  0
    7.9469  -13.1095   16.9757 N   0  0  0  0  0  0  0  0  0  0  0  0
    7.9400  -13.0116   18.4074 C   0  0  0  0  0  0  0  0  0  0  0  0
    8.2194  -11.8897   18.9787 N   0  0  0  0  0  0  0  0  0  0  0  0
    7.6325  -14.1189   19.2327 N   0  0  0  0  0  0  0  0  0  0  0  0
    7.6235  -14.0057   20.6758 C   0  0  0  0  0  0  0  0  0  0  0  0
    7.2400  -15.3774   21.2103 C   0  0  0  0  0  0  0  0  0  0  0  0
    7.1330  -15.3984   22.6973 C   0  0  0  0  0  0  0  0  0  0  0  0
    7.0787  -16.8135   23.2162 C   0  0  2  0  0  0  0  0  0  0  0  0
    5.7294  -17.3162   22.8893 N   0  0  0  0  0  0  0  0  0  0  0  0
    7.2866  -16.8696   24.6899 C   0  0  0  0  0  0  0  0  0  0  0  0
    6.4879  -16.3297   25.4852 O   0  0  0  0  0  0  0  0  0  0  0  0
    8.2472  -11.8415   20.0164 N   0  0  0  0  0  0  0  0  0  0  0  0
    8.7699  -21.2985   28.2953 C   0  0  0  0  0  0  0  0  0  0  0  0
    7.6605  -20.9841   27.5026 O   0  0  0  0  0  0  0  0  0  0  0  0
    6.7645  -21.8026   27.2764 C   0  0  0  0  0  0  0  0  0  0  0  0
    7.5659  -19.6061   26.9129 C   0  0  0  0  0  0  0  0  0  0  0  0
    8.7229  -18.7614   27.3167 C   0  0  2  0  0  0  0  0  0  0  0  0
    8.6650  -17.4101   26.6643 N   0  0  0  0  0  0  0  0  0  0  0  0
    8.4099  -17.5457   25.2331 C   0  0  0  0  0  0  0  0  0  0  0  0
    9.8951  -16.6520   26.9182 O   0  0  0  0  0  0  0  0  0  0  0  0
   10.3965  -16.2899   28.1418 O   0  0  0  0  0  0  0  0  0  0  0  0
  1  2  1  0
  2  3  1  0
  3 13  1  0
  4  3  2  0
  5  6  1  0
  6  7  2  0
  6  8  1  0
  8  9  1  0
  9 10  1  0
 12 11  1  1
 11 10  1  0
 12 14  1  0
 13 12  1  0
 14 15  2  0
 16 17  1  0
 17 18  2  0
 17 19  1  0
 19 20  1  0
 21 20  1  1
 21 23  1  0
 22 21  1  0
 22 14  1  0
 23 25  2  0
 23 24  1  0
M  END
$$$$
