GRQ.pdb
     RDKit          3D

 25 24  0  0  1  0  0  0  0  0999 V2000
   12.4740  -19.6896   16.6712 N   0  0  0  0  0  0  0  0  0  0  0  0
   12.1319  -21.0922   16.8953 C   0  0  0  0  0  0  0  0  0  0  0  0
   11.7238  -21.2999   18.3090 C   0  0  0  0  0  0  0  0  0  0  0  0
   11.8649  -20.3692   19.1413 O   0  0  0  0  0  0  0  0  0  0  0  0
    6.8778  -22.5234   24.5170 N   0  0  0  0  0  0  0  0  0  0  0  0
    7.8663  -23.5292   24.2513 C   0  0  0  0  0  0  0  0  0  0  0  0
    8.9171  -23.6133   24.9940 N   0  0  0  0  0  0  0  0  0  0  0  0
    7.7305  -24.4502   23.1858 N   0  0  0  0  0  0  0  0  0  0  0  0
    8.0058  -24.0675   21.8171 C   0  0  0  0  0  0  0  0  0  0  0  0
    9.4985  -24.2730   21.6073 C   0  0  0  0  0  0  0  0  0  0  0  0
    9.9265  -23.9506   20.2160 C   0  0  0  0  0  0  0  0  0  0  0  0
   10.7776  -22.7058   20.1862 C   0  0  2  0  0  0  0  0  0  0  0  0
   11.1732  -22.5159   18.7764 N   0  0  0  0  0  0  0  0  0  0  0  0
   11.9967  -22.8502   21.0295 C   0  0  0  0  0  0  0  0  0  0  0  0
   12.9535  -23.5741   20.6796 O   0  0  0  0  0  0  0  0  0  0  0  0
    9.6350  -24.3330   24.7784 N   0  0  0  0  0  0  0  0  0  0  0  0
   16.3401  -20.6037   21.1076 C   0  0  0  0  0  0  0  0  0  0  0  0
   16.6539  -20.8911   22.4406 O   0  0  0  0  0  0  0  0  0  0  0  0
   17.8202  -20.9460   22.8414 C   0  0  0  0  0  0  0  0  0  0  0  0
   15.5305  -21.1391   23.4060 C   0  0  0  0  0  0  0  0  0  0  0  0
   14.2053  -21.0319   22.7370 C   0  0  2  0  0  0  0  0  0  0  0  0
   13.3652  -22.2499   22.9936 N   0  0  0  0  0  0  0  0  0  0  0  0
   12.1028  -22.1609   22.2655 C   0  0  0  0  0  0  0  0  0  0  0  0
   13.1408  -22.4390   24.4309 O   0  0  0  0  0  0  0  0  0  0  0  0
   11.9822  -22.1869   25.1194 O   0  0  0  0  0  0  0  0  0  0  0  0
  1  2  1  0
  2  3  1  0
  3 13  1  0
  4  3  2  0
  5  6  1  0
  6  7  2  0
  6  8  1  0
  8  9  1  0
  9 10  1  0
 12 11  1  6
 11 10  1  0
 12 14  1  0
 13 12  1  0
 14 15  2  0
 16 17  1  0
 17 18  2  0
 17 19  1  0
 19 20  1  0
 21 20  1  6
 21 23  1  0
 22 21  1  0
 22 14  1  0
 23 25  2  0
 23 24  1  0
M  END
$$$$
