GRQ.pdb
     RDKit          3D

 25 24  0  0  1  0  0  0  0  0999 V2000
    7.8859  -32.5585   22.0313 N   0  0  0  0  0  0  0  0  0  0  0  0
    8.4592  -31.9917   23.2498 C   0  0  0  0  0  0  0  0  0  0  0  0
    9.1324  -30.7020   22.9469 C   0  0  0  0  0  0  0  0  0  0  0  0
   10.3216  -30.5200   23.3093 O   0  0  0  0  0  0  0  0  0  0  0  0
    6.4896  -24.7915   17.2844 N   0  0  0  0  0  0  0  0  0  0  0  0
    6.1749  -25.0262   18.6647 C   0  0  0  0  0  0  0  0  0  0  0  0
    5.0012  -24.7407   19.1163 N   0  0  0  0  0  0  0  0  0  0  0  0
    7.1199  -25.5692   19.5668 N   0  0  0  0  0  0  0  0  0  0  0  0
    8.4716  -25.8769   19.1500 C   0  0  0  0  0  0  0  0  0  0  0  0
    9.1550  -26.5145   20.3504 C   0  0  0  0  0  0  0  0  0  0  0  0
    8.4733  -27.7636   20.7952 C   0  0  0  0  0  0  0  0  0  0  0  0
    9.1638  -28.3584   21.9970 C   0  0  2  0  0  0  0  0  0  0  0  0
    8.4909  -29.6467   22.2577 N   0  0  0  0  0  0  0  0  0  0  0  0
    9.0404  -27.4817   23.1947 C   0  0  0  0  0  0  0  0  0  0  0  0
    9.6656  -26.4034   23.2844 O   0  0  0  0  0  0  0  0  0  0  0  0
    4.7845  -24.9208   20.1165 N   0  0  0  0  0  0  0  0  0  0  0  0
    3.9136  -29.2570   26.2128 C   0  0  0  0  0  0  0  0  0  0  0  0
    5.2790  -29.1515   25.9256 O   0  0  0  0  0  0  0  0  0  0  0  0
    6.0783  -30.0494   26.2064 C   0  0  0  0  0  0  0  0  0  0  0  0
    5.7781  -27.9037   25.2552 C   0  0  0  0  0  0  0  0  0  0  0  0
    6.7552  -27.1794   26.1130 C   0  0  2  0  0  0  0  0  0  0  0  0
    8.0320  -26.9043   25.3719 N   0  0  0  0  0  0  0  0  0  0  0  0
    8.1997  -27.8541   24.2757 C   0  0  0  0  0  0  0  0  0  0  0  0
    9.1825  -26.9300   26.2817 O   0  0  0  0  0  0  0  0  0  0  0  0
    9.4051  -26.0933   27.3449 O   0  0  0  0  0  0  0  0  0  0  0  0
  1  2  1  0
  2  3  1  0
  3 13  1  0
  4  3  2  0
  5  6  1  0
  6  7  2  0
  6  8  1  0
  8  9  1  0
  9 10  1  0
 12 11  1  6
 11 10  1  0
 12 14  1  0
 13 12  1  0
 14 15  2  0
 16 17  1  0
 17 18  2  0
 17 19  1  0
 19 20  1  0
 21 20  1  6
 21 23  1  0
 22 21  1  0
 22 14  1  0
 23 25  2  0
 23 24  1  0
M  END
$$$$
