GRQ.pdb
     RDKit          3D

 25 24  0  0  1  0  0  0  0  0999 V2000
    4.3443  -20.9840   23.6226 N   0  0  0  0  0  0  0  0  0  0  0  0
    4.2656  -19.5254   23.6551 C   0  0  0  0  0  0  0  0  0  0  0  0
    5.5761  -18.9337   23.2801 C   0  0  0  0  0  0  0  0  0  0  0  0
    6.5954  -19.6658   23.2185 O   0  0  0  0  0  0  0  0  0  0  0  0
    9.7662  -12.9705   18.8359 N   0  0  0  0  0  0  0  0  0  0  0  0
    8.4716  -12.5643   19.3032 C   0  0  0  0  0  0  0  0  0  0  0  0
    8.1945  -11.3111   19.4276 N   0  0  0  0  0  0  0  0  0  0  0  0
    7.4679  -13.5032   19.6392 N   0  0  0  0  0  0  0  0  0  0  0  0
    7.7596  -14.9176   19.7383 C   0  0  0  0  0  0  0  0  0  0  0  0
    7.9975  -15.2032   21.2134 C   0  0  0  0  0  0  0  0  0  0  0  0
    6.7727  -15.7045   21.9000 C   0  0  0  0  0  0  0  0  0  0  0  0
    7.0564  -16.9830   22.6481 C   0  0  2  0  0  0  0  0  0  0  0  0
    5.7394  -17.5607   22.9827 N   0  0  0  0  0  0  0  0  0  0  0  0
    7.8217  -16.7315   23.9009 C   0  0  0  0  0  0  0  0  0  0  0  0
    7.2938  -16.1835   24.8922 O   0  0  0  0  0  0  0  0  0  0  0  0
    7.2381  -11.0292   19.7201 N   0  0  0  0  0  0  0  0  0  0  0  0
   11.1375  -19.0524   29.4550 C   0  0  0  0  0  0  0  0  0  0  0  0
   10.1448  -18.7979   28.5023 O   0  0  0  0  0  0  0  0  0  0  0  0
    9.1052  -19.4614   28.4470 C   0  0  0  0  0  0  0  0  0  0  0  0
   10.3595  -17.6814   27.5211 C   0  0  0  0  0  0  0  0  0  0  0  0
    9.6190  -17.9226   26.2527 C   0  0  1  0  0  0  0  0  0  0  0  0
    9.8846  -16.8353   25.2515 N   0  0  0  0  0  0  0  0  0  0  0  0
    9.1851  -17.1128   24.0003 C   0  0  0  0  0  0  0  0  0  0  0  0
   11.3251  -16.6652   25.0318 O   0  0  0  0  0  0  0  0  0  0  0  0
   12.0254  -16.9921   23.8993 O   0  0  0  0  0  0  0  0  0  0  0  0
  1  2  1  0
  2  3  1  0
  3 13  1  0
  4  3  2  0
  5  6  1  0
  6  7  2  0
  6  8  1  0
  8  9  1  0
  9 10  1  0
 12 11  1  1
 11 10  1  0
 12 14  1  0
 13 12  1  0
 14 15  2  0
 16 17  1  0
 17 18  2  0
 17 19  1  0
 19 20  1  0
 21 20  1  1
 21 23  1  0
 22 21  1  0
 22 14  1  0
 23 25  2  0
 23 24  1  0
M  END
$$$$
