GRQ.pdb
     RDKit          3D

 25 24  0  0  1  0  0  0  0  0999 V2000
   10.9880  -17.0840   20.0743 N   0  0  0  0  0  0  0  0  0  0  0  0
   11.0870  -18.2211   20.9863 C   0  0  0  0  0  0  0  0  0  0  0  0
   10.3962  -17.9130   22.2654 C   0  0  0  0  0  0  0  0  0  0  0  0
   10.0094  -16.7403   22.4977 O   0  0  0  0  0  0  0  0  0  0  0  0
    5.6389  -23.6511   26.1491 N   0  0  0  0  0  0  0  0  0  0  0  0
    5.8053  -22.3571   26.7469 C   0  0  0  0  0  0  0  0  0  0  0  0
    5.3621  -22.1345   27.9373 N   0  0  0  0  0  0  0  0  0  0  0  0
    6.4492  -21.2956   26.0684 N   0  0  0  0  0  0  0  0  0  0  0  0
    6.8954  -21.4353   24.6984 C   0  0  0  0  0  0  0  0  0  0  0  0
    7.5118  -20.0997   24.3107 C   0  0  0  0  0  0  0  0  0  0  0  0
    8.8203  -19.8607   24.9842 C   0  0  0  0  0  0  0  0  0  0  0  0
    9.4434  -18.5701   24.5140 C   0  0  2  0  0  0  0  0  0  0  0  0
   10.1459  -18.8913   23.2556 N   0  0  0  0  0  0  0  0  0  0  0  0
   10.4180  -18.0344   25.5047 C   0  0  0  0  0  0  0  0  0  0  0  0
   11.6041  -18.4267   25.5349 O   0  0  0  0  0  0  0  0  0  0  0  0
    5.5265  -21.2065   28.3749 N   0  0  0  0  0  0  0  0  0  0  0  0
    9.7375  -12.8622   29.1704 C   0  0  0  0  0  0  0  0  0  0  0  0
    8.9189  -13.4734   28.2142 O   0  0  0  0  0  0  0  0  0  0  0  0
    7.9450  -12.8967   27.7213 C   0  0  0  0  0  0  0  0  0  0  0  0
    9.2429  -14.8743   27.7805 C   0  0  0  0  0  0  0  0  0  0  0  0
   10.7132  -15.0976   27.7178 C   0  0  1  0  0  0  0  0  0  0  0  0
   11.0335  -16.5185   27.3523 N   0  0  0  0  0  0  0  0  0  0  0  0
   10.0185  -17.0536   26.4494 C   0  0  0  0  0  0  0  0  0  0  0  0
   11.1725  -17.3502   28.5527 O   0  0  0  0  0  0  0  0  0  0  0  0
   10.4305  -18.4580   28.8724 O   0  0  0  0  0  0  0  0  0  0  0  0
  1  2  1  0
  2  3  1  0
  3 13  1  0
  4  3  2  0
  5  6  1  0
  6  7  2  0
  6  8  1  0
  8  9  1  0
  9 10  1  0
 12 11  1  1
 11 10  1  0
 12 14  1  0
 13 12  1  0
 14 15  2  0
 16 17  1  0
 17 18  2  0
 17 19  1  0
 19 20  1  0
 21 20  1  6
 21 23  1  0
 22 21  1  0
 22 14  1  0
 23 25  2  0
 23 24  1  0
M  END
$$$$
