GRQ.pdb
     RDKit          3D

 25 24  0  0  1  0  0  0  0  0999 V2000
    4.7452  -20.6098   21.2730 N   0  0  0  0  0  0  0  0  0  0  0  0
    4.3904  -19.4948   22.1479 C   0  0  0  0  0  0  0  0  0  0  0  0
    5.6064  -18.7212   22.5098 C   0  0  0  0  0  0  0  0  0  0  0  0
    6.6728  -19.3278   22.7810 O   0  0  0  0  0  0  0  0  0  0  0  0
    7.9379  -11.9079   19.9082 N   0  0  0  0  0  0  0  0  0  0  0  0
    8.5985  -13.0227   19.2918 C   0  0  0  0  0  0  0  0  0  0  0  0
    9.6898  -12.8404   18.6294 N   0  0  0  0  0  0  0  0  0  0  0  0
    8.0896  -14.3397   19.3841 N   0  0  0  0  0  0  0  0  0  0  0  0
    6.9901  -14.6641   20.2680 C   0  0  0  0  0  0  0  0  0  0  0  0
    7.5623  -14.6727   21.6776 C   0  0  0  0  0  0  0  0  0  0  0  0
    6.5661  -15.1204   22.6926 C   0  0  0  0  0  0  0  0  0  0  0  0
    6.7940  -16.5612   23.0757 C   0  0  2  0  0  0  0  0  0  0  0  0
    5.6266  -17.3081   22.5661 N   0  0  0  0  0  0  0  0  0  0  0  0
    6.8873  -16.7318   24.5524 C   0  0  0  0  0  0  0  0  0  0  0  0
    5.8823  -16.6309   25.2884 O   0  0  0  0  0  0  0  0  0  0  0  0
   10.1318  -13.6477   18.1471 N   0  0  0  0  0  0  0  0  0  0  0  0
    8.2159  -21.2790   27.0670 C   0  0  0  0  0  0  0  0  0  0  0  0
    7.8673  -20.6123   28.2467 O   0  0  0  0  0  0  0  0  0  0  0  0
    7.8959  -21.1709   29.3473 C   0  0  0  0  0  0  0  0  0  0  0  0
    7.4467  -19.1731   28.1616 C   0  0  0  0  0  0  0  0  0  0  0  0
    7.3886  -18.7065   26.7494 C   0  0  1  0  0  0  0  0  0  0  0  0
    8.1315  -17.4136   26.5717 N   0  0  0  0  0  0  0  0  0  0  0  0
    8.1346  -17.0166   25.1667 C   0  0  0  0  0  0  0  0  0  0  0  0
    9.4959  -17.5157   27.1009 O   0  0  0  0  0  0  0  0  0  0  0  0
    9.8604  -17.5739   28.4214 O   0  0  0  0  0  0  0  0  0  0  0  0
  1  2  1  0
  2  3  1  0
  3 13  1  0
  4  3  2  0
  5  6  1  0
  6  7  2  0
  6  8  1  0
  8  9  1  0
  9 10  1  0
 12 11  1  1
 11 10  1  0
 12 14  1  0
 13 12  1  0
 14 15  2  0
 16 17  1  0
 17 18  2  0
 17 19  1  0
 19 20  1  0
 21 20  1  1
 21 23  1  0
 22 21  1  0
 22 14  1  0
 23 25  2  0
 23 24  1  0
M  END
$$$$
