SYN.pdb
     RDKit          3D

 27 27  0  0  1  0  0  0  0  0999 V2000
    8.6151  -15.8889   17.0379 O   0  0  0  0  0  0  0  0  0  0  0  0
    8.0092  -15.7755   18.2850 C   0  0  0  0  0  0  0  0  0  0  0  0
    7.6481  -14.3462   18.6043 C   0  0  2  0  0  0  0  0  0  0  0  0
    8.1219  -13.4782   17.5712 N   0  0  0  0  0  0  0  0  0  0  0  0
    8.1112  -13.9436   19.9576 C   0  0  0  0  0  0  0  0  0  0  0  0
    9.1109  -13.1897   20.1024 O   0  0  0  0  0  0  0  0  0  0  0  0
    7.2182  -12.4078   28.7877 O   0  0  0  0  0  0  0  0  0  0  0  0
    7.0984  -12.7544   27.4413 C   0  0  0  0  0  0  0  0  0  0  0  0
    7.2534  -11.8195   26.4401 C   0  0  0  0  0  0  0  0  0  0  0  0
    7.1326  -12.1745   25.1147 C   0  0  0  0  0  0  0  0  0  0  0  0
    6.8493  -13.4863   24.7116 C   0  0  0  0  0  0  0  0  0  0  0  0
    6.6884  -13.8382   23.2901 C   0  0  0  0  0  0  0  0  0  0  0  0
    7.9526  -13.9615   22.4923 C   0  0  2  0  0  0  0  0  0  0  0  0
    7.4747  -14.3703   21.1480 N   0  0  0  0  0  0  0  0  0  0  0  0
    8.8541  -15.0077   23.0015 C   0  0  0  0  0  0  0  0  0  0  0  0
    9.4921  -14.7778   24.0934 O   0  0  0  0  0  0  0  0  0  0  0  0
    6.6987  -14.4019   25.7257 C   0  0  0  0  0  0  0  0  0  0  0  0
    6.8195  -14.0474   27.0526 C   0  0  0  0  0  0  0  0  0  0  0  0
   11.3332  -17.6103   20.7114 N   0  0  0  0  0  0  0  0  0  0  0  0
   12.0877  -16.9929   21.7499 C   0  0  0  0  0  0  0  0  0  0  0  0
   13.2967  -16.7614   21.5367 O   0  0  0  0  0  0  0  0  0  0  0  0
   11.4246  -16.6628   22.9991 C   0  0  0  0  0  0  0  0  0  0  0  0
    9.9940  -17.1936   23.0225 C   0  0  2  0  0  0  0  0  0  0  0  0
    9.0869  -16.2703   22.3999 N   0  0  0  0  0  0  0  0  0  0  0  0
    9.7040  -17.4941   24.4388 C   0  0  0  0  0  0  0  0  0  0  0  0
   10.1022  -18.5345   24.9864 O   0  0  0  0  0  0  0  0  0  0  0  0
    8.9655  -16.5946   25.1898 O   0  0  0  0  0  0  0  0  0  0  0  0
  2  1  1  0
  2  3  1  0
  3  5  1  0
  3  4  1  6
  5  6  2  0
  7  8  1  0
  8 18  2  0
  8  9  1  0
  9 10  2  0
 10 11  1  0
 11 12  1  0
 13 12  1  1
 14 13  1  0
 14  5  1  0
 15 16  2  0
 15 13  1  0
 17 11  2  0
 18 17  1  0
 19 20  1  0
 20 22  1  0
 20 21  2  0
 23 22  1  1
 23 25  1  0
 23 24  1  0
 24 15  1  0
 25 27  1  0
 26 25  2  0
M  END
$$$$
