SYN.pdb
     RDKit          3D

 27 27  0  0  1  0  0  0  0  0999 V2000
    9.1800  -19.0911   21.9272 O   0  0  0  0  0  0  0  0  0  0  0  0
    9.8682  -18.7784   20.7595 C   0  0  0  0  0  0  0  0  0  0  0  0
    9.6462  -17.3451   20.3452 C   0  0  2  0  0  0  0  0  0  0  0  0
   10.5538  -16.9911   19.2982 N   0  0  0  0  0  0  0  0  0  0  0  0
    9.7051  -16.4151   21.5027 C   0  0  0  0  0  0  0  0  0  0  0  0
   10.7979  -15.9045   21.8683 O   0  0  0  0  0  0  0  0  0  0  0  0
    6.3153  -10.9289   27.7940 O   0  0  0  0  0  0  0  0  0  0  0  0
    6.5257  -11.8355   26.7542 C   0  0  0  0  0  0  0  0  0  0  0  0
    5.9911  -13.1058   26.7866 C   0  0  0  0  0  0  0  0  0  0  0  0
    6.2063  -13.9913   25.7538 C   0  0  0  0  0  0  0  0  0  0  0  0
    6.9694  -13.6590   24.6265 C   0  0  0  0  0  0  0  0  0  0  0  0
    7.2178  -14.6328   23.5492 C   0  0  0  0  0  0  0  0  0  0  0  0
    8.6353  -15.0973   23.3919 C   0  0  2  0  0  0  0  0  0  0  0  0
    8.5632  -16.0486   22.2550 N   0  0  0  0  0  0  0  0  0  0  0  0
    9.1372  -15.8216   24.5709 C   0  0  0  0  0  0  0  0  0  0  0  0
    9.4160  -15.1414   25.6254 O   0  0  0  0  0  0  0  0  0  0  0  0
    7.4928  -12.3880   24.6149 C   0  0  0  0  0  0  0  0  0  0  0  0
    7.2779  -11.5009   25.6483 C   0  0  0  0  0  0  0  0  0  0  0  0
    6.8807  -19.3390   25.2827 N   0  0  0  0  0  0  0  0  0  0  0  0
    7.7533  -19.0180   26.3618 C   0  0  0  0  0  0  0  0  0  0  0  0
    7.2408  -18.6396   27.4364 O   0  0  0  0  0  0  0  0  0  0  0  0
    9.1870  -19.1433   26.1670 C   0  0  0  0  0  0  0  0  0  0  0  0
    9.8280  -17.7863   25.8903 C   0  0  2  0  0  0  0  0  0  0  0  0
    9.3403  -17.2218   24.6629 N   0  0  0  0  0  0  0  0  0  0  0  0
   11.2856  -18.0180   25.9347 C   0  0  0  0  0  0  0  0  0  0  0  0
   11.9500  -18.2330   24.9084 O   0  0  0  0  0  0  0  0  0  0  0  0
   11.9431  -17.9971   27.1536 O   0  0  0  0  0  0  0  0  0  0  0  0
  2  1  1  0
  2  3  1  0
  3  5  1  0
  3  4  1  6
  5  6  2  0
  7  8  1  0
  8 18  2  0
  8  9  1  0
  9 10  2  0
 10 11  1  0
 11 12  1  0
 13 12  1  1
 14 13  1  0
 14  5  1  0
 15 16  2  0
 15 13  1  0
 17 11  2  0
 18 17  1  0
 19 20  1  0
 20 22  1  0
 20 21  2  0
 23 22  1  6
 23 25  1  0
 23 24  1  0
 24 15  1  0
 25 27  1  0
 26 25  2  0
M  END
$$$$
