SYN.pdb
     RDKit          3D

 27 27  0  0  1  0  0  0  0  0999 V2000
    9.1880  -16.7427   18.2938 O   0  0  0  0  0  0  0  0  0  0  0  0
   10.3632  -16.8230   19.0338 C   0  0  0  0  0  0  0  0  0  0  0  0
   10.1350  -17.4652   20.3794 C   0  0  2  0  0  0  0  0  0  0  0  0
    8.9858  -18.3149   20.3286 N   0  0  0  0  0  0  0  0  0  0  0  0
   10.0654  -16.4603   21.4719 C   0  0  0  0  0  0  0  0  0  0  0  0
   11.0385  -15.6962   21.7120 O   0  0  0  0  0  0  0  0  0  0  0  0
    5.9013  -11.2319   27.4930 O   0  0  0  0  0  0  0  0  0  0  0  0
    6.2649  -12.1119   26.4729 C   0  0  0  0  0  0  0  0  0  0  0  0
    5.9146  -13.4446   26.5120 C   0  0  0  0  0  0  0  0  0  0  0  0
    6.2798  -14.3030   25.4985 C   0  0  0  0  0  0  0  0  0  0  0  0
    7.0174  -13.8792   24.3850 C   0  0  0  0  0  0  0  0  0  0  0  0
    7.4291  -14.8207   23.3293 C   0  0  0  0  0  0  0  0  0  0  0  0
    8.8610  -15.2663   23.3623 C   0  0  2  0  0  0  0  0  0  0  0  0
    8.9268  -16.2979   22.2974 N   0  0  0  0  0  0  0  0  0  0  0  0
    9.2387  -15.8936   24.6391 C   0  0  0  0  0  0  0  0  0  0  0  0
    9.4701  -15.1271   25.6448 O   0  0  0  0  0  0  0  0  0  0  0  0
    7.3559  -12.5472   24.3663 C   0  0  0  0  0  0  0  0  0  0  0  0
    6.9908  -11.6873   25.3804 C   0  0  0  0  0  0  0  0  0  0  0  0
    6.8979  -19.3042   25.2708 N   0  0  0  0  0  0  0  0  0  0  0  0
    7.5490  -18.7930   26.4299 C   0  0  0  0  0  0  0  0  0  0  0  0
    6.8536  -18.1876   27.2729 O   0  0  0  0  0  0  0  0  0  0  0  0
    8.9792  -18.9962   26.5794 C   0  0  0  0  0  0  0  0  0  0  0  0
    9.7597  -17.7476   26.1783 C   0  0  2  0  0  0  0  0  0  0  0  0
    9.3674  -17.2855   24.8762 N   0  0  0  0  0  0  0  0  0  0  0  0
   11.1852  -18.1104   26.3082 C   0  0  0  0  0  0  0  0  0  0  0  0
   11.9802  -18.0071   25.3605 O   0  0  0  0  0  0  0  0  0  0  0  0
   11.6617  -18.5817   27.5204 O   0  0  0  0  0  0  0  0  0  0  0  0
  2  1  1  0
  2  3  1  0
  3  5  1  0
  3  4  1  6
  5  6  2  0
  7  8  1  0
  8 18  2  0
  8  9  1  0
  9 10  2  0
 10 11  1  0
 11 12  1  0
 13 12  1  1
 14 13  1  0
 14  5  1  0
 15 16  2  0
 15 13  1  0
 17 11  2  0
 18 17  1  0
 19 20  1  0
 20 22  1  0
 20 21  2  0
 23 22  1  6
 23 25  1  0
 23 24  1  0
 24 15  1  0
 25 27  1  0
 26 25  2  0
M  END
$$$$
