SYN.pdb
     RDKit          3D

 27 27  0  0  1  0  0  0  0  0999 V2000
    8.6731  -19.4290   18.9324 O   0  0  0  0  0  0  0  0  0  0  0  0
    9.4622  -18.5863   19.7084 C   0  0  0  0  0  0  0  0  0  0  0  0
    9.1879  -17.1328   19.4129 C   0  0  2  0  0  0  0  0  0  0  0  0
    9.9744  -16.7020   18.2989 N   0  0  0  0  0  0  0  0  0  0  0  0
    9.3662  -16.2766   20.6143 C   0  0  0  0  0  0  0  0  0  0  0  0
   10.4912  -15.7839   20.8972 O   0  0  0  0  0  0  0  0  0  0  0  0
    6.6695  -11.8843   28.0176 O   0  0  0  0  0  0  0  0  0  0  0  0
    6.7769  -12.5561   26.7992 C   0  0  0  0  0  0  0  0  0  0  0  0
    6.3378  -13.8544   26.6511 C   0  0  0  0  0  0  0  0  0  0  0  0
    6.4496  -14.5065   25.4430 C   0  0  0  0  0  0  0  0  0  0  0  0
    7.0075  -13.8985   24.3105 C   0  0  0  0  0  0  0  0  0  0  0  0
    7.1509  -14.6253   23.0371 C   0  0  0  0  0  0  0  0  0  0  0  0
    8.5174  -15.1649   22.7341 C   0  0  2  0  0  0  0  0  0  0  0  0
    8.3079  -15.9643   21.5013 N   0  0  0  0  0  0  0  0  0  0  0  0
    9.0284  -16.0595   23.7852 C   0  0  0  0  0  0  0  0  0  0  0  0
    8.5547  -17.2529   23.8471 O   0  0  0  0  0  0  0  0  0  0  0  0
    7.4386  -12.6044   24.4804 C   0  0  0  0  0  0  0  0  0  0  0  0
    7.3271  -11.9509   25.6893 C   0  0  0  0  0  0  0  0  0  0  0  0
   12.5998  -17.3583   23.1369 N   0  0  0  0  0  0  0  0  0  0  0  0
   12.1634  -17.9201   24.3709 C   0  0  0  0  0  0  0  0  0  0  0  0
   11.9923  -19.1565   24.4232 O   0  0  0  0  0  0  0  0  0  0  0  0
   11.9388  -17.0391   25.5034 C   0  0  0  0  0  0  0  0  0  0  0  0
   10.4541  -16.7338   25.6802 C   0  0  2  0  0  0  0  0  0  0  0  0
   10.0151  -15.7320   24.7493 N   0  0  0  0  0  0  0  0  0  0  0  0
   10.2874  -16.3786   27.1037 C   0  0  0  0  0  0  0  0  0  0  0  0
    9.8368  -15.2781   27.4596 O   0  0  0  0  0  0  0  0  0  0  0  0
   10.6413  -17.2937   28.0814 O   0  0  0  0  0  0  0  0  0  0  0  0
  2  1  1  0
  2  3  1  0
  3  5  1  0
  3  4  1  6
  5  6  2  0
  7  8  1  0
  8 18  2  0
  8  9  1  0
  9 10  2  0
 10 11  1  0
 11 12  1  0
 13 12  1  1
 14 13  1  0
 14  5  1  0
 15 16  2  0
 15 13  1  0
 17 11  2  0
 18 17  1  0
 19 20  1  0
 20 22  1  0
 20 21  2  0
 23 22  1  1
 23 25  1  0
 23 24  1  0
 24 15  1  0
 25 27  1  0
 26 25  2  0
M  END
$$$$
