SYN.pdb
     RDKit          3D

 27 27  0  0  1  0  0  0  0  0999 V2000
    7.8449  -18.8427   20.6981 O   0  0  0  0  0  0  0  0  0  0  0  0
    8.5928  -18.4412   19.5961 C   0  0  0  0  0  0  0  0  0  0  0  0
    8.6338  -16.9391   19.4642 C   0  0  2  0  0  0  0  0  0  0  0  0
    9.4707  -16.5659   18.3663 N   0  0  0  0  0  0  0  0  0  0  0  0
    9.0195  -16.2783   20.7381 C   0  0  0  0  0  0  0  0  0  0  0  0
   10.2297  -16.1798   21.0761 O   0  0  0  0  0  0  0  0  0  0  0  0
    7.4779  -11.5468   28.3017 O   0  0  0  0  0  0  0  0  0  0  0  0
    7.4158  -12.2325   27.0879 C   0  0  0  0  0  0  0  0  0  0  0  0
    6.3836  -12.0288   26.1972 C   0  0  0  0  0  0  0  0  0  0  0  0
    6.3340  -12.7121   25.0023 C   0  0  0  0  0  0  0  0  0  0  0  0
    7.3142  -13.6404   24.6270 C   0  0  0  0  0  0  0  0  0  0  0  0
    7.2238  -14.3875   23.3604 C   0  0  0  0  0  0  0  0  0  0  0  0
    8.4763  -15.0791   22.9099 C   0  0  2  0  0  0  0  0  0  0  0  0
    8.0745  -15.7275   21.6368 N   0  0  0  0  0  0  0  0  0  0  0  0
    8.9221  -16.1266   23.8428 C   0  0  0  0  0  0  0  0  0  0  0  0
    8.0648  -17.0080   24.2174 O   0  0  0  0  0  0  0  0  0  0  0  0
    8.3338  -13.8281   25.5295 C   0  0  0  0  0  0  0  0  0  0  0  0
    8.3843  -13.1445   26.7258 C   0  0  0  0  0  0  0  0  0  0  0  0
   12.0248  -18.6450   22.8579 N   0  0  0  0  0  0  0  0  0  0  0  0
   12.4272  -17.6806   23.8259 C   0  0  0  0  0  0  0  0  0  0  0  0
   13.1856  -16.7599   23.4546 O   0  0  0  0  0  0  0  0  0  0  0  0
   11.9427  -17.8088   25.1889 C   0  0  0  0  0  0  0  0  0  0  0  0
   10.5026  -17.3190   25.3120 C   0  0  2  0  0  0  0  0  0  0  0  0
   10.2296  -16.2668   24.3731 N   0  0  0  0  0  0  0  0  0  0  0  0
   10.3275  -16.9499   26.7310 C   0  0  0  0  0  0  0  0  0  0  0  0
   10.4469  -17.7791   27.6469 O   0  0  0  0  0  0  0  0  0  0  0  0
   10.0204  -15.6406   27.0627 O   0  0  0  0  0  0  0  0  0  0  0  0
  2  1  1  0
  2  3  1  0
  3  5  1  0
  3  4  1  6
  5  6  2  0
  7  8  1  0
  8 18  2  0
  8  9  1  0
  9 10  2  0
 10 11  1  0
 11 12  1  0
 13 12  1  1
 14 13  1  0
 14  5  1  0
 15 16  2  0
 15 13  1  0
 17 11  2  0
 18 17  1  0
 19 20  1  0
 20 22  1  0
 20 21  2  0
 23 22  1  1
 23 25  1  0
 23 24  1  0
 24 15  1  0
 25 27  1  0
 26 25  2  0
M  END
$$$$
