SYN.pdb
     RDKit          3D

 27 27  0  0  1  0  0  0  0  0999 V2000
    8.8214  -19.0110   21.7766 O   0  0  0  0  0  0  0  0  0  0  0  0
    9.4898  -18.7706   20.5805 C   0  0  0  0  0  0  0  0  0  0  0  0
    9.3118  -17.3467   20.1159 C   0  0  2  0  0  0  0  0  0  0  0  0
   10.1875  -17.0760   19.0181 N   0  0  0  0  0  0  0  0  0  0  0  0
    9.4606  -16.3743   21.2297 C   0  0  0  0  0  0  0  0  0  0  0  0
   10.5740  -15.8376   21.4764 O   0  0  0  0  0  0  0  0  0  0  0  0
    6.6104  -11.0728   27.9443 O   0  0  0  0  0  0  0  0  0  0  0  0
    6.7398  -11.9154   26.8394 C   0  0  0  0  0  0  0  0  0  0  0  0
    6.1375  -13.1549   26.8041 C   0  0  0  0  0  0  0  0  0  0  0  0
    6.2729  -13.9772   25.7075 C   0  0  0  0  0  0  0  0  0  0  0  0
    7.0191  -13.6086   24.5802 C   0  0  0  0  0  0  0  0  0  0  0  0
    7.1815  -14.5174   23.4321 C   0  0  0  0  0  0  0  0  0  0  0  0
    8.5622  -15.0590   23.2078 C   0  0  2  0  0  0  0  0  0  0  0  0
    8.3858  -15.9945   22.0692 N   0  0  0  0  0  0  0  0  0  0  0  0
    9.0751  -15.8206   24.3581 C   0  0  0  0  0  0  0  0  0  0  0  0
    9.3946  -15.1708   25.4201 O   0  0  0  0  0  0  0  0  0  0  0  0
    7.6109  -12.3692   24.6366 C   0  0  0  0  0  0  0  0  0  0  0  0
    7.4758  -11.5454   25.7339 C   0  0  0  0  0  0  0  0  0  0  0  0
    7.1302  -17.8337   26.4477 N   0  0  0  0  0  0  0  0  0  0  0  0
    7.6969  -19.1218   26.2274 C   0  0  0  0  0  0  0  0  0  0  0  0
    6.9635  -20.1198   26.3916 O   0  0  0  0  0  0  0  0  0  0  0  0
    9.0891  -19.2175   25.8253 C   0  0  0  0  0  0  0  0  0  0  0  0
    9.7051  -17.8346   25.6330 C   0  0  2  0  0  0  0  0  0  0  0  0
    9.2477  -17.2268   24.4146 N   0  0  0  0  0  0  0  0  0  0  0  0
   11.1656  -18.0335   25.7208 C   0  0  0  0  0  0  0  0  0  0  0  0
   11.9303  -17.7176   24.7954 O   0  0  0  0  0  0  0  0  0  0  0  0
   11.7109  -18.5890   26.8665 O   0  0  0  0  0  0  0  0  0  0  0  0
  2  1  1  0
  2  3  1  0
  3  5  1  0
  3  4  1  6
  5  6  2  0
  7  8  1  0
  8 18  2  0
  8  9  1  0
  9 10  2  0
 10 11  1  0
 11 12  1  0
 13 12  1  1
 14 13  1  0
 14  5  1  0
 15 16  2  0
 15 13  1  0
 17 11  2  0
 18 17  1  0
 19 20  1  0
 20 22  1  0
 20 21  2  0
 23 22  1  6
 23 25  1  0
 23 24  1  0
 24 15  1  0
 25 27  1  0
 26 25  2  0
M  END
$$$$
