SYN.pdb
     RDKit          3D

 27 27  0  0  1  0  0  0  0  0999 V2000
    7.6496  -18.6200   20.2229 O   0  0  0  0  0  0  0  0  0  0  0  0
    8.6285  -18.3263   19.2791 C   0  0  0  0  0  0  0  0  0  0  0  0
    8.8455  -16.8401   19.1411 C   0  0  2  0  0  0  0  0  0  0  0  0
    9.8690  -16.5815   18.1763 N   0  0  0  0  0  0  0  0  0  0  0  0
    9.1069  -16.1910   20.4520 C   0  0  0  0  0  0  0  0  0  0  0  0
   10.2615  -16.1941   20.9574 O   0  0  0  0  0  0  0  0  0  0  0  0
    6.7553  -11.8922   28.0280 O   0  0  0  0  0  0  0  0  0  0  0  0
    6.8610  -12.4100   26.7364 C   0  0  0  0  0  0  0  0  0  0  0  0
    6.2164  -13.5725   26.3712 C   0  0  0  0  0  0  0  0  0  0  0  0
    6.3289  -14.0733   25.0930 C   0  0  0  0  0  0  0  0  0  0  0  0
    7.0932  -13.4407   24.1034 C   0  0  0  0  0  0  0  0  0  0  0  0
    7.2298  -14.0118   22.7523 C   0  0  0  0  0  0  0  0  0  0  0  0
    8.3533  -14.9864   22.5570 C   0  0  2  0  0  0  0  0  0  0  0  0
    8.0990  -15.5404   21.2038 N   0  0  0  0  0  0  0  0  0  0  0  0
    8.3270  -16.0955   23.5242 C   0  0  0  0  0  0  0  0  0  0  0  0
    7.7153  -17.1755   23.1900 O   0  0  0  0  0  0  0  0  0  0  0  0
    7.7271  -12.2836   24.4890 C   0  0  0  0  0  0  0  0  0  0  0  0
    7.6151  -11.7817   25.7682 C   0  0  0  0  0  0  0  0  0  0  0  0
   12.7406  -18.9274   24.8998 N   0  0  0  0  0  0  0  0  0  0  0  0
   11.3212  -18.9451   24.7820 C   0  0  0  0  0  0  0  0  0  0  0  0
   10.7199  -19.9906   25.1078 O   0  0  0  0  0  0  0  0  0  0  0  0
   10.6419  -17.7583   24.2929 C   0  0  0  0  0  0  0  0  0  0  0  0
    9.5849  -17.2787   25.2837 C   0  0  2  0  0  0  0  0  0  0  0  0
    8.9272  -16.0935   24.8088 N   0  0  0  0  0  0  0  0  0  0  0  0
   10.2876  -17.1279   26.5736 C   0  0  0  0  0  0  0  0  0  0  0  0
   10.8718  -16.0783   26.8868 O   0  0  0  0  0  0  0  0  0  0  0  0
   10.3024  -18.1836   27.4703 O   0  0  0  0  0  0  0  0  0  0  0  0
  2  1  1  0
  2  3  1  0
  3  5  1  0
  3  4  1  6
  5  6  2  0
  7  8  1  0
  8 18  2  0
  8  9  1  0
  9 10  2  0
 10 11  1  0
 11 12  1  0
 13 12  1  1
 14 13  1  0
 14  5  1  0
 15 16  2  0
 15 13  1  0
 17 11  2  0
 18 17  1  0
 19 20  1  0
 20 22  1  0
 20 21  2  0
 23 22  1  6
 23 25  1  0
 23 24  1  0
 24 15  1  0
 25 27  1  0
 26 25  2  0
M  END
$$$$
