SYN.pdb
     RDKit          3D

 27 27  0  0  1  0  0  0  0  0999 V2000
    8.6331  -20.8232   19.7006 O   0  0  0  0  0  0  0  0  0  0  0  0
    8.5360  -19.8031   20.6414 C   0  0  0  0  0  0  0  0  0  0  0  0
    8.6878  -18.4420   20.0093 C   0  0  2  0  0  0  0  0  0  0  0  0
    9.4475  -18.5440   18.8019 N   0  0  0  0  0  0  0  0  0  0  0  0
    9.2425  -17.4445   20.9608 C   0  0  0  0  0  0  0  0  0  0  0  0
   10.4500  -17.0890   20.8957 O   0  0  0  0  0  0  0  0  0  0  0  0
    7.4749  -12.0777   17.7877 O   0  0  0  0  0  0  0  0  0  0  0  0
    7.5975  -12.7124   19.0245 C   0  0  0  0  0  0  0  0  0  0  0  0
    8.6321  -12.4173   19.8864 C   0  0  0  0  0  0  0  0  0  0  0  0
    8.7418  -13.0509   21.1044 C   0  0  0  0  0  0  0  0  0  0  0  0
    7.8228  -14.0179   21.5332 C   0  0  0  0  0  0  0  0  0  0  0  0
    7.9781  -14.7101   22.8244 C   0  0  0  0  0  0  0  0  0  0  0  0
    9.0179  -15.7901   22.8746 C   0  0  2  0  0  0  0  0  0  0  0  0
    8.4689  -16.8403   21.9810 N   0  0  0  0  0  0  0  0  0  0  0  0
    9.1842  -16.3661   24.2188 C   0  0  0  0  0  0  0  0  0  0  0  0
    8.1433  -16.8360   24.8089 O   0  0  0  0  0  0  0  0  0  0  0  0
    6.7995  -14.2966   20.6587 C   0  0  0  0  0  0  0  0  0  0  0  0
    6.6890  -13.6629   19.4392 C   0  0  0  0  0  0  0  0  0  0  0  0
   10.0979  -20.6428   26.3298 N   0  0  0  0  0  0  0  0  0  0  0  0
   11.0165  -20.1082   25.3815 C   0  0  0  0  0  0  0  0  0  0  0  0
   12.0850  -20.7263   25.1889 O   0  0  0  0  0  0  0  0  0  0  0  0
   10.6740  -18.8796   24.6870 C   0  0  0  0  0  0  0  0  0  0  0  0
   10.7205  -17.6804   25.6297 C   0  0  2  0  0  0  0  0  0  0  0  0
   10.4025  -16.4627   24.9376 N   0  0  0  0  0  0  0  0  0  0  0  0
   12.0598  -17.7137   26.2505 C   0  0  0  0  0  0  0  0  0  0  0  0
   12.2743  -18.3008   27.3230 O   0  0  0  0  0  0  0  0  0  0  0  0
   13.1176  -17.0736   25.6261 O   0  0  0  0  0  0  0  0  0  0  0  0
  2  1  1  0
  2  3  1  0
  3  5  1  0
  3  4  1  6
  5  6  2  0
  7  8  1  0
  8 18  2  0
  8  9  1  0
  9 10  2  0
 10 11  1  0
 11 12  1  0
 13 12  1  1
 14 13  1  0
 14  5  1  0
 15 16  2  0
 15 13  1  0
 17 11  2  0
 18 17  1  0
 19 20  1  0
 20 22  1  0
 20 21  2  0
 23 22  1  6
 23 25  1  0
 23 24  1  0
 24 15  1  0
 25 27  1  0
 26 25  2  0
M  END
$$$$
