SYN.pdb
     RDKit          3D

 27 27  0  0  1  0  0  0  0  0999 V2000
   10.5745  -20.4975   20.3272 O   0  0  0  0  0  0  0  0  0  0  0  0
    9.3219  -19.9534   20.0624 C   0  0  0  0  0  0  0  0  0  0  0  0
    9.4178  -18.7229   19.1953 C   0  0  2  0  0  0  0  0  0  0  0  0
   10.0004  -19.0569   17.9327 N   0  0  0  0  0  0  0  0  0  0  0  0
   10.1227  -17.6102   19.8830 C   0  0  0  0  0  0  0  0  0  0  0  0
   11.2595  -17.2267   19.4967 O   0  0  0  0  0  0  0  0  0  0  0  0
    6.2760  -12.0238   18.3537 O   0  0  0  0  0  0  0  0  0  0  0  0
    7.0032  -12.7506   19.2973 C   0  0  0  0  0  0  0  0  0  0  0  0
    6.4232  -13.7654   20.0282 C   0  0  0  0  0  0  0  0  0  0  0  0
    7.1520  -14.4754   20.9566 C   0  0  0  0  0  0  0  0  0  0  0  0
    8.5049  -14.2125   21.2095 C   0  0  0  0  0  0  0  0  0  0  0  0
    9.2573  -14.9593   22.2326 C   0  0  0  0  0  0  0  0  0  0  0  0
   10.3318  -15.8751   21.7258 C   0  0  2  0  0  0  0  0  0  0  0  0
    9.5768  -16.9219   20.9932 N   0  0  0  0  0  0  0  0  0  0  0  0
   11.0920  -16.5230   22.8068 C   0  0  0  0  0  0  0  0  0  0  0  0
   10.4414  -17.2119   23.6754 O   0  0  0  0  0  0  0  0  0  0  0  0
    9.0630  -13.1970   20.4700 C   0  0  0  0  0  0  0  0  0  0  0  0
    8.3342  -12.4859   19.5404 C   0  0  0  0  0  0  0  0  0  0  0  0
   11.3164  -19.2138   24.4621 N   0  0  0  0  0  0  0  0  0  0  0  0
   12.5041  -19.6133   23.7849 C   0  0  0  0  0  0  0  0  0  0  0  0
   12.6108  -20.8116   23.4480 O   0  0  0  0  0  0  0  0  0  0  0  0
   13.5290  -18.6195   23.5185 C   0  0  0  0  0  0  0  0  0  0  0  0
   13.1097  -17.2431   24.0270 C   0  0  2  0  0  0  0  0  0  0  0  0
   12.4977  -16.4680   22.9840 N   0  0  0  0  0  0  0  0  0  0  0  0
   14.3268  -16.6479   24.6142 C   0  0  0  0  0  0  0  0  0  0  0  0
   14.8708  -17.1224   25.6241 O   0  0  0  0  0  0  0  0  0  0  0  0
   14.8881  -15.5250   24.0289 O   0  0  0  0  0  0  0  0  0  0  0  0
  2  1  1  0
  2  3  1  0
  3  5  1  0
  3  4  1  6
  5  6  2  0
  7  8  1  0
  8 18  2  0
  8  9  1  0
  9 10  2  0
 10 11  1  0
 11 12  1  0
 13 12  1  1
 14 13  1  0
 14  5  1  0
 15 16  2  0
 15 13  1  0
 17 11  2  0
 18 17  1  0
 19 20  1  0
 20 22  1  0
 20 21  2  0
 23 22  1  6
 23 25  1  0
 23 24  1  0
 24 15  1  0
 25 27  1  0
 26 25  2  0
M  END
$$$$
