QTW.pdb
     RDKit          3D

 31 32  0  0  1  0  0  0  0  0999 V2000
   26.9963  -19.2120  -18.7008 N   0  0  0  0  0  0  0  0  0  0  0  0
   27.8214  -18.5655  -17.7266 C   0  0  0  0  0  0  0  0  0  0  0  0
   28.6362  -17.7301  -18.1956 O   0  0  0  0  0  0  0  0  0  0  0  0
   27.6815  -18.8980  -16.3198 C   0  0  0  0  0  0  0  0  0  0  0  0
   26.6485  -19.9128  -15.9488 C   0  0  0  0  0  0  0  0  0  0  0  0
   27.2324  -21.0155  -15.1415 C   0  0  2  0  0  0  0  0  0  0  0  0
   27.7589  -22.0377  -16.0011 N   0  0  0  0  0  0  0  0  0  0  0  0
   26.2289  -21.6038  -14.1896 C   0  0  0  0  0  0  0  0  0  0  0  0
   25.7948  -22.7494  -14.4300 O   0  0  0  0  0  0  0  0  0  0  0  0
   26.8325  -21.3490  -10.4836 C   0  0  0  0  0  0  0  0  0  0  0  0
   25.3870  -21.0048  -10.6708 C   0  0  1  0  0  0  0  0  0  0  0  0
   25.2551  -19.6242  -10.5164 O   0  0  0  0  0  0  0  0  0  0  0  0
   24.8852  -21.4452  -12.0521 C   0  0  2  0  0  0  0  0  0  0  0  0
   25.7659  -20.9186  -13.0485 N   0  0  0  0  0  0  0  0  0  0  0  0
   23.4856  -21.0012  -12.2111 C   0  0  0  0  0  0  0  0  0  0  0  0
   22.5665  -21.3744  -11.4380 O   0  0  0  0  0  0  0  0  0  0  0  0
   23.0695  -20.1188  -13.2466 N   0  0  0  0  0  0  0  0  0  0  0  0
   21.7176  -19.6918  -13.4701 C   0  0  1  0  0  0  0  0  0  0  0  0
   21.5232  -18.2407  -13.6058 C   0  0  0  0  0  0  0  0  0  0  0  0
   20.0883  -17.9386  -13.7936 C   0  0  0  0  0  0  0  0  0  0  0  0
   19.0115  -18.0653  -12.9436 C   0  0  0  0  0  0  0  0  0  0  0  0
   17.8692  -17.6847  -13.5419 N   0  0  0  0  0  0  0  0  0  0  0  0
   18.1492  -17.2977  -14.7938 C   0  0  0  0  0  0  0  0  0  0  0  0
   17.3251  -16.8252  -15.8076 C   0  0  0  0  0  0  0  0  0  0  0  0
   17.8927  -16.5004  -17.0134 C   0  0  0  0  0  0  0  0  0  0  0  0
   19.2463  -16.6434  -17.2022 C   0  0  0  0  0  0  0  0  0  0  0  0
   20.0640  -17.1166  -16.1830 C   0  0  0  0  0  0  0  0  0  0  0  0
   19.5084  -17.4445  -14.9736 C   0  0  0  0  0  0  0  0  0  0  0  0
   21.2060  -20.3713  -14.6834 C   0  0  0  0  0  0  0  0  0  0  0  0
   22.0135  -20.4363  -15.8035 O   0  0  0  0  0  0  0  0  0  0  0  0
   20.0799  -20.8713  -14.6957 O   0  0  0  0  0  0  0  0  0  0  0  0
  2  1  1  0
  3  2  2  0
  4  2  1  0
  5  6  1  0
  5  4  1  0
  6  8  1  0
  6  7  1  6
  8  9  2  0
 11 13  1  0
 11 10  1  6
 12 11  1  0
 13 15  1  0
 14  8  1  0
 13 14  1  6
 15 16  2  0
 17 18  1  0
 17 15  1  0
 18 29  1  0
 18 19  1  6
 20 19  1  0
 20 21  2  0
 22 21  1  0
 23 22  1  0
 24 23  2  0
 25 24  1  0
 26 25  2  0
 26 27  1  0
 27 28  2  0
 28 23  1  0
 28 20  1  0
 29 30  1  0
 31 29  2  0
M  END
$$$$
