QTW.pdb
     RDKit          3D

 31 32  0  0  1  0  0  0  0  0999 V2000
   27.3696  -23.7409  -19.3269 N   0  0  0  0  0  0  0  0  0  0  0  0
   27.9411  -23.5081  -18.0358 C   0  0  0  0  0  0  0  0  0  0  0  0
   27.2029  -23.8224  -17.0673 O   0  0  0  0  0  0  0  0  0  0  0  0
   29.2748  -22.9448  -17.9220 C   0  0  0  0  0  0  0  0  0  0  0  0
   29.5285  -21.9901  -16.8000 C   0  0  0  0  0  0  0  0  0  0  0  0
   28.6223  -20.8143  -16.8689 C   0  0  2  0  0  0  0  0  0  0  0  0
   29.0656  -19.9023  -17.8852 N   0  0  0  0  0  0  0  0  0  0  0  0
   28.5209  -20.1080  -15.5460 C   0  0  0  0  0  0  0  0  0  0  0  0
   29.0941  -19.0056  -15.4250 O   0  0  0  0  0  0  0  0  0  0  0  0
   27.4496  -17.7771  -14.4707 C   0  0  0  0  0  0  0  0  0  0  0  0
   26.6916  -18.6964  -13.5634 C   0  0  1  0  0  0  0  0  0  0  0  0
   25.5017  -19.0416  -14.2053 O   0  0  0  0  0  0  0  0  0  0  0  0
   27.5112  -19.9503  -13.2319 C   0  0  2  0  0  0  0  0  0  0  0  0
   27.8101  -20.6373  -14.4504 N   0  0  0  0  0  0  0  0  0  0  0  0
   26.7523  -20.7703  -12.2660 C   0  0  0  0  0  0  0  0  0  0  0  0
   25.8755  -21.5976  -12.6242 O   0  0  0  0  0  0  0  0  0  0  0  0
   26.9544  -20.6898  -10.8600 N   0  0  0  0  0  0  0  0  0  0  0  0
   26.3204  -21.5342   -9.8879 C   0  0  1  0  0  0  0  0  0  0  0  0
   27.1080  -21.8135   -8.6780 C   0  0  0  0  0  0  0  0  0  0  0  0
   27.1588  -20.6110   -7.8196 C   0  0  0  0  0  0  0  0  0  0  0  0
   26.6445  -19.3447   -7.9936 C   0  0  0  0  0  0  0  0  0  0  0  0
   26.9476  -18.5472   -6.9545 N   0  0  0  0  0  0  0  0  0  0  0  0
   27.6645  -19.2515   -6.0682 C   0  0  0  0  0  0  0  0  0  0  0  0
   28.2137  -18.8875   -4.8451 C   0  0  0  0  0  0  0  0  0  0  0  0
   28.9149  -19.8301   -4.1369 C   0  0  0  0  0  0  0  0  0  0  0  0
   29.0638  -21.1016   -4.6360 C   0  0  0  0  0  0  0  0  0  0  0  0
   28.5112  -21.4581   -5.8603 C   0  0  0  0  0  0  0  0  0  0  0  0
   27.8083  -20.5249   -6.5773 C   0  0  0  0  0  0  0  0  0  0  0  0
   25.0297  -20.9174   -9.5020 C   0  0  0  0  0  0  0  0  0  0  0  0
   24.1340  -21.6558   -8.7514 O   0  0  0  0  0  0  0  0  0  0  0  0
   24.7574  -19.7651   -9.8431 O   0  0  0  0  0  0  0  0  0  0  0  0
  2  1  1  0
  3  2  2  0
  4  2  1  0
  5  6  1  0
  5  4  1  0
  6  8  1  0
  6  7  1  6
  8  9  2  0
 11 13  1  0
 11 10  1  6
 12 11  1  0
 13 15  1  0
 14  8  1  0
 13 14  1  6
 15 16  2  0
 17 18  1  0
 17 15  1  0
 18 29  1  0
 18 19  1  1
 20 19  1  0
 20 21  2  0
 22 21  1  0
 23 22  1  0
 24 23  2  0
 25 24  1  0
 26 25  2  0
 26 27  1  0
 27 28  2  0
 28 23  1  0
 28 20  1  0
 29 30  1  0
 31 29  2  0
M  END
$$$$
