QTW.pdb
     RDKit          3D

 31 32  0  0  1  0  0  0  0  0999 V2000
   22.1299  -14.1462  -15.3904 N   0  0  0  0  0  0  0  0  0  0  0  0
   22.3231  -14.6247  -16.7251 C   0  0  0  0  0  0  0  0  0  0  0  0
   22.2084  -13.7499  -17.6214 O   0  0  0  0  0  0  0  0  0  0  0  0
   22.6215  -16.0266  -16.9586 C   0  0  0  0  0  0  0  0  0  0  0  0
   22.6468  -16.9349  -15.7715 C   0  0  0  0  0  0  0  0  0  0  0  0
   24.0005  -16.9976  -15.1614 C   0  0  2  0  0  0  0  0  0  0  0  0
   25.0099  -16.9256  -16.1797 N   0  0  0  0  0  0  0  0  0  0  0  0
   24.1845  -18.2395  -14.3349 C   0  0  0  0  0  0  0  0  0  0  0  0
   23.1867  -18.7047  -13.7463 O   0  0  0  0  0  0  0  0  0  0  0  0
   26.3268  -21.1552  -15.6625 C   0  0  0  0  0  0  0  0  0  0  0  0
   26.7301  -20.9173  -14.2399 C   0  0  1  0  0  0  0  0  0  0  0  0
   27.9485  -20.2371  -14.2513 O   0  0  0  0  0  0  0  0  0  0  0  0
   25.6654  -20.1076  -13.4884 C   0  0  2  0  0  0  0  0  0  0  0  0
   25.4269  -18.8912  -14.2022 N   0  0  0  0  0  0  0  0  0  0  0  0
   26.1246  -19.8943  -12.1009 C   0  0  0  0  0  0  0  0  0  0  0  0
   26.5968  -18.7975  -11.7067 O   0  0  0  0  0  0  0  0  0  0  0  0
   26.0672  -20.9090  -11.1053 N   0  0  0  0  0  0  0  0  0  0  0  0
   26.5526  -20.7716   -9.7616 C   0  0  1  0  0  0  0  0  0  0  0  0
   25.9413  -19.6924   -8.9719 C   0  0  0  0  0  0  0  0  0  0  0  0
   26.1916  -19.9160   -7.5322 C   0  0  0  0  0  0  0  0  0  0  0  0
   25.4764  -20.6085   -6.5796 C   0  0  0  0  0  0  0  0  0  0  0  0
   26.0693  -20.5360   -5.3751 N   0  0  0  0  0  0  0  0  0  0  0  0
   27.1841  -19.8014   -5.4893 C   0  0  0  0  0  0  0  0  0  0  0  0
   28.1346  -19.4347   -4.5449 C   0  0  0  0  0  0  0  0  0  0  0  0
   29.1926  -18.6605   -4.9488 C   0  0  0  0  0  0  0  0  0  0  0  0
   29.2988  -18.2632   -6.2599 C   0  0  0  0  0  0  0  0  0  0  0  0
   28.3437  -18.6343   -7.1988 C   0  0  0  0  0  0  0  0  0  0  0  0
   27.2820  -19.4078   -6.8072 C   0  0  0  0  0  0  0  0  0  0  0  0
   26.3610  -22.0626   -9.0599 C   0  0  0  0  0  0  0  0  0  0  0  0
   25.0922  -22.6077   -8.9981 O   0  0  0  0  0  0  0  0  0  0  0  0
   27.3157  -22.6425   -8.5398 O   0  0  0  0  0  0  0  0  0  0  0  0
  2  1  1  0
  3  2  2  0
  4  2  1  0
  5  6  1  0
  5  4  1  0
  6  8  1  0
  6  7  1  6
  8  9  2  0
 11 13  1  0
 11 10  1  6
 12 11  1  0
 13 15  1  0
 14  8  1  0
 13 14  1  6
 15 16  2  0
 17 18  1  0
 17 15  1  0
 18 29  1  0
 18 19  1  1
 20 19  1  0
 20 21  2  0
 22 21  1  0
 23 22  1  0
 24 23  2  0
 25 24  1  0
 26 25  2  0
 26 27  1  0
 27 28  2  0
 28 23  1  0
 28 20  1  0
 29 30  1  0
 31 29  2  0
M  END
$$$$
