QTW.pdb
     RDKit          3D

 31 32  0  0  1  0  0  0  0  0999 V2000
   31.6049  -15.9072  -18.8648 N   0  0  0  0  0  0  0  0  0  0  0  0
   30.8469  -16.7735  -19.7147 C   0  0  0  0  0  0  0  0  0  0  0  0
   30.5630  -16.2919  -20.8413 O   0  0  0  0  0  0  0  0  0  0  0  0
   30.4624  -18.0944  -19.2493 C   0  0  0  0  0  0  0  0  0  0  0  0
   29.4460  -18.1732  -18.1558 C   0  0  0  0  0  0  0  0  0  0  0  0
   29.1403  -19.5823  -17.7959 C   0  0  2  0  0  0  0  0  0  0  0  0
   29.1770  -20.4146  -18.9650 N   0  0  0  0  0  0  0  0  0  0  0  0
   27.8084  -19.7081  -17.1107 C   0  0  0  0  0  0  0  0  0  0  0  0
   27.0507  -18.7160  -17.1161 O   0  0  0  0  0  0  0  0  0  0  0  0
   25.0824  -21.9033  -17.8698 C   0  0  0  0  0  0  0  0  0  0  0  0
   25.3735  -22.2124  -16.4335 C   0  0  1  0  0  0  0  0  0  0  0  0
   26.1046  -23.4004  -16.3940 O   0  0  0  0  0  0  0  0  0  0  0  0
   26.1557  -21.0732  -15.7672 C   0  0  2  0  0  0  0  0  0  0  0  0
   27.3877  -20.8911  -16.4707 N   0  0  0  0  0  0  0  0  0  0  0  0
   26.3375  -21.3964  -14.3377 C   0  0  0  0  0  0  0  0  0  0  0  0
   27.3477  -22.0091  -13.9068 O   0  0  0  0  0  0  0  0  0  0  0  0
   25.3883  -21.0399  -13.3398 N   0  0  0  0  0  0  0  0  0  0  0  0
   25.5172  -21.3305  -11.9401 C   0  0  1  0  0  0  0  0  0  0  0  0
   26.7241  -20.8000  -11.2891 C   0  0  0  0  0  0  0  0  0  0  0  0
   26.4572  -20.5509   -9.8565 C   0  0  0  0  0  0  0  0  0  0  0  0
   25.2765  -20.4146   -9.1597 C   0  0  0  0  0  0  0  0  0  0  0  0
   25.5031  -20.1759   -7.8562 N   0  0  0  0  0  0  0  0  0  0  0  0
   26.8267  -20.1468   -7.6493 C   0  0  0  0  0  0  0  0  0  0  0  0
   27.5637  -19.9363   -6.4907 C   0  0  0  0  0  0  0  0  0  0  0  0
   28.9328  -19.9587   -6.5737 C   0  0  0  0  0  0  0  0  0  0  0  0
   29.5495  -20.1851   -7.7806 C   0  0  0  0  0  0  0  0  0  0  0  0
   28.8051  -20.3949   -8.9353 C   0  0  0  0  0  0  0  0  0  0  0  0
   27.4363  -20.3749   -8.8650 C   0  0  0  0  0  0  0  0  0  0  0  0
   24.3160  -20.8154  -11.2420 C   0  0  0  0  0  0  0  0  0  0  0  0
   23.9932  -21.3293  -10.0000 O   0  0  0  0  0  0  0  0  0  0  0  0
   23.6154  -19.9431  -11.7581 O   0  0  0  0  0  0  0  0  0  0  0  0
  2  1  1  0
  3  2  2  0
  4  2  1  0
  5  6  1  0
  5  4  1  0
  6  8  1  0
  6  7  1  6
  8  9  2  0
 11 13  1  0
 11 10  1  6
 12 11  1  0
 13 15  1  0
 14  8  1  0
 13 14  1  6
 15 16  2  0
 17 18  1  0
 17 15  1  0
 18 29  1  0
 18 19  1  1
 20 19  1  0
 20 21  2  0
 22 21  1  0
 23 22  1  0
 24 23  2  0
 25 24  1  0
 26 25  2  0
 26 27  1  0
 27 28  2  0
 28 23  1  0
 28 20  1  0
 29 30  1  0
 31 29  2  0
M  END
$$$$
