QTW.pdb
     RDKit          3D

 31 32  0  0  1  0  0  0  0  0999 V2000
   19.4182  -16.5611  -17.6122 N   0  0  0  0  0  0  0  0  0  0  0  0
   20.0533  -16.2992  -18.8674 C   0  0  0  0  0  0  0  0  0  0  0  0
   20.1160  -17.2867  -19.6436 O   0  0  0  0  0  0  0  0  0  0  0  0
   20.5692  -14.9731  -19.1584 C   0  0  0  0  0  0  0  0  0  0  0  0
   20.2532  -13.8804  -18.1883 C   0  0  0  0  0  0  0  0  0  0  0  0
   21.4201  -13.5639  -17.3242 C   0  0  2  0  0  0  0  0  0  0  0  0
   21.8012  -14.7174  -16.5591 N   0  0  0  0  0  0  0  0  0  0  0  0
   21.1410  -12.4038  -16.4101 C   0  0  0  0  0  0  0  0  0  0  0  0
   20.2065  -12.5158  -15.5900 O   0  0  0  0  0  0  0  0  0  0  0  0
   23.2393  -11.1385  -13.8616 C   0  0  0  0  0  0  0  0  0  0  0  0
   23.0083   -9.9400  -14.7295 C   0  0  1  0  0  0  0  0  0  0  0  0
   24.1203   -9.7958  -15.5601 O   0  0  0  0  0  0  0  0  0  0  0  0
   21.7282  -10.0944  -15.5610 C   0  0  2  0  0  0  0  0  0  0  0  0
   21.8870  -11.2087  -16.4435 N   0  0  0  0  0  0  0  0  0  0  0  0
   21.4632   -8.8221  -16.2628 C   0  0  0  0  0  0  0  0  0  0  0  0
   22.0473   -8.5051  -17.3304 O   0  0  0  0  0  0  0  0  0  0  0  0
   20.5285   -7.8602  -15.7884 N   0  0  0  0  0  0  0  0  0  0  0  0
   20.2417   -6.6071  -16.4268 C   0  0  1  0  0  0  0  0  0  0  0  0
   18.8741   -6.4559  -16.9453 C   0  0  0  0  0  0  0  0  0  0  0  0
   18.7156   -7.2401  -18.1884 C   0  0  0  0  0  0  0  0  0  0  0  0
   19.4074   -8.3282  -18.6740 C   0  0  0  0  0  0  0  0  0  0  0  0
   18.9309   -8.7163  -19.8698 N   0  0  0  0  0  0  0  0  0  0  0  0
   17.9191   -7.9069  -20.2114 C   0  0  0  0  0  0  0  0  0  0  0  0
   17.1073   -7.8886  -21.3386 C   0  0  0  0  0  0  0  0  0  0  0  0
   16.1330   -6.9269  -21.4270 C   0  0  0  0  0  0  0  0  0  0  0  0
   15.9734   -6.0084  -20.4175 C   0  0  0  0  0  0  0  0  0  0  0  0
   16.7896   -6.0334  -19.2929 C   0  0  0  0  0  0  0  0  0  0  0  0
   17.7666   -6.9897  -19.1931 C   0  0  0  0  0  0  0  0  0  0  0  0
   20.5260   -5.5156  -15.4659 C   0  0  0  0  0  0  0  0  0  0  0  0
   20.4123   -4.2050  -15.8904 O   0  0  0  0  0  0  0  0  0  0  0  0
   20.8578   -5.7699  -14.3068 O   0  0  0  0  0  0  0  0  0  0  0  0
  2  1  1  0
  3  2  2  0
  4  2  1  0
  5  6  1  0
  5  4  1  0
  6  8  1  0
  6  7  1  1
  8  9  2  0
 11 13  1  0
 11 10  1  6
 12 11  1  0
 13 15  1  0
 14  8  1  0
 13 14  1  6
 15 16  2  0
 17 18  1  0
 17 15  1  0
 18 29  1  0
 18 19  1  1
 20 19  1  0
 20 21  2  0
 22 21  1  0
 23 22  1  0
 24 23  2  0
 25 24  1  0
 26 25  2  0
 26 27  1  0
 27 28  2  0
 28 23  1  0
 28 20  1  0
 29 30  1  0
 31 29  2  0
M  END
$$$$
