QTW.pdb
     RDKit          3D

 31 32  0  0  1  0  0  0  0  0999 V2000
   29.5266  -23.0263  -16.8174 N   0  0  0  0  0  0  0  0  0  0  0  0
   29.7484  -22.6256  -18.1731 C   0  0  0  0  0  0  0  0  0  0  0  0
   30.2312  -23.5187  -18.9154 O   0  0  0  0  0  0  0  0  0  0  0  0
   29.4235  -21.2741  -18.5940 C   0  0  0  0  0  0  0  0  0  0  0  0
   28.8324  -20.3556  -17.5733 C   0  0  0  0  0  0  0  0  0  0  0  0
   27.4173  -20.7032  -17.2813 C   0  0  2  0  0  0  0  0  0  0  0  0
   26.5958  -20.4567  -18.4326 N   0  0  0  0  0  0  0  0  0  0  0  0
   26.8889  -19.9466  -16.0949 C   0  0  0  0  0  0  0  0  0  0  0  0
   27.3658  -18.8168  -15.8607 O   0  0  0  0  0  0  0  0  0  0  0  0
   24.3926  -18.0053  -15.8119 C   0  0  0  0  0  0  0  0  0  0  0  0
   23.9902  -19.0392  -14.8059 C   0  0  1  0  0  0  0  0  0  0  0  0
   23.1630  -19.9600  -15.4500 O   0  0  0  0  0  0  0  0  0  0  0  0
   25.2171  -19.7397  -14.2077 C   0  0  2  0  0  0  0  0  0  0  0  0
   25.8861  -20.4587  -15.2476 N   0  0  0  0  0  0  0  0  0  0  0  0
   24.7742  -20.5985  -13.0907 C   0  0  0  0  0  0  0  0  0  0  0  0
   24.4838  -21.8122  -13.2457 O   0  0  0  0  0  0  0  0  0  0  0  0
   24.6436  -20.1218  -11.7566 N   0  0  0  0  0  0  0  0  0  0  0  0
   24.3140  -20.9350  -10.6208 C   0  0  1  0  0  0  0  0  0  0  0  0
   24.8278  -20.4595   -9.3278 C   0  0  0  0  0  0  0  0  0  0  0  0
   26.3025  -20.5595   -9.3025 C   0  0  0  0  0  0  0  0  0  0  0  0
   27.1829  -21.2515  -10.1052 C   0  0  0  0  0  0  0  0  0  0  0  0
   28.4540  -21.0697   -9.7066 N   0  0  0  0  0  0  0  0  0  0  0  0
   28.4569  -20.2603   -8.6388 C   0  0  0  0  0  0  0  0  0  0  0  0
   29.5042  -19.7755   -7.8654 C   0  0  0  0  0  0  0  0  0  0  0  0
   29.2100  -18.9501   -6.8101 C   0  0  0  0  0  0  0  0  0  0  0  0
   27.9056  -18.6175   -6.5342 C   0  0  0  0  0  0  0  0  0  0  0  0
   26.8634  -19.1065   -7.3127 C   0  0  0  0  0  0  0  0  0  0  0  0
   27.1448  -19.9322   -8.3700 C   0  0  0  0  0  0  0  0  0  0  0  0
   22.8395  -21.0613  -10.5468 C   0  0  0  0  0  0  0  0  0  0  0  0
   22.2895  -21.9503   -9.6424 O   0  0  0  0  0  0  0  0  0  0  0  0
   22.1138  -20.3855  -11.2782 O   0  0  0  0  0  0  0  0  0  0  0  0
  2  1  1  0
  3  2  2  0
  4  2  1  0
  5  6  1  0
  5  4  1  0
  6  8  1  0
  6  7  1  6
  8  9  2  0
 11 13  1  0
 11 10  1  6
 12 11  1  0
 13 15  1  0
 14  8  1  0
 13 14  1  6
 15 16  2  0
 17 18  1  0
 17 15  1  0
 18 29  1  0
 18 19  1  1
 20 19  1  0
 20 21  2  0
 22 21  1  0
 23 22  1  0
 24 23  2  0
 25 24  1  0
 26 25  2  0
 26 27  1  0
 27 28  2  0
 28 23  1  0
 28 20  1  0
 29 30  1  0
 31 29  2  0
M  END
$$$$
