QTW.pdb
     RDKit          3D

 31 32  0  0  1  0  0  0  0  0999 V2000
   30.2429  -19.0957  -18.3415 N   0  0  0  0  0  0  0  0  0  0  0  0
   29.9387  -17.7039  -18.2078 C   0  0  0  0  0  0  0  0  0  0  0  0
   29.6491  -17.1210  -19.2839 O   0  0  0  0  0  0  0  0  0  0  0  0
   29.9840  -17.0723  -16.9008 C   0  0  0  0  0  0  0  0  0  0  0  0
   28.6821  -16.6977  -16.2687 C   0  0  0  0  0  0  0  0  0  0  0  0
   27.7011  -17.8117  -16.3391 C   0  0  2  0  0  0  0  0  0  0  0  0
   26.8523  -17.6566  -17.4865 N   0  0  0  0  0  0  0  0  0  0  0  0
   26.8720  -17.9068  -15.0890 C   0  0  0  0  0  0  0  0  0  0  0  0
   26.0942  -16.9656  -14.8289 O   0  0  0  0  0  0  0  0  0  0  0  0
   24.0952  -18.4680  -14.3684 C   0  0  0  0  0  0  0  0  0  0  0  0
   24.6899  -19.5843  -13.5663 C   0  0  1  0  0  0  0  0  0  0  0  0
   24.7262  -20.7188  -14.3780 O   0  0  0  0  0  0  0  0  0  0  0  0
   26.0981  -19.2260  -13.0740 C   0  0  2  0  0  0  0  0  0  0  0  0
   26.9385  -19.0066  -14.2105 N   0  0  0  0  0  0  0  0  0  0  0  0
   26.5786  -20.3050  -12.1874 C   0  0  0  0  0  0  0  0  0  0  0  0
   27.2636  -21.2715  -12.6096 O   0  0  0  0  0  0  0  0  0  0  0  0
   26.3065  -20.3344  -10.7913 N   0  0  0  0  0  0  0  0  0  0  0  0
   26.6594  -21.4081   -9.9066 C   0  0  1  0  0  0  0  0  0  0  0  0
   27.8961  -21.2158   -9.1350 C   0  0  0  0  0  0  0  0  0  0  0  0
   27.6584  -20.2647   -8.0284 C   0  0  0  0  0  0  0  0  0  0  0  0
   26.6821  -19.3109   -7.8405 C   0  0  0  0  0  0  0  0  0  0  0  0
   26.8606  -18.6504   -6.6831 N   0  0  0  0  0  0  0  0  0  0  0  0
   27.9489  -19.1398   -6.0735 C   0  0  0  0  0  0  0  0  0  0  0  0
   28.5494  -18.7985   -4.8682 C   0  0  0  0  0  0  0  0  0  0  0  0
   29.6781  -19.4774   -4.4849 C   0  0  0  0  0  0  0  0  0  0  0  0
   30.1933  -20.4702   -5.2831 C   0  0  0  0  0  0  0  0  0  0  0  0
   29.5866  -20.8059   -6.4875 C   0  0  0  0  0  0  0  0  0  0  0  0
   28.4582  -20.1346   -6.8812 C   0  0  0  0  0  0  0  0  0  0  0  0
   25.5302  -21.6382   -8.9752 C   0  0  0  0  0  0  0  0  0  0  0  0
   25.5543  -22.7531   -8.1583 O   0  0  0  0  0  0  0  0  0  0  0  0
   24.5846  -20.8496   -8.9276 O   0  0  0  0  0  0  0  0  0  0  0  0
  2  1  1  0
  3  2  2  0
  4  2  1  0
  5  6  1  0
  5  4  1  0
  6  8  1  0
  6  7  1  6
  8  9  2  0
 11 13  1  0
 11 10  1  6
 12 11  1  0
 13 15  1  0
 14  8  1  0
 13 14  1  6
 15 16  2  0
 17 18  1  0
 17 15  1  0
 18 29  1  0
 18 19  1  1
 20 19  1  0
 20 21  2  0
 22 21  1  0
 23 22  1  0
 24 23  2  0
 25 24  1  0
 26 25  2  0
 26 27  1  0
 27 28  2  0
 28 23  1  0
 28 20  1  0
 29 30  1  0
 31 29  2  0
M  END
$$$$
