QTW.pdb
     RDKit          3D

 31 32  0  0  1  0  0  0  0  0999 V2000
   30.5992  -21.5055  -19.6464 N   0  0  0  0  0  0  0  0  0  0  0  0
   29.1822  -21.3713  -19.7943 C   0  0  0  0  0  0  0  0  0  0  0  0
   28.8053  -20.9650  -20.9232 O   0  0  0  0  0  0  0  0  0  0  0  0
   28.3020  -21.6918  -18.6844 C   0  0  0  0  0  0  0  0  0  0  0  0
   28.9295  -22.2216  -17.4353 C   0  0  0  0  0  0  0  0  0  0  0  0
   27.9065  -22.5562  -16.4106 C   0  0  2  0  0  0  0  0  0  0  0  0
   26.5930  -22.2394  -16.8956 N   0  0  0  0  0  0  0  0  0  0  0  0
   28.1647  -21.8478  -15.1103 C   0  0  0  0  0  0  0  0  0  0  0  0
   29.3240  -21.8754  -14.6482 O   0  0  0  0  0  0  0  0  0  0  0  0
   28.1783  -18.4392  -14.1687 C   0  0  0  0  0  0  0  0  0  0  0  0
   27.1186  -19.0251  -13.2874 C   0  0  1  0  0  0  0  0  0  0  0  0
   25.8805  -18.7433  -13.8662 O   0  0  0  0  0  0  0  0  0  0  0  0
   27.3069  -20.5388  -13.1228 C   0  0  2  0  0  0  0  0  0  0  0  0
   27.1585  -21.1605  -14.4023 N   0  0  0  0  0  0  0  0  0  0  0  0
   26.3440  -21.0290  -12.1160 C   0  0  0  0  0  0  0  0  0  0  0  0
   25.3017  -21.6594  -12.4288 O   0  0  0  0  0  0  0  0  0  0  0  0
   26.5204  -20.8285  -10.7186 N   0  0  0  0  0  0  0  0  0  0  0  0
   25.6753  -21.3758   -9.6956 C   0  0  1  0  0  0  0  0  0  0  0  0
   26.3293  -21.6428   -8.4060 C   0  0  0  0  0  0  0  0  0  0  0  0
   26.8416  -20.3819   -7.8288 C   0  0  0  0  0  0  0  0  0  0  0  0
   26.6402  -19.0671   -8.1881 C   0  0  0  0  0  0  0  0  0  0  0  0
   27.3237  -18.2314   -7.3868 N   0  0  0  0  0  0  0  0  0  0  0  0
   27.9926  -18.9574   -6.4807 C   0  0  0  0  0  0  0  0  0  0  0  0
   28.8347  -18.5715   -5.4454 C   0  0  0  0  0  0  0  0  0  0  0  0
   29.3953  -19.5470   -4.6606 C   0  0  0  0  0  0  0  0  0  0  0  0
   29.1224  -20.8718   -4.9025 C   0  0  0  0  0  0  0  0  0  0  0  0
   28.2787  -21.2498   -5.9402 C   0  0  0  0  0  0  0  0  0  0  0  0
   27.7126  -20.2841   -6.7313 C   0  0  0  0  0  0  0  0  0  0  0  0
   24.5352  -20.4529   -9.4862 C   0  0  0  0  0  0  0  0  0  0  0  0
   23.4556  -20.8834   -8.7379 O   0  0  0  0  0  0  0  0  0  0  0  0
   24.5475  -19.3196   -9.9699 O   0  0  0  0  0  0  0  0  0  0  0  0
  2  1  1  0
  3  2  2  0
  4  2  1  0
  5  6  1  0
  5  4  1  0
  6  8  1  0
  6  7  1  6
  8  9  2  0
 11 13  1  0
 11 10  1  6
 12 11  1  0
 13 15  1  0
 14  8  1  0
 13 14  1  6
 15 16  2  0
 17 18  1  0
 17 15  1  0
 18 29  1  0
 18 19  1  1
 20 19  1  0
 20 21  2  0
 22 21  1  0
 23 22  1  0
 24 23  2  0
 25 24  1  0
 26 25  2  0
 26 27  1  0
 27 28  2  0
 28 23  1  0
 28 20  1  0
 29 30  1  0
 31 29  2  0
M  END
$$$$
