QTW.pdb
     RDKit          3D

 31 32  0  0  1  0  0  0  0  0999 V2000
   26.0008  -13.2555  -15.8095 N   0  0  0  0  0  0  0  0  0  0  0  0
   26.5071  -14.0484  -16.8877 C   0  0  0  0  0  0  0  0  0  0  0  0
   27.0034  -13.3915  -17.8384 O   0  0  0  0  0  0  0  0  0  0  0  0
   26.4191  -15.4968  -16.8285 C   0  0  0  0  0  0  0  0  0  0  0  0
   25.7835  -16.1018  -15.6183 C   0  0  0  0  0  0  0  0  0  0  0  0
   26.6769  -17.0994  -14.9739 C   0  0  2  0  0  0  0  0  0  0  0  0
   27.4259  -17.8136  -15.9688 N   0  0  0  0  0  0  0  0  0  0  0  0
   25.9101  -18.0620  -14.1110 C   0  0  0  0  0  0  0  0  0  0  0  0
   24.6993  -17.8330  -13.9109 O   0  0  0  0  0  0  0  0  0  0  0  0
   25.5096  -21.6022  -14.7737 C   0  0  0  0  0  0  0  0  0  0  0  0
   26.0445  -21.5617  -13.3754 C   0  0  1  0  0  0  0  0  0  0  0  0
   27.4047  -21.8685  -13.4314 O   0  0  0  0  0  0  0  0  0  0  0  0
   25.8264  -20.1841  -12.7365 C   0  0  2  0  0  0  0  0  0  0  0  0
   26.5001  -19.2008  -13.5271 N   0  0  0  0  0  0  0  0  0  0  0  0
   26.2928  -20.2324  -11.3360 C   0  0  0  0  0  0  0  0  0  0  0  0
   27.4090  -19.7756  -10.9796 O   0  0  0  0  0  0  0  0  0  0  0  0
   25.5180  -20.7959  -10.2843 N   0  0  0  0  0  0  0  0  0  0  0  0
   25.9729  -20.9820   -8.9358 C   0  0  1  0  0  0  0  0  0  0  0  0
   26.3627  -19.7573   -8.2215 C   0  0  0  0  0  0  0  0  0  0  0  0
   26.7747  -20.0874   -6.8406 C   0  0  0  0  0  0  0  0  0  0  0  0
   26.2012  -20.9015   -5.8885 C   0  0  0  0  0  0  0  0  0  0  0  0
   26.9131  -20.8960   -4.7479 N   0  0  0  0  0  0  0  0  0  0  0  0
   27.9696  -20.0870   -4.9057 C   0  0  0  0  0  0  0  0  0  0  0  0
   28.9938  -19.7446   -4.0319 C   0  0  0  0  0  0  0  0  0  0  0  0
   29.9613  -18.8751   -4.4675 C   0  0  0  0  0  0  0  0  0  0  0  0
   29.9078  -18.3613   -5.7408 C   0  0  0  0  0  0  0  0  0  0  0  0
   28.8798  -18.7089   -6.6090 C   0  0  0  0  0  0  0  0  0  0  0  0
   27.9072  -19.5769   -6.1853 C   0  0  0  0  0  0  0  0  0  0  0  0
   24.9089  -21.6771   -8.1740 C   0  0  0  0  0  0  0  0  0  0  0  0
   25.2708  -22.6027   -7.2133 O   0  0  0  0  0  0  0  0  0  0  0  0
   23.7204  -21.4350   -8.3915 O   0  0  0  0  0  0  0  0  0  0  0  0
  2  1  1  0
  3  2  2  0
  4  2  1  0
  5  6  1  0
  5  4  1  0
  6  8  1  0
  6  7  1  6
  8  9  2  0
 11 13  1  0
 11 10  1  6
 12 11  1  0
 13 15  1  0
 14  8  1  0
 13 14  1  6
 15 16  2  0
 17 18  1  0
 17 15  1  0
 18 29  1  0
 18 19  1  1
 20 19  1  0
 20 21  2  0
 22 21  1  0
 23 22  1  0
 24 23  2  0
 25 24  1  0
 26 25  2  0
 26 27  1  0
 27 28  2  0
 28 23  1  0
 28 20  1  0
 29 30  1  0
 31 29  2  0
M  END
$$$$
