FRR.pdb
     RDKit          3D

 34 34  0  0  1  0  0  0  0  0999 V2000
    7.1333  -16.5272   25.3898 N   0  0  0  0  0  0  0  0  0  0  0  0
    7.4434  -15.3366   24.6265 C   0  0  1  0  0  0  0  0  0  0  0  0
    8.2723  -14.4245   25.4937 C   0  0  0  0  0  0  0  0  0  0  0  0
    7.3529  -13.4827   26.1641 C   0  0  0  0  0  0  0  0  0  0  0  0
    6.8448  -12.3974   25.4520 C   0  0  0  0  0  0  0  0  0  0  0  0
    5.9871  -11.5362   26.1071 C   0  0  0  0  0  0  0  0  0  0  0  0
    5.6364  -11.7288   27.4176 C   0  0  0  0  0  0  0  0  0  0  0  0
    6.1302  -12.7942   28.1297 C   0  0  0  0  0  0  0  0  0  0  0  0
    6.9842  -13.6482   27.4703 C   0  0  0  0  0  0  0  0  0  0  0  0
    8.1880  -15.6615   23.3713 C   0  0  0  0  0  0  0  0  0  0  0  0
    8.6957  -16.7922   23.1828 O   0  0  0  0  0  0  0  0  0  0  0  0
    9.8292  -14.5405   17.0664 N   0  0  0  0  0  0  0  0  0  0  0  0
    8.6452  -14.2967   16.3197 C   0  0  0  0  0  0  0  0  0  0  0  0
    8.5150  -14.7895   15.1129 N   0  0  0  0  0  0  0  0  0  0  0  0
    7.5639  -13.5262   16.8205 N   0  0  0  0  0  0  0  0  0  0  0  0
    7.5727  -12.9814   18.1770 C   0  0  0  0  0  0  0  0  0  0  0  0
    7.6551  -14.0801   19.1937 C   0  0  0  0  0  0  0  0  0  0  0  0
    8.8228  -13.8509   20.1233 C   0  0  0  0  0  0  0  0  0  0  0  0
    9.0436  -14.9945   21.0833 C   0  0  2  0  0  0  0  0  0  0  0  0
    8.3481  -14.6989   22.3422 N   0  0  0  0  0  0  0  0  0  0  0  0
   10.5034  -14.9992   21.4250 C   0  0  0  0  0  0  0  0  0  0  0  0
   10.8930  -14.1458   22.2595 O   0  0  0  0  0  0  0  0  0  0  0  0
    7.6295  -14.5740   14.5746 N   0  0  0  0  0  0  0  0  0  0  0  0
   16.5610  -18.6885   24.0876 C   0  0  0  0  0  0  0  0  0  0  0  0
   17.4747  -18.2478   23.0691 N   0  0  0  0  0  0  0  0  0  0  0  0
   18.6732  -17.8697   23.3621 N   0  0  0  0  0  0  0  0  0  0  0  0
   17.0534  -18.2272   21.7183 C   0  0  0  0  0  0  0  0  0  0  0  0
   15.6646  -18.3998   21.3986 C   0  0  0  0  0  0  0  0  0  0  0  0
   14.9633  -17.0870   21.5439 C   0  0  0  0  0  0  0  0  0  0  0  0
   13.5245  -17.1140   21.1828 C   0  0  2  0  0  0  0  0  0  0  0  0
   12.8323  -15.7800   21.2226 N   0  0  0  0  0  0  0  0  0  0  0  0
   11.4411  -15.8878   20.8732 C   0  0  0  0  0  0  0  0  0  0  0  0
   13.4494  -14.7740   20.3490 O   0  0  0  0  0  0  0  0  0  0  0  0
   14.4266  -13.9428   20.8470 O   0  0  0  0  0  0  0  0  0  0  0  0
  2  1  1  1
  2 10  1  0
  2  3  1  0
  4  3  1  0
  5  4  2  0
  6  5  1  0
  7  8  1  0
  7  6  2  0
  8  9  2  0
  9  4  1  0
 10 20  1  0
 11 10  2  0
 13 15  1  0
 13 12  1  0
 14 13  2  0
 16 17  1  0
 16 15  1  0
 18 17  1  0
 19 18  1  6
 20 19  1  0
 21 31  1  0
 21 19  1  0
 22 21  2  0
 23 24  1  0
 24 25  2  0
 26 24  1  0
 26 27  1  0
 27 28  1  0
 28 29  1  0
 30 29  1  1
 30 32  1  0
 30 31  1  0
 32 33  1  0
 34 32  2  0
M  END
$$$$
