FRR.pdb
     RDKit          3D

 34 34  0  0  1  0  0  0  0  0999 V2000
    5.8844  -17.9047   25.8680 N   0  0  0  0  0  0  0  0  0  0  0  0
    6.2962  -16.5562   25.5389 C   0  0  1  0  0  0  0  0  0  0  0  0
    7.0527  -15.9950   26.7152 C   0  0  0  0  0  0  0  0  0  0  0  0
    7.1006  -14.5269   26.5606 C   0  0  0  0  0  0  0  0  0  0  0  0
    6.0618  -13.7500   27.0710 C   0  0  0  0  0  0  0  0  0  0  0  0
    6.1370  -12.3806   26.9110 C   0  0  0  0  0  0  0  0  0  0  0  0
    7.1942  -11.7880   26.2718 C   0  0  0  0  0  0  0  0  0  0  0  0
    8.2237  -12.5424   25.7649 C   0  0  0  0  0  0  0  0  0  0  0  0
    8.1419  -13.9063   25.9282 C   0  0  0  0  0  0  0  0  0  0  0  0
    7.1568  -16.5224   24.3167 C   0  0  0  0  0  0  0  0  0  0  0  0
    7.9866  -17.4299   24.0725 O   0  0  0  0  0  0  0  0  0  0  0  0
    9.7138  -14.2567   17.6236 N   0  0  0  0  0  0  0  0  0  0  0  0
    8.4677  -13.7696   17.1452 C   0  0  0  0  0  0  0  0  0  0  0  0
    8.1191  -13.9664   15.8979 N   0  0  0  0  0  0  0  0  0  0  0  0
    7.5523  -13.0602   17.9652 N   0  0  0  0  0  0  0  0  0  0  0  0
    7.8387  -12.7793   19.3708 C   0  0  0  0  0  0  0  0  0  0  0  0
    8.2527  -14.0270   20.0916 C   0  0  0  0  0  0  0  0  0  0  0  0
    7.4018  -14.2312   21.3223 C   0  0  0  0  0  0  0  0  0  0  0  0
    7.7813  -15.4669   22.1014 C   0  0  2  0  0  0  0  0  0  0  0  0
    7.0661  -15.4583   23.3836 N   0  0  0  0  0  0  0  0  0  0  0  0
    9.2325  -15.3304   22.4526 C   0  0  0  0  0  0  0  0  0  0  0  0
    9.5175  -14.5442   23.3890 O   0  0  0  0  0  0  0  0  0  0  0  0
    7.1774  -13.6061   15.5761 N   0  0  0  0  0  0  0  0  0  0  0  0
   14.3575  -20.9452   22.6234 C   0  0  0  0  0  0  0  0  0  0  0  0
   13.6070  -21.0445   23.8455 N   0  0  0  0  0  0  0  0  0  0  0  0
   13.8820  -21.9434   24.7295 N   0  0  0  0  0  0  0  0  0  0  0  0
   12.5456  -20.1398   24.0853 C   0  0  0  0  0  0  0  0  0  0  0  0
   12.7698  -18.9683   24.8840 C   0  0  0  0  0  0  0  0  0  0  0  0
   12.8081  -17.7689   23.9915 C   0  0  0  0  0  0  0  0  0  0  0  0
   11.5137  -17.4410   23.3447 C   0  0  1  0  0  0  0  0  0  0  0  0
   11.5308  -16.2201   22.4674 N   0  0  0  0  0  0  0  0  0  0  0  0
   10.2704  -16.0196   21.8038 C   0  0  0  0  0  0  0  0  0  0  0  0
   12.5880  -16.2460   21.4488 O   0  0  0  0  0  0  0  0  0  0  0  0
   13.9090  -16.2060   21.8330 O   0  0  0  0  0  0  0  0  0  0  0  0
  2  1  1  1
  2 10  1  0
  2  3  1  0
  4  3  1  0
  5  4  2  0
  6  5  1  0
  7  8  1  0
  7  6  2  0
  8  9  2  0
  9  4  1  0
 10 20  1  0
 11 10  2  0
 13 15  1  0
 13 12  1  0
 14 13  2  0
 16 17  1  0
 16 15  1  0
 18 17  1  0
 19 18  1  6
 20 19  1  0
 21 31  1  0
 21 19  1  0
 22 21  2  0
 23 24  1  0
 24 25  2  0
 26 24  1  0
 26 27  1  0
 27 28  1  0
 28 29  1  0
 30 29  1  1
 30 32  1  0
 30 31  1  0
 32 33  1  0
 34 32  2  0
M  END
$$$$
