FRR.pdb
     RDKit          3D

 34 34  0  0  1  0  0  0  0  0999 V2000
    6.2693  -17.9680   25.4319 N   0  0  0  0  0  0  0  0  0  0  0  0
    6.6655  -16.6021   25.1606 C   0  0  1  0  0  0  0  0  0  0  0  0
    7.5115  -16.1204   26.3109 C   0  0  0  0  0  0  0  0  0  0  0  0
    7.1964  -14.6948   26.5352 C   0  0  0  0  0  0  0  0  0  0  0  0
    5.9603  -14.3432   27.0754 C   0  0  0  0  0  0  0  0  0  0  0  0
    5.6971  -13.0024   27.2737 C   0  0  0  0  0  0  0  0  0  0  0  0
    6.6127  -12.0344   26.9541 C   0  0  0  0  0  0  0  0  0  0  0  0
    7.8338  -12.3682   26.4217 C   0  0  0  0  0  0  0  0  0  0  0  0
    8.0891  -13.7062   26.2269 C   0  0  0  0  0  0  0  0  0  0  0  0
    7.4330  -16.4913   23.8823 C   0  0  0  0  0  0  0  0  0  0  0  0
    8.1197  -17.4442   23.4439 O   0  0  0  0  0  0  0  0  0  0  0  0
    7.3865  -14.5565   16.5991 N   0  0  0  0  0  0  0  0  0  0  0  0
    8.4589  -13.6561   16.8400 C   0  0  0  0  0  0  0  0  0  0  0  0
    9.6117  -13.8306   16.2428 N   0  0  0  0  0  0  0  0  0  0  0  0
    8.3499  -12.5460   17.7172 N   0  0  0  0  0  0  0  0  0  0  0  0
    7.6846  -12.6548   19.0143 C   0  0  0  0  0  0  0  0  0  0  0  0
    8.4573  -13.5476   19.9381 C   0  0  0  0  0  0  0  0  0  0  0  0
    7.6245  -13.9020   21.1469 C   0  0  0  0  0  0  0  0  0  0  0  0
    8.0508  -15.1962   21.7959 C   0  0  2  0  0  0  0  0  0  0  0  0
    7.4127  -15.2993   23.1142 N   0  0  0  0  0  0  0  0  0  0  0  0
    9.5201  -15.0808   22.0713 C   0  0  0  0  0  0  0  0  0  0  0  0
    9.8578  -14.3971   23.0686 O   0  0  0  0  0  0  0  0  0  0  0  0
   10.3993  -13.1590   16.4638 N   0  0  0  0  0  0  0  0  0  0  0  0
   11.9648  -20.4104   26.8932 C   0  0  0  0  0  0  0  0  0  0  0  0
   10.8820  -19.6059   26.3963 N   0  0  0  0  0  0  0  0  0  0  0  0
    9.7823  -19.4790   27.0595 N   0  0  0  0  0  0  0  0  0  0  0  0
   11.0228  -18.9396   25.1558 C   0  0  0  0  0  0  0  0  0  0  0  0
   12.0643  -19.3292   24.2478 C   0  0  0  0  0  0  0  0  0  0  0  0
   12.4457  -18.1518   23.4083 C   0  0  0  0  0  0  0  0  0  0  0  0
   11.3023  -17.4537   22.7708 C   0  0  1  0  0  0  0  0  0  0  0  0
   11.6722  -16.2721   21.9180 N   0  0  0  0  0  0  0  0  0  0  0  0
   10.5200  -15.6831   21.2898 C   0  0  0  0  0  0  0  0  0  0  0  0
   12.6542  -16.5887   20.8733 O   0  0  0  0  0  0  0  0  0  0  0  0
   12.3532  -16.3398   19.5537 O   0  0  0  0  0  0  0  0  0  0  0  0
  2  1  1  1
  2 10  1  0
  2  3  1  0
  4  3  1  0
  5  4  2  0
  6  5  1  0
  7  8  1  0
  7  6  2  0
  8  9  2  0
  9  4  1  0
 10 20  1  0
 11 10  2  0
 13 15  1  0
 13 12  1  0
 14 13  2  0
 16 17  1  0
 16 15  1  0
 18 17  1  0
 19 18  1  1
 20 19  1  0
 21 31  1  0
 21 19  1  0
 22 21  2  0
 23 24  1  0
 24 25  2  0
 26 24  1  0
 26 27  1  0
 27 28  1  0
 28 29  1  0
 30 29  1  1
 30 32  1  0
 30 31  1  0
 32 33  1  0
 34 32  2  0
M  END
$$$$
