FRR.pdb
     RDKit          3D

 34 34  0  0  1  0  0  0  0  0999 V2000
    6.2326  -16.6460   25.9627 N   0  0  0  0  0  0  0  0  0  0  0  0
    6.5965  -15.4827   25.1813 C   0  0  1  0  0  0  0  0  0  0  0  0
    7.5681  -14.6598   25.9873 C   0  0  0  0  0  0  0  0  0  0  0  0
    6.9043  -13.3848   26.3273 C   0  0  0  0  0  0  0  0  0  0  0  0
    6.6391  -12.4601   25.3184 C   0  0  0  0  0  0  0  0  0  0  0  0
    6.0167  -11.2785   25.6690 C   0  0  0  0  0  0  0  0  0  0  0  0
    5.6640  -11.0082   26.9652 C   0  0  0  0  0  0  0  0  0  0  0  0
    5.9197  -11.9111   27.9678 C   0  0  0  0  0  0  0  0  0  0  0  0
    6.5402  -13.0863   27.6109 C   0  0  0  0  0  0  0  0  0  0  0  0
    7.2139  -15.8644   23.8742 C   0  0  0  0  0  0  0  0  0  0  0  0
    7.6850  -17.0098   23.6799 O   0  0  0  0  0  0  0  0  0  0  0  0
   10.1464  -14.9787   17.0352 N   0  0  0  0  0  0  0  0  0  0  0  0
    9.0347  -14.3024   16.4649 C   0  0  0  0  0  0  0  0  0  0  0  0
    8.6570  -14.5733   15.2401 N   0  0  0  0  0  0  0  0  0  0  0  0
    8.2882  -13.3203   17.1663 N   0  0  0  0  0  0  0  0  0  0  0  0
    8.6024  -12.9582   18.5472 C   0  0  0  0  0  0  0  0  0  0  0  0
    8.7211  -14.1809   19.4066 C   0  0  0  0  0  0  0  0  0  0  0  0
    7.7864  -14.0866   20.5888 C   0  0  0  0  0  0  0  0  0  0  0  0
    7.8576  -15.2931   21.4927 C   0  0  2  0  0  0  0  0  0  0  0  0
    7.2898  -14.9412   22.8002 N   0  0  0  0  0  0  0  0  0  0  0  0
    9.3109  -15.5601   21.7472 C   0  0  0  0  0  0  0  0  0  0  0  0
    9.9304  -14.7135   22.4370 O   0  0  0  0  0  0  0  0  0  0  0  0
    7.8216  -14.0569   14.8456 N   0  0  0  0  0  0  0  0  0  0  0  0
   10.4675  -19.1983   27.4423 C   0  0  0  0  0  0  0  0  0  0  0  0
   11.0415  -20.1727   26.5548 N   0  0  0  0  0  0  0  0  0  0  0  0
   10.6287  -21.3953   26.5448 N   0  0  0  0  0  0  0  0  0  0  0  0
   12.0796  -19.7856   25.6745 C   0  0  0  0  0  0  0  0  0  0  0  0
   11.8720  -19.8385   24.2551 C   0  0  0  0  0  0  0  0  0  0  0  0
   11.6583  -18.4506   23.7408 C   0  0  0  0  0  0  0  0  0  0  0  0
   11.4543  -18.3618   22.2739 C   0  0  2  0  0  0  0  0  0  0  0  0
   11.3355  -16.9652   21.7302 N   0  0  0  0  0  0  0  0  0  0  0  0
   10.0040  -16.6828   21.2652 C   0  0  0  0  0  0  0  0  0  0  0  0
   12.2744  -16.6805   20.6378 O   0  0  0  0  0  0  0  0  0  0  0  0
   13.5303  -16.1960   20.9242 O   0  0  0  0  0  0  0  0  0  0  0  0
  2  1  1  1
  2 10  1  0
  2  3  1  0
  4  3  1  0
  5  4  2  0
  6  5  1  0
  7  8  1  0
  7  6  2  0
  8  9  2  0
  9  4  1  0
 10 20  1  0
 11 10  2  0
 13 15  1  0
 13 12  1  0
 14 13  2  0
 16 17  1  0
 16 15  1  0
 18 17  1  0
 19 18  1  6
 20 19  1  0
 21 31  1  0
 21 19  1  0
 22 21  2  0
 23 24  1  0
 24 25  2  0
 26 24  1  0
 26 27  1  0
 27 28  1  0
 28 29  1  0
 30 29  1  1
 30 32  1  0
 30 31  1  0
 32 33  1  0
 34 32  2  0
M  END
$$$$
