FRR.pdb
     RDKit          3D

 34 34  0  0  1  0  0  0  0  0999 V2000
    5.2904  -17.7514   25.6838 N   0  0  0  0  0  0  0  0  0  0  0  0
    6.0064  -16.5131   25.4596 C   0  0  1  0  0  0  0  0  0  0  0  0
    6.4292  -15.9652   26.7983 C   0  0  0  0  0  0  0  0  0  0  0  0
    6.7887  -14.5450   26.6101 C   0  0  0  0  0  0  0  0  0  0  0  0
    5.7865  -13.6146   26.3392 C   0  0  0  0  0  0  0  0  0  0  0  0
    6.1553  -12.2949   26.1695 C   0  0  0  0  0  0  0  0  0  0  0  0
    7.4629  -11.8959   26.2613 C   0  0  0  0  0  0  0  0  0  0  0  0
    8.4592  -12.8027   26.5278 C   0  0  0  0  0  0  0  0  0  0  0  0
    8.0841  -14.1160   26.6958 C   0  0  0  0  0  0  0  0  0  0  0  0
    7.2059  -16.7163   24.5905 C   0  0  0  0  0  0  0  0  0  0  0  0
    8.0623  -17.5950   24.8479 O   0  0  0  0  0  0  0  0  0  0  0  0
    8.1103  -11.9287   18.1848 N   0  0  0  0  0  0  0  0  0  0  0  0
    8.0278  -13.1941   17.5440 C   0  0  0  0  0  0  0  0  0  0  0  0
    8.3876  -13.3220   16.2909 N   0  0  0  0  0  0  0  0  0  0  0  0
    7.5631  -14.3620   18.2027 N   0  0  0  0  0  0  0  0  0  0  0  0
    7.0504  -14.3192   19.5710 C   0  0  0  0  0  0  0  0  0  0  0  0
    7.5024  -15.5185   20.3489 C   0  0  0  0  0  0  0  0  0  0  0  0
    8.4880  -15.1118   21.4182 C   0  0  0  0  0  0  0  0  0  0  0  0
    8.5742  -16.1083   22.5484 C   0  0  2  0  0  0  0  0  0  0  0  0
    7.4208  -15.9196   23.4370 N   0  0  0  0  0  0  0  0  0  0  0  0
    9.7739  -15.7348   23.3664 C   0  0  0  0  0  0  0  0  0  0  0  0
    9.9403  -14.5132   23.6036 O   0  0  0  0  0  0  0  0  0  0  0  0
    8.3715  -14.2883   15.8592 N   0  0  0  0  0  0  0  0  0  0  0  0
   12.8386  -19.4641   28.8920 C   0  0  0  0  0  0  0  0  0  0  0  0
   12.8271  -18.2471   29.6571 N   0  0  0  0  0  0  0  0  0  0  0  0
   13.5177  -18.1302   30.7408 N   0  0  0  0  0  0  0  0  0  0  0  0
   12.0435  -17.1549   29.2147 C   0  0  0  0  0  0  0  0  0  0  0  0
   12.6054  -16.1887   28.3139 C   0  0  0  0  0  0  0  0  0  0  0  0
   12.8118  -16.8287   26.9782 C   0  0  0  0  0  0  0  0  0  0  0  0
   11.5974  -16.8849   26.1278 C   0  0  1  0  0  0  0  0  0  0  0  0
   11.7300  -16.2265   24.7828 N   0  0  0  0  0  0  0  0  0  0  0  0
   10.7043  -16.6582   23.8714 C   0  0  0  0  0  0  0  0  0  0  0  0
   13.0344  -16.4512   24.1471 O   0  0  0  0  0  0  0  0  0  0  0  0
   14.1685  -15.9019   24.7004 O   0  0  0  0  0  0  0  0  0  0  0  0
  2  1  1  1
  2 10  1  0
  2  3  1  0
  4  3  1  0
  5  4  2  0
  6  5  1  0
  7  8  1  0
  7  6  2  0
  8  9  2  0
  9  4  1  0
 10 20  1  0
 11 10  2  0
 13 15  1  0
 13 12  1  0
 14 13  2  0
 16 17  1  0
 16 15  1  0
 18 17  1  0
 19 18  1  6
 20 19  1  0
 21 31  1  0
 21 19  1  0
 22 21  2  0
 23 24  1  0
 24 25  2  0
 26 24  1  0
 26 27  1  0
 27 28  1  0
 28 29  1  0
 30 29  1  1
 30 32  1  0
 30 31  1  0
 32 33  1  0
 34 32  2  0
M  END
$$$$
