FRR.pdb
     RDKit          3D

 34 34  0  0  1  0  0  0  0  0999 V2000
    5.8229  -17.8392   26.1746 N   0  0  0  0  0  0  0  0  0  0  0  0
    6.2886  -16.5303   25.7669 C   0  0  1  0  0  0  0  0  0  0  0  0
    7.0738  -15.9343   26.9068 C   0  0  0  0  0  0  0  0  0  0  0  0
    7.0637  -14.4665   26.7412 C   0  0  0  0  0  0  0  0  0  0  0  0
    5.8451  -13.7958   26.6491 C   0  0  0  0  0  0  0  0  0  0  0  0
    5.8699  -12.4238   26.4959 C   0  0  0  0  0  0  0  0  0  0  0  0
    7.0487  -11.7280   26.4343 C   0  0  0  0  0  0  0  0  0  0  0  0
    8.2555  -12.3773   26.5240 C   0  0  0  0  0  0  0  0  0  0  0  0
    8.2229  -13.7445   26.6766 C   0  0  0  0  0  0  0  0  0  0  0  0
    7.1436  -16.6030   24.5425 C   0  0  0  0  0  0  0  0  0  0  0  0
    7.9927  -17.5122   24.3874 O   0  0  0  0  0  0  0  0  0  0  0  0
    7.8701  -14.8241   16.6203 N   0  0  0  0  0  0  0  0  0  0  0  0
    8.6278  -13.9537   17.4493 C   0  0  0  0  0  0  0  0  0  0  0  0
    8.5356  -12.6557   17.2989 N   0  0  0  0  0  0  0  0  0  0  0  0
    9.5057  -14.4239   18.4603 N   0  0  0  0  0  0  0  0  0  0  0  0
    9.0184  -15.1951   19.6025 C   0  0  0  0  0  0  0  0  0  0  0  0
    7.6098  -14.8121   19.9443 C   0  0  0  0  0  0  0  0  0  0  0  0
    7.4901  -14.5056   21.4180 C   0  0  0  0  0  0  0  0  0  0  0  0
    7.8540  -15.6792   22.2944 C   0  0  2  0  0  0  0  0  0  0  0  0
    7.0253  -15.6424   23.5059 N   0  0  0  0  0  0  0  0  0  0  0  0
    9.2593  -15.4512   22.7646 C   0  0  0  0  0  0  0  0  0  0  0  0
    9.4610  -14.4376   23.4774 O   0  0  0  0  0  0  0  0  0  0  0  0
    9.1910  -12.0373   17.8543 N   0  0  0  0  0  0  0  0  0  0  0  0
   13.1197  -16.8413   28.7746 C   0  0  0  0  0  0  0  0  0  0  0  0
   11.7066  -16.7746   28.5191 N   0  0  0  0  0  0  0  0  0  0  0  0
   10.9871  -15.8081   28.9810 N   0  0  0  0  0  0  0  0  0  0  0  0
   11.0909  -17.7877   27.7464 C   0  0  0  0  0  0  0  0  0  0  0  0
   11.6297  -18.1359   26.4622 C   0  0  0  0  0  0  0  0  0  0  0  0
   11.4056  -17.0007   25.5147 C   0  0  0  0  0  0  0  0  0  0  0  0
   11.8316  -17.2699   24.1193 C   0  0  2  0  0  0  0  0  0  0  0  0
   11.5924  -16.1446   23.1514 N   0  0  0  0  0  0  0  0  0  0  0  0
   10.3415  -16.2922   22.4568 C   0  0  0  0  0  0  0  0  0  0  0  0
   12.6584  -15.9949   22.1527 O   0  0  0  0  0  0  0  0  0  0  0  0
   13.7815  -15.2597   22.4562 O   0  0  0  0  0  0  0  0  0  0  0  0
  2  1  1  1
  2 10  1  0
  2  3  1  0
  4  3  1  0
  5  4  2  0
  6  5  1  0
  7  8  1  0
  7  6  2  0
  8  9  2  0
  9  4  1  0
 10 20  1  0
 11 10  2  0
 13 15  1  0
 13 12  1  0
 14 13  2  0
 16 17  1  0
 16 15  1  0
 18 17  1  0
 19 18  1  6
 20 19  1  0
 21 31  1  0
 21 19  1  0
 22 21  2  0
 23 24  1  0
 24 25  2  0
 26 24  1  0
 26 27  1  0
 27 28  1  0
 28 29  1  0
 30 29  1  1
 30 32  1  0
 30 31  1  0
 32 33  1  0
 34 32  2  0
M  END
$$$$
