FRR.pdb
     RDKit          3D

 34 34  0  0  1  0  0  0  0  0999 V2000
    5.9908  -17.8550   25.8213 N   0  0  0  0  0  0  0  0  0  0  0  0
    6.4220  -16.5089   25.5075 C   0  0  1  0  0  0  0  0  0  0  0  0
    7.1958  -15.9761   26.6857 C   0  0  0  0  0  0  0  0  0  0  0  0
    7.2020  -14.5021   26.5906 C   0  0  0  0  0  0  0  0  0  0  0  0
    6.0001  -13.8037   26.6963 C   0  0  0  0  0  0  0  0  0  0  0  0
    6.0401  -12.4266   26.6042 C   0  0  0  0  0  0  0  0  0  0  0  0
    7.2176  -11.7521   26.4146 C   0  0  0  0  0  0  0  0  0  0  0  0
    8.4080  -12.4287   26.3092 C   0  0  0  0  0  0  0  0  0  0  0  0
    8.3604  -13.8008   26.4020 C   0  0  0  0  0  0  0  0  0  0  0  0
    7.2744  -16.4723   24.2796 C   0  0  0  0  0  0  0  0  0  0  0  0
    8.0963  -17.3837   24.0233 O   0  0  0  0  0  0  0  0  0  0  0  0
    9.8594  -14.7204   17.7949 N   0  0  0  0  0  0  0  0  0  0  0  0
    8.7108  -14.1703   17.1651 C   0  0  0  0  0  0  0  0  0  0  0  0
    8.6331  -14.1289   15.8580 N   0  0  0  0  0  0  0  0  0  0  0  0
    7.6105  -13.6464   17.8922 N   0  0  0  0  0  0  0  0  0  0  0  0
    7.7885  -12.9848   19.1834 C   0  0  0  0  0  0  0  0  0  0  0  0
    8.5071  -13.8797   20.1480 C   0  0  0  0  0  0  0  0  0  0  0  0
    7.6992  -14.0479   21.4126 C   0  0  0  0  0  0  0  0  0  0  0  0
    7.9915  -15.3435   22.1294 C   0  0  2  0  0  0  0  0  0  0  0  0
    7.1846  -15.4010   23.3547 N   0  0  0  0  0  0  0  0  0  0  0  0
    9.4159  -15.2722   22.5922 C   0  0  0  0  0  0  0  0  0  0  0  0
    9.7194  -14.3159   23.3469 O   0  0  0  0  0  0  0  0  0  0  0  0
    7.7292  -13.7974   15.4182 N   0  0  0  0  0  0  0  0  0  0  0  0
    9.5707  -20.0658   25.5738 C   0  0  0  0  0  0  0  0  0  0  0  0
   10.3105  -19.3186   26.5541 N   0  0  0  0  0  0  0  0  0  0  0  0
    9.8359  -19.1099   27.7358 N   0  0  0  0  0  0  0  0  0  0  0  0
   11.5841  -18.8010   26.2185 C   0  0  0  0  0  0  0  0  0  0  0  0
   12.1583  -19.0886   24.9346 C   0  0  0  0  0  0  0  0  0  0  0  0
   11.4623  -18.2705   23.8941 C   0  0  0  0  0  0  0  0  0  0  0  0
   12.3535  -17.3731   23.1184 C   0  0  2  0  0  0  0  0  0  0  0  0
   11.7499  -16.0503   22.7362 N   0  0  0  0  0  0  0  0  0  0  0  0
   10.4100  -16.1978   22.2342 C   0  0  0  0  0  0  0  0  0  0  0  0
   12.5366  -15.3143   21.7384 O   0  0  0  0  0  0  0  0  0  0  0  0
   12.0465  -15.1562   20.4622 O   0  0  0  0  0  0  0  0  0  0  0  0
  2  1  1  1
  2 10  1  0
  2  3  1  0
  4  3  1  0
  5  4  2  0
  6  5  1  0
  7  8  1  0
  7  6  2  0
  8  9  2  0
  9  4  1  0
 10 20  1  0
 11 10  2  0
 13 15  1  0
 13 12  1  0
 14 13  2  0
 16 17  1  0
 16 15  1  0
 18 17  1  0
 19 18  1  1
 20 19  1  0
 21 31  1  0
 21 19  1  0
 22 21  2  0
 23 24  1  0
 24 25  2  0
 26 24  1  0
 26 27  1  0
 27 28  1  0
 28 29  1  0
 30 29  1  1
 30 32  1  0
 30 31  1  0
 32 33  1  0
 34 32  2  0
M  END
$$$$
