YIC.pdb
     RDKit          3D

 27 27  0  0  1  0  0  0  0  0999 V2000
   33.2920  -26.8766  -19.8571 O   0  0  0  0  0  0  0  0  0  0  0  0
   32.1092  -27.5590  -19.7380 C   0  0  0  0  0  0  0  0  0  0  0  0
   31.7787  -28.1567  -18.5515 C   0  0  0  0  0  0  0  0  0  0  0  0
   30.5894  -28.8516  -18.4072 C   0  0  0  0  0  0  0  0  0  0  0  0
   29.7207  -28.9468  -19.4701 C   0  0  0  0  0  0  0  0  0  0  0  0
   28.4604  -29.6966  -19.2789 C   0  0  0  0  0  0  0  0  0  0  0  0
   28.6960  -31.1787  -19.1315 C   0  0  2  0  0  0  0  0  0  0  0  0
   29.2468  -31.7450  -20.3216 N   0  0  0  0  0  0  0  0  0  0  0  0
   27.3456  -31.7823  -18.8133 C   0  0  0  0  0  0  0  0  0  0  0  0
   26.7994  -32.5074  -19.6500 O   0  0  0  0  0  0  0  0  0  0  0  0
   30.0275  -28.3530  -20.6819 C   0  0  0  0  0  0  0  0  0  0  0  0
   31.2148  -27.6714  -20.7918 C   0  0  0  0  0  0  0  0  0  0  0  0
   25.2845  -35.6054  -15.3012 C   0  0  0  0  0  0  0  0  0  0  0  0
   25.0507  -34.1209  -15.4478 C   0  0  0  0  0  0  0  0  0  0  0  0
   26.1599  -33.4870  -16.3047 C   0  0  2  0  0  0  0  0  0  0  0  0
   27.2259  -33.1351  -15.2860 C   0  0  0  0  0  0  0  0  0  0  0  0
   25.6674  -32.2068  -16.9283 C   0  0  2  0  0  0  0  0  0  0  0  0
   26.7648  -31.5006  -17.5902 N   0  0  0  0  0  0  0  0  0  0  0  0
   24.9875  -31.3456  -15.9829 C   0  0  0  0  0  0  0  0  0  0  0  0
   25.6306  -30.9213  -14.9202 O   0  0  0  0  0  0  0  0  0  0  0  0
   23.6798  -30.8757  -16.0545 N   0  0  0  0  0  0  0  0  0  0  0  0
   23.1015  -29.9434  -15.0957 C   0  0  1  0  0  0  0  0  0  0  0  0
   22.3775  -28.8127  -15.7889 C   0  0  0  0  0  0  0  0  0  0  0  0
   23.6483  -27.7450  -16.5336 S   0  0  0  0  0  0  0  0  0  0  0  0
   22.1026  -30.6587  -14.2893 C   0  0  0  0  0  0  0  0  0  0  0  0
   21.7874  -31.8357  -14.5569 O   0  0  0  0  0  0  0  0  0  0  0  0
   21.5009  -30.0394  -13.2272 O   0  0  0  0  0  0  0  0  0  0  0  0
  2  1  1  0
  3  2  2  0
  4  3  1  0
  5 11  1  0
  5  4  2  0
  6  7  1  0
  6  5  1  0
  7  8  1  6
  9 10  2  0
  9  7  1  0
 11 12  2  0
 12  2  1  0
 14 13  1  0
 14 15  1  0
 15 17  1  0
 15 16  1  1
 17 18  1  1
 18  9  1  0
 19 17  1  0
 20 19  2  0
 21 19  1  0
 22 21  1  0
 22 23  1  6
 23 24  1  0
 25 27  1  0
 25 22  1  0
 26 25  2  0
M  END
$$$$
