YIC.pdb
     RDKit          3D

 27 27  0  0  1  0  0  0  0  0999 V2000
   29.1476  -15.1544  -18.4134 O   0  0  0  0  0  0  0  0  0  0  0  0
   28.4990  -16.0892  -17.6490 C   0  0  0  0  0  0  0  0  0  0  0  0
   28.0539  -17.2518  -18.2185 C   0  0  0  0  0  0  0  0  0  0  0  0
   27.3962  -18.2111  -17.4666 C   0  0  0  0  0  0  0  0  0  0  0  0
   27.1831  -17.9985  -16.1239 C   0  0  0  0  0  0  0  0  0  0  0  0
   26.4774  -19.0448  -15.3530 C   0  0  0  0  0  0  0  0  0  0  0  0
   27.4291  -19.9208  -14.5779 C   0  0  2  0  0  0  0  0  0  0  0  0
   28.2556  -20.6973  -15.4464 N   0  0  0  0  0  0  0  0  0  0  0  0
   26.5620  -20.8076  -13.7114 C   0  0  0  0  0  0  0  0  0  0  0  0
   26.2571  -21.9325  -14.1186 O   0  0  0  0  0  0  0  0  0  0  0  0
   27.6216  -16.8329  -15.5201 C   0  0  0  0  0  0  0  0  0  0  0  0
   28.2704  -15.9021  -16.2941 C   0  0  0  0  0  0  0  0  0  0  0  0
   27.0526  -20.3841   -8.3539 C   0  0  0  0  0  0  0  0  0  0  0  0
   26.7052  -20.9875   -9.6937 C   0  0  0  0  0  0  0  0  0  0  0  0
   25.3439  -20.4617  -10.1803 C   0  0  2  0  0  0  0  0  0  0  0  0
   24.3535  -21.2000   -9.3017 C   0  0  0  0  0  0  0  0  0  0  0  0
   25.1055  -20.8795  -11.6081 C   0  0  2  0  0  0  0  0  0  0  0  0
   26.1376  -20.3269  -12.4860 N   0  0  0  0  0  0  0  0  0  0  0  0
   23.7800  -20.5368  -12.0809 C   0  0  0  0  0  0  0  0  0  0  0  0
   23.5576  -19.3347  -12.5590 O   0  0  0  0  0  0  0  0  0  0  0  0
   22.6531  -21.3523  -12.1059 N   0  0  0  0  0  0  0  0  0  0  0  0
   21.4284  -21.0183  -12.8211 C   0  0  1  0  0  0  0  0  0  0  0  0
   21.4184  -21.6112  -14.2110 C   0  0  0  0  0  0  0  0  0  0  0  0
   19.7916  -21.2399  -14.9356 S   0  0  0  0  0  0  0  0  0  0  0  0
   20.2892  -21.6029  -12.0998 C   0  0  0  0  0  0  0  0  0  0  0  0
   20.3708  -22.7365  -11.5851 O   0  0  0  0  0  0  0  0  0  0  0  0
   19.1161  -20.9074  -11.9821 O   0  0  0  0  0  0  0  0  0  0  0  0
  2  1  1  0
  3  2  2  0
  4  3  1  0
  5 11  1  0
  5  4  2  0
  6  7  1  0
  6  5  1  0
  7  8  1  6
  9 10  2  0
  9  7  1  0
 11 12  2  0
 12  2  1  0
 14 13  1  0
 14 15  1  0
 15 17  1  0
 15 16  1  1
 17 18  1  6
 18  9  1  0
 19 17  1  0
 20 19  2  0
 21 19  1  0
 22 21  1  0
 22 23  1  6
 23 24  1  0
 25 27  1  0
 25 22  1  0
 26 25  2  0
M  END
$$$$
