YIC.pdb
     RDKit          3D

 27 27  0  0  1  0  0  0  0  0999 V2000
   19.8172  -18.7386  -13.9639 O   0  0  0  0  0  0  0  0  0  0  0  0
   20.1603  -17.4853  -14.4001 C   0  0  0  0  0  0  0  0  0  0  0  0
   19.2190  -16.4921  -14.4421 C   0  0  0  0  0  0  0  0  0  0  0  0
   19.5420  -15.2181  -14.8791 C   0  0  0  0  0  0  0  0  0  0  0  0
   20.8286  -14.9390  -15.2791 C   0  0  0  0  0  0  0  0  0  0  0  0
   21.1365  -13.5677  -15.7394 C   0  0  0  0  0  0  0  0  0  0  0  0
   20.7412  -13.3474  -17.1778 C   0  0  2  0  0  0  0  0  0  0  0  0
   21.4469  -14.2238  -18.0578 N   0  0  0  0  0  0  0  0  0  0  0  0
   21.0605  -11.8991  -17.4771 C   0  0  0  0  0  0  0  0  0  0  0  0
   22.1707  -11.6106  -17.9338 O   0  0  0  0  0  0  0  0  0  0  0  0
   21.8017  -15.9225  -15.2477 C   0  0  0  0  0  0  0  0  0  0  0  0
   21.4486  -17.1753  -14.8091 C   0  0  0  0  0  0  0  0  0  0  0  0
   17.8571  -10.1293  -20.4202 C   0  0  0  0  0  0  0  0  0  0  0  0
   19.1524   -9.6042  -19.8487 C   0  0  0  0  0  0  0  0  0  0  0  0
   18.9451   -9.1326  -18.3993 C   0  0  2  0  0  0  0  0  0  0  0  0
   18.9247   -7.6222  -18.5261 C   0  0  0  0  0  0  0  0  0  0  0  0
   20.1317   -9.5155  -17.5534 C   0  0  2  0  0  0  0  0  0  0  0  0
   20.0940  -10.9416  -17.2281 N   0  0  0  0  0  0  0  0  0  0  0  0
   20.2523   -8.7100  -16.3556 C   0  0  0  0  0  0  0  0  0  0  0  0
   19.3849   -8.8683  -15.3831 O   0  0  0  0  0  0  0  0  0  0  0  0
   21.2164   -7.7465  -16.0770 N   0  0  0  0  0  0  0  0  0  0  0  0
   21.2981   -7.0252  -14.8137 C   0  0  1  0  0  0  0  0  0  0  0  0
   22.6911   -6.4942  -14.5671 C   0  0  0  0  0  0  0  0  0  0  0  0
   22.6546   -5.6283  -12.9676 S   0  0  0  0  0  0  0  0  0  0  0  0
   20.4032   -5.8613  -14.8788 C   0  0  0  0  0  0  0  0  0  0  0  0
   20.4140   -5.0999  -15.8670 O   0  0  0  0  0  0  0  0  0  0  0  0
   19.5405   -5.5953  -13.8499 O   0  0  0  0  0  0  0  0  0  0  0  0
  2  1  1  0
  3  2  2  0
  4  3  1  0
  5 11  1  0
  5  4  2  0
  6  7  1  0
  6  5  1  0
  7  8  1  6
  9 10  2  0
  9  7  1  0
 11 12  2  0
 12  2  1  0
 14 13  1  0
 14 15  1  0
 15 17  1  0
 15 16  1  6
 17 18  1  1
 18  9  1  0
 19 17  1  0
 20 19  2  0
 21 19  1  0
 22 21  1  0
 22 23  1  6
 23 24  1  0
 25 27  1  0
 25 22  1  0
 26 25  2  0
M  END
$$$$
