YIC.pdb
     RDKit          3D

 27 27  0  0  1  0  0  0  0  0999 V2000
   21.5723  -17.7859  -16.7728 O   0  0  0  0  0  0  0  0  0  0  0  0
   22.0044  -18.4255  -15.6401 C   0  0  0  0  0  0  0  0  0  0  0  0
   22.7591  -17.7519  -14.7176 C   0  0  0  0  0  0  0  0  0  0  0  0
   23.2072  -18.3769  -13.5657 C   0  0  0  0  0  0  0  0  0  0  0  0
   22.8922  -19.6969  -13.3382 C   0  0  0  0  0  0  0  0  0  0  0  0
   23.3879  -20.3309  -12.0975 C   0  0  0  0  0  0  0  0  0  0  0  0
   24.8914  -20.4446  -12.0772 C   0  0  2  0  0  0  0  0  0  0  0  0
   25.3769  -21.2035  -13.1857 N   0  0  0  0  0  0  0  0  0  0  0  0
   25.2377  -21.1120  -10.7643 C   0  0  0  0  0  0  0  0  0  0  0  0
   25.1695  -22.3417  -10.6790 O   0  0  0  0  0  0  0  0  0  0  0  0
   22.1309  -20.4038  -14.2526 C   0  0  0  0  0  0  0  0  0  0  0  0
   21.7024  -19.7546  -15.3845 C   0  0  0  0  0  0  0  0  0  0  0  0
   28.4335  -19.3782   -5.7429 C   0  0  0  0  0  0  0  0  0  0  0  0
   27.4139  -20.3118   -6.3500 C   0  0  0  0  0  0  0  0  0  0  0  0
   26.9889  -19.8086   -7.7401 C   0  0  2  0  0  0  0  0  0  0  0  0
   26.3057  -18.4898   -7.4370 C   0  0  0  0  0  0  0  0  0  0  0  0
   25.9662  -20.7388   -8.3394 C   0  0  2  0  0  0  0  0  0  0  0  0
   25.6212  -20.3189   -9.6980 N   0  0  0  0  0  0  0  0  0  0  0  0
   24.7807  -20.8757   -7.5186 C   0  0  0  0  0  0  0  0  0  0  0  0
   23.8499  -19.9518   -7.5724 O   0  0  0  0  0  0  0  0  0  0  0  0
   24.4739  -21.9104   -6.6404 N   0  0  0  0  0  0  0  0  0  0  0  0
   23.1852  -22.0521   -5.9757 C   0  0  1  0  0  0  0  0  0  0  0  0
   22.7324  -23.4934   -5.9450 C   0  0  0  0  0  0  0  0  0  0  0  0
   20.9163  -23.4824   -6.0500 S   0  0  0  0  0  0  0  0  0  0  0  0
   23.3276  -21.6199   -4.5783 C   0  0  0  0  0  0  0  0  0  0  0  0
   24.4306  -21.6807   -3.9985 O   0  0  0  0  0  0  0  0  0  0  0  0
   22.2455  -21.1417   -3.8898 O   0  0  0  0  0  0  0  0  0  0  0  0
  2  1  1  0
  3  2  2  0
  4  3  1  0
  5 11  1  0
  5  4  2  0
  6  7  1  0
  6  5  1  0
  7  8  1  6
  9 10  2  0
  9  7  1  0
 11 12  2  0
 12  2  1  0
 14 13  1  0
 14 15  1  0
 15 17  1  0
 15 16  1  1
 17 18  1  6
 18  9  1  0
 19 17  1  0
 20 19  2  0
 21 19  1  0
 22 21  1  0
 22 23  1  1
 23 24  1  0
 25 27  1  0
 25 22  1  0
 26 25  2  0
M  END
$$$$
