YIC.pdb
     RDKit          3D

 27 27  0  0  1  0  0  0  0  0999 V2000
   15.6368  -22.8539  -11.7101 O   0  0  0  0  0  0  0  0  0  0  0  0
   16.9248  -22.6081  -12.1094 C   0  0  0  0  0  0  0  0  0  0  0  0
   17.9257  -22.5180  -11.1797 C   0  0  0  0  0  0  0  0  0  0  0  0
   19.2346  -22.2704  -11.5590 C   0  0  0  0  0  0  0  0  0  0  0  0
   19.5412  -22.1113  -12.8909 C   0  0  0  0  0  0  0  0  0  0  0  0
   20.9493  -21.8482  -13.2584 C   0  0  0  0  0  0  0  0  0  0  0  0
   21.3369  -20.4082  -13.0353 C   0  0  2  0  0  0  0  0  0  0  0  0
   20.5886  -19.5259  -13.8732 N   0  0  0  0  0  0  0  0  0  0  0  0
   22.8168  -20.3265  -13.3392 C   0  0  0  0  0  0  0  0  0  0  0  0
   23.1851  -19.8078  -14.3972 O   0  0  0  0  0  0  0  0  0  0  0  0
   18.5507  -22.1970  -13.8537 C   0  0  0  0  0  0  0  0  0  0  0  0
   17.2631  -22.4436  -13.4441 C   0  0  0  0  0  0  0  0  0  0  0  0
   25.9299  -20.5747   -8.7839 C   0  0  0  0  0  0  0  0  0  0  0  0
   25.4758  -20.1521  -10.1606 C   0  0  0  0  0  0  0  0  0  0  0  0
   25.7795  -21.2572  -11.1865 C   0  0  2  0  0  0  0  0  0  0  0  0
   27.2875  -21.1945  -11.3269 C   0  0  0  0  0  0  0  0  0  0  0  0
   25.1702  -20.9100  -12.5202 C   0  0  2  0  0  0  0  0  0  0  0  0
   23.7123  -20.8379  -12.4176 N   0  0  0  0  0  0  0  0  0  0  0  0
   25.5749  -21.8147  -13.5764 C   0  0  0  0  0  0  0  0  0  0  0  0
   26.8226  -21.8114  -13.9844 O   0  0  0  0  0  0  0  0  0  0  0  0
   24.7826  -22.7408  -14.2476 N   0  0  0  0  0  0  0  0  0  0  0  0
   25.2770  -23.6132  -15.3045 C   0  0  1  0  0  0  0  0  0  0  0  0
   24.8153  -25.0387  -15.1085 C   0  0  0  0  0  0  0  0  0  0  0  0
   25.5343  -26.0210  -16.4602 S   0  0  0  0  0  0  0  0  0  0  0  0
   24.7226  -23.1578  -16.5871 C   0  0  0  0  0  0  0  0  0  0  0  0
   23.6138  -22.5882  -16.6391 O   0  0  0  0  0  0  0  0  0  0  0  0
   25.4193  -23.3536  -17.7489 O   0  0  0  0  0  0  0  0  0  0  0  0
  2  1  1  0
  3  2  2  0
  4  3  1  0
  5 11  1  0
  5  4  2  0
  6  7  1  0
  6  5  1  0
  7  8  1  6
  9 10  2  0
  9  7  1  0
 11 12  2  0
 12  2  1  0
 14 13  1  0
 14 15  1  0
 15 17  1  0
 15 16  1  6
 17 18  1  1
 18  9  1  0
 19 17  1  0
 20 19  2  0
 21 19  1  0
 22 21  1  0
 22 23  1  1
 23 24  1  0
 25 27  1  0
 25 22  1  0
 26 25  2  0
M  END
$$$$
