YIC.pdb
     RDKit          3D

 27 27  0  0  1  0  0  0  0  0999 V2000
   18.4659  -14.4691  -17.4760 O   0  0  0  0  0  0  0  0  0  0  0  0
   19.2982  -15.4250  -16.9542 C   0  0  0  0  0  0  0  0  0  0  0  0
   18.8426  -16.7021  -16.7654 C   0  0  0  0  0  0  0  0  0  0  0  0
   19.6649  -17.6848  -16.2397 C   0  0  0  0  0  0  0  0  0  0  0  0
   20.9627  -17.3794  -15.8994 C   0  0  0  0  0  0  0  0  0  0  0  0
   21.8113  -18.4542  -15.3410 C   0  0  0  0  0  0  0  0  0  0  0  0
   22.8891  -18.8869  -16.3028 C   0  0  2  0  0  0  0  0  0  0  0  0
   22.3423  -19.5615  -17.4371 N   0  0  0  0  0  0  0  0  0  0  0  0
   23.8053  -19.7971  -15.5148 C   0  0  0  0  0  0  0  0  0  0  0  0
   23.3936  -20.9072  -15.1649 O   0  0  0  0  0  0  0  0  0  0  0  0
   21.4516  -16.0971  -16.0788 C   0  0  0  0  0  0  0  0  0  0  0  0
   20.6102  -15.1460  -16.6023 C   0  0  0  0  0  0  0  0  0  0  0  0
   29.0900  -19.4084  -16.7507 C   0  0  0  0  0  0  0  0  0  0  0  0
   27.7308  -19.9068  -16.3215 C   0  0  0  0  0  0  0  0  0  0  0  0
   27.4833  -19.5756  -14.8399 C   0  0  2  0  0  0  0  0  0  0  0  0
   28.5043  -20.4327  -14.1182 C   0  0  0  0  0  0  0  0  0  0  0  0
   26.1094  -20.0364  -14.4268 C   0  0  2  0  0  0  0  0  0  0  0  0
   25.0796  -19.3538  -15.2109 N   0  0  0  0  0  0  0  0  0  0  0  0
   25.8690  -19.8862  -13.0064 C   0  0  0  0  0  0  0  0  0  0  0  0
   25.8389  -18.6833  -12.4819 O   0  0  0  0  0  0  0  0  0  0  0  0
   25.6465  -20.8949  -12.0742 N   0  0  0  0  0  0  0  0  0  0  0  0
   25.4410  -20.6516  -10.6525 C   0  0  1  0  0  0  0  0  0  0  0  0
   24.3240  -21.5058  -10.0993 C   0  0  0  0  0  0  0  0  0  0  0  0
   23.1345  -20.3790   -9.3090 S   0  0  0  0  0  0  0  0  0  0  0  0
   26.6640  -21.0284   -9.9301 C   0  0  0  0  0  0  0  0  0  0  0  0
   27.4622  -21.8578  -10.4114 O   0  0  0  0  0  0  0  0  0  0  0  0
   26.9458  -20.4712   -8.7120 O   0  0  0  0  0  0  0  0  0  0  0  0
  2  1  1  0
  3  2  2  0
  4  3  1  0
  5 11  1  0
  5  4  2  0
  6  7  1  0
  6  5  1  0
  7  8  1  6
  9 10  2  0
  9  7  1  0
 11 12  2  0
 12  2  1  0
 14 13  1  0
 14 15  1  0
 15 17  1  0
 15 16  1  1
 17 18  1  6
 18  9  1  0
 19 17  1  0
 20 19  2  0
 21 19  1  0
 22 21  1  0
 22 23  1  1
 23 24  1  0
 25 27  1  0
 25 22  1  0
 26 25  2  0
M  END
$$$$
