YIC.pdb
     RDKit          3D

 27 27  0  0  1  0  0  0  0  0999 V2000
   28.3709  -15.9403  -20.8818 O   0  0  0  0  0  0  0  0  0  0  0  0
   27.8377  -16.7987  -19.9557 C   0  0  0  0  0  0  0  0  0  0  0  0
   27.4493  -18.0569  -20.3303 C   0  0  0  0  0  0  0  0  0  0  0  0
   26.9080  -18.9417  -19.4126 C   0  0  0  0  0  0  0  0  0  0  0  0
   26.7553  -18.5564  -18.1005 C   0  0  0  0  0  0  0  0  0  0  0  0
   26.1738  -19.5277  -17.1489 C   0  0  0  0  0  0  0  0  0  0  0  0
   27.2206  -20.4283  -16.5432 C   0  0  2  0  0  0  0  0  0  0  0  0
   27.7385  -21.3523  -17.5016 N   0  0  0  0  0  0  0  0  0  0  0  0
   26.5357  -21.1498  -15.4032 C   0  0  0  0  0  0  0  0  0  0  0  0
   25.9440  -22.2090  -15.6316 O   0  0  0  0  0  0  0  0  0  0  0  0
   27.1388  -17.2909  -17.6920 C   0  0  0  0  0  0  0  0  0  0  0  0
   27.6720  -16.4378  -18.6270 C   0  0  0  0  0  0  0  0  0  0  0  0
   29.1588  -20.6764  -10.7855 C   0  0  0  0  0  0  0  0  0  0  0  0
   28.2605  -21.2651  -11.8468 C   0  0  0  0  0  0  0  0  0  0  0  0
   26.8334  -20.7076  -11.7090 C   0  0  2  0  0  0  0  0  0  0  0  0
   26.2936  -21.4345  -10.4932 C   0  0  0  0  0  0  0  0  0  0  0  0
   26.0021  -21.1068  -12.9005 C   0  0  2  0  0  0  0  0  0  0  0  0
   26.5953  -20.5966  -14.1370 N   0  0  0  0  0  0  0  0  0  0  0  0
   24.6165  -20.7024  -12.7808 C   0  0  0  0  0  0  0  0  0  0  0  0
   24.3234  -19.4258  -12.6938 O   0  0  0  0  0  0  0  0  0  0  0  0
   23.4942  -21.5243  -12.7515 N   0  0  0  0  0  0  0  0  0  0  0  0
   22.1255  -21.0249  -12.7463 C   0  0  1  0  0  0  0  0  0  0  0  0
   21.2248  -21.8659  -13.6208 C   0  0  0  0  0  0  0  0  0  0  0  0
   21.8678  -21.7447  -15.3182 S   0  0  0  0  0  0  0  0  0  0  0  0
   21.5976  -21.1160  -11.3778 C   0  0  0  0  0  0  0  0  0  0  0  0
   22.2343  -21.7097  -10.4841 O   0  0  0  0  0  0  0  0  0  0  0  0
   20.3930  -20.5472  -11.0632 O   0  0  0  0  0  0  0  0  0  0  0  0
  2  1  1  0
  3  2  2  0
  4  3  1  0
  5 11  1  0
  5  4  2  0
  6  7  1  0
  6  5  1  0
  7  8  1  6
  9 10  2  0
  9  7  1  0
 11 12  2  0
 12  2  1  0
 14 13  1  0
 14 15  1  0
 15 17  1  0
 15 16  1  1
 17 18  1  6
 18  9  1  0
 19 17  1  0
 20 19  2  0
 21 19  1  0
 22 21  1  0
 22 23  1  6
 23 24  1  0
 25 27  1  0
 25 22  1  0
 26 25  2  0
M  END
$$$$
