YIC.pdb
     RDKit          3D

 27 27  0  0  1  0  0  0  0  0999 V2000
   17.7309  -29.9458   -7.7077 O   0  0  0  0  0  0  0  0  0  0  0  0
   17.8036  -28.6314   -8.0897 C   0  0  0  0  0  0  0  0  0  0  0  0
   18.8316  -28.2048   -8.8869 C   0  0  0  0  0  0  0  0  0  0  0  0
   18.9263  -26.8818   -9.2857 C   0  0  0  0  0  0  0  0  0  0  0  0
   17.9746  -25.9756   -8.8776 C   0  0  0  0  0  0  0  0  0  0  0  0
   18.1083  -24.5718   -9.3231 C   0  0  0  0  0  0  0  0  0  0  0  0
   19.2845  -23.8800   -8.6815 C   0  0  2  0  0  0  0  0  0  0  0  0
   19.1082  -23.7412   -7.2708 N   0  0  0  0  0  0  0  0  0  0  0  0
   19.3872  -22.5291   -9.3550 C   0  0  0  0  0  0  0  0  0  0  0  0
   18.8042  -21.5626   -8.8549 O   0  0  0  0  0  0  0  0  0  0  0  0
   16.9238  -26.3774   -8.0715 C   0  0  0  0  0  0  0  0  0  0  0  0
   16.8592  -27.6964   -7.6938 C   0  0  0  0  0  0  0  0  0  0  0  0
   23.6840  -20.3933   -9.0252 C   0  0  0  0  0  0  0  0  0  0  0  0
   22.2320  -20.6514   -9.3490 C   0  0  0  0  0  0  0  0  0  0  0  0
   22.0651  -20.9628  -10.8461 C   0  0  2  0  0  0  0  0  0  0  0  0
   22.4896  -19.6719  -11.5177 C   0  0  0  0  0  0  0  0  0  0  0  0
   20.6129  -21.2027  -11.1684 C   0  0  2  0  0  0  0  0  0  0  0  0
   20.1342  -22.4208  -10.5139 N   0  0  0  0  0  0  0  0  0  0  0  0
   20.3510  -21.2381  -12.5925 C   0  0  0  0  0  0  0  0  0  0  0  0
   20.9256  -22.1592  -13.3304 O   0  0  0  0  0  0  0  0  0  0  0  0
   19.5245  -20.3897  -13.3225 N   0  0  0  0  0  0  0  0  0  0  0  0
   19.2681  -20.5399  -14.7489 C   0  0  1  0  0  0  0  0  0  0  0  0
   17.8448  -20.1718  -15.0984 C   0  0  0  0  0  0  0  0  0  0  0  0
   16.7624  -21.1096  -13.9767 S   0  0  0  0  0  0  0  0  0  0  0  0
   20.1410  -19.6133  -15.4831 C   0  0  0  0  0  0  0  0  0  0  0  0
   20.6972  -18.6603  -14.9007 O   0  0  0  0  0  0  0  0  0  0  0  0
   20.3570  -19.7840  -16.8239 O   0  0  0  0  0  0  0  0  0  0  0  0
  2  1  1  0
  3  2  2  0
  4  3  1  0
  5 11  1  0
  5  4  2  0
  6  7  1  0
  6  5  1  0
  7  8  1  1
  9 10  2  0
  9  7  1  0
 11 12  2  0
 12  2  1  0
 14 13  1  0
 14 15  1  0
 15 17  1  0
 15 16  1  6
 17 18  1  6
 18  9  1  0
 19 17  1  0
 20 19  2  0
 21 19  1  0
 22 21  1  0
 22 23  1  1
 23 24  1  0
 25 27  1  0
 25 22  1  0
 26 25  2  0
M  END
$$$$
