YIC.pdb
     RDKit          3D

 27 27  0  0  1  0  0  0  0  0999 V2000
   19.8641  -18.5509  -21.2648 O   0  0  0  0  0  0  0  0  0  0  0  0
   20.1897  -17.5678  -20.3669 C   0  0  0  0  0  0  0  0  0  0  0  0
   19.7580  -17.6525  -19.0705 C   0  0  0  0  0  0  0  0  0  0  0  0
   20.0742  -16.6716  -18.1453 C   0  0  0  0  0  0  0  0  0  0  0  0
   20.8348  -15.5909  -18.5287 C   0  0  0  0  0  0  0  0  0  0  0  0
   21.1527  -14.5634  -17.5137 C   0  0  0  0  0  0  0  0  0  0  0  0
   22.5354  -14.7394  -16.9384 C   0  0  2  0  0  0  0  0  0  0  0  0
   22.6682  -15.9898  -16.2606 N   0  0  0  0  0  0  0  0  0  0  0  0
   22.7390  -13.5790  -15.9893 C   0  0  0  0  0  0  0  0  0  0  0  0
   22.3206  -13.6693  -14.8313 O   0  0  0  0  0  0  0  0  0  0  0  0
   21.2857  -15.4778  -19.8323 C   0  0  0  0  0  0  0  0  0  0  0  0
   20.9544  -16.4677  -20.7249 C   0  0  0  0  0  0  0  0  0  0  0  0
   27.5415  -11.7484  -15.5616 C   0  0  0  0  0  0  0  0  0  0  0  0
   26.0810  -12.0384  -15.3106 C   0  0  0  0  0  0  0  0  0  0  0  0
   25.2053  -10.9151  -15.8916 C   0  0  2  0  0  0  0  0  0  0  0  0
   25.5372   -9.7267  -15.0109 C   0  0  0  0  0  0  0  0  0  0  0  0
   23.7467  -11.2437  -15.7045 C   0  0  2  0  0  0  0  0  0  0  0  0
   23.3902  -12.4499  -16.4521 N   0  0  0  0  0  0  0  0  0  0  0  0
   22.8730  -10.1403  -16.0467 C   0  0  0  0  0  0  0  0  0  0  0  0
   22.8447   -9.7008  -17.2832 O   0  0  0  0  0  0  0  0  0  0  0  0
   22.0088   -9.4513  -15.2015 N   0  0  0  0  0  0  0  0  0  0  0  0
   21.1660   -8.3444  -15.6339 C   0  0  1  0  0  0  0  0  0  0  0  0
   19.9672   -8.1739  -14.7299 C   0  0  0  0  0  0  0  0  0  0  0  0
   19.0111   -6.7668  -15.3744 S   0  0  0  0  0  0  0  0  0  0  0  0
   21.9443   -7.1007  -15.5493 C   0  0  0  0  0  0  0  0  0  0  0  0
   22.6046   -6.8269  -14.5268 O   0  0  0  0  0  0  0  0  0  0  0  0
   21.9554   -6.2204  -16.5975 O   0  0  0  0  0  0  0  0  0  0  0  0
  2  1  1  0
  3  2  2  0
  4  3  1  0
  5 11  1  0
  5  4  2  0
  6  7  1  0
  6  5  1  0
  7  8  1  1
  9 10  2  0
  9  7  1  0
 11 12  2  0
 12  2  1  0
 14 13  1  0
 14 15  1  0
 15 17  1  0
 15 16  1  1
 17 18  1  6
 18  9  1  0
 19 17  1  0
 20 19  2  0
 21 19  1  0
 22 21  1  0
 22 23  1  1
 23 24  1  0
 25 27  1  0
 25 22  1  0
 26 25  2  0
M  END
$$$$
