VSY.pdb
     RDKit          3D

 26 26  0  0  1  0  0  0  0  0999 V2000
    7.3845  -12.3840   17.8953 C   0  0  0  0  0  0  0  0  0  0  0  0
    7.7006  -13.3480   19.0228 C   0  0  2  0  0  0  0  0  0  0  0  0
    8.5443  -12.6936   20.0770 C   0  0  0  0  0  0  0  0  0  0  0  0
    8.2822  -14.6465   18.5188 C   0  0  2  0  0  0  0  0  0  0  0  0
    7.3603  -15.1751   17.5344 N   0  0  0  0  0  0  0  0  0  0  0  0
    8.5036  -15.6299   19.5784 C   0  0  0  0  0  0  0  0  0  0  0  0
    7.5860  -16.2459   20.1820 O   0  0  0  0  0  0  0  0  0  0  0  0
   12.2854  -17.2859   20.2525 O   0  0  0  0  0  0  0  0  0  0  0  0
   11.1231  -17.9126   20.6610 C   0  0  0  0  0  0  0  0  0  0  0  0
   10.1062  -16.8759   21.0522 C   0  0  2  0  0  0  0  0  0  0  0  0
    9.8271  -15.9417   19.9855 N   0  0  0  0  0  0  0  0  0  0  0  0
   10.5646  -16.2149   22.2855 C   0  0  0  0  0  0  0  0  0  0  0  0
   11.3765  -15.2555   22.3144 O   0  0  0  0  0  0  0  0  0  0  0  0
   11.0958  -14.4702   30.9070 O   0  0  0  0  0  0  0  0  0  0  0  0
   10.6979  -14.8441   29.6476 C   0  0  0  0  0  0  0  0  0  0  0  0
   10.4019  -13.8770   28.7050 C   0  0  0  0  0  0  0  0  0  0  0  0
    9.9996  -14.2230   27.4315 C   0  0  0  0  0  0  0  0  0  0  0  0
    9.8899  -15.5389   27.0906 C   0  0  0  0  0  0  0  0  0  0  0  0
    9.4580  -15.9764   25.7511 C   0  0  0  0  0  0  0  0  0  0  0  0
   10.6005  -16.1175   24.7735 C   0  0  2  0  0  0  0  0  0  0  0  0
   10.0603  -16.6867   23.5264 N   0  0  0  0  0  0  0  0  0  0  0  0
   11.6159  -17.0275   25.3509 C   0  0  0  0  0  0  0  0  0  0  0  0
   12.7319  -16.4655   25.9741 O   0  0  0  0  0  0  0  0  0  0  0  0
   10.1848  -16.5079   28.0291 C   0  0  0  0  0  0  0  0  0  0  0  0
   10.5918  -16.1738   29.3172 C   0  0  0  0  0  0  0  0  0  0  0  0
   11.5317  -18.2735   25.3126 O   0  0  0  0  0  0  0  0  0  0  0  0
  2  1  1  6
  2  3  1  0
  4  6  1  0
  4  2  1  0
  4  5  1  6
  6  7  2  0
  9  8  1  0
 10  9  1  6
 11  6  1  0
 11 10  1  0
 12 21  1  0
 12 10  1  0
 13 12  2  0
 15 14  1  0
 16 15  2  0
 17 16  1  0
 18 17  2  0
 18 24  1  0
 19 18  1  0
 20 22  1  0
 20 19  1  1
 20 21  1  0
 22 23  1  0
 24 25  2  0
 25 15  1  0
 26 22  2  0
M  END
$$$$
