VSY.pdb
     RDKit          3D

 26 26  0  0  1  0  0  0  0  0999 V2000
    7.4950  -12.6076   17.5672 C   0  0  0  0  0  0  0  0  0  0  0  0
    7.4466  -13.4244   18.8443 C   0  0  2  0  0  0  0  0  0  0  0  0
    7.9729  -12.6410   20.0108 C   0  0  0  0  0  0  0  0  0  0  0  0
    8.1089  -14.7716   18.6870 C   0  0  2  0  0  0  0  0  0  0  0  0
    7.4389  -15.4536   17.5987 N   0  0  0  0  0  0  0  0  0  0  0  0
    8.0544  -15.5870   19.8999 C   0  0  0  0  0  0  0  0  0  0  0  0
    7.0897  -16.3327   20.2146 O   0  0  0  0  0  0  0  0  0  0  0  0
    9.9442  -18.1962   20.6998 O   0  0  0  0  0  0  0  0  0  0  0  0
    9.0409  -17.8561   21.6892 C   0  0  0  0  0  0  0  0  0  0  0  0
    9.1672  -16.3899   21.9999 C   0  0  2  0  0  0  0  0  0  0  0  0
    9.1414  -15.5666   20.8124 N   0  0  0  0  0  0  0  0  0  0  0  0
   10.3802  -16.1873   22.8095 C   0  0  0  0  0  0  0  0  0  0  0  0
   11.3877  -16.9384   22.7748 O   0  0  0  0  0  0  0  0  0  0  0  0
   10.9660  -15.7409   31.4193 O   0  0  0  0  0  0  0  0  0  0  0  0
   10.6533  -15.5786   30.0927 C   0  0  0  0  0  0  0  0  0  0  0  0
   10.3894  -16.6862   29.3083 C   0  0  0  0  0  0  0  0  0  0  0  0
   10.0724  -16.5537   27.9722 C   0  0  0  0  0  0  0  0  0  0  0  0
   10.0170  -15.3126   27.4096 C   0  0  0  0  0  0  0  0  0  0  0  0
    9.6928  -15.1016   25.9875 C   0  0  0  0  0  0  0  0  0  0  0  0
   10.8817  -15.2786   25.0730 C   0  0  2  0  0  0  0  0  0  0  0  0
   10.4213  -15.0727   23.6885 N   0  0  0  0  0  0  0  0  0  0  0  0
   11.4109  -16.6520   25.2350 C   0  0  0  0  0  0  0  0  0  0  0  0
   10.6290  -17.7203   24.7909 O   0  0  0  0  0  0  0  0  0  0  0  0
   10.2798  -14.2038   28.1897 C   0  0  0  0  0  0  0  0  0  0  0  0
   10.6006  -14.3221   29.5385 C   0  0  0  0  0  0  0  0  0  0  0  0
   12.5202  -16.9114   25.7478 O   0  0  0  0  0  0  0  0  0  0  0  0
  2  1  1  6
  2  3  1  0
  4  6  1  0
  4  2  1  0
  4  5  1  6
  6  7  2  0
  9  8  1  0
 10  9  1  6
 11  6  1  0
 11 10  1  0
 12 21  1  0
 12 10  1  0
 13 12  2  0
 15 14  1  0
 16 15  2  0
 17 16  1  0
 18 17  2  0
 18 24  1  0
 19 18  1  0
 20 22  1  0
 20 19  1  1
 20 21  1  0
 22 23  1  0
 24 25  2  0
 25 15  1  0
 26 22  2  0
M  END
$$$$
