VSY.pdb
     RDKit          3D

 26 26  0  0  1  0  0  0  0  0999 V2000
   13.6595  -14.1085   19.4338 C   0  0  0  0  0  0  0  0  0  0  0  0
   13.5265  -15.4018   18.6527 C   0  0  2  0  0  0  0  0  0  0  0  0
   14.4921  -15.4455   17.5050 C   0  0  0  0  0  0  0  0  0  0  0  0
   12.1008  -15.6761   18.2394 C   0  0  2  0  0  0  0  0  0  0  0  0
   11.7534  -14.7005   17.2265 N   0  0  0  0  0  0  0  0  0  0  0  0
   11.1534  -15.6047   19.3511 C   0  0  0  0  0  0  0  0  0  0  0  0
   10.7629  -14.5342   19.8871 O   0  0  0  0  0  0  0  0  0  0  0  0
    9.8050  -19.1377   21.2754 O   0  0  0  0  0  0  0  0  0  0  0  0
    8.9333  -18.0721   21.1517 C   0  0  0  0  0  0  0  0  0  0  0  0
    9.7180  -16.7948   21.0293 C   0  0  2  0  0  0  0  0  0  0  0  0
   10.6122  -16.7993   19.8940 N   0  0  0  0  0  0  0  0  0  0  0  0
   10.4137  -16.5508   22.3038 C   0  0  0  0  0  0  0  0  0  0  0  0
   11.6429  -16.7407   22.4867 O   0  0  0  0  0  0  0  0  0  0  0  0
   10.8743  -14.9028   30.9835 O   0  0  0  0  0  0  0  0  0  0  0  0
   10.5300  -14.9251   29.6550 C   0  0  0  0  0  0  0  0  0  0  0  0
   11.3535  -14.3235   28.7215 C   0  0  0  0  0  0  0  0  0  0  0  0
   11.0332  -14.3301   27.3796 C   0  0  0  0  0  0  0  0  0  0  0  0
    9.8867  -14.9383   26.9605 C   0  0  0  0  0  0  0  0  0  0  0  0
    9.4818  -14.9743   25.5438 C   0  0  0  0  0  0  0  0  0  0  0  0
   10.3120  -15.9223   24.7112 C   0  0  2  0  0  0  0  0  0  0  0  0
    9.6525  -16.0692   23.4017 N   0  0  0  0  0  0  0  0  0  0  0  0
   10.3775  -17.2323   25.3983 C   0  0  0  0  0  0  0  0  0  0  0  0
   11.5299  -17.5438   26.1229 O   0  0  0  0  0  0  0  0  0  0  0  0
    9.0616  -15.5404   27.8897 C   0  0  0  0  0  0  0  0  0  0  0  0
    9.3718  -15.5417   29.2462 C   0  0  0  0  0  0  0  0  0  0  0  0
    9.4585  -18.0780   25.3673 O   0  0  0  0  0  0  0  0  0  0  0  0
  2  1  1  6
  2  3  1  0
  4  6  1  0
  4  2  1  0
  4  5  1  6
  6  7  2  0
  9  8  1  0
 10  9  1  1
 11  6  1  0
 11 10  1  0
 12 21  1  0
 12 10  1  0
 13 12  2  0
 15 14  1  0
 16 15  2  0
 17 16  1  0
 18 17  2  0
 18 24  1  0
 19 18  1  0
 20 22  1  0
 20 19  1  1
 20 21  1  0
 22 23  1  0
 24 25  2  0
 25 15  1  0
 26 22  2  0
M  END
$$$$
