VSY.pdb
     RDKit          3D

 26 26  0  0  1  0  0  0  0  0999 V2000
    7.9480  -12.2513   18.8625 C   0  0  0  0  0  0  0  0  0  0  0  0
    7.9510  -13.2106   20.0372 C   0  0  2  0  0  0  0  0  0  0  0  0
    8.8055  -12.6952   21.1578 C   0  0  0  0  0  0  0  0  0  0  0  0
    8.3009  -14.6196   19.6240 C   0  0  2  0  0  0  0  0  0  0  0  0
    7.3652  -15.0069   18.5882 N   0  0  0  0  0  0  0  0  0  0  0  0
    8.2495  -15.5753   20.7299 C   0  0  0  0  0  0  0  0  0  0  0  0
    7.1871  -16.0034   21.2531 O   0  0  0  0  0  0  0  0  0  0  0  0
   11.7624  -17.4601   21.9919 O   0  0  0  0  0  0  0  0  0  0  0  0
   10.5456  -18.0904   22.1723 C   0  0  0  0  0  0  0  0  0  0  0  0
    9.4672  -17.0567   22.3472 C   0  0  2  0  0  0  0  0  0  0  0  0
    9.4557  -16.0806   21.2815 N   0  0  0  0  0  0  0  0  0  0  0  0
    9.6171  -16.4470   23.6790 C   0  0  0  0  0  0  0  0  0  0  0  0
   10.2763  -15.4014   23.9085 O   0  0  0  0  0  0  0  0  0  0  0  0
    6.0949  -10.9578   26.1175 O   0  0  0  0  0  0  0  0  0  0  0  0
    6.5166  -12.2557   26.2652 C   0  0  0  0  0  0  0  0  0  0  0  0
    5.6340  -13.2952   26.0369 C   0  0  0  0  0  0  0  0  0  0  0  0
    6.0295  -14.6094   26.1775 C   0  0  0  0  0  0  0  0  0  0  0  0
    7.3107  -14.8946   26.5478 C   0  0  0  0  0  0  0  0  0  0  0  0
    7.7954  -16.2753   26.7239 C   0  0  0  0  0  0  0  0  0  0  0  0
    9.1631  -16.5070   26.1267 C   0  0  2  0  0  0  0  0  0  0  0  0
    8.9776  -17.0757   24.7801 N   0  0  0  0  0  0  0  0  0  0  0  0
    9.9055  -17.4591   26.9840 C   0  0  0  0  0  0  0  0  0  0  0  0
   10.3930  -17.0049   28.2112 O   0  0  0  0  0  0  0  0  0  0  0  0
    8.1953  -13.8592   26.7767 C   0  0  0  0  0  0  0  0  0  0  0  0
    7.8106  -12.5290   26.6386 C   0  0  0  0  0  0  0  0  0  0  0  0
   10.1218  -18.6494   26.6719 O   0  0  0  0  0  0  0  0  0  0  0  0
  2  1  1  6
  2  3  1  0
  4  6  1  0
  4  2  1  0
  4  5  1  6
  6  7  2  0
  9  8  1  0
 10  9  1  6
 11  6  1  0
 11 10  1  0
 12 21  1  0
 12 10  1  0
 13 12  2  0
 15 14  1  0
 16 15  2  0
 17 16  1  0
 18 17  2  0
 18 24  1  0
 19 18  1  0
 20 22  1  0
 20 19  1  1
 20 21  1  0
 22 23  1  0
 24 25  2  0
 25 15  1  0
 26 22  2  0
M  END
$$$$
