VSY.pdb
     RDKit          3D

 26 26  0  0  1  0  0  0  0  0999 V2000
    6.8538  -13.2009   20.4951 C   0  0  0  0  0  0  0  0  0  0  0  0
    8.2802  -13.1208   19.9857 C   0  0  2  0  0  0  0  0  0  0  0  0
    8.4479  -11.9894   19.0146 C   0  0  0  0  0  0  0  0  0  0  0  0
    8.7699  -14.4430   19.4466 C   0  0  2  0  0  0  0  0  0  0  0  0
    8.0776  -14.6783   18.1961 N   0  0  0  0  0  0  0  0  0  0  0  0
    8.5440  -15.5598   20.3635 C   0  0  0  0  0  0  0  0  0  0  0  0
    7.8466  -16.5731   20.0942 O   0  0  0  0  0  0  0  0  0  0  0  0
   10.7229  -17.8884   21.7492 O   0  0  0  0  0  0  0  0  0  0  0  0
    9.3808  -17.9461   22.0748 C   0  0  0  0  0  0  0  0  0  0  0  0
    8.9368  -16.6112   22.6069 C   0  0  2  0  0  0  0  0  0  0  0  0
    9.1320  -15.5413   21.6552 N   0  0  0  0  0  0  0  0  0  0  0  0
    9.6212  -16.3686   23.8879 C   0  0  0  0  0  0  0  0  0  0  0  0
   10.7743  -15.8788   23.9924 O   0  0  0  0  0  0  0  0  0  0  0  0
    5.9340  -11.2391   25.8599 O   0  0  0  0  0  0  0  0  0  0  0  0
    6.5622  -12.4034   26.2253 C   0  0  0  0  0  0  0  0  0  0  0  0
    7.8690  -12.3672   26.6754 C   0  0  0  0  0  0  0  0  0  0  0  0
    8.5259  -13.5212   27.0495 C   0  0  0  0  0  0  0  0  0  0  0  0
    7.8813  -14.7208   26.9764 C   0  0  0  0  0  0  0  0  0  0  0  0
    8.5273  -15.9910   27.3525 C   0  0  0  0  0  0  0  0  0  0  0  0
    9.5943  -16.4282   26.3771 C   0  0  2  0  0  0  0  0  0  0  0  0
    8.9398  -16.7074   25.0868 N   0  0  0  0  0  0  0  0  0  0  0  0
   10.2438  -17.6541   26.8947 C   0  0  0  0  0  0  0  0  0  0  0  0
   10.0646  -18.8468   26.1911 O   0  0  0  0  0  0  0  0  0  0  0  0
    6.5760  -14.7613   26.5275 C   0  0  0  0  0  0  0  0  0  0  0  0
    5.9009  -13.6056   26.1470 C   0  0  0  0  0  0  0  0  0  0  0  0
   10.9453  -17.6832   27.9281 O   0  0  0  0  0  0  0  0  0  0  0  0
  2  1  1  6
  2  3  1  0
  4  6  1  0
  4  2  1  0
  4  5  1  6
  6  7  2  0
  9  8  1  0
 10  9  1  6
 11  6  1  0
 11 10  1  0
 12 21  1  0
 12 10  1  0
 13 12  2  0
 15 14  1  0
 16 15  2  0
 17 16  1  0
 18 17  2  0
 18 24  1  0
 19 18  1  0
 20 22  1  0
 20 19  1  1
 20 21  1  0
 22 23  1  0
 24 25  2  0
 25 15  1  0
 26 22  2  0
M  END
$$$$
