VSY.pdb
     RDKit          3D

 26 26  0  0  1  0  0  0  0  0999 V2000
    7.4556  -12.6722   20.5613 C   0  0  0  0  0  0  0  0  0  0  0  0
    8.7389  -13.1048   19.8784 C   0  0  2  0  0  0  0  0  0  0  0  0
    9.1260  -12.1458   18.7912 C   0  0  0  0  0  0  0  0  0  0  0  0
    8.6831  -14.5393   19.4120 C   0  0  2  0  0  0  0  0  0  0  0  0
    7.7217  -14.6007   18.3301 N   0  0  0  0  0  0  0  0  0  0  0  0
    8.3083  -15.4764   20.4704 C   0  0  0  0  0  0  0  0  0  0  0  0
    7.1262  -15.8263   20.7268 O   0  0  0  0  0  0  0  0  0  0  0  0
   10.8527  -18.2821   21.8081 O   0  0  0  0  0  0  0  0  0  0  0  0
    9.5183  -18.3376   22.1642 C   0  0  0  0  0  0  0  0  0  0  0  0
    9.0003  -16.9429   22.3845 C   0  0  2  0  0  0  0  0  0  0  0  0
    9.3139  -16.0547   21.2884 N   0  0  0  0  0  0  0  0  0  0  0  0
    9.5077  -16.4557   23.6780 C   0  0  0  0  0  0  0  0  0  0  0  0
   10.5244  -15.7284   23.8107 O   0  0  0  0  0  0  0  0  0  0  0  0
    5.8639  -11.0761   25.8485 O   0  0  0  0  0  0  0  0  0  0  0  0
    6.4303  -12.2915   26.1419 C   0  0  0  0  0  0  0  0  0  0  0  0
    5.7368  -13.4563   25.8702 C   0  0  0  0  0  0  0  0  0  0  0  0
    6.2808  -14.6919   26.1542 C   0  0  0  0  0  0  0  0  0  0  0  0
    7.5225  -14.7726   26.7123 C   0  0  0  0  0  0  0  0  0  0  0  0
    8.1577  -16.0595   27.0479 C   0  0  0  0  0  0  0  0  0  0  0  0
    9.3343  -16.3919   26.1613 C   0  0  2  0  0  0  0  0  0  0  0  0
    8.8074  -16.8278   24.8560 N   0  0  0  0  0  0  0  0  0  0  0  0
   10.1125  -17.4852   26.7872 C   0  0  0  0  0  0  0  0  0  0  0  0
   10.8645  -17.1948   27.9274 O   0  0  0  0  0  0  0  0  0  0  0  0
    8.2185  -13.6115   26.9851 C   0  0  0  0  0  0  0  0  0  0  0  0
    7.6826  -12.3584   26.7040 C   0  0  0  0  0  0  0  0  0  0  0  0
   10.1353  -18.6563   26.3529 O   0  0  0  0  0  0  0  0  0  0  0  0
  2  1  1  6
  2  3  1  0
  4  6  1  0
  4  2  1  0
  4  5  1  6
  6  7  2  0
  9  8  1  0
 10  9  1  6
 11  6  1  0
 11 10  1  0
 12 21  1  0
 12 10  1  0
 13 12  2  0
 15 14  1  0
 16 15  2  0
 17 16  1  0
 18 17  2  0
 18 24  1  0
 19 18  1  0
 20 22  1  0
 20 19  1  1
 20 21  1  0
 22 23  1  0
 24 25  2  0
 25 15  1  0
 26 22  2  0
M  END
$$$$
