VSY.pdb
     RDKit          3D

 26 26  0  0  1  0  0  0  0  0999 V2000
    7.4684  -13.0430   19.2394 C   0  0  0  0  0  0  0  0  0  0  0  0
    8.3467  -13.7235   18.2069 C   0  0  2  0  0  0  0  0  0  0  0  0
    8.2426  -13.0450   16.8727 C   0  0  0  0  0  0  0  0  0  0  0  0
    8.0997  -15.2110   18.1371 C   0  0  2  0  0  0  0  0  0  0  0  0
    6.8417  -15.4041   17.4453 N   0  0  0  0  0  0  0  0  0  0  0  0
    8.0533  -15.8509   19.4514 C   0  0  0  0  0  0  0  0  0  0  0  0
    7.2965  -15.4930   20.3920 O   0  0  0  0  0  0  0  0  0  0  0  0
    8.8648  -19.6256   20.0825 O   0  0  0  0  0  0  0  0  0  0  0  0
    8.5093  -18.8834   21.1930 C   0  0  0  0  0  0  0  0  0  0  0  0
    9.0603  -17.4901   21.0613 C   0  0  2  0  0  0  0  0  0  0  0  0
    8.9022  -16.9542   19.7285 N   0  0  0  0  0  0  0  0  0  0  0  0
   10.4622  -17.4984   21.5114 C   0  0  0  0  0  0  0  0  0  0  0  0
   11.4431  -17.7503   20.7664 O   0  0  0  0  0  0  0  0  0  0  0  0
   13.8086  -13.9619   18.1782 O   0  0  0  0  0  0  0  0  0  0  0  0
   13.5241  -14.4181   19.4412 C   0  0  0  0  0  0  0  0  0  0  0  0
   14.5249  -14.9841   20.2090 C   0  0  0  0  0  0  0  0  0  0  0  0
   14.2685  -15.4513   21.4816 C   0  0  0  0  0  0  0  0  0  0  0  0
   13.0091  -15.3564   21.9963 C   0  0  0  0  0  0  0  0  0  0  0  0
   12.6660  -15.8430   23.3445 C   0  0  0  0  0  0  0  0  0  0  0  0
   12.1248  -17.2530   23.3489 C   0  0  2  0  0  0  0  0  0  0  0  0
   10.7307  -17.2032   22.8742 N   0  0  0  0  0  0  0  0  0  0  0  0
   12.1736  -17.7810   24.7314 C   0  0  0  0  0  0  0  0  0  0  0  0
   13.4184  -18.1111   25.2713 O   0  0  0  0  0  0  0  0  0  0  0  0
   12.0068  -14.7916   21.2326 C   0  0  0  0  0  0  0  0  0  0  0  0
   12.2507  -14.3161   19.9478 C   0  0  0  0  0  0  0  0  0  0  0  0
   11.1622  -17.9488   25.4453 O   0  0  0  0  0  0  0  0  0  0  0  0
  2  1  1  1
  2  3  1  0
  4  6  1  0
  4  2  1  0
  4  5  1  1
  6  7  2  0
  9  8  1  0
 10  9  1  6
 11  6  1  0
 11 10  1  0
 12 21  1  0
 12 10  1  0
 13 12  2  0
 15 14  1  0
 16 15  2  0
 17 16  1  0
 18 17  2  0
 18 24  1  0
 19 18  1  0
 20 22  1  0
 20 19  1  1
 20 21  1  0
 22 23  1  0
 24 25  2  0
 25 15  1  0
 26 22  2  0
M  END
$$$$
