VSY.pdb
     RDKit          3D

 26 26  0  0  1  0  0  0  0  0999 V2000
    7.3387  -12.3142   18.0243 C   0  0  0  0  0  0  0  0  0  0  0  0
    7.5836  -13.3920   19.0629 C   0  0  2  0  0  0  0  0  0  0  0  0
    8.2711  -12.8337   20.2741 C   0  0  0  0  0  0  0  0  0  0  0  0
    8.2869  -14.5953   18.4833 C   0  0  2  0  0  0  0  0  0  0  0  0
    7.4636  -15.0917   17.3997 N   0  0  0  0  0  0  0  0  0  0  0  0
    8.5197  -15.6556   19.4633 C   0  0  0  0  0  0  0  0  0  0  0  0
    7.6233  -16.4124   19.9211 O   0  0  0  0  0  0  0  0  0  0  0  0
   12.2784  -17.2225   20.1256 O   0  0  0  0  0  0  0  0  0  0  0  0
   11.1342  -17.8775   20.5406 C   0  0  0  0  0  0  0  0  0  0  0  0
   10.1099  -16.8670   20.9788 C   0  0  2  0  0  0  0  0  0  0  0  0
    9.8303  -15.8818   19.9592 N   0  0  0  0  0  0  0  0  0  0  0  0
   10.5594  -16.2666   22.2459 C   0  0  0  0  0  0  0  0  0  0  0  0
   11.2316  -15.2074   22.3277 O   0  0  0  0  0  0  0  0  0  0  0  0
   11.1557  -14.4801   30.7786 O   0  0  0  0  0  0  0  0  0  0  0  0
   10.7689  -14.8741   29.5219 C   0  0  0  0  0  0  0  0  0  0  0  0
   10.6615  -16.2204   29.2265 C   0  0  0  0  0  0  0  0  0  0  0  0
   10.2750  -16.6460   27.9724 C   0  0  0  0  0  0  0  0  0  0  0  0
    9.9932  -15.7285   27.0035 C   0  0  0  0  0  0  0  0  0  0  0  0
    9.5833  -16.1154   25.6418 C   0  0  0  0  0  0  0  0  0  0  0  0
   10.7507  -16.3952   24.7253 C   0  0  2  0  0  0  0  0  0  0  0  0
   10.2140  -16.9212   23.4578 N   0  0  0  0  0  0  0  0  0  0  0  0
   11.6302  -17.4015   25.3627 C   0  0  0  0  0  0  0  0  0  0  0  0
   12.7994  -16.9603   25.9859 O   0  0  0  0  0  0  0  0  0  0  0  0
   10.0992  -14.3828   27.2946 C   0  0  0  0  0  0  0  0  0  0  0  0
   10.4876  -13.9390   28.5549 C   0  0  0  0  0  0  0  0  0  0  0  0
   11.3861  -18.6267   25.3754 O   0  0  0  0  0  0  0  0  0  0  0  0
  2  1  1  6
  2  3  1  0
  4  6  1  0
  4  2  1  0
  4  5  1  6
  6  7  2  0
  9  8  1  0
 10  9  1  6
 11  6  1  0
 11 10  1  0
 12 21  1  0
 12 10  1  0
 13 12  2  0
 15 14  1  0
 16 15  2  0
 17 16  1  0
 18 17  2  0
 18 24  1  0
 19 18  1  0
 20 22  1  0
 20 19  1  1
 20 21  1  0
 22 23  1  0
 24 25  2  0
 25 15  1  0
 26 22  2  0
M  END
$$$$
