VSY.pdb
     RDKit          3D

 26 26  0  0  1  0  0  0  0  0999 V2000
    6.6216  -13.4583   19.8743 C   0  0  0  0  0  0  0  0  0  0  0  0
    8.0657  -12.9945   19.8658 C   0  0  2  0  0  0  0  0  0  0  0  0
    8.3018  -11.9716   18.7938 C   0  0  0  0  0  0  0  0  0  0  0  0
    9.0367  -14.1488   19.8087 C   0  0  2  0  0  0  0  0  0  0  0  0
    8.9696  -14.6989   18.4703 N   0  0  0  0  0  0  0  0  0  0  0  0
    8.7533  -15.1911   20.7947 C   0  0  0  0  0  0  0  0  0  0  0  0
    7.5979  -15.5878   21.1003 O   0  0  0  0  0  0  0  0  0  0  0  0
   11.7792  -17.6638   22.1320 O   0  0  0  0  0  0  0  0  0  0  0  0
   10.4619  -18.0496   22.2938 C   0  0  0  0  0  0  0  0  0  0  0  0
    9.6038  -16.8304   22.4923 C   0  0  2  0  0  0  0  0  0  0  0  0
    9.8238  -15.8254   21.4774 N   0  0  0  0  0  0  0  0  0  0  0  0
    9.8235  -16.3225   23.8568 C   0  0  0  0  0  0  0  0  0  0  0  0
   10.5501  -15.3352   24.1358 O   0  0  0  0  0  0  0  0  0  0  0  0
    6.3280  -10.8582   26.3170 O   0  0  0  0  0  0  0  0  0  0  0  0
    6.7323  -12.1630   26.4518 C   0  0  0  0  0  0  0  0  0  0  0  0
    6.0094  -13.1727   25.8440 C   0  0  0  0  0  0  0  0  0  0  0  0
    6.3918  -14.4929   25.9620 C   0  0  0  0  0  0  0  0  0  0  0  0
    7.5001  -14.8141   26.6890 C   0  0  0  0  0  0  0  0  0  0  0  0
    7.9584  -16.2042   26.8617 C   0  0  0  0  0  0  0  0  0  0  0  0
    9.3365  -16.4515   26.2954 C   0  0  2  0  0  0  0  0  0  0  0  0
    9.1752  -16.9862   24.9319 N   0  0  0  0  0  0  0  0  0  0  0  0
   10.0360  -17.4379   27.1500 C   0  0  0  0  0  0  0  0  0  0  0  0
   10.2871  -18.7081   26.6270 O   0  0  0  0  0  0  0  0  0  0  0  0
    8.2249  -13.8085   27.2976 C   0  0  0  0  0  0  0  0  0  0  0  0
    7.8513  -12.4726   27.1871 C   0  0  0  0  0  0  0  0  0  0  0  0
   10.4159  -17.1988   28.3159 O   0  0  0  0  0  0  0  0  0  0  0  0
  2  1  1  6
  2  3  1  0
  4  6  1  0
  4  2  1  0
  4  5  1  6
  6  7  2  0
  9  8  1  0
 10  9  1  6
 11  6  1  0
 11 10  1  0
 12 21  1  0
 12 10  1  0
 13 12  2  0
 15 14  1  0
 16 15  2  0
 17 16  1  0
 18 17  2  0
 18 24  1  0
 19 18  1  0
 20 22  1  0
 20 19  1  1
 20 21  1  0
 22 23  1  0
 24 25  2  0
 25 15  1  0
 26 22  2  0
M  END
$$$$
