VSY.pdb
     RDKit          3D

 26 26  0  0  1  0  0  0  0  0999 V2000
    6.9630  -14.3874   19.0732 C   0  0  0  0  0  0  0  0  0  0  0  0
    7.7689  -13.2539   19.6782 C   0  0  2  0  0  0  0  0  0  0  0  0
    8.2382  -12.2966   18.6223 C   0  0  0  0  0  0  0  0  0  0  0  0
    8.8845  -13.7544   20.5634 C   0  0  2  0  0  0  0  0  0  0  0  0
    9.8614  -14.3898   19.7031 N   0  0  0  0  0  0  0  0  0  0  0  0
    8.4310  -14.6942   21.5881 C   0  0  0  0  0  0  0  0  0  0  0  0
    7.5394  -14.4431   22.4411 O   0  0  0  0  0  0  0  0  0  0  0  0
   10.3838  -18.3578   21.9391 O   0  0  0  0  0  0  0  0  0  0  0  0
    9.0812  -18.3277   22.4004 C   0  0  0  0  0  0  0  0  0  0  0  0
    8.6999  -16.9109   22.7314 C   0  0  2  0  0  0  0  0  0  0  0  0
    9.0083  -15.9888   21.6622 N   0  0  0  0  0  0  0  0  0  0  0  0
    9.3376  -16.5418   24.0062 C   0  0  0  0  0  0  0  0  0  0  0  0
   10.3974  -15.8720   24.0994 O   0  0  0  0  0  0  0  0  0  0  0  0
    5.9962  -11.2059   25.9918 O   0  0  0  0  0  0  0  0  0  0  0  0
    6.5501  -12.4115   26.3435 C   0  0  0  0  0  0  0  0  0  0  0  0
    5.8562  -13.5829   26.1029 C   0  0  0  0  0  0  0  0  0  0  0  0
    6.3877  -14.8090   26.4455 C   0  0  0  0  0  0  0  0  0  0  0  0
    7.6174  -14.8735   27.0318 C   0  0  0  0  0  0  0  0  0  0  0  0
    8.2388  -16.1493   27.4298 C   0  0  0  0  0  0  0  0  0  0  0  0
    9.3399  -16.5923   26.4958 C   0  0  2  0  0  0  0  0  0  0  0  0
    8.7202  -16.9666   25.2124 N   0  0  0  0  0  0  0  0  0  0  0  0
   10.0299  -17.7608   27.0883 C   0  0  0  0  0  0  0  0  0  0  0  0
    9.9550  -18.9842   26.4194 O   0  0  0  0  0  0  0  0  0  0  0  0
    8.3138  -13.7058   27.2737 C   0  0  0  0  0  0  0  0  0  0  0  0
    7.7903  -12.4622   26.9334 C   0  0  0  0  0  0  0  0  0  0  0  0
   10.6775  -17.7154   28.1557 O   0  0  0  0  0  0  0  0  0  0  0  0
  2  1  1  6
  2  3  1  0
  4  6  1  0
  4  2  1  0
  4  5  1  6
  6  7  2  0
  9  8  1  0
 10  9  1  6
 11  6  1  0
 11 10  1  0
 12 21  1  0
 12 10  1  0
 13 12  2  0
 15 14  1  0
 16 15  2  0
 17 16  1  0
 18 17  2  0
 18 24  1  0
 19 18  1  0
 20 22  1  0
 20 19  1  1
 20 21  1  0
 22 23  1  0
 24 25  2  0
 25 15  1  0
 26 22  2  0
M  END
$$$$
