VSY.pdb
     RDKit          3D

 26 26  0  0  1  0  0  0  0  0999 V2000
    7.4582  -12.0291   19.5196 C   0  0  0  0  0  0  0  0  0  0  0  0
    7.7070  -13.0416   20.6212 C   0  0  2  0  0  0  0  0  0  0  0  0
    8.9490  -12.7091   21.3947 C   0  0  0  0  0  0  0  0  0  0  0  0
    7.6899  -14.4610   20.1078 C   0  0  2  0  0  0  0  0  0  0  0  0
    6.4452  -14.6413   19.3890 N   0  0  0  0  0  0  0  0  0  0  0  0
    7.8061  -15.4604   21.1692 C   0  0  0  0  0  0  0  0  0  0  0  0
    6.8306  -15.9481   21.7988 O   0  0  0  0  0  0  0  0  0  0  0  0
   11.5262  -17.4400   21.4412 O   0  0  0  0  0  0  0  0  0  0  0  0
   10.2969  -18.0692   21.3811 C   0  0  0  0  0  0  0  0  0  0  0  0
    9.2787  -17.2512   22.1270 C   0  0  2  0  0  0  0  0  0  0  0  0
    9.0868  -15.9412   21.5476 N   0  0  0  0  0  0  0  0  0  0  0  0
    9.6718  -17.1970   23.5449 C   0  0  0  0  0  0  0  0  0  0  0  0
    9.9216  -18.2081   24.2491 O   0  0  0  0  0  0  0  0  0  0  0  0
    5.6242  -11.1557   26.4347 O   0  0  0  0  0  0  0  0  0  0  0  0
    6.3206  -12.3373   26.3801 C   0  0  0  0  0  0  0  0  0  0  0  0
    7.7023  -12.3235   26.4272 C   0  0  0  0  0  0  0  0  0  0  0  0
    8.4287  -13.4952   26.3742 C   0  0  0  0  0  0  0  0  0  0  0  0
    7.7791  -14.6901   26.2735 C   0  0  0  0  0  0  0  0  0  0  0  0
    8.4944  -15.9769   26.2042 C   0  0  0  0  0  0  0  0  0  0  0  0
    9.8864  -15.8543   25.6310 C   0  0  2  0  0  0  0  0  0  0  0  0
    9.7781  -15.9230   24.1631 N   0  0  0  0  0  0  0  0  0  0  0  0
   10.7124  -16.9756   26.1339 C   0  0  0  0  0  0  0  0  0  0  0  0
   11.0383  -17.0021   27.4915 O   0  0  0  0  0  0  0  0  0  0  0  0
    6.3991  -14.7082   26.2263 C   0  0  0  0  0  0  0  0  0  0  0  0
    5.6535  -13.5345   26.2789 C   0  0  0  0  0  0  0  0  0  0  0  0
   11.1362  -17.9026   25.4115 O   0  0  0  0  0  0  0  0  0  0  0  0
  2  1  1  6
  2  3  1  0
  4  6  1  0
  4  2  1  0
  4  5  1  1
  6  7  2  0
  9  8  1  0
 10  9  1  6
 11  6  1  0
 11 10  1  0
 12 21  1  0
 12 10  1  0
 13 12  2  0
 15 14  1  0
 16 15  2  0
 17 16  1  0
 18 17  2  0
 18 24  1  0
 19 18  1  0
 20 22  1  0
 20 19  1  1
 20 21  1  0
 22 23  1  0
 24 25  2  0
 25 15  1  0
 26 22  2  0
M  END
$$$$
