VSY.pdb
     RDKit          3D

 26 26  0  0  1  0  0  0  0  0999 V2000
    6.9782  -14.3256   18.5674 C   0  0  0  0  0  0  0  0  0  0  0  0
    7.7649  -13.1462   19.1064 C   0  0  2  0  0  0  0  0  0  0  0  0
    7.8107  -12.0233   18.1123 C   0  0  0  0  0  0  0  0  0  0  0  0
    9.1299  -13.5506   19.6080 C   0  0  2  0  0  0  0  0  0  0  0  0
    9.8721  -14.0545   18.4706 N   0  0  0  0  0  0  0  0  0  0  0  0
    9.0811  -14.5619   20.6634 C   0  0  0  0  0  0  0  0  0  0  0  0
    8.5134  -14.4037   21.7763 O   0  0  0  0  0  0  0  0  0  0  0  0
   11.7010  -17.8306   20.6480 O   0  0  0  0  0  0  0  0  0  0  0  0
   10.3999  -18.1061   21.0244 C   0  0  0  0  0  0  0  0  0  0  0  0
    9.7337  -16.8396   21.4873 C   0  0  2  0  0  0  0  0  0  0  0  0
    9.7029  -15.8218   20.4619 N   0  0  0  0  0  0  0  0  0  0  0  0
   10.3973  -16.3877   22.7215 C   0  0  0  0  0  0  0  0  0  0  0  0
   11.3081  -15.5219   22.7589 O   0  0  0  0  0  0  0  0  0  0  0  0
   11.2805  -14.9524   31.3393 O   0  0  0  0  0  0  0  0  0  0  0  0
   10.8535  -15.2064   30.0598 C   0  0  0  0  0  0  0  0  0  0  0  0
   10.7996  -14.1786   29.1366 C   0  0  0  0  0  0  0  0  0  0  0  0
   10.3746  -14.4040   27.8436 C   0  0  0  0  0  0  0  0  0  0  0  0
   10.0000  -15.6590   27.4635 C   0  0  0  0  0  0  0  0  0  0  0  0
    9.5288  -15.9662   26.1012 C   0  0  0  0  0  0  0  0  0  0  0  0
   10.6185  -16.4958   25.1994 C   0  0  2  0  0  0  0  0  0  0  0  0
    9.9862  -16.9628   23.9531 N   0  0  0  0  0  0  0  0  0  0  0  0
   11.2980  -17.6223   25.8791 C   0  0  0  0  0  0  0  0  0  0  0  0
   10.7628  -18.9039   25.7342 O   0  0  0  0  0  0  0  0  0  0  0  0
   10.0525  -16.6884   28.3825 C   0  0  0  0  0  0  0  0  0  0  0  0
   10.4791  -16.4759   29.6899 C   0  0  0  0  0  0  0  0  0  0  0  0
   12.3259  -17.4921   26.5772 O   0  0  0  0  0  0  0  0  0  0  0  0
  2  1  1  6
  2  3  1  0
  4  6  1  0
  4  2  1  0
  4  5  1  6
  6  7  2  0
  9  8  1  0
 10  9  1  6
 11  6  1  0
 11 10  1  0
 12 21  1  0
 12 10  1  0
 13 12  2  0
 15 14  1  0
 16 15  2  0
 17 16  1  0
 18 17  2  0
 18 24  1  0
 19 18  1  0
 20 22  1  0
 20 19  1  1
 20 21  1  0
 22 23  1  0
 24 25  2  0
 25 15  1  0
 26 22  2  0
M  END
$$$$
