LGP.pdb
     RDKit          3D

 20 20  0  0  1  0  0  0  0  0999 V2000
   17.9287  -14.1404    1.7420 C   0  0  0  0  0  0  0  0  0  0  0  0
   17.2742  -14.9120    2.8443 C   0  0  1  0  0  0  0  0  0  0  0  0
   17.7849  -16.3274    2.8515 C   0  0  0  0  0  0  0  0  0  0  0  0
   17.3760  -14.2581    4.1821 C   0  0  0  0  0  0  0  0  0  0  0  0
   17.1724  -15.2209    5.3272 C   0  0  2  0  0  0  0  0  0  0  0  0
   16.0718  -14.7628    6.1523 N   0  0  0  0  0  0  0  0  0  0  0  0
   18.3782  -15.3020    6.1873 C   0  0  0  0  0  0  0  0  0  0  0  0
   19.4181  -15.9145    5.7689 O   0  0  0  0  0  0  0  0  0  0  0  0
   18.4744  -14.7345    7.4835 N   0  0  0  0  0  0  0  0  0  0  0  0
   19.7067  -14.7323    8.2484 C   0  0  0  0  0  0  0  0  0  0  0  0
   20.1572  -16.1195    8.5537 C   0  0  0  0  0  0  0  0  0  0  0  0
   19.5291  -17.1235    8.1509 O   0  0  0  0  0  0  0  0  0  0  0  0
   21.3368  -16.2688    9.3261 N   0  0  0  0  0  0  0  0  0  0  0  0
   22.1366  -15.1604    9.8002 C   0  0  0  0  0  0  0  0  0  0  0  0
   23.5385  -15.7200    9.9978 C   0  0  0  0  0  0  0  0  0  0  0  0
   23.4485  -17.1692    9.5415 C   0  0  0  0  0  0  0  0  0  0  0  0
   21.9827  -17.4643    9.7945 C   0  0  1  0  0  0  0  0  0  0  0  0
   21.7042  -17.7621   11.2071 C   0  0  0  0  0  0  0  0  0  0  0  0
   21.3330  -16.9178   12.0453 O   0  0  0  0  0  0  0  0  0  0  0  0
   21.8640  -19.0690   11.6403 O   0  0  0  0  0  0  0  0  0  0  0  0
  2  1  1  6
  3  2  1  0
  4  2  1  0
  5  4  1  0
  5  6  1  1
  7  5  1  0
  7  8  2  0
  9  7  1  0
 10  9  1  0
 10 11  1  0
 11 13  1  0
 12 11  2  0
 13 14  1  0
 13 17  1  0
 14 15  1  0
 16 15  1  0
 17 16  1  0
 18 20  1  0
 17 18  1  1
 19 18  2  0
M  END
$$$$
