LGP.pdb
     RDKit          3D

 20 20  0  0  1  0  0  0  0  0999 V2000
   23.0224  -19.4483  -14.3978 C   0  0  0  0  0  0  0  0  0  0  0  0
   23.0918  -20.2107  -13.1122 C   0  0  1  0  0  0  0  0  0  0  0  0
   23.0012  -21.6873  -13.3874 C   0  0  0  0  0  0  0  0  0  0  0  0
   24.2666  -19.8560  -12.2626 C   0  0  0  0  0  0  0  0  0  0  0  0
   24.3590  -20.6875  -11.0057 C   0  0  2  0  0  0  0  0  0  0  0  0
   23.1398  -20.5351  -10.2361 N   0  0  0  0  0  0  0  0  0  0  0  0
   25.4901  -20.2522  -10.1505 C   0  0  0  0  0  0  0  0  0  0  0  0
   26.6836  -20.5931  -10.4519 O   0  0  0  0  0  0  0  0  0  0  0  0
   25.3497  -19.4596   -8.9828 N   0  0  0  0  0  0  0  0  0  0  0  0
   26.4825  -19.0374   -8.1814 C   0  0  0  0  0  0  0  0  0  0  0  0
   26.9188  -20.1156   -7.2499 C   0  0  0  0  0  0  0  0  0  0  0  0
   26.5174  -21.2946   -7.3671 O   0  0  0  0  0  0  0  0  0  0  0  0
   27.8161  -19.7590   -6.2115 N   0  0  0  0  0  0  0  0  0  0  0  0
   28.3084  -18.4158   -5.9962 C   0  0  0  0  0  0  0  0  0  0  0  0
   29.6355  -18.5762   -5.2679 C   0  0  0  0  0  0  0  0  0  0  0  0
   29.8463  -20.0802   -5.1669 C   0  0  0  0  0  0  0  0  0  0  0  0
   28.4141  -20.5781   -5.1930 C   0  0  1  0  0  0  0  0  0  0  0  0
   27.7526  -20.4581   -3.8854 C   0  0  0  0  0  0  0  0  0  0  0  0
   26.8962  -19.5970   -3.6054 O   0  0  0  0  0  0  0  0  0  0  0  0
   28.1020  -21.3616   -2.8942 O   0  0  0  0  0  0  0  0  0  0  0  0
  2  1  1  6
  3  2  1  0
  4  2  1  0
  5  4  1  0
  5  6  1  1
  7  5  1  0
  7  8  2  0
  9  7  1  0
 10  9  1  0
 10 11  1  0
 11 13  1  0
 12 11  2  0
 13 14  1  0
 13 17  1  0
 14 15  1  0
 16 15  1  0
 17 16  1  0
 18 20  1  0
 17 18  1  1
 19 18  2  0
M  END
$$$$
