LGP.pdb
     RDKit          3D

 20 20  0  0  1  0  0  0  0  0999 V2000
   23.6160  -20.9196  -21.2846 C   0  0  0  0  0  0  0  0  0  0  0  0
   23.0630  -20.7211  -19.9085 C   0  0  1  0  0  0  0  0  0  0  0  0
   21.6875  -21.3241  -19.8177 C   0  0  0  0  0  0  0  0  0  0  0  0
   23.9693  -21.1918  -18.8200 C   0  0  0  0  0  0  0  0  0  0  0  0
   23.3930  -20.9831  -17.4401 C   0  0  2  0  0  0  0  0  0  0  0  0
   23.1516  -19.5695  -17.2272 N   0  0  0  0  0  0  0  0  0  0  0  0
   24.3297  -21.4448  -16.3866 C   0  0  0  0  0  0  0  0  0  0  0  0
   24.6176  -22.6856  -16.2905 O   0  0  0  0  0  0  0  0  0  0  0  0
   24.9546  -20.5901  -15.4430 N   0  0  0  0  0  0  0  0  0  0  0  0
   25.8289  -21.0844  -14.3966 C   0  0  0  0  0  0  0  0  0  0  0  0
   25.0505  -21.5376  -13.2095 C   0  0  0  0  0  0  0  0  0  0  0  0
   24.1478  -22.3990  -13.2989 O   0  0  0  0  0  0  0  0  0  0  0  0
   25.3689  -20.9540  -11.9571 N   0  0  0  0  0  0  0  0  0  0  0  0
   26.4588  -20.0246  -11.7536 C   0  0  0  0  0  0  0  0  0  0  0  0
   26.8337  -20.1463  -10.2833 C   0  0  0  0  0  0  0  0  0  0  0  0
   25.9234  -21.2369   -9.7370 C   0  0  0  0  0  0  0  0  0  0  0  0
   24.7385  -21.1259  -10.6769 C   0  0  1  0  0  0  0  0  0  0  0  0
   23.8370  -20.0213  -10.3181 C   0  0  0  0  0  0  0  0  0  0  0  0
   23.0024  -20.0649   -9.3935 O   0  0  0  0  0  0  0  0  0  0  0  0
   23.9172  -18.8503  -11.0553 O   0  0  0  0  0  0  0  0  0  0  0  0
  2  1  1  6
  3  2  1  0
  4  2  1  0
  5  4  1  0
  5  6  1  1
  7  5  1  0
  7  8  2  0
  9  7  1  0
 10  9  1  0
 10 11  1  0
 11 13  1  0
 12 11  2  0
 13 14  1  0
 13 17  1  0
 14 15  1  0
 16 15  1  0
 17 16  1  0
 18 20  1  0
 17 18  1  1
 19 18  2  0
M  END
$$$$
