LGP.pdb
     RDKit          3D

 20 20  0  0  1  0  0  0  0  0999 V2000
   24.8181  -16.3308  -21.0461 C   0  0  0  0  0  0  0  0  0  0  0  0
   24.1333  -17.3521  -20.1936 C   0  0  1  0  0  0  0  0  0  0  0  0
   23.7245  -18.5304  -21.0353 C   0  0  0  0  0  0  0  0  0  0  0  0
   24.9140  -17.7523  -18.9861 C   0  0  0  0  0  0  0  0  0  0  0  0
   24.2557  -18.8585  -18.1970 C   0  0  2  0  0  0  0  0  0  0  0  0
   23.0121  -18.3730  -17.6315 N   0  0  0  0  0  0  0  0  0  0  0  0
   25.1158  -19.3096  -17.0758 C   0  0  0  0  0  0  0  0  0  0  0  0
   26.2185  -19.9062  -17.3200 O   0  0  0  0  0  0  0  0  0  0  0  0
   24.8025  -19.1259  -15.7048 N   0  0  0  0  0  0  0  0  0  0  0  0
   25.6491  -19.6179  -14.6349 C   0  0  0  0  0  0  0  0  0  0  0  0
   25.0018  -20.7457  -13.9071 C   0  0  0  0  0  0  0  0  0  0  0  0
   24.5744  -21.7596  -14.5023 O   0  0  0  0  0  0  0  0  0  0  0  0
   24.8834  -20.6328  -12.4987 N   0  0  0  0  0  0  0  0  0  0  0  0
   25.4785  -19.5673  -11.7216 C   0  0  0  0  0  0  0  0  0  0  0  0
   25.6580  -20.1321  -10.3194 C   0  0  0  0  0  0  0  0  0  0  0  0
   25.1831  -21.5749  -10.4157 C   0  0  0  0  0  0  0  0  0  0  0  0
   24.1967  -21.4815  -11.5637 C   0  0  1  0  0  0  0  0  0  0  0  0
   22.8921  -20.9498  -11.1431 C   0  0  0  0  0  0  0  0  0  0  0  0
   22.5370  -19.7633  -11.2814 O   0  0  0  0  0  0  0  0  0  0  0  0
   21.9932  -21.8239  -10.5523 O   0  0  0  0  0  0  0  0  0  0  0  0
  2  1  1  6
  3  2  1  0
  4  2  1  0
  5  4  1  0
  5  6  1  1
  7  5  1  0
  7  8  2  0
  9  7  1  0
 10  9  1  0
 10 11  1  0
 11 13  1  0
 12 11  2  0
 13 14  1  0
 13 17  1  0
 14 15  1  0
 16 15  1  0
 17 16  1  0
 18 20  1  0
 17 18  1  1
 19 18  2  0
M  END
$$$$
