LGP.pdb
     RDKit          3D

 20 20  0  0  1  0  0  0  0  0999 V2000
   27.3081  -18.2234  -16.6194 C   0  0  0  0  0  0  0  0  0  0  0  0
   27.4006  -19.4425  -15.7567 C   0  0  1  0  0  0  0  0  0  0  0  0
   28.1893  -20.5112  -16.4636 C   0  0  0  0  0  0  0  0  0  0  0  0
   27.9080  -19.1705  -14.3796 C   0  0  0  0  0  0  0  0  0  0  0  0
   27.9119  -20.3968  -13.4987 C   0  0  2  0  0  0  0  0  0  0  0  0
   27.4239  -21.5342  -14.2538 N   0  0  0  0  0  0  0  0  0  0  0  0
   27.0251  -20.2215  -12.3227 C   0  0  0  0  0  0  0  0  0  0  0  0
   26.9664  -19.0899  -11.7331 O   0  0  0  0  0  0  0  0  0  0  0  0
   26.2072  -21.2449  -11.7794 N   0  0  0  0  0  0  0  0  0  0  0  0
   25.2628  -21.0057  -10.7049 C   0  0  0  0  0  0  0  0  0  0  0  0
   23.8597  -21.2167  -11.1601 C   0  0  0  0  0  0  0  0  0  0  0  0
   23.5861  -21.5295  -12.3400 O   0  0  0  0  0  0  0  0  0  0  0  0
   22.8290  -21.0495  -10.2008 N   0  0  0  0  0  0  0  0  0  0  0  0
   23.0526  -20.5872   -8.8483 C   0  0  0  0  0  0  0  0  0  0  0  0
   21.8922  -21.1352   -8.0294 C   0  0  0  0  0  0  0  0  0  0  0  0
   21.0781  -21.9648   -9.0121 C   0  0  0  0  0  0  0  0  0  0  0  0
   21.4153  -21.2793  -10.3221 C   0  0  1  0  0  0  0  0  0  0  0  0
   20.6401  -20.0472  -10.5286 C   0  0  0  0  0  0  0  0  0  0  0  0
   21.0509  -18.9024  -10.2572 O   0  0  0  0  0  0  0  0  0  0  0  0
   19.3655  -20.1621  -11.0609 O   0  0  0  0  0  0  0  0  0  0  0  0
  2  1  1  6
  3  2  1  0
  4  2  1  0
  5  4  1  0
  5  6  1  6
  7  5  1  0
  7  8  2  0
  9  7  1  0
 10  9  1  0
 10 11  1  0
 11 13  1  0
 12 11  2  0
 13 14  1  0
 13 17  1  0
 14 15  1  0
 16 15  1  0
 17 16  1  0
 18 20  1  0
 17 18  1  1
 19 18  2  0
M  END
$$$$
