LGP.pdb
     RDKit          3D

 20 20  0  0  1  0  0  0  0  0999 V2000
   22.6605  -19.1177  -14.8261 C   0  0  0  0  0  0  0  0  0  0  0  0
   22.7838  -20.0398  -13.6543 C   0  0  1  0  0  0  0  0  0  0  0  0
   23.0712  -21.4377  -14.1311 C   0  0  0  0  0  0  0  0  0  0  0  0
   23.7543  -19.5752  -12.6198 C   0  0  0  0  0  0  0  0  0  0  0  0
   24.0308  -20.6146  -11.5602 C   0  0  2  0  0  0  0  0  0  0  0  0
   22.9107  -20.6766  -10.6418 N   0  0  0  0  0  0  0  0  0  0  0  0
   25.2418  -20.2764  -10.7730 C   0  0  0  0  0  0  0  0  0  0  0  0
   26.3890  -20.6768  -11.1670 O   0  0  0  0  0  0  0  0  0  0  0  0
   25.2295  -19.5173   -9.5751 N   0  0  0  0  0  0  0  0  0  0  0  0
   26.4427  -19.1227   -8.8851 C   0  0  0  0  0  0  0  0  0  0  0  0
   26.9004  -20.1839   -7.9444 C   0  0  0  0  0  0  0  0  0  0  0  0
   26.7228  -21.3995   -8.1802 O   0  0  0  0  0  0  0  0  0  0  0  0
   27.5530  -19.7676   -6.7565 N   0  0  0  0  0  0  0  0  0  0  0  0
   27.7735  -18.3829   -6.3996 C   0  0  0  0  0  0  0  0  0  0  0  0
   28.9794  -18.3849   -5.4705 C   0  0  0  0  0  0  0  0  0  0  0  0
   29.4214  -19.8400   -5.4073 C   0  0  0  0  0  0  0  0  0  0  0  0
   28.1147  -20.5546   -5.6929 C   0  0  1  0  0  0  0  0  0  0  0  0
   27.2477  -20.6373   -4.5084 C   0  0  0  0  0  0  0  0  0  0  0  0
   27.4585  -21.3818   -3.5315 O   0  0  0  0  0  0  0  0  0  0  0  0
   26.1183  -19.8346   -4.4714 O   0  0  0  0  0  0  0  0  0  0  0  0
  2  1  1  6
  3  2  1  0
  4  2  1  0
  5  4  1  0
  5  6  1  1
  7  5  1  0
  7  8  2  0
  9  7  1  0
 10  9  1  0
 10 11  1  0
 11 13  1  0
 12 11  2  0
 13 14  1  0
 13 17  1  0
 14 15  1  0
 16 15  1  0
 17 16  1  0
 18 20  1  0
 17 18  1  1
 19 18  2  0
M  END
$$$$
