LGP.pdb
     RDKit          3D

 20 20  0  0  1  0  0  0  0  0999 V2000
   23.7599  -17.2779  -19.7494 C   0  0  0  0  0  0  0  0  0  0  0  0
   23.0486  -17.8795  -18.5786 C   0  0  1  0  0  0  0  0  0  0  0  0
   21.9094  -18.7379  -19.0576 C   0  0  0  0  0  0  0  0  0  0  0  0
   23.9488  -18.5977  -17.6291 C   0  0  0  0  0  0  0  0  0  0  0  0
   23.2095  -19.2135  -16.4655 C   0  0  2  0  0  0  0  0  0  0  0  0
   22.2706  -18.2494  -15.9263 N   0  0  0  0  0  0  0  0  0  0  0  0
   24.1393  -19.5969  -15.3751 C   0  0  0  0  0  0  0  0  0  0  0  0
   24.9379  -20.5806  -15.5363 O   0  0  0  0  0  0  0  0  0  0  0  0
   24.2168  -18.9364  -14.1224 N   0  0  0  0  0  0  0  0  0  0  0  0
   25.1551  -19.3265  -13.0876 C   0  0  0  0  0  0  0  0  0  0  0  0
   24.6723  -20.5228  -12.3417 C   0  0  0  0  0  0  0  0  0  0  0  0
   24.3428  -21.5789  -12.9256 O   0  0  0  0  0  0  0  0  0  0  0  0
   24.5967  -20.4259  -10.9291 N   0  0  0  0  0  0  0  0  0  0  0  0
   25.0144  -19.2632  -10.1764 C   0  0  0  0  0  0  0  0  0  0  0  0
   25.3583  -19.7760   -8.7850 C   0  0  0  0  0  0  0  0  0  0  0  0
   25.1593  -21.2829   -8.8638 C   0  0  0  0  0  0  0  0  0  0  0  0
   24.1235  -21.3831   -9.9669 C   0  0  1  0  0  0  0  0  0  0  0  0
   22.7619  -21.1036   -9.4877 C   0  0  0  0  0  0  0  0  0  0  0  0
   22.1613  -20.0255   -9.6612 O   0  0  0  0  0  0  0  0  0  0  0  0
   22.0976  -22.1039   -8.7956 O   0  0  0  0  0  0  0  0  0  0  0  0
  2  1  1  6
  3  2  1  0
  4  2  1  0
  5  4  1  0
  5  6  1  1
  7  5  1  0
  7  8  2  0
  9  7  1  0
 10  9  1  0
 10 11  1  0
 11 13  1  0
 12 11  2  0
 13 14  1  0
 13 17  1  0
 14 15  1  0
 16 15  1  0
 17 16  1  0
 18 20  1  0
 17 18  1  1
 19 18  2  0
M  END
$$$$
