LGP.pdb
     RDKit          3D

 20 20  0  0  1  0  0  0  0  0999 V2000
   16.3218  -14.2280  -17.6571 C   0  0  0  0  0  0  0  0  0  0  0  0
   16.7355  -12.9516  -18.3192 C   0  0  1  0  0  0  0  0  0  0  0  0
   15.5211  -12.1190  -18.6296 C   0  0  0  0  0  0  0  0  0  0  0  0
   17.7762  -12.1909  -17.5668 C   0  0  0  0  0  0  0  0  0  0  0  0
   18.1259  -10.8717  -18.2127 C   0  0  2  0  0  0  0  0  0  0  0  0
   18.9104  -11.1131  -19.4078 N   0  0  0  0  0  0  0  0  0  0  0  0
   18.9355  -10.0223  -17.3052 C   0  0  0  0  0  0  0  0  0  0  0  0
   18.4386   -9.6186  -16.1999 O   0  0  0  0  0  0  0  0  0  0  0  0
   20.2645   -9.6066  -17.5743 N   0  0  0  0  0  0  0  0  0  0  0  0
   21.0227   -8.7688  -16.6649 C   0  0  0  0  0  0  0  0  0  0  0  0
   20.3593   -7.4498  -16.4630 C   0  0  0  0  0  0  0  0  0  0  0  0
   19.2478   -7.1828  -16.9712 O   0  0  0  0  0  0  0  0  0  0  0  0
   21.0363   -6.4927  -15.6656 N   0  0  0  0  0  0  0  0  0  0  0  0
   22.3387   -6.7108  -15.0745 C   0  0  0  0  0  0  0  0  0  0  0  0
   22.4012   -5.7878  -13.8656 C   0  0  0  0  0  0  0  0  0  0  0  0
   21.0358   -5.1172  -13.8151 C   0  0  0  0  0  0  0  0  0  0  0  0
   20.6305   -5.1702  -15.2754 C   0  0  1  0  0  0  0  0  0  0  0  0
   21.2604   -4.1079  -16.0733 C   0  0  0  0  0  0  0  0  0  0  0  0
   20.8385   -2.9376  -16.1467 O   0  0  0  0  0  0  0  0  0  0  0  0
   22.4009   -4.4252  -16.7942 O   0  0  0  0  0  0  0  0  0  0  0  0
  2  1  1  1
  3  2  1  0
  4  2  1  0
  5  4  1  0
  5  6  1  6
  7  5  1  0
  7  8  2  0
  9  7  1  0
 10  9  1  0
 10 11  1  0
 11 13  1  0
 12 11  2  0
 13 14  1  0
 13 17  1  0
 14 15  1  0
 16 15  1  0
 17 16  1  0
 18 20  1  0
 17 18  1  6
 19 18  2  0
M  END
$$$$
