LGP.pdb
     RDKit          3D

 20 20  0  0  1  0  0  0  0  0999 V2000
   19.0539  -11.9215    4.8539 C   0  0  0  0  0  0  0  0  0  0  0  0
   18.0453  -12.7790    4.1565 C   0  0  1  0  0  0  0  0  0  0  0  0
   17.7580  -12.2218    2.7887 C   0  0  0  0  0  0  0  0  0  0  0  0
   18.4043  -14.2274    4.1227 C   0  0  0  0  0  0  0  0  0  0  0  0
   17.4169  -15.0625    3.3434 C   0  0  2  0  0  0  0  0  0  0  0  0
   16.1739  -15.1554    4.0838 N   0  0  0  0  0  0  0  0  0  0  0  0
   17.9214  -16.4415    3.1332 C   0  0  0  0  0  0  0  0  0  0  0  0
   19.0156  -16.6294    2.5017 O   0  0  0  0  0  0  0  0  0  0  0  0
   17.2641  -17.6112    3.5928 N   0  0  0  0  0  0  0  0  0  0  0  0
   17.8653  -18.9290    3.5170 C   0  0  0  0  0  0  0  0  0  0  0  0
   17.0977  -19.9216    4.3208 C   0  0  0  0  0  0  0  0  0  0  0  0
   16.0190  -19.6273    4.8818 O   0  0  0  0  0  0  0  0  0  0  0  0
   17.6353  -21.2288    4.4321 N   0  0  0  0  0  0  0  0  0  0  0  0
   18.9468  -21.6057    3.9514 C   0  0  0  0  0  0  0  0  0  0  0  0
   18.8740  -23.1035    3.6896 C   0  0  0  0  0  0  0  0  0  0  0  0
   17.4331  -23.4844    3.9987 C   0  0  0  0  0  0  0  0  0  0  0  0
   17.0577  -22.4138    5.0049 C   0  0  1  0  0  0  0  0  0  0  0  0
   17.5565  -22.7110    6.3557 C   0  0  0  0  0  0  0  0  0  0  0  0
   18.6647  -22.3461    6.7937 O   0  0  0  0  0  0  0  0  0  0  0  0
   16.7425  -23.4465    7.2027 O   0  0  0  0  0  0  0  0  0  0  0  0
  2  1  1  6
  3  2  1  0
  4  2  1  0
  5  4  1  0
  5  6  1  1
  7  5  1  0
  7  8  2  0
  9  7  1  0
 10  9  1  0
 10 11  1  0
 11 13  1  0
 12 11  2  0
 13 14  1  0
 13 17  1  0
 14 15  1  0
 16 15  1  0
 17 16  1  0
 18 20  1  0
 17 18  1  1
 19 18  2  0
M  END
$$$$
