LGP.pdb
     RDKit          3D

 20 20  0  0  1  0  0  0  0  0999 V2000
   25.7077  -18.0400  -16.9413 C   0  0  0  0  0  0  0  0  0  0  0  0
   24.5266  -18.9317  -16.7211 C   0  0  1  0  0  0  0  0  0  0  0  0
   24.7225  -20.2311  -17.4541 C   0  0  0  0  0  0  0  0  0  0  0  0
   24.1799  -19.1305  -15.2829 C   0  0  0  0  0  0  0  0  0  0  0  0
   23.0455  -20.1056  -15.0782 C   0  0  2  0  0  0  0  0  0  0  0  0
   21.8151  -19.5262  -15.5804 N   0  0  0  0  0  0  0  0  0  0  0  0
   22.8468  -20.4108  -13.6403 C   0  0  0  0  0  0  0  0  0  0  0  0
   23.7246  -21.0884  -13.0064 O   0  0  0  0  0  0  0  0  0  0  0  0
   21.7207  -19.9967  -12.8840 N   0  0  0  0  0  0  0  0  0  0  0  0
   21.5378  -20.3552  -11.4906 C   0  0  0  0  0  0  0  0  0  0  0  0
   20.7579  -21.6175  -11.3539 C   0  0  0  0  0  0  0  0  0  0  0  0
   20.5009  -22.3470  -12.3371 O   0  0  0  0  0  0  0  0  0  0  0  0
   20.3094  -21.9719  -10.0563 N   0  0  0  0  0  0  0  0  0  0  0  0
   20.6439  -21.2343   -8.8575 C   0  0  0  0  0  0  0  0  0  0  0  0
   20.5263  -22.2326   -7.7143 C   0  0  0  0  0  0  0  0  0  0  0  0
   20.1728  -23.5531   -8.3837 C   0  0  0  0  0  0  0  0  0  0  0  0
   19.4759  -23.0662   -9.6396 C   0  0  1  0  0  0  0  0  0  0  0  0
   18.0802  -22.6750   -9.3932 C   0  0  0  0  0  0  0  0  0  0  0  0
   17.7027  -21.5061   -9.1832 O   0  0  0  0  0  0  0  0  0  0  0  0
   17.1158  -23.6705   -9.3937 O   0  0  0  0  0  0  0  0  0  0  0  0
  2  1  1  1
  3  2  1  0
  4  2  1  0
  5  4  1  0
  5  6  1  1
  7  5  1  0
  7  8  2  0
  9  7  1  0
 10  9  1  0
 10 11  1  0
 11 13  1  0
 12 11  2  0
 13 14  1  0
 13 17  1  0
 14 15  1  0
 16 15  1  0
 17 16  1  0
 18 20  1  0
 17 18  1  1
 19 18  2  0
M  END
$$$$
