LGP.pdb
     RDKit          3D

 20 20  0  0  1  0  0  0  0  0999 V2000
   22.4304  -20.9856   -8.8707 C   0  0  0  0  0  0  0  0  0  0  0  0
   23.9208  -20.9018   -8.7690 C   0  0  1  0  0  0  0  0  0  0  0  0
   24.3955  -21.6681   -7.5643 C   0  0  0  0  0  0  0  0  0  0  0  0
   24.6345  -21.2974  -10.0189 C   0  0  0  0  0  0  0  0  0  0  0  0
   26.1011  -20.9392  -10.0002 C   0  0  2  0  0  0  0  0  0  0  0  0
   26.2754  -19.6547   -9.3507 N   0  0  0  0  0  0  0  0  0  0  0  0
   26.6490  -20.8284  -11.3741 C   0  0  0  0  0  0  0  0  0  0  0  0
   26.6266  -21.8415  -12.1517 O   0  0  0  0  0  0  0  0  0  0  0  0
   27.2164  -19.6464  -11.9149 N   0  0  0  0  0  0  0  0  0  0  0  0
   27.7023  -19.5635  -13.2789 C   0  0  0  0  0  0  0  0  0  0  0  0
   26.6251  -19.1281  -14.2121 C   0  0  0  0  0  0  0  0  0  0  0  0
   25.4202  -19.1214  -13.8757 O   0  0  0  0  0  0  0  0  0  0  0  0
   27.0133  -18.7155  -15.5118 N   0  0  0  0  0  0  0  0  0  0  0  0
   28.3694  -18.7890  -16.0105 C   0  0  0  0  0  0  0  0  0  0  0  0
   28.4648  -17.7298  -17.0997 C   0  0  0  0  0  0  0  0  0  0  0  0
   27.1027  -17.0507  -17.1046 C   0  0  0  0  0  0  0  0  0  0  0  0
   26.2195  -18.1643  -16.5758 C   0  0  1  0  0  0  0  0  0  0  0  0
   25.8713  -19.1469  -17.6126 C   0  0  0  0  0  0  0  0  0  0  0  0
   26.4895  -20.2106  -17.8112 O   0  0  0  0  0  0  0  0  0  0  0  0
   24.7826  -18.8759  -18.4264 O   0  0  0  0  0  0  0  0  0  0  0  0
  2  1  1  6
  3  2  1  0
  4  2  1  0
  5  4  1  0
  5  6  1  6
  7  5  1  0
  7  8  2  0
  9  7  1  0
 10  9  1  0
 10 11  1  0
 11 13  1  0
 12 11  2  0
 13 14  1  0
 13 17  1  0
 14 15  1  0
 16 15  1  0
 17 16  1  0
 18 20  1  0
 17 18  1  6
 19 18  2  0
M  END
$$$$
