LGP.pdb
     RDKit          3D

 20 20  0  0  1  0  0  0  0  0999 V2000
   29.1110  -20.4056   -4.5210 C   0  0  0  0  0  0  0  0  0  0  0  0
   27.9228  -20.0003   -5.3350 C   0  0  1  0  0  0  0  0  0  0  0  0
   27.7110  -18.5145   -5.2269 C   0  0  0  0  0  0  0  0  0  0  0  0
   27.9712  -20.4719   -6.7503 C   0  0  0  0  0  0  0  0  0  0  0  0
   26.7860  -20.0143   -7.5662 C   0  0  2  0  0  0  0  0  0  0  0  0
   25.6030  -20.7400   -7.1468 N   0  0  0  0  0  0  0  0  0  0  0  0
   26.9891  -20.2788   -9.0116 C   0  0  0  0  0  0  0  0  0  0  0  0
   27.8321  -19.5838   -9.6733 O   0  0  0  0  0  0  0  0  0  0  0  0
   26.2987  -21.2768   -9.7457 N   0  0  0  0  0  0  0  0  0  0  0  0
   26.5228  -21.5046  -11.1604 C   0  0  0  0  0  0  0  0  0  0  0  0
   25.9495  -20.4030  -11.9840 C   0  0  0  0  0  0  0  0  0  0  0  0
   25.0609  -19.6405  -11.5437 O   0  0  0  0  0  0  0  0  0  0  0  0
   26.4494  -20.2431  -13.3011 N   0  0  0  0  0  0  0  0  0  0  0  0
   27.4271  -21.1216  -13.9055 C   0  0  0  0  0  0  0  0  0  0  0  0
   28.1200  -20.2907  -14.9764 C   0  0  0  0  0  0  0  0  0  0  0  0
   27.4973  -18.9067  -14.8608 C   0  0  0  0  0  0  0  0  0  0  0  0
   26.1348  -19.2467  -14.2882 C   0  0  1  0  0  0  0  0  0  0  0  0
   25.1948  -19.7197  -15.3150 C   0  0  0  0  0  0  0  0  0  0  0  0
   24.5832  -18.9763  -16.1065 O   0  0  0  0  0  0  0  0  0  0  0  0
   24.9707  -21.0840  -15.4129 O   0  0  0  0  0  0  0  0  0  0  0  0
  2  1  1  6
  3  2  1  0
  4  2  1  0
  5  4  1  0
  5  6  1  1
  7  5  1  0
  7  8  2  0
  9  7  1  0
 10  9  1  0
 10 11  1  0
 11 13  1  0
 12 11  2  0
 13 14  1  0
 13 17  1  0
 14 15  1  0
 16 15  1  0
 17 16  1  0
 18 20  1  0
 17 18  1  6
 19 18  2  0
M  END
$$$$
