LGP.pdb
     RDKit          3D

 20 20  0  0  1  0  0  0  0  0999 V2000
   24.1273  -19.1011  -18.2608 C   0  0  0  0  0  0  0  0  0  0  0  0
   25.3853  -19.7731  -17.8085 C   0  0  1  0  0  0  0  0  0  0  0  0
   25.7609  -20.8615  -18.7771 C   0  0  0  0  0  0  0  0  0  0  0  0
   26.5106  -18.8301  -17.5398 C   0  0  0  0  0  0  0  0  0  0  0  0
   27.7291  -19.5127  -16.9660 C   0  0  2  0  0  0  0  0  0  0  0  0
   27.8872  -20.8152  -17.5828 N   0  0  0  0  0  0  0  0  0  0  0  0
   27.5955  -19.7191  -15.5032 C   0  0  0  0  0  0  0  0  0  0  0  0
   27.3019  -18.7334  -14.7458 O   0  0  0  0  0  0  0  0  0  0  0  0
   27.7736  -20.9669  -14.8531 N   0  0  0  0  0  0  0  0  0  0  0  0
   27.5901  -21.1395  -13.4247 C   0  0  0  0  0  0  0  0  0  0  0  0
   26.2073  -21.5951  -13.1074 C   0  0  0  0  0  0  0  0  0  0  0  0
   25.6167  -22.4521  -13.8014 O   0  0  0  0  0  0  0  0  0  0  0  0
   25.5720  -21.0190  -11.9782 N   0  0  0  0  0  0  0  0  0  0  0  0
   26.1649  -19.9843  -11.1592 C   0  0  0  0  0  0  0  0  0  0  0  0
   25.5018  -20.1097   -9.7947 C   0  0  0  0  0  0  0  0  0  0  0  0
   24.5721  -21.3082   -9.9209 C   0  0  0  0  0  0  0  0  0  0  0  0
   24.2817  -21.2968  -11.4092 C   0  0  1  0  0  0  0  0  0  0  0  0
   23.2578  -20.3072  -11.7754 C   0  0  0  0  0  0  0  0  0  0  0  0
   22.0410  -20.4309  -11.5365 O   0  0  0  0  0  0  0  0  0  0  0  0
   23.6693  -19.1573  -12.4308 O   0  0  0  0  0  0  0  0  0  0  0  0
  2  1  1  6
  3  2  1  0
  4  2  1  0
  5  4  1  0
  5  6  1  6
  7  5  1  0
  7  8  2  0
  9  7  1  0
 10  9  1  0
 10 11  1  0
 11 13  1  0
 12 11  2  0
 13 14  1  0
 13 17  1  0
 14 15  1  0
 16 15  1  0
 17 16  1  0
 18 20  1  0
 17 18  1  1
 19 18  2  0
M  END
$$$$
