LGP.pdb
     RDKit          3D

 20 20  0  0  1  0  0  0  0  0999 V2000
   14.3479  -21.0428    4.4382 C   0  0  0  0  0  0  0  0  0  0  0  0
   15.3782  -20.2603    3.6866 C   0  0  1  0  0  0  0  0  0  0  0  0
   14.8260  -19.8358    2.3528 C   0  0  0  0  0  0  0  0  0  0  0  0
   15.9527  -19.1199    4.4594 C   0  0  0  0  0  0  0  0  0  0  0  0
   16.9643  -18.3226    3.6716 C   0  0  2  0  0  0  0  0  0  0  0  0
   18.1866  -19.0910    3.5396 N   0  0  0  0  0  0  0  0  0  0  0  0
   17.3024  -17.0505    4.3555 C   0  0  0  0  0  0  0  0  0  0  0  0
   17.9770  -17.0709    5.4399 O   0  0  0  0  0  0  0  0  0  0  0  0
   16.9241  -15.7665    3.8867 N   0  0  0  0  0  0  0  0  0  0  0  0
   17.1934  -14.5504    4.6297 C   0  0  0  0  0  0  0  0  0  0  0  0
   18.5841  -14.5391    5.1645 C   0  0  0  0  0  0  0  0  0  0  0  0
   19.3638  -15.5039    5.0027 O   0  0  0  0  0  0  0  0  0  0  0  0
   19.0030  -13.3845    5.8729 N   0  0  0  0  0  0  0  0  0  0  0  0
   18.1549  -12.2393    6.1231 C   0  0  0  0  0  0  0  0  0  0  0  0
   19.1002  -11.0611    6.3115 C   0  0  0  0  0  0  0  0  0  0  0  0
   20.4911  -11.6360    6.0843 C   0  0  0  0  0  0  0  0  0  0  0  0
   20.2746  -13.0858    6.4726 C   0  0  1  0  0  0  0  0  0  0  0  0
   20.2941  -13.2874    7.9289 C   0  0  0  0  0  0  0  0  0  0  0  0
   19.2755  -13.3840    8.6405 O   0  0  0  0  0  0  0  0  0  0  0  0
   21.5264  -13.3766    8.5570 O   0  0  0  0  0  0  0  0  0  0  0  0
  2  1  1  1
  3  2  1  0
  4  2  1  0
  5  4  1  0
  5  6  1  1
  7  5  1  0
  7  8  2  0
  9  7  1  0
 10  9  1  0
 10 11  1  0
 11 13  1  0
 12 11  2  0
 13 14  1  0
 13 17  1  0
 14 15  1  0
 16 15  1  0
 17 16  1  0
 18 20  1  0
 17 18  1  1
 19 18  2  0
M  END
$$$$
