LGP.pdb
     RDKit          3D

 20 20  0  0  1  0  0  0  0  0999 V2000
   19.3312  -15.0032  -18.6698 C   0  0  0  0  0  0  0  0  0  0  0  0
   19.1666  -14.2586  -17.3824 C   0  0  1  0  0  0  0  0  0  0  0  0
   19.7931  -15.0368  -16.2573 C   0  0  0  0  0  0  0  0  0  0  0  0
   19.6424  -12.8450  -17.4374 C   0  0  0  0  0  0  0  0  0  0  0  0
   19.3499  -12.0737  -16.1728 C   0  0  2  0  0  0  0  0  0  0  0  0
   17.9153  -11.9442  -16.0082 N   0  0  0  0  0  0  0  0  0  0  0  0
   19.9233  -10.7067  -16.2275 C   0  0  0  0  0  0  0  0  0  0  0  0
   19.3549   -9.8060  -16.9326 O   0  0  0  0  0  0  0  0  0  0  0  0
   21.0937  -10.3033  -15.5355 N   0  0  0  0  0  0  0  0  0  0  0  0
   21.6844   -8.9883  -15.6953 C   0  0  0  0  0  0  0  0  0  0  0  0
   21.1558   -8.0305  -14.6835 C   0  0  0  0  0  0  0  0  0  0  0  0
   20.3885   -8.3941  -13.7648 O   0  0  0  0  0  0  0  0  0  0  0  0
   21.5550   -6.6746  -14.7955 N   0  0  0  0  0  0  0  0  0  0  0  0
   22.4303   -6.1741  -15.8330 C   0  0  0  0  0  0  0  0  0  0  0  0
   23.0787   -4.9235  -15.2559 C   0  0  0  0  0  0  0  0  0  0  0  0
   22.5449   -4.8276  -13.8338 C   0  0  0  0  0  0  0  0  0  0  0  0
   21.2168   -5.5466  -13.9714 C   0  0  1  0  0  0  0  0  0  0  0  0
   20.1717   -4.6919  -14.5536 C   0  0  0  0  0  0  0  0  0  0  0  0
   19.8969   -4.6430  -15.7682 O   0  0  0  0  0  0  0  0  0  0  0  0
   19.4400   -3.8841  -13.6972 O   0  0  0  0  0  0  0  0  0  0  0  0
  2  1  1  6
  3  2  1  0
  4  2  1  0
  5  4  1  0
  5  6  1  6
  7  5  1  0
  7  8  2  0
  9  7  1  0
 10  9  1  0
 10 11  1  0
 11 13  1  0
 12 11  2  0
 13 14  1  0
 13 17  1  0
 14 15  1  0
 16 15  1  0
 17 16  1  0
 18 20  1  0
 17 18  1  6
 19 18  2  0
M  END
$$$$
