WDF.pdb
     RDKit          3D

 34 36  0  0  1  0  0  0  0  0999 V2000
   28.2671  -20.2550   -9.3299 N   0  0  0  0  0  0  0  0  0  0  0  0
   27.1480  -21.1198   -9.5006 C   0  0  1  0  0  0  0  0  0  0  0  0
   26.2486  -21.0735   -8.2852 C   0  0  0  0  0  0  0  0  0  0  0  0
   26.7468  -20.0666   -7.3456 C   0  0  0  0  0  0  0  0  0  0  0  0
   26.4922  -18.7139   -7.3209 C   0  0  0  0  0  0  0  0  0  0  0  0
   27.1563  -18.1828   -6.2873 N   0  0  0  0  0  0  0  0  0  0  0  0
   27.8306  -19.1393   -5.6423 C   0  0  0  0  0  0  0  0  0  0  0  0
   28.6655  -19.1396   -4.5228 C   0  0  0  0  0  0  0  0  0  0  0  0
   29.2482  -20.2966   -4.0543 C   0  0  0  0  0  0  0  0  0  0  0  0
   28.9962  -21.4700   -4.7094 C   0  0  0  0  0  0  0  0  0  0  0  0
   28.1659  -21.5039   -5.8319 C   0  0  0  0  0  0  0  0  0  0  0  0
   27.5896  -20.3194   -6.2843 C   0  0  0  0  0  0  0  0  0  0  0  0
   26.3878  -20.7165  -10.7071 C   0  0  0  0  0  0  0  0  0  0  0  0
   26.1994  -19.4827  -10.8965 O   0  0  0  0  0  0  0  0  0  0  0  0
   25.8808  -21.6722  -11.6299 N   0  0  0  0  0  0  0  0  0  0  0  0
   25.1934  -21.3050  -12.8529 C   0  0  1  0  0  0  0  0  0  0  0  0
   25.5769  -22.1927  -13.9956 C   0  0  0  0  0  0  0  0  0  0  0  0
   26.8550  -21.8204  -14.6195 C   0  0  0  0  0  0  0  0  0  0  0  0
   26.9207  -20.8014  -15.3437 O   0  0  0  0  0  0  0  0  0  0  0  0
   23.7301  -21.1740  -12.6347 C   0  0  0  0  0  0  0  0  0  0  0  0
   23.1610  -22.0947  -11.9970 O   0  0  0  0  0  0  0  0  0  0  0  0
   27.9690  -22.6070  -14.3942 O   0  0  0  0  0  0  0  0  0  0  0  0
   22.9998  -20.0576  -13.1238 N   0  0  0  0  0  0  0  0  0  0  0  0
   21.5925  -19.8606  -12.8959 C   0  0  1  0  0  0  0  0  0  0  0  0
   21.1776  -18.4569  -13.1935 C   0  0  0  0  0  0  0  0  0  0  0  0
   19.7515  -18.1666  -13.0685 C   0  0  0  0  0  0  0  0  0  0  0  0
   19.1357  -17.9959  -11.8467 C   0  0  0  0  0  0  0  0  0  0  0  0
   17.7871  -17.7227  -11.8350 C   0  0  0  0  0  0  0  0  0  0  0  0
   17.0447  -17.6162  -12.9895 C   0  0  0  0  0  0  0  0  0  0  0  0
   17.6615  -17.7871  -14.2082 C   0  0  0  0  0  0  0  0  0  0  0  0
   19.0093  -18.0611  -14.2472 C   0  0  0  0  0  0  0  0  0  0  0  0
   20.7886  -20.8807  -13.6060 C   0  0  0  0  0  0  0  0  0  0  0  0
   21.1079  -21.2011  -14.7746 O   0  0  0  0  0  0  0  0  0  0  0  0
   19.6918  -21.5109  -13.0585 O   0  0  0  0  0  0  0  0  0  0  0  0
  2  1  1  1
  2  3  1  0
  4  3  1  0
  4  5  2  0
  6  5  1  0
  7  6  1  0
  8  7  2  0
  9  8  1  0
 10  9  2  0
 10 11  1  0
 11 12  2  0
 12  7  1  0
 12  4  1  0
 13  2  1  0
 14 13  2  0
 15 13  1  0
 16 15  1  0
 17 18  1  0
 16 17  1  6
 18 19  2  0
 20 16  1  0
 20 23  1  0
 21 20  2  0
 22 18  1  0
 24 23  1  0
 24 25  1  6
 24 32  1  0
 26 31  1  0
 26 25  1  0
 27 26  2  0
 28 29  2  0
 28 27  1  0
 29 30  1  0
 30 31  2  0
 32 34  1  0
 33 32  2  0
M  END
$$$$
