WDF.pdb
     RDKit          3D

 34 36  0  0  1  0  0  0  0  0999 V2000
   21.0869  -21.6640  -12.6420 N   0  0  0  0  0  0  0  0  0  0  0  0
   21.9686  -20.5746  -12.3870 C   0  0  1  0  0  0  0  0  0  0  0  0
   21.5435  -19.8248  -11.1437 C   0  0  0  0  0  0  0  0  0  0  0  0
   20.1192  -19.4956  -11.2337 C   0  0  0  0  0  0  0  0  0  0  0  0
   19.0856  -19.9259  -10.4327 C   0  0  0  0  0  0  0  0  0  0  0  0
   17.9521  -19.3728  -10.8807 N   0  0  0  0  0  0  0  0  0  0  0  0
   18.2122  -18.6012  -11.9402 C   0  0  0  0  0  0  0  0  0  0  0  0
   17.4170  -17.8115  -12.7735 C   0  0  0  0  0  0  0  0  0  0  0  0
   17.9533  -17.0980  -13.8228 C   0  0  0  0  0  0  0  0  0  0  0  0
   19.3003  -17.1717  -14.0458 C   0  0  0  0  0  0  0  0  0  0  0  0
   20.1233  -17.9521  -13.2310 C   0  0  0  0  0  0  0  0  0  0  0  0
   19.5550  -18.6634  -12.1769 C   0  0  0  0  0  0  0  0  0  0  0  0
   23.3511  -21.0822  -12.2226 C   0  0  0  0  0  0  0  0  0  0  0  0
   23.5044  -22.1839  -11.6255 O   0  0  0  0  0  0  0  0  0  0  0  0
   24.4775  -20.3667  -12.7137 N   0  0  0  0  0  0  0  0  0  0  0  0
   25.8434  -20.8198  -12.5342 C   0  0  1  0  0  0  0  0  0  0  0  0
   26.6771  -20.5726  -13.7527 C   0  0  0  0  0  0  0  0  0  0  0  0
   28.0706  -21.0171  -13.6056 C   0  0  0  0  0  0  0  0  0  0  0  0
   28.8755  -20.3310  -12.9358 O   0  0  0  0  0  0  0  0  0  0  0  0
   26.4256  -20.3012  -11.2700 C   0  0  0  0  0  0  0  0  0  0  0  0
   26.2869  -19.0748  -11.0358 O   0  0  0  0  0  0  0  0  0  0  0  0
   28.4706  -22.1924  -14.2133 O   0  0  0  0  0  0  0  0  0  0  0  0
   27.1112  -21.1508  -10.3605 N   0  0  0  0  0  0  0  0  0  0  0  0
   27.9157  -20.6700   -9.2684 C   0  0  1  0  0  0  0  0  0  0  0  0
   27.1496  -20.6515   -7.9864 C   0  0  0  0  0  0  0  0  0  0  0  0
   27.8736  -20.1761   -6.8102 C   0  0  0  0  0  0  0  0  0  0  0  0
   28.4149  -21.0354   -5.8776 C   0  0  0  0  0  0  0  0  0  0  0  0
   29.0814  -20.4888   -4.8050 C   0  0  0  0  0  0  0  0  0  0  0  0
   29.2222  -19.1297   -4.6372 C   0  0  0  0  0  0  0  0  0  0  0  0
   28.6809  -18.2736   -5.5694 C   0  0  0  0  0  0  0  0  0  0  0  0
   28.0095  -18.7950   -6.6513 C   0  0  0  0  0  0  0  0  0  0  0  0
   29.1969  -21.4068   -9.1841 C   0  0  0  0  0  0  0  0  0  0  0  0
   29.2770  -22.5476   -9.6964 O   0  0  0  0  0  0  0  0  0  0  0  0
   30.3264  -20.9138   -8.5669 O   0  0  0  0  0  0  0  0  0  0  0  0
  2  1  1  1
  2  3  1  0
  4  3  1  0
  4  5  2  0
  6  5  1  0
  7  6  1  0
  8  7  2  0
  9  8  1  0
 10  9  2  0
 10 11  1  0
 11 12  2  0
 12  7  1  0
 12  4  1  0
 13  2  1  0
 14 13  2  0
 15 13  1  0
 16 15  1  0
 17 18  1  0
 16 17  1  6
 18 19  2  0
 20 16  1  0
 20 23  1  0
 21 20  2  0
 22 18  1  0
 24 23  1  0
 24 25  1  1
 24 32  1  0
 26 31  1  0
 26 25  1  0
 27 26  2  0
 28 29  2  0
 28 27  1  0
 29 30  1  0
 30 31  2  0
 32 34  1  0
 33 32  2  0
M  END
$$$$
