WDF.pdb
     RDKit          3D

 34 36  0  0  1  0  0  0  0  0999 V2000
   23.9166   -8.6385  -18.9265 N   0  0  0  0  0  0  0  0  0  0  0  0
   23.4682   -7.9063  -17.7897 C   0  0  1  0  0  0  0  0  0  0  0  0
   24.5150   -6.9048  -17.3540 C   0  0  0  0  0  0  0  0  0  0  0  0
   25.7373   -7.6120  -16.9657 C   0  0  0  0  0  0  0  0  0  0  0  0
   26.9945   -7.5224  -17.5195 C   0  0  0  0  0  0  0  0  0  0  0  0
   27.8066   -8.3470  -16.8472 N   0  0  0  0  0  0  0  0  0  0  0  0
   27.1237   -8.9665  -15.8799 C   0  0  0  0  0  0  0  0  0  0  0  0
   27.4717   -9.9060  -14.9070 C   0  0  0  0  0  0  0  0  0  0  0  0
   26.5487  -10.3933  -14.0079 C   0  0  0  0  0  0  0  0  0  0  0  0
   25.2611   -9.9389  -14.0783 C   0  0  0  0  0  0  0  0  0  0  0  0
   24.8805   -8.9996  -15.0392 C   0  0  0  0  0  0  0  0  0  0  0  0
   25.8339   -8.5236  -15.9361 C   0  0  0  0  0  0  0  0  0  0  0  0
   22.2041   -7.2055  -18.1170 C   0  0  0  0  0  0  0  0  0  0  0  0
   22.1077   -6.6709  -19.2565 O   0  0  0  0  0  0  0  0  0  0  0  0
   21.1269   -7.1280  -17.1920 N   0  0  0  0  0  0  0  0  0  0  0  0
   19.8749   -6.4590  -17.4885 C   0  0  1  0  0  0  0  0  0  0  0  0
   18.6951   -7.3413  -17.2231 C   0  0  0  0  0  0  0  0  0  0  0  0
   18.6185   -7.8093  -15.8316 C   0  0  0  0  0  0  0  0  0  0  0  0
   19.6706   -8.0054  -15.1819 O   0  0  0  0  0  0  0  0  0  0  0  0
   19.8069   -5.1233  -16.8425 C   0  0  0  0  0  0  0  0  0  0  0  0
   20.3221   -5.0112  -15.7023 O   0  0  0  0  0  0  0  0  0  0  0  0
   17.3784   -8.0261  -15.2610 O   0  0  0  0  0  0  0  0  0  0  0  0
   19.1870   -4.0160  -17.4818 N   0  0  0  0  0  0  0  0  0  0  0  0
   19.0965   -2.7036  -16.8982 C   0  0  1  0  0  0  0  0  0  0  0  0
   19.3773   -1.6338  -17.9020 C   0  0  0  0  0  0  0  0  0  0  0  0
   19.1595   -0.2598  -17.4569 C   0  0  0  0  0  0  0  0  0  0  0  0
   17.9084    0.3192  -17.4292 C   0  0  0  0  0  0  0  0  0  0  0  0
   17.8074    1.6195  -16.9905 C   0  0  0  0  0  0  0  0  0  0  0  0
   18.9018    2.3495  -16.5844 C   0  0  0  0  0  0  0  0  0  0  0  0
   20.1498    1.7696  -16.6130 C   0  0  0  0  0  0  0  0  0  0  0  0
   20.2778    0.4703  -17.0475 C   0  0  0  0  0  0  0  0  0  0  0  0
   17.8129   -2.5247  -16.1828 C   0  0  0  0  0  0  0  0  0  0  0  0
   16.7788   -3.0593  -16.6466 O   0  0  0  0  0  0  0  0  0  0  0  0
   17.6768   -1.7946  -15.0217 O   0  0  0  0  0  0  0  0  0  0  0  0
  2  1  1  6
  2  3  1  0
  4  3  1  0
  4  5  2  0
  6  5  1  0
  7  6  1  0
  8  7  2  0
  9  8  1  0
 10  9  2  0
 10 11  1  0
 11 12  2  0
 12  7  1  0
 12  4  1  0
 13  2  1  0
 14 13  2  0
 15 13  1  0
 16 15  1  0
 17 18  1  0
 16 17  1  1
 18 19  2  0
 20 16  1  0
 20 23  1  0
 21 20  2  0
 22 18  1  0
 24 23  1  0
 24 25  1  6
 24 32  1  0
 26 31  1  0
 26 25  1  0
 27 26  2  0
 28 29  2  0
 28 27  1  0
 29 30  1  0
 30 31  2  0
 32 34  1  0
 33 32  2  0
M  END
$$$$
