WDF.pdb
     RDKit          3D

 34 36  0  0  1  0  0  0  0  0999 V2000
   26.2626  -18.9275  -14.2337 N   0  0  0  0  0  0  0  0  0  0  0  0
   25.8829  -20.1990  -13.7156 C   0  0  1  0  0  0  0  0  0  0  0  0
   26.0211  -21.2692  -14.7759 C   0  0  0  0  0  0  0  0  0  0  0  0
   25.1832  -20.9282  -15.9277 C   0  0  0  0  0  0  0  0  0  0  0  0
   25.5696  -20.4530  -17.1606 C   0  0  0  0  0  0  0  0  0  0  0  0
   24.4705  -20.2809  -17.9048 N   0  0  0  0  0  0  0  0  0  0  0  0
   23.3882  -20.6264  -17.2015 C   0  0  0  0  0  0  0  0  0  0  0  0
   22.0209  -20.6427  -17.4858 C   0  0  0  0  0  0  0  0  0  0  0  0
   21.0928  -21.0565  -16.5557 C   0  0  0  0  0  0  0  0  0  0  0  0
   21.5317  -21.4597  -15.3252 C   0  0  0  0  0  0  0  0  0  0  0  0
   22.8921  -21.4554  -15.0091 C   0  0  0  0  0  0  0  0  0  0  0  0
   23.8092  -21.0323  -15.9682 C   0  0  0  0  0  0  0  0  0  0  0  0
   26.7312  -20.5330  -12.5474 C   0  0  0  0  0  0  0  0  0  0  0  0
   27.4950  -21.5335  -12.6438 O   0  0  0  0  0  0  0  0  0  0  0  0
   26.6990  -19.7646  -11.3513 N   0  0  0  0  0  0  0  0  0  0  0  0
   25.7265  -19.9803  -10.2974 C   0  0  1  0  0  0  0  0  0  0  0  0
   24.3834  -20.3498  -10.8456 C   0  0  0  0  0  0  0  0  0  0  0  0
   23.3328  -20.4154   -9.8194 C   0  0  0  0  0  0  0  0  0  0  0  0
   22.1282  -20.4044  -10.1602 O   0  0  0  0  0  0  0  0  0  0  0  0
   26.2475  -20.9057   -9.2591 C   0  0  0  0  0  0  0  0  0  0  0  0
   26.1437  -22.1372   -9.4848 O   0  0  0  0  0  0  0  0  0  0  0  0
   23.6954  -20.4887   -8.4876 O   0  0  0  0  0  0  0  0  0  0  0  0
   26.8390  -20.4249   -8.0599 N   0  0  0  0  0  0  0  0  0  0  0  0
   27.4674  -21.2735   -7.0821 C   0  0  1  0  0  0  0  0  0  0  0  0
   28.8212  -20.7687   -6.7034 C   0  0  0  0  0  0  0  0  0  0  0  0
   28.8554  -19.7064   -5.7015 C   0  0  0  0  0  0  0  0  0  0  0  0
   29.1640  -19.9464   -4.3792 C   0  0  0  0  0  0  0  0  0  0  0  0
   29.1724  -18.8773   -3.5130 C   0  0  0  0  0  0  0  0  0  0  0  0
   28.8861  -17.5938   -3.9205 C   0  0  0  0  0  0  0  0  0  0  0  0
   28.5782  -17.3565   -5.2410 C   0  0  0  0  0  0  0  0  0  0  0  0
   28.5630  -18.4086   -6.1276 C   0  0  0  0  0  0  0  0  0  0  0  0
   26.5748  -21.5058   -5.9242 C   0  0  0  0  0  0  0  0  0  0  0  0
   26.9361  -22.3047   -5.0289 O   0  0  0  0  0  0  0  0  0  0  0  0
   25.3507  -20.8930   -5.7637 O   0  0  0  0  0  0  0  0  0  0  0  0
  2  1  1  6
  2  3  1  0
  4  3  1  0
  4  5  2  0
  6  5  1  0
  7  6  1  0
  8  7  2  0
  9  8  1  0
 10  9  2  0
 10 11  1  0
 11 12  2  0
 12  7  1  0
 12  4  1  0
 13  2  1  0
 14 13  2  0
 15 13  1  0
 16 15  1  0
 17 18  1  0
 16 17  1  6
 18 19  2  0
 20 16  1  0
 20 23  1  0
 21 20  2  0
 22 18  1  0
 24 23  1  0
 24 25  1  1
 24 32  1  0
 26 31  1  0
 26 25  1  0
 27 26  2  0
 28 29  2  0
 28 27  1  0
 29 30  1  0
 30 31  2  0
 32 34  1  0
 33 32  2  0
M  END
$$$$
