WDF.pdb
     RDKit          3D

 34 36  0  0  1  0  0  0  0  0999 V2000
   20.3682  -13.2763  -16.8306 N   0  0  0  0  0  0  0  0  0  0  0  0
   18.9596  -13.1958  -17.0274 C   0  0  1  0  0  0  0  0  0  0  0  0
   18.5184  -14.1486  -18.1165 C   0  0  0  0  0  0  0  0  0  0  0  0
   18.9443  -13.6334  -19.4196 C   0  0  0  0  0  0  0  0  0  0  0  0
   20.1468  -13.8160  -20.0645 C   0  0  0  0  0  0  0  0  0  0  0  0
   20.0973  -13.1643  -21.2325 N   0  0  0  0  0  0  0  0  0  0  0  0
   18.9095  -12.5674  -21.3685 C   0  0  0  0  0  0  0  0  0  0  0  0
   18.3390  -11.7769  -22.3685 C   0  0  0  0  0  0  0  0  0  0  0  0
   17.0611  -11.2753  -22.2544 C   0  0  0  0  0  0  0  0  0  0  0  0
   16.3409  -11.5646  -21.1287 C   0  0  0  0  0  0  0  0  0  0  0  0
   16.8821  -12.3521  -20.1103 C   0  0  0  0  0  0  0  0  0  0  0  0
   18.1766  -12.8465  -20.2514 C   0  0  0  0  0  0  0  0  0  0  0  0
   18.2616  -13.5187  -15.7606 C   0  0  0  0  0  0  0  0  0  0  0  0
   18.9111  -14.1413  -14.8751 O   0  0  0  0  0  0  0  0  0  0  0  0
   16.9077  -13.1482  -15.5333 N   0  0  0  0  0  0  0  0  0  0  0  0
   16.2128  -13.4117  -14.2880 C   0  0  1  0  0  0  0  0  0  0  0  0
   15.0233  -12.5196  -14.1142 C   0  0  0  0  0  0  0  0  0  0  0  0
   13.9891  -12.7206  -15.1395 C   0  0  0  0  0  0  0  0  0  0  0  0
   14.1902  -12.3292  -16.3116 O   0  0  0  0  0  0  0  0  0  0  0  0
   15.9303  -14.8601  -14.1200 C   0  0  0  0  0  0  0  0  0  0  0  0
   15.7185  -15.5275  -15.1630 O   0  0  0  0  0  0  0  0  0  0  0  0
   12.8052  -13.3421  -14.7896 O   0  0  0  0  0  0  0  0  0  0  0  0
   15.8997  -15.4704  -12.8371 N   0  0  0  0  0  0  0  0  0  0  0  0
   15.6709  -16.8753  -12.6253 C   0  0  1  0  0  0  0  0  0  0  0  0
   16.8071  -17.5146  -11.8963 C   0  0  0  0  0  0  0  0  0  0  0  0
   18.0585  -17.6419  -12.6388 C   0  0  0  0  0  0  0  0  0  0  0  0
   18.2396  -18.5866  -13.6268 C   0  0  0  0  0  0  0  0  0  0  0  0
   19.4552  -18.6242  -14.2703 C   0  0  0  0  0  0  0  0  0  0  0  0
   20.4815  -17.7598  -13.9621 C   0  0  0  0  0  0  0  0  0  0  0  0
   20.2986  -16.8175  -12.9754 C   0  0  0  0  0  0  0  0  0  0  0  0
   19.0921  -16.7591  -12.3167 C   0  0  0  0  0  0  0  0  0  0  0  0
   14.3525  -17.1127  -11.9954 C   0  0  0  0  0  0  0  0  0  0  0  0
   13.6237  -16.1307  -11.7218 O   0  0  0  0  0  0  0  0  0  0  0  0
   13.8657  -18.3637  -11.6824 O   0  0  0  0  0  0  0  0  0  0  0  0
  2  1  1  1
  2  3  1  0
  4  3  1  0
  4  5  2  0
  6  5  1  0
  7  6  1  0
  8  7  2  0
  9  8  1  0
 10  9  2  0
 10 11  1  0
 11 12  2  0
 12  7  1  0
 12  4  1  0
 13  2  1  0
 14 13  2  0
 15 13  1  0
 16 15  1  0
 17 18  1  0
 16 17  1  6
 18 19  2  0
 20 16  1  0
 20 23  1  0
 21 20  2  0
 22 18  1  0
 24 23  1  0
 24 25  1  1
 24 32  1  0
 26 31  1  0
 26 25  1  0
 27 26  2  0
 28 29  2  0
 28 27  1  0
 29 30  1  0
 30 31  2  0
 32 34  1  0
 33 32  2  0
M  END
$$$$
