WDF.pdb
     RDKit          3D

 34 36  0  0  1  0  0  0  0  0999 V2000
   22.2550  -21.2611  -15.0049 N   0  0  0  0  0  0  0  0  0  0  0  0
   22.8299  -20.5365  -13.9214 C   0  0  1  0  0  0  0  0  0  0  0  0
   21.7999  -20.2856  -12.8422 C   0  0  0  0  0  0  0  0  0  0  0  0
   20.6627  -19.5584  -13.4105 C   0  0  0  0  0  0  0  0  0  0  0  0
   19.3196  -19.7398  -13.1692 C   0  0  0  0  0  0  0  0  0  0  0  0
   18.6395  -18.8526  -13.9053 N   0  0  0  0  0  0  0  0  0  0  0  0
   19.4905  -18.1042  -14.6133 C   0  0  0  0  0  0  0  0  0  0  0  0
   19.3238  -17.0562  -15.5213 C   0  0  0  0  0  0  0  0  0  0  0  0
   20.3997  -16.4427  -16.1245 C   0  0  0  0  0  0  0  0  0  0  0  0
   21.6593  -16.8786  -15.8196 C   0  0  0  0  0  0  0  0  0  0  0  0
   21.8603  -17.9241  -14.9158 C   0  0  0  0  0  0  0  0  0  0  0  0
   20.7548  -18.5268  -14.3203 C   0  0  0  0  0  0  0  0  0  0  0  0
   23.9708  -21.2998  -13.3630 C   0  0  0  0  0  0  0  0  0  0  0  0
   23.8539  -22.5541  -13.2816 O   0  0  0  0  0  0  0  0  0  0  0  0
   25.1633  -20.6582  -12.9290 N   0  0  0  0  0  0  0  0  0  0  0  0
   26.2975  -21.3794  -12.3845 C   0  0  1  0  0  0  0  0  0  0  0  0
   27.5968  -20.8520  -12.9084 C   0  0  0  0  0  0  0  0  0  0  0  0
   27.9334  -21.3567  -14.2475 C   0  0  0  0  0  0  0  0  0  0  0  0
   27.0209  -21.5911  -15.0719 O   0  0  0  0  0  0  0  0  0  0  0  0
   26.2200  -21.4753  -10.9044 C   0  0  0  0  0  0  0  0  0  0  0  0
   25.1252  -21.8436  -10.4104 O   0  0  0  0  0  0  0  0  0  0  0  0
   29.2599  -21.5649  -14.5752 O   0  0  0  0  0  0  0  0  0  0  0  0
   27.3330  -21.1651  -10.0772 N   0  0  0  0  0  0  0  0  0  0  0  0
   27.2695  -21.1043   -8.6408 C   0  0  1  0  0  0  0  0  0  0  0  0
   28.4198  -20.3411   -8.0704 C   0  0  0  0  0  0  0  0  0  0  0  0
   28.4091  -20.1463   -6.6228 C   0  0  0  0  0  0  0  0  0  0  0  0
   28.5456  -21.1922   -5.7347 C   0  0  0  0  0  0  0  0  0  0  0  0
   28.5254  -20.9046   -4.3892 C   0  0  0  0  0  0  0  0  0  0  0  0
   28.3752  -19.6228   -3.9098 C   0  0  0  0  0  0  0  0  0  0  0  0
   28.2390  -18.5802   -4.7982 C   0  0  0  0  0  0  0  0  0  0  0  0
   28.2560  -18.8412   -6.1490 C   0  0  0  0  0  0  0  0  0  0  0  0
   25.9484  -20.6161   -8.1849 C   0  0  0  0  0  0  0  0  0  0  0  0
   25.5046  -19.5402   -8.6491 O   0  0  0  0  0  0  0  0  0  0  0  0
   25.1616  -21.2767   -7.2660 O   0  0  0  0  0  0  0  0  0  0  0  0
  2  1  1  6
  2  3  1  0
  4  3  1  0
  4  5  2  0
  6  5  1  0
  7  6  1  0
  8  7  2  0
  9  8  1  0
 10  9  2  0
 10 11  1  0
 11 12  2  0
 12  7  1  0
 12  4  1  0
 13  2  1  0
 14 13  2  0
 15 13  1  0
 16 15  1  0
 17 18  1  0
 16 17  1  1
 18 19  2  0
 20 16  1  0
 20 23  1  0
 21 20  2  0
 22 18  1  0
 24 23  1  0
 24 25  1  6
 24 32  1  0
 26 31  1  0
 26 25  1  0
 27 26  2  0
 28 29  2  0
 28 27  1  0
 29 30  1  0
 30 31  2  0
 32 34  1  0
 33 32  2  0
M  END
$$$$
