WDF.pdb
     RDKit          3D

 34 36  0  0  1  0  0  0  0  0999 V2000
   33.9384  -33.8599  -18.0215 N   0  0  0  0  0  0  0  0  0  0  0  0
   33.7163  -32.9363  -19.0831 C   0  0  1  0  0  0  0  0  0  0  0  0
   32.5067  -33.3407  -19.8967 C   0  0  0  0  0  0  0  0  0  0  0  0
   32.8887  -34.3751  -20.8607 C   0  0  0  0  0  0  0  0  0  0  0  0
   33.2213  -35.6897  -20.6235 C   0  0  0  0  0  0  0  0  0  0  0  0
   33.5009  -36.2680  -21.7978 N   0  0  0  0  0  0  0  0  0  0  0  0
   33.3620  -35.3787  -22.7854 C   0  0  0  0  0  0  0  0  0  0  0  0
   33.5245  -35.4464  -24.1708 C   0  0  0  0  0  0  0  0  0  0  0  0
   33.3109  -34.3517  -24.9794 C   0  0  0  0  0  0  0  0  0  0  0  0
   32.9302  -33.1729  -24.4007 C   0  0  0  0  0  0  0  0  0  0  0  0
   32.7589  -33.0718  -23.0183 C   0  0  0  0  0  0  0  0  0  0  0  0
   32.9815  -34.1941  -22.2241 C   0  0  0  0  0  0  0  0  0  0  0  0
   33.5191  -31.5772  -18.5264 C   0  0  0  0  0  0  0  0  0  0  0  0
   32.9790  -31.4816  -17.3893 O   0  0  0  0  0  0  0  0  0  0  0  0
   33.9179  -30.4103  -19.2342 N   0  0  0  0  0  0  0  0  0  0  0  0
   33.7171  -29.0674  -18.7248 C   0  0  1  0  0  0  0  0  0  0  0  0
   34.7013  -28.0990  -19.3031 C   0  0  0  0  0  0  0  0  0  0  0  0
   34.5357  -26.7282  -18.7986 C   0  0  0  0  0  0  0  0  0  0  0  0
   34.1901  -25.8143  -19.5813 O   0  0  0  0  0  0  0  0  0  0  0  0
   32.2965  -28.6498  -18.8404 C   0  0  0  0  0  0  0  0  0  0  0  0
   31.6948  -28.9519  -19.9011 O   0  0  0  0  0  0  0  0  0  0  0  0
   34.7658  -26.4704  -17.4603 O   0  0  0  0  0  0  0  0  0  0  0  0
   31.6406  -27.9389  -17.7995 N   0  0  0  0  0  0  0  0  0  0  0  0
   30.2692  -27.5079  -17.8664 C   0  0  1  0  0  0  0  0  0  0  0  0
   29.6769  -27.3420  -16.5052 C   0  0  0  0  0  0  0  0  0  0  0  0
   28.2896  -26.8875  -16.4575 C   0  0  0  0  0  0  0  0  0  0  0  0
   27.2254  -27.7632  -16.4159 C   0  0  0  0  0  0  0  0  0  0  0  0
   25.9554  -27.2355  -16.3698 C   0  0  0  0  0  0  0  0  0  0  0  0
   25.7185  -25.8794  -16.3642 C   0  0  0  0  0  0  0  0  0  0  0  0
   26.7823  -25.0069  -16.4058 C   0  0  0  0  0  0  0  0  0  0  0  0
   28.0625  -25.5092  -16.4523 C   0  0  0  0  0  0  0  0  0  0  0  0
   30.1268  -26.3111  -18.7259 C   0  0  0  0  0  0  0  0  0  0  0  0
   31.0688  -25.4866  -18.7810 O   0  0  0  0  0  0  0  0  0  0  0  0
   29.0066  -26.0375  -19.4810 O   0  0  0  0  0  0  0  0  0  0  0  0
  2  1  1  1
  2  3  1  0
  4  3  1  0
  4  5  2  0
  6  5  1  0
  7  6  1  0
  8  7  2  0
  9  8  1  0
 10  9  2  0
 10 11  1  0
 11 12  2  0
 12  7  1  0
 12  4  1  0
 13  2  1  0
 14 13  2  0
 15 13  1  0
 16 15  1  0
 17 18  1  0
 16 17  1  6
 18 19  2  0
 20 16  1  0
 20 23  1  0
 21 20  2  0
 22 18  1  0
 24 23  1  0
 24 25  1  1
 24 32  1  0
 26 31  1  0
 26 25  1  0
 27 26  2  0
 28 29  2  0
 28 27  1  0
 29 30  1  0
 30 31  2  0
 32 34  1  0
 33 32  2  0
M  END
$$$$
