WDF.pdb
     RDKit          3D

 34 36  0  0  1  0  0  0  0  0999 V2000
   14.5290  -20.3386    2.1697 N   0  0  0  0  0  0  0  0  0  0  0  0
   15.3554  -21.1492    3.0001 C   0  0  1  0  0  0  0  0  0  0  0  0
   16.6762  -21.4356    2.3202 C   0  0  0  0  0  0  0  0  0  0  0  0
   16.4529  -22.3067    1.1642 C   0  0  0  0  0  0  0  0  0  0  0  0
   16.2346  -21.9535   -0.1483 C   0  0  0  0  0  0  0  0  0  0  0  0
   16.0816  -23.0751   -0.8626 N   0  0  0  0  0  0  0  0  0  0  0  0
   16.1926  -24.1401   -0.0632 C   0  0  0  0  0  0  0  0  0  0  0  0
   16.1195  -25.5177   -0.2805 C   0  0  0  0  0  0  0  0  0  0  0  0
   16.2743  -26.4221    0.7471 C   0  0  0  0  0  0  0  0  0  0  0  0
   16.5053  -25.9485    2.0087 C   0  0  0  0  0  0  0  0  0  0  0  0
   16.5841  -24.5769    2.2597 C   0  0  0  0  0  0  0  0  0  0  0  0
   16.4238  -23.6844    1.2024 C   0  0  0  0  0  0  0  0  0  0  0  0
   15.5907  -20.4603    4.2909 C   0  0  0  0  0  0  0  0  0  0  0  0
   15.8476  -19.2248    4.2582 O   0  0  0  0  0  0  0  0  0  0  0  0
   15.5334  -21.1510    5.5324 N   0  0  0  0  0  0  0  0  0  0  0  0
   15.7436  -20.5003    6.8113 C   0  0  1  0  0  0  0  0  0  0  0  0
   15.3351  -21.3750    7.9553 C   0  0  0  0  0  0  0  0  0  0  0  0
   13.8863  -21.6162    8.0165 C   0  0  0  0  0  0  0  0  0  0  0  0
   13.0903  -20.6560    7.9082 O   0  0  0  0  0  0  0  0  0  0  0  0
   17.1160  -19.9426    6.9175 C   0  0  0  0  0  0  0  0  0  0  0  0
   18.0439  -20.5973    6.3802 O   0  0  0  0  0  0  0  0  0  0  0  0
   13.4250  -22.9070    8.1937 O   0  0  0  0  0  0  0  0  0  0  0  0
   17.3748  -18.7215    7.5964 N   0  0  0  0  0  0  0  0  0  0  0  0
   18.6937  -18.2670    7.9498 C   0  0  1  0  0  0  0  0  0  0  0  0
   19.1606  -17.1740    7.0451 C   0  0  0  0  0  0  0  0  0  0  0  0
   20.4366  -16.5528    7.3905 C   0  0  0  0  0  0  0  0  0  0  0  0
   21.6411  -17.2088    7.2486 C   0  0  0  0  0  0  0  0  0  0  0  0
   22.7889  -16.5360    7.5994 C   0  0  0  0  0  0  0  0  0  0  0  0
   22.7716  -15.2463    8.0808 C   0  0  0  0  0  0  0  0  0  0  0  0
   21.5681  -14.5933    8.2217 C   0  0  0  0  0  0  0  0  0  0  0  0
   20.4056  -15.2441    7.8779 C   0  0  0  0  0  0  0  0  0  0  0  0
   18.7725  -17.9223    9.3873 C   0  0  0  0  0  0  0  0  0  0  0  0
   17.7953  -17.3574    9.9314 O   0  0  0  0  0  0  0  0  0  0  0  0
   19.8692  -18.1839   10.1802 O   0  0  0  0  0  0  0  0  0  0  0  0
  2  1  1  6
  2  3  1  0
  4  3  1  0
  4  5  2  0
  6  5  1  0
  7  6  1  0
  8  7  2  0
  9  8  1  0
 10  9  2  0
 10 11  1  0
 11 12  2  0
 12  7  1  0
 12  4  1  0
 13  2  1  0
 14 13  2  0
 15 13  1  0
 16 15  1  0
 17 18  1  0
 16 17  1  1
 18 19  2  0
 20 16  1  0
 20 23  1  0
 21 20  2  0
 22 18  1  0
 24 23  1  0
 24 25  1  6
 24 32  1  0
 26 31  1  0
 26 25  1  0
 27 26  2  0
 28 29  2  0
 28 27  1  0
 29 30  1  0
 30 31  2  0
 32 34  1  0
 33 32  2  0
M  END
$$$$
