WDF.pdb
     RDKit          3D

 34 36  0  0  1  0  0  0  0  0999 V2000
   25.7549  -18.6135  -15.7623 N   0  0  0  0  0  0  0  0  0  0  0  0
   26.4648  -19.3705  -14.7864 C   0  0  1  0  0  0  0  0  0  0  0  0
   27.8379  -18.7812  -14.5502 C   0  0  0  0  0  0  0  0  0  0  0  0
   28.6293  -18.8761  -15.7789 C   0  0  0  0  0  0  0  0  0  0  0  0
   29.0596  -17.8618  -16.6042 C   0  0  0  0  0  0  0  0  0  0  0  0
   29.7523  -18.4081  -17.6108 N   0  0  0  0  0  0  0  0  0  0  0  0
   29.7869  -19.7363  -17.4688 C   0  0  0  0  0  0  0  0  0  0  0  0
   30.3596  -20.7689  -18.2145 C   0  0  0  0  0  0  0  0  0  0  0  0
   30.2421  -22.0878  -17.8346 C   0  0  0  0  0  0  0  0  0  0  0  0
   29.5447  -22.3831  -16.6963 C   0  0  0  0  0  0  0  0  0  0  0  0
   28.9599  -21.3740  -15.9281 C   0  0  0  0  0  0  0  0  0  0  0  0
   29.0941  -20.0487  -16.3351 C   0  0  0  0  0  0  0  0  0  0  0  0
   25.6983  -19.3894  -13.5182 C   0  0  0  0  0  0  0  0  0  0  0  0
   25.4530  -18.2818  -12.9644 O   0  0  0  0  0  0  0  0  0  0  0  0
   25.2472  -20.6034  -12.9311 N   0  0  0  0  0  0  0  0  0  0  0  0
   24.5514  -20.6577  -11.6598 C   0  0  1  0  0  0  0  0  0  0  0  0
   23.2885  -21.4564  -11.7496 C   0  0  0  0  0  0  0  0  0  0  0  0
   22.3888  -21.2550  -10.6046 C   0  0  0  0  0  0  0  0  0  0  0  0
   22.6147  -20.3313   -9.7902 O   0  0  0  0  0  0  0  0  0  0  0  0
   25.4629  -21.0622  -10.5591 C   0  0  0  0  0  0  0  0  0  0  0  0
   26.1310  -22.1131  -10.7250 O   0  0  0  0  0  0  0  0  0  0  0  0
   21.3020  -22.0941  -10.4460 O   0  0  0  0  0  0  0  0  0  0  0  0
   25.5786  -20.2974   -9.3671 N   0  0  0  0  0  0  0  0  0  0  0  0
   26.4065  -20.6748   -8.2522 C   0  0  1  0  0  0  0  0  0  0  0  0
   27.2768  -19.5460   -7.8055 C   0  0  0  0  0  0  0  0  0  0  0  0
   28.0248  -19.7596   -6.5692 C   0  0  0  0  0  0  0  0  0  0  0  0
   29.0571  -20.6689   -6.4769 C   0  0  0  0  0  0  0  0  0  0  0  0
   29.7019  -20.7946   -5.2678 C   0  0  0  0  0  0  0  0  0  0  0  0
   29.3525  -20.0507   -4.1633 C   0  0  0  0  0  0  0  0  0  0  0  0
   28.3215  -19.1435   -4.2576 C   0  0  0  0  0  0  0  0  0  0  0  0
   27.6606  -18.9988   -5.4557 C   0  0  0  0  0  0  0  0  0  0  0  0
   25.5981  -21.2682   -7.1633 C   0  0  0  0  0  0  0  0  0  0  0  0
   24.3599  -21.0758   -7.1512 O   0  0  0  0  0  0  0  0  0  0  0  0
   26.1262  -22.0296   -6.1430 O   0  0  0  0  0  0  0  0  0  0  0  0
  2  1  1  6
  2  3  1  0
  4  3  1  0
  4  5  2  0
  6  5  1  0
  7  6  1  0
  8  7  2  0
  9  8  1  0
 10  9  2  0
 10 11  1  0
 11 12  2  0
 12  7  1  0
 12  4  1  0
 13  2  1  0
 14 13  2  0
 15 13  1  0
 16 15  1  0
 17 18  1  0
 16 17  1  6
 18 19  2  0
 20 16  1  0
 20 23  1  0
 21 20  2  0
 22 18  1  0
 24 23  1  0
 24 25  1  1
 24 32  1  0
 26 31  1  0
 26 25  1  0
 27 26  2  0
 28 29  2  0
 28 27  1  0
 29 30  1  0
 30 31  2  0
 32 34  1  0
 33 32  2  0
M  END
$$$$
