WDF.pdb
     RDKit          3D

 34 36  0  0  1  0  0  0  0  0999 V2000
   23.7123  -17.7180  -15.5838 N   0  0  0  0  0  0  0  0  0  0  0  0
   25.0545  -18.1067  -15.3069 C   0  0  1  0  0  0  0  0  0  0  0  0
   25.7098  -17.1236  -14.3620 C   0  0  0  0  0  0  0  0  0  0  0  0
   26.4312  -16.1093  -15.1339 C   0  0  0  0  0  0  0  0  0  0  0  0
   26.1342  -14.7738  -15.2867 C   0  0  0  0  0  0  0  0  0  0  0  0
   27.0651  -14.2269  -16.0778 N   0  0  0  0  0  0  0  0  0  0  0  0
   27.9529  -15.1567  -16.4426 C   0  0  0  0  0  0  0  0  0  0  0  0
   29.0982  -15.1323  -17.2413 C   0  0  0  0  0  0  0  0  0  0  0  0
   29.8530  -16.2637  -17.4597 C   0  0  0  0  0  0  0  0  0  0  0  0
   29.4623  -17.4361  -16.8747 C   0  0  0  0  0  0  0  0  0  0  0  0
   28.3221  -17.4944  -16.0703 C   0  0  0  0  0  0  0  0  0  0  0  0
   27.5771  -16.3354  -15.8661 C   0  0  0  0  0  0  0  0  0  0  0  0
   25.0663  -19.4637  -14.7117 C   0  0  0  0  0  0  0  0  0  0  0  0
   24.0093  -19.8682  -14.1523 O   0  0  0  0  0  0  0  0  0  0  0  0
   26.2189  -20.2951  -14.7595 N   0  0  0  0  0  0  0  0  0  0  0  0
   26.2859  -21.5938  -14.1176 C   0  0  1  0  0  0  0  0  0  0  0  0
   27.1276  -22.5569  -14.8954 C   0  0  0  0  0  0  0  0  0  0  0  0
   26.8660  -22.5238  -16.3416 C   0  0  0  0  0  0  0  0  0  0  0  0
   25.6902  -22.4221  -16.7594 O   0  0  0  0  0  0  0  0  0  0  0  0
   26.6500  -21.4720  -12.6829 C   0  0  0  0  0  0  0  0  0  0  0  0
   27.8740  -21.4728  -12.4000 O   0  0  0  0  0  0  0  0  0  0  0  0
   27.9294  -22.6059  -17.2207 O   0  0  0  0  0  0  0  0  0  0  0  0
   25.6608  -21.3590  -11.6690 N   0  0  0  0  0  0  0  0  0  0  0  0
   25.9616  -21.2717  -10.2644 C   0  0  1  0  0  0  0  0  0  0  0  0
   27.0008  -20.2353   -9.9871 C   0  0  0  0  0  0  0  0  0  0  0  0
   27.3285  -20.0117   -8.5813 C   0  0  0  0  0  0  0  0  0  0  0  0
   28.0625  -20.9137   -7.8404 C   0  0  0  0  0  0  0  0  0  0  0  0
   28.3208  -20.6100   -6.5235 C   0  0  0  0  0  0  0  0  0  0  0  0
   27.8751  -19.4496   -5.9316 C   0  0  0  0  0  0  0  0  0  0  0  0
   27.1424  -18.5506   -6.6730 C   0  0  0  0  0  0  0  0  0  0  0  0
   26.8704  -18.8308   -7.9924 C   0  0  0  0  0  0  0  0  0  0  0  0
   24.7280  -21.1050   -9.4634 C   0  0  0  0  0  0  0  0  0  0  0  0
   23.7120  -20.6126  -10.0070 O   0  0  0  0  0  0  0  0  0  0  0  0
   24.6215  -21.4595   -8.1357 O   0  0  0  0  0  0  0  0  0  0  0  0
  2  1  1  1
  2  3  1  0
  4  3  1  0
  4  5  2  0
  6  5  1  0
  7  6  1  0
  8  7  2  0
  9  8  1  0
 10  9  2  0
 10 11  1  0
 11 12  2  0
 12  7  1  0
 12  4  1  0
 13  2  1  0
 14 13  2  0
 15 13  1  0
 16 15  1  0
 17 18  1  0
 16 17  1  6
 18 19  2  0
 20 16  1  0
 20 23  1  0
 21 20  2  0
 22 18  1  0
 24 23  1  0
 24 25  1  6
 24 32  1  0
 26 31  1  0
 26 25  1  0
 27 26  2  0
 28 29  2  0
 28 27  1  0
 29 30  1  0
 30 31  2  0
 32 34  1  0
 33 32  2  0
M  END
$$$$
