WDF.pdb
     RDKit          3D

 34 36  0  0  1  0  0  0  0  0999 V2000
   27.3796  -21.2548  -15.7488 N   0  0  0  0  0  0  0  0  0  0  0  0
   26.6484  -21.5820  -14.5708 C   0  0  1  0  0  0  0  0  0  0  0  0
   26.5015  -20.3678  -13.6804 C   0  0  0  0  0  0  0  0  0  0  0  0
   27.8076  -20.0084  -13.1236 C   0  0  0  0  0  0  0  0  0  0  0  0
   28.6639  -19.0057  -13.5194 C   0  0  0  0  0  0  0  0  0  0  0  0
   29.7430  -19.0419  -12.7283 N   0  0  0  0  0  0  0  0  0  0  0  0
   29.6180  -20.0287  -11.8361 C   0  0  0  0  0  0  0  0  0  0  0  0
   30.4297  -20.4984  -10.8013 C   0  0  0  0  0  0  0  0  0  0  0  0
   30.0521  -21.5611  -10.0102 C   0  0  0  0  0  0  0  0  0  0  0  0
   28.8496  -22.1649  -10.2527 C   0  0  0  0  0  0  0  0  0  0  0  0
   28.0145  -21.7195  -11.2796 C   0  0  0  0  0  0  0  0  0  0  0  0
   28.4207  -20.6429  -12.0644 C   0  0  0  0  0  0  0  0  0  0  0  0
   25.3107  -22.0994  -14.9439 C   0  0  0  0  0  0  0  0  0  0  0  0
   24.7097  -21.5361  -15.9005 O   0  0  0  0  0  0  0  0  0  0  0  0
   24.7099  -23.1912  -14.2593 N   0  0  0  0  0  0  0  0  0  0  0  0
   23.3436  -23.6175  -14.4932 C   0  0  1  0  0  0  0  0  0  0  0  0
   23.2131  -25.1085  -14.4678 C   0  0  0  0  0  0  0  0  0  0  0  0
   21.8930  -25.5857  -14.9045 C   0  0  0  0  0  0  0  0  0  0  0  0
   21.2822  -24.9809  -15.8147 O   0  0  0  0  0  0  0  0  0  0  0  0
   22.3915  -22.8975  -13.6095 C   0  0  0  0  0  0  0  0  0  0  0  0
   22.1282  -23.4249  -12.5001 O   0  0  0  0  0  0  0  0  0  0  0  0
   21.3455  -26.7010  -14.2989 O   0  0  0  0  0  0  0  0  0  0  0  0
   21.8005  -21.6646  -13.9966 N   0  0  0  0  0  0  0  0  0  0  0  0
   20.9259  -20.8965  -13.1504 C   0  0  1  0  0  0  0  0  0  0  0  0
   21.6069  -19.6801  -12.6140 C   0  0  0  0  0  0  0  0  0  0  0  0
   22.8611  -19.9060  -11.9003 C   0  0  0  0  0  0  0  0  0  0  0  0
   24.0831  -19.9210  -12.5387 C   0  0  0  0  0  0  0  0  0  0  0  0
   25.2079  -20.1395  -11.7769 C   0  0  0  0  0  0  0  0  0  0  0  0
   25.1511  -20.3409  -10.4162 C   0  0  0  0  0  0  0  0  0  0  0  0
   23.9301  -20.3257   -9.7808 C   0  0  0  0  0  0  0  0  0  0  0  0
   22.7900  -20.1091  -10.5201 C   0  0  0  0  0  0  0  0  0  0  0  0
   19.6430  -20.6078  -13.8301 C   0  0  0  0  0  0  0  0  0  0  0  0
   18.7179  -20.0686  -13.1792 O   0  0  0  0  0  0  0  0  0  0  0  0
   19.3932  -20.8998  -15.1538 O   0  0  0  0  0  0  0  0  0  0  0  0
  2  1  1  6
  2  3  1  0
  4  3  1  0
  4  5  2  0
  6  5  1  0
  7  6  1  0
  8  7  2  0
  9  8  1  0
 10  9  2  0
 10 11  1  0
 11 12  2  0
 12  7  1  0
 12  4  1  0
 13  2  1  0
 14 13  2  0
 15 13  1  0
 16 15  1  0
 17 18  1  0
 16 17  1  1
 18 19  2  0
 20 16  1  0
 20 23  1  0
 21 20  2  0
 22 18  1  0
 24 23  1  0
 24 25  1  6
 24 32  1  0
 26 31  1  0
 26 25  1  0
 27 26  2  0
 28 29  2  0
 28 27  1  0
 29 30  1  0
 30 31  2  0
 32 34  1  0
 33 32  2  0
M  END
$$$$
