WDF.pdb
     RDKit          3D

 34 36  0  0  1  0  0  0  0  0999 V2000
   27.2325  -20.4510  -14.5376 N   0  0  0  0  0  0  0  0  0  0  0  0
   27.7902  -20.6341  -13.2396 C   0  0  1  0  0  0  0  0  0  0  0  0
   29.1425  -19.9631  -13.1413 C   0  0  0  0  0  0  0  0  0  0  0  0
   30.1658  -20.8369  -13.7198 C   0  0  0  0  0  0  0  0  0  0  0  0
   30.6533  -20.8537  -15.0071 C   0  0  0  0  0  0  0  0  0  0  0  0
   31.5787  -21.8172  -15.0904 N   0  0  0  0  0  0  0  0  0  0  0  0
   31.7089  -22.4241  -13.9071 C   0  0  0  0  0  0  0  0  0  0  0  0
   32.5114  -23.4696  -13.4454 C   0  0  0  0  0  0  0  0  0  0  0  0
   32.4454  -23.9121  -12.1425 C   0  0  0  0  0  0  0  0  0  0  0  0
   31.5682  -23.3053  -11.2870 C   0  0  0  0  0  0  0  0  0  0  0  0
   30.7517  -22.2571  -11.7171 C   0  0  0  0  0  0  0  0  0  0  0  0
   30.8387  -21.8294  -13.0398 C   0  0  0  0  0  0  0  0  0  0  0  0
   26.8725  -20.0724  -12.2206 C   0  0  0  0  0  0  0  0  0  0  0  0
   26.8795  -18.8216  -12.0506 O   0  0  0  0  0  0  0  0  0  0  0  0
   26.0073  -20.8986  -11.4520 N   0  0  0  0  0  0  0  0  0  0  0  0
   25.4390  -20.4862  -10.1831 C   0  0  1  0  0  0  0  0  0  0  0  0
   23.9465  -20.6009  -10.1775 C   0  0  0  0  0  0  0  0  0  0  0  0
   23.3218  -20.1428  -11.4269 C   0  0  0  0  0  0  0  0  0  0  0  0
   23.1080  -18.9222  -11.6050 O   0  0  0  0  0  0  0  0  0  0  0  0
   26.1157  -21.1546   -9.0424 C   0  0  0  0  0  0  0  0  0  0  0  0
   26.6613  -22.2632   -9.2694 O   0  0  0  0  0  0  0  0  0  0  0  0
   22.9792  -21.0736  -12.3895 O   0  0  0  0  0  0  0  0  0  0  0  0
   26.1479  -20.5703   -7.7476 N   0  0  0  0  0  0  0  0  0  0  0  0
   26.6362  -21.2487   -6.5761 C   0  0  1  0  0  0  0  0  0  0  0  0
   28.0662  -20.9153   -6.3023 C   0  0  0  0  0  0  0  0  0  0  0  0
   28.3049  -19.7543   -5.4487 C   0  0  0  0  0  0  0  0  0  0  0  0
   27.9521  -18.4752   -5.8240 C   0  0  0  0  0  0  0  0  0  0  0  0
   28.2169  -17.4481   -4.9475 C   0  0  0  0  0  0  0  0  0  0  0  0
   28.8148  -17.6557   -3.7248 C   0  0  0  0  0  0  0  0  0  0  0  0
   29.1662  -18.9334   -3.3522 C   0  0  0  0  0  0  0  0  0  0  0  0
   28.9121  -19.9781   -4.2108 C   0  0  0  0  0  0  0  0  0  0  0  0
   25.7420  -21.0249   -5.4178 C   0  0  0  0  0  0  0  0  0  0  0  0
   24.7469  -20.2756   -5.5538 O   0  0  0  0  0  0  0  0  0  0  0  0
   25.9358  -21.5941   -4.1775 O   0  0  0  0  0  0  0  0  0  0  0  0
  2  1  1  6
  2  3  1  0
  4  3  1  0
  4  5  2  0
  6  5  1  0
  7  6  1  0
  8  7  2  0
  9  8  1  0
 10  9  2  0
 10 11  1  0
 11 12  2  0
 12  7  1  0
 12  4  1  0
 13  2  1  0
 14 13  2  0
 15 13  1  0
 16 15  1  0
 17 18  1  0
 16 17  1  6
 18 19  2  0
 20 16  1  0
 20 23  1  0
 21 20  2  0
 22 18  1  0
 24 23  1  0
 24 25  1  1
 24 32  1  0
 26 31  1  0
 26 25  1  0
 27 26  2  0
 28 29  2  0
 28 27  1  0
 29 30  1  0
 30 31  2  0
 32 34  1  0
 33 32  2  0
M  END
$$$$
