WDF.pdb
     RDKit          3D

 34 36  0  0  1  0  0  0  0  0999 V2000
   27.4750  -20.3189  -16.3512 N   0  0  0  0  0  0  0  0  0  0  0  0
   26.8629  -20.9249  -15.2165 C   0  0  1  0  0  0  0  0  0  0  0  0
   26.7676  -19.9394  -14.0726 C   0  0  0  0  0  0  0  0  0  0  0  0
   28.0982  -19.7248  -13.4994 C   0  0  0  0  0  0  0  0  0  0  0  0
   29.0009  -18.7226  -13.7749 C   0  0  0  0  0  0  0  0  0  0  0  0
   30.0871  -18.9195  -13.0180 N   0  0  0  0  0  0  0  0  0  0  0  0
   29.9221  -20.0099  -12.2634 C   0  0  0  0  0  0  0  0  0  0  0  0
   30.7216  -20.6551  -11.3174 C   0  0  0  0  0  0  0  0  0  0  0  0
   30.2990  -21.7941  -10.6681 C   0  0  0  0  0  0  0  0  0  0  0  0
   29.0631  -22.2981  -10.9645 C   0  0  0  0  0  0  0  0  0  0  0  0
   28.2390  -21.6769  -11.9055 C   0  0  0  0  0  0  0  0  0  0  0  0
   28.6910  -20.5264  -12.5474 C   0  0  0  0  0  0  0  0  0  0  0  0
   25.5101  -21.4083  -15.5805 C   0  0  0  0  0  0  0  0  0  0  0  0
   24.7474  -20.6109  -16.1937 O   0  0  0  0  0  0  0  0  0  0  0  0
   25.0697  -22.7214  -15.2583 N   0  0  0  0  0  0  0  0  0  0  0  0
   23.6790  -23.1280  -15.3209 C   0  0  1  0  0  0  0  0  0  0  0  0
   23.5368  -24.5716  -15.6905 C   0  0  0  0  0  0  0  0  0  0  0  0
   24.6067  -25.4207  -15.1471 C   0  0  0  0  0  0  0  0  0  0  0  0
   24.3519  -26.2309  -14.2274 O   0  0  0  0  0  0  0  0  0  0  0  0
   22.9405  -22.7267  -14.0965 C   0  0  0  0  0  0  0  0  0  0  0  0
   23.5302  -22.8745  -12.9971 O   0  0  0  0  0  0  0  0  0  0  0  0
   25.8836  -25.3092  -15.6644 O   0  0  0  0  0  0  0  0  0  0  0  0
   21.6232  -22.1976  -14.1594 N   0  0  0  0  0  0  0  0  0  0  0  0
   20.9554  -21.5799  -13.0441 C   0  0  1  0  0  0  0  0  0  0  0  0
   21.5289  -20.2360  -12.7343 C   0  0  0  0  0  0  0  0  0  0  0  0
   22.6820  -20.2189  -11.8379 C   0  0  0  0  0  0  0  0  0  0  0  0
   22.5744  -20.4843  -10.4891 C   0  0  0  0  0  0  0  0  0  0  0  0
   23.7209  -20.4460   -9.7292 C   0  0  0  0  0  0  0  0  0  0  0  0
   24.9543  -20.1549  -10.2668 C   0  0  0  0  0  0  0  0  0  0  0  0
   25.0596  -19.8902  -11.6135 C   0  0  0  0  0  0  0  0  0  0  0  0
   23.9279  -19.9221  -12.3955 C   0  0  0  0  0  0  0  0  0  0  0  0
   19.4881  -21.5688  -13.2397 C   0  0  0  0  0  0  0  0  0  0  0  0
   19.0269  -21.2604  -14.3633 O   0  0  0  0  0  0  0  0  0  0  0  0
   18.5798  -21.8782  -12.2503 O   0  0  0  0  0  0  0  0  0  0  0  0
  2  1  1  6
  2  3  1  0
  4  3  1  0
  4  5  2  0
  6  5  1  0
  7  6  1  0
  8  7  2  0
  9  8  1  0
 10  9  2  0
 10 11  1  0
 11 12  2  0
 12  7  1  0
 12  4  1  0
 13  2  1  0
 14 13  2  0
 15 13  1  0
 16 15  1  0
 17 18  1  0
 16 17  1  1
 18 19  2  0
 20 16  1  0
 20 23  1  0
 21 20  2  0
 22 18  1  0
 24 23  1  0
 24 25  1  6
 24 32  1  0
 26 31  1  0
 26 25  1  0
 27 26  2  0
 28 29  2  0
 28 27  1  0
 29 30  1  0
 30 31  2  0
 32 34  1  0
 33 32  2  0
M  END
$$$$
