EKC.pdb
     RDKit          3D

 25 24  0  0  1  0  0  0  0  0999 V2000
   11.2497  -18.8477   21.3794 N   0  0  0  0  0  0  0  0  0  0  0  0
   11.6847  -17.4571   21.6401 C   0  0  1  0  0  0  0  0  0  0  0  0
   11.5573  -16.7297   20.3435 C   0  0  0  0  0  0  0  0  0  0  0  0
   11.6262  -17.6557   19.1753 C   0  0  0  0  0  0  0  0  0  0  0  0
   11.4221  -16.9213   17.9159 C   0  0  0  0  0  0  0  0  0  0  0  0
   10.4833  -17.1086   17.1187 O   0  0  0  0  0  0  0  0  0  0  0  0
   10.7603  -16.9125   22.6504 C   0  0  0  0  0  0  0  0  0  0  0  0
   10.7317  -15.6547   22.8942 O   0  0  0  0  0  0  0  0  0  0  0  0
   12.3714  -15.9359   17.6070 O   0  0  0  0  0  0  0  0  0  0  0  0
    9.8964  -17.7816   23.3579 N   0  0  0  0  0  0  0  0  0  0  0  0
    9.0036  -17.2500   24.3522 C   0  0  1  0  0  0  0  0  0  0  0  0
    7.9005  -18.2298   24.6487 C   0  0  0  0  0  0  0  0  0  0  0  0
    7.1472  -18.6678   23.4156 C   0  0  0  0  0  0  0  0  0  0  0  0
    6.0534  -19.6109   23.8979 C   0  0  0  0  0  0  0  0  0  0  0  0
    5.2040  -20.1245   22.7764 C   0  0  0  0  0  0  0  0  0  0  0  0
    4.1445  -20.9229   23.3671 N   0  0  0  0  0  0  0  0  0  0  0  0
    9.7237  -16.8075   25.5688 C   0  0  0  0  0  0  0  0  0  0  0  0
   10.8010  -17.2676   25.9604 O   0  0  0  0  0  0  0  0  0  0  0  0
    9.1203  -15.7734   26.3377 N   0  0  0  0  0  0  0  0  0  0  0  0
    9.7750  -15.2296   27.5085 C   0  0  1  0  0  0  0  0  0  0  0  0
    9.1378  -13.9080   27.9280 C   0  0  0  0  0  0  0  0  0  0  0  0
    8.8870  -12.8853   26.4509 S   0  0  0  0  0  0  0  0  0  0  0  0
    9.8482  -16.1928   28.6144 C   0  0  0  0  0  0  0  0  0  0  0  0
    9.2450  -17.2942   28.6027 O   0  0  0  0  0  0  0  0  0  0  0  0
   10.6121  -15.9185   29.7576 O   0  0  0  0  0  0  0  0  0  0  0  0
  2  7  1  0
  2  1  1  6
  3  2  1  0
  4  3  1  0
  5  4  1  0
  5  9  1  0
  6  5  2  0
  7  8  2  0
 10 11  1  0
 10  7  1  0
 11 12  1  1
 12 13  1  0
 13 14  1  0
 15 14  1  0
 16 15  1  0
 17 11  1  0
 18 17  2  0
 19 17  1  0
 20 19  1  0
 20 21  1  1
 22 21  1  0
 23 20  1  0
 23 25  1  0
 24 23  2  0
M  END
$$$$
