EKC.pdb
     RDKit          3D

 25 24  0  0  1  0  0  0  0  0999 V2000
   10.7974  -14.7110   18.1456 N   0  0  0  0  0  0  0  0  0  0  0  0
   11.1745  -15.4148   19.3920 C   0  0  1  0  0  0  0  0  0  0  0  0
   12.4476  -14.7897   19.8556 C   0  0  0  0  0  0  0  0  0  0  0  0
   13.6443  -15.4571   19.2645 C   0  0  0  0  0  0  0  0  0  0  0  0
   14.8833  -14.9141   19.8451 C   0  0  0  0  0  0  0  0  0  0  0  0
   15.3324  -15.1955   20.9725 O   0  0  0  0  0  0  0  0  0  0  0  0
   10.0826  -15.1772   20.3528 C   0  0  0  0  0  0  0  0  0  0  0  0
    9.4915  -14.0410   20.3968 O   0  0  0  0  0  0  0  0  0  0  0  0
   15.6013  -14.0091   19.0493 O   0  0  0  0  0  0  0  0  0  0  0  0
    9.6813  -16.2087   21.2343 N   0  0  0  0  0  0  0  0  0  0  0  0
    8.5744  -15.9964   22.1277 C   0  0  1  0  0  0  0  0  0  0  0  0
    7.8103  -17.2763   22.3345 C   0  0  0  0  0  0  0  0  0  0  0  0
    7.0727  -17.7344   21.0991 C   0  0  0  0  0  0  0  0  0  0  0  0
    6.5664  -19.1381   21.4021 C   0  0  0  0  0  0  0  0  0  0  0  0
    5.7979  -19.7289   20.2605 C   0  0  0  0  0  0  0  0  0  0  0  0
    5.4353  -21.0834   20.6383 N   0  0  0  0  0  0  0  0  0  0  0  0
    8.9974  -15.3659   23.3997 C   0  0  0  0  0  0  0  0  0  0  0  0
   10.0986  -15.5241   23.9363 O   0  0  0  0  0  0  0  0  0  0  0  0
    8.0566  -14.5150   24.0443 N   0  0  0  0  0  0  0  0  0  0  0  0
    8.3597  -13.8859   25.3121 C   0  0  1  0  0  0  0  0  0  0  0  0
    7.4203  -12.7135   25.5801 C   0  0  0  0  0  0  0  0  0  0  0  0
    7.7995  -12.0225   27.2140 S   0  0  0  0  0  0  0  0  0  0  0  0
    8.3934  -14.8432   26.4251 C   0  0  0  0  0  0  0  0  0  0  0  0
    7.5113  -15.7197   26.5997 O   0  0  0  0  0  0  0  0  0  0  0  0
    9.4356  -14.8196   27.3627 O   0  0  0  0  0  0  0  0  0  0  0  0
  2  7  1  0
  2  1  1  6
  3  2  1  0
  4  3  1  0
  5  4  1  0
  5  9  1  0
  6  5  2  0
  7  8  2  0
 10 11  1  0
 10  7  1  0
 11 12  1  1
 12 13  1  0
 13 14  1  0
 15 14  1  0
 16 15  1  0
 17 11  1  0
 18 17  2  0
 19 17  1  0
 20 19  1  0
 20 21  1  1
 22 21  1  0
 23 20  1  0
 23 25  1  0
 24 23  2  0
M  END
$$$$
