EKC.pdb
     RDKit          3D

 25 24  0  0  1  0  0  0  0  0999 V2000
    9.0935  -13.2101   18.9129 N   0  0  0  0  0  0  0  0  0  0  0  0
    9.3681  -14.5863   19.3837 C   0  0  1  0  0  0  0  0  0  0  0  0
   10.8357  -14.6533   19.6446 C   0  0  0  0  0  0  0  0  0  0  0  0
   11.6338  -14.2565   18.4477 C   0  0  0  0  0  0  0  0  0  0  0  0
   13.0756  -14.3299   18.7355 C   0  0  0  0  0  0  0  0  0  0  0  0
   13.7670  -15.3650   18.6844 O   0  0  0  0  0  0  0  0  0  0  0  0
    8.5966  -14.7646   20.6266 C   0  0  0  0  0  0  0  0  0  0  0  0
    8.2086  -13.7471   21.3022 O   0  0  0  0  0  0  0  0  0  0  0  0
   13.7027  -13.1274   19.0939 O   0  0  0  0  0  0  0  0  0  0  0  0
    8.2798  -16.0670   21.0800 N   0  0  0  0  0  0  0  0  0  0  0  0
    7.5796  -16.2412   22.3241 C   0  0  1  0  0  0  0  0  0  0  0  0
    6.9712  -17.6156   22.3991 C   0  0  0  0  0  0  0  0  0  0  0  0
    6.3022  -17.8980   23.7230 C   0  0  0  0  0  0  0  0  0  0  0  0
    5.8982  -19.3657   23.6909 C   0  0  0  0  0  0  0  0  0  0  0  0
    5.1728  -19.7877   24.9313 C   0  0  0  0  0  0  0  0  0  0  0  0
    4.7195  -21.1517   24.7242 N   0  0  0  0  0  0  0  0  0  0  0  0
    8.4325  -15.9241   23.4931 C   0  0  0  0  0  0  0  0  0  0  0  0
    9.5988  -16.3025   23.6419 O   0  0  0  0  0  0  0  0  0  0  0  0
    7.8551  -15.1218   24.5166 N   0  0  0  0  0  0  0  0  0  0  0  0
    8.5943  -14.7891   25.7157 C   0  0  1  0  0  0  0  0  0  0  0  0
    8.1038  -13.4739   26.3142 C   0  0  0  0  0  0  0  0  0  0  0  0
    6.7064  -12.8685   25.3285 S   0  0  0  0  0  0  0  0  0  0  0  0
    8.6039  -15.8822   26.6961 C   0  0  0  0  0  0  0  0  0  0  0  0
    7.9004  -16.9154   26.5749 O   0  0  0  0  0  0  0  0  0  0  0  0
    9.4173  -15.8186   27.8363 O   0  0  0  0  0  0  0  0  0  0  0  0
  2  7  1  0
  2  1  1  1
  3  2  1  0
  4  3  1  0
  5  4  1  0
  5  9  1  0
  6  5  2  0
  7  8  2  0
 10 11  1  0
 10  7  1  0
 11 12  1  1
 12 13  1  0
 13 14  1  0
 15 14  1  0
 16 15  1  0
 17 11  1  0
 18 17  2  0
 19 17  1  0
 20 19  1  0
 20 21  1  1
 22 21  1  0
 23 20  1  0
 23 25  1  0
 24 23  2  0
M  END
$$$$
