EKC.pdb
     RDKit          3D

 25 24  0  0  1  0  0  0  0  0999 V2000
    6.8856  -19.1025   19.4049 N   0  0  0  0  0  0  0  0  0  0  0  0
    7.9391  -18.6270   20.3295 C   0  0  1  0  0  0  0  0  0  0  0  0
    8.7240  -17.6045   19.5779 C   0  0  0  0  0  0  0  0  0  0  0  0
    9.7893  -18.2259   18.7376 C   0  0  0  0  0  0  0  0  0  0  0  0
   10.5064  -17.1997   17.9632 C   0  0  0  0  0  0  0  0  0  0  0  0
   10.3289  -15.9706   18.0611 O   0  0  0  0  0  0  0  0  0  0  0  0
    7.2439  -18.0253   21.4812 C   0  0  0  0  0  0  0  0  0  0  0  0
    6.1776  -17.3357   21.3088 O   0  0  0  0  0  0  0  0  0  0  0  0
   11.4623  -17.6635   17.0472 O   0  0  0  0  0  0  0  0  0  0  0  0
    7.7544  -18.2085   22.7882 N   0  0  0  0  0  0  0  0  0  0  0  0
    7.0652  -17.6349   23.9126 C   0  0  1  0  0  0  0  0  0  0  0  0
    6.7509  -18.6936   24.9349 C   0  0  0  0  0  0  0  0  0  0  0  0
    5.8796  -19.8019   24.3941 C   0  0  0  0  0  0  0  0  0  0  0  0
    5.8408  -20.8768   25.4719 C   0  0  0  0  0  0  0  0  0  0  0  0
    5.0003  -22.0524   25.0788 C   0  0  0  0  0  0  0  0  0  0  0  0
    5.1470  -23.0557   26.1184 N   0  0  0  0  0  0  0  0  0  0  0  0
    7.7960  -16.4803   24.4848 C   0  0  0  0  0  0  0  0  0  0  0  0
    9.0230  -16.4102   24.6087 O   0  0  0  0  0  0  0  0  0  0  0  0
    7.0164  -15.3731   24.9217 N   0  0  0  0  0  0  0  0  0  0  0  0
    7.6189  -14.2650   25.6317 C   0  0  1  0  0  0  0  0  0  0  0  0
    6.6188  -13.1283   25.8226 C   0  0  0  0  0  0  0  0  0  0  0  0
    7.4695  -11.7252   26.5961 S   0  0  0  0  0  0  0  0  0  0  0  0
    8.2479  -14.6762   26.8932 C   0  0  0  0  0  0  0  0  0  0  0  0
    9.3302  -14.1920   27.3070 O   0  0  0  0  0  0  0  0  0  0  0  0
    7.6541  -15.6495   27.7092 O   0  0  0  0  0  0  0  0  0  0  0  0
  2  7  1  0
  2  1  1  6
  3  2  1  0
  4  3  1  0
  5  4  1  0
  5  9  1  0
  6  5  2  0
  7  8  2  0
 10 11  1  0
 10  7  1  0
 11 12  1  1
 12 13  1  0
 13 14  1  0
 15 14  1  0
 16 15  1  0
 17 11  1  0
 18 17  2  0
 19 17  1  0
 20 19  1  0
 20 21  1  1
 22 21  1  0
 23 20  1  0
 23 25  1  0
 24 23  2  0
M  END
$$$$
