EKC.pdb
     RDKit          3D

 25 24  0  0  1  0  0  0  0  0999 V2000
   10.1624  -14.9536   18.4984 N   0  0  0  0  0  0  0  0  0  0  0  0
   10.4183  -16.0291   19.4828 C   0  0  1  0  0  0  0  0  0  0  0  0
   11.8626  -15.9294   19.8441 C   0  0  0  0  0  0  0  0  0  0  0  0
   12.4900  -14.6904   19.2980 C   0  0  0  0  0  0  0  0  0  0  0  0
   13.9263  -14.6496   19.6179 C   0  0  0  0  0  0  0  0  0  0  0  0
   14.5189  -15.4492   20.3672 O   0  0  0  0  0  0  0  0  0  0  0  0
    9.5569  -15.7457   20.6446 C   0  0  0  0  0  0  0  0  0  0  0  0
    9.0493  -14.5805   20.8085 O   0  0  0  0  0  0  0  0  0  0  0  0
   14.6698  -13.6205   19.0211 O   0  0  0  0  0  0  0  0  0  0  0  0
    9.2861  -16.7653   21.5877 N   0  0  0  0  0  0  0  0  0  0  0  0
    8.3174  -16.5402   22.6266 C   0  0  1  0  0  0  0  0  0  0  0  0
    7.6863  -17.8392   23.0499 C   0  0  0  0  0  0  0  0  0  0  0  0
    6.6392  -18.3346   22.0814 C   0  0  0  0  0  0  0  0  0  0  0  0
    6.0888  -19.6250   22.6734 C   0  0  0  0  0  0  0  0  0  0  0  0
    4.9603  -20.1899   21.8669 C   0  0  0  0  0  0  0  0  0  0  0  0
    4.4938  -21.3824   22.5520 N   0  0  0  0  0  0  0  0  0  0  0  0
    8.8853  -15.7783   23.7630 C   0  0  0  0  0  0  0  0  0  0  0  0
   10.0327  -15.9104   24.2009 O   0  0  0  0  0  0  0  0  0  0  0  0
    8.0368  -14.8241   24.3908 N   0  0  0  0  0  0  0  0  0  0  0  0
    8.4614  -14.1060   25.5736 C   0  0  1  0  0  0  0  0  0  0  0  0
    7.4531  -13.0238   25.9488 C   0  0  0  0  0  0  0  0  0  0  0  0
    8.1051  -12.0791   27.3535 S   0  0  0  0  0  0  0  0  0  0  0  0
    8.7695  -14.9993   26.6977 C   0  0  0  0  0  0  0  0  0  0  0  0
    8.0825  -16.0139   26.9726 O   0  0  0  0  0  0  0  0  0  0  0  0
    9.8690  -14.7525   27.5319 O   0  0  0  0  0  0  0  0  0  0  0  0
  2  7  1  0
  2  1  1  6
  3  2  1  0
  4  3  1  0
  5  4  1  0
  5  9  1  0
  6  5  2  0
  7  8  2  0
 10 11  1  0
 10  7  1  0
 11 12  1  1
 12 13  1  0
 13 14  1  0
 15 14  1  0
 16 15  1  0
 17 11  1  0
 18 17  2  0
 19 17  1  0
 20 19  1  0
 20 21  1  1
 22 21  1  0
 23 20  1  0
 23 25  1  0
 24 23  2  0
M  END
$$$$
