EKC.pdb
     RDKit          3D

 25 24  0  0  1  0  0  0  0  0999 V2000
   10.0729  -17.6459   18.8165 N   0  0  0  0  0  0  0  0  0  0  0  0
   10.7538  -17.9334   20.0990 C   0  0  1  0  0  0  0  0  0  0  0  0
   11.9910  -17.0995   20.1110 C   0  0  0  0  0  0  0  0  0  0  0  0
   13.0830  -17.7099   19.2974 C   0  0  0  0  0  0  0  0  0  0  0  0
   14.2701  -16.8395   19.2825 C   0  0  0  0  0  0  0  0  0  0  0  0
   14.3605  -15.7372   19.8560 O   0  0  0  0  0  0  0  0  0  0  0  0
    9.8241  -17.5239   21.1667 C   0  0  0  0  0  0  0  0  0  0  0  0
    8.9468  -16.6150   20.9512 O   0  0  0  0  0  0  0  0  0  0  0  0
   15.3777  -17.3066   18.5593 O   0  0  0  0  0  0  0  0  0  0  0  0
    9.8976  -18.1369   22.4399 N   0  0  0  0  0  0  0  0  0  0  0  0
    8.9162  -17.8227   23.4432 C   0  0  1  0  0  0  0  0  0  0  0  0
    8.5594  -19.0516   24.2352 C   0  0  0  0  0  0  0  0  0  0  0  0
    7.6285  -18.7655   25.3892 C   0  0  0  0  0  0  0  0  0  0  0  0
    7.4928  -20.0715   26.1601 C   0  0  0  0  0  0  0  0  0  0  0  0
    6.5754  -19.9492   27.3375 C   0  0  0  0  0  0  0  0  0  0  0  0
    6.5893  -21.2252   28.0308 N   0  0  0  0  0  0  0  0  0  0  0  0
    9.3360  -16.6881   24.2980 C   0  0  0  0  0  0  0  0  0  0  0  0
   10.4793  -16.5137   24.7317 O   0  0  0  0  0  0  0  0  0  0  0  0
    8.3393  -15.7318   24.6395 N   0  0  0  0  0  0  0  0  0  0  0  0
    8.6177  -14.6570   25.5681 C   0  0  1  0  0  0  0  0  0  0  0  0
    7.4391  -13.6919   25.6581 C   0  0  0  0  0  0  0  0  0  0  0  0
    7.8249  -12.4108   26.8831 S   0  0  0  0  0  0  0  0  0  0  0  0
    9.0455  -15.1441   26.8857 C   0  0  0  0  0  0  0  0  0  0  0  0
    8.4713  -16.0860   27.4856 O   0  0  0  0  0  0  0  0  0  0  0  0
   10.1385  -14.5654   27.5462 O   0  0  0  0  0  0  0  0  0  0  0  0
  2  7  1  0
  2  1  1  6
  3  2  1  0
  4  3  1  0
  5  4  1  0
  5  9  1  0
  6  5  2  0
  7  8  2  0
 10 11  1  0
 10  7  1  0
 11 12  1  1
 12 13  1  0
 13 14  1  0
 15 14  1  0
 16 15  1  0
 17 11  1  0
 18 17  2  0
 19 17  1  0
 20 19  1  0
 20 21  1  1
 22 21  1  0
 23 20  1  0
 23 25  1  0
 24 23  2  0
M  END
$$$$
