EKC.pdb
     RDKit          3D

 25 24  0  0  1  0  0  0  0  0999 V2000
    9.2161  -18.5871   16.7069 N   0  0  0  0  0  0  0  0  0  0  0  0
    9.7165  -19.2666   17.9230 C   0  0  1  0  0  0  0  0  0  0  0  0
   11.1281  -18.8171   18.1016 C   0  0  0  0  0  0  0  0  0  0  0  0
   11.7080  -19.2982   19.3897 C   0  0  0  0  0  0  0  0  0  0  0  0
   13.0667  -18.7647   19.5805 C   0  0  0  0  0  0  0  0  0  0  0  0
   13.3926  -17.9160   20.4324 O   0  0  0  0  0  0  0  0  0  0  0  0
    8.8663  -18.8098   19.0368 C   0  0  0  0  0  0  0  0  0  0  0  0
    8.4554  -17.5970   19.0856 O   0  0  0  0  0  0  0  0  0  0  0  0
   14.0596  -19.2646   18.7250 O   0  0  0  0  0  0  0  0  0  0  0  0
    8.4988  -19.7143   20.0610 N   0  0  0  0  0  0  0  0  0  0  0  0
    7.5346  -19.3195   21.0525 C   0  0  1  0  0  0  0  0  0  0  0  0
    6.5428  -20.4253   21.2936 C   0  0  0  0  0  0  0  0  0  0  0  0
    5.4885  -20.0662   22.3131 C   0  0  0  0  0  0  0  0  0  0  0  0
    4.5157  -21.2370   22.3495 C   0  0  0  0  0  0  0  0  0  0  0  0
    3.4137  -21.0358   23.3435 C   0  0  0  0  0  0  0  0  0  0  0  0
    2.5421  -22.1946   23.2633 N   0  0  0  0  0  0  0  0  0  0  0  0
    8.1791  -18.8418   22.2978 C   0  0  0  0  0  0  0  0  0  0  0  0
    9.1278  -19.3966   22.8617 O   0  0  0  0  0  0  0  0  0  0  0  0
    7.6587  -17.6527   22.8807 N   0  0  0  0  0  0  0  0  0  0  0  0
    8.1844  -17.1355   24.1262 C   0  0  1  0  0  0  0  0  0  0  0  0
    7.5833  -15.7706   24.4495 C   0  0  0  0  0  0  0  0  0  0  0  0
    8.3568  -15.1349   25.9622 S   0  0  0  0  0  0  0  0  0  0  0  0
    8.0466  -18.0862   25.2368 C   0  0  0  0  0  0  0  0  0  0  0  0
    6.9921  -18.7315   25.4572 O   0  0  0  0  0  0  0  0  0  0  0  0
    9.1105  -18.3200   26.1195 O   0  0  0  0  0  0  0  0  0  0  0  0
  2  7  1  0
  2  1  1  6
  3  2  1  0
  4  3  1  0
  5  4  1  0
  5  9  1  0
  6  5  2  0
  7  8  2  0
 10 11  1  0
 10  7  1  0
 11 12  1  1
 12 13  1  0
 13 14  1  0
 15 14  1  0
 16 15  1  0
 17 11  1  0
 18 17  2  0
 19 17  1  0
 20 19  1  0
 20 21  1  1
 22 21  1  0
 23 20  1  0
 23 25  1  0
 24 23  2  0
M  END
$$$$
