EKC.pdb
     RDKit          3D

 25 24  0  0  1  0  0  0  0  0999 V2000
    8.5234  -13.0709   18.8650 N   0  0  0  0  0  0  0  0  0  0  0  0
    8.7711  -14.5116   19.0976 C   0  0  1  0  0  0  0  0  0  0  0  0
   10.2440  -14.7090   18.9634 C   0  0  0  0  0  0  0  0  0  0  0  0
   11.0159  -13.6255   19.6394 C   0  0  0  0  0  0  0  0  0  0  0  0
   12.4637  -13.8501   19.4960 C   0  0  0  0  0  0  0  0  0  0  0  0
   13.2560  -13.0836   18.9157 O   0  0  0  0  0  0  0  0  0  0  0  0
    8.3174  -14.7973   20.4704 C   0  0  0  0  0  0  0  0  0  0  0  0
    7.9379  -13.8460   21.2406 O   0  0  0  0  0  0  0  0  0  0  0  0
   12.9722  -15.0271   20.0652 O   0  0  0  0  0  0  0  0  0  0  0  0
    8.2991  -16.1303   20.9446 N   0  0  0  0  0  0  0  0  0  0  0  0
    7.7179  -16.4261   22.2264 C   0  0  1  0  0  0  0  0  0  0  0  0
    7.4220  -17.8968   22.3449 C   0  0  0  0  0  0  0  0  0  0  0  0
    6.8323  -18.2787   23.6814 C   0  0  0  0  0  0  0  0  0  0  0  0
    6.4686  -19.7538   23.5800 C   0  0  0  0  0  0  0  0  0  0  0  0
    5.8740  -20.2859   24.8474 C   0  0  0  0  0  0  0  0  0  0  0  0
    5.4151  -21.6367   24.5760 N   0  0  0  0  0  0  0  0  0  0  0  0
    8.5427  -15.9124   23.3446 C   0  0  0  0  0  0  0  0  0  0  0  0
    9.7687  -16.0340   23.4339 O   0  0  0  0  0  0  0  0  0  0  0  0
    7.8617  -15.2282   24.3899 N   0  0  0  0  0  0  0  0  0  0  0  0
    8.5754  -14.7132   25.5389 C   0  0  1  0  0  0  0  0  0  0  0  0
    7.7570  -13.6448   26.2583 C   0  0  0  0  0  0  0  0  0  0  0  0
    8.7334  -12.9932   27.6413 S   0  0  0  0  0  0  0  0  0  0  0  0
    9.0308  -15.7753   26.4450 C   0  0  0  0  0  0  0  0  0  0  0  0
   10.1306  -15.7330   27.0496 O   0  0  0  0  0  0  0  0  0  0  0  0
    8.2394  -16.9086   26.6797 O   0  0  0  0  0  0  0  0  0  0  0  0
  2  7  1  0
  2  1  1  1
  3  2  1  0
  4  3  1  0
  5  4  1  0
  5  9  1  0
  6  5  2  0
  7  8  2  0
 10 11  1  0
 10  7  1  0
 11 12  1  1
 12 13  1  0
 13 14  1  0
 15 14  1  0
 16 15  1  0
 17 11  1  0
 18 17  2  0
 19 17  1  0
 20 19  1  0
 20 21  1  1
 22 21  1  0
 23 20  1  0
 23 25  1  0
 24 23  2  0
M  END
$$$$
