EKC.pdb
     RDKit          3D

 25 24  0  0  1  0  0  0  0  0999 V2000
   12.0804  -18.6407   21.0457 N   0  0  0  0  0  0  0  0  0  0  0  0
   13.1118  -17.8720   21.7782 C   0  0  1  0  0  0  0  0  0  0  0  0
   13.8770  -17.1121   20.7470 C   0  0  0  0  0  0  0  0  0  0  0  0
   14.6447  -18.0173   19.8425 C   0  0  0  0  0  0  0  0  0  0  0  0
   15.7086  -17.2766   19.1450 C   0  0  0  0  0  0  0  0  0  0  0  0
   15.9240  -16.0544   19.2544 O   0  0  0  0  0  0  0  0  0  0  0  0
   12.3894  -16.9620   22.6848 C   0  0  0  0  0  0  0  0  0  0  0  0
   13.0220  -16.0615   23.3414 O   0  0  0  0  0  0  0  0  0  0  0  0
   16.5354  -18.0248   18.2939 O   0  0  0  0  0  0  0  0  0  0  0  0
   10.9872  -17.0802   22.8335 N   0  0  0  0  0  0  0  0  0  0  0  0
   10.2715  -16.1349   23.6474 C   0  0  1  0  0  0  0  0  0  0  0  0
    8.7923  -16.2276   23.3866 C   0  0  0  0  0  0  0  0  0  0  0  0
    8.4021  -15.7618   22.0043 C   0  0  0  0  0  0  0  0  0  0  0  0
    6.9350  -16.1301   21.8297 C   0  0  0  0  0  0  0  0  0  0  0  0
    6.3852  -15.6833   20.5103 C   0  0  0  0  0  0  0  0  0  0  0  0
    4.9831  -16.0600   20.4762 N   0  0  0  0  0  0  0  0  0  0  0  0
   10.6128  -16.2643   25.0831 C   0  0  0  0  0  0  0  0  0  0  0  0
   10.9917  -17.3052   25.6295 O   0  0  0  0  0  0  0  0  0  0  0  0
   10.4917  -15.0951   25.8849 N   0  0  0  0  0  0  0  0  0  0  0  0
   10.7390  -15.1342   27.3105 C   0  0  1  0  0  0  0  0  0  0  0  0
   10.3746  -13.8054   27.9662 C   0  0  0  0  0  0  0  0  0  0  0  0
   10.9497  -13.8253   29.6865 S   0  0  0  0  0  0  0  0  0  0  0  0
   10.0928  -16.2786   27.9657 C   0  0  0  0  0  0  0  0  0  0  0  0
    8.9122  -16.6293   27.7207 O   0  0  0  0  0  0  0  0  0  0  0  0
   10.7816  -17.0468   28.9150 O   0  0  0  0  0  0  0  0  0  0  0  0
  2  7  1  0
  2  1  1  6
  3  2  1  0
  4  3  1  0
  5  4  1  0
  5  9  1  0
  6  5  2  0
  7  8  2  0
 10 11  1  0
 10  7  1  0
 11 12  1  1
 12 13  1  0
 13 14  1  0
 15 14  1  0
 16 15  1  0
 17 11  1  0
 18 17  2  0
 19 17  1  0
 20 19  1  0
 20 21  1  1
 22 21  1  0
 23 20  1  0
 23 25  1  0
 24 23  2  0
M  END
$$$$
