EKC.pdb
     RDKit          3D

 25 24  0  0  1  0  0  0  0  0999 V2000
    9.2819  -18.8151   19.5513 N   0  0  0  0  0  0  0  0  0  0  0  0
   10.6741  -18.3501   19.3602 C   0  0  1  0  0  0  0  0  0  0  0  0
   10.9197  -18.3610   17.8884 C   0  0  0  0  0  0  0  0  0  0  0  0
    9.7484  -17.8411   17.1236 C   0  0  0  0  0  0  0  0  0  0  0  0
   10.0200  -17.8627   15.6770 C   0  0  0  0  0  0  0  0  0  0  0  0
   10.9733  -17.2896   15.1159 O   0  0  0  0  0  0  0  0  0  0  0  0
   10.7352  -16.9805   19.9011 C   0  0  0  0  0  0  0  0  0  0  0  0
   11.8193  -16.3011   19.8290 O   0  0  0  0  0  0  0  0  0  0  0  0
    9.1221  -18.5927   14.8840 O   0  0  0  0  0  0  0  0  0  0  0  0
    9.5904  -16.4085   20.5048 N   0  0  0  0  0  0  0  0  0  0  0  0
    9.6373  -15.0550   20.9887 C   0  0  1  0  0  0  0  0  0  0  0  0
    8.5168  -14.2437   20.3961 C   0  0  0  0  0  0  0  0  0  0  0  0
    8.5353  -14.2184   18.8865 C   0  0  0  0  0  0  0  0  0  0  0  0
    7.3551  -13.3555   18.4611 C   0  0  0  0  0  0  0  0  0  0  0  0
    7.2543  -13.2157   16.9734 C   0  0  0  0  0  0  0  0  0  0  0  0
    6.0496  -12.4554   16.6912 N   0  0  0  0  0  0  0  0  0  0  0  0
    9.6737  -14.9928   22.4683 C   0  0  0  0  0  0  0  0  0  0  0  0
    9.0374  -14.1903   23.1590 O   0  0  0  0  0  0  0  0  0  0  0  0
   10.5078  -15.9331   23.1352 N   0  0  0  0  0  0  0  0  0  0  0  0
   10.4427  -16.1081   24.5705 C   0  0  1  0  0  0  0  0  0  0  0  0
    9.0058  -16.3391   25.0294 C   0  0  0  0  0  0  0  0  0  0  0  0
    8.9953  -16.5568   26.8303 S   0  0  0  0  0  0  0  0  0  0  0  0
   11.3602  -17.1468   25.0560 C   0  0  0  0  0  0  0  0  0  0  0  0
   11.6665  -17.2765   26.2670 O   0  0  0  0  0  0  0  0  0  0  0  0
   11.9476  -18.0595   24.1686 O   0  0  0  0  0  0  0  0  0  0  0  0
  2  7  1  0
  2  1  1  6
  3  2  1  0
  4  3  1  0
  5  4  1  0
  5  9  1  0
  6  5  2  0
  7  8  2  0
 10 11  1  0
 10  7  1  0
 11 12  1  1
 12 13  1  0
 13 14  1  0
 15 14  1  0
 16 15  1  0
 17 11  1  0
 18 17  2  0
 19 17  1  0
 20 19  1  0
 20 21  1  6
 22 21  1  0
 23 20  1  0
 23 25  1  0
 24 23  2  0
M  END
$$$$
