EKC.pdb
     RDKit          3D

 25 24  0  0  1  0  0  0  0  0999 V2000
    5.5206  -15.5917   20.4221 N   0  0  0  0  0  0  0  0  0  0  0  0
    6.8673  -15.9877   20.8918 C   0  0  1  0  0  0  0  0  0  0  0  0
    7.7944  -14.8979   20.4684 C   0  0  0  0  0  0  0  0  0  0  0  0
    8.5774  -15.2721   19.2543 C   0  0  0  0  0  0  0  0  0  0  0  0
   10.0227  -15.2000   19.5242 C   0  0  0  0  0  0  0  0  0  0  0  0
   10.5355  -14.8886   20.6160 O   0  0  0  0  0  0  0  0  0  0  0  0
    6.7873  -16.0794   22.3605 C   0  0  0  0  0  0  0  0  0  0  0  0
    6.2348  -15.1445   23.0409 O   0  0  0  0  0  0  0  0  0  0  0  0
   10.8740  -15.5108   18.4534 O   0  0  0  0  0  0  0  0  0  0  0  0
    7.3230  -17.2065   23.0275 N   0  0  0  0  0  0  0  0  0  0  0  0
    7.2043  -17.3158   24.4566 C   0  0  1  0  0  0  0  0  0  0  0  0
    7.2611  -18.7583   24.8819 C   0  0  0  0  0  0  0  0  0  0  0  0
    7.1943  -18.9394   26.3795 C   0  0  0  0  0  0  0  0  0  0  0  0
    7.3713  -20.4298   26.6360 C   0  0  0  0  0  0  0  0  0  0  0  0
    7.3288  -20.7694   28.0940 C   0  0  0  0  0  0  0  0  0  0  0  0
    7.5087  -22.2059   28.2088 N   0  0  0  0  0  0  0  0  0  0  0  0
    8.1905  -16.4670   25.1646 C   0  0  0  0  0  0  0  0  0  0  0  0
    9.4073  -16.4682   24.9521 O   0  0  0  0  0  0  0  0  0  0  0  0
    7.6879  -15.5868   26.1632 N   0  0  0  0  0  0  0  0  0  0  0  0
    8.5586  -14.6572   26.8509 C   0  0  1  0  0  0  0  0  0  0  0  0
    7.7799  -13.4421   27.3467 C   0  0  0  0  0  0  0  0  0  0  0  0
    8.9328  -12.3004   28.1579 S   0  0  0  0  0  0  0  0  0  0  0  0
    9.3391  -15.2965   27.9178 C   0  0  0  0  0  0  0  0  0  0  0  0
   10.3334  -14.7516   28.4577 O   0  0  0  0  0  0  0  0  0  0  0  0
    9.0005  -16.5722   28.3909 O   0  0  0  0  0  0  0  0  0  0  0  0
  2  7  1  0
  2  1  1  6
  3  2  1  0
  4  3  1  0
  5  4  1  0
  5  9  1  0
  6  5  2  0
  7  8  2  0
 10 11  1  0
 10  7  1  0
 11 12  1  6
 12 13  1  0
 13 14  1  0
 15 14  1  0
 16 15  1  0
 17 11  1  0
 18 17  2  0
 19 17  1  0
 20 19  1  0
 20 21  1  1
 22 21  1  0
 23 20  1  0
 23 25  1  0
 24 23  2  0
M  END
$$$$
