EKC.pdb
     RDKit          3D

 25 24  0  0  1  0  0  0  0  0999 V2000
    8.6455  -18.6273   18.0770 N   0  0  0  0  0  0  0  0  0  0  0  0
    9.2730  -19.1851   19.2961 C   0  0  1  0  0  0  0  0  0  0  0  0
   10.7102  -18.7872   19.2455 C   0  0  0  0  0  0  0  0  0  0  0  0
   11.4640  -19.2662   20.4410 C   0  0  0  0  0  0  0  0  0  0  0  0
   12.8829  -18.8850   20.3490 C   0  0  0  0  0  0  0  0  0  0  0  0
   13.6437  -18.7069   21.3193 O   0  0  0  0  0  0  0  0  0  0  0  0
    8.5869  -18.5617   20.4418 C   0  0  0  0  0  0  0  0  0  0  0  0
    8.3319  -17.3058   20.4417 O   0  0  0  0  0  0  0  0  0  0  0  0
   13.4008  -18.7136   19.0567 O   0  0  0  0  0  0  0  0  0  0  0  0
    8.2052  -19.3525   21.5514 N   0  0  0  0  0  0  0  0  0  0  0  0
    7.5024  -18.7498   22.6519 C   0  0  1  0  0  0  0  0  0  0  0  0
    6.7021  -19.7841   23.3966 C   0  0  0  0  0  0  0  0  0  0  0  0
    5.5582  -20.3466   22.5872 C   0  0  0  0  0  0  0  0  0  0  0  0
    4.8994  -21.4056   23.4607 C   0  0  0  0  0  0  0  0  0  0  0  0
    3.7730  -22.1040   22.7633 C   0  0  0  0  0  0  0  0  0  0  0  0
    3.1838  -23.0302   23.7141 N   0  0  0  0  0  0  0  0  0  0  0  0
    8.4063  -17.9757   23.5340 C   0  0  0  0  0  0  0  0  0  0  0  0
    9.5894  -18.2537   23.7543 O   0  0  0  0  0  0  0  0  0  0  0  0
    7.8607  -16.8262   24.1710 N   0  0  0  0  0  0  0  0  0  0  0  0
    8.6624  -16.0067   25.0546 C   0  0  1  0  0  0  0  0  0  0  0  0
    8.0725  -14.6056   25.1873 C   0  0  0  0  0  0  0  0  0  0  0  0
    6.3155  -14.7493   25.6151 S   0  0  0  0  0  0  0  0  0  0  0  0
    8.8973  -16.6420   26.3575 C   0  0  0  0  0  0  0  0  0  0  0  0
    8.2425  -17.6342   26.7622 O   0  0  0  0  0  0  0  0  0  0  0  0
    9.8852  -16.1572   27.2263 O   0  0  0  0  0  0  0  0  0  0  0  0
  2  7  1  0
  2  1  1  6
  3  2  1  0
  4  3  1  0
  5  4  1  0
  5  9  1  0
  6  5  2  0
  7  8  2  0
 10 11  1  0
 10  7  1  0
 11 12  1  1
 12 13  1  0
 13 14  1  0
 15 14  1  0
 16 15  1  0
 17 11  1  0
 18 17  2  0
 19 17  1  0
 20 19  1  0
 20 21  1  1
 22 21  1  0
 23 20  1  0
 23 25  1  0
 24 23  2  0
M  END
$$$$
