EKC.pdb
     RDKit          3D

 25 24  0  0  1  0  0  0  0  0999 V2000
    9.6442  -15.8848   17.8654 N   0  0  0  0  0  0  0  0  0  0  0  0
   10.1112  -16.7002   19.0091 C   0  0  1  0  0  0  0  0  0  0  0  0
   11.5121  -16.2676   19.2860 C   0  0  0  0  0  0  0  0  0  0  0  0
   12.5113  -17.2456   18.7644 C   0  0  0  0  0  0  0  0  0  0  0  0
   13.8758  -16.8537   19.1536 C   0  0  0  0  0  0  0  0  0  0  0  0
   14.4959  -15.8697   18.7075 O   0  0  0  0  0  0  0  0  0  0  0  0
    9.2212  -16.3823   20.1400 C   0  0  0  0  0  0  0  0  0  0  0  0
    8.6739  -15.2272   20.2314 O   0  0  0  0  0  0  0  0  0  0  0  0
   14.5115  -17.6661   20.1044 O   0  0  0  0  0  0  0  0  0  0  0  0
    8.9668  -17.3571   21.1335 N   0  0  0  0  0  0  0  0  0  0  0  0
    7.9276  -17.1366   22.1030 C   0  0  1  0  0  0  0  0  0  0  0  0
    7.2275  -18.4283   22.4289 C   0  0  0  0  0  0  0  0  0  0  0  0
    6.1809  -18.2814   23.5074 C   0  0  0  0  0  0  0  0  0  0  0  0
    5.5326  -19.6506   23.6603 C   0  0  0  0  0  0  0  0  0  0  0  0
    4.5096  -19.6814   24.7537 C   0  0  0  0  0  0  0  0  0  0  0  0
    4.0375  -21.0502   24.8656 N   0  0  0  0  0  0  0  0  0  0  0  0
    8.4280  -16.4328   23.3066 C   0  0  0  0  0  0  0  0  0  0  0  0
    9.4762  -16.7046   23.9009 O   0  0  0  0  0  0  0  0  0  0  0  0
    7.6339  -15.3640   23.8082 N   0  0  0  0  0  0  0  0  0  0  0  0
    7.9687  -14.6991   25.0495 C   0  0  1  0  0  0  0  0  0  0  0  0
    7.0649  -13.4924   25.2854 C   0  0  0  0  0  0  0  0  0  0  0  0
    7.5511  -12.6931   26.8396 S   0  0  0  0  0  0  0  0  0  0  0  0
    7.9890  -15.6171   26.1955 C   0  0  0  0  0  0  0  0  0  0  0  0
    7.1541  -16.5433   26.3442 O   0  0  0  0  0  0  0  0  0  0  0  0
    8.9634  -15.4965   27.1963 O   0  0  0  0  0  0  0  0  0  0  0  0
  2  7  1  0
  2  1  1  6
  3  2  1  0
  4  3  1  0
  5  4  1  0
  5  9  1  0
  6  5  2  0
  7  8  2  0
 10 11  1  0
 10  7  1  0
 11 12  1  1
 12 13  1  0
 13 14  1  0
 15 14  1  0
 16 15  1  0
 17 11  1  0
 18 17  2  0
 19 17  1  0
 20 19  1  0
 20 21  1  1
 22 21  1  0
 23 20  1  0
 23 25  1  0
 24 23  2  0
M  END
$$$$
