MPY.pdb
     RDKit          3D

 28 29  0  0  1  0  0  0  0  0999 V2000
    6.4341  -18.8965   25.9316 C   0  0  0  0  0  0  0  0  0  0  0  0
    5.7163  -17.8846   24.6180 S   0  0  0  0  0  0  0  0  0  0  0  0
    6.2308  -18.5084   22.9854 C   0  0  0  0  0  0  0  0  0  0  0  0
    5.6041  -17.6227   21.9383 C   0  0  0  0  0  0  0  0  0  0  0  0
    6.3881  -17.5606   20.6427 C   0  0  2  0  0  0  0  0  0  0  0  0
    6.5805  -18.9175   20.1999 N   0  0  0  0  0  0  0  0  0  0  0  0
    7.6406  -16.8112   20.7291 C   0  0  0  0  0  0  0  0  0  0  0  0
    8.7083  -17.4899   20.8100 O   0  0  0  0  0  0  0  0  0  0  0  0
    7.7063  -15.4188   20.7257 N   0  0  0  0  0  0  0  0  0  0  0  0
    6.5114  -14.5861   20.5024 C   0  0  0  0  0  0  0  0  0  0  0  0
    6.9160  -13.1648   20.6223 C   0  0  0  0  0  0  0  0  0  0  0  0
    8.3885  -13.1737   20.4074 C   0  0  0  0  0  0  0  0  0  0  0  0
    8.8031  -14.5465   20.9135 C   0  0  1  0  0  0  0  0  0  0  0  0
    9.2660  -14.4690   22.3307 C   0  0  0  0  0  0  0  0  0  0  0  0
    8.7180  -13.6411   23.0985 O   0  0  0  0  0  0  0  0  0  0  0  0
    6.0103  -11.6364   26.7503 O   0  0  0  0  0  0  0  0  0  0  0  0
    6.8604  -12.6415   26.3521 C   0  0  0  0  0  0  0  0  0  0  0  0
    8.2448  -12.4902   26.3373 C   0  0  0  0  0  0  0  0  0  0  0  0
    9.0703  -13.5139   25.9336 C   0  0  0  0  0  0  0  0  0  0  0  0
    8.5606  -14.7464   25.5220 C   0  0  0  0  0  0  0  0  0  0  0  0
    9.4022  -15.8541   25.1001 C   0  0  0  0  0  0  0  0  0  0  0  0
   10.5805  -15.4986   24.2304 C   0  0  2  0  0  0  0  0  0  0  0  0
   10.2941  -15.2829   22.8561 N   0  0  0  0  0  0  0  0  0  0  0  0
   11.6512  -16.4816   24.5093 C   0  0  0  0  0  0  0  0  0  0  0  0
   12.1269  -17.2075   23.6241 O   0  0  0  0  0  0  0  0  0  0  0  0
    7.1980  -14.8931   25.5377 C   0  0  0  0  0  0  0  0  0  0  0  0
    6.3578  -13.8539   25.9474 C   0  0  0  0  0  0  0  0  0  0  0  0
   12.1316  -16.5908   25.7953 O   0  0  0  0  0  0  0  0  0  0  0  0
  2  1  1  0
  3  2  1  0
  4  3  1  0
  4  5  1  0
  5  6  1  1
  7  5  1  0
  7  8  2  0
  9  7  1  0
 10  9  1  0
 11 12  1  0
 11 10  1  0
 12 13  1  0
 13  9  1  0
 13 14  1  1
 14 23  1  0
 15 14  2  0
 17 16  1  0
 17 18  2  0
 18 19  1  0
 20 19  2  0
 21 20  1  0
 22 21  1  1
 22 23  1  0
 22 24  1  0
 24 25  2  0
 24 28  1  0
 26 27  2  0
 26 20  1  0
 27 17  1  0
M  END
$$$$
