MPY.pdb
     RDKit          3D

 28 29  0  0  1  0  0  0  0  0999 V2000
   10.3453  -21.6564   18.5411 C   0  0  0  0  0  0  0  0  0  0  0  0
    9.5964  -20.5298   19.7389 S   0  0  0  0  0  0  0  0  0  0  0  0
   10.8497  -19.3851   20.4009 C   0  0  0  0  0  0  0  0  0  0  0  0
   11.3616  -18.5524   19.2528 C   0  0  0  0  0  0  0  0  0  0  0  0
   10.5164  -17.3283   18.9624 C   0  0  2  0  0  0  0  0  0  0  0  0
   11.1478  -16.6274   17.8740 N   0  0  0  0  0  0  0  0  0  0  0  0
   10.2747  -16.4712   20.1220 C   0  0  0  0  0  0  0  0  0  0  0  0
   11.2946  -15.9774   20.6903 O   0  0  0  0  0  0  0  0  0  0  0  0
    9.0028  -16.1828   20.6141 N   0  0  0  0  0  0  0  0  0  0  0  0
    7.7861  -16.7298   19.9884 C   0  0  0  0  0  0  0  0  0  0  0  0
    6.6203  -16.2817   20.7874 C   0  0  0  0  0  0  0  0  0  0  0  0
    7.1133  -15.0957   21.5391 C   0  0  0  0  0  0  0  0  0  0  0  0
    8.5961  -15.3869   21.7098 C   0  0  1  0  0  0  0  0  0  0  0  0
    8.8605  -16.0200   23.0357 C   0  0  0  0  0  0  0  0  0  0  0  0
    9.0606  -17.2581   23.0824 O   0  0  0  0  0  0  0  0  0  0  0  0
    4.9904  -11.1348   26.7985 O   0  0  0  0  0  0  0  0  0  0  0  0
    6.0186  -12.0474   26.7596 C   0  0  0  0  0  0  0  0  0  0  0  0
    5.8014  -13.4152   26.6116 C   0  0  0  0  0  0  0  0  0  0  0  0
    6.8503  -14.3045   26.5761 C   0  0  0  0  0  0  0  0  0  0  0  0
    8.1751  -13.8790   26.6863 C   0  0  0  0  0  0  0  0  0  0  0  0
    9.3086  -14.7880   26.6415 C   0  0  0  0  0  0  0  0  0  0  0  0
    9.3142  -15.7868   25.5129 C   0  0  2  0  0  0  0  0  0  0  0  0
    8.8976  -15.2948   24.2474 N   0  0  0  0  0  0  0  0  0  0  0  0
    8.6077  -16.9975   25.9877 C   0  0  0  0  0  0  0  0  0  0  0  0
    7.5337  -17.3707   25.4934 O   0  0  0  0  0  0  0  0  0  0  0  0
    8.3863  -12.5327   26.8316 C   0  0  0  0  0  0  0  0  0  0  0  0
    7.3217  -11.6276   26.8680 C   0  0  0  0  0  0  0  0  0  0  0  0
    9.1644  -17.7305   27.0120 O   0  0  0  0  0  0  0  0  0  0  0  0
  2  1  1  0
  3  2  1  0
  4  3  1  0
  4  5  1  0
  5  6  1  6
  7  5  1  0
  7  8  2  0
  9  7  1  0
 10  9  1  0
 11 12  1  0
 11 10  1  0
 12 13  1  0
 13  9  1  0
 13 14  1  1
 14 23  1  0
 15 14  2  0
 17 16  1  0
 17 18  2  0
 18 19  1  0
 20 19  2  0
 21 20  1  0
 22 21  1  1
 22 23  1  0
 22 24  1  0
 24 25  2  0
 24 28  1  0
 26 27  2  0
 26 20  1  0
 27 17  1  0
M  END
$$$$
