MPY.pdb
     RDKit          3D

 28 29  0  0  1  0  0  0  0  0999 V2000
    8.5439  -11.9222   20.5166 C   0  0  0  0  0  0  0  0  0  0  0  0
    7.6779  -12.4996   19.0397 S   0  0  0  0  0  0  0  0  0  0  0  0
    7.8622  -14.3034   18.8623 C   0  0  0  0  0  0  0  0  0  0  0  0
    8.0189  -14.8860   20.2443 C   0  0  0  0  0  0  0  0  0  0  0  0
    8.1483  -16.3960   20.2590 C   0  0  2  0  0  0  0  0  0  0  0  0
    7.0270  -16.9233   19.5249 N   0  0  0  0  0  0  0  0  0  0  0  0
    8.2748  -16.9792   21.5938 C   0  0  0  0  0  0  0  0  0  0  0  0
    7.3375  -16.7400   22.4131 O   0  0  0  0  0  0  0  0  0  0  0  0
    9.3546  -17.7664   21.9906 N   0  0  0  0  0  0  0  0  0  0  0  0
   10.3510  -18.2609   21.0244 C   0  0  0  0  0  0  0  0  0  0  0  0
   11.3876  -19.0064   21.7781 C   0  0  0  0  0  0  0  0  0  0  0  0
   10.7313  -19.3661   23.0643 C   0  0  0  0  0  0  0  0  0  0  0  0
    9.7313  -18.2388   23.2689 C   0  0  1  0  0  0  0  0  0  0  0  0
   10.3041  -17.1785   24.1502 C   0  0  0  0  0  0  0  0  0  0  0  0
   11.1299  -16.3701   23.6605 O   0  0  0  0  0  0  0  0  0  0  0  0
    5.2171  -12.1437   26.2180 O   0  0  0  0  0  0  0  0  0  0  0  0
    6.4394  -12.7662   26.1186 C   0  0  0  0  0  0  0  0  0  0  0  0
    6.6372  -13.9109   25.3504 C   0  0  0  0  0  0  0  0  0  0  0  0
    7.8720  -14.5120   25.2701 C   0  0  0  0  0  0  0  0  0  0  0  0
    8.9790  -14.0043   25.9520 C   0  0  0  0  0  0  0  0  0  0  0  0
   10.3007  -14.6057   25.8816 C   0  0  0  0  0  0  0  0  0  0  0  0
   10.4155  -16.0180   26.3946 C   0  0  2  0  0  0  0  0  0  0  0  0
    9.9636  -17.0364   25.5138 N   0  0  0  0  0  0  0  0  0  0  0  0
    9.8282  -16.0464   27.7528 C   0  0  0  0  0  0  0  0  0  0  0  0
   10.2147  -15.2884   28.6544 O   0  0  0  0  0  0  0  0  0  0  0  0
    8.7821  -12.8777   26.7071 C   0  0  0  0  0  0  0  0  0  0  0  0
    7.5281  -12.2658   26.7899 C   0  0  0  0  0  0  0  0  0  0  0  0
    8.8200  -16.9457   28.0199 O   0  0  0  0  0  0  0  0  0  0  0  0
  2  1  1  0
  3  2  1  0
  4  3  1  0
  4  5  1  0
  5  6  1  1
  7  5  1  0
  7  8  2  0
  9  7  1  0
 10  9  1  0
 11 12  1  0
 11 10  1  0
 12 13  1  0
 13  9  1  0
 13 14  1  1
 14 23  1  0
 15 14  2  0
 17 16  1  0
 17 18  2  0
 18 19  1  0
 20 19  2  0
 21 20  1  0
 22 21  1  6
 22 23  1  0
 22 24  1  0
 24 25  2  0
 24 28  1  0
 26 27  2  0
 26 20  1  0
 27 17  1  0
M  END
$$$$
