MPY.pdb
     RDKit          3D

 28 29  0  0  1  0  0  0  0  0999 V2000
    6.9937  -11.8532   26.5328 C   0  0  0  0  0  0  0  0  0  0  0  0
    6.5830  -13.6039   26.7092 S   0  0  0  0  0  0  0  0  0  0  0  0
    6.7321  -14.4540   25.1047 C   0  0  0  0  0  0  0  0  0  0  0  0
    6.2243  -15.8625   25.2836 C   0  0  0  0  0  0  0  0  0  0  0  0
    6.1338  -16.6475   23.9902 C   0  0  2  0  0  0  0  0  0  0  0  0
    5.6206  -17.9516   24.3225 N   0  0  0  0  0  0  0  0  0  0  0  0
    7.3818  -16.7078   23.2308 C   0  0  0  0  0  0  0  0  0  0  0  0
    8.1445  -17.6936   23.4621 O   0  0  0  0  0  0  0  0  0  0  0  0
    7.7562  -15.7514   22.2883 N   0  0  0  0  0  0  0  0  0  0  0  0
    6.9458  -14.5458   22.0420 C   0  0  0  0  0  0  0  0  0  0  0  0
    7.6519  -13.7186   21.0342 C   0  0  0  0  0  0  0  0  0  0  0  0
    8.5720  -14.6660   20.3482 C   0  0  0  0  0  0  0  0  0  0  0  0
    8.8758  -15.6943   21.4267 C   0  0  1  0  0  0  0  0  0  0  0  0
   10.1507  -15.3617   22.1289 C   0  0  0  0  0  0  0  0  0  0  0  0
   10.6565  -14.2267   21.9527 O   0  0  0  0  0  0  0  0  0  0  0  0
   11.3747  -15.4500   30.7617 O   0  0  0  0  0  0  0  0  0  0  0  0
   11.1239  -15.4366   29.4095 C   0  0  0  0  0  0  0  0  0  0  0  0
   10.9725  -16.6031   28.6638 C   0  0  0  0  0  0  0  0  0  0  0  0
   10.7222  -16.5584   27.3119 C   0  0  0  0  0  0  0  0  0  0  0  0
   10.6088  -15.3468   26.6280 C   0  0  0  0  0  0  0  0  0  0  0  0
   10.3336  -15.2608   25.2032 C   0  0  0  0  0  0  0  0  0  0  0  0
   11.2940  -15.9867   24.2966 C   0  0  2  0  0  0  0  0  0  0  0  0
   10.8214  -16.2623   22.9859 N   0  0  0  0  0  0  0  0  0  0  0  0
   11.8133  -17.1544   25.0431 C   0  0  0  0  0  0  0  0  0  0  0  0
   11.4350  -18.3107   24.8051 O   0  0  0  0  0  0  0  0  0  0  0  0
   10.7579  -14.2004   27.3639 C   0  0  0  0  0  0  0  0  0  0  0  0
   11.0125  -14.2440   28.7376 C   0  0  0  0  0  0  0  0  0  0  0  0
   12.7467  -16.9454   26.0339 O   0  0  0  0  0  0  0  0  0  0  0  0
  2  1  1  0
  3  2  1  0
  4  3  1  0
  4  5  1  0
  5  6  1  1
  7  5  1  0
  7  8  2  0
  9  7  1  0
 10  9  1  0
 11 12  1  0
 11 10  1  0
 12 13  1  0
 13  9  1  0
 13 14  1  1
 14 23  1  0
 15 14  2  0
 17 16  1  0
 17 18  2  0
 18 19  1  0
 20 19  2  0
 21 20  1  0
 22 21  1  1
 22 23  1  0
 22 24  1  0
 24 25  2  0
 24 28  1  0
 26 27  2  0
 26 20  1  0
 27 17  1  0
M  END
$$$$
