MPY.pdb
     RDKit          3D

 28 29  0  0  1  0  0  0  0  0999 V2000
    7.9167  -19.1810   27.1337 C   0  0  0  0  0  0  0  0  0  0  0  0
    6.4543  -18.1926   26.7475 S   0  0  0  0  0  0  0  0  0  0  0  0
    5.9299  -18.4833   25.0270 C   0  0  0  0  0  0  0  0  0  0  0  0
    6.7606  -17.5925   24.1382 C   0  0  0  0  0  0  0  0  0  0  0  0
    6.5265  -17.8181   22.6579 C   0  0  2  0  0  0  0  0  0  0  0  0
    6.3053  -19.2296   22.4754 N   0  0  0  0  0  0  0  0  0  0  0  0
    7.5820  -17.2949   21.7920 C   0  0  0  0  0  0  0  0  0  0  0  0
    8.4087  -18.1357   21.3265 O   0  0  0  0  0  0  0  0  0  0  0  0
    7.7121  -15.9457   21.4663 N   0  0  0  0  0  0  0  0  0  0  0  0
    6.6462  -14.9710   21.7569 C   0  0  0  0  0  0  0  0  0  0  0  0
    7.1271  -13.6309   21.3429 C   0  0  0  0  0  0  0  0  0  0  0  0
    8.2228  -13.9073   20.3747 C   0  0  0  0  0  0  0  0  0  0  0  0
    8.7724  -15.2442   20.8475 C   0  0  1  0  0  0  0  0  0  0  0  0
    9.9535  -15.0440   21.7384 C   0  0  0  0  0  0  0  0  0  0  0  0
   11.0985  -15.2807   21.2821 O   0  0  0  0  0  0  0  0  0  0  0  0
    5.1749  -12.5616   26.8682 O   0  0  0  0  0  0  0  0  0  0  0  0
    6.2569  -13.3202   26.4868 C   0  0  0  0  0  0  0  0  0  0  0  0
    7.5601  -13.0124   26.8695 C   0  0  0  0  0  0  0  0  0  0  0  0
    8.6230  -13.7901   26.4722 C   0  0  0  0  0  0  0  0  0  0  0  0
    8.4451  -14.9190   25.6707 C   0  0  0  0  0  0  0  0  0  0  0  0
    9.5424  -15.7703   25.2415 C   0  0  0  0  0  0  0  0  0  0  0  0
   10.4721  -15.1853   24.2098 C   0  0  2  0  0  0  0  0  0  0  0  0
    9.8498  -14.5998   23.0753 N   0  0  0  0  0  0  0  0  0  0  0  0
   11.5041  -16.2038   23.9131 C   0  0  0  0  0  0  0  0  0  0  0  0
   11.2266  -17.4049   23.7815 O   0  0  0  0  0  0  0  0  0  0  0  0
    7.1618  -15.2200   25.2957 C   0  0  0  0  0  0  0  0  0  0  0  0
    6.0806  -14.4307   25.6982 C   0  0  0  0  0  0  0  0  0  0  0  0
   12.8141  -15.8004   23.7801 O   0  0  0  0  0  0  0  0  0  0  0  0
  2  1  1  0
  3  2  1  0
  4  3  1  0
  4  5  1  0
  5  6  1  1
  7  5  1  0
  7  8  2  0
  9  7  1  0
 10  9  1  0
 11 12  1  0
 11 10  1  0
 12 13  1  0
 13  9  1  0
 13 14  1  1
 14 23  1  0
 15 14  2  0
 17 16  1  0
 17 18  2  0
 18 19  1  0
 20 19  2  0
 21 20  1  0
 22 21  1  1
 22 23  1  0
 22 24  1  0
 24 25  2  0
 24 28  1  0
 26 27  2  0
 26 20  1  0
 27 17  1  0
M  END
$$$$
