MPY.pdb
     RDKit          3D

 28 29  0  0  1  0  0  0  0  0999 V2000
    6.5146  -12.0303   26.6715 C   0  0  0  0  0  0  0  0  0  0  0  0
    7.5630  -13.4726   26.9638 S   0  0  0  0  0  0  0  0  0  0  0  0
    7.6128  -14.5301   25.4810 C   0  0  0  0  0  0  0  0  0  0  0  0
    6.7741  -15.7515   25.7611 C   0  0  0  0  0  0  0  0  0  0  0  0
    6.4464  -16.5636   24.5241 C   0  0  2  0  0  0  0  0  0  0  0  0
    5.8178  -17.7798   24.9714 N   0  0  0  0  0  0  0  0  0  0  0  0
    7.5862  -16.8079   23.6415 C   0  0  0  0  0  0  0  0  0  0  0  0
    8.2671  -17.8539   23.8635 O   0  0  0  0  0  0  0  0  0  0  0  0
    7.9443  -15.9604   22.5943 N   0  0  0  0  0  0  0  0  0  0  0  0
    7.1420  -14.7745   22.2467 C   0  0  0  0  0  0  0  0  0  0  0  0
    7.8280  -14.0674   21.1386 C   0  0  0  0  0  0  0  0  0  0  0  0
    8.7154  -15.0950   20.5294 C   0  0  0  0  0  0  0  0  0  0  0  0
    9.0384  -16.0103   21.7001 C   0  0  1  0  0  0  0  0  0  0  0  0
   10.3376  -15.6264   22.3274 C   0  0  0  0  0  0  0  0  0  0  0  0
   10.8528  -14.5244   22.0186 O   0  0  0  0  0  0  0  0  0  0  0  0
    9.4852  -15.8953   30.0680 O   0  0  0  0  0  0  0  0  0  0  0  0
   10.0454  -15.6758   28.8313 C   0  0  0  0  0  0  0  0  0  0  0  0
   10.2497  -16.6991   27.9088 C   0  0  0  0  0  0  0  0  0  0  0  0
   10.8126  -16.4491   26.6788 C   0  0  0  0  0  0  0  0  0  0  0  0
   11.2033  -15.1637   26.3000 C   0  0  0  0  0  0  0  0  0  0  0  0
   11.7903  -14.8603   25.0052 C   0  0  0  0  0  0  0  0  0  0  0  0
   12.0790  -16.0409   24.1142 C   0  0  2  0  0  0  0  0  0  0  0  0
   11.0216  -16.4428   23.2554 N   0  0  0  0  0  0  0  0  0  0  0  0
   12.6482  -17.1104   24.9643 C   0  0  0  0  0  0  0  0  0  0  0  0
   13.6675  -16.9367   25.6482 O   0  0  0  0  0  0  0  0  0  0  0  0
   11.0011  -14.1584   27.2093 C   0  0  0  0  0  0  0  0  0  0  0  0
   10.4294  -14.4107   28.4596 C   0  0  0  0  0  0  0  0  0  0  0  0
   12.0226  -18.3368   24.9935 O   0  0  0  0  0  0  0  0  0  0  0  0
  2  1  1  0
  3  2  1  0
  4  3  1  0
  4  5  1  0
  5  6  1  1
  7  5  1  0
  7  8  2  0
  9  7  1  0
 10  9  1  0
 11 12  1  0
 11 10  1  0
 12 13  1  0
 13  9  1  0
 13 14  1  1
 14 23  1  0
 15 14  2  0
 17 16  1  0
 17 18  2  0
 18 19  1  0
 20 19  2  0
 21 20  1  0
 22 21  1  1
 22 23  1  0
 22 24  1  0
 24 25  2  0
 24 28  1  0
 26 27  2  0
 26 20  1  0
 27 17  1  0
M  END
$$$$
