MPY.pdb
     RDKit          3D

 28 29  0  0  1  0  0  0  0  0999 V2000
    7.8269  -12.2019   27.8108 C   0  0  0  0  0  0  0  0  0  0  0  0
    6.2349  -12.5480   27.0294 S   0  0  0  0  0  0  0  0  0  0  0  0
    6.0399  -14.3386   26.7558 C   0  0  0  0  0  0  0  0  0  0  0  0
    6.9825  -14.7383   25.6488 C   0  0  0  0  0  0  0  0  0  0  0  0
    6.6706  -16.0908   25.0402 C   0  0  2  0  0  0  0  0  0  0  0  0
    6.5834  -17.0328   26.1262 N   0  0  0  0  0  0  0  0  0  0  0  0
    7.6041  -16.5147   23.9978 C   0  0  0  0  0  0  0  0  0  0  0  0
    8.0705  -17.6897   24.0916 O   0  0  0  0  0  0  0  0  0  0  0  0
    7.9909  -15.7013   22.9339 N   0  0  0  0  0  0  0  0  0  0  0  0
    7.3910  -14.3736   22.7140 C   0  0  0  0  0  0  0  0  0  0  0  0
    8.0642  -13.7557   21.5464 C   0  0  0  0  0  0  0  0  0  0  0  0
    8.6657  -14.9005   20.8100 C   0  0  0  0  0  0  0  0  0  0  0  0
    8.9447  -15.9113   21.9114 C   0  0  1  0  0  0  0  0  0  0  0  0
   10.3568  -15.8015   22.3832 C   0  0  0  0  0  0  0  0  0  0  0  0
   11.0263  -14.7938   22.0495 O   0  0  0  0  0  0  0  0  0  0  0  0
    9.2546  -14.7677   29.2348 O   0  0  0  0  0  0  0  0  0  0  0  0
   10.0471  -14.9568   28.1268 C   0  0  0  0  0  0  0  0  0  0  0  0
   10.6953  -16.1616   27.8659 C   0  0  0  0  0  0  0  0  0  0  0  0
   11.4820  -16.3213   26.7488 C   0  0  0  0  0  0  0  0  0  0  0  0
   11.6662  -15.2875   25.8291 C   0  0  0  0  0  0  0  0  0  0  0  0
   12.4804  -15.4235   24.6325 C   0  0  0  0  0  0  0  0  0  0  0  0
   12.2541  -16.6682   23.8136 C   0  0  2  0  0  0  0  0  0  0  0  0
   10.9828  -16.7776   23.1901 N   0  0  0  0  0  0  0  0  0  0  0  0
   12.6559  -17.8255   24.6441 C   0  0  0  0  0  0  0  0  0  0  0  0
   11.8844  -18.7664   24.8813 O   0  0  0  0  0  0  0  0  0  0  0  0
   11.0272  -14.1031   26.0879 C   0  0  0  0  0  0  0  0  0  0  0  0
   10.2275  -13.9390   27.2225 C   0  0  0  0  0  0  0  0  0  0  0  0
   13.9289  -17.8542   25.1688 O   0  0  0  0  0  0  0  0  0  0  0  0
  2  1  1  0
  3  2  1  0
  4  3  1  0
  4  5  1  0
  5  6  1  1
  7  5  1  0
  7  8  2  0
  9  7  1  0
 10  9  1  0
 11 12  1  0
 11 10  1  0
 12 13  1  0
 13  9  1  0
 13 14  1  1
 14 23  1  0
 15 14  2  0
 17 16  1  0
 17 18  2  0
 18 19  1  0
 20 19  2  0
 21 20  1  0
 22 21  1  1
 22 23  1  0
 22 24  1  0
 24 25  2  0
 24 28  1  0
 26 27  2  0
 26 20  1  0
 27 17  1  0
M  END
$$$$
