MPY.pdb
     RDKit          3D

 28 29  0  0  1  0  0  0  0  0999 V2000
    7.2930  -17.2347   27.7645 C   0  0  0  0  0  0  0  0  0  0  0  0
    6.5543  -17.3946   26.1234 S   0  0  0  0  0  0  0  0  0  0  0  0
    7.2473  -18.8385   25.2551 C   0  0  0  0  0  0  0  0  0  0  0  0
    6.7102  -18.8270   23.8461 C   0  0  0  0  0  0  0  0  0  0  0  0
    7.5669  -18.0421   22.8729 C   0  0  2  0  0  0  0  0  0  0  0  0
    8.5936  -17.3902   23.6444 N   0  0  0  0  0  0  0  0  0  0  0  0
    6.8219  -17.1132   22.0244 C   0  0  0  0  0  0  0  0  0  0  0  0
    5.6716  -17.4849   21.6426 O   0  0  0  0  0  0  0  0  0  0  0  0
    7.3119  -15.8694   21.6296 N   0  0  0  0  0  0  0  0  0  0  0  0
    6.4248  -14.7062   21.4532 C   0  0  0  0  0  0  0  0  0  0  0  0
    7.2665  -13.5400   21.0928 C   0  0  0  0  0  0  0  0  0  0  0  0
    8.5290  -14.1335   20.5746 C   0  0  0  0  0  0  0  0  0  0  0  0
    8.6285  -15.4488   21.3316 C   0  0  1  0  0  0  0  0  0  0  0  0
    9.4929  -15.2985   22.5395 C   0  0  0  0  0  0  0  0  0  0  0  0
   10.0240  -14.1839   22.7647 O   0  0  0  0  0  0  0  0  0  0  0  0
    5.6518  -13.1557   26.9708 O   0  0  0  0  0  0  0  0  0  0  0  0
    6.8975  -13.6034   26.5974 C   0  0  0  0  0  0  0  0  0  0  0  0
    8.0530  -13.2800   27.3043 C   0  0  0  0  0  0  0  0  0  0  0  0
    9.2859  -13.7429   26.9066 C   0  0  0  0  0  0  0  0  0  0  0  0
    9.4349  -14.5546   25.7809 C   0  0  0  0  0  0  0  0  0  0  0  0
   10.7194  -15.0714   25.3377 C   0  0  0  0  0  0  0  0  0  0  0  0
   10.6792  -16.3353   24.5180 C   0  0  2  0  0  0  0  0  0  0  0  0
    9.7461  -16.3507   23.4474 N   0  0  0  0  0  0  0  0  0  0  0  0
   10.5840  -17.4729   25.4600 C   0  0  0  0  0  0  0  0  0  0  0  0
    9.6153  -18.2465   25.4638 O   0  0  0  0  0  0  0  0  0  0  0  0
    8.2964  -14.8717   25.0871 C   0  0  0  0  0  0  0  0  0  0  0  0
    7.0429  -14.4022   25.4898 C   0  0  0  0  0  0  0  0  0  0  0  0
   11.6064  -17.6750   26.3601 O   0  0  0  0  0  0  0  0  0  0  0  0
  2  1  1  0
  3  2  1  0
  4  3  1  0
  4  5  1  0
  5  6  1  1
  7  5  1  0
  7  8  2  0
  9  7  1  0
 10  9  1  0
 11 12  1  0
 11 10  1  0
 12 13  1  0
 13  9  1  0
 13 14  1  1
 14 23  1  0
 15 14  2  0
 17 16  1  0
 17 18  2  0
 18 19  1  0
 20 19  2  0
 21 20  1  0
 22 21  1  1
 22 23  1  0
 22 24  1  0
 24 25  2  0
 24 28  1  0
 26 27  2  0
 26 20  1  0
 27 17  1  0
M  END
$$$$
