MPY.pdb
     RDKit          3D

 28 29  0  0  1  0  0  0  0  0999 V2000
   10.3895  -13.0320   19.4137 C   0  0  0  0  0  0  0  0  0  0  0  0
    8.7092  -12.4472   19.0984 S   0  0  0  0  0  0  0  0  0  0  0  0
    7.4941  -13.5752   19.8536 C   0  0  0  0  0  0  0  0  0  0  0  0
    7.5506  -14.8802   19.1002 C   0  0  0  0  0  0  0  0  0  0  0  0
    6.6419  -15.9523   19.6677 C   0  0  2  0  0  0  0  0  0  0  0  0
    5.2874  -15.4981   19.4854 N   0  0  0  0  0  0  0  0  0  0  0  0
    6.9329  -16.3210   21.0523 C   0  0  0  0  0  0  0  0  0  0  0  0
    6.4077  -15.6048   21.9569 O   0  0  0  0  0  0  0  0  0  0  0  0
    7.7419  -17.3991   21.4080 N   0  0  0  0  0  0  0  0  0  0  0  0
    8.3493  -18.2807   20.3957 C   0  0  0  0  0  0  0  0  0  0  0  0
    9.1896  -19.2770   21.1025 C   0  0  0  0  0  0  0  0  0  0  0  0
    8.6686  -19.2869   22.4965 C   0  0  0  0  0  0  0  0  0  0  0  0
    8.1432  -17.8714   22.6788 C   0  0  1  0  0  0  0  0  0  0  0  0
    9.1681  -17.0088   23.3379 C   0  0  0  0  0  0  0  0  0  0  0  0
   10.0624  -16.4874   22.6282 O   0  0  0  0  0  0  0  0  0  0  0  0
    4.9445  -12.2488   26.8900 O   0  0  0  0  0  0  0  0  0  0  0  0
    6.1583  -12.7629   26.4975 C   0  0  0  0  0  0  0  0  0  0  0  0
    7.2763  -12.7622   27.3280 C   0  0  0  0  0  0  0  0  0  0  0  0
    8.4779  -13.2837   26.9076 C   0  0  0  0  0  0  0  0  0  0  0  0
    8.6313  -13.8354   25.6347 C   0  0  0  0  0  0  0  0  0  0  0  0
    9.8816  -14.4056   25.1606 C   0  0  0  0  0  0  0  0  0  0  0  0
   10.0761  -15.8789   25.4105 C   0  0  2  0  0  0  0  0  0  0  0  0
    9.1845  -16.7470   24.7259 N   0  0  0  0  0  0  0  0  0  0  0  0
   10.1536  -16.0747   26.8754 C   0  0  0  0  0  0  0  0  0  0  0  0
    9.3729  -16.8217   27.4831 O   0  0  0  0  0  0  0  0  0  0  0  0
    7.5297  -13.8352   24.8194 C   0  0  0  0  0  0  0  0  0  0  0  0
    6.3081  -13.3056   25.2448 C   0  0  0  0  0  0  0  0  0  0  0  0
   11.1258  -15.4033   27.5830 O   0  0  0  0  0  0  0  0  0  0  0  0
  2  1  1  0
  3  2  1  0
  4  3  1  0
  4  5  1  0
  5  6  1  1
  7  5  1  0
  7  8  2  0
  9  7  1  0
 10  9  1  0
 11 12  1  0
 11 10  1  0
 12 13  1  0
 13  9  1  0
 13 14  1  6
 14 23  1  0
 15 14  2  0
 17 16  1  0
 17 18  2  0
 18 19  1  0
 20 19  2  0
 21 20  1  0
 22 21  1  1
 22 23  1  0
 22 24  1  0
 24 25  2  0
 24 28  1  0
 26 27  2  0
 26 20  1  0
 27 17  1  0
M  END
$$$$
