MPY.pdb
     RDKit          3D

 28 29  0  0  1  0  0  0  0  0999 V2000
    6.7905  -11.9219   25.5442 C   0  0  0  0  0  0  0  0  0  0  0  0
    6.2166  -13.2170   26.6659 S   0  0  0  0  0  0  0  0  0  0  0  0
    6.7531  -14.8533   26.0709 C   0  0  0  0  0  0  0  0  0  0  0  0
    5.7360  -15.3311   25.0654 C   0  0  0  0  0  0  0  0  0  0  0  0
    6.0705  -16.6756   24.4508 C   0  0  2  0  0  0  0  0  0  0  0  0
    5.9384  -17.6611   25.4928 N   0  0  0  0  0  0  0  0  0  0  0  0
    7.3704  -16.7290   23.7837 C   0  0  0  0  0  0  0  0  0  0  0  0
    8.1534  -17.6633   24.1317 O   0  0  0  0  0  0  0  0  0  0  0  0
    7.7723  -15.8192   22.8071 N   0  0  0  0  0  0  0  0  0  0  0  0
    6.8839  -14.7415   22.3378 C   0  0  0  0  0  0  0  0  0  0  0  0
    7.6349  -13.9265   21.3529 C   0  0  0  0  0  0  0  0  0  0  0  0
    8.7356  -14.8151   20.8909 C   0  0  0  0  0  0  0  0  0  0  0  0
    8.9899  -15.7055   22.0973 C   0  0  1  0  0  0  0  0  0  0  0  0
   10.1119  -15.1682   22.9227 C   0  0  0  0  0  0  0  0  0  0  0  0
    9.9272  -14.1120   23.5750 O   0  0  0  0  0  0  0  0  0  0  0  0
   10.1994  -16.5308   30.1222 O   0  0  0  0  0  0  0  0  0  0  0  0
   10.6314  -16.0367   28.9136 C   0  0  0  0  0  0  0  0  0  0  0  0
   10.7461  -14.6722   28.6596 C   0  0  0  0  0  0  0  0  0  0  0  0
   11.1813  -14.2074   27.4402 C   0  0  0  0  0  0  0  0  0  0  0  0
   11.5266  -15.0784   26.4055 C   0  0  0  0  0  0  0  0  0  0  0  0
   12.0010  -14.6240   25.1087 C   0  0  0  0  0  0  0  0  0  0  0  0
   12.2899  -15.6995   24.0935 C   0  0  2  0  0  0  0  0  0  0  0  0
   11.3777  -15.7895   23.0086 N   0  0  0  0  0  0  0  0  0  0  0  0
   12.5215  -16.9595   24.8347 C   0  0  0  0  0  0  0  0  0  0  0  0
   13.3569  -17.0439   25.7468 O   0  0  0  0  0  0  0  0  0  0  0  0
   11.4132  -16.4206   26.6579 C   0  0  0  0  0  0  0  0  0  0  0  0
   10.9710  -16.8946   27.8963 C   0  0  0  0  0  0  0  0  0  0  0  0
   11.7833  -18.0719   24.4971 O   0  0  0  0  0  0  0  0  0  0  0  0
  2  1  1  0
  3  2  1  0
  4  3  1  0
  4  5  1  0
  5  6  1  1
  7  5  1  0
  7  8  2  0
  9  7  1  0
 10  9  1  0
 11 12  1  0
 11 10  1  0
 12 13  1  0
 13  9  1  0
 13 14  1  1
 14 23  1  0
 15 14  2  0
 17 16  1  0
 17 18  2  0
 18 19  1  0
 20 19  2  0
 21 20  1  0
 22 21  1  1
 22 23  1  0
 22 24  1  0
 24 25  2  0
 24 28  1  0
 26 27  2  0
 26 20  1  0
 27 17  1  0
M  END
$$$$
