MPY.pdb
     RDKit          3D

 28 29  0  0  1  0  0  0  0  0999 V2000
    6.3147  -20.9348   25.1995 C   0  0  0  0  0  0  0  0  0  0  0  0
    5.5804  -20.0018   23.8376 S   0  0  0  0  0  0  0  0  0  0  0  0
    6.8555  -19.5579   22.6143 C   0  0  0  0  0  0  0  0  0  0  0  0
    6.2082  -18.6740   21.5782 C   0  0  0  0  0  0  0  0  0  0  0  0
    7.1808  -18.1157   20.5586 C   0  0  2  0  0  0  0  0  0  0  0  0
    7.7494  -19.2385   19.8582 N   0  0  0  0  0  0  0  0  0  0  0  0
    8.1966  -17.2244   21.1167 C   0  0  0  0  0  0  0  0  0  0  0  0
    9.3576  -17.7084   21.2743 O   0  0  0  0  0  0  0  0  0  0  0  0
    7.9468  -15.8998   21.4722 N   0  0  0  0  0  0  0  0  0  0  0  0
    6.6492  -15.2557   21.2035 C   0  0  0  0  0  0  0  0  0  0  0  0
    6.6979  -13.8812   21.7574 C   0  0  0  0  0  0  0  0  0  0  0  0
    8.1493  -13.5755   21.8775 C   0  0  0  0  0  0  0  0  0  0  0  0
    8.7725  -14.9436   22.1071 C   0  0  1  0  0  0  0  0  0  0  0  0
    8.9647  -15.1980   23.5656 C   0  0  0  0  0  0  0  0  0  0  0  0
    7.9500  -15.3248   24.2933 O   0  0  0  0  0  0  0  0  0  0  0  0
    4.8500  -12.3294   26.5761 O   0  0  0  0  0  0  0  0  0  0  0  0
    6.1454  -12.7876   26.5157 C   0  0  0  0  0  0  0  0  0  0  0  0
    6.4568  -14.1298   26.3128 C   0  0  0  0  0  0  0  0  0  0  0  0
    7.7627  -14.5588   26.2570 C   0  0  0  0  0  0  0  0  0  0  0  0
    8.8313  -13.6723   26.4006 C   0  0  0  0  0  0  0  0  0  0  0  0
   10.2230  -14.0875   26.3358 C   0  0  0  0  0  0  0  0  0  0  0  0
   10.5030  -15.3532   25.5672 C   0  0  2  0  0  0  0  0  0  0  0  0
   10.2355  -15.3041   24.1732 N   0  0  0  0  0  0  0  0  0  0  0  0
    9.8606  -16.4682   26.2983 C   0  0  0  0  0  0  0  0  0  0  0  0
   10.0227  -16.6389   27.5154 O   0  0  0  0  0  0  0  0  0  0  0  0
    8.5224  -12.3521   26.5999 C   0  0  0  0  0  0  0  0  0  0  0  0
    7.1961  -11.9145   26.6570 C   0  0  0  0  0  0  0  0  0  0  0  0
    9.0578  -17.3427   25.6002 O   0  0  0  0  0  0  0  0  0  0  0  0
  2  1  1  0
  3  2  1  0
  4  3  1  0
  4  5  1  0
  5  6  1  1
  7  5  1  0
  7  8  2  0
  9  7  1  0
 10  9  1  0
 11 12  1  0
 11 10  1  0
 12 13  1  0
 13  9  1  0
 13 14  1  1
 14 23  1  0
 15 14  2  0
 17 16  1  0
 17 18  2  0
 18 19  1  0
 20 19  2  0
 21 20  1  0
 22 21  1  1
 22 23  1  0
 22 24  1  0
 24 25  2  0
 24 28  1  0
 26 27  2  0
 26 20  1  0
 27 17  1  0
M  END
$$$$
