MPY.pdb
     RDKit          3D

 28 29  0  0  1  0  0  0  0  0999 V2000
   13.8818  -15.3863   19.9191 C   0  0  0  0  0  0  0  0  0  0  0  0
   12.8152  -14.0315   19.3791 S   0  0  0  0  0  0  0  0  0  0  0  0
   11.0746  -14.5691   19.3497 C   0  0  0  0  0  0  0  0  0  0  0  0
   10.2484  -13.4181   18.8339 C   0  0  0  0  0  0  0  0  0  0  0  0
    8.7604  -13.7038   18.7958 C   0  0  2  0  0  0  0  0  0  0  0  0
    8.1165  -12.5233   18.2797 N   0  0  0  0  0  0  0  0  0  0  0  0
    8.1962  -14.1436   20.0710 C   0  0  0  0  0  0  0  0  0  0  0  0
    7.9932  -13.2484   20.9453 O   0  0  0  0  0  0  0  0  0  0  0  0
    7.8808  -15.4711   20.3561 N   0  0  0  0  0  0  0  0  0  0  0  0
    7.9860  -16.5299   19.3368 C   0  0  0  0  0  0  0  0  0  0  0  0
    7.6399  -17.8199   19.9805 C   0  0  0  0  0  0  0  0  0  0  0  0
    6.8629  -17.4393   21.1913 C   0  0  0  0  0  0  0  0  0  0  0  0
    7.4323  -16.0763   21.5526 C   0  0  1  0  0  0  0  0  0  0  0  0
    8.4987  -16.2077   22.5892 C   0  0  0  0  0  0  0  0  0  0  0  0
    9.6461  -16.5679   22.2299 O   0  0  0  0  0  0  0  0  0  0  0  0
    4.6066  -12.0297   27.1844 O   0  0  0  0  0  0  0  0  0  0  0  0
    5.7869  -12.6504   26.8480 C   0  0  0  0  0  0  0  0  0  0  0  0
    6.6236  -13.2336   27.7963 C   0  0  0  0  0  0  0  0  0  0  0  0
    7.7988  -13.8477   27.4298 C   0  0  0  0  0  0  0  0  0  0  0  0
    8.2050  -13.9143   26.0961 C   0  0  0  0  0  0  0  0  0  0  0  0
    9.4336  -14.5647   25.6706 C   0  0  0  0  0  0  0  0  0  0  0  0
    9.2755  -15.8923   24.9754 C   0  0  2  0  0  0  0  0  0  0  0  0
    8.2833  -15.9466   23.9606 N   0  0  0  0  0  0  0  0  0  0  0  0
    9.1702  -16.9326   26.0228 C   0  0  0  0  0  0  0  0  0  0  0  0
   10.0643  -17.1166   26.8616 O   0  0  0  0  0  0  0  0  0  0  0  0
    7.3799  -13.3400   25.1647 C   0  0  0  0  0  0  0  0  0  0  0  0
    6.1856  -12.7155   25.5354 C   0  0  0  0  0  0  0  0  0  0  0  0
    8.0411  -17.7199   26.0634 O   0  0  0  0  0  0  0  0  0  0  0  0
  2  1  1  0
  3  2  1  0
  4  3  1  0
  4  5  1  0
  5  6  1  1
  7  5  1  0
  7  8  2  0
  9  7  1  0
 10  9  1  0
 11 12  1  0
 11 10  1  0
 12 13  1  0
 13  9  1  0
 13 14  1  1
 14 23  1  0
 15 14  2  0
 17 16  1  0
 17 18  2  0
 18 19  1  0
 20 19  2  0
 21 20  1  0
 22 21  1  1
 22 23  1  0
 22 24  1  0
 24 25  2  0
 24 28  1  0
 26 27  2  0
 26 20  1  0
 27 17  1  0
M  END
$$$$
