WHR.pdb
     RDKit          3D

 36 38  0  0  1  0  0  0  0  0999 V2000
    8.8421  -17.9137   20.3719 N   0  0  0  0  0  0  0  0  0  0  0  0
    8.9971  -16.8972   21.3803 C   0  0  1  0  0  0  0  0  0  0  0  0
    7.7457  -16.0809   21.4873 C   0  0  0  0  0  0  0  0  0  0  0  0
    7.9119  -14.6530   21.1469 C   0  0  0  0  0  0  0  0  0  0  0  0
    7.8719  -14.1218   19.8538 C   0  0  0  0  0  0  0  0  0  0  0  0
    8.0309  -12.8078   19.9406 N   0  0  0  0  0  0  0  0  0  0  0  0
    8.1774  -12.4175   21.2194 C   0  0  0  0  0  0  0  0  0  0  0  0
    8.3743  -11.1986   21.8434 C   0  0  0  0  0  0  0  0  0  0  0  0
    8.5017  -11.0882   23.2019 C   0  0  0  0  0  0  0  0  0  0  0  0
    8.4317  -12.2293   23.9719 C   0  0  0  0  0  0  0  0  0  0  0  0
    8.2328  -13.4675   23.3567 C   0  0  0  0  0  0  0  0  0  0  0  0
    8.1043  -13.5752   21.9924 C   0  0  0  0  0  0  0  0  0  0  0  0
    9.2394  -17.5529   22.7164 C   0  0  0  0  0  0  0  0  0  0  0  0
    8.5625  -17.2003   23.7163 O   0  0  0  0  0  0  0  0  0  0  0  0
   10.2059  -18.5582   22.8939 N   0  0  0  0  0  0  0  0  0  0  0  0
   10.4998  -19.2023   24.1478 C   0  0  1  0  0  0  0  0  0  0  0  0
   11.4152  -20.3792   23.9706 C   0  0  0  0  0  0  0  0  0  0  0  0
   11.6455  -21.1184   25.2245 C   0  0  0  0  0  0  0  0  0  0  0  0
   11.0963  -20.8259   26.4506 C   0  0  0  0  0  0  0  0  0  0  0  0
   11.5570  -21.7373   27.3299 N   0  0  0  0  0  0  0  0  0  0  0  0
   12.3767  -22.5919   26.6975 C   0  0  0  0  0  0  0  0  0  0  0  0
   12.4146  -22.1916   25.4083 N   0  0  0  0  0  0  0  0  0  0  0  0
   11.2198  -18.2549   25.0793 C   0  0  0  0  0  0  0  0  0  0  0  0
   11.9762  -17.3629   24.6186 O   0  0  0  0  0  0  0  0  0  0  0  0
    6.8546  -15.9560   25.4150 N   0  0  0  0  0  0  0  0  0  0  0  0
    6.6310  -15.0782   26.4956 C   0  0  0  0  0  0  0  0  0  0  0  0
    5.4406  -14.6177   26.6919 N   0  0  0  0  0  0  0  0  0  0  0  0
    7.6555  -14.6697   27.3912 N   0  0  0  0  0  0  0  0  0  0  0  0
    9.0538  -14.7191   27.1114 C   0  0  0  0  0  0  0  0  0  0  0  0
    9.6531  -16.0692   27.3797 C   0  0  0  0  0  0  0  0  0  0  0  0
   11.1085  -16.0766   27.1342 C   0  0  0  0  0  0  0  0  0  0  0  0
   11.7813  -17.4371   27.3998 C   0  0  2  0  0  0  0  0  0  0  0  0
   11.0663  -18.3432   26.4769 N   0  0  0  0  0  0  0  0  0  0  0  0
   11.4914  -17.7979   28.7986 C   0  0  0  0  0  0  0  0  0  0  0  0
   10.5568  -18.7016   29.2329 O   0  0  0  0  0  0  0  0  0  0  0  0
   12.1826  -17.2053   29.7017 O   0  0  0  0  0  0  0  0  0  0  0  0
  2  3  1  0
  2  1  1  6
  4  3  1  0
  5  4  2  0
  6  5  1  0
  7  6  1  0
  7 12  2  0
  8  9  2  0
  8  7  1  0
  9 10  1  0
 10 11  2  0
 12 11  1  0
 12  4  1  0
 13 14  2  0
 13  2  1  0
 15 13  1  0
 16 15  1  0
 16 17  1  6
 18 22  1  0
 18 17  1  0
 19 18  2  0
 20 19  1  0
 20 21  1  0
 21 22  2  0
 23 24  2  0
 23 16  1  0
 25 26  1  0
 26 27  2  0
 28 29  1  0
 28 26  1  0
 30 29  1  0
 31 30  1  0
 32 31  1  6
 32 33  1  0
 33 23  1  0
 34 32  1  0
 35 34  1  0
 36 34  2  0
M  END
$$$$
