WHR.pdb
     RDKit          3D

 36 38  0  0  1  0  0  0  0  0999 V2000
    7.5570  -17.0919   23.4818 N   0  0  0  0  0  0  0  0  0  0  0  0
    8.6352  -16.2352   23.9032 C   0  0  1  0  0  0  0  0  0  0  0  0
    8.5656  -16.0067   25.3819 C   0  0  0  0  0  0  0  0  0  0  0  0
    7.4599  -15.1290   25.8172 C   0  0  0  0  0  0  0  0  0  0  0  0
    6.2032  -15.5671   26.2469 C   0  0  0  0  0  0  0  0  0  0  0  0
    5.4858  -14.5030   26.5820 N   0  0  0  0  0  0  0  0  0  0  0  0
    6.1844  -13.3676   26.4032 C   0  0  0  0  0  0  0  0  0  0  0  0
    5.9120  -12.0238   26.5875 C   0  0  0  0  0  0  0  0  0  0  0  0
    6.8324  -11.0495   26.3090 C   0  0  0  0  0  0  0  0  0  0  0  0
    8.0702  -11.4205   25.8292 C   0  0  0  0  0  0  0  0  0  0  0  0
    8.3604  -12.7735   25.6381 C   0  0  0  0  0  0  0  0  0  0  0  0
    7.4346  -13.7497   25.9195 C   0  0  0  0  0  0  0  0  0  0  0  0
    9.9519  -16.9039   23.5981 C   0  0  0  0  0  0  0  0  0  0  0  0
   11.0288  -16.3262   23.8965 O   0  0  0  0  0  0  0  0  0  0  0  0
   10.0272  -18.1662   22.9841 N   0  0  0  0  0  0  0  0  0  0  0  0
   11.2525  -18.8479   22.6561 C   0  0  1  0  0  0  0  0  0  0  0  0
   11.1455  -20.3287   22.8800 C   0  0  0  0  0  0  0  0  0  0  0  0
   10.7506  -20.6715   24.2578 C   0  0  0  0  0  0  0  0  0  0  0  0
   11.5303  -20.5358   25.3822 C   0  0  0  0  0  0  0  0  0  0  0  0
   10.8022  -20.9581   26.4347 N   0  0  0  0  0  0  0  0  0  0  0  0
    9.5922  -21.3543   26.0092 C   0  0  0  0  0  0  0  0  0  0  0  0
    9.5851  -21.1690   24.6716 N   0  0  0  0  0  0  0  0  0  0  0  0
   11.5852  -18.6739   21.1923 C   0  0  0  0  0  0  0  0  0  0  0  0
   11.0681  -19.4272   20.3290 O   0  0  0  0  0  0  0  0  0  0  0  0
    6.8466  -13.3444   19.0585 N   0  0  0  0  0  0  0  0  0  0  0  0
    8.2522  -13.4094   18.9675 C   0  0  0  0  0  0  0  0  0  0  0  0
    8.9227  -12.3127   18.8441 N   0  0  0  0  0  0  0  0  0  0  0  0
    8.9791  -14.6295   19.0062 N   0  0  0  0  0  0  0  0  0  0  0  0
   10.4022  -14.7341   18.9976 C   0  0  0  0  0  0  0  0  0  0  0  0
   10.8803  -16.1564   18.9461 C   0  0  0  0  0  0  0  0  0  0  0  0
   12.3532  -16.2331   18.8906 C   0  0  0  0  0  0  0  0  0  0  0  0
   12.9273  -17.5864   19.3524 C   0  0  2  0  0  0  0  0  0  0  0  0
   12.4759  -17.6729   20.7569 N   0  0  0  0  0  0  0  0  0  0  0  0
   14.3954  -17.4773   19.2922 C   0  0  0  0  0  0  0  0  0  0  0  0
   15.2553  -17.4200   20.3581 O   0  0  0  0  0  0  0  0  0  0  0  0
   14.9223  -17.4297   18.1240 O   0  0  0  0  0  0  0  0  0  0  0  0
  2  3  1  0
  2  1  1  1
  4  3  1  0
  5  4  2  0
  6  5  1  0
  7  6  1  0
  7 12  2  0
  8  9  2  0
  8  7  1  0
  9 10  1  0
 10 11  2  0
 12 11  1  0
 12  4  1  0
 13 14  2  0
 13  2  1  0
 15 13  1  0
 16 15  1  0
 16 17  1  6
 18 22  1  0
 18 17  1  0
 19 18  2  0
 20 19  1  0
 20 21  1  0
 21 22  2  0
 23 24  2  0
 23 16  1  0
 25 26  1  0
 26 27  2  0
 28 29  1  0
 28 26  1  0
 30 29  1  0
 31 30  1  0
 32 31  1  1
 32 33  1  0
 33 23  1  0
 34 32  1  0
 35 34  1  0
 36 34  2  0
M  END
$$$$
