WHR.pdb
     RDKit          3D

 36 38  0  0  1  0  0  0  0  0999 V2000
    5.7929  -17.2074   23.0964 N   0  0  0  0  0  0  0  0  0  0  0  0
    6.6808  -16.0778   22.9974 C   0  0  1  0  0  0  0  0  0  0  0  0
    7.2650  -15.7610   24.3398 C   0  0  0  0  0  0  0  0  0  0  0  0
    6.4306  -14.8785   25.1808 C   0  0  0  0  0  0  0  0  0  0  0  0
    5.4147  -15.3078   26.0408 C   0  0  0  0  0  0  0  0  0  0  0  0
    4.9079  -14.2427   26.6476 N   0  0  0  0  0  0  0  0  0  0  0  0
    5.5220  -13.1149   26.2475 C   0  0  0  0  0  0  0  0  0  0  0  0
    5.3794  -11.7735   26.5541 C   0  0  0  0  0  0  0  0  0  0  0  0
    6.1566  -10.8074   25.9741 C   0  0  0  0  0  0  0  0  0  0  0  0
    7.1119  -11.1845   25.0548 C   0  0  0  0  0  0  0  0  0  0  0  0
    7.2683  -12.5353   24.7349 C   0  0  0  0  0  0  0  0  0  0  0  0
    6.4870  -13.5033   25.3195 C   0  0  0  0  0  0  0  0  0  0  0  0
    7.8164  -16.4163   22.0650 C   0  0  0  0  0  0  0  0  0  0  0  0
    8.0012  -17.6104   21.7147 O   0  0  0  0  0  0  0  0  0  0  0  0
    8.6914  -15.4375   21.5626 N   0  0  0  0  0  0  0  0  0  0  0  0
    9.8287  -15.7066   20.7215 C   0  0  1  0  0  0  0  0  0  0  0  0
   10.2465  -14.4937   19.9414 C   0  0  0  0  0  0  0  0  0  0  0  0
    9.2490  -14.0899   18.9345 C   0  0  0  0  0  0  0  0  0  0  0  0
    8.4870  -12.9456   18.9615 C   0  0  0  0  0  0  0  0  0  0  0  0
    7.7051  -12.9522   17.8639 N   0  0  0  0  0  0  0  0  0  0  0  0
    7.9503  -14.0617   17.1489 C   0  0  0  0  0  0  0  0  0  0  0  0
    8.9001  -14.7426   17.8257 N   0  0  0  0  0  0  0  0  0  0  0  0
   11.0283  -16.0965   21.5537 C   0  0  0  0  0  0  0  0  0  0  0  0
   12.1915  -15.9461   21.1016 O   0  0  0  0  0  0  0  0  0  0  0  0
   12.3376  -18.2269   29.3136 N   0  0  0  0  0  0  0  0  0  0  0  0
   13.5771  -17.6498   28.9688 C   0  0  0  0  0  0  0  0  0  0  0  0
   14.6342  -18.0008   29.6223 N   0  0  0  0  0  0  0  0  0  0  0  0
   13.7281  -16.6938   27.9288 N   0  0  0  0  0  0  0  0  0  0  0  0
   12.7519  -16.4154   26.9260 C   0  0  0  0  0  0  0  0  0  0  0  0
   12.4142  -17.6183   26.0935 C   0  0  0  0  0  0  0  0  0  0  0  0
   11.4253  -17.2947   25.0466 C   0  0  0  0  0  0  0  0  0  0  0  0
   12.0419  -17.0614   23.6538 C   0  0  2  0  0  0  0  0  0  0  0  0
   10.8796  -16.6349   22.8470 N   0  0  0  0  0  0  0  0  0  0  0  0
   12.5450  -18.3624   23.1793 C   0  0  0  0  0  0  0  0  0  0  0  0
   11.7948  -19.3997   22.6897 O   0  0  0  0  0  0  0  0  0  0  0  0
   13.8135  -18.5433   23.2310 O   0  0  0  0  0  0  0  0  0  0  0  0
  2  3  1  0
  2  1  1  1
  4  3  1  0
  5  4  2  0
  6  5  1  0
  7  6  1  0
  7 12  2  0
  8  9  2  0
  8  7  1  0
  9 10  1  0
 10 11  2  0
 12 11  1  0
 12  4  1  0
 13 14  2  0
 13  2  1  0
 15 13  1  0
 16 15  1  0
 16 17  1  1
 18 22  1  0
 18 17  1  0
 19 18  2  0
 20 19  1  0
 20 21  1  0
 21 22  2  0
 23 24  2  0
 23 16  1  0
 25 26  1  0
 26 27  2  0
 28 29  1  0
 28 26  1  0
 30 29  1  0
 31 30  1  0
 32 31  1  1
 32 33  1  0
 33 23  1  0
 34 32  1  0
 35 34  1  0
 36 34  2  0
M  END
$$$$
