WHR.pdb
     RDKit          3D

 36 38  0  0  1  0  0  0  0  0999 V2000
    7.5659  -18.2132   18.5181 N   0  0  0  0  0  0  0  0  0  0  0  0
    7.8417  -17.1609   19.4618 C   0  0  1  0  0  0  0  0  0  0  0  0
    6.5793  -16.7396   20.1492 C   0  0  0  0  0  0  0  0  0  0  0  0
    6.7536  -15.6712   21.1545 C   0  0  0  0  0  0  0  0  0  0  0  0
    6.6038  -15.8308   22.5358 C   0  0  0  0  0  0  0  0  0  0  0  0
    6.8643  -14.6677   23.1179 N   0  0  0  0  0  0  0  0  0  0  0  0
    7.1815  -13.7278   22.2096 C   0  0  0  0  0  0  0  0  0  0  0  0
    7.5212  -12.3886   22.2800 C   0  0  0  0  0  0  0  0  0  0  0  0
    7.7952  -11.6471   21.1624 C   0  0  0  0  0  0  0  0  0  0  0  0
    7.7298  -12.2556   19.9273 C   0  0  0  0  0  0  0  0  0  0  0  0
    7.3885  -13.6074   19.8397 C   0  0  0  0  0  0  0  0  0  0  0  0
    7.1148  -14.3496   20.9638 C   0  0  0  0  0  0  0  0  0  0  0  0
    8.7948  -17.6710   20.5130 C   0  0  0  0  0  0  0  0  0  0  0  0
    8.4654  -18.6495   21.2318 O   0  0  0  0  0  0  0  0  0  0  0  0
   10.0567  -17.0894   20.7268 N   0  0  0  0  0  0  0  0  0  0  0  0
   10.9888  -17.5012   21.7442 C   0  0  1  0  0  0  0  0  0  0  0  0
   12.2887  -16.7563   21.6458 C   0  0  0  0  0  0  0  0  0  0  0  0
   13.2881  -17.2184   22.6253 C   0  0  0  0  0  0  0  0  0  0  0  0
   13.4815  -16.7094   23.8879 C   0  0  0  0  0  0  0  0  0  0  0  0
   14.4853  -17.4054   24.4571 N   0  0  0  0  0  0  0  0  0  0  0  0
   14.9288  -18.3338   23.5947 C   0  0  0  0  0  0  0  0  0  0  0  0
   14.1792  -18.1991   22.4795 N   0  0  0  0  0  0  0  0  0  0  0  0
   10.4436  -17.2014   23.1213 C   0  0  0  0  0  0  0  0  0  0  0  0
   10.2202  -16.0153   23.4721 O   0  0  0  0  0  0  0  0  0  0  0  0
    4.6208  -22.4034   25.1176 N   0  0  0  0  0  0  0  0  0  0  0  0
    5.8172  -22.7321   24.4476 C   0  0  0  0  0  0  0  0  0  0  0  0
    5.8835  -23.8442   23.7945 N   0  0  0  0  0  0  0  0  0  0  0  0
    6.9659  -21.8961   24.4507 N   0  0  0  0  0  0  0  0  0  0  0  0
    7.0545  -20.6307   25.1042 C   0  0  0  0  0  0  0  0  0  0  0  0
    8.3664  -19.9418   24.8619 C   0  0  0  0  0  0  0  0  0  0  0  0
    8.4574  -18.6692   25.6040 C   0  0  0  0  0  0  0  0  0  0  0  0
    9.8103  -17.9486   25.4472 C   0  0  2  0  0  0  0  0  0  0  0  0
   10.1730  -18.2320   24.0429 N   0  0  0  0  0  0  0  0  0  0  0  0
   10.7593  -18.6047   26.3636 C   0  0  0  0  0  0  0  0  0  0  0  0
   10.9637  -19.9530   26.5009 O   0  0  0  0  0  0  0  0  0  0  0  0
   11.4648  -17.8363   27.1096 O   0  0  0  0  0  0  0  0  0  0  0  0
  2  3  1  0
  2  1  1  6
  4  3  1  0
  5  4  2  0
  6  5  1  0
  7  6  1  0
  7 12  2  0
  8  9  2  0
  8  7  1  0
  9 10  1  0
 10 11  2  0
 12 11  1  0
 12  4  1  0
 13 14  2  0
 13  2  1  0
 15 13  1  0
 16 15  1  0
 16 17  1  6
 18 22  1  0
 18 17  1  0
 19 18  2  0
 20 19  1  0
 20 21  1  0
 21 22  2  0
 23 24  2  0
 23 16  1  0
 25 26  1  0
 26 27  2  0
 28 29  1  0
 28 26  1  0
 30 29  1  0
 31 30  1  0
 32 31  1  1
 32 33  1  0
 33 23  1  0
 34 32  1  0
 35 34  1  0
 36 34  2  0
M  END
$$$$
