WHR.pdb
     RDKit          3D

 36 38  0  0  1  0  0  0  0  0999 V2000
   10.9014  -15.2504   21.4325 N   0  0  0  0  0  0  0  0  0  0  0  0
    9.6429  -15.3112   22.1301 C   0  0  1  0  0  0  0  0  0  0  0  0
    8.7211  -16.2759   21.4493 C   0  0  0  0  0  0  0  0  0  0  0  0
    7.8795  -15.6801   20.3915 C   0  0  0  0  0  0  0  0  0  0  0  0
    7.0232  -16.3917   19.5452 C   0  0  0  0  0  0  0  0  0  0  0  0
    6.4144  -15.5244   18.7473 N   0  0  0  0  0  0  0  0  0  0  0  0
    6.8098  -14.2647   19.0039 C   0  0  0  0  0  0  0  0  0  0  0  0
    6.4995  -13.0253   18.4733 C   0  0  0  0  0  0  0  0  0  0  0  0
    7.0748  -11.8715   18.9336 C   0  0  0  0  0  0  0  0  0  0  0  0
    7.9930  -11.9485   19.9587 C   0  0  0  0  0  0  0  0  0  0  0  0
    8.3166  -13.1927   20.5052 C   0  0  0  0  0  0  0  0  0  0  0  0
    7.7367  -14.3494   20.0416 C   0  0  0  0  0  0  0  0  0  0  0  0
    9.8753  -15.8043   23.5360 C   0  0  0  0  0  0  0  0  0  0  0  0
   10.9648  -16.3602   23.8300 O   0  0  0  0  0  0  0  0  0  0  0  0
    8.9096  -15.6665   24.5482 N   0  0  0  0  0  0  0  0  0  0  0  0
    9.1073  -16.0321   25.9269 C   0  0  1  0  0  0  0  0  0  0  0  0
    7.8835  -15.7688   26.7560 C   0  0  0  0  0  0  0  0  0  0  0  0
    7.5907  -14.3319   26.9029 C   0  0  0  0  0  0  0  0  0  0  0  0
    8.3947  -13.2946   26.4926 C   0  0  0  0  0  0  0  0  0  0  0  0
    7.7674  -12.1447   26.8096 N   0  0  0  0  0  0  0  0  0  0  0  0
    6.5973  -12.4249   27.4050 C   0  0  0  0  0  0  0  0  0  0  0  0
    6.5120  -13.7719   27.4505 N   0  0  0  0  0  0  0  0  0  0  0  0
    9.3815  -17.5128   26.0529 C   0  0  0  0  0  0  0  0  0  0  0  0
    8.5477  -18.3520   25.6280 O   0  0  0  0  0  0  0  0  0  0  0  0
   17.3371  -21.1611   28.4543 N   0  0  0  0  0  0  0  0  0  0  0  0
   16.4521  -20.7253   27.4468 C   0  0  0  0  0  0  0  0  0  0  0  0
   16.7544  -19.6744   26.7598 N   0  0  0  0  0  0  0  0  0  0  0  0
   15.2329  -21.3880   27.1420 N   0  0  0  0  0  0  0  0  0  0  0  0
   14.3085  -20.9773   26.1355 C   0  0  0  0  0  0  0  0  0  0  0  0
   12.8983  -20.8876   26.6431 C   0  0  0  0  0  0  0  0  0  0  0  0
   12.3047  -19.5645   26.3680 C   0  0  0  0  0  0  0  0  0  0  0  0
   10.8325  -19.4360   26.8045 C   0  0  2  0  0  0  0  0  0  0  0  0
   10.5672  -17.9910   26.6446 N   0  0  0  0  0  0  0  0  0  0  0  0
   10.7679  -19.8142   28.2270 C   0  0  0  0  0  0  0  0  0  0  0  0
   10.6271  -18.9646   29.2933 O   0  0  0  0  0  0  0  0  0  0  0  0
   10.8535  -21.0654   28.4951 O   0  0  0  0  0  0  0  0  0  0  0  0
  2  3  1  0
  2  1  1  6
  4  3  1  0
  5  4  2  0
  6  5  1  0
  7  6  1  0
  7 12  2  0
  8  9  2  0
  8  7  1  0
  9 10  1  0
 10 11  2  0
 12 11  1  0
 12  4  1  0
 13 14  2  0
 13  2  1  0
 15 13  1  0
 16 15  1  0
 16 17  1  1
 18 22  1  0
 18 17  1  0
 19 18  2  0
 20 19  1  0
 20 21  1  0
 21 22  2  0
 23 24  2  0
 23 16  1  0
 25 26  1  0
 26 27  2  0
 28 29  1  0
 28 26  1  0
 30 29  1  0
 31 30  1  0
 32 31  1  1
 32 33  1  0
 33 23  1  0
 34 32  1  0
 35 34  1  0
 36 34  2  0
M  END
$$$$
