WHR.pdb
     RDKit          3D

 36 38  0  0  1  0  0  0  0  0999 V2000
    8.5849  -17.3344   22.7567 N   0  0  0  0  0  0  0  0  0  0  0  0
    9.1777  -17.2749   21.4455 C   0  0  1  0  0  0  0  0  0  0  0  0
    9.6711  -15.8889   21.1642 C   0  0  0  0  0  0  0  0  0  0  0  0
    8.6621  -14.8267   21.3538 C   0  0  0  0  0  0  0  0  0  0  0  0
    7.8736  -14.6574   22.4963 C   0  0  0  0  0  0  0  0  0  0  0  0
    7.1082  -13.5890   22.3169 N   0  0  0  0  0  0  0  0  0  0  0  0
    7.3323  -13.0242   21.1170 C   0  0  0  0  0  0  0  0  0  0  0  0
    6.8135  -11.9288   20.4502 C   0  0  0  0  0  0  0  0  0  0  0  0
    7.2308  -11.5755   19.1952 C   0  0  0  0  0  0  0  0  0  0  0  0
    8.1991  -12.3369   18.5767 C   0  0  0  0  0  0  0  0  0  0  0  0
    8.7331  -13.4459   19.2372 C   0  0  0  0  0  0  0  0  0  0  0  0
    8.3129  -13.7977   20.4977 C   0  0  0  0  0  0  0  0  0  0  0  0
   10.3602  -18.2090   21.3901 C   0  0  0  0  0  0  0  0  0  0  0  0
   10.5148  -18.9612   20.3937 O   0  0  0  0  0  0  0  0  0  0  0  0
   11.3123  -18.2753   22.4221 N   0  0  0  0  0  0  0  0  0  0  0  0
   12.5400  -19.0252   22.3597 C   0  0  1  0  0  0  0  0  0  0  0  0
   13.6093  -18.2854   21.6087 C   0  0  0  0  0  0  0  0  0  0  0  0
   14.7908  -19.1196   21.3260 C   0  0  0  0  0  0  0  0  0  0  0  0
   14.8430  -20.4930   21.3704 C   0  0  0  0  0  0  0  0  0  0  0  0
   16.0982  -20.8623   21.0476 N   0  0  0  0  0  0  0  0  0  0  0  0
   16.8357  -19.7677   20.8023 C   0  0  0  0  0  0  0  0  0  0  0  0
   16.0119  -18.7123   20.9795 N   0  0  0  0  0  0  0  0  0  0  0  0
   13.0944  -19.2589   23.7458 C   0  0  0  0  0  0  0  0  0  0  0  0
   13.1570  -18.3145   24.5730 O   0  0  0  0  0  0  0  0  0  0  0  0
   12.6519  -26.9160   28.0367 N   0  0  0  0  0  0  0  0  0  0  0  0
   11.8643  -25.8082   27.6619 C   0  0  0  0  0  0  0  0  0  0  0  0
   10.5829  -25.9488   27.5845 N   0  0  0  0  0  0  0  0  0  0  0  0
   12.4098  -24.5309   27.3628 N   0  0  0  0  0  0  0  0  0  0  0  0
   13.7990  -24.2555   27.1887 C   0  0  0  0  0  0  0  0  0  0  0  0
   14.0892  -22.7880   27.0603 C   0  0  0  0  0  0  0  0  0  0  0  0
   13.7320  -22.2782   25.7220 C   0  0  0  0  0  0  0  0  0  0  0  0
   14.0470  -20.7839   25.5167 C   0  0  2  0  0  0  0  0  0  0  0  0
   13.5533  -20.5290   24.1474 N   0  0  0  0  0  0  0  0  0  0  0  0
   15.5124  -20.6392   25.5679 C   0  0  0  0  0  0  0  0  0  0  0  0
   16.3508  -20.4288   24.5042 O   0  0  0  0  0  0  0  0  0  0  0  0
   16.0593  -20.7198   26.7251 O   0  0  0  0  0  0  0  0  0  0  0  0
  2  3  1  0
  2  1  1  1
  4  3  1  0
  5  4  2  0
  6  5  1  0
  7  6  1  0
  7 12  2  0
  8  9  2  0
  8  7  1  0
  9 10  1  0
 10 11  2  0
 12 11  1  0
 12  4  1  0
 13 14  2  0
 13  2  1  0
 15 13  1  0
 16 15  1  0
 16 17  1  6
 18 22  1  0
 18 17  1  0
 19 18  2  0
 20 19  1  0
 20 21  1  0
 21 22  2  0
 23 24  2  0
 23 16  1  0
 25 26  1  0
 26 27  2  0
 28 29  1  0
 28 26  1  0
 30 29  1  0
 31 30  1  0
 32 31  1  6
 32 33  1  0
 33 23  1  0
 34 32  1  0
 35 34  1  0
 36 34  2  0
M  END
$$$$
