WHR.pdb
     RDKit          3D

 36 38  0  0  1  0  0  0  0  0999 V2000
    6.7794  -17.2870   23.6424 N   0  0  0  0  0  0  0  0  0  0  0  0
    7.9753  -16.4900   23.7351 C   0  0  1  0  0  0  0  0  0  0  0  0
    8.0830  -15.8768   25.0975 C   0  0  0  0  0  0  0  0  0  0  0  0
    7.0630  -14.8496   25.3919 C   0  0  0  0  0  0  0  0  0  0  0  0
    5.7568  -15.1088   25.8193 C   0  0  0  0  0  0  0  0  0  0  0  0
    5.1447  -13.9473   26.0085 N   0  0  0  0  0  0  0  0  0  0  0  0
    5.9614  -12.9148   25.7330 C   0  0  0  0  0  0  0  0  0  0  0  0
    5.8248  -11.5384   25.7586 C   0  0  0  0  0  0  0  0  0  0  0  0
    6.8481  -10.6985   25.4100 C   0  0  0  0  0  0  0  0  0  0  0  0
    8.0530  -11.2431   25.0208 C   0  0  0  0  0  0  0  0  0  0  0  0
    8.2067  -12.6311   24.9901 C   0  0  0  0  0  0  0  0  0  0  0  0
    7.1778  -13.4720   25.3415 C   0  0  0  0  0  0  0  0  0  0  0  0
    9.1801  -17.3724   23.5264 C   0  0  0  0  0  0  0  0  0  0  0  0
    9.1702  -18.5540   23.9582 O   0  0  0  0  0  0  0  0  0  0  0  0
   10.3325  -16.9226   22.8589 N   0  0  0  0  0  0  0  0  0  0  0  0
   11.5685  -17.6560   22.7691 C   0  0  1  0  0  0  0  0  0  0  0  0
   12.4939  -17.0684   21.7432 C   0  0  0  0  0  0  0  0  0  0  0  0
   12.0869  -17.3791   20.3613 C   0  0  0  0  0  0  0  0  0  0  0  0
   11.6190  -18.5895   19.9067 C   0  0  0  0  0  0  0  0  0  0  0  0
   11.3602  -18.4567   18.5908 N   0  0  0  0  0  0  0  0  0  0  0  0
   11.6498  -17.2042   18.2040 C   0  0  0  0  0  0  0  0  0  0  0  0
   12.0933  -16.5635   19.3069 N   0  0  0  0  0  0  0  0  0  0  0  0
   12.3175  -17.6030   24.0805 C   0  0  0  0  0  0  0  0  0  0  0  0
   12.7292  -16.5051   24.5335 O   0  0  0  0  0  0  0  0  0  0  0  0
   14.4581  -19.9720   31.0479 N   0  0  0  0  0  0  0  0  0  0  0  0
   13.5151  -21.0110   31.1869 C   0  0  0  0  0  0  0  0  0  0  0  0
   13.6001  -21.8013   32.2047 N   0  0  0  0  0  0  0  0  0  0  0  0
   12.4636  -21.2370   30.2586 N   0  0  0  0  0  0  0  0  0  0  0  0
   12.6373  -21.4114   28.8530 C   0  0  0  0  0  0  0  0  0  0  0  0
   13.2556  -20.2142   28.1906 C   0  0  0  0  0  0  0  0  0  0  0  0
   12.6781  -19.9738   26.8538 C   0  0  0  0  0  0  0  0  0  0  0  0
   13.2370  -18.7245   26.1459 C   0  0  2  0  0  0  0  0  0  0  0  0
   12.5743  -18.7706   24.8258 N   0  0  0  0  0  0  0  0  0  0  0  0
   14.6891  -18.9241   25.9971 C   0  0  0  0  0  0  0  0  0  0  0  0
   15.3417  -19.3791   24.8810 O   0  0  0  0  0  0  0  0  0  0  0  0
   15.4165  -18.6454   27.0159 O   0  0  0  0  0  0  0  0  0  0  0  0
  2  3  1  0
  2  1  1  1
  4  3  1  0
  5  4  2  0
  6  5  1  0
  7  6  1  0
  7 12  2  0
  8  9  2  0
  8  7  1  0
  9 10  1  0
 10 11  2  0
 12 11  1  0
 12  4  1  0
 13 14  2  0
 13  2  1  0
 15 13  1  0
 16 15  1  0
 16 17  1  6
 18 22  1  0
 18 17  1  0
 19 18  2  0
 20 19  1  0
 20 21  1  0
 21 22  2  0
 23 24  2  0
 23 16  1  0
 25 26  1  0
 26 27  2  0
 28 29  1  0
 28 26  1  0
 30 29  1  0
 31 30  1  0
 32 31  1  1
 32 33  1  0
 33 23  1  0
 34 32  1  0
 35 34  1  0
 36 34  2  0
M  END
$$$$
