WHR.pdb
     RDKit          3D

 36 38  0  0  1  0  0  0  0  0999 V2000
    5.9702  -16.9627   23.2301 N   0  0  0  0  0  0  0  0  0  0  0  0
    7.0533  -16.0173   23.3166 C   0  0  1  0  0  0  0  0  0  0  0  0
    7.5714  -15.9526   24.7205 C   0  0  0  0  0  0  0  0  0  0  0  0
    6.8737  -14.9826   25.5893 C   0  0  0  0  0  0  0  0  0  0  0  0
    5.9268  -15.3090   26.5654 C   0  0  0  0  0  0  0  0  0  0  0  0
    5.5412  -14.1877   27.1599 N   0  0  0  0  0  0  0  0  0  0  0  0
    6.1723  -13.1189   26.6419 C   0  0  0  0  0  0  0  0  0  0  0  0
    6.1336  -11.7581   26.8880 C   0  0  0  0  0  0  0  0  0  0  0  0
    6.9003  -10.8688   26.1843 C   0  0  0  0  0  0  0  0  0  0  0  0
    7.7375  -11.3458   25.1986 C   0  0  0  0  0  0  0  0  0  0  0  0
    7.7881  -12.7173   24.9385 C   0  0  0  0  0  0  0  0  0  0  0  0
    7.0178  -13.6080   25.6474 C   0  0  0  0  0  0  0  0  0  0  0  0
    8.1823  -16.4697   22.4253 C   0  0  0  0  0  0  0  0  0  0  0  0
    8.4927  -17.6881   22.3815 O   0  0  0  0  0  0  0  0  0  0  0  0
    8.9144  -15.5723   21.6286 N   0  0  0  0  0  0  0  0  0  0  0  0
   10.0024  -15.9436   20.7614 C   0  0  1  0  0  0  0  0  0  0  0  0
   10.3364  -14.8527   19.7853 C   0  0  0  0  0  0  0  0  0  0  0  0
    9.2510  -14.5951   18.8222 C   0  0  0  0  0  0  0  0  0  0  0  0
    8.7168  -15.5048   17.9403 C   0  0  0  0  0  0  0  0  0  0  0  0
    7.7515  -14.8749   17.2421 N   0  0  0  0  0  0  0  0  0  0  0  0
    7.6616  -13.6009   17.6556 C   0  0  0  0  0  0  0  0  0  0  0  0
    8.5909  -13.4539   18.6244 N   0  0  0  0  0  0  0  0  0  0  0  0
   11.2629  -16.1850   21.5590 C   0  0  0  0  0  0  0  0  0  0  0  0
   12.1003  -15.2614   21.7196 O   0  0  0  0  0  0  0  0  0  0  0  0
    9.0407  -20.6332   27.2923 N   0  0  0  0  0  0  0  0  0  0  0  0
    8.4745  -20.3894   26.0242 C   0  0  0  0  0  0  0  0  0  0  0  0
    7.2443  -20.0032   25.9518 N   0  0  0  0  0  0  0  0  0  0  0  0
    9.1924  -20.5459   24.8082 N   0  0  0  0  0  0  0  0  0  0  0  0
   10.5978  -20.3501   24.6574 C   0  0  0  0  0  0  0  0  0  0  0  0
   10.9363  -19.0335   24.0199 C   0  0  0  0  0  0  0  0  0  0  0  0
   12.3875  -18.8999   23.7861 C   0  0  0  0  0  0  0  0  0  0  0  0
   12.7713  -17.6944   22.9064 C   0  0  2  0  0  0  0  0  0  0  0  0
   11.5339  -17.4396   22.1397 N   0  0  0  0  0  0  0  0  0  0  0  0
   13.8488  -18.1409   22.0061 C   0  0  0  0  0  0  0  0  0  0  0  0
   13.7542  -18.3388   20.6531 O   0  0  0  0  0  0  0  0  0  0  0  0
   14.9909  -18.3689   22.5429 O   0  0  0  0  0  0  0  0  0  0  0  0
  2  3  1  0
  2  1  1  1
  4  3  1  0
  5  4  2  0
  6  5  1  0
  7  6  1  0
  7 12  2  0
  8  9  2  0
  8  7  1  0
  9 10  1  0
 10 11  2  0
 12 11  1  0
 12  4  1  0
 13 14  2  0
 13  2  1  0
 15 13  1  0
 16 15  1  0
 16 17  1  6
 18 22  1  0
 18 17  1  0
 19 18  2  0
 20 19  1  0
 20 21  1  0
 21 22  2  0
 23 24  2  0
 23 16  1  0
 25 26  1  0
 26 27  2  0
 28 29  1  0
 28 26  1  0
 30 29  1  0
 31 30  1  0
 32 31  1  1
 32 33  1  0
 33 23  1  0
 34 32  1  0
 35 34  1  0
 36 34  2  0
M  END
$$$$
