WHR.pdb
     RDKit          3D

 36 38  0  0  1  0  0  0  0  0999 V2000
    6.0920  -17.9538   25.4917 N   0  0  0  0  0  0  0  0  0  0  0  0
    6.9323  -17.2757   24.5387 C   0  0  1  0  0  0  0  0  0  0  0  0
    7.8884  -16.3667   25.2480 C   0  0  0  0  0  0  0  0  0  0  0  0
    7.2481  -15.2808   26.0181 C   0  0  0  0  0  0  0  0  0  0  0  0
    6.4933  -15.4540   27.1826 C   0  0  0  0  0  0  0  0  0  0  0  0
    6.1051  -14.2585   27.6064 N   0  0  0  0  0  0  0  0  0  0  0  0
    6.5532  -13.2840   26.7948 C   0  0  0  0  0  0  0  0  0  0  0  0
    6.4322  -11.9060   26.7777 C   0  0  0  0  0  0  0  0  0  0  0  0
    7.0013  -11.1372   25.7983 C   0  0  0  0  0  0  0  0  0  0  0  0
    7.7176  -11.7574   24.7973 C   0  0  0  0  0  0  0  0  0  0  0  0
    7.8491  -13.1480   24.8009 C   0  0  0  0  0  0  0  0  0  0  0  0
    7.2773  -13.9174   25.7860 C   0  0  0  0  0  0  0  0  0  0  0  0
    7.7400  -18.2932   23.7732 C   0  0  0  0  0  0  0  0  0  0  0  0
    7.5727  -19.5196   23.9981 O   0  0  0  0  0  0  0  0  0  0  0  0
    8.6874  -17.9225   22.8030 N   0  0  0  0  0  0  0  0  0  0  0  0
    8.5962  -18.2425   21.4020 C   0  0  1  0  0  0  0  0  0  0  0  0
    7.3526  -17.6768   20.7793 C   0  0  0  0  0  0  0  0  0  0  0  0
    6.2061  -18.5999   20.8518 C   0  0  0  0  0  0  0  0  0  0  0  0
    6.2159  -19.8639   21.3930 C   0  0  0  0  0  0  0  0  0  0  0  0
    4.9743  -20.3714   21.2622 N   0  0  0  0  0  0  0  0  0  0  0  0
    4.1856  -19.4691   20.6573 C   0  0  0  0  0  0  0  0  0  0  0  0
    4.9636  -18.3920   20.4159 N   0  0  0  0  0  0  0  0  0  0  0  0
    9.7523  -17.6378   20.6396 C   0  0  0  0  0  0  0  0  0  0  0  0
    9.9201  -17.9044   19.4227 O   0  0  0  0  0  0  0  0  0  0  0  0
    7.1906  -12.2110   18.5058 N   0  0  0  0  0  0  0  0  0  0  0  0
    8.2207  -12.9380   17.8745 C   0  0  0  0  0  0  0  0  0  0  0  0
    7.9591  -13.5724   16.7805 N   0  0  0  0  0  0  0  0  0  0  0  0
    9.5460  -13.0099   18.3813 N   0  0  0  0  0  0  0  0  0  0  0  0
   10.1678  -14.1937   18.8795 C   0  0  0  0  0  0  0  0  0  0  0  0
   10.3574  -14.1682   20.3687 C   0  0  0  0  0  0  0  0  0  0  0  0
   11.6798  -14.6961   20.7574 C   0  0  0  0  0  0  0  0  0  0  0  0
   11.8344  -16.2146   20.5460 C   0  0  2  0  0  0  0  0  0  0  0  0
   10.6669  -16.7670   21.2642 N   0  0  0  0  0  0  0  0  0  0  0  0
   13.0843  -16.6197   21.2125 C   0  0  0  0  0  0  0  0  0  0  0  0
   14.3574  -16.4550   20.7322 O   0  0  0  0  0  0  0  0  0  0  0  0
   12.9696  -17.1853   22.3577 O   0  0  0  0  0  0  0  0  0  0  0  0
  2  3  1  0
  2  1  1  1
  4  3  1  0
  5  4  2  0
  6  5  1  0
  7  6  1  0
  7 12  2  0
  8  9  2  0
  8  7  1  0
  9 10  1  0
 10 11  2  0
 12 11  1  0
 12  4  1  0
 13 14  2  0
 13  2  1  0
 15 13  1  0
 16 15  1  0
 16 17  1  6
 18 22  1  0
 18 17  1  0
 19 18  2  0
 20 19  1  0
 20 21  1  0
 21 22  2  0
 23 24  2  0
 23 16  1  0
 25 26  1  0
 26 27  2  0
 28 29  1  0
 28 26  1  0
 30 29  1  0
 31 30  1  0
 32 31  1  1
 32 33  1  0
 33 23  1  0
 34 32  1  0
 35 34  1  0
 36 34  2  0
M  END
$$$$
