WHR.pdb
     RDKit          3D

 36 38  0  0  1  0  0  0  0  0999 V2000
    7.0037  -17.2091   25.9002 N   0  0  0  0  0  0  0  0  0  0  0  0
    7.2283  -15.9516   25.2350 C   0  0  1  0  0  0  0  0  0  0  0  0
    8.4435  -15.2799   25.7970 C   0  0  0  0  0  0  0  0  0  0  0  0
    8.1592  -14.2352   26.8020 C   0  0  0  0  0  0  0  0  0  0  0  0
    8.6126  -14.2435   28.1250 C   0  0  0  0  0  0  0  0  0  0  0  0
    8.1851  -13.1358   28.7164 N   0  0  0  0  0  0  0  0  0  0  0  0
    7.4666  -12.3768   27.8698 C   0  0  0  0  0  0  0  0  0  0  0  0
    6.8078  -11.1651   27.9768 C   0  0  0  0  0  0  0  0  0  0  0  0
    6.1277  -10.6108   26.9260 C   0  0  0  0  0  0  0  0  0  0  0  0
    6.0989  -11.2829   25.7229 C   0  0  0  0  0  0  0  0  0  0  0  0
    6.7596  -12.5074   25.5990 C   0  0  0  0  0  0  0  0  0  0  0  0
    7.4425  -13.0611   26.6556 C   0  0  0  0  0  0  0  0  0  0  0  0
    7.4718  -16.2001   23.7678 C   0  0  0  0  0  0  0  0  0  0  0  0
    7.7427  -17.3618   23.3683 O   0  0  0  0  0  0  0  0  0  0  0  0
    7.4078  -15.1710   22.8123 N   0  0  0  0  0  0  0  0  0  0  0  0
    7.8045  -15.3040   21.4344 C   0  0  1  0  0  0  0  0  0  0  0  0
    7.5212  -14.0566   20.6482 C   0  0  0  0  0  0  0  0  0  0  0  0
    7.8550  -14.1931   19.2194 C   0  0  0  0  0  0  0  0  0  0  0  0
    8.4389  -13.2322   18.4278 C   0  0  0  0  0  0  0  0  0  0  0  0
    8.5739  -13.7514   17.1915 N   0  0  0  0  0  0  0  0  0  0  0  0
    8.0945  -15.0053   17.1801 C   0  0  0  0  0  0  0  0  0  0  0  0
    7.6598  -15.2528   18.4345 N   0  0  0  0  0  0  0  0  0  0  0  0
    9.2945  -15.5311   21.3270 C   0  0  0  0  0  0  0  0  0  0  0  0
   10.0891  -14.8966   22.0660 O   0  0  0  0  0  0  0  0  0  0  0  0
   11.6338  -22.4352   19.4401 N   0  0  0  0  0  0  0  0  0  0  0  0
   10.7138  -22.1576   20.4719 C   0  0  0  0  0  0  0  0  0  0  0  0
   10.6965  -22.9173   21.5161 N   0  0  0  0  0  0  0  0  0  0  0  0
    9.7957  -21.0744   20.4254 N   0  0  0  0  0  0  0  0  0  0  0  0
    9.9812  -19.8770   19.6717 C   0  0  0  0  0  0  0  0  0  0  0  0
   11.2765  -19.1864   19.9870 C   0  0  0  0  0  0  0  0  0  0  0  0
   11.3696  -17.8739   19.3184 C   0  0  0  0  0  0  0  0  0  0  0  0
   11.2870  -16.6737   20.2812 C   0  0  2  0  0  0  0  0  0  0  0  0
    9.8314  -16.4508   20.4047 N   0  0  0  0  0  0  0  0  0  0  0  0
   11.9245  -15.5307   19.6044 C   0  0  0  0  0  0  0  0  0  0  0  0
   13.2552  -15.2033   19.6308 O   0  0  0  0  0  0  0  0  0  0  0  0
   11.1561  -14.7633   18.9223 O   0  0  0  0  0  0  0  0  0  0  0  0
  2  3  1  0
  2  1  1  1
  4  3  1  0
  5  4  2  0
  6  5  1  0
  7  6  1  0
  7 12  2  0
  8  9  2  0
  8  7  1  0
  9 10  1  0
 10 11  2  0
 12 11  1  0
 12  4  1  0
 13 14  2  0
 13  2  1  0
 15 13  1  0
 16 15  1  0
 16 17  1  6
 18 22  1  0
 18 17  1  0
 19 18  2  0
 20 19  1  0
 20 21  1  0
 21 22  2  0
 23 24  2  0
 23 16  1  0
 25 26  1  0
 26 27  2  0
 28 29  1  0
 28 26  1  0
 30 29  1  0
 31 30  1  0
 32 31  1  6
 32 33  1  0
 33 23  1  0
 34 32  1  0
 35 34  1  0
 36 34  2  0
M  END
$$$$
