WHR.pdb
     RDKit          3D

 36 38  0  0  1  0  0  0  0  0999 V2000
    8.1907  -17.2872   22.2312 N   0  0  0  0  0  0  0  0  0  0  0  0
    8.3450  -16.0747   22.9929 C   0  0  1  0  0  0  0  0  0  0  0  0
    7.0092  -15.4391   23.2281 C   0  0  0  0  0  0  0  0  0  0  0  0
    7.0496  -13.9743   23.4154 C   0  0  0  0  0  0  0  0  0  0  0  0
    7.3917  -13.0438   22.4290 C   0  0  0  0  0  0  0  0  0  0  0  0
    7.2902  -11.8291   22.9522 N   0  0  0  0  0  0  0  0  0  0  0  0
    6.8992  -11.8829   24.2380 C   0  0  0  0  0  0  0  0  0  0  0  0
    6.6544  -10.9357   25.2162 C   0  0  0  0  0  0  0  0  0  0  0  0
    6.2634  -11.2805   26.4820 C   0  0  0  0  0  0  0  0  0  0  0  0
    6.1091  -12.6149   26.7908 C   0  0  0  0  0  0  0  0  0  0  0  0
    6.3522  -13.5833   25.8138 C   0  0  0  0  0  0  0  0  0  0  0  0
    6.7439  -13.2341   24.5434 C   0  0  0  0  0  0  0  0  0  0  0  0
    8.9461  -16.4028   24.3363 C   0  0  0  0  0  0  0  0  0  0  0  0
    9.3708  -15.4756   25.0729 O   0  0  0  0  0  0  0  0  0  0  0  0
    9.0536  -17.7228   24.8074 N   0  0  0  0  0  0  0  0  0  0  0  0
    9.7944  -18.1195   25.9768 C   0  0  1  0  0  0  0  0  0  0  0  0
    9.1521  -19.2817   26.6777 C   0  0  0  0  0  0  0  0  0  0  0  0
    9.8342  -19.6396   27.9341 C   0  0  0  0  0  0  0  0  0  0  0  0
   11.0261  -19.1233   28.3851 C   0  0  0  0  0  0  0  0  0  0  0  0
   11.3012  -19.7091   29.5671 N   0  0  0  0  0  0  0  0  0  0  0  0
   10.3227  -20.5756   29.8734 C   0  0  0  0  0  0  0  0  0  0  0  0
    9.4354  -20.5149   28.8571 N   0  0  0  0  0  0  0  0  0  0  0  0
   11.1829  -18.5806   25.5987 C   0  0  0  0  0  0  0  0  0  0  0  0
   11.9459  -19.0771   26.4654 O   0  0  0  0  0  0  0  0  0  0  0  0
   13.1788  -13.8526   19.7012 N   0  0  0  0  0  0  0  0  0  0  0  0
   13.6388  -15.1254   19.3057 C   0  0  0  0  0  0  0  0  0  0  0  0
   14.4018  -15.2206   18.2681 N   0  0  0  0  0  0  0  0  0  0  0  0
   13.3062  -16.3222   19.9954 N   0  0  0  0  0  0  0  0  0  0  0  0
   12.5256  -16.3886   21.1881 C   0  0  0  0  0  0  0  0  0  0  0  0
   12.4135  -17.7832   21.7327 C   0  0  0  0  0  0  0  0  0  0  0  0
   13.4273  -18.0436   22.7734 C   0  0  0  0  0  0  0  0  0  0  0  0
   12.9639  -19.0254   23.8668 C   0  0  2  0  0  0  0  0  0  0  0  0
   11.6582  -18.4681   24.2772 N   0  0  0  0  0  0  0  0  0  0  0  0
   13.9321  -18.9298   24.9733 C   0  0  0  0  0  0  0  0  0  0  0  0
   13.7365  -18.3088   26.1794 O   0  0  0  0  0  0  0  0  0  0  0  0
   15.0745  -19.4826   24.7888 O   0  0  0  0  0  0  0  0  0  0  0  0
  2  3  1  0
  2  1  1  6
  4  3  1  0
  5  4  2  0
  6  5  1  0
  7  6  1  0
  7 12  2  0
  8  9  2  0
  8  7  1  0
  9 10  1  0
 10 11  2  0
 12 11  1  0
 12  4  1  0
 13 14  2  0
 13  2  1  0
 15 13  1  0
 16 15  1  0
 16 17  1  6
 18 22  1  0
 18 17  1  0
 19 18  2  0
 20 19  1  0
 20 21  1  0
 21 22  2  0
 23 24  2  0
 23 16  1  0
 25 26  1  0
 26 27  2  0
 28 29  1  0
 28 26  1  0
 30 29  1  0
 31 30  1  0
 32 31  1  6
 32 33  1  0
 33 23  1  0
 34 32  1  0
 35 34  1  0
 36 34  2  0
M  END
$$$$
