WHR.pdb
     RDKit          3D

 36 38  0  0  1  0  0  0  0  0999 V2000
    7.5016  -19.1473   20.2068 N   0  0  0  0  0  0  0  0  0  0  0  0
    8.3559  -18.9616   19.0623 C   0  0  1  0  0  0  0  0  0  0  0  0
    8.3342  -17.5279   18.6289 C   0  0  0  0  0  0  0  0  0  0  0  0
    8.2578  -16.5521   19.7354 C   0  0  0  0  0  0  0  0  0  0  0  0
    8.0151  -16.8693   21.0757 C   0  0  0  0  0  0  0  0  0  0  0  0
    8.0459  -15.7454   21.7796 N   0  0  0  0  0  0  0  0  0  0  0  0
    8.2949  -14.6835   20.9926 C   0  0  0  0  0  0  0  0  0  0  0  0
    8.4214  -13.3236   21.2125 C   0  0  0  0  0  0  0  0  0  0  0  0
    8.6760  -12.4423   20.1964 C   0  0  0  0  0  0  0  0  0  0  0  0
    8.8101  -12.9267   18.9130 C   0  0  0  0  0  0  0  0  0  0  0  0
    8.6854  -14.2974   18.6748 C   0  0  0  0  0  0  0  0  0  0  0  0
    8.4307  -15.1801   19.6971 C   0  0  0  0  0  0  0  0  0  0  0  0
    9.7740  -19.3122   19.4364 C   0  0  0  0  0  0  0  0  0  0  0  0
   10.1436  -19.2209   20.6353 O   0  0  0  0  0  0  0  0  0  0  0  0
   10.7153  -19.7439   18.4858 N   0  0  0  0  0  0  0  0  0  0  0  0
   12.1051  -19.9986   18.7635 C   0  0  1  0  0  0  0  0  0  0  0  0
   12.8753  -20.3175   17.5147 C   0  0  0  0  0  0  0  0  0  0  0  0
   14.2075  -20.8826   17.7932 C   0  0  0  0  0  0  0  0  0  0  0  0
   14.7445  -21.1180   19.0370 C   0  0  0  0  0  0  0  0  0  0  0  0
   15.9749  -21.6374   18.8566 N   0  0  0  0  0  0  0  0  0  0  0  0
   16.2286  -21.7358   17.5420 C   0  0  0  0  0  0  0  0  0  0  0  0
   15.1303  -21.2670   16.9113 N   0  0  0  0  0  0  0  0  0  0  0  0
   12.7647  -18.7745   19.3549 C   0  0  0  0  0  0  0  0  0  0  0  0
   12.6544  -17.6572   18.7897 O   0  0  0  0  0  0  0  0  0  0  0  0
    9.5708  -13.1703   19.3292 N   0  0  0  0  0  0  0  0  0  0  0  0
   10.9455  -13.1874   19.6422 C   0  0  0  0  0  0  0  0  0  0  0  0
   11.8020  -12.9171   18.7143 N   0  0  0  0  0  0  0  0  0  0  0  0
   11.4451  -13.4877   20.9379 N   0  0  0  0  0  0  0  0  0  0  0  0
   11.5607  -14.8002   21.4857 C   0  0  0  0  0  0  0  0  0  0  0  0
   12.7564  -15.5442   20.9651 C   0  0  0  0  0  0  0  0  0  0  0  0
   12.9248  -16.8447   21.6426 C   0  0  0  0  0  0  0  0  0  0  0  0
   14.1399  -17.6542   21.1502 C   0  0  2  0  0  0  0  0  0  0  0  0
   13.5155  -18.8490   20.5447 N   0  0  0  0  0  0  0  0  0  0  0  0
   14.9200  -18.0323   22.3416 C   0  0  0  0  0  0  0  0  0  0  0  0
   14.9494  -19.2639   22.9425 O   0  0  0  0  0  0  0  0  0  0  0  0
   15.6441  -17.1158   22.8710 O   0  0  0  0  0  0  0  0  0  0  0  0
  2  3  1  0
  2  1  1  1
  4  3  1  0
  5  4  2  0
  6  5  1  0
  7  6  1  0
  7 12  2  0
  8  9  2  0
  8  7  1  0
  9 10  1  0
 10 11  2  0
 12 11  1  0
 12  4  1  0
 13 14  2  0
 13  2  1  0
 15 13  1  0
 16 15  1  0
 16 17  1  6
 18 22  1  0
 18 17  1  0
 19 18  2  0
 20 19  1  0
 20 21  1  0
 21 22  2  0
 23 24  2  0
 23 16  1  0
 25 26  1  0
 26 27  2  0
 28 29  1  0
 28 26  1  0
 30 29  1  0
 31 30  1  0
 32 31  1  1
 32 33  1  0
 33 23  1  0
 34 32  1  0
 35 34  1  0
 36 34  2  0
M  END
$$$$
