WHR.pdb
     RDKit          3D

 36 38  0  0  1  0  0  0  0  0999 V2000
    6.1767  -17.8117   23.2603 N   0  0  0  0  0  0  0  0  0  0  0  0
    6.9465  -16.5957   23.3155 C   0  0  1  0  0  0  0  0  0  0  0  0
    7.5221  -16.4105   24.6859 C   0  0  0  0  0  0  0  0  0  0  0  0
    6.8573  -15.3698   25.4966 C   0  0  0  0  0  0  0  0  0  0  0  0
    5.7808  -15.5867   26.3627 C   0  0  0  0  0  0  0  0  0  0  0  0
    5.4710  -14.4313   26.9359 N   0  0  0  0  0  0  0  0  0  0  0  0
    6.2758  -13.4427   26.5072 C   0  0  0  0  0  0  0  0  0  0  0  0
    6.3736  -12.0889   26.7746 C   0  0  0  0  0  0  0  0  0  0  0  0
    7.3104  -11.2934   26.1717 C   0  0  0  0  0  0  0  0  0  0  0  0
    8.1839  -11.8608   25.2689 C   0  0  0  0  0  0  0  0  0  0  0  0
    8.0981  -13.2265   24.9886 C   0  0  0  0  0  0  0  0  0  0  0  0
    7.1570  -14.0230   25.5962 C   0  0  0  0  0  0  0  0  0  0  0  0
    8.0920  -16.6860   22.3390 C   0  0  0  0  0  0  0  0  0  0  0  0
    8.5545  -17.8122   22.0224 O   0  0  0  0  0  0  0  0  0  0  0  0
    8.6741  -15.5457   21.7584 N   0  0  0  0  0  0  0  0  0  0  0  0
    9.7712  -15.5682   20.8261 C   0  0  1  0  0  0  0  0  0  0  0  0
    9.8419  -14.3064   20.0155 C   0  0  0  0  0  0  0  0  0  0  0  0
    8.8843  -14.2919   18.8954 C   0  0  0  0  0  0  0  0  0  0  0  0
    8.0622  -15.3275   18.5182 C   0  0  0  0  0  0  0  0  0  0  0  0
    7.3461  -14.9112   17.4552 N   0  0  0  0  0  0  0  0  0  0  0  0
    7.6908  -13.6495   17.1523 C   0  0  0  0  0  0  0  0  0  0  0  0
    8.6351  -13.2924   18.0492 N   0  0  0  0  0  0  0  0  0  0  0  0
   11.0907  -15.6653   21.5561 C   0  0  0  0  0  0  0  0  0  0  0  0
   11.9349  -14.7381   21.4694 O   0  0  0  0  0  0  0  0  0  0  0  0
    7.9789  -18.1944   27.2913 N   0  0  0  0  0  0  0  0  0  0  0  0
    9.2702  -18.6704   27.5981 C   0  0  0  0  0  0  0  0  0  0  0  0
    9.4056  -19.5595   28.5249 N   0  0  0  0  0  0  0  0  0  0  0  0
   10.4433  -18.2213   26.9344 N   0  0  0  0  0  0  0  0  0  0  0  0
   10.4826  -17.1837   25.9556 C   0  0  0  0  0  0  0  0  0  0  0  0
   10.9458  -17.6689   24.6124 C   0  0  0  0  0  0  0  0  0  0  0  0
   12.3835  -17.4067   24.4058 C   0  0  0  0  0  0  0  0  0  0  0  0
   12.7367  -16.9440   22.9791 C   0  0  2  0  0  0  0  0  0  0  0  0
   11.4104  -16.7868   22.3467 N   0  0  0  0  0  0  0  0  0  0  0  0
   13.4820  -18.0423   22.3396 C   0  0  0  0  0  0  0  0  0  0  0  0
   12.9993  -18.9239   21.4077 O   0  0  0  0  0  0  0  0  0  0  0  0
   14.7064  -18.1894   22.6915 O   0  0  0  0  0  0  0  0  0  0  0  0
  2  3  1  0
  2  1  1  1
  4  3  1  0
  5  4  2  0
  6  5  1  0
  7  6  1  0
  7 12  2  0
  8  9  2  0
  8  7  1  0
  9 10  1  0
 10 11  2  0
 12 11  1  0
 12  4  1  0
 13 14  2  0
 13  2  1  0
 15 13  1  0
 16 15  1  0
 16 17  1  1
 18 22  1  0
 18 17  1  0
 19 18  2  0
 20 19  1  0
 20 21  1  0
 21 22  2  0
 23 24  2  0
 23 16  1  0
 25 26  1  0
 26 27  2  0
 28 29  1  0
 28 26  1  0
 30 29  1  0
 31 30  1  0
 32 31  1  1
 32 33  1  0
 33 23  1  0
 34 32  1  0
 35 34  1  0
 36 34  2  0
M  END
$$$$
