WHR.pdb
     RDKit          3D

 36 38  0  0  1  0  0  0  0  0999 V2000
   10.2080  -17.0664   20.1749 N   0  0  0  0  0  0  0  0  0  0  0  0
   10.5252  -16.4268   21.4258 C   0  0  1  0  0  0  0  0  0  0  0  0
    9.2720  -16.1586   22.2011 C   0  0  0  0  0  0  0  0  0  0  0  0
    8.2407  -15.4031   21.4609 C   0  0  0  0  0  0  0  0  0  0  0  0
    6.8630  -15.6318   21.5364 C   0  0  0  0  0  0  0  0  0  0  0  0
    6.2529  -14.7466   20.7594 N   0  0  0  0  0  0  0  0  0  0  0  0
    7.1387  -13.9308   20.1604 C   0  0  0  0  0  0  0  0  0  0  0  0
    7.0360  -12.8732   19.2745 C   0  0  0  0  0  0  0  0  0  0  0  0
    8.1359  -12.2063   18.8061 C   0  0  0  0  0  0  0  0  0  0  0  0
    9.3857  -12.6024   19.2314 C   0  0  0  0  0  0  0  0  0  0  0  0
    9.5059  -13.6685   20.1261 C   0  0  0  0  0  0  0  0  0  0  0  0
    8.3996  -14.3357   20.5954 C   0  0  0  0  0  0  0  0  0  0  0  0
   11.3932  -17.3447   22.2491 C   0  0  0  0  0  0  0  0  0  0  0  0
   11.6342  -17.0632   23.4513 O   0  0  0  0  0  0  0  0  0  0  0  0
   11.9534  -18.5207   21.7207 N   0  0  0  0  0  0  0  0  0  0  0  0
   12.8510  -19.3939   22.4315 C   0  0  1  0  0  0  0  0  0  0  0  0
   12.6256  -20.8355   22.0775 C   0  0  0  0  0  0  0  0  0  0  0  0
   11.2212  -21.2514   22.2401 C   0  0  0  0  0  0  0  0  0  0  0  0
   10.2973  -21.3981   21.2324 C   0  0  0  0  0  0  0  0  0  0  0  0
    9.1386  -21.7907   21.7977 N   0  0  0  0  0  0  0  0  0  0  0  0
    9.3038  -21.8952   23.1259 C   0  0  0  0  0  0  0  0  0  0  0  0
   10.5884  -21.5595   23.3722 N   0  0  0  0  0  0  0  0  0  0  0  0
   14.2867  -19.0976   22.0647 C   0  0  0  0  0  0  0  0  0  0  0  0
   14.9285  -19.8836   21.3229 O   0  0  0  0  0  0  0  0  0  0  0  0
   13.8781  -14.1108   16.6825 N   0  0  0  0  0  0  0  0  0  0  0  0
   14.1203  -14.3740   18.0464 C   0  0  0  0  0  0  0  0  0  0  0  0
   13.1601  -14.8386   18.7743 N   0  0  0  0  0  0  0  0  0  0  0  0
   15.3779  -14.1548   18.6699 N   0  0  0  0  0  0  0  0  0  0  0  0
   15.6660  -14.4140   20.0433 C   0  0  0  0  0  0  0  0  0  0  0  0
   15.9131  -15.8686   20.3210 C   0  0  0  0  0  0  0  0  0  0  0  0
   16.1982  -16.1086   21.7492 C   0  0  0  0  0  0  0  0  0  0  0  0
   16.3165  -17.5990   22.1220 C   0  0  2  0  0  0  0  0  0  0  0  0
   14.9413  -17.9438   22.5390 N   0  0  0  0  0  0  0  0  0  0  0  0
   17.2367  -17.6867   23.2693 C   0  0  0  0  0  0  0  0  0  0  0  0
   16.9017  -17.9817   24.5653 O   0  0  0  0  0  0  0  0  0  0  0  0
   18.4769  -17.4631   23.0318 O   0  0  0  0  0  0  0  0  0  0  0  0
  2  3  1  0
  2  1  1  6
  4  3  1  0
  5  4  2  0
  6  5  1  0
  7  6  1  0
  7 12  2  0
  8  9  2  0
  8  7  1  0
  9 10  1  0
 10 11  2  0
 12 11  1  0
 12  4  1  0
 13 14  2  0
 13  2  1  0
 15 13  1  0
 16 15  1  0
 16 17  1  6
 18 22  1  0
 18 17  1  0
 19 18  2  0
 20 19  1  0
 20 21  1  0
 21 22  2  0
 23 24  2  0
 23 16  1  0
 25 26  1  0
 26 27  2  0
 28 29  1  0
 28 26  1  0
 30 29  1  0
 31 30  1  0
 32 31  1  1
 32 33  1  0
 33 23  1  0
 34 32  1  0
 35 34  1  0
 36 34  2  0
M  END
$$$$
