WHR.pdb
     RDKit          3D

 36 38  0  0  1  0  0  0  0  0999 V2000
   10.7022  -16.4542   21.4702 N   0  0  0  0  0  0  0  0  0  0  0  0
    9.8937  -15.9385   22.5447 C   0  0  1  0  0  0  0  0  0  0  0  0
    8.4411  -16.1423   22.2417 C   0  0  0  0  0  0  0  0  0  0  0  0
    7.6321  -14.9062   22.2488 C   0  0  0  0  0  0  0  0  0  0  0  0
    6.9596  -14.3757   21.1433 C   0  0  0  0  0  0  0  0  0  0  0  0
    6.3205  -13.2808   21.5334 N   0  0  0  0  0  0  0  0  0  0  0  0
    6.5219  -13.0380   22.8409 C   0  0  0  0  0  0  0  0  0  0  0  0
    6.1037  -12.0541   23.7188 C   0  0  0  0  0  0  0  0  0  0  0  0
    6.4774  -12.0465   25.0358 C   0  0  0  0  0  0  0  0  0  0  0  0
    7.2972  -13.0523   25.5009 C   0  0  0  0  0  0  0  0  0  0  0  0
    7.7277  -14.0532   24.6267 C   0  0  0  0  0  0  0  0  0  0  0  0
    7.3501  -14.0587   23.3051 C   0  0  0  0  0  0  0  0  0  0  0  0
   10.2132  -16.6883   23.8133 C   0  0  0  0  0  0  0  0  0  0  0  0
   10.8352  -17.7801   23.7529 O   0  0  0  0  0  0  0  0  0  0  0  0
    9.8388  -16.2105   25.0813 N   0  0  0  0  0  0  0  0  0  0  0  0
   10.1642  -16.8512   26.3291 C   0  0  1  0  0  0  0  0  0  0  0  0
    9.3559  -16.3000   27.4680 C   0  0  0  0  0  0  0  0  0  0  0  0
    9.6727  -14.8917   27.7651 C   0  0  0  0  0  0  0  0  0  0  0  0
   10.7128  -14.1654   27.2345 C   0  0  0  0  0  0  0  0  0  0  0  0
   10.6523  -12.9259   27.7601 N   0  0  0  0  0  0  0  0  0  0  0  0
    9.6099  -12.8496   28.6026 C   0  0  0  0  0  0  0  0  0  0  0  0
    9.0254  -14.0669   28.5884 N   0  0  0  0  0  0  0  0  0  0  0  0
    9.8444  -18.3270   26.2712 C   0  0  0  0  0  0  0  0  0  0  0  0
    8.7470  -18.7217   25.8023 O   0  0  0  0  0  0  0  0  0  0  0  0
   12.7821  -20.7309   21.4487 N   0  0  0  0  0  0  0  0  0  0  0  0
   13.8166  -20.4871   22.3754 C   0  0  0  0  0  0  0  0  0  0  0  0
   14.7695  -19.6781   22.0511 N   0  0  0  0  0  0  0  0  0  0  0  0
   13.8673  -21.0888   23.6614 N   0  0  0  0  0  0  0  0  0  0  0  0
   12.8323  -21.8890   24.2311 C   0  0  0  0  0  0  0  0  0  0  0  0
   11.7459  -21.0693   24.8652 C   0  0  0  0  0  0  0  0  0  0  0  0
   11.4949  -21.4844   26.2592 C   0  0  0  0  0  0  0  0  0  0  0  0
   10.3624  -20.7016   26.9512 C   0  0  2  0  0  0  0  0  0  0  0  0
   10.7573  -19.2937   26.7369 N   0  0  0  0  0  0  0  0  0  0  0  0
   10.4176  -21.0365   28.3849 C   0  0  0  0  0  0  0  0  0  0  0  0
    9.8848  -22.1469   28.9862 O   0  0  0  0  0  0  0  0  0  0  0  0
   11.0246  -20.2036   29.1482 O   0  0  0  0  0  0  0  0  0  0  0  0
  2  3  1  0
  2  1  1  6
  4  3  1  0
  5  4  2  0
  6  5  1  0
  7  6  1  0
  7 12  2  0
  8  9  2  0
  8  7  1  0
  9 10  1  0
 10 11  2  0
 12 11  1  0
 12  4  1  0
 13 14  2  0
 13  2  1  0
 15 13  1  0
 16 15  1  0
 16 17  1  1
 18 22  1  0
 18 17  1  0
 19 18  2  0
 20 19  1  0
 20 21  1  0
 21 22  2  0
 23 24  2  0
 23 16  1  0
 25 26  1  0
 26 27  2  0
 28 29  1  0
 28 26  1  0
 30 29  1  0
 31 30  1  0
 32 31  1  6
 32 33  1  0
 33 23  1  0
 34 32  1  0
 35 34  1  0
 36 34  2  0
M  END
$$$$
