GQE.pdb
     RDKit          3D

 23 22  0  0  1  0  0  0  0  0999 V2000
   14.3538  -12.4194  -10.6881 N   0  0  0  0  0  0  0  0  0  0  0  0
   15.4145  -11.7287  -10.0251 C   0  0  0  0  0  0  0  0  0  0  0  0
   15.4652  -10.2777  -10.4221 C   0  0  0  0  0  0  0  0  0  0  0  0
   14.9976   -9.9260  -11.5294 O   0  0  0  0  0  0  0  0  0  0  0  0
   14.8912   -5.0523   -7.1319 N   0  0  0  0  0  0  0  0  0  0  0  0
   13.8586   -5.7983   -7.7393 C   0  0  0  0  0  0  0  0  0  0  0  0
   12.6761   -5.5643   -7.4329 O   0  0  0  0  0  0  0  0  0  0  0  0
   14.1704   -6.8444   -8.7264 C   0  0  0  0  0  0  0  0  0  0  0  0
   15.6473   -6.9728   -8.8676 C   0  0  0  0  0  0  0  0  0  0  0  0
   16.0764   -7.8875   -9.9813 C   0  0  2  0  0  0  0  0  0  0  0  0
   16.0250   -9.2894   -9.5856 N   0  0  0  0  0  0  0  0  0  0  0  0
   17.4561   -7.5919  -10.4473 C   0  0  0  0  0  0  0  0  0  0  0  0
   18.4639   -7.7678   -9.6820 O   0  0  0  0  0  0  0  0  0  0  0  0
   17.7451   -7.1053  -11.7435 N   0  0  0  0  0  0  0  0  0  0  0  0
   19.1306   -6.8106  -12.1628 C   0  0  1  0  0  0  0  0  0  0  0  0
   19.6575   -7.9323  -13.0175 C   0  0  0  0  0  0  0  0  0  0  0  0
   21.0251   -7.7343  -13.5602 C   0  0  0  0  0  0  0  0  0  0  0  0
   21.5494   -8.8248  -14.3862 C   0  0  0  0  0  0  0  0  0  0  0  0
   22.5010   -8.6746  -15.1909 O   0  0  0  0  0  0  0  0  0  0  0  0
   19.0964   -5.5786  -12.9829 C   0  0  0  0  0  0  0  0  0  0  0  0
   18.0653   -5.2213  -13.5916 O   0  0  0  0  0  0  0  0  0  0  0  0
   21.0133  -10.1144  -14.3259 O   0  0  0  0  0  0  0  0  0  0  0  0
   20.2197   -4.7810  -13.0978 O   0  0  0  0  0  0  0  0  0  0  0  0
  2  1  1  0
  3  4  2  0
  3  2  1  0
  6  7  2  0
  6  5  1  0
  8  6  1  0
 10  9  1  1
  9  8  1  0
 10 11  1  0
 11  3  1  0
 12 10  1  0
 13 12  2  0
 14 12  1  0
 15 14  1  0
 15 16  1  6
 17 16  1  0
 18 19  2  0
 18 17  1  0
 20 23  1  0
 20 15  1  0
 21 20  2  0
 22 18  1  0
M  END
$$$$
