GQE.pdb
     RDKit          3D

 23 22  0  0  1  0  0  0  0  0999 V2000
   27.4804  -21.6852  -15.7550 N   0  0  0  0  0  0  0  0  0  0  0  0
   26.7951  -20.9350  -14.7505 C   0  0  0  0  0  0  0  0  0  0  0  0
   25.3056  -20.9492  -14.9668 C   0  0  0  0  0  0  0  0  0  0  0  0
   24.8413  -21.4452  -16.0188 O   0  0  0  0  0  0  0  0  0  0  0  0
   20.1654  -20.7796  -10.7867 N   0  0  0  0  0  0  0  0  0  0  0  0
   20.1788  -21.6250  -11.9168 C   0  0  0  0  0  0  0  0  0  0  0  0
   19.6719  -22.7579  -11.8367 O   0  0  0  0  0  0  0  0  0  0  0  0
   20.7850  -21.1770  -13.1808 C   0  0  0  0  0  0  0  0  0  0  0  0
   22.2452  -20.9602  -12.9848 C   0  0  0  0  0  0  0  0  0  0  0  0
   22.9612  -20.4790  -14.2163 C   0  0  2  0  0  0  0  0  0  0  0  0
   24.4042  -20.4196  -14.0198 N   0  0  0  0  0  0  0  0  0  0  0  0
   22.4995  -19.1317  -14.6407 C   0  0  0  0  0  0  0  0  0  0  0  0
   22.6885  -18.1058  -13.9032 O   0  0  0  0  0  0  0  0  0  0  0  0
   21.8324  -18.8950  -15.8652 N   0  0  0  0  0  0  0  0  0  0  0  0
   21.4044  -17.5365  -16.2574 C   0  0  1  0  0  0  0  0  0  0  0  0
   21.9228  -17.2126  -17.6331 C   0  0  0  0  0  0  0  0  0  0  0  0
   21.4424  -15.9327  -18.2121 C   0  0  0  0  0  0  0  0  0  0  0  0
   21.8495  -15.6631  -19.5934 C   0  0  0  0  0  0  0  0  0  0  0  0
   21.2217  -16.1021  -20.5880 O   0  0  0  0  0  0  0  0  0  0  0  0
   19.9248  -17.5310  -16.3054 C   0  0  0  0  0  0  0  0  0  0  0  0
   19.2738  -18.5372  -16.6588 O   0  0  0  0  0  0  0  0  0  0  0  0
   22.9763  -14.8906  -19.8892 O   0  0  0  0  0  0  0  0  0  0  0  0
   19.2159  -16.3969  -15.9556 O   0  0  0  0  0  0  0  0  0  0  0  0
  2  1  1  0
  3  4  2  0
  3  2  1  0
  6  7  2  0
  6  5  1  0
  8  6  1  0
 10  9  1  1
  9  8  1  0
 10 11  1  0
 11  3  1  0
 12 10  1  0
 13 12  2  0
 14 12  1  0
 15 14  1  0
 15 16  1  6
 17 16  1  0
 18 19  2  0
 18 17  1  0
 20 23  1  0
 20 15  1  0
 21 20  2  0
 22 18  1  0
M  END
$$$$
