GQE.pdb
     RDKit          3D

 23 22  0  0  1  0  0  0  0  0999 V2000
   28.3483  -17.9025  -16.9852 N   0  0  0  0  0  0  0  0  0  0  0  0
   27.6885  -17.6295  -15.7476 C   0  0  0  0  0  0  0  0  0  0  0  0
   26.6434  -18.6667  -15.4353 C   0  0  0  0  0  0  0  0  0  0  0  0
   26.2332  -19.4209  -16.3472 O   0  0  0  0  0  0  0  0  0  0  0  0
   25.4910  -21.1797   -9.8202 N   0  0  0  0  0  0  0  0  0  0  0  0
   26.6769  -21.2262  -10.5839 C   0  0  0  0  0  0  0  0  0  0  0  0
   27.7205  -21.6587  -10.0635 O   0  0  0  0  0  0  0  0  0  0  0  0
   26.6861  -20.7691  -11.9827 C   0  0  0  0  0  0  0  0  0  0  0  0
   25.3168  -20.3340  -12.3745 C   0  0  0  0  0  0  0  0  0  0  0  0
   25.1979  -19.9171  -13.8143 C   0  0  2  0  0  0  0  0  0  0  0  0
   26.1033  -18.8228  -14.1416 N   0  0  0  0  0  0  0  0  0  0  0  0
   23.8172  -19.4901  -14.1604 C   0  0  0  0  0  0  0  0  0  0  0  0
   23.3794  -18.3368  -13.8280 O   0  0  0  0  0  0  0  0  0  0  0  0
   22.9094  -20.3129  -14.8672 N   0  0  0  0  0  0  0  0  0  0  0  0
   21.5398  -19.8555  -15.1788 C   0  0  1  0  0  0  0  0  0  0  0  0
   21.1858  -20.2236  -16.5949 C   0  0  0  0  0  0  0  0  0  0  0  0
   19.8599  -19.7501  -17.0660 C   0  0  0  0  0  0  0  0  0  0  0  0
   18.6988  -20.4688  -16.5354 C   0  0  0  0  0  0  0  0  0  0  0  0
   18.6339  -21.7216  -16.4898 O   0  0  0  0  0  0  0  0  0  0  0  0
   20.6137  -20.5667  -14.2687 C   0  0  0  0  0  0  0  0  0  0  0  0
   19.5998  -20.0110  -13.7952 O   0  0  0  0  0  0  0  0  0  0  0  0
   17.5794  -19.7924  -16.0418 O   0  0  0  0  0  0  0  0  0  0  0  0
   20.8504  -21.8820  -13.9148 O   0  0  0  0  0  0  0  0  0  0  0  0
  2  1  1  0
  3  4  2  0
  3  2  1  0
  6  7  2  0
  6  5  1  0
  8  6  1  0
 10  9  1  1
  9  8  1  0
 10 11  1  0
 11  3  1  0
 12 10  1  0
 13 12  2  0
 14 12  1  0
 15 14  1  0
 15 16  1  6
 17 16  1  0
 18 19  2  0
 18 17  1  0
 20 23  1  0
 20 15  1  0
 21 20  2  0
 22 18  1  0
M  END
$$$$
