GQE.pdb
     RDKit          3D

 23 22  0  0  1  0  0  0  0  0999 V2000
   25.6010  -21.7470  -10.6002 N   0  0  0  0  0  0  0  0  0  0  0  0
   25.9608  -21.8905  -11.9756 C   0  0  0  0  0  0  0  0  0  0  0  0
   25.7115  -20.6237  -12.7493 C   0  0  0  0  0  0  0  0  0  0  0  0
   25.0859  -19.6842  -12.2067 O   0  0  0  0  0  0  0  0  0  0  0  0
   28.8859  -18.4411  -17.6592 N   0  0  0  0  0  0  0  0  0  0  0  0
   27.8988  -17.4461  -17.4931 C   0  0  0  0  0  0  0  0  0  0  0  0
   27.9566  -16.4097  -18.1784 O   0  0  0  0  0  0  0  0  0  0  0  0
   26.8091  -17.6262  -16.5205 C   0  0  0  0  0  0  0  0  0  0  0  0
   26.9987  -18.9104  -15.7908 C   0  0  0  0  0  0  0  0  0  0  0  0
   25.8909  -19.2335  -14.8268 C   0  0  2  0  0  0  0  0  0  0  0  0
   26.1603  -20.4532  -14.0757 N   0  0  0  0  0  0  0  0  0  0  0  0
   24.5827  -19.3959  -15.5127 C   0  0  0  0  0  0  0  0  0  0  0  0
   24.3068  -20.4584  -16.1664 O   0  0  0  0  0  0  0  0  0  0  0  0
   23.5719  -18.4068  -15.4909 N   0  0  0  0  0  0  0  0  0  0  0  0
   22.2529  -18.6416  -16.1132 C   0  0  1  0  0  0  0  0  0  0  0  0
   21.1872  -18.6961  -15.0514 C   0  0  0  0  0  0  0  0  0  0  0  0
   20.7922  -20.0579  -14.6114 C   0  0  0  0  0  0  0  0  0  0  0  0
   19.7062  -20.1231  -13.6302 C   0  0  0  0  0  0  0  0  0  0  0  0
   19.1828  -19.1013  -13.1226 O   0  0  0  0  0  0  0  0  0  0  0  0
   21.9665  -17.4913  -17.0001 C   0  0  0  0  0  0  0  0  0  0  0  0
   22.6594  -16.4520  -16.9747 O   0  0  0  0  0  0  0  0  0  0  0  0
   19.1818  -21.3439  -13.1957 O   0  0  0  0  0  0  0  0  0  0  0  0
   20.9105  -17.5385  -17.8911 O   0  0  0  0  0  0  0  0  0  0  0  0
  2  1  1  0
  3  4  2  0
  3  2  1  0
  6  7  2  0
  6  5  1  0
  8  6  1  0
 10  9  1  6
  9  8  1  0
 10 11  1  0
 11  3  1  0
 12 10  1  0
 13 12  2  0
 14 12  1  0
 15 14  1  0
 15 16  1  1
 17 16  1  0
 18 19  2  0
 18 17  1  0
 20 23  1  0
 20 15  1  0
 21 20  2  0
 22 18  1  0
M  END
$$$$
