GQE.pdb
     RDKit          3D

 23 22  0  0  1  0  0  0  0  0999 V2000
   28.9617  -21.9145  -19.1117 N   0  0  0  0  0  0  0  0  0  0  0  0
   27.5763  -22.1922  -18.8991 C   0  0  0  0  0  0  0  0  0  0  0  0
   26.9914  -21.3101  -17.8290 C   0  0  0  0  0  0  0  0  0  0  0  0
   27.7517  -20.7702  -16.9929 O   0  0  0  0  0  0  0  0  0  0  0  0
   21.9734  -17.7605  -18.1546 N   0  0  0  0  0  0  0  0  0  0  0  0
   22.2717  -17.6421  -16.7802 C   0  0  0  0  0  0  0  0  0  0  0  0
   21.6242  -16.8413  -16.0828 O   0  0  0  0  0  0  0  0  0  0  0  0
   23.3369  -18.4549  -16.1716 C   0  0  0  0  0  0  0  0  0  0  0  0
   23.9465  -19.3347  -17.2069 C   0  0  0  0  0  0  0  0  0  0  0  0
   25.0469  -20.2174  -16.6863 C   0  0  2  0  0  0  0  0  0  0  0  0
   25.6054  -21.0661  -17.7313 N   0  0  0  0  0  0  0  0  0  0  0  0
   24.5833  -21.0951  -15.5804 C   0  0  0  0  0  0  0  0  0  0  0  0
   23.6781  -21.9763  -15.7714 O   0  0  0  0  0  0  0  0  0  0  0  0
   25.1005  -21.0189  -14.2662 N   0  0  0  0  0  0  0  0  0  0  0  0
   24.6277  -21.9257  -13.2002 C   0  0  1  0  0  0  0  0  0  0  0  0
   25.4854  -21.7662  -11.9733 C   0  0  0  0  0  0  0  0  0  0  0  0
   24.7786  -21.2938  -10.7562 C   0  0  0  0  0  0  0  0  0  0  0  0
   25.6107  -21.1091   -9.5647 C   0  0  0  0  0  0  0  0  0  0  0  0
   25.1347  -20.8393   -8.4349 O   0  0  0  0  0  0  0  0  0  0  0  0
   23.2446  -21.5261  -12.8550 C   0  0  0  0  0  0  0  0  0  0  0  0
   22.8449  -20.3505  -12.9941 O   0  0  0  0  0  0  0  0  0  0  0  0
   27.0029  -21.2239   -9.6165 O   0  0  0  0  0  0  0  0  0  0  0  0
   22.3478  -22.4562  -12.3633 O   0  0  0  0  0  0  0  0  0  0  0  0
  2  1  1  0
  3  4  2  0
  3  2  1  0
  6  7  2  0
  6  5  1  0
  8  6  1  0
 10  9  1  6
  9  8  1  0
 10 11  1  0
 11  3  1  0
 12 10  1  0
 13 12  2  0
 14 12  1  0
 15 14  1  0
 15 16  1  1
 17 16  1  0
 18 19  2  0
 18 17  1  0
 20 23  1  0
 20 15  1  0
 21 20  2  0
 22 18  1  0
M  END
$$$$
