GQE.pdb
     RDKit          3D

 23 22  0  0  1  0  0  0  0  0999 V2000
   15.7025  -12.4555  -16.6773 N   0  0  0  0  0  0  0  0  0  0  0  0
   16.6620  -12.8669  -15.7018 C   0  0  0  0  0  0  0  0  0  0  0  0
   17.8483  -11.9411  -15.6655 C   0  0  0  0  0  0  0  0  0  0  0  0
   18.1583  -11.3802  -14.5895 O   0  0  0  0  0  0  0  0  0  0  0  0
   19.9937  -13.7347  -18.4639 N   0  0  0  0  0  0  0  0  0  0  0  0
   21.1846  -13.6970  -17.7073 C   0  0  0  0  0  0  0  0  0  0  0  0
   21.7793  -14.7594  -17.4533 O   0  0  0  0  0  0  0  0  0  0  0  0
   21.7232  -12.4168  -17.2207 C   0  0  0  0  0  0  0  0  0  0  0  0
   20.8782  -11.2974  -17.7211 C   0  0  0  0  0  0  0  0  0  0  0  0
   19.8255  -10.8452  -16.7473 C   0  0  2  0  0  0  0  0  0  0  0  0
   18.6316  -11.6790  -16.8090 N   0  0  0  0  0  0  0  0  0  0  0  0
   19.4147   -9.4365  -16.9823 C   0  0  0  0  0  0  0  0  0  0  0  0
   18.4516   -9.1521  -17.7721 O   0  0  0  0  0  0  0  0  0  0  0  0
   20.0474   -8.3344  -16.3614 N   0  0  0  0  0  0  0  0  0  0  0  0
   19.5400   -6.9581  -16.5361 C   0  0  1  0  0  0  0  0  0  0  0  0
   18.2207   -6.8040  -15.8276 C   0  0  0  0  0  0  0  0  0  0  0  0
   17.6567   -5.4307  -15.8184 C   0  0  0  0  0  0  0  0  0  0  0  0
   16.4226   -5.2514  -15.0496 C   0  0  0  0  0  0  0  0  0  0  0  0
   16.2277   -5.7951  -13.9350 O   0  0  0  0  0  0  0  0  0  0  0  0
   20.5154   -6.0394  -15.9065 C   0  0  0  0  0  0  0  0  0  0  0  0
   21.4507   -6.4605  -15.1931 O   0  0  0  0  0  0  0  0  0  0  0  0
   15.3750   -4.4534  -15.5185 O   0  0  0  0  0  0  0  0  0  0  0  0
   20.4148   -4.6735  -16.0946 O   0  0  0  0  0  0  0  0  0  0  0  0
  2  1  1  0
  3  4  2  0
  3  2  1  0
  6  7  2  0
  6  5  1  0
  8  6  1  0
 10  9  1  6
  9  8  1  0
 10 11  1  0
 11  3  1  0
 12 10  1  0
 13 12  2  0
 14 12  1  0
 15 14  1  0
 15 16  1  1
 17 16  1  0
 18 19  2  0
 18 17  1  0
 20 23  1  0
 20 15  1  0
 21 20  2  0
 22 18  1  0
M  END
$$$$
