GQE.pdb
     RDKit          3D

 23 22  0  0  1  0  0  0  0  0999 V2000
   10.8330  -18.5776   -1.0015 N   0  0  0  0  0  0  0  0  0  0  0  0
   11.7557  -19.1675   -1.9192 C   0  0  0  0  0  0  0  0  0  0  0  0
   12.4265  -20.3792   -1.3298 C   0  0  0  0  0  0  0  0  0  0  0  0
   12.2015  -20.6880   -0.1372 O   0  0  0  0  0  0  0  0  0  0  0  0
   16.1462  -24.5214   -4.3491 N   0  0  0  0  0  0  0  0  0  0  0  0
   16.0061  -25.1199   -3.0786 C   0  0  0  0  0  0  0  0  0  0  0  0
   16.5196  -26.2331   -2.8692 O   0  0  0  0  0  0  0  0  0  0  0  0
   15.2610  -24.4392   -2.0075 C   0  0  0  0  0  0  0  0  0  0  0  0
   14.6528  -23.1884   -2.5397 C   0  0  0  0  0  0  0  0  0  0  0  0
   13.9538  -22.3590   -1.4983 C   0  0  2  0  0  0  0  0  0  0  0  0
   13.3077  -21.1880   -2.0777 N   0  0  0  0  0  0  0  0  0  0  0  0
   14.8845  -21.8926   -0.4379 C   0  0  0  0  0  0  0  0  0  0  0  0
   15.5256  -20.7941   -0.5578 O   0  0  0  0  0  0  0  0  0  0  0  0
   15.1215  -22.6166    0.7538 N   0  0  0  0  0  0  0  0  0  0  0  0
   15.9845  -22.0751    1.8236 C   0  0  1  0  0  0  0  0  0  0  0  0
   15.3638  -20.8323    2.4035 C   0  0  0  0  0  0  0  0  0  0  0  0
   16.0188  -20.3012    3.6254 C   0  0  0  0  0  0  0  0  0  0  0  0
   15.3622  -19.1529    4.2552 C   0  0  0  0  0  0  0  0  0  0  0  0
   15.1055  -19.1024    5.4830 O   0  0  0  0  0  0  0  0  0  0  0  0
   16.0646  -23.0964    2.8923 C   0  0  0  0  0  0  0  0  0  0  0  0
   16.9830  -23.0921    3.7395 O   0  0  0  0  0  0  0  0  0  0  0  0
   14.9776  -18.0306    3.5158 O   0  0  0  0  0  0  0  0  0  0  0  0
   15.1122  -24.0945    2.9816 O   0  0  0  0  0  0  0  0  0  0  0  0
  2  1  1  0
  3  4  2  0
  3  2  1  0
  6  7  2  0
  6  5  1  0
  8  6  1  0
 10  9  1  6
  9  8  1  0
 10 11  1  0
 11  3  1  0
 12 10  1  0
 13 12  2  0
 14 12  1  0
 15 14  1  0
 15 16  1  1
 17 16  1  0
 18 19  2  0
 18 17  1  0
 20 23  1  0
 20 15  1  0
 21 20  2  0
 22 18  1  0
M  END
$$$$
