GQE.pdb
     RDKit          3D

 23 22  0  0  1  0  0  0  0  0999 V2000
   15.5540  -12.3170  -11.8758 N   0  0  0  0  0  0  0  0  0  0  0  0
   15.7453  -11.5063  -10.7149 C   0  0  0  0  0  0  0  0  0  0  0  0
   16.0500  -10.0781  -11.0796 C   0  0  0  0  0  0  0  0  0  0  0  0
   16.0532   -9.7380  -12.2849 O   0  0  0  0  0  0  0  0  0  0  0  0
   15.4904   -5.1284   -7.3523 N   0  0  0  0  0  0  0  0  0  0  0  0
   14.4406   -5.7475   -8.0640 C   0  0  0  0  0  0  0  0  0  0  0  0
   13.2630   -5.5130   -7.7398 O   0  0  0  0  0  0  0  0  0  0  0  0
   14.7290   -6.6624   -9.1801 C   0  0  0  0  0  0  0  0  0  0  0  0
   16.2017   -6.7577   -9.3794 C   0  0  0  0  0  0  0  0  0  0  0  0
   16.6096   -7.7135  -10.4661 C   0  0  2  0  0  0  0  0  0  0  0  0
   16.3350   -9.0987  -10.1052 N   0  0  0  0  0  0  0  0  0  0  0  0
   18.0545   -7.6023  -10.7950 C   0  0  0  0  0  0  0  0  0  0  0  0
   18.9516   -7.9741   -9.9649 O   0  0  0  0  0  0  0  0  0  0  0  0
   18.5287   -7.0879  -12.0243 N   0  0  0  0  0  0  0  0  0  0  0  0
   19.9744   -7.0048  -12.3164 C   0  0  1  0  0  0  0  0  0  0  0  0
   20.2821   -7.7358  -13.5959 C   0  0  0  0  0  0  0  0  0  0  0  0
   21.7094   -7.7362  -14.0045 C   0  0  0  0  0  0  0  0  0  0  0  0
   22.0058   -8.3696  -15.2919 C   0  0  0  0  0  0  0  0  0  0  0  0
   23.1640   -8.4295  -15.7724 O   0  0  0  0  0  0  0  0  0  0  0  0
   20.3101   -5.5754  -12.5058 C   0  0  0  0  0  0  0  0  0  0  0  0
   21.4836   -5.1568  -12.4127 O   0  0  0  0  0  0  0  0  0  0  0  0
   21.0025   -8.9524  -16.0715 O   0  0  0  0  0  0  0  0  0  0  0  0
   19.3201   -4.6547  -12.7947 O   0  0  0  0  0  0  0  0  0  0  0  0
  2  1  1  0
  3  4  2  0
  3  2  1  0
  6  7  2  0
  6  5  1  0
  8  6  1  0
 10  9  1  1
  9  8  1  0
 10 11  1  0
 11  3  1  0
 12 10  1  0
 13 12  2  0
 14 12  1  0
 15 14  1  0
 15 16  1  6
 17 16  1  0
 18 19  2  0
 18 17  1  0
 20 23  1  0
 20 15  1  0
 21 20  2  0
 22 18  1  0
M  END
$$$$
