GQE.pdb
     RDKit          3D

 23 22  0  0  1  0  0  0  0  0999 V2000
   20.7836  -13.0237  -18.0883 N   0  0  0  0  0  0  0  0  0  0  0  0
   20.9113  -11.6187  -18.3146 C   0  0  0  0  0  0  0  0  0  0  0  0
   21.5583  -10.9250  -17.1459 C   0  0  0  0  0  0  0  0  0  0  0  0
   20.9463  -10.8562  -16.0554 O   0  0  0  0  0  0  0  0  0  0  0  0
   27.6054  -10.1498  -16.1702 N   0  0  0  0  0  0  0  0  0  0  0  0
   26.8352  -11.2887  -15.8515 C   0  0  0  0  0  0  0  0  0  0  0  0
   27.4086  -12.3700  -15.6304 O   0  0  0  0  0  0  0  0  0  0  0  0
   25.3677  -11.2051  -15.7797 C   0  0  0  0  0  0  0  0  0  0  0  0
   24.9328   -9.8099  -16.0663 C   0  0  0  0  0  0  0  0  0  0  0  0
   23.4402   -9.6334  -16.1111 C   0  0  2  0  0  0  0  0  0  0  0  0
   22.8406  -10.3438  -17.2337 N   0  0  0  0  0  0  0  0  0  0  0  0
   23.0492   -8.2032  -16.2109 C   0  0  0  0  0  0  0  0  0  0  0  0
   23.2437   -7.5384  -17.2845 O   0  0  0  0  0  0  0  0  0  0  0  0
   22.4470   -7.4917  -15.1471 N   0  0  0  0  0  0  0  0  0  0  0  0
   22.0869   -6.0655  -15.2827 C   0  0  1  0  0  0  0  0  0  0  0  0
   20.6918   -5.9389  -15.8341 C   0  0  0  0  0  0  0  0  0  0  0  0
   20.1889   -4.5506  -15.9881 C   0  0  0  0  0  0  0  0  0  0  0  0
   18.8035   -4.4194  -16.4462 C   0  0  0  0  0  0  0  0  0  0  0  0
   18.0687   -5.4077  -16.6897 O   0  0  0  0  0  0  0  0  0  0  0  0
   22.1066   -5.4693  -13.9278 C   0  0  0  0  0  0  0  0  0  0  0  0
   22.0351   -6.1729  -12.8978 O   0  0  0  0  0  0  0  0  0  0  0  0
   18.2102   -3.1689  -16.6418 O   0  0  0  0  0  0  0  0  0  0  0  0
   22.2062   -4.1000  -13.7654 O   0  0  0  0  0  0  0  0  0  0  0  0
  2  1  1  0
  3  4  2  0
  3  2  1  0
  6  7  2  0
  6  5  1  0
  8  6  1  0
 10  9  1  6
  9  8  1  0
 10 11  1  0
 11  3  1  0
 12 10  1  0
 13 12  2  0
 14 12  1  0
 15 14  1  0
 15 16  1  1
 17 16  1  0
 18 19  2  0
 18 17  1  0
 20 23  1  0
 20 15  1  0
 21 20  2  0
 22 18  1  0
M  END
$$$$
