GQE.pdb
     RDKit          3D

 23 22  0  0  1  0  0  0  0  0999 V2000
   19.9280  -15.3624  -17.4586 N   0  0  0  0  0  0  0  0  0  0  0  0
   20.9024  -14.4643  -16.9243 C   0  0  0  0  0  0  0  0  0  0  0  0
   20.4179  -13.0395  -16.9517 C   0  0  0  0  0  0  0  0  0  0  0  0
   21.1646  -12.1443  -17.4093 O   0  0  0  0  0  0  0  0  0  0  0  0
   14.4101  -11.3264  -16.7779 N   0  0  0  0  0  0  0  0  0  0  0  0
   15.0428  -10.0676  -16.8630 C   0  0  0  0  0  0  0  0  0  0  0  0
   14.3470   -9.0395  -16.9383 O   0  0  0  0  0  0  0  0  0  0  0  0
   16.5109   -9.9651  -16.8630 C   0  0  0  0  0  0  0  0  0  0  0  0
   17.1061  -11.3241  -16.7349 C   0  0  0  0  0  0  0  0  0  0  0  0
   18.6083  -11.3285  -16.6706 C   0  0  2  0  0  0  0  0  0  0  0  0
   19.1417  -12.6710  -16.4767 N   0  0  0  0  0  0  0  0  0  0  0  0
   19.1235  -10.4669  -15.5750 C   0  0  0  0  0  0  0  0  0  0  0  0
   19.1090  -10.8630  -14.3604 O   0  0  0  0  0  0  0  0  0  0  0  0
   19.6549   -9.1746  -15.7945 N   0  0  0  0  0  0  0  0  0  0  0  0
   20.1896   -8.3640  -14.6813 C   0  0  1  0  0  0  0  0  0  0  0  0
   21.0513   -7.2545  -15.2225 C   0  0  0  0  0  0  0  0  0  0  0  0
   21.5395   -6.2764  -14.2180 C   0  0  0  0  0  0  0  0  0  0  0  0
   22.4052   -5.2114  -14.7306 C   0  0  0  0  0  0  0  0  0  0  0  0
   22.0025   -4.0382  -14.9238 O   0  0  0  0  0  0  0  0  0  0  0  0
   19.0374   -7.7561  -13.9781 C   0  0  0  0  0  0  0  0  0  0  0  0
   18.0030   -7.4091  -14.5869 O   0  0  0  0  0  0  0  0  0  0  0  0
   23.7490   -5.4423  -15.0390 O   0  0  0  0  0  0  0  0  0  0  0  0
   19.0770   -7.5543  -12.6110 O   0  0  0  0  0  0  0  0  0  0  0  0
  2  1  1  0
  3  4  2  0
  3  2  1  0
  6  7  2  0
  6  5  1  0
  8  6  1  0
 10  9  1  1
  9  8  1  0
 10 11  1  0
 11  3  1  0
 12 10  1  0
 13 12  2  0
 14 12  1  0
 15 14  1  0
 15 16  1  6
 17 16  1  0
 18 19  2  0
 18 17  1  0
 20 23  1  0
 20 15  1  0
 21 20  2  0
 22 18  1  0
M  END
$$$$
