GQE.pdb
     RDKit          3D

 23 22  0  0  1  0  0  0  0  0999 V2000
   28.0681  -10.8573  -16.7613 N   0  0  0  0  0  0  0  0  0  0  0  0
   26.9799  -11.4670  -16.0642 C   0  0  0  0  0  0  0  0  0  0  0  0
   25.6745  -10.7805  -16.3643 C   0  0  0  0  0  0  0  0  0  0  0  0
   25.6726   -9.7392  -17.0602 O   0  0  0  0  0  0  0  0  0  0  0  0
   19.9809  -13.3529  -16.2140 N   0  0  0  0  0  0  0  0  0  0  0  0
   19.6852  -12.0338  -16.6194 C   0  0  0  0  0  0  0  0  0  0  0  0
   18.5339  -11.7564  -16.9995 O   0  0  0  0  0  0  0  0  0  0  0  0
   20.7240  -10.9916  -16.5953 C   0  0  0  0  0  0  0  0  0  0  0  0
   22.0332  -11.6002  -16.2302 C   0  0  0  0  0  0  0  0  0  0  0  0
   23.1774  -10.6247  -16.2189 C   0  0  2  0  0  0  0  0  0  0  0  0
   24.4411  -11.2706  -15.8864 N   0  0  0  0  0  0  0  0  0  0  0  0
   22.9588   -9.5178  -15.2519 C   0  0  0  0  0  0  0  0  0  0  0  0
   23.1544   -9.6854  -14.0005 O   0  0  0  0  0  0  0  0  0  0  0  0
   22.5279   -8.2278  -15.6402 N   0  0  0  0  0  0  0  0  0  0  0  0
   22.2998   -7.1613  -14.6438 C   0  0  1  0  0  0  0  0  0  0  0  0
   22.1485   -5.8343  -15.3385 C   0  0  0  0  0  0  0  0  0  0  0  0
   21.9507   -4.6645  -14.4459 C   0  0  0  0  0  0  0  0  0  0  0  0
   21.8555   -3.3622  -15.1103 C   0  0  0  0  0  0  0  0  0  0  0  0
   22.1268   -3.1939  -16.3243 O   0  0  0  0  0  0  0  0  0  0  0  0
   21.0310   -7.4670  -13.9450 C   0  0  0  0  0  0  0  0  0  0  0  0
   20.0613   -7.9858  -14.5380 O   0  0  0  0  0  0  0  0  0  0  0  0
   21.4513   -2.2147  -14.4218 O   0  0  0  0  0  0  0  0  0  0  0  0
   20.8848   -7.1825  -12.6001 O   0  0  0  0  0  0  0  0  0  0  0  0
  2  1  1  0
  3  4  2  0
  3  2  1  0
  6  7  2  0
  6  5  1  0
  8  6  1  0
 10  9  1  1
  9  8  1  0
 10 11  1  0
 11  3  1  0
 12 10  1  0
 13 12  2  0
 14 12  1  0
 15 14  1  0
 15 16  1  6
 17 16  1  0
 18 19  2  0
 18 17  1  0
 20 23  1  0
 20 15  1  0
 21 20  2  0
 22 18  1  0
M  END
$$$$
