GQE.pdb
     RDKit          3D

 23 22  0  0  1  0  0  0  0  0999 V2000
   19.8936  -12.1327  -18.0195 N   0  0  0  0  0  0  0  0  0  0  0  0
   20.6762  -11.5780  -16.9606 C   0  0  0  0  0  0  0  0  0  0  0  0
   20.0985  -10.2794  -16.4652 C   0  0  0  0  0  0  0  0  0  0  0  0
   19.6676   -9.4427  -17.2914 O   0  0  0  0  0  0  0  0  0  0  0  0
   17.6441   -9.0624  -10.8403 N   0  0  0  0  0  0  0  0  0  0  0  0
   16.9514   -9.6403  -11.9257 C   0  0  0  0  0  0  0  0  0  0  0  0
   15.8888  -10.2512  -11.7150 O   0  0  0  0  0  0  0  0  0  0  0  0
   17.4754   -9.5251  -13.2961 C   0  0  0  0  0  0  0  0  0  0  0  0
   18.8089   -8.8628  -13.2664 C   0  0  0  0  0  0  0  0  0  0  0  0
   19.4462   -8.7138  -14.6202 C   0  0  2  0  0  0  0  0  0  0  0  0
   20.0234   -9.9663  -15.0918 N   0  0  0  0  0  0  0  0  0  0  0  0
   20.5178   -7.6843  -14.6232 C   0  0  0  0  0  0  0  0  0  0  0  0
   21.7067   -7.9670  -14.2505 O   0  0  0  0  0  0  0  0  0  0  0  0
   20.3020   -6.3470  -15.0302 N   0  0  0  0  0  0  0  0  0  0  0  0
   21.3959   -5.3543  -15.0200 C   0  0  1  0  0  0  0  0  0  0  0  0
   21.0364   -4.1859  -15.8986 C   0  0  0  0  0  0  0  0  0  0  0  0
   22.0063   -3.0619  -15.8958 C   0  0  0  0  0  0  0  0  0  0  0  0
   21.6637   -1.9196  -16.7468 C   0  0  0  0  0  0  0  0  0  0  0  0
   22.5283   -1.1984  -17.3019 O   0  0  0  0  0  0  0  0  0  0  0  0
   21.5405   -4.8636  -13.6308 C   0  0  0  0  0  0  0  0  0  0  0  0
   20.5847   -4.8741  -12.8261 O   0  0  0  0  0  0  0  0  0  0  0  0
   20.3354   -1.5605  -16.9939 O   0  0  0  0  0  0  0  0  0  0  0  0
   22.7532   -4.3745  -13.1823 O   0  0  0  0  0  0  0  0  0  0  0  0
  2  1  1  0
  3  4  2  0
  3  2  1  0
  6  7  2  0
  6  5  1  0
  8  6  1  0
 10  9  1  1
  9  8  1  0
 10 11  1  0
 11  3  1  0
 12 10  1  0
 13 12  2  0
 14 12  1  0
 15 14  1  0
 15 16  1  6
 17 16  1  0
 18 19  2  0
 18 17  1  0
 20 23  1  0
 20 15  1  0
 21 20  2  0
 22 18  1  0
M  END
$$$$
