GQE.pdb
     RDKit          3D

 23 22  0  0  1  0  0  0  0  0999 V2000
   22.2170  -11.7802  -16.8375 N   0  0  0  0  0  0  0  0  0  0  0  0
   21.3781  -11.2119  -17.8450 C   0  0  0  0  0  0  0  0  0  0  0  0
   20.7660   -9.9142  -17.3902 C   0  0  0  0  0  0  0  0  0  0  0  0
   20.3796   -9.0835  -18.2440 O   0  0  0  0  0  0  0  0  0  0  0  0
   16.3810   -8.5300  -15.8053 N   0  0  0  0  0  0  0  0  0  0  0  0
   16.7047   -7.5835  -14.8096 C   0  0  0  0  0  0  0  0  0  0  0  0
   15.8983   -6.6733  -14.5487 O   0  0  0  0  0  0  0  0  0  0  0  0
   17.9819   -7.6666  -14.0832 C   0  0  0  0  0  0  0  0  0  0  0  0
   18.7720   -8.8211  -14.5937 C   0  0  0  0  0  0  0  0  0  0  0  0
   19.8324   -8.4416  -15.5900 C   0  0  2  0  0  0  0  0  0  0  0  0
   20.6096   -9.5954  -16.0250 N   0  0  0  0  0  0  0  0  0  0  0  0
   20.7759   -7.4313  -15.0447 C   0  0  0  0  0  0  0  0  0  0  0  0
   21.6284   -7.7412  -14.1450 O   0  0  0  0  0  0  0  0  0  0  0  0
   20.7964   -6.0838  -15.4739 N   0  0  0  0  0  0  0  0  0  0  0  0
   21.7499   -5.1099  -14.9041 C   0  0  1  0  0  0  0  0  0  0  0  0
   21.5396   -3.7583  -15.5327 C   0  0  0  0  0  0  0  0  0  0  0  0
   22.3824   -2.6630  -14.9902 C   0  0  0  0  0  0  0  0  0  0  0  0
   22.1908   -1.3457  -15.6021 C   0  0  0  0  0  0  0  0  0  0  0  0
   21.5671   -0.4147  -15.0366 O   0  0  0  0  0  0  0  0  0  0  0  0
   21.4626   -4.9986  -13.4561 C   0  0  0  0  0  0  0  0  0  0  0  0
   22.3647   -4.7741  -12.6213 O   0  0  0  0  0  0  0  0  0  0  0  0
   22.6982   -1.0441  -16.8693 O   0  0  0  0  0  0  0  0  0  0  0  0
   20.1711   -5.1421  -12.9843 O   0  0  0  0  0  0  0  0  0  0  0  0
  2  1  1  0
  3  4  2  0
  3  2  1  0
  6  7  2  0
  6  5  1  0
  8  6  1  0
 10  9  1  1
  9  8  1  0
 10 11  1  0
 11  3  1  0
 12 10  1  0
 13 12  2  0
 14 12  1  0
 15 14  1  0
 15 16  1  6
 17 16  1  0
 18 19  2  0
 18 17  1  0
 20 23  1  0
 20 15  1  0
 21 20  2  0
 22 18  1  0
M  END
$$$$
