GQE.pdb
     RDKit          3D

 23 22  0  0  1  0  0  0  0  0999 V2000
   26.1691  -17.6181  -18.1700 N   0  0  0  0  0  0  0  0  0  0  0  0
   25.8776  -17.5299  -16.7740 C   0  0  0  0  0  0  0  0  0  0  0  0
   25.2194  -18.7839  -16.2643 C   0  0  0  0  0  0  0  0  0  0  0  0
   24.4226  -19.4051  -17.0043 O   0  0  0  0  0  0  0  0  0  0  0  0
   25.6472  -23.4868  -15.1804 N   0  0  0  0  0  0  0  0  0  0  0  0
   25.0578  -23.6192  -13.9048 C   0  0  0  0  0  0  0  0  0  0  0  0
   24.5595  -24.7097  -13.5738 O   0  0  0  0  0  0  0  0  0  0  0  0
   25.0295  -22.4826  -12.9705 C   0  0  0  0  0  0  0  0  0  0  0  0
   25.7011  -21.3082  -13.5929 C   0  0  0  0  0  0  0  0  0  0  0  0
   24.8008  -20.4868  -14.4738 C   0  0  2  0  0  0  0  0  0  0  0  0
   25.4687  -19.2908  -14.9717 N   0  0  0  0  0  0  0  0  0  0  0  0
   23.5640  -20.0621  -13.7679 C   0  0  0  0  0  0  0  0  0  0  0  0
   23.6169  -19.3082  -12.7378 O   0  0  0  0  0  0  0  0  0  0  0  0
   22.2684  -20.4541  -14.1779 N   0  0  0  0  0  0  0  0  0  0  0  0
   21.0661  -20.0409  -13.4254 C   0  0  1  0  0  0  0  0  0  0  0  0
   20.1411  -19.2634  -14.3233 C   0  0  0  0  0  0  0  0  0  0  0  0
   19.7963  -19.9208  -15.6090 C   0  0  0  0  0  0  0  0  0  0  0  0
   18.9221  -19.1576  -16.5032 C   0  0  0  0  0  0  0  0  0  0  0  0
   18.4201  -18.0514  -16.1865 O   0  0  0  0  0  0  0  0  0  0  0  0
   20.3664  -21.2713  -12.9913 C   0  0  0  0  0  0  0  0  0  0  0  0
   19.3962  -21.2342  -12.2050 O   0  0  0  0  0  0  0  0  0  0  0  0
   18.5910  -19.6226  -17.7792 O   0  0  0  0  0  0  0  0  0  0  0  0
   20.7743  -22.5095  -13.4513 O   0  0  0  0  0  0  0  0  0  0  0  0
  2  1  1  0
  3  4  2  0
  3  2  1  0
  6  7  2  0
  6  5  1  0
  8  6  1  0
 10  9  1  1
  9  8  1  0
 10 11  1  0
 11  3  1  0
 12 10  1  0
 13 12  2  0
 14 12  1  0
 15 14  1  0
 15 16  1  6
 17 16  1  0
 18 19  2  0
 18 17  1  0
 20 23  1  0
 20 15  1  0
 21 20  2  0
 22 18  1  0
M  END
$$$$
