GQE.pdb
     RDKit          3D

 23 22  0  0  1  0  0  0  0  0999 V2000
   19.2782  -12.7470  -16.3114 N   0  0  0  0  0  0  0  0  0  0  0  0
   20.1288  -11.7945  -16.9523 C   0  0  0  0  0  0  0  0  0  0  0  0
   21.0032  -11.0755  -15.9604 C   0  0  0  0  0  0  0  0  0  0  0  0
   20.5131  -10.6893  -14.8745 O   0  0  0  0  0  0  0  0  0  0  0  0
   27.1772  -11.3379  -15.1249 N   0  0  0  0  0  0  0  0  0  0  0  0
   26.6082  -11.2088  -16.4100 C   0  0  0  0  0  0  0  0  0  0  0  0
   27.3020  -11.4580  -17.4118 O   0  0  0  0  0  0  0  0  0  0  0  0
   25.2084  -10.7839  -16.5708 C   0  0  0  0  0  0  0  0  0  0  0  0
   24.6020  -10.5468  -15.2315 C   0  0  0  0  0  0  0  0  0  0  0  0
   23.1853  -10.0454  -15.2835 C   0  0  2  0  0  0  0  0  0  0  0  0
   22.3674  -10.8177  -16.2103 N   0  0  0  0  0  0  0  0  0  0  0  0
   23.1123   -8.6170  -15.6868 C   0  0  0  0  0  0  0  0  0  0  0  0
   23.3718   -8.2544  -16.8841 O   0  0  0  0  0  0  0  0  0  0  0  0
   22.7580   -7.5799  -14.7928 N   0  0  0  0  0  0  0  0  0  0  0  0
   22.5011   -6.2063  -15.2719 C   0  0  1  0  0  0  0  0  0  0  0  0
   21.2524   -6.1813  -16.1123 C   0  0  0  0  0  0  0  0  0  0  0  0
   20.8206   -4.8386  -16.5757 C   0  0  0  0  0  0  0  0  0  0  0  0
   19.5363   -4.7872  -17.2788 C   0  0  0  0  0  0  0  0  0  0  0  0
   18.8350   -5.8058  -17.4943 O   0  0  0  0  0  0  0  0  0  0  0  0
   22.2778   -5.3532  -14.0828 C   0  0  0  0  0  0  0  0  0  0  0  0
   22.0368   -5.8414  -12.9582 O   0  0  0  0  0  0  0  0  0  0  0  0
   19.0092   -3.5844  -17.7578 O   0  0  0  0  0  0  0  0  0  0  0  0
   22.3310   -3.9757  -14.1877 O   0  0  0  0  0  0  0  0  0  0  0  0
  2  1  1  0
  3  4  2  0
  3  2  1  0
  6  7  2  0
  6  5  1  0
  8  6  1  0
 10  9  1  6
  9  8  1  0
 10 11  1  0
 11  3  1  0
 12 10  1  0
 13 12  2  0
 14 12  1  0
 15 14  1  0
 15 16  1  6
 17 16  1  0
 18 19  2  0
 18 17  1  0
 20 23  1  0
 20 15  1  0
 21 20  2  0
 22 18  1  0
M  END
$$$$
