DNL.pdb
     RDKit          3D

 25 24  0  0  1  0  0  0  0  0999 V2000
    6.2465  -17.9329   21.5489 N   0  0  0  0  0  0  0  0  0  0  0  0
    7.5768  -18.3014   21.1837 C   0  0  1  0  0  0  0  0  0  0  0  0
    7.7071  -18.8529   19.7832 C   0  0  0  0  0  0  0  0  0  0  0  0
    6.9656  -20.1018   19.6507 C   0  0  0  0  0  0  0  0  0  0  0  0
    6.2560  -20.6103   20.5539 O   0  0  0  0  0  0  0  0  0  0  0  0
    8.5120  -17.1877   21.4295 C   0  0  0  0  0  0  0  0  0  0  0  0
    9.7678  -17.4561   21.4842 O   0  0  0  0  0  0  0  0  0  0  0  0
    7.0171  -20.8321   18.4423 O   0  0  0  0  0  0  0  0  0  0  0  0
    6.7556  -13.4211   19.7698 N   0  0  0  0  0  0  0  0  0  0  0  0
    8.1382  -13.7331   19.9450 C   0  0  0  0  0  0  0  0  0  0  0  0
    8.8412  -14.1439   18.9902 O   0  0  0  0  0  0  0  0  0  0  0  0
    8.6783  -13.5429   21.2983 C   0  0  0  0  0  0  0  0  0  0  0  0
    9.0365  -14.8603   21.9508 C   0  0  2  0  0  0  0  0  0  0  0  0
    8.0312  -15.8663   21.5995 N   0  0  0  0  0  0  0  0  0  0  0  0
    9.1718  -14.6899   23.4083 C   0  0  0  0  0  0  0  0  0  0  0  0
   10.0653  -13.9557   23.8934 O   0  0  0  0  0  0  0  0  0  0  0  0
    7.9155  -12.2054   26.6179 C   0  0  0  0  0  0  0  0  0  0  0  0
    6.9501  -13.1753   25.9190 C   0  0  2  0  0  0  0  0  0  0  0  0
    5.5541  -12.7636   26.2478 C   0  0  0  0  0  0  0  0  0  0  0  0
    7.2000  -14.5803   26.3784 C   0  0  0  0  0  0  0  0  0  0  0  0
    8.5011  -15.0901   25.8045 C   0  0  2  0  0  0  0  0  0  0  0  0
    8.3205  -15.3184   24.3524 N   0  0  0  0  0  0  0  0  0  0  0  0
    9.0358  -16.2509   26.4545 C   0  0  0  0  0  0  0  0  0  0  0  0
    8.9643  -17.3875   25.8537 O   0  0  0  0  0  0  0  0  0  0  0  0
    9.6518  -16.2920   27.7111 O   0  0  0  0  0  0  0  0  0  0  0  0
  2  1  1  6
  2  3  1  0
  3  4  1  0
  4  5  2  0
  6  2  1  0
  7  6  2  0
  8  4  1  0
  9 10  1  0
 10 12  1  0
 11 10  2  0
 13 12  1  6
 13 15  1  0
 13 14  1  0
 14  6  1  0
 15 16  2  0
 18 17  1  1
 18 19  1  0
 21 20  1  1
 20 18  1  0
 22 21  1  0
 22 15  1  0
 23 21  1  0
 24 23  2  0
 25 23  1  0
M  END
$$$$
