DNL.pdb
     RDKit          3D

 25 24  0  0  1  0  0  0  0  0999 V2000
    8.3512  -19.5073   19.2929 N   0  0  0  0  0  0  0  0  0  0  0  0
    9.1702  -18.5254   19.9284 C   0  0  1  0  0  0  0  0  0  0  0  0
    9.3441  -17.2520   19.1341 C   0  0  0  0  0  0  0  0  0  0  0  0
   10.2005  -17.4807   17.9759 C   0  0  0  0  0  0  0  0  0  0  0  0
   10.7356  -18.5806   17.6894 O   0  0  0  0  0  0  0  0  0  0  0  0
    8.6977  -18.2618   21.3006 C   0  0  0  0  0  0  0  0  0  0  0  0
    7.4342  -18.3297   21.5264 O   0  0  0  0  0  0  0  0  0  0  0  0
   10.4820  -16.4230   17.0825 O   0  0  0  0  0  0  0  0  0  0  0  0
   10.3845  -20.9593   23.7791 N   0  0  0  0  0  0  0  0  0  0  0  0
    9.3921  -20.1380   24.3958 C   0  0  0  0  0  0  0  0  0  0  0  0
    8.2715  -20.6000   24.7204 O   0  0  0  0  0  0  0  0  0  0  0  0
    9.7638  -18.7348   24.6244 C   0  0  0  0  0  0  0  0  0  0  0  0
    9.0469  -17.8014   23.6732 C   0  0  2  0  0  0  0  0  0  0  0  0
    9.6160  -17.9436   22.3309 N   0  0  0  0  0  0  0  0  0  0  0  0
    9.1171  -16.4145   24.1666 C   0  0  0  0  0  0  0  0  0  0  0  0
   10.1743  -15.7468   24.0708 O   0  0  0  0  0  0  0  0  0  0  0  0
    5.6224  -11.9967   26.8576 C   0  0  0  0  0  0  0  0  0  0  0  0
    6.9947  -12.5109   26.3956 C   0  0  2  0  0  0  0  0  0  0  0  0
    7.5938  -11.4919   25.4851 C   0  0  0  0  0  0  0  0  0  0  0  0
    6.8471  -13.8220   25.6838 C   0  0  0  0  0  0  0  0  0  0  0  0
    8.2072  -14.4184   25.4073 C   0  0  2  0  0  0  0  0  0  0  0  0
    8.0225  -15.7400   24.7647 N   0  0  0  0  0  0  0  0  0  0  0  0
    9.0725  -14.5068   26.5471 C   0  0  0  0  0  0  0  0  0  0  0  0
    9.8349  -13.5076   26.8271 O   0  0  0  0  0  0  0  0  0  0  0  0
    9.1862  -15.5921   27.4242 O   0  0  0  0  0  0  0  0  0  0  0  0
  2  1  1  6
  2  3  1  0
  3  4  1  0
  4  5  2  0
  6  2  1  0
  7  6  2  0
  8  4  1  0
  9 10  1  0
 10 12  1  0
 11 10  2  0
 13 12  1  1
 13 15  1  0
 13 14  1  0
 14  6  1  0
 15 16  2  0
 18 17  1  6
 18 19  1  0
 21 20  1  1
 20 18  1  0
 22 21  1  0
 22 15  1  0
 23 21  1  0
 24 23  2  0
 25 23  1  0
M  END
$$$$
