DNL.pdb
     RDKit          3D

 25 24  0  0  1  0  0  0  0  0999 V2000
    9.2869  -15.4945   18.4167 N   0  0  0  0  0  0  0  0  0  0  0  0
    8.7362  -14.2188   18.7457 C   0  0  1  0  0  0  0  0  0  0  0  0
    7.6339  -13.7599   17.8200 C   0  0  0  0  0  0  0  0  0  0  0  0
    7.9460  -14.1041   16.4375 C   0  0  0  0  0  0  0  0  0  0  0  0
    8.6020  -13.3766   15.6511 O   0  0  0  0  0  0  0  0  0  0  0  0
    8.3231  -14.1789   20.1611 C   0  0  0  0  0  0  0  0  0  0  0  0
    8.7678  -13.2195   20.8918 O   0  0  0  0  0  0  0  0  0  0  0  0
    7.5004  -15.3297   15.8942 O   0  0  0  0  0  0  0  0  0  0  0  0
    9.2561  -17.9566   23.1472 N   0  0  0  0  0  0  0  0  0  0  0  0
    9.8206  -17.8434   21.8401 C   0  0  0  0  0  0  0  0  0  0  0  0
   10.7771  -18.5697   21.4767 O   0  0  0  0  0  0  0  0  0  0  0  0
    9.2157  -16.8351   20.9588 C   0  0  0  0  0  0  0  0  0  0  0  0
    8.0741  -16.1088   21.6363 C   0  0  2  0  0  0  0  0  0  0  0  0
    7.4633  -15.1725   20.6897 N   0  0  0  0  0  0  0  0  0  0  0  0
    8.5482  -15.4379   22.8598 C   0  0  0  0  0  0  0  0  0  0  0  0
    9.6046  -14.7621   22.8588 O   0  0  0  0  0  0  0  0  0  0  0  0
    5.9188  -12.1168   27.0294 C   0  0  0  0  0  0  0  0  0  0  0  0
    7.2516  -12.6433   26.4745 C   0  0  2  0  0  0  0  0  0  0  0  0
    8.0616  -11.4765   26.0178 C   0  0  0  0  0  0  0  0  0  0  0  0
    7.0054  -13.5843   25.3338 C   0  0  0  0  0  0  0  0  0  0  0  0
    8.1725  -14.5312   25.1811 C   0  0  2  0  0  0  0  0  0  0  0  0
    7.8621  -15.4942   24.0996 N   0  0  0  0  0  0  0  0  0  0  0  0
    8.5674  -15.2042   26.3840 C   0  0  0  0  0  0  0  0  0  0  0  0
    8.1459  -16.4029   26.5922 O   0  0  0  0  0  0  0  0  0  0  0  0
    9.3908  -14.6909   27.3933 O   0  0  0  0  0  0  0  0  0  0  0  0
  2  1  1  6
  2  3  1  0
  3  4  1  0
  4  5  2  0
  6  2  1  0
  7  6  2  0
  8  4  1  0
  9 10  1  0
 10 12  1  0
 11 10  2  0
 13 12  1  6
 13 15  1  0
 13 14  1  0
 14  6  1  0
 15 16  2  0
 18 17  1  6
 18 19  1  0
 21 20  1  1
 20 18  1  0
 22 21  1  0
 22 15  1  0
 23 21  1  0
 24 23  2  0
 25 23  1  0
M  END
$$$$
