DNL.pdb
     RDKit          3D

 25 24  0  0  1  0  0  0  0  0999 V2000
    8.0622  -15.9808   20.2296 N   0  0  0  0  0  0  0  0  0  0  0  0
    8.1347  -17.2971   20.7781 C   0  0  1  0  0  0  0  0  0  0  0  0
    8.3609  -18.3856   19.7550 C   0  0  0  0  0  0  0  0  0  0  0  0
    7.3288  -18.3467   18.7253 C   0  0  0  0  0  0  0  0  0  0  0  0
    6.4751  -17.4331   18.6039 O   0  0  0  0  0  0  0  0  0  0  0  0
    9.1222  -17.3519   21.8724 C   0  0  0  0  0  0  0  0  0  0  0  0
    9.2842  -18.4716   22.4824 O   0  0  0  0  0  0  0  0  0  0  0  0
    7.2372  -19.3870   17.7737 O   0  0  0  0  0  0  0  0  0  0  0  0
   13.0174  -17.3641   21.9333 N   0  0  0  0  0  0  0  0  0  0  0  0
   12.8111  -15.9535   22.0202 C   0  0  0  0  0  0  0  0  0  0  0  0
   13.3003  -15.1684   21.1723 O   0  0  0  0  0  0  0  0  0  0  0  0
   11.9980  -15.4868   23.1516 C   0  0  0  0  0  0  0  0  0  0  0  0
   10.7796  -16.3584   23.3654 C   0  0  2  0  0  0  0  0  0  0  0  0
    9.8638  -16.2004   22.2330 N   0  0  0  0  0  0  0  0  0  0  0  0
   10.1385  -16.0356   24.6526 C   0  0  0  0  0  0  0  0  0  0  0  0
   10.7865  -16.0748   25.7255 O   0  0  0  0  0  0  0  0  0  0  0  0
    8.1678  -12.5532   26.4966 C   0  0  0  0  0  0  0  0  0  0  0  0
    7.3223  -13.3074   25.4587 C   0  0  2  0  0  0  0  0  0  0  0  0
    6.1097  -12.4907   25.1605 C   0  0  0  0  0  0  0  0  0  0  0  0
    6.9262  -14.6529   25.9881 C   0  0  0  0  0  0  0  0  0  0  0  0
    8.1418  -15.5415   26.1088 C   0  0  2  0  0  0  0  0  0  0  0  0
    8.7775  -15.6572   24.7761 N   0  0  0  0  0  0  0  0  0  0  0  0
    7.8943  -16.8311   26.6845 C   0  0  0  0  0  0  0  0  0  0  0  0
    7.5195  -16.9008   27.9144 O   0  0  0  0  0  0  0  0  0  0  0  0
    8.0146  -18.0679   26.0396 O   0  0  0  0  0  0  0  0  0  0  0  0
  2  1  1  6
  2  3  1  0
  3  4  1  0
  4  5  2  0
  6  2  1  0
  7  6  2  0
  8  4  1  0
  9 10  1  0
 10 12  1  0
 11 10  2  0
 13 12  1  6
 13 15  1  0
 13 14  1  0
 14  6  1  0
 15 16  2  0
 18 17  1  1
 18 19  1  0
 21 20  1  6
 20 18  1  0
 22 21  1  0
 22 15  1  0
 23 21  1  0
 24 23  2  0
 25 23  1  0
M  END
$$$$
