DNL.pdb
     RDKit          3D

 25 24  0  0  1  0  0  0  0  0999 V2000
    9.2430  -18.4298   19.8665 N   0  0  0  0  0  0  0  0  0  0  0  0
    8.7730  -17.0930   20.0427 C   0  0  1  0  0  0  0  0  0  0  0  0
    7.8607  -16.6045   18.9420 C   0  0  0  0  0  0  0  0  0  0  0  0
    8.3186  -17.0843   17.6430 C   0  0  0  0  0  0  0  0  0  0  0  0
    9.3222  -17.8188   17.4662 O   0  0  0  0  0  0  0  0  0  0  0  0
    8.1690  -16.9248   21.3778 C   0  0  0  0  0  0  0  0  0  0  0  0
    7.6865  -15.7725   21.6801 O   0  0  0  0  0  0  0  0  0  0  0  0
    7.6210  -16.7246   16.4682 O   0  0  0  0  0  0  0  0  0  0  0  0
    5.2224  -19.6103   23.4385 N   0  0  0  0  0  0  0  0  0  0  0  0
    6.6160  -19.8896   23.5791 C   0  0  0  0  0  0  0  0  0  0  0  0
    7.1422  -20.8837   23.0228 O   0  0  0  0  0  0  0  0  0  0  0  0
    7.3846  -18.9487   24.4055 C   0  0  0  0  0  0  0  0  0  0  0  0
    7.7057  -17.6744   23.6553 C   0  0  2  0  0  0  0  0  0  0  0  0
    8.1277  -18.0057   22.2921 N   0  0  0  0  0  0  0  0  0  0  0  0
    8.7236  -16.8949   24.3820 C   0  0  0  0  0  0  0  0  0  0  0  0
    9.6267  -16.2788   23.7676 O   0  0  0  0  0  0  0  0  0  0  0  0
    8.7839  -13.1690   27.8445 C   0  0  0  0  0  0  0  0  0  0  0  0
    8.2108  -13.1107   26.4200 C   0  0  2  0  0  0  0  0  0  0  0  0
    6.9545  -12.3065   26.4537 C   0  0  0  0  0  0  0  0  0  0  0  0
    7.9298  -14.4939   25.9147 C   0  0  0  0  0  0  0  0  0  0  0  0
    8.9676  -15.4585   26.4385 C   0  0  2  0  0  0  0  0  0  0  0  0
    8.7571  -16.7756   25.7947 N   0  0  0  0  0  0  0  0  0  0  0  0
    9.0189  -15.5761   27.8665 C   0  0  0  0  0  0  0  0  0  0  0  0
    8.1592  -16.3296   28.4591 O   0  0  0  0  0  0  0  0  0  0  0  0
    9.9307  -14.9456   28.7217 O   0  0  0  0  0  0  0  0  0  0  0  0
  2  1  1  6
  2  3  1  0
  3  4  1  0
  4  5  2  0
  6  2  1  0
  7  6  2  0
  8  4  1  0
  9 10  1  0
 10 12  1  0
 11 10  2  0
 13 12  1  1
 13 15  1  0
 13 14  1  0
 14  6  1  0
 15 16  2  0
 18 17  1  1
 18 19  1  0
 21 20  1  1
 20 18  1  0
 22 21  1  0
 22 15  1  0
 23 21  1  0
 24 23  2  0
 25 23  1  0
M  END
$$$$
