DNL.pdb
     RDKit          3D

 25 24  0  0  1  0  0  0  0  0999 V2000
    9.1631  -15.6989   19.8859 N   0  0  0  0  0  0  0  0  0  0  0  0
    8.6534  -14.5931   20.6319 C   0  0  1  0  0  0  0  0  0  0  0  0
    7.6162  -13.7741   19.8998 C   0  0  0  0  0  0  0  0  0  0  0  0
    7.7271  -13.9720   18.4590 C   0  0  0  0  0  0  0  0  0  0  0  0
    8.5434  -14.7503   17.9058 O   0  0  0  0  0  0  0  0  0  0  0  0
    8.1772  -15.0335   21.9566 C   0  0  0  0  0  0  0  0  0  0  0  0
    7.7166  -14.1410   22.7587 O   0  0  0  0  0  0  0  0  0  0  0  0
    6.8819  -13.2604   17.5786 O   0  0  0  0  0  0  0  0  0  0  0  0
    5.3350  -18.0354   22.7237 N   0  0  0  0  0  0  0  0  0  0  0  0
    6.6983  -18.4596   22.7621 C   0  0  0  0  0  0  0  0  0  0  0  0
    7.1960  -19.1430   21.8349 O   0  0  0  0  0  0  0  0  0  0  0  0
    7.4712  -18.0479   23.9420 C   0  0  0  0  0  0  0  0  0  0  0  0
    8.0970  -16.6828   23.7557 C   0  0  2  0  0  0  0  0  0  0  0  0
    8.2307  -16.4002   22.3245 N   0  0  0  0  0  0  0  0  0  0  0  0
    9.3878  -16.6102   24.4632 C   0  0  0  0  0  0  0  0  0  0  0  0
   10.4024  -16.1241   23.9092 O   0  0  0  0  0  0  0  0  0  0  0  0
    9.9087  -14.6539   29.3428 C   0  0  0  0  0  0  0  0  0  0  0  0
    9.6851  -14.0006   27.9701 C   0  0  2  0  0  0  0  0  0  0  0  0
    8.7307  -12.8666   28.1417 C   0  0  0  0  0  0  0  0  0  0  0  0
    9.1343  -15.0021   27.0001 C   0  0  0  0  0  0  0  0  0  0  0  0
   10.1002  -16.1520   26.8368 C   0  0  2  0  0  0  0  0  0  0  0  0
    9.5782  -17.0640   25.7932 N   0  0  0  0  0  0  0  0  0  0  0  0
   10.4079  -16.8604   28.0449 C   0  0  0  0  0  0  0  0  0  0  0  0
    9.5475  -17.6976   28.5104 O   0  0  0  0  0  0  0  0  0  0  0  0
   11.5796  -16.7449   28.8025 O   0  0  0  0  0  0  0  0  0  0  0  0
  2  1  1  6
  2  3  1  0
  3  4  1  0
  4  5  2  0
  6  2  1  0
  7  6  2  0
  8  4  1  0
  9 10  1  0
 10 12  1  0
 11 10  2  0
 13 12  1  6
 13 15  1  0
 13 14  1  0
 14  6  1  0
 15 16  2  0
 18 17  1  1
 18 19  1  0
 21 20  1  1
 20 18  1  0
 22 21  1  0
 22 15  1  0
 23 21  1  0
 24 23  2  0
 25 23  1  0
M  END
$$$$
