DNL.pdb
     RDKit          3D

 25 24  0  0  1  0  0  0  0  0999 V2000
    9.0394  -17.1299   19.8483 N   0  0  0  0  0  0  0  0  0  0  0  0
    8.6103  -15.8491   20.3111 C   0  0  1  0  0  0  0  0  0  0  0  0
    7.7505  -15.0887   19.3286 C   0  0  0  0  0  0  0  0  0  0  0  0
    8.4227  -14.9717   18.0395 C   0  0  0  0  0  0  0  0  0  0  0  0
    9.5936  -15.3624   17.8066 O   0  0  0  0  0  0  0  0  0  0  0  0
    7.9707  -15.9611   21.6355 C   0  0  0  0  0  0  0  0  0  0  0  0
    6.7942  -15.4641   21.7805 O   0  0  0  0  0  0  0  0  0  0  0  0
    7.7549  -14.3825   16.9427 O   0  0  0  0  0  0  0  0  0  0  0  0
    5.9552  -19.2532   24.9401 N   0  0  0  0  0  0  0  0  0  0  0  0
    7.3577  -19.1106   25.1693 C   0  0  0  0  0  0  0  0  0  0  0  0
    7.8781  -19.4430   26.2616 O   0  0  0  0  0  0  0  0  0  0  0  0
    8.1425  -18.5579   24.0567 C   0  0  0  0  0  0  0  0  0  0  0  0
    7.7859  -17.1135   23.7805 C   0  0  2  0  0  0  0  0  0  0  0  0
    8.6408  -16.5978   22.7086 N   0  0  0  0  0  0  0  0  0  0  0  0
    7.8926  -16.3147   25.0143 C   0  0  0  0  0  0  0  0  0  0  0  0
    7.1501  -16.5431   25.9988 O   0  0  0  0  0  0  0  0  0  0  0  0
    8.1045  -11.8346   25.7159 C   0  0  0  0  0  0  0  0  0  0  0  0
    7.0928  -12.9887   25.7916 C   0  0  2  0  0  0  0  0  0  0  0  0
    5.7631  -12.4215   26.1613 C   0  0  0  0  0  0  0  0  0  0  0  0
    7.5295  -13.9981   26.8104 C   0  0  0  0  0  0  0  0  0  0  0  0
    8.9045  -14.5207   26.4668 C   0  0  2  0  0  0  0  0  0  0  0  0
    8.8235  -15.2587   25.1852 N   0  0  0  0  0  0  0  0  0  0  0  0
    9.5239  -15.3129   27.4888 C   0  0  0  0  0  0  0  0  0  0  0  0
    9.4749  -16.5962   27.3954 O   0  0  0  0  0  0  0  0  0  0  0  0
   10.2032  -14.8348   28.6158 O   0  0  0  0  0  0  0  0  0  0  0  0
  2  1  1  6
  2  3  1  0
  3  4  1  0
  4  5  2  0
  6  2  1  0
  7  6  2  0
  8  4  1  0
  9 10  1  0
 10 12  1  0
 11 10  2  0
 13 12  1  1
 13 15  1  0
 13 14  1  0
 14  6  1  0
 15 16  2  0
 18 17  1  1
 18 19  1  0
 21 20  1  1
 20 18  1  0
 22 21  1  0
 22 15  1  0
 23 21  1  0
 24 23  2  0
 25 23  1  0
M  END
$$$$
