DNL.pdb
     RDKit          3D

 25 24  0  0  1  0  0  0  0  0999 V2000
    6.1262  -17.8148   21.0877 N   0  0  0  0  0  0  0  0  0  0  0  0
    7.4819  -18.2522   20.9891 C   0  0  1  0  0  0  0  0  0  0  0  0
    7.8122  -18.9678   19.7001 C   0  0  0  0  0  0  0  0  0  0  0  0
    6.9192  -20.1032   19.4983 C   0  0  0  0  0  0  0  0  0  0  0  0
    5.8616  -20.3038   20.1458 O   0  0  0  0  0  0  0  0  0  0  0  0
    8.4099  -17.1374   21.2569 C   0  0  0  0  0  0  0  0  0  0  0  0
    9.6611  -17.4088   21.3703 O   0  0  0  0  0  0  0  0  0  0  0  0
    7.2201  -21.0765   18.5195 O   0  0  0  0  0  0  0  0  0  0  0  0
    7.0934  -13.2265   19.0429 N   0  0  0  0  0  0  0  0  0  0  0  0
    8.3599  -13.6206   19.5727 C   0  0  0  0  0  0  0  0  0  0  0  0
    9.2719  -14.0561   18.8290 O   0  0  0  0  0  0  0  0  0  0  0  0
    8.5245  -13.4833   21.0264 C   0  0  0  0  0  0  0  0  0  0  0  0
    8.9358  -14.7890   21.6712 C   0  0  2  0  0  0  0  0  0  0  0  0
    7.9272  -15.8120   21.3845 N   0  0  0  0  0  0  0  0  0  0  0  0
    9.1472  -14.6017   23.1176 C   0  0  0  0  0  0  0  0  0  0  0  0
   10.1146  -13.9297   23.5480 O   0  0  0  0  0  0  0  0  0  0  0  0
    8.2695  -11.9799   26.3262 C   0  0  0  0  0  0  0  0  0  0  0  0
    7.1770  -12.8605   25.7000 C   0  0  2  0  0  0  0  0  0  0  0  0
    5.8481  -12.3166   26.1056 C   0  0  0  0  0  0  0  0  0  0  0  0
    7.3222  -14.2789   26.1634 C   0  0  0  0  0  0  0  0  0  0  0  0
    8.5528  -14.9024   25.5482 C   0  0  2  0  0  0  0  0  0  0  0  0
    8.2923  -15.1442   24.1104 N   0  0  0  0  0  0  0  0  0  0  0  0
    9.0216  -16.0892   26.2021 C   0  0  0  0  0  0  0  0  0  0  0  0
    8.9355  -17.2149   25.5830 O   0  0  0  0  0  0  0  0  0  0  0  0
    9.5853  -16.1677   27.4813 O   0  0  0  0  0  0  0  0  0  0  0  0
  2  1  1  6
  2  3  1  0
  3  4  1  0
  4  5  2  0
  6  2  1  0
  7  6  2  0
  8  4  1  0
  9 10  1  0
 10 12  1  0
 11 10  2  0
 13 12  1  1
 13 15  1  0
 13 14  1  0
 14  6  1  0
 15 16  2  0
 18 17  1  1
 18 19  1  0
 21 20  1  1
 20 18  1  0
 22 21  1  0
 22 15  1  0
 23 21  1  0
 24 23  2  0
 25 23  1  0
M  END
$$$$
