DNL.pdb
     RDKit          3D

 25 24  0  0  1  0  0  0  0  0999 V2000
    9.7109  -16.9791   19.6255 N   0  0  0  0  0  0  0  0  0  0  0  0
    8.3301  -16.6351   19.5073 C   0  0  1  0  0  0  0  0  0  0  0  0
    7.5674  -17.4620   18.4988 C   0  0  0  0  0  0  0  0  0  0  0  0
    8.2115  -17.4024   17.1916 C   0  0  0  0  0  0  0  0  0  0  0  0
    9.3406  -17.8865   16.9291 O   0  0  0  0  0  0  0  0  0  0  0  0
    7.6780  -16.6354   20.8302 C   0  0  0  0  0  0  0  0  0  0  0  0
    6.4392  -16.2981   20.8916 O   0  0  0  0  0  0  0  0  0  0  0  0
    7.5636  -16.7640   16.1105 O   0  0  0  0  0  0  0  0  0  0  0  0
    7.2701  -19.2409   26.0843 N   0  0  0  0  0  0  0  0  0  0  0  0
    6.7736  -18.3612   25.0746 C   0  0  0  0  0  0  0  0  0  0  0  0
    5.7631  -17.6441   25.2724 O   0  0  0  0  0  0  0  0  0  0  0  0
    7.5140  -18.3491   23.8054 C   0  0  0  0  0  0  0  0  0  0  0  0
    7.6580  -16.9481   23.2520 C   0  0  2  0  0  0  0  0  0  0  0  0
    8.4032  -16.9971   21.9918 N   0  0  0  0  0  0  0  0  0  0  0  0
    8.2975  -16.0681   24.2462 C   0  0  0  0  0  0  0  0  0  0  0  0
    9.5397  -16.0812   24.4174 O   0  0  0  0  0  0  0  0  0  0  0  0
    7.9676  -11.7533   24.7245 C   0  0  0  0  0  0  0  0  0  0  0  0
    6.8292  -12.5236   25.4114 C   0  0  2  0  0  0  0  0  0  0  0  0
    5.7943  -11.5402   25.8455 C   0  0  0  0  0  0  0  0  0  0  0  0
    7.3531  -13.2832   26.5929 C   0  0  0  0  0  0  0  0  0  0  0  0
    8.2647  -14.3960   26.1316 C   0  0  2  0  0  0  0  0  0  0  0  0
    7.5798  -15.1552   25.0602 N   0  0  0  0  0  0  0  0  0  0  0  0
    8.7335  -15.2648   27.1714 C   0  0  0  0  0  0  0  0  0  0  0  0
    9.4045  -14.7598   28.1475 O   0  0  0  0  0  0  0  0  0  0  0  0
    8.5362  -16.6485   27.2524 O   0  0  0  0  0  0  0  0  0  0  0  0
  2  1  1  1
  2  3  1  0
  3  4  1  0
  4  5  2  0
  6  2  1  0
  7  6  2  0
  8  4  1  0
  9 10  1  0
 10 12  1  0
 11 10  2  0
 13 12  1  1
 13 15  1  0
 13 14  1  0
 14  6  1  0
 15 16  2  0
 18 17  1  1
 18 19  1  0
 21 20  1  1
 20 18  1  0
 22 21  1  0
 22 15  1  0
 23 21  1  0
 24 23  2  0
 25 23  1  0
M  END
$$$$
