DNL.pdb
     RDKit          3D

 25 24  0  0  1  0  0  0  0  0999 V2000
   13.7433  -17.8763   22.4791 N   0  0  0  0  0  0  0  0  0  0  0  0
   12.7354  -16.9257   22.1335 C   0  0  1  0  0  0  0  0  0  0  0  0
   12.4895  -16.7921   20.6488 C   0  0  0  0  0  0  0  0  0  0  0  0
   13.7273  -16.4668   19.9493 C   0  0  0  0  0  0  0  0  0  0  0  0
   14.6186  -15.7011   20.3935 O   0  0  0  0  0  0  0  0  0  0  0  0
   11.4909  -17.1915   22.8792 C   0  0  0  0  0  0  0  0  0  0  0  0
   10.5310  -16.3435   22.7713 O   0  0  0  0  0  0  0  0  0  0  0  0
   13.9903  -17.0237   18.6778 O   0  0  0  0  0  0  0  0  0  0  0  0
    9.3563  -19.4207   22.0044 N   0  0  0  0  0  0  0  0  0  0  0  0
    9.3067  -20.4085   23.0347 C   0  0  0  0  0  0  0  0  0  0  0  0
    8.9603  -21.5897   22.7910 O   0  0  0  0  0  0  0  0  0  0  0  0
    9.6844  -19.9585   24.3816 C   0  0  0  0  0  0  0  0  0  0  0  0
   10.0930  -18.5016   24.3934 C   0  0  2  0  0  0  0  0  0  0  0  0
   11.3673  -18.3480   23.6874 N   0  0  0  0  0  0  0  0  0  0  0  0
   10.1559  -17.9985   25.7771 C   0  0  0  0  0  0  0  0  0  0  0  0
    9.3458  -18.3969   26.6475 O   0  0  0  0  0  0  0  0  0  0  0  0
    8.2790  -13.6365   28.3137 C   0  0  0  0  0  0  0  0  0  0  0  0
    9.4772  -14.5756   28.5221 C   0  0  2  0  0  0  0  0  0  0  0  0
   10.6263  -13.7645   29.0200 C   0  0  0  0  0  0  0  0  0  0  0  0
    9.8379  -15.2534   27.2344 C   0  0  0  0  0  0  0  0  0  0  0  0
   10.9043  -16.2953   27.4774 C   0  0  2  0  0  0  0  0  0  0  0  0
   11.1165  -17.0562   26.2246 N   0  0  0  0  0  0  0  0  0  0  0  0
   10.6545  -17.1703   28.5854 C   0  0  0  0  0  0  0  0  0  0  0  0
    9.6988  -18.0286   28.4960 O   0  0  0  0  0  0  0  0  0  0  0  0
   11.3571  -17.2025   29.7960 O   0  0  0  0  0  0  0  0  0  0  0  0
  2  1  1  6
  2  3  1  0
  3  4  1  0
  4  5  2  0
  6  2  1  0
  7  6  2  0
  8  4  1  0
  9 10  1  0
 10 12  1  0
 11 10  2  0
 13 12  1  1
 13 15  1  0
 13 14  1  0
 14  6  1  0
 15 16  2  0
 18 17  1  6
 18 19  1  0
 21 20  1  6
 20 18  1  0
 22 21  1  0
 22 15  1  0
 23 21  1  0
 24 23  2  0
 25 23  1  0
M  END
$$$$
