DNL.pdb
     RDKit          3D

 25 24  0  0  1  0  0  0  0  0999 V2000
    9.6655  -16.2883   19.6057 N   0  0  0  0  0  0  0  0  0  0  0  0
    8.2827  -16.1858   19.9465 C   0  0  1  0  0  0  0  0  0  0  0  0
    7.3702  -17.0522   19.1103 C   0  0  0  0  0  0  0  0  0  0  0  0
    7.8924  -17.1923   17.7557 C   0  0  0  0  0  0  0  0  0  0  0  0
    7.6532  -16.3979   16.8124 O   0  0  0  0  0  0  0  0  0  0  0  0
    8.0844  -16.4061   21.3914 C   0  0  0  0  0  0  0  0  0  0  0  0
    6.9040  -16.2357   21.8706 O   0  0  0  0  0  0  0  0  0  0  0  0
    8.7292  -18.2824   17.4277 O   0  0  0  0  0  0  0  0  0  0  0  0
    9.8878  -20.1715   22.4212 N   0  0  0  0  0  0  0  0  0  0  0  0
    9.0195  -19.5423   23.3645 C   0  0  0  0  0  0  0  0  0  0  0  0
    7.8702  -19.9902   23.5942 O   0  0  0  0  0  0  0  0  0  0  0  0
    9.5529  -18.3521   24.0415 C   0  0  0  0  0  0  0  0  0  0  0  0
    8.8341  -17.0917   23.6120 C   0  0  2  0  0  0  0  0  0  0  0  0
    9.1681  -16.7925   22.2175 N   0  0  0  0  0  0  0  0  0  0  0  0
    9.1668  -15.9783   24.5183 C   0  0  0  0  0  0  0  0  0  0  0  0
   10.2931  -15.4281   24.4803 O   0  0  0  0  0  0  0  0  0  0  0  0
    7.7954  -11.9763   24.8695 C   0  0  0  0  0  0  0  0  0  0  0  0
    6.8403  -12.9773   25.5379 C   0  0  2  0  0  0  0  0  0  0  0  0
    5.5795  -12.2595   25.8866 C   0  0  0  0  0  0  0  0  0  0  0  0
    7.4691  -13.5536   26.7708 C   0  0  0  0  0  0  0  0  0  0  0  0
    8.6828  -14.3729   26.3998 C   0  0  2  0  0  0  0  0  0  0  0  0
    8.2620  -15.4490   25.4733 N   0  0  0  0  0  0  0  0  0  0  0  0
    9.4216  -14.8977   27.5108 C   0  0  0  0  0  0  0  0  0  0  0  0
    9.3597  -16.1600   27.7573 O   0  0  0  0  0  0  0  0  0  0  0  0
   10.2343  -14.1703   28.3885 O   0  0  0  0  0  0  0  0  0  0  0  0
  2  1  1  6
  2  3  1  0
  3  4  1  0
  4  5  2  0
  6  2  1  0
  7  6  2  0
  8  4  1  0
  9 10  1  0
 10 12  1  0
 11 10  2  0
 13 12  1  1
 13 15  1  0
 13 14  1  0
 14  6  1  0
 15 16  2  0
 18 17  1  1
 18 19  1  0
 21 20  1  1
 20 18  1  0
 22 21  1  0
 22 15  1  0
 23 21  1  0
 24 23  2  0
 25 23  1  0
M  END
$$$$
