DNL.pdb
     RDKit          3D

 25 24  0  0  1  0  0  0  0  0999 V2000
    7.5002  -16.0727   20.2837 N   0  0  0  0  0  0  0  0  0  0  0  0
    7.5134  -17.3101   20.9961 C   0  0  1  0  0  0  0  0  0  0  0  0
    7.4501  -18.5357   20.1150 C   0  0  0  0  0  0  0  0  0  0  0  0
    6.7077  -18.2526   18.8919 C   0  0  0  0  0  0  0  0  0  0  0  0
    7.0435  -17.3986   18.0341 O   0  0  0  0  0  0  0  0  0  0  0  0
    8.6516  -17.3599   21.9329 C   0  0  0  0  0  0  0  0  0  0  0  0
    8.8064  -18.4240   22.6371 O   0  0  0  0  0  0  0  0  0  0  0  0
    5.5183  -18.9591   18.6051 O   0  0  0  0  0  0  0  0  0  0  0  0
   12.6014  -17.1047   20.5991 N   0  0  0  0  0  0  0  0  0  0  0  0
   11.9892  -15.9038   21.0713 C   0  0  0  0  0  0  0  0  0  0  0  0
   11.5791  -15.0237   20.2765 O   0  0  0  0  0  0  0  0  0  0  0  0
   11.8707  -15.7678   22.5296 C   0  0  0  0  0  0  0  0  0  0  0  0
   10.5981  -16.3988   23.0513 C   0  0  2  0  0  0  0  0  0  0  0  0
    9.5406  -16.2632   22.0466 N   0  0  0  0  0  0  0  0  0  0  0  0
   10.2217  -15.7992   24.3439 C   0  0  0  0  0  0  0  0  0  0  0  0
   11.0907  -15.5139   25.2018 O   0  0  0  0  0  0  0  0  0  0  0  0
    8.3154  -12.3067   26.5736 C   0  0  0  0  0  0  0  0  0  0  0  0
    7.4145  -13.1208   25.6319 C   0  0  2  0  0  0  0  0  0  0  0  0
    6.1035  -12.4179   25.5152 C   0  0  0  0  0  0  0  0  0  0  0  0
    7.2161  -14.5061   26.1694 C   0  0  0  0  0  0  0  0  0  0  0  0
    8.5176  -15.2716   26.1241 C   0  0  2  0  0  0  0  0  0  0  0  0
    8.8846  -15.4975   24.7072 N   0  0  0  0  0  0  0  0  0  0  0  0
    8.5257  -16.4968   26.8688 C   0  0  0  0  0  0  0  0  0  0  0  0
    8.5446  -16.4419   28.1551 O   0  0  0  0  0  0  0  0  0  0  0  0
    8.5116  -17.7929   26.3396 O   0  0  0  0  0  0  0  0  0  0  0  0
  2  1  1  6
  2  3  1  0
  3  4  1  0
  4  5  2  0
  6  2  1  0
  7  6  2  0
  8  4  1  0
  9 10  1  0
 10 12  1  0
 11 10  2  0
 13 12  1  6
 13 15  1  0
 13 14  1  0
 14  6  1  0
 15 16  2  0
 18 17  1  1
 18 19  1  0
 21 20  1  6
 20 18  1  0
 22 21  1  0
 22 15  1  0
 23 21  1  0
 24 23  2  0
 25 23  1  0
M  END
$$$$
