DNL.pdb
     RDKit          3D

 25 24  0  0  1  0  0  0  0  0999 V2000
   11.6552  -18.6771   21.5817 N   0  0  0  0  0  0  0  0  0  0  0  0
   11.9565  -17.3256   21.2328 C   0  0  1  0  0  0  0  0  0  0  0  0
   12.6723  -17.1693   19.9115 C   0  0  0  0  0  0  0  0  0  0  0  0
   14.0401  -17.6670   20.0050 C   0  0  0  0  0  0  0  0  0  0  0  0
   14.3971  -18.8345   19.7091 O   0  0  0  0  0  0  0  0  0  0  0  0
   10.7467  -16.4854   21.3099 C   0  0  0  0  0  0  0  0  0  0  0  0
   10.8527  -15.2455   20.9883 O   0  0  0  0  0  0  0  0  0  0  0  0
   15.0743  -16.8172   20.4571 O   0  0  0  0  0  0  0  0  0  0  0  0
    6.2583  -14.7132   21.0858 N   0  0  0  0  0  0  0  0  0  0  0  0
    5.9636  -16.0551   21.4757 C   0  0  0  0  0  0  0  0  0  0  0  0
    4.7986  -16.5157   21.4024 O   0  0  0  0  0  0  0  0  0  0  0  0
    7.0986  -16.8524   21.9608 C   0  0  0  0  0  0  0  0  0  0  0  0
    8.4022  -16.0898   21.8664 C   0  0  2  0  0  0  0  0  0  0  0  0
    9.5109  -17.0371   21.7276 N   0  0  0  0  0  0  0  0  0  0  0  0
    8.5643  -15.2061   23.0346 C   0  0  0  0  0  0  0  0  0  0  0  0
    8.6250  -13.9608   22.9000 O   0  0  0  0  0  0  0  0  0  0  0  0
    5.7543  -12.6664   26.9091 C   0  0  0  0  0  0  0  0  0  0  0  0
    7.2183  -13.0443   26.6354 C   0  0  2  0  0  0  0  0  0  0  0  0
    7.9775  -11.7935   26.3429 C   0  0  0  0  0  0  0  0  0  0  0  0
    7.3041  -13.9886   25.4741 C   0  0  0  0  0  0  0  0  0  0  0  0
    8.6151  -14.7381   25.5105 C   0  0  2  0  0  0  0  0  0  0  0  0
    8.6536  -15.6800   24.3683 N   0  0  0  0  0  0  0  0  0  0  0  0
    8.8973  -15.4045   26.7483 C   0  0  0  0  0  0  0  0  0  0  0  0
    8.5347  -16.6318   26.8898 O   0  0  0  0  0  0  0  0  0  0  0  0
    9.5479  -14.8557   27.8600 O   0  0  0  0  0  0  0  0  0  0  0  0
  2  1  1  6
  2  3  1  0
  3  4  1  0
  4  5  2  0
  6  2  1  0
  7  6  2  0
  8  4  1  0
  9 10  1  0
 10 12  1  0
 11 10  2  0
 13 12  1  1
 13 15  1  0
 13 14  1  0
 14  6  1  0
 15 16  2  0
 18 17  1  6
 18 19  1  0
 21 20  1  1
 20 18  1  0
 22 21  1  0
 22 15  1  0
 23 21  1  0
 24 23  2  0
 25 23  1  0
M  END
$$$$
