DNL.pdb
     RDKit          3D

 25 24  0  0  1  0  0  0  0  0999 V2000
    9.3987  -14.9744   19.8451 N   0  0  0  0  0  0  0  0  0  0  0  0
    8.1295  -15.1465   20.4764 C   0  0  1  0  0  0  0  0  0  0  0  0
    7.1096  -15.8760   19.6337 C   0  0  0  0  0  0  0  0  0  0  0  0
    7.6573  -17.1328   19.1359 C   0  0  0  0  0  0  0  0  0  0  0  0
    8.8000  -17.5740   19.4147 O   0  0  0  0  0  0  0  0  0  0  0  0
    8.2888  -15.7606   21.8079 C   0  0  0  0  0  0  0  0  0  0  0  0
    7.2282  -15.9890   22.4971 O   0  0  0  0  0  0  0  0  0  0  0  0
    6.8905  -17.9483   18.2739 O   0  0  0  0  0  0  0  0  0  0  0  0
   11.4309  -19.1022   21.8802 N   0  0  0  0  0  0  0  0  0  0  0  0
   10.5219  -18.8531   22.9533 C   0  0  0  0  0  0  0  0  0  0  0  0
    9.5717  -19.6348   23.1991 O   0  0  0  0  0  0  0  0  0  0  0  0
   10.7691  -17.6381   23.7420 C   0  0  0  0  0  0  0  0  0  0  0  0
    9.6156  -16.6631   23.6487 C   0  0  2  0  0  0  0  0  0  0  0  0
    9.5755  -16.0844   22.3036 N   0  0  0  0  0  0  0  0  0  0  0  0
    9.7288  -15.6339   24.6974 C   0  0  0  0  0  0  0  0  0  0  0  0
   10.6990  -14.8397   24.7218 O   0  0  0  0  0  0  0  0  0  0  0  0
    8.1689  -11.8366   25.7350 C   0  0  0  0  0  0  0  0  0  0  0  0
    7.2602  -13.0462   26.0038 C   0  0  2  0  0  0  0  0  0  0  0  0
    5.8750  -12.5465   26.2441 C   0  0  0  0  0  0  0  0  0  0  0  0
    7.7512  -13.8118   27.1956 C   0  0  0  0  0  0  0  0  0  0  0  0
    9.0338  -14.5341   26.8559 C   0  0  2  0  0  0  0  0  0  0  0  0
    8.7718  -15.4589   25.7291 N   0  0  0  0  0  0  0  0  0  0  0  0
    9.6565  -15.2117   27.9553 C   0  0  0  0  0  0  0  0  0  0  0  0
   10.0341  -14.5233   28.9758 O   0  0  0  0  0  0  0  0  0  0  0  0
    9.9076  -16.5857   28.0522 O   0  0  0  0  0  0  0  0  0  0  0  0
  2  1  1  6
  2  3  1  0
  3  4  1  0
  4  5  2  0
  6  2  1  0
  7  6  2  0
  8  4  1  0
  9 10  1  0
 10 12  1  0
 11 10  2  0
 13 12  1  6
 13 15  1  0
 13 14  1  0
 14  6  1  0
 15 16  2  0
 18 17  1  1
 18 19  1  0
 21 20  1  1
 20 18  1  0
 22 21  1  0
 22 15  1  0
 23 21  1  0
 24 23  2  0
 25 23  1  0
M  END
$$$$
