TRR.pdb
     RDKit          3D

 30 29  0  0  1  0  0  0  0  0999 V2000
    9.3280  -22.2115   22.8399 C   0  0  0  0  0  0  0  0  0  0  0  0
    9.1926  -20.7141   23.1217 C   0  0  1  0  0  0  0  0  0  0  0  0
    9.8944  -20.3843   24.2637 O   0  0  0  0  0  0  0  0  0  0  0  0
    9.6461  -19.8866   21.9623 C   0  0  2  0  0  0  0  0  0  0  0  0
   11.0897  -20.1060   21.7203 N   0  0  0  0  0  0  0  0  0  0  0  0
    9.3880  -18.4608   22.1936 C   0  0  0  0  0  0  0  0  0  0  0  0
   10.2310  -17.7686   22.8254 O   0  0  0  0  0  0  0  0  0  0  0  0
    7.9775  -12.7598   17.3578 N   0  0  0  0  0  0  0  0  0  0  0  0
    8.7206  -12.8026   18.5805 C   0  0  0  0  0  0  0  0  0  0  0  0
    9.7289  -12.0491   18.7285 N   0  0  0  0  0  0  0  0  0  0  0  0
    8.3305  -13.6781   19.6060 N   0  0  0  0  0  0  0  0  0  0  0  0
    7.3497  -13.2402   20.6489 C   0  0  0  0  0  0  0  0  0  0  0  0
    6.6269  -14.4459   21.0601 C   0  0  0  0  0  0  0  0  0  0  0  0
    7.1362  -15.8016   20.9855 C   0  0  0  0  0  0  0  0  0  0  0  0
    7.9510  -16.3953   22.0280 C   0  0  2  0  0  0  0  0  0  0  0  0
    8.2424  -17.8106   21.7403 N   0  0  0  0  0  0  0  0  0  0  0  0
    7.5469  -16.2058   23.4127 C   0  0  0  0  0  0  0  0  0  0  0  0
    6.5561  -16.7568   23.9160 O   0  0  0  0  0  0  0  0  0  0  0  0
   10.2771  -12.0488   19.5981 N   0  0  0  0  0  0  0  0  0  0  0  0
   11.2081  -16.7912   30.3634 C   0  0  0  0  0  0  0  0  0  0  0  0
   11.2215  -15.3876   30.0815 N   0  0  0  0  0  0  0  0  0  0  0  0
   12.3227  -14.7230   30.0399 N   0  0  0  0  0  0  0  0  0  0  0  0
    9.9968  -14.7178   29.8448 C   0  0  0  0  0  0  0  0  0  0  0  0
    9.8192  -13.8968   28.6700 C   0  0  0  0  0  0  0  0  0  0  0  0
    8.6506  -14.4521   27.8604 C   0  0  0  0  0  0  0  0  0  0  0  0
    9.0314  -14.6431   26.4252 C   0  0  2  0  0  0  0  0  0  0  0  0
    7.8558  -15.1618   25.6358 N   0  0  0  0  0  0  0  0  0  0  0  0
    8.3252  -15.3393   24.2675 C   0  0  0  0  0  0  0  0  0  0  0  0
    6.7524  -14.2024   25.6799 O   0  0  0  0  0  0  0  0  0  0  0  0
    5.9624  -14.0101   26.6314 O   0  0  0  0  0  0  0  0  0  0  0  0
  2  1  1  6
  2  3  1  0
  4  5  1  1
  4  2  1  0
  6  7  2  0
  6  4  1  0
  9  8  1  0
 10  9  2  0
 11  9  1  0
 12 11  1  0
 13 12  1  0
 13 14  1  0
 15 14  1  6
 15 17  1  0
 15 16  1  0
 16  6  1  0
 17 27  1  0
 18 17  2  0
 20 19  1  0
 20 22  1  0
 21 20  2  0
 23 22  1  0
 23 24  1  0
 24 25  1  0
 26 25  1  1
 26 28  1  0
 27 26  1  0
 28 29  2  0
 28 30  1  0
M  END
$$$$
