TRR.pdb
     RDKit          3D

 30 29  0  0  1  0  0  0  0  0999 V2000
   10.3539  -15.3687   18.9380 C   0  0  0  0  0  0  0  0  0  0  0  0
    9.8549  -13.9755   18.5505 C   0  0  1  0  0  0  0  0  0  0  0  0
   10.3934  -13.6034   17.3352 O   0  0  0  0  0  0  0  0  0  0  0  0
    8.3620  -13.9100   18.5120 C   0  0  2  0  0  0  0  0  0  0  0  0
    7.9274  -12.5663   18.0690 N   0  0  0  0  0  0  0  0  0  0  0  0
    7.7824  -14.2164   19.8247 C   0  0  0  0  0  0  0  0  0  0  0  0
    7.8760  -13.3760   20.7595 O   0  0  0  0  0  0  0  0  0  0  0  0
    3.3048  -21.3138   22.4271 N   0  0  0  0  0  0  0  0  0  0  0  0
    2.7509  -20.2340   21.6679 C   0  0  0  0  0  0  0  0  0  0  0  0
    1.7509  -20.4429   20.9177 N   0  0  0  0  0  0  0  0  0  0  0  0
    3.3180  -18.9532   21.7568 N   0  0  0  0  0  0  0  0  0  0  0  0
    4.5211  -18.7110   22.6144 C   0  0  0  0  0  0  0  0  0  0  0  0
    4.8373  -17.2872   22.4797 C   0  0  0  0  0  0  0  0  0  0  0  0
    5.4544  -16.6657   21.3239 C   0  0  0  0  0  0  0  0  0  0  0  0
    6.5539  -15.7257   21.4282 C   0  0  2  0  0  0  0  0  0  0  0  0
    7.1139  -15.4064   20.1034 N   0  0  0  0  0  0  0  0  0  0  0  0
    7.6035  -15.9954   22.3989 C   0  0  0  0  0  0  0  0  0  0  0  0
    8.5368  -16.7859   22.1930 O   0  0  0  0  0  0  0  0  0  0  0  0
    1.3380  -19.6916   20.3504 N   0  0  0  0  0  0  0  0  0  0  0  0
   10.8391  -14.3541   30.8617 C   0  0  0  0  0  0  0  0  0  0  0  0
   10.1474  -15.2255   29.9606 N   0  0  0  0  0  0  0  0  0  0  0  0
   10.4308  -16.4789   29.8907 N   0  0  0  0  0  0  0  0  0  0  0  0
    9.1313  -14.6959   29.1291 C   0  0  0  0  0  0  0  0  0  0  0  0
    9.4656  -13.9413   27.9439 C   0  0  0  0  0  0  0  0  0  0  0  0
    9.5912  -14.9089   26.7703 C   0  0  0  0  0  0  0  0  0  0  0  0
    8.4737  -14.7184   25.7924 C   0  0  2  0  0  0  0  0  0  0  0  0
    8.6336  -15.6588   24.6245 N   0  0  0  0  0  0  0  0  0  0  0  0
    7.5824  -15.3174   23.6745 C   0  0  0  0  0  0  0  0  0  0  0  0
    8.4945  -17.0460   25.0678 O   0  0  0  0  0  0  0  0  0  0  0  0
    7.4281  -17.6859   25.2077 O   0  0  0  0  0  0  0  0  0  0  0  0
  2  1  1  6
  2  3  1  0
  4  5  1  1
  4  2  1  0
  6  7  2  0
  6  4  1  0
  9  8  1  0
 10  9  2  0
 11  9  1  0
 12 11  1  0
 13 12  1  0
 13 14  1  0
 15 14  1  6
 15 17  1  0
 15 16  1  0
 16  6  1  0
 17 27  1  0
 18 17  2  0
 20 19  1  0
 20 22  1  0
 21 20  2  0
 23 22  1  0
 23 24  1  0
 24 25  1  0
 26 25  1  6
 26 28  1  0
 27 26  1  0
 28 29  2  0
 28 30  1  0
M  END
$$$$
