TRR.pdb
     RDKit          3D

 30 29  0  0  1  0  0  0  0  0999 V2000
    8.4964  -14.4026   27.2876 C   0  0  0  0  0  0  0  0  0  0  0  0
    7.4913  -13.3981   26.7213 C   0  0  1  0  0  0  0  0  0  0  0  0
    8.1566  -12.4010   26.0367 O   0  0  0  0  0  0  0  0  0  0  0  0
    6.4780  -14.0594   25.8436 C   0  0  2  0  0  0  0  0  0  0  0  0
    5.8392  -15.1812   26.5677 N   0  0  0  0  0  0  0  0  0  0  0  0
    7.0881  -14.5476   24.6017 C   0  0  0  0  0  0  0  0  0  0  0  0
    7.6824  -15.6592   24.5935 O   0  0  0  0  0  0  0  0  0  0  0  0
    7.6576  -13.4574   16.2170 N   0  0  0  0  0  0  0  0  0  0  0  0
    8.5958  -14.4661   16.6056 C   0  0  0  0  0  0  0  0  0  0  0  0
    9.4773  -14.8539   15.7815 N   0  0  0  0  0  0  0  0  0  0  0  0
    8.5336  -15.0206   17.8936 N   0  0  0  0  0  0  0  0  0  0  0  0
    7.4174  -14.6609   18.8242 C   0  0  0  0  0  0  0  0  0  0  0  0
    7.9522  -13.6379   19.7256 C   0  0  0  0  0  0  0  0  0  0  0  0
    7.4895  -13.3769   21.0749 C   0  0  0  0  0  0  0  0  0  0  0  0
    7.7525  -14.2725   22.1848 C   0  0  2  0  0  0  0  0  0  0  0  0
    7.0428  -13.8414   23.4017 N   0  0  0  0  0  0  0  0  0  0  0  0
    9.1334  -14.6295   22.4721 C   0  0  0  0  0  0  0  0  0  0  0  0
    9.9313  -13.8678   23.0392 O   0  0  0  0  0  0  0  0  0  0  0  0
   10.1885  -15.5489   16.0421 N   0  0  0  0  0  0  0  0  0  0  0  0
   10.4849  -20.4059   27.2507 C   0  0  0  0  0  0  0  0  0  0  0  0
    9.4184  -19.4998   26.9486 N   0  0  0  0  0  0  0  0  0  0  0  0
    8.4561  -19.2971   27.7787 N   0  0  0  0  0  0  0  0  0  0  0  0
    9.4232  -18.8138   25.7101 C   0  0  0  0  0  0  0  0  0  0  0  0
   10.3686  -19.1639   24.6758 C   0  0  0  0  0  0  0  0  0  0  0  0
   10.1755  -18.2126   23.4979 C   0  0  0  0  0  0  0  0  0  0  0  0
   11.0889  -17.0312   23.6036 C   0  0  1  0  0  0  0  0  0  0  0  0
   11.0330  -16.2111   22.3393 N   0  0  0  0  0  0  0  0  0  0  0  0
    9.6239  -15.9338   22.0908 C   0  0  0  0  0  0  0  0  0  0  0  0
   11.6139  -16.9585   21.2240 O   0  0  0  0  0  0  0  0  0  0  0  0
   11.0044  -17.4289   20.2373 O   0  0  0  0  0  0  0  0  0  0  0  0
  2  1  1  6
  2  3  1  0
  4  5  1  1
  4  2  1  0
  6  7  2  0
  6  4  1  0
  9  8  1  0
 10  9  2  0
 11  9  1  0
 12 11  1  0
 13 12  1  0
 13 14  1  0
 15 14  1  6
 15 17  1  0
 15 16  1  0
 16  6  1  0
 17 27  1  0
 18 17  2  0
 20 19  1  0
 20 22  1  0
 21 20  2  0
 23 22  1  0
 23 24  1  0
 24 25  1  0
 26 25  1  1
 26 28  1  0
 27 26  1  0
 28 29  2  0
 28 30  1  0
M  END
$$$$
