TRR.pdb
     RDKit          3D

 30 29  0  0  1  0  0  0  0  0999 V2000
    9.7977  -11.5126   19.8340 C   0  0  0  0  0  0  0  0  0  0  0  0
    8.4515  -12.1976   20.0758 C   0  0  1  0  0  0  0  0  0  0  0  0
    7.4337  -11.2664   20.0276 O   0  0  0  0  0  0  0  0  0  0  0  0
    8.2064  -13.3029   19.0997 C   0  0  2  0  0  0  0  0  0  0  0  0
    6.8580  -13.8747   19.3135 N   0  0  0  0  0  0  0  0  0  0  0  0
    9.2218  -14.3550   19.2219 C   0  0  0  0  0  0  0  0  0  0  0  0
    9.0486  -15.2970   20.0415 O   0  0  0  0  0  0  0  0  0  0  0  0
    9.0172  -15.3072   12.7339 N   0  0  0  0  0  0  0  0  0  0  0  0
    8.6473  -16.4701   13.4821 C   0  0  0  0  0  0  0  0  0  0  0  0
    7.6406  -17.1522   13.1245 N   0  0  0  0  0  0  0  0  0  0  0  0
    9.3985  -16.8470   14.6063 N   0  0  0  0  0  0  0  0  0  0  0  0
   10.0543  -15.8114   15.4659 C   0  0  0  0  0  0  0  0  0  0  0  0
   10.9147  -16.5420   16.3992 C   0  0  0  0  0  0  0  0  0  0  0  0
   11.8442  -15.9416   17.3364 C   0  0  0  0  0  0  0  0  0  0  0  0
   11.4332  -15.4068   18.6202 C   0  0  2  0  0  0  0  0  0  0  0  0
   10.3901  -14.3781   18.4636 N   0  0  0  0  0  0  0  0  0  0  0  0
   12.4649  -14.9811   19.5535 C   0  0  0  0  0  0  0  0  0  0  0  0
   13.1823  -13.9859   19.3703 O   0  0  0  0  0  0  0  0  0  0  0  0
    7.3941  -18.0333   13.5930 N   0  0  0  0  0  0  0  0  0  0  0  0
   10.8551  -19.2705   25.7264 C   0  0  0  0  0  0  0  0  0  0  0  0
   11.8405  -19.9737   24.9619 N   0  0  0  0  0  0  0  0  0  0  0  0
   11.7872  -21.2508   24.8132 N   0  0  0  0  0  0  0  0  0  0  0  0
   12.8955  -19.2477   24.3583 C   0  0  0  0  0  0  0  0  0  0  0  0
   12.9228  -17.8046   24.4097 C   0  0  0  0  0  0  0  0  0  0  0  0
   13.3111  -17.2758   23.0316 C   0  0  0  0  0  0  0  0  0  0  0  0
   13.3924  -15.7810   23.0308 C   0  0  1  0  0  0  0  0  0  0  0  0
   13.7418  -15.2760   21.6535 N   0  0  0  0  0  0  0  0  0  0  0  0
   12.6823  -15.7371   20.7653 C   0  0  0  0  0  0  0  0  0  0  0  0
   15.0359  -15.8111   21.2305 O   0  0  0  0  0  0  0  0  0  0  0  0
   15.2364  -16.7004   20.3731 O   0  0  0  0  0  0  0  0  0  0  0  0
  2  1  1  6
  2  3  1  0
  4  5  1  1
  4  2  1  0
  6  7  2  0
  6  4  1  0
  9  8  1  0
 10  9  2  0
 11  9  1  0
 12 11  1  0
 13 12  1  0
 13 14  1  0
 15 14  1  6
 15 17  1  0
 15 16  1  0
 16  6  1  0
 17 27  1  0
 18 17  2  0
 20 19  1  0
 20 22  1  0
 21 20  2  0
 23 22  1  0
 23 24  1  0
 24 25  1  0
 26 25  1  1
 26 28  1  0
 27 26  1  0
 28 29  2  0
 28 30  1  0
M  END
$$$$
