TRR.pdb
     RDKit          3D

 30 29  0  0  1  0  0  0  0  0999 V2000
    8.3216  -11.3917   26.1910 C   0  0  0  0  0  0  0  0  0  0  0  0
    7.1216  -12.0310   26.8921 C   0  0  1  0  0  0  0  0  0  0  0  0
    6.4611  -11.0860   27.6511 O   0  0  0  0  0  0  0  0  0  0  0  0
    6.1885  -12.6774   25.9194 C   0  0  2  0  0  0  0  0  0  0  0  0
    4.9984  -13.1956   26.6306 N   0  0  0  0  0  0  0  0  0  0  0  0
    6.8502  -13.7658   25.1910 C   0  0  0  0  0  0  0  0  0  0  0  0
    6.9151  -14.9135   25.7082 O   0  0  0  0  0  0  0  0  0  0  0  0
    8.9746  -12.4870   18.0831 N   0  0  0  0  0  0  0  0  0  0  0  0
    7.9015  -13.4301   18.1734 C   0  0  0  0  0  0  0  0  0  0  0  0
    6.7898  -13.1702   17.6230 N   0  0  0  0  0  0  0  0  0  0  0  0
    8.0853  -14.6342   18.8710 N   0  0  0  0  0  0  0  0  0  0  0  0
    9.3934  -14.9391   19.5322 C   0  0  0  0  0  0  0  0  0  0  0  0
    9.0833  -15.2313   20.9335 C   0  0  0  0  0  0  0  0  0  0  0  0
    8.4090  -14.3353   21.8529 C   0  0  0  0  0  0  0  0  0  0  0  0
    8.1866  -14.6601   23.2487 C   0  0  2  0  0  0  0  0  0  0  0  0
    7.4184  -13.6032   23.9295 N   0  0  0  0  0  0  0  0  0  0  0  0
    9.3240  -15.0901   24.0475 C   0  0  0  0  0  0  0  0  0  0  0  0
   10.1000  -14.3024   24.6096 O   0  0  0  0  0  0  0  0  0  0  0  0
    6.0296  -13.8614   17.5937 N   0  0  0  0  0  0  0  0  0  0  0  0
   12.5127  -20.5297   31.1328 C   0  0  0  0  0  0  0  0  0  0  0  0
   11.4493  -20.3072   30.2004 N   0  0  0  0  0  0  0  0  0  0  0  0
   10.2641  -20.7603   30.4151 N   0  0  0  0  0  0  0  0  0  0  0  0
   11.7086  -19.5740   29.0173 C   0  0  0  0  0  0  0  0  0  0  0  0
   10.6289  -19.1694   28.1477 C   0  0  0  0  0  0  0  0  0  0  0  0
   11.1969  -18.2715   27.0520 C   0  0  0  0  0  0  0  0  0  0  0  0
   10.1132  -17.7739   26.1469 C   0  0  1  0  0  0  0  0  0  0  0  0
   10.6911  -16.8755   25.0824 N   0  0  0  0  0  0  0  0  0  0  0  0
    9.5825  -16.5018   24.2132 C   0  0  0  0  0  0  0  0  0  0  0  0
   11.7214  -17.5853   24.3244 O   0  0  0  0  0  0  0  0  0  0  0  0
   12.9147  -17.7582   24.6596 O   0  0  0  0  0  0  0  0  0  0  0  0
  2  1  1  6
  2  3  1  0
  4  5  1  1
  4  2  1  0
  6  7  2  0
  6  4  1  0
  9  8  1  0
 10  9  2  0
 11  9  1  0
 12 11  1  0
 13 12  1  0
 13 14  1  0
 15 14  1  6
 15 17  1  0
 15 16  1  0
 16  6  1  0
 17 27  1  0
 18 17  2  0
 20 19  1  0
 20 22  1  0
 21 20  2  0
 23 22  1  0
 23 24  1  0
 24 25  1  0
 26 25  1  1
 26 28  1  0
 27 26  1  0
 28 29  2  0
 28 30  1  0
M  END
$$$$
