TRR.pdb
     RDKit          3D

 30 29  0  0  1  0  0  0  0  0999 V2000
    8.1818  -13.0407   26.8735 C   0  0  0  0  0  0  0  0  0  0  0  0
    7.8379  -14.3611   27.5652 C   0  0  1  0  0  0  0  0  0  0  0  0
    7.3927  -14.1184   28.8490 O   0  0  0  0  0  0  0  0  0  0  0  0
    6.8280  -15.1472   26.7928 C   0  0  2  0  0  0  0  0  0  0  0  0
    6.4535  -16.3651   27.5461 N   0  0  0  0  0  0  0  0  0  0  0  0
    7.3407  -15.5154   25.4682 C   0  0  0  0  0  0  0  0  0  0  0  0
    8.1202  -16.4992   25.3524 O   0  0  0  0  0  0  0  0  0  0  0  0
    8.9261  -12.6835   18.2852 N   0  0  0  0  0  0  0  0  0  0  0  0
    8.3737  -13.8112   17.5981 C   0  0  0  0  0  0  0  0  0  0  0  0
    8.8132  -14.1241   16.4512 N   0  0  0  0  0  0  0  0  0  0  0  0
    7.3493  -14.5617   18.1961 N   0  0  0  0  0  0  0  0  0  0  0  0
    6.6266  -14.0406   19.3993 C   0  0  0  0  0  0  0  0  0  0  0  0
    7.4417  -14.4143   20.5575 C   0  0  0  0  0  0  0  0  0  0  0  0
    7.0326  -14.3132   21.9450 C   0  0  0  0  0  0  0  0  0  0  0  0
    7.6774  -15.0536   23.0123 C   0  0  2  0  0  0  0  0  0  0  0  0
    7.0039  -14.8297   24.3033 N   0  0  0  0  0  0  0  0  0  0  0  0
    9.1234  -14.9591   23.1427 C   0  0  0  0  0  0  0  0  0  0  0  0
    9.6877  -14.2181   23.9618 O   0  0  0  0  0  0  0  0  0  0  0  0
    8.4457  -14.9349   15.9372 N   0  0  0  0  0  0  0  0  0  0  0  0
    9.6761  -17.3811   29.0458 C   0  0  0  0  0  0  0  0  0  0  0  0
   10.5957  -16.4441   28.4748 N   0  0  0  0  0  0  0  0  0  0  0  0
   10.4915  -15.1813   28.6995 N   0  0  0  0  0  0  0  0  0  0  0  0
   11.6404  -16.9179   27.6449 C   0  0  0  0  0  0  0  0  0  0  0  0
   11.3481  -17.5789   26.3945 C   0  0  0  0  0  0  0  0  0  0  0  0
   11.3029  -16.5287   25.2879 C   0  0  0  0  0  0  0  0  0  0  0  0
   10.9047  -17.1399   23.9805 C   0  0  2  0  0  0  0  0  0  0  0  0
   11.2395  -16.2081   22.8431 N   0  0  0  0  0  0  0  0  0  0  0  0
    9.9676  -15.7623   22.2885 C   0  0  0  0  0  0  0  0  0  0  0  0
   12.0250  -16.9094   21.8276 O   0  0  0  0  0  0  0  0  0  0  0  0
   11.7448  -18.0011   21.2836 O   0  0  0  0  0  0  0  0  0  0  0  0
  2  1  1  6
  2  3  1  0
  4  5  1  1
  4  2  1  0
  6  7  2  0
  6  4  1  0
  9  8  1  0
 10  9  2  0
 11  9  1  0
 12 11  1  0
 13 12  1  0
 13 14  1  0
 15 14  1  6
 15 17  1  0
 15 16  1  0
 16  6  1  0
 17 27  1  0
 18 17  2  0
 20 19  1  0
 20 22  1  0
 21 20  2  0
 23 22  1  0
 23 24  1  0
 24 25  1  0
 26 25  1  1
 26 28  1  0
 27 26  1  0
 28 29  2  0
 28 30  1  0
M  END
$$$$
