TRR.pdb
     RDKit          3D

 30 29  0  0  1  0  0  0  0  0999 V2000
    8.6640  -20.5902   19.5099 C   0  0  0  0  0  0  0  0  0  0  0  0
    8.8119  -19.4267   20.4920 C   0  0  1  0  0  0  0  0  0  0  0  0
    9.5184  -19.8364   21.6048 O   0  0  0  0  0  0  0  0  0  0  0  0
    9.4639  -18.2414   19.8561 C   0  0  2  0  0  0  0  0  0  0  0  0
   10.8279  -18.5976   19.4053 N   0  0  0  0  0  0  0  0  0  0  0  0
    9.5233  -17.1060   20.7837 C   0  0  0  0  0  0  0  0  0  0  0  0
   10.5478  -16.9375   21.4986 O   0  0  0  0  0  0  0  0  0  0  0  0
    8.7172  -12.7365   16.6205 N   0  0  0  0  0  0  0  0  0  0  0  0
    8.0763  -13.9384   17.0605 C   0  0  0  0  0  0  0  0  0  0  0  0
    8.2961  -15.0267   16.4491 N   0  0  0  0  0  0  0  0  0  0  0  0
    7.2083  -13.9051   18.1631 N   0  0  0  0  0  0  0  0  0  0  0  0
    7.2345  -12.7525   19.1182 C   0  0  0  0  0  0  0  0  0  0  0  0
    8.1364  -13.1437   20.2040 C   0  0  0  0  0  0  0  0  0  0  0  0
    7.7650  -13.9209   21.3705 C   0  0  0  0  0  0  0  0  0  0  0  0
    8.5501  -15.0405   21.8537 C   0  0  2  0  0  0  0  0  0  0  0  0
    8.4930  -16.1784   20.9195 N   0  0  0  0  0  0  0  0  0  0  0  0
    8.3633  -15.4721   23.2305 C   0  0  0  0  0  0  0  0  0  0  0  0
    7.3267  -16.0159   23.6405 O   0  0  0  0  0  0  0  0  0  0  0  0
    7.8779  -15.9125   16.7606 N   0  0  0  0  0  0  0  0  0  0  0  0
   11.5503  -19.8724   29.5099 C   0  0  0  0  0  0  0  0  0  0  0  0
   11.6709  -19.9752   28.0870 N   0  0  0  0  0  0  0  0  0  0  0  0
   11.8658  -21.1095   27.5112 N   0  0  0  0  0  0  0  0  0  0  0  0
   11.5744  -18.8035   27.2981 C   0  0  0  0  0  0  0  0  0  0  0  0
   11.3590  -18.8888   25.8725 C   0  0  0  0  0  0  0  0  0  0  0  0
   10.1609  -18.0161   25.5083 C   0  0  0  0  0  0  0  0  0  0  0  0
   10.3885  -16.5924   25.9112 C   0  0  2  0  0  0  0  0  0  0  0  0
    9.1942  -15.7472   25.5460 N   0  0  0  0  0  0  0  0  0  0  0  0
    9.4265  -15.2717   24.1880 C   0  0  0  0  0  0  0  0  0  0  0  0
    9.0687  -14.6203   26.4703 O   0  0  0  0  0  0  0  0  0  0  0  0
    9.2733  -13.4127   26.2137 O   0  0  0  0  0  0  0  0  0  0  0  0
  2  1  1  6
  2  3  1  0
  4  5  1  1
  4  2  1  0
  6  7  2  0
  6  4  1  0
  9  8  1  0
 10  9  2  0
 11  9  1  0
 12 11  1  0
 13 12  1  0
 13 14  1  0
 15 14  1  6
 15 17  1  0
 15 16  1  0
 16  6  1  0
 17 27  1  0
 18 17  2  0
 20 19  1  0
 20 22  1  0
 21 20  2  0
 23 22  1  0
 23 24  1  0
 24 25  1  0
 26 25  1  6
 26 28  1  0
 27 26  1  0
 28 29  2  0
 28 30  1  0
M  END
$$$$
