TRR.pdb
     RDKit          3D

 30 29  0  0  1  0  0  0  0  0999 V2000
   10.0882  -13.0522   21.4668 C   0  0  0  0  0  0  0  0  0  0  0  0
    9.3047  -14.2018   22.1028 C   0  0  1  0  0  0  0  0  0  0  0  0
    9.1440  -13.9715   23.4543 O   0  0  0  0  0  0  0  0  0  0  0  0
    7.9814  -14.4077   21.4385 C   0  0  2  0  0  0  0  0  0  0  0  0
    7.1896  -15.4066   22.1908 N   0  0  0  0  0  0  0  0  0  0  0  0
    8.1472  -14.8444   20.0475 C   0  0  0  0  0  0  0  0  0  0  0  0
    8.2642  -16.0726   19.7890 O   0  0  0  0  0  0  0  0  0  0  0  0
    9.6308  -14.8684   13.0226 N   0  0  0  0  0  0  0  0  0  0  0  0
    8.3404  -14.9428   12.4075 C   0  0  0  0  0  0  0  0  0  0  0  0
    8.2508  -15.1565   11.1614 N   0  0  0  0  0  0  0  0  0  0  0  0
    7.1839  -14.7772   13.1855 N   0  0  0  0  0  0  0  0  0  0  0  0
    7.2302  -14.9717   14.6692 C   0  0  0  0  0  0  0  0  0  0  0  0
    7.6225  -13.6800   15.2373 C   0  0  0  0  0  0  0  0  0  0  0  0
    7.8335  -13.4068   16.6458 C   0  0  0  0  0  0  0  0  0  0  0  0
    8.3414  -14.3994   17.5732 C   0  0  2  0  0  0  0  0  0  0  0  0
    8.1772  -13.9616   18.9703 N   0  0  0  0  0  0  0  0  0  0  0  0
    9.6686  -14.9477   17.3395 C   0  0  0  0  0  0  0  0  0  0  0  0
   10.7155  -14.3346   17.5977 O   0  0  0  0  0  0  0  0  0  0  0  0
    7.3492  -15.1048   10.6703 N   0  0  0  0  0  0  0  0  0  0  0  0
   15.2261  -15.4291   21.5612 C   0  0  0  0  0  0  0  0  0  0  0  0
   15.2832  -14.9215   20.2238 N   0  0  0  0  0  0  0  0  0  0  0  0
   16.0212  -13.9115   19.9214 N   0  0  0  0  0  0  0  0  0  0  0  0
   14.5103  -15.5439   19.2139 C   0  0  0  0  0  0  0  0  0  0  0  0
   13.8264  -16.7899   19.4700 C   0  0  0  0  0  0  0  0  0  0  0  0
   13.1023  -17.2182   18.1965 C   0  0  0  0  0  0  0  0  0  0  0  0
   11.7602  -16.5631   18.0930 C   0  0  1  0  0  0  0  0  0  0  0  0
   11.1402  -16.8484   16.7483 N   0  0  0  0  0  0  0  0  0  0  0  0
    9.8011  -16.2742   16.7825 C   0  0  0  0  0  0  0  0  0  0  0  0
   11.0746  -18.2912   16.5160 O   0  0  0  0  0  0  0  0  0  0  0  0
   10.6108  -19.1561   17.2925 O   0  0  0  0  0  0  0  0  0  0  0  0
  2  1  1  6
  2  3  1  0
  4  5  1  1
  4  2  1  0
  6  7  2  0
  6  4  1  0
  9  8  1  0
 10  9  2  0
 11  9  1  0
 12 11  1  0
 13 12  1  0
 13 14  1  0
 15 14  1  6
 15 17  1  0
 15 16  1  0
 16  6  1  0
 17 27  1  0
 18 17  2  0
 20 19  1  0
 20 22  1  0
 21 20  2  0
 23 22  1  0
 23 24  1  0
 24 25  1  0
 26 25  1  6
 26 28  1  0
 27 26  1  0
 28 29  2  0
 28 30  1  0
M  END
$$$$
