TRR.pdb
     RDKit          3D

 30 29  0  0  1  0  0  0  0  0999 V2000
   10.8174  -13.8348   18.4602 C   0  0  0  0  0  0  0  0  0  0  0  0
    9.5995  -12.9747   18.1181 C   0  0  1  0  0  0  0  0  0  0  0  0
    9.8533  -12.2281   16.9851 O   0  0  0  0  0  0  0  0  0  0  0  0
    8.3660  -13.8010   17.9440 C   0  0  2  0  0  0  0  0  0  0  0  0
    7.1954  -12.9208   17.7308 N   0  0  0  0  0  0  0  0  0  0  0  0
    8.1372  -14.6660   19.1069 C   0  0  0  0  0  0  0  0  0  0  0  0
    7.6260  -14.1828   20.1530 O   0  0  0  0  0  0  0  0  0  0  0  0
    5.3709  -22.2231   22.3575 N   0  0  0  0  0  0  0  0  0  0  0  0
    6.6000  -21.9131   23.0225 C   0  0  0  0  0  0  0  0  0  0  0  0
    6.8481  -22.4273   24.1541 N   0  0  0  0  0  0  0  0  0  0  0  0
    7.5210  -21.0419   22.4201 N   0  0  0  0  0  0  0  0  0  0  0  0
    7.0702  -20.0462   21.3969 C   0  0  0  0  0  0  0  0  0  0  0  0
    8.2748  -19.3361   20.9612 C   0  0  0  0  0  0  0  0  0  0  0  0
    8.3189  -18.2794   19.9691 C   0  0  0  0  0  0  0  0  0  0  0  0
    8.3104  -16.8715   20.3170 C   0  0  2  0  0  0  0  0  0  0  0  0
    8.4532  -16.0227   19.1213 N   0  0  0  0  0  0  0  0  0  0  0  0
    9.1764  -16.4214   21.3959 C   0  0  0  0  0  0  0  0  0  0  0  0
   10.3591  -16.0876   21.2276 O   0  0  0  0  0  0  0  0  0  0  0  0
    7.7168  -22.2167   24.6617 N   0  0  0  0  0  0  0  0  0  0  0  0
    9.6735  -16.5794   28.4375 C   0  0  0  0  0  0  0  0  0  0  0  0
    9.8799  -15.2781   28.9978 N   0  0  0  0  0  0  0  0  0  0  0  0
   10.5556  -15.1143   30.0807 N   0  0  0  0  0  0  0  0  0  0  0  0
    9.3278  -14.1488   28.3462 C   0  0  0  0  0  0  0  0  0  0  0  0
    8.5248  -14.3025   27.1556 C   0  0  0  0  0  0  0  0  0  0  0  0
    9.4260  -14.7766   26.0187 C   0  0  0  0  0  0  0  0  0  0  0  0
    8.6234  -15.3946   24.9164 C   0  0  1  0  0  0  0  0  0  0  0  0
    9.5162  -15.7502   23.7543 N   0  0  0  0  0  0  0  0  0  0  0  0
    8.6548  -16.3466   22.7412 C   0  0  0  0  0  0  0  0  0  0  0  0
   10.5451  -16.7001   24.1775 O   0  0  0  0  0  0  0  0  0  0  0  0
   11.6900  -16.4266   24.6026 O   0  0  0  0  0  0  0  0  0  0  0  0
  2  1  1  6
  2  3  1  0
  4  5  1  1
  4  2  1  0
  6  7  2  0
  6  4  1  0
  9  8  1  0
 10  9  2  0
 11  9  1  0
 12 11  1  0
 13 12  1  0
 13 14  1  0
 15 14  1  6
 15 17  1  0
 15 16  1  0
 16  6  1  0
 17 27  1  0
 18 17  2  0
 20 19  1  0
 20 22  1  0
 21 20  2  0
 23 22  1  0
 23 24  1  0
 24 25  1  0
 26 25  1  6
 26 28  1  0
 27 26  1  0
 28 29  2  0
 28 30  1  0
M  END
$$$$
