TRR.pdb
     RDKit          3D

 30 29  0  0  1  0  0  0  0  0999 V2000
   12.3555  -20.2562   21.0082 C   0  0  0  0  0  0  0  0  0  0  0  0
   13.3592  -19.3631   20.2766 C   0  0  1  0  0  0  0  0  0  0  0  0
   13.8784  -20.0325   19.1868 O   0  0  0  0  0  0  0  0  0  0  0  0
   12.7477  -18.0643   19.8598 C   0  0  2  0  0  0  0  0  0  0  0  0
   13.7469  -17.2452   19.1379 N   0  0  0  0  0  0  0  0  0  0  0  0
   12.2340  -17.3229   21.0172 C   0  0  0  0  0  0  0  0  0  0  0  0
   13.0417  -16.8022   21.8330 O   0  0  0  0  0  0  0  0  0  0  0  0
    8.3810  -13.4021   18.5892 N   0  0  0  0  0  0  0  0  0  0  0  0
    8.0831  -12.8727   19.8854 C   0  0  0  0  0  0  0  0  0  0  0  0
    8.3577  -11.6634   20.1474 N   0  0  0  0  0  0  0  0  0  0  0  0
    7.4917  -13.6944   20.8576 N   0  0  0  0  0  0  0  0  0  0  0  0
    7.2014  -15.1334   20.5641 C   0  0  0  0  0  0  0  0  0  0  0  0
    8.4079  -15.8763   20.9354 C   0  0  0  0  0  0  0  0  0  0  0  0
    9.1622  -15.7018   22.1615 C   0  0  0  0  0  0  0  0  0  0  0  0
   10.3575  -16.4645   22.4663 C   0  0  2  0  0  0  0  0  0  0  0  0
   10.8749  -17.1514   21.2700 N   0  0  0  0  0  0  0  0  0  0  0  0
   10.3366  -17.3493   23.6210 C   0  0  0  0  0  0  0  0  0  0  0  0
   10.1142  -18.5671   23.5437 O   0  0  0  0  0  0  0  0  0  0  0  0
    8.2445  -11.2792   21.0941 N   0  0  0  0  0  0  0  0  0  0  0  0
   11.7247  -20.2132   31.4224 C   0  0  0  0  0  0  0  0  0  0  0  0
   12.5222  -19.0418   31.2179 N   0  0  0  0  0  0  0  0  0  0  0  0
   13.7765  -19.0268   31.5052 N   0  0  0  0  0  0  0  0  0  0  0  0
   11.9168  -17.8763   30.6893 C   0  0  0  0  0  0  0  0  0  0  0  0
   12.3600  -17.3189   29.4328 C   0  0  0  0  0  0  0  0  0  0  0  0
   11.5944  -17.9997   28.3015 C   0  0  0  0  0  0  0  0  0  0  0  0
   11.3247  -17.0438   27.1813 C   0  0  2  0  0  0  0  0  0  0  0  0
   10.6267  -17.7502   26.0465 N   0  0  0  0  0  0  0  0  0  0  0  0
   10.5886  -16.8069   24.9361 C   0  0  0  0  0  0  0  0  0  0  0  0
    9.2712  -18.1312   26.4435 O   0  0  0  0  0  0  0  0  0  0  0  0
    8.2084  -17.5403   26.1476 O   0  0  0  0  0  0  0  0  0  0  0  0
  2  1  1  6
  2  3  1  0
  4  5  1  1
  4  2  1  0
  6  7  2  0
  6  4  1  0
  9  8  1  0
 10  9  2  0
 11  9  1  0
 12 11  1  0
 13 12  1  0
 13 14  1  0
 15 14  1  6
 15 17  1  0
 15 16  1  0
 16  6  1  0
 17 27  1  0
 18 17  2  0
 20 19  1  0
 20 22  1  0
 21 20  2  0
 23 22  1  0
 23 24  1  0
 24 25  1  0
 26 25  1  6
 26 28  1  0
 27 26  1  0
 28 29  2  0
 28 30  1  0
M  END
$$$$
