TRR.pdb
     RDKit          3D

 30 29  0  0  1  0  0  0  0  0999 V2000
    6.2827  -10.3308   26.8979 C   0  0  0  0  0  0  0  0  0  0  0  0
    6.9329  -11.5303   26.2062 C   0  0  1  0  0  0  0  0  0  0  0  0
    7.5926  -12.3092   27.1354 O   0  0  0  0  0  0  0  0  0  0  0  0
    5.9345  -12.3424   25.4457 C   0  0  2  0  0  0  0  0  0  0  0  0
    4.9947  -12.9947   26.3849 N   0  0  0  0  0  0  0  0  0  0  0  0
    6.5955  -13.3548   24.6144 C   0  0  0  0  0  0  0  0  0  0  0  0
    6.7165  -14.5334   25.0448 O   0  0  0  0  0  0  0  0  0  0  0  0
    9.8510  -15.5072   17.0648 N   0  0  0  0  0  0  0  0  0  0  0  0
    8.7322  -14.6255   16.9238 C   0  0  0  0  0  0  0  0  0  0  0  0
    8.6637  -13.8544   15.9202 N   0  0  0  0  0  0  0  0  0  0  0  0
    7.7203  -14.6181   17.8966 N   0  0  0  0  0  0  0  0  0  0  0  0
    7.8898  -15.3747   19.1773 C   0  0  0  0  0  0  0  0  0  0  0  0
    8.5414  -14.4537   20.1113 C   0  0  0  0  0  0  0  0  0  0  0  0
    7.8704  -13.6732   21.1328 C   0  0  0  0  0  0  0  0  0  0  0  0
    7.7819  -14.0973   22.5169 C   0  0  2  0  0  0  0  0  0  0  0  0
    7.1033  -13.0856   23.3454 N   0  0  0  0  0  0  0  0  0  0  0  0
    8.9853  -14.5961   23.1648 C   0  0  0  0  0  0  0  0  0  0  0  0
    9.8958  -13.8594   23.5732 O   0  0  0  0  0  0  0  0  0  0  0  0
    7.8366  -13.2691   15.7472 N   0  0  0  0  0  0  0  0  0  0  0  0
   10.1954  -16.8719   29.9409 C   0  0  0  0  0  0  0  0  0  0  0  0
   11.2388  -17.5609   29.2435 N   0  0  0  0  0  0  0  0  0  0  0  0
   12.1059  -18.2753   29.8711 N   0  0  0  0  0  0  0  0  0  0  0  0
   11.3177  -17.4524   27.8341 C   0  0  0  0  0  0  0  0  0  0  0  0
   10.9700  -18.5691   26.9868 C   0  0  0  0  0  0  0  0  0  0  0  0
   11.2417  -18.1821   25.5357 C   0  0  0  0  0  0  0  0  0  0  0  0
   10.0169  -17.6107   24.8917 C   0  0  1  0  0  0  0  0  0  0  0  0
   10.3879  -16.4628   23.9868 N   0  0  0  0  0  0  0  0  0  0  0  0
    9.1506  -16.0183   23.3578 C   0  0  0  0  0  0  0  0  0  0  0  0
   11.3484  -16.9042   22.9755 O   0  0  0  0  0  0  0  0  0  0  0  0
   11.0939  -17.2576   21.8023 O   0  0  0  0  0  0  0  0  0  0  0  0
  2  1  1  1
  2  3  1  0
  4  5  1  1
  4  2  1  0
  6  7  2  0
  6  4  1  0
  9  8  1  0
 10  9  2  0
 11  9  1  0
 12 11  1  0
 13 12  1  0
 13 14  1  0
 15 14  1  6
 15 17  1  0
 15 16  1  0
 16  6  1  0
 17 27  1  0
 18 17  2  0
 20 19  1  0
 20 22  1  0
 21 20  2  0
 23 22  1  0
 23 24  1  0
 24 25  1  0
 26 25  1  1
 26 28  1  0
 27 26  1  0
 28 29  2  0
 28 30  1  0
M  END
$$$$
