FRG.pdb
     RDKit          3D

 27 27  0  0  1  0  0  0  0  0999 V2000
   16.6257  -13.5182    7.3934 N   0  0  0  0  0  0  0  0  0  0  0  0
   17.3360  -14.2237    6.3618 C   0  0  1  0  0  0  0  0  0  0  0  0
   18.7677  -14.3888    6.8189 C   0  0  0  0  0  0  0  0  0  0  0  0
   19.5938  -13.2044    6.5246 C   0  0  0  0  0  0  0  0  0  0  0  0
   20.6938  -12.8490    7.2917 C   0  0  0  0  0  0  0  0  0  0  0  0
   21.3938  -11.7260    6.9293 C   0  0  0  0  0  0  0  0  0  0  0  0
   21.0429  -10.9498    5.8407 C   0  0  0  0  0  0  0  0  0  0  0  0
   19.9482  -11.2972    5.0712 C   0  0  0  0  0  0  0  0  0  0  0  0
   19.2400  -12.4303    5.4350 C   0  0  0  0  0  0  0  0  0  0  0  0
   16.7739  -15.6202    6.2595 C   0  0  0  0  0  0  0  0  0  0  0  0
   16.2636  -16.1515    7.2765 O   0  0  0  0  0  0  0  0  0  0  0  0
   13.1730  -21.1731    2.7994 N   0  0  0  0  0  0  0  0  0  0  0  0
   14.2016  -21.9927    2.2196 C   0  0  0  0  0  0  0  0  0  0  0  0
   14.0326  -23.2622    2.0858 N   0  0  0  0  0  0  0  0  0  0  0  0
   15.4196  -21.4225    1.7846 N   0  0  0  0  0  0  0  0  0  0  0  0
   15.7114  -20.0207    1.9060 C   0  0  0  0  0  0  0  0  0  0  0  0
   15.7850  -19.6074    3.3642 C   0  0  0  0  0  0  0  0  0  0  0  0
   16.2539  -18.1812    3.4849 C   0  0  0  0  0  0  0  0  0  0  0  0
   16.4727  -17.7254    4.8849 C   0  0  2  0  0  0  0  0  0  0  0  0
   16.8118  -16.3408    5.0389 N   0  0  0  0  0  0  0  0  0  0  0  0
   17.3579  -18.6233    5.6900 C   0  0  0  0  0  0  0  0  0  0  0  0
   18.6031  -18.5403    5.6250 O   0  0  0  0  0  0  0  0  0  0  0  0
   14.7346  -23.8594    1.6062 N   0  0  0  0  0  0  0  0  0  0  0  0
   16.8210  -19.5954    6.5514 C   0  0  0  0  0  0  0  0  0  0  0  0
   17.6477  -20.5735    7.2539 C   0  0  0  0  0  0  0  0  0  0  0  0
   16.8568  -21.4752    8.0885 O   0  0  0  0  0  0  0  0  0  0  0  0
   15.6127  -21.3280    8.1740 O   0  0  0  0  0  0  0  0  0  0  0  0
  2  1  1  1
  2  3  1  0
  2 10  1  0
  4  3  1  0
  4  5  2  0
  6  5  1  0
  7  6  2  0
  8  9  2  0
  8  7  1  0
  9  4  1  0
 10 11  2  0
 13 15  1  0
 13 12  1  0
 14 13  2  0
 16 15  1  0
 17 16  1  0
 17 18  1  0
 19 18  1  6
 20 19  1  0
 20 10  1  0
 21 22  2  0
 21 19  1  0
 23 21  1  0
 24 23  1  0
 24 25  1  0
 25 27  1  0
 26 25  2  0
M  END
$$$$
