FRG.pdb
     RDKit          3D

 27 27  0  0  1  0  0  0  0  0999 V2000
   29.0550  -21.8521  -13.8981 N   0  0  0  0  0  0  0  0  0  0  0  0
   28.0956  -21.6396  -12.8490 C   0  0  1  0  0  0  0  0  0  0  0  0
   28.6831  -20.6344  -11.8844 C   0  0  0  0  0  0  0  0  0  0  0  0
   29.7627  -21.2073  -11.0610 C   0  0  0  0  0  0  0  0  0  0  0  0
   31.0970  -21.1623  -11.4385 C   0  0  0  0  0  0  0  0  0  0  0  0
   32.0220  -21.7267  -10.5969 C   0  0  0  0  0  0  0  0  0  0  0  0
   31.6716  -22.3293   -9.4033 C   0  0  0  0  0  0  0  0  0  0  0  0
   30.3443  -22.3782   -9.0199 C   0  0  0  0  0  0  0  0  0  0  0  0
   29.4087  -21.8092   -9.8677 C   0  0  0  0  0  0  0  0  0  0  0  0
   26.8754  -20.9771  -13.4398 C   0  0  0  0  0  0  0  0  0  0  0  0
   27.0221  -19.9865  -14.1974 O   0  0  0  0  0  0  0  0  0  0  0  0
   22.8355  -19.8586  -19.3584 N   0  0  0  0  0  0  0  0  0  0  0  0
   23.8750  -20.7929  -19.0231 C   0  0  0  0  0  0  0  0  0  0  0  0
   24.9326  -20.8882  -19.7514 N   0  0  0  0  0  0  0  0  0  0  0  0
   23.7579  -21.6263  -17.8874 N   0  0  0  0  0  0  0  0  0  0  0  0
   22.5660  -21.6907  -17.0873 C   0  0  0  0  0  0  0  0  0  0  0  0
   22.7888  -21.0467  -15.7315 C   0  0  0  0  0  0  0  0  0  0  0  0
   24.0987  -21.4992  -15.1417 C   0  0  0  0  0  0  0  0  0  0  0  0
   24.3651  -20.9800  -13.7724 C   0  0  2  0  0  0  0  0  0  0  0  0
   25.5700  -21.4523  -13.1552 N   0  0  0  0  0  0  0  0  0  0  0  0
   23.1876  -21.0474  -12.8520 C   0  0  0  0  0  0  0  0  0  0  0  0
   22.8360  -22.1224  -12.3206 O   0  0  0  0  0  0  0  0  0  0  0  0
   25.6802  -21.5786  -19.5416 N   0  0  0  0  0  0  0  0  0  0  0  0
   22.4316  -19.9017  -12.5499 C   0  0  0  0  0  0  0  0  0  0  0  0
   21.3563  -19.9014  -11.5613 C   0  0  0  0  0  0  0  0  0  0  0  0
   20.1272  -20.5025  -12.0741 O   0  0  0  0  0  0  0  0  0  0  0  0
   20.0874  -20.9582  -13.2435 O   0  0  0  0  0  0  0  0  0  0  0  0
  2  1  1  6
  2  3  1  0
  2 10  1  0
  4  3  1  0
  4  5  2  0
  6  5  1  0
  7  6  2  0
  8  9  2  0
  8  7  1  0
  9  4  1  0
 10 11  2  0
 13 15  1  0
 13 12  1  0
 14 13  2  0
 16 15  1  0
 17 16  1  0
 17 18  1  0
 19 18  1  6
 20 19  1  0
 20 10  1  0
 21 22  2  0
 21 19  1  0
 23 21  1  0
 24 23  1  0
 24 25  1  0
 25 27  1  0
 26 25  2  0
M  END
$$$$
