FRG.pdb
     RDKit          3D

 27 27  0  0  1  0  0  0  0  0999 V2000
   33.9337  -35.2197   -5.9634 N   0  0  0  0  0  0  0  0  0  0  0  0
   32.9046  -35.7580   -5.1164 C   0  0  1  0  0  0  0  0  0  0  0  0
   33.4612  -35.8439   -3.7133 C   0  0  0  0  0  0  0  0  0  0  0  0
   34.4466  -36.9293   -3.5629 C   0  0  0  0  0  0  0  0  0  0  0  0
   34.0837  -38.2668   -3.4974 C   0  0  0  0  0  0  0  0  0  0  0  0
   35.0823  -39.1971   -3.3568 C   0  0  0  0  0  0  0  0  0  0  0  0
   36.4177  -38.8489   -3.2795 C   0  0  0  0  0  0  0  0  0  0  0  0
   36.7877  -37.5185   -3.3440 C   0  0  0  0  0  0  0  0  0  0  0  0
   35.7815  -36.5775   -3.4859 C   0  0  0  0  0  0  0  0  0  0  0  0
   31.7698  -34.7658   -5.0480 C   0  0  0  0  0  0  0  0  0  0  0  0
   32.0295  -33.5373   -5.0382 O   0  0  0  0  0  0  0  0  0  0  0  0
   24.8102  -33.2162   -9.8955 N   0  0  0  0  0  0  0  0  0  0  0  0
   24.6664  -32.3475   -8.7594 C   0  0  0  0  0  0  0  0  0  0  0  0
   23.7240  -31.4709   -8.7179 N   0  0  0  0  0  0  0  0  0  0  0  0
   25.5559  -32.4373   -7.6646 N   0  0  0  0  0  0  0  0  0  0  0  0
   26.7408  -33.2500   -7.6876 C   0  0  0  0  0  0  0  0  0  0  0  0
   27.4153  -33.2621   -6.3283 C   0  0  0  0  0  0  0  0  0  0  0  0
   28.5825  -34.2139   -6.3275 C   0  0  0  0  0  0  0  0  0  0  0  0
   29.2753  -34.3314   -5.0153 C   0  0  2  0  0  0  0  0  0  0  0  0
   30.4195  -35.1953   -4.9949 N   0  0  0  0  0  0  0  0  0  0  0  0
   28.3583  -34.5705   -3.8577 C   0  0  0  0  0  0  0  0  0  0  0  0
   28.0305  -35.7263   -3.5135 O   0  0  0  0  0  0  0  0  0  0  0  0
   23.6323  -30.8042   -7.9264 N   0  0  0  0  0  0  0  0  0  0  0  0
   27.8304  -33.5021   -3.1126 C   0  0  0  0  0  0  0  0  0  0  0  0
   26.8589  -33.6906   -2.0382 C   0  0  0  0  0  0  0  0  0  0  0  0
   27.4966  -33.9279   -0.7451 O   0  0  0  0  0  0  0  0  0  0  0  0
   28.7336  -34.1337   -0.6795 O   0  0  0  0  0  0  0  0  0  0  0  0
  2  1  1  6
  2  3  1  0
  2 10  1  0
  4  3  1  0
  4  5  2  0
  6  5  1  0
  7  6  2  0
  8  9  2  0
  8  7  1  0
  9  4  1  0
 10 11  2  0
 13 15  1  0
 13 12  1  0
 14 13  2  0
 16 15  1  0
 17 16  1  0
 17 18  1  0
 19 18  1  6
 20 19  1  0
 20 10  1  0
 21 22  2  0
 21 19  1  0
 23 21  1  0
 24 23  1  0
 24 25  1  0
 25 27  1  0
 26 25  2  0
M  END
$$$$
