FRG.pdb
     RDKit          3D

 27 27  0  0  1  0  0  0  0  0999 V2000
   21.0759  -18.6211  -14.8664 N   0  0  0  0  0  0  0  0  0  0  0  0
   21.8319  -19.7911  -15.2208 C   0  0  1  0  0  0  0  0  0  0  0  0
   21.9438  -19.8279  -16.7282 C   0  0  0  0  0  0  0  0  0  0  0  0
   20.6599  -20.1387  -17.3816 C   0  0  0  0  0  0  0  0  0  0  0  0
   20.1661  -21.4310  -17.4861 C   0  0  0  0  0  0  0  0  0  0  0  0
   18.9595  -21.6087  -18.1146 C   0  0  0  0  0  0  0  0  0  0  0  0
   18.2318  -20.5568  -18.6386 C   0  0  0  0  0  0  0  0  0  0  0  0
   18.7169  -19.2662  -18.5386 C   0  0  0  0  0  0  0  0  0  0  0  0
   19.9346  -19.0843  -17.9047 C   0  0  0  0  0  0  0  0  0  0  0  0
   23.2415  -19.6267  -14.7083 C   0  0  0  0  0  0  0  0  0  0  0  0
   23.7288  -18.4732  -14.6140 O   0  0  0  0  0  0  0  0  0  0  0  0
   24.5687  -21.9804   -8.5158 N   0  0  0  0  0  0  0  0  0  0  0  0
   24.2582  -20.6567   -8.9820 C   0  0  0  0  0  0  0  0  0  0  0  0
   23.0778  -20.1659   -8.8276 N   0  0  0  0  0  0  0  0  0  0  0  0
   25.2417  -19.8666   -9.6196 N   0  0  0  0  0  0  0  0  0  0  0  0
   26.4980  -20.3992  -10.0700 C   0  0  0  0  0  0  0  0  0  0  0  0
   26.6054  -20.3275  -11.5820 C   0  0  0  0  0  0  0  0  0  0  0  0
   25.3135  -20.7611  -12.2234 C   0  0  0  0  0  0  0  0  0  0  0  0
   25.3133  -20.6867  -13.7100 C   0  0  2  0  0  0  0  0  0  0  0  0
   24.0230  -20.7486  -14.3324 N   0  0  0  0  0  0  0  0  0  0  0  0
   26.3089  -21.5884  -14.3685 C   0  0  0  0  0  0  0  0  0  0  0  0
   26.4111  -22.7918  -14.0475 O   0  0  0  0  0  0  0  0  0  0  0  0
   22.8153  -19.2402   -9.2196 N   0  0  0  0  0  0  0  0  0  0  0  0
   27.1680  -21.1148  -15.3750 C   0  0  0  0  0  0  0  0  0  0  0  0
   27.1103  -19.7476  -15.8858 C   0  0  0  0  0  0  0  0  0  0  0  0
   28.1250  -19.4899  -16.9052 O   0  0  0  0  0  0  0  0  0  0  0  0
   29.0354  -20.3286  -17.1161 O   0  0  0  0  0  0  0  0  0  0  0  0
  2  1  1  6
  2  3  1  0
  2 10  1  0
  4  3  1  0
  4  5  2  0
  6  5  1  0
  7  6  2  0
  8  9  2  0
  8  7  1  0
  9  4  1  0
 10 11  2  0
 13 15  1  0
 13 12  1  0
 14 13  2  0
 16 15  1  0
 17 16  1  0
 17 18  1  0
 19 18  1  1
 20 19  1  0
 20 10  1  0
 21 22  2  0
 21 19  1  0
 23 21  1  0
 24 23  1  0
 24 25  1  0
 25 27  1  0
 26 25  2  0
M  END
$$$$
