FRG.pdb
     RDKit          3D

 27 27  0  0  1  0  0  0  0  0999 V2000
   28.6094  -20.7547   -8.9910 N   0  0  0  0  0  0  0  0  0  0  0  0
   27.2018  -20.6961   -8.7057 C   0  0  1  0  0  0  0  0  0  0  0  0
   26.9420  -19.4252   -7.9289 C   0  0  0  0  0  0  0  0  0  0  0  0
   27.5266  -19.4612   -6.5766 C   0  0  0  0  0  0  0  0  0  0  0  0
   26.8658  -20.0147   -5.4894 C   0  0  0  0  0  0  0  0  0  0  0  0
   27.5017  -19.9959   -4.2738 C   0  0  0  0  0  0  0  0  0  0  0  0
   28.7603  -19.4512   -4.1010 C   0  0  0  0  0  0  0  0  0  0  0  0
   29.4253  -18.8978   -5.1792 C   0  0  0  0  0  0  0  0  0  0  0  0
   28.7856  -18.9156   -6.4074 C   0  0  0  0  0  0  0  0  0  0  0  0
   26.4531  -20.5425  -10.0067 C   0  0  0  0  0  0  0  0  0  0  0  0
   26.7268  -19.5767  -10.7610 O   0  0  0  0  0  0  0  0  0  0  0  0
   23.9983  -19.5521  -15.5808 N   0  0  0  0  0  0  0  0  0  0  0  0
   23.9111  -20.7310  -16.3985 C   0  0  0  0  0  0  0  0  0  0  0  0
   23.1104  -20.7739  -17.4061 N   0  0  0  0  0  0  0  0  0  0  0  0
   24.7022  -21.8673  -16.1137 N   0  0  0  0  0  0  0  0  0  0  0  0
   25.2852  -22.1076  -14.8225 C   0  0  0  0  0  0  0  0  0  0  0  0
   24.2322  -22.5636  -13.8296 C   0  0  0  0  0  0  0  0  0  0  0  0
   24.8254  -22.6848  -12.4505 C   0  0  0  0  0  0  0  0  0  0  0  0
   24.7351  -21.4433  -11.6343 C   0  0  2  0  0  0  0  0  0  0  0  0
   25.4490  -21.4670  -10.3911 N   0  0  0  0  0  0  0  0  0  0  0  0
   23.3461  -20.9080  -11.4852 C   0  0  0  0  0  0  0  0  0  0  0  0
   22.6127  -21.2536  -10.5343 O   0  0  0  0  0  0  0  0  0  0  0  0
   23.0516  -21.6084  -18.0222 N   0  0  0  0  0  0  0  0  0  0  0  0
   22.8134  -19.9944  -12.4109 C   0  0  0  0  0  0  0  0  0  0  0  0
   21.4561  -19.4645  -12.3081 C   0  0  0  0  0  0  0  0  0  0  0  0
   20.4543  -20.3929  -12.8275 O   0  0  0  0  0  0  0  0  0  0  0  0
   20.8058  -21.3750  -13.5264 O   0  0  0  0  0  0  0  0  0  0  0  0
  2  1  1  6
  2  3  1  0
  2 10  1  0
  4  3  1  0
  4  5  2  0
  6  5  1  0
  7  6  2  0
  8  9  2  0
  8  7  1  0
  9  4  1  0
 10 11  2  0
 13 15  1  0
 13 12  1  0
 14 13  2  0
 16 15  1  0
 17 16  1  0
 17 18  1  0
 19 18  1  1
 20 19  1  0
 20 10  1  0
 21 22  2  0
 21 19  1  0
 23 21  1  0
 24 23  1  0
 24 25  1  0
 25 27  1  0
 26 25  2  0
M  END
$$$$
