FRG.pdb
     RDKit          3D

 27 27  0  0  1  0  0  0  0  0999 V2000
   28.2555  -20.7603   -9.3456 N   0  0  0  0  0  0  0  0  0  0  0  0
   26.8370  -20.8248   -9.1223 C   0  0  1  0  0  0  0  0  0  0  0  0
   26.4419  -19.6083   -8.3161 C   0  0  0  0  0  0  0  0  0  0  0  0
   27.0848  -19.5772   -6.9903 C   0  0  0  0  0  0  0  0  0  0  0  0
   28.0770  -18.6655   -6.6601 C   0  0  0  0  0  0  0  0  0  0  0  0
   28.6086  -18.7241   -5.3966 C   0  0  0  0  0  0  0  0  0  0  0  0
   28.1928  -19.6487   -4.4570 C   0  0  0  0  0  0  0  0  0  0  0  0
   27.2047  -20.5606   -4.7781 C   0  0  0  0  0  0  0  0  0  0  0  0
   26.6666  -20.5034   -6.0529 C   0  0  0  0  0  0  0  0  0  0  0  0
   26.1340  -20.6837  -10.4499 C   0  0  0  0  0  0  0  0  0  0  0  0
   26.3035  -19.6386  -11.1251 O   0  0  0  0  0  0  0  0  0  0  0  0
   25.7573  -19.1323  -16.8093 N   0  0  0  0  0  0  0  0  0  0  0  0
   24.9309  -20.2205  -17.2555 C   0  0  0  0  0  0  0  0  0  0  0  0
   24.1127  -20.0642  -18.2374 N   0  0  0  0  0  0  0  0  0  0  0  0
   24.9991  -21.4841  -16.6258 N   0  0  0  0  0  0  0  0  0  0  0  0
   25.4785  -21.6611  -15.2828 C   0  0  0  0  0  0  0  0  0  0  0  0
   24.6865  -22.7365  -14.5626 C   0  0  0  0  0  0  0  0  0  0  0  0
   25.1399  -22.8558  -13.1313 C   0  0  0  0  0  0  0  0  0  0  0  0
   24.7029  -21.7344  -12.2555 C   0  0  2  0  0  0  0  0  0  0  0  0
   25.2879  -21.7074  -10.9467 N   0  0  0  0  0  0  0  0  0  0  0  0
   23.2222  -21.5233  -12.2238 C   0  0  0  0  0  0  0  0  0  0  0  0
   22.4835  -22.1964  -11.4735 O   0  0  0  0  0  0  0  0  0  0  0  0
   23.4756  -20.8254  -18.5443 N   0  0  0  0  0  0  0  0  0  0  0  0
   22.6055  -20.5579  -13.0381 C   0  0  0  0  0  0  0  0  0  0  0  0
   21.1551  -20.4374  -13.1626 C   0  0  0  0  0  0  0  0  0  0  0  0
   20.5153  -20.0748  -11.8999 O   0  0  0  0  0  0  0  0  0  0  0  0
   20.8307  -19.0090  -11.3156 O   0  0  0  0  0  0  0  0  0  0  0  0
  2  1  1  6
  2  3  1  0
  2 10  1  0
  4  3  1  0
  4  5  2  0
  6  5  1  0
  7  6  2  0
  8  9  2  0
  8  7  1  0
  9  4  1  0
 10 11  2  0
 13 15  1  0
 13 12  1  0
 14 13  2  0
 16 15  1  0
 17 16  1  0
 17 18  1  0
 19 18  1  1
 20 19  1  0
 20 10  1  0
 21 22  2  0
 21 19  1  0
 23 21  1  0
 24 23  1  0
 24 25  1  0
 25 27  1  0
 26 25  2  0
M  END
$$$$
