FRG.pdb
     RDKit          3D

 27 27  0  0  1  0  0  0  0  0999 V2000
   27.5108  -18.2475  -17.2502 N   0  0  0  0  0  0  0  0  0  0  0  0
   26.5948  -17.9964  -16.1713 C   0  0  1  0  0  0  0  0  0  0  0  0
   25.7644  -16.7891  -16.5438 C   0  0  0  0  0  0  0  0  0  0  0  0
   26.4898  -15.5220  -16.3435 C   0  0  0  0  0  0  0  0  0  0  0  0
   26.8919  -15.0788  -15.0918 C   0  0  0  0  0  0  0  0  0  0  0  0
   27.5617  -13.8836  -15.0182 C   0  0  0  0  0  0  0  0  0  0  0  0
   27.8439  -13.1192  -16.1347 C   0  0  0  0  0  0  0  0  0  0  0  0
   27.4467  -13.5538  -17.3855 C   0  0  0  0  0  0  0  0  0  0  0  0
   26.7705  -14.7599  -17.4624 C   0  0  0  0  0  0  0  0  0  0  0  0
   25.6262  -19.1501  -16.0842 C   0  0  0  0  0  0  0  0  0  0  0  0
   25.3913  -19.8321  -17.1120 O   0  0  0  0  0  0  0  0  0  0  0  0
   26.3344  -21.0605   -8.9274 N   0  0  0  0  0  0  0  0  0  0  0  0
   25.1304  -20.9396   -9.7031 C   0  0  0  0  0  0  0  0  0  0  0  0
   24.0054  -20.6785   -9.1336 N   0  0  0  0  0  0  0  0  0  0  0  0
   25.1562  -21.1047  -11.1067 N   0  0  0  0  0  0  0  0  0  0  0  0
   26.3361  -21.5045  -11.8230 C   0  0  0  0  0  0  0  0  0  0  0  0
   26.0890  -21.4967  -13.3202 C   0  0  0  0  0  0  0  0  0  0  0  0
   24.6134  -21.5756  -13.6114 C   0  0  0  0  0  0  0  0  0  0  0  0
   24.1436  -20.6226  -14.6539 C   0  0  2  0  0  0  0  0  0  0  0  0
   24.9786  -19.4764  -14.8657 N   0  0  0  0  0  0  0  0  0  0  0  0
   22.6956  -20.2624  -14.5465 C   0  0  0  0  0  0  0  0  0  0  0  0
   22.3201  -19.2519  -13.9144 O   0  0  0  0  0  0  0  0  0  0  0  0
   23.1163  -20.6440   -9.6701 N   0  0  0  0  0  0  0  0  0  0  0  0
   21.7015  -21.0486  -15.1541 C   0  0  0  0  0  0  0  0  0  0  0  0
   20.2798  -20.7213  -15.0818 C   0  0  0  0  0  0  0  0  0  0  0  0
   19.6273  -21.3233  -13.9212 O   0  0  0  0  0  0  0  0  0  0  0  0
   18.3973  -21.1564  -13.7313 O   0  0  0  0  0  0  0  0  0  0  0  0
  2  1  1  6
  2  3  1  0
  2 10  1  0
  4  3  1  0
  4  5  2  0
  6  5  1  0
  7  6  2  0
  8  9  2  0
  8  7  1  0
  9  4  1  0
 10 11  2  0
 13 15  1  0
 13 12  1  0
 14 13  2  0
 16 15  1  0
 17 16  1  0
 17 18  1  0
 19 18  1  1
 20 19  1  0
 20 10  1  0
 21 22  2  0
 21 19  1  0
 23 21  1  0
 24 23  1  0
 24 25  1  0
 25 27  1  0
 26 25  2  0
M  END
$$$$
