FRG.pdb
     RDKit          3D

 27 27  0  0  1  0  0  0  0  0999 V2000
   21.4842  -18.3920  -19.2287 N   0  0  0  0  0  0  0  0  0  0  0  0
   21.9138  -17.6319  -18.0869 C   0  0  1  0  0  0  0  0  0  0  0  0
   20.7152  -16.8760  -17.5594 C   0  0  0  0  0  0  0  0  0  0  0  0
   20.3167  -15.7645  -18.4412 C   0  0  0  0  0  0  0  0  0  0  0  0
   21.1006  -14.6344  -18.6228 C   0  0  0  0  0  0  0  0  0  0  0  0
   20.6346  -13.6582  -19.4669 C   0  0  0  0  0  0  0  0  0  0  0  0
   19.4273  -13.7640  -20.1315 C   0  0  0  0  0  0  0  0  0  0  0  0
   18.6402  -14.8869  -19.9560 C   0  0  0  0  0  0  0  0  0  0  0  0
   19.1085  -15.8735  -19.1045 C   0  0  0  0  0  0  0  0  0  0  0  0
   22.3090  -18.5912  -16.9913 C   0  0  0  0  0  0  0  0  0  0  0  0
   21.7104  -19.6907  -16.8940 O   0  0  0  0  0  0  0  0  0  0  0  0
   27.8437  -21.8811  -11.8168 N   0  0  0  0  0  0  0  0  0  0  0  0
   28.2004  -21.2910  -13.0779 C   0  0  0  0  0  0  0  0  0  0  0  0
   28.8638  -21.9629  -13.9534 N   0  0  0  0  0  0  0  0  0  0  0  0
   27.8307  -19.9613  -13.3831 N   0  0  0  0  0  0  0  0  0  0  0  0
   26.8050  -19.2535  -12.6676 C   0  0  0  0  0  0  0  0  0  0  0  0
   25.4280  -19.6286  -13.1832 C   0  0  0  0  0  0  0  0  0  0  0  0
   25.0837  -18.8177  -14.4048 C   0  0  0  0  0  0  0  0  0  0  0  0
   23.7208  -19.0746  -14.9455 C   0  0  2  0  0  0  0  0  0  0  0  0
   23.3413  -18.2736  -16.0726 N   0  0  0  0  0  0  0  0  0  0  0  0
   22.6500  -19.1372  -13.9028 C   0  0  0  0  0  0  0  0  0  0  0  0
   22.1610  -18.0995  -13.4071 O   0  0  0  0  0  0  0  0  0  0  0  0
   29.1432  -21.5479  -14.8640 N   0  0  0  0  0  0  0  0  0  0  0  0
   22.1527  -20.3680  -13.4410 C   0  0  0  0  0  0  0  0  0  0  0  0
   21.1520  -20.4699  -12.3819 C   0  0  0  0  0  0  0  0  0  0  0  0
   19.7952  -20.6037  -12.9077 O   0  0  0  0  0  0  0  0  0  0  0  0
   19.5951  -20.5978  -14.1473 O   0  0  0  0  0  0  0  0  0  0  0  0
  2  1  1  6
  2  3  1  0
  2 10  1  0
  4  3  1  0
  4  5  2  0
  6  5  1  0
  7  6  2  0
  8  9  2  0
  8  7  1  0
  9  4  1  0
 10 11  2  0
 13 15  1  0
 13 12  1  0
 14 13  2  0
 16 15  1  0
 17 16  1  0
 17 18  1  0
 19 18  1  1
 20 19  1  0
 20 10  1  0
 21 22  2  0
 21 19  1  0
 23 21  1  0
 24 23  1  0
 24 25  1  0
 25 27  1  0
 26 25  2  0
M  END
$$$$
