FRG.pdb
     RDKit          3D

 27 27  0  0  1  0  0  0  0  0999 V2000
   26.8563  -20.1167  -17.4521 N   0  0  0  0  0  0  0  0  0  0  0  0
   26.5907  -19.3366  -16.2743 C   0  0  1  0  0  0  0  0  0  0  0  0
   25.5973  -18.2602  -16.6493 C   0  0  0  0  0  0  0  0  0  0  0  0
   26.2502  -16.9826  -16.9857 C   0  0  0  0  0  0  0  0  0  0  0  0
   26.4783  -16.5794  -18.2935 C   0  0  0  0  0  0  0  0  0  0  0  0
   27.0943  -15.3701  -18.4947 C   0  0  0  0  0  0  0  0  0  0  0  0
   27.4886  -14.5536  -17.4514 C   0  0  0  0  0  0  0  0  0  0  0  0
   27.2650  -14.9480  -16.1454 C   0  0  0  0  0  0  0  0  0  0  0  0
   26.6434  -16.1683  -15.9398 C   0  0  0  0  0  0  0  0  0  0  0  0
   25.8872  -20.2115  -15.2662 C   0  0  0  0  0  0  0  0  0  0  0  0
   25.3337  -21.2699  -15.6537 O   0  0  0  0  0  0  0  0  0  0  0  0
   22.5782  -20.5312   -8.4602 N   0  0  0  0  0  0  0  0  0  0  0  0
   23.4196  -21.4872   -7.7938 C   0  0  0  0  0  0  0  0  0  0  0  0
   22.9156  -22.3596   -6.9920 N   0  0  0  0  0  0  0  0  0  0  0  0
   24.8173  -21.4894   -8.0046 N   0  0  0  0  0  0  0  0  0  0  0  0
   25.4522  -20.7089   -9.0306 C   0  0  0  0  0  0  0  0  0  0  0  0
   24.9447  -21.1054  -10.4045 C   0  0  0  0  0  0  0  0  0  0  0  0
   25.7098  -20.3787  -11.4792 C   0  0  0  0  0  0  0  0  0  0  0  0
   25.2212  -20.6393  -12.8608 C   0  0  2  0  0  0  0  0  0  0  0  0
   25.8403  -19.8603  -13.8932 N   0  0  0  0  0  0  0  0  0  0  0  0
   23.7310  -20.6737  -12.9872 C   0  0  0  0  0  0  0  0  0  0  0  0
   23.0303  -21.3963  -12.2466 O   0  0  0  0  0  0  0  0  0  0  0  0
   23.4978  -23.1010   -6.5552 N   0  0  0  0  0  0  0  0  0  0  0  0
   23.0621  -19.8927  -13.9454 C   0  0  0  0  0  0  0  0  0  0  0  0
   21.6064  -19.7878  -14.0042 C   0  0  0  0  0  0  0  0  0  0  0  0
   20.9956  -20.9028  -14.7246 O   0  0  0  0  0  0  0  0  0  0  0  0
   19.7478  -20.9652  -14.8508 O   0  0  0  0  0  0  0  0  0  0  0  0
  2  1  1  6
  2  3  1  0
  2 10  1  0
  4  3  1  0
  4  5  2  0
  6  5  1  0
  7  6  2  0
  8  9  2  0
  8  7  1  0
  9  4  1  0
 10 11  2  0
 13 15  1  0
 13 12  1  0
 14 13  2  0
 16 15  1  0
 17 16  1  0
 17 18  1  0
 19 18  1  1
 20 19  1  0
 20 10  1  0
 21 22  2  0
 21 19  1  0
 23 21  1  0
 24 23  1  0
 24 25  1  0
 25 27  1  0
 26 25  2  0
M  END
$$$$
