FRG.pdb
     RDKit          3D

 27 27  0  0  1  0  0  0  0  0999 V2000
   24.6085  -20.4324  -17.1200 N   0  0  0  0  0  0  0  0  0  0  0  0
   24.3104  -19.6697  -15.9387 C   0  0  1  0  0  0  0  0  0  0  0  0
   22.8390  -19.3232  -15.9735 C   0  0  0  0  0  0  0  0  0  0  0  0
   22.5812  -18.0210  -16.6134 C   0  0  0  0  0  0  0  0  0  0  0  0
   22.0416  -17.9057  -17.8864 C   0  0  0  0  0  0  0  0  0  0  0  0
   21.8423  -16.6441  -18.3877 C   0  0  0  0  0  0  0  0  0  0  0  0
   22.1575  -15.5023  -17.6752 C   0  0  0  0  0  0  0  0  0  0  0  0
   22.6955  -15.6086  -16.4063 C   0  0  0  0  0  0  0  0  0  0  0  0
   22.8976  -16.8809  -15.8981 C   0  0  0  0  0  0  0  0  0  0  0  0
   24.4947  -20.5581  -14.7331 C   0  0  0  0  0  0  0  0  0  0  0  0
   24.1261  -21.7569  -14.7931 O   0  0  0  0  0  0  0  0  0  0  0  0
   31.4802  -21.3438  -10.2936 N   0  0  0  0  0  0  0  0  0  0  0  0
   30.1886  -21.2602   -9.6683 C   0  0  0  0  0  0  0  0  0  0  0  0
   30.0805  -20.9529   -8.4225 N   0  0  0  0  0  0  0  0  0  0  0  0
   29.0108  -21.5134  -10.4076 N   0  0  0  0  0  0  0  0  0  0  0  0
   29.0067  -21.6780  -11.8352 C   0  0  0  0  0  0  0  0  0  0  0  0
   27.5931  -21.8640  -12.3545 C   0  0  0  0  0  0  0  0  0  0  0  0
   26.6858  -20.7929  -11.8087 C   0  0  0  0  0  0  0  0  0  0  0  0
   25.2989  -20.8327  -12.3477 C   0  0  2  0  0  0  0  0  0  0  0  0
   25.0752  -20.0642  -13.5374 N   0  0  0  0  0  0  0  0  0  0  0  0
   24.2353  -20.6146  -11.3185 C   0  0  0  0  0  0  0  0  0  0  0  0
   24.4695  -19.9919  -10.2607 O   0  0  0  0  0  0  0  0  0  0  0  0
   29.1581  -20.9216   -7.9455 N   0  0  0  0  0  0  0  0  0  0  0  0
   22.9304  -21.1028  -11.5035 C   0  0  0  0  0  0  0  0  0  0  0  0
   21.8520  -20.2883  -12.0576 C   0  0  0  0  0  0  0  0  0  0  0  0
   20.8017  -21.0971  -12.6724 O   0  0  0  0  0  0  0  0  0  0  0  0
   20.9348  -22.3425  -12.7618 O   0  0  0  0  0  0  0  0  0  0  0  0
  2  1  1  6
  2  3  1  0
  2 10  1  0
  4  3  1  0
  4  5  2  0
  6  5  1  0
  7  6  2  0
  8  9  2  0
  8  7  1  0
  9  4  1  0
 10 11  2  0
 13 15  1  0
 13 12  1  0
 14 13  2  0
 16 15  1  0
 17 16  1  0
 17 18  1  0
 19 18  1  1
 20 19  1  0
 20 10  1  0
 21 22  2  0
 21 19  1  0
 23 21  1  0
 24 23  1  0
 24 25  1  0
 25 27  1  0
 26 25  2  0
M  END
$$$$
