FRG.pdb
     RDKit          3D

 27 27  0  0  1  0  0  0  0  0999 V2000
   26.7879  -19.2205  -19.0381 N   0  0  0  0  0  0  0  0  0  0  0  0
   26.5490  -18.5053  -17.8142 C   0  0  1  0  0  0  0  0  0  0  0  0
   25.4383  -17.5121  -18.0707 C   0  0  0  0  0  0  0  0  0  0  0  0
   25.8870  -16.3582  -18.8700 C   0  0  0  0  0  0  0  0  0  0  0  0
   25.2757  -15.9874  -20.0590 C   0  0  0  0  0  0  0  0  0  0  0  0
   25.7740  -14.8958  -20.7243 C   0  0  0  0  0  0  0  0  0  0  0  0
   26.8492  -14.1654  -20.2543 C   0  0  0  0  0  0  0  0  0  0  0  0
   27.4639  -14.5282  -19.0705 C   0  0  0  0  0  0  0  0  0  0  0  0
   26.9628  -15.6297  -18.3971 C   0  0  0  0  0  0  0  0  0  0  0  0
   26.0072  -19.4719  -16.7901 C   0  0  0  0  0  0  0  0  0  0  0  0
   25.2999  -20.4366  -17.1718 O   0  0  0  0  0  0  0  0  0  0  0  0
   24.4024  -19.6715   -9.5454 N   0  0  0  0  0  0  0  0  0  0  0  0
   24.9375  -20.9059   -9.0395 C   0  0  0  0  0  0  0  0  0  0  0  0
   24.3770  -21.5077   -8.0487 N   0  0  0  0  0  0  0  0  0  0  0  0
   26.0897  -21.4844   -9.6188 N   0  0  0  0  0  0  0  0  0  0  0  0
   26.7663  -20.9101  -10.7490 C   0  0  0  0  0  0  0  0  0  0  0  0
   25.8274  -20.7822  -11.9342 C   0  0  0  0  0  0  0  0  0  0  0  0
   26.5573  -20.2228  -13.1270 C   0  0  0  0  0  0  0  0  0  0  0  0
   25.7244  -20.1076  -14.3553 C   0  0  2  0  0  0  0  0  0  0  0  0
   26.2821  -19.3103  -15.4084 N   0  0  0  0  0  0  0  0  0  0  0  0
   24.2877  -19.7834  -14.0929 C   0  0  0  0  0  0  0  0  0  0  0  0
   23.9481  -18.6966  -13.5781 O   0  0  0  0  0  0  0  0  0  0  0  0
   24.7702  -22.3814   -7.6468 N   0  0  0  0  0  0  0  0  0  0  0  0
   23.2644  -20.6908  -14.4167 C   0  0  0  0  0  0  0  0  0  0  0  0
   21.8518  -20.4102  -14.1728 C   0  0  0  0  0  0  0  0  0  0  0  0
   21.3574  -21.0529  -12.9573 O   0  0  0  0  0  0  0  0  0  0  0  0
   22.1152  -21.7902  -12.2799 O   0  0  0  0  0  0  0  0  0  0  0  0
  2  1  1  6
  2  3  1  0
  2 10  1  0
  4  3  1  0
  4  5  2  0
  6  5  1  0
  7  6  2  0
  8  9  2  0
  8  7  1  0
  9  4  1  0
 10 11  2  0
 13 15  1  0
 13 12  1  0
 14 13  2  0
 16 15  1  0
 17 16  1  0
 17 18  1  0
 19 18  1  1
 20 19  1  0
 20 10  1  0
 21 22  2  0
 21 19  1  0
 23 21  1  0
 24 23  1  0
 24 25  1  0
 25 27  1  0
 26 25  2  0
M  END
$$$$
