FTP.pdb
     RDKit          3D

 26 27  0  0  1  0  0  0  0  0999 V2000
    7.7149  -17.3559   19.7211 N   0  0  0  0  0  0  0  0  0  0  0  0
    8.5787  -16.9361   20.7937 C   0  0  1  0  0  0  0  0  0  0  0  0
    9.4888  -15.8528   20.2841 C   0  0  0  0  0  0  0  0  0  0  0  0
    8.6452  -14.7291   19.8078 C   0  0  0  0  0  0  0  0  0  0  0  0
    8.2824  -14.6203   18.4672 C   0  0  0  0  0  0  0  0  0  0  0  0
    7.5031  -13.5812   18.0068 C   0  0  0  0  0  0  0  0  0  0  0  0
    7.0686  -12.6255   18.8811 C   0  0  0  0  0  0  0  0  0  0  0  0
    7.4028  -12.6969   20.2025 C   0  0  0  0  0  0  0  0  0  0  0  0
    8.1798  -13.7343   20.6569 C   0  0  0  0  0  0  0  0  0  0  0  0
    7.8262  -16.5171   21.9980 C   0  0  0  0  0  0  0  0  0  0  0  0
    6.5592  -16.4293   21.8438 O   0  0  0  0  0  0  0  0  0  0  0  0
    6.0062  -17.7763   23.8050 C   0  0  0  0  0  0  0  0  0  0  0  0
    7.0028  -17.2835   24.8547 C   0  0  1  0  0  0  0  0  0  0  0  0
    7.8926  -18.2338   25.2246 O   0  0  0  0  0  0  0  0  0  0  0  0
    7.5644  -15.9366   24.4574 C   0  0  2  0  0  0  0  0  0  0  0  0
    8.4004  -16.2211   23.2545 N   0  0  0  0  0  0  0  0  0  0  0  0
    8.3613  -15.2639   25.4738 C   0  0  0  0  0  0  0  0  0  0  0  0
    9.4879  -15.8201   25.7307 O   0  0  0  0  0  0  0  0  0  0  0  0
    8.0773  -14.0935   26.2117 N   0  0  0  0  0  0  0  0  0  0  0  0
    6.8846  -13.2845   25.8920 C   0  0  0  0  0  0  0  0  0  0  0  0
    6.5078  -12.6732   27.2143 C   0  0  0  0  0  0  0  0  0  0  0  0
    7.8760  -12.2317   27.6977 C   0  0  0  0  0  0  0  0  0  0  0  0
    8.7144  -13.4556   27.3147 C   0  0  1  0  0  0  0  0  0  0  0  0
    8.7548  -14.2889   28.5407 C   0  0  0  0  0  0  0  0  0  0  0  0
    9.6224  -13.9807   29.5624 O   0  0  0  0  0  0  0  0  0  0  0  0
    7.9987  -15.2684   28.6381 O   0  0  0  0  0  0  0  0  0  0  0  0
  2  1  1  6
  2 10  1  0
  3  2  1  0
  3  4  1  0
  4  5  2  0
  4  9  1  0
  5  6  1  0
  6  7  2  0
  8  7  1  0
  9  8  2  0
 10 11  2  0
 13 12  1  6
 13 15  1  0
 14 13  1  0
 15 17  1  0
 15 16  1  6
 16 10  1  0
 17 18  2  0
 19 17  1  0
 19 20  1  0
 20 21  1  0
 22 21  1  0
 23 19  1  0
 23 22  1  0
 23 24  1  1
 25 24  1  0
 26 24  2  0
M  END
$$$$
