FTP.pdb
     RDKit          3D

 26 27  0  0  1  0  0  0  0  0999 V2000
    6.1435  -16.5975   26.0987 N   0  0  0  0  0  0  0  0  0  0  0  0
    6.9313  -15.7197   25.2729 C   0  0  1  0  0  0  0  0  0  0  0  0
    7.8609  -14.9330   26.1551 C   0  0  0  0  0  0  0  0  0  0  0  0
    7.2672  -13.5900   26.3678 C   0  0  0  0  0  0  0  0  0  0  0  0
    7.5959  -12.5192   25.5396 C   0  0  0  0  0  0  0  0  0  0  0  0
    7.0574  -11.2644   25.7250 C   0  0  0  0  0  0  0  0  0  0  0  0
    6.1753  -11.0536   26.7469 C   0  0  0  0  0  0  0  0  0  0  0  0
    5.8280  -12.0774   27.5800 C   0  0  0  0  0  0  0  0  0  0  0  0
    6.3673  -13.3263   27.3914 C   0  0  0  0  0  0  0  0  0  0  0  0
    7.6522  -16.4435   24.2012 C   0  0  0  0  0  0  0  0  0  0  0  0
    7.9823  -17.6465   24.4851 O   0  0  0  0  0  0  0  0  0  0  0  0
    6.5992  -16.1852   20.5722 C   0  0  0  0  0  0  0  0  0  0  0  0
    8.1281  -16.1670   20.5802 C   0  0  1  0  0  0  0  0  0  0  0  0
    8.6438  -14.9870   20.1638 O   0  0  0  0  0  0  0  0  0  0  0  0
    8.6553  -16.7233   21.8840 C   0  0  2  0  0  0  0  0  0  0  0  0
    7.9831  -15.9069   22.9369 N   0  0  0  0  0  0  0  0  0  0  0  0
   10.1006  -16.6663   22.0523 C   0  0  0  0  0  0  0  0  0  0  0  0
   10.6102  -15.4946   21.9418 O   0  0  0  0  0  0  0  0  0  0  0  0
   11.0175  -17.7067   22.3205 N   0  0  0  0  0  0  0  0  0  0  0  0
   10.5447  -19.0993   22.4481 C   0  0  0  0  0  0  0  0  0  0  0  0
   11.7183  -19.9150   21.9772 C   0  0  0  0  0  0  0  0  0  0  0  0
   12.8412  -19.2032   22.7069 C   0  0  0  0  0  0  0  0  0  0  0  0
   12.4314  -17.7428   22.4910 C   0  0  1  0  0  0  0  0  0  0  0  0
   13.1858  -17.3086   21.2903 C   0  0  0  0  0  0  0  0  0  0  0  0
   14.5220  -16.9968   21.3842 O   0  0  0  0  0  0  0  0  0  0  0  0
   12.6014  -17.2284   20.1983 O   0  0  0  0  0  0  0  0  0  0  0  0
  2  1  1  1
  2 10  1  0
  3  2  1  0
  3  4  1  0
  4  5  2  0
  4  9  1  0
  5  6  1  0
  6  7  2  0
  8  7  1  0
  9  8  2  0
 10 11  2  0
 13 12  1  1
 13 15  1  0
 14 13  1  0
 15 17  1  0
 15 16  1  1
 16 10  1  0
 17 18  2  0
 19 17  1  0
 19 20  1  0
 20 21  1  0
 22 21  1  0
 23 19  1  0
 23 22  1  0
 23 24  1  6
 25 24  1  0
 26 24  2  0
M  END
$$$$
