FTP.pdb
     RDKit          3D

 26 27  0  0  1  0  0  0  0  0999 V2000
    5.7336  -17.4606   25.8142 N   0  0  0  0  0  0  0  0  0  0  0  0
    6.5318  -16.3154   25.4616 C   0  0  1  0  0  0  0  0  0  0  0  0
    7.1150  -15.7289   26.7174 C   0  0  0  0  0  0  0  0  0  0  0  0
    7.0688  -14.2506   26.5998 C   0  0  0  0  0  0  0  0  0  0  0  0
    5.9067  -13.5418   26.8957 C   0  0  0  0  0  0  0  0  0  0  0  0
    5.8448  -12.1693   26.7880 C   0  0  0  0  0  0  0  0  0  0  0  0
    6.9483  -11.4745   26.3805 C   0  0  0  0  0  0  0  0  0  0  0  0
    8.1058  -12.1329   26.0813 C   0  0  0  0  0  0  0  0  0  0  0  0
    8.1630  -13.5008   26.1901 C   0  0  0  0  0  0  0  0  0  0  0  0
    7.5705  -16.6351   24.4560 C   0  0  0  0  0  0  0  0  0  0  0  0
    8.1877  -17.7398   24.6446 O   0  0  0  0  0  0  0  0  0  0  0  0
    6.9256  -16.0030   20.7572 C   0  0  0  0  0  0  0  0  0  0  0  0
    8.3819  -15.6246   21.0286 C   0  0  1  0  0  0  0  0  0  0  0  0
    8.6164  -14.2985   20.8939 O   0  0  0  0  0  0  0  0  0  0  0  0
    8.8689  -16.2807   22.3013 C   0  0  2  0  0  0  0  0  0  0  0  0
    7.9060  -15.8266   23.3471 N   0  0  0  0  0  0  0  0  0  0  0  0
   10.2309  -15.9503   22.6967 C   0  0  0  0  0  0  0  0  0  0  0  0
   10.5375  -14.7098   22.5886 O   0  0  0  0  0  0  0  0  0  0  0  0
   11.2567  -16.7914   23.1817 N   0  0  0  0  0  0  0  0  0  0  0  0
   10.9821  -18.2156   23.4567 C   0  0  0  0  0  0  0  0  0  0  0  0
   12.3055  -18.8856   23.2035 C   0  0  0  0  0  0  0  0  0  0  0  0
   13.2288  -17.9211   23.9231 C   0  0  0  0  0  0  0  0  0  0  0  0
   12.6346  -16.5815   23.4760 C   0  0  1  0  0  0  0  0  0  0  0  0
   13.4398  -16.1819   22.2966 C   0  0  0  0  0  0  0  0  0  0  0  0
   14.6886  -15.6299   22.4621 O   0  0  0  0  0  0  0  0  0  0  0  0
   12.9777  -16.3496   21.1569 O   0  0  0  0  0  0  0  0  0  0  0  0
  2  1  1  1
  2 10  1  0
  3  2  1  0
  3  4  1  0
  4  5  2  0
  4  9  1  0
  5  6  1  0
  6  7  2  0
  8  7  1  0
  9  8  2  0
 10 11  2  0
 13 12  1  1
 13 15  1  0
 14 13  1  0
 15 17  1  0
 15 16  1  1
 16 10  1  0
 17 18  2  0
 19 17  1  0
 19 20  1  0
 20 21  1  0
 22 21  1  0
 23 19  1  0
 23 22  1  0
 23 24  1  6
 25 24  1  0
 26 24  2  0
M  END
$$$$
