FTP.pdb
     RDKit          3D

 26 27  0  0  1  0  0  0  0  0999 V2000
    5.7306  -17.8188   25.8965 N   0  0  0  0  0  0  0  0  0  0  0  0
    6.4086  -16.5973   25.5483 C   0  0  1  0  0  0  0  0  0  0  0  0
    7.0952  -16.0605   26.7737 C   0  0  0  0  0  0  0  0  0  0  0  0
    7.0952  -14.5792   26.6898 C   0  0  0  0  0  0  0  0  0  0  0  0
    5.9101  -13.8535   26.7882 C   0  0  0  0  0  0  0  0  0  0  0  0
    5.8911  -12.4779   26.7083 C   0  0  0  0  0  0  0  0  0  0  0  0
    7.0616  -11.7968   26.5277 C   0  0  0  0  0  0  0  0  0  0  0  0
    8.2435  -12.4718   26.4267 C   0  0  0  0  0  0  0  0  0  0  0  0
    8.2577  -13.8429   26.5068 C   0  0  0  0  0  0  0  0  0  0  0  0
    7.3417  -16.7700   24.4118 C   0  0  0  0  0  0  0  0  0  0  0  0
    8.0777  -17.8150   24.4669 O   0  0  0  0  0  0  0  0  0  0  0  0
    6.5277  -15.1750   20.7997 C   0  0  0  0  0  0  0  0  0  0  0  0
    8.0180  -15.1207   21.1372 C   0  0  1  0  0  0  0  0  0  0  0  0
    8.4593  -13.8638   21.3764 O   0  0  0  0  0  0  0  0  0  0  0  0
    8.3650  -16.1757   22.1637 C   0  0  2  0  0  0  0  0  0  0  0  0
    7.4622  -15.8862   23.3161 N   0  0  0  0  0  0  0  0  0  0  0  0
    9.7526  -16.1896   22.6054 C   0  0  0  0  0  0  0  0  0  0  0  0
   10.1212  -15.1485   23.2572 O   0  0  0  0  0  0  0  0  0  0  0  0
   10.7452  -17.1780   22.4241 N   0  0  0  0  0  0  0  0  0  0  0  0
   10.3716  -18.5318   21.9693 C   0  0  0  0  0  0  0  0  0  0  0  0
   11.5830  -18.9947   21.2061 C   0  0  0  0  0  0  0  0  0  0  0  0
   12.6765  -18.5627   22.1641 C   0  0  0  0  0  0  0  0  0  0  0  0
   12.1627  -17.1762   22.5656 C   0  0  1  0  0  0  0  0  0  0  0  0
   12.8500  -16.2347   21.6488 C   0  0  0  0  0  0  0  0  0  0  0  0
   14.1062  -15.7631   21.9506 O   0  0  0  0  0  0  0  0  0  0  0  0
   12.2823  -15.8749   20.6054 O   0  0  0  0  0  0  0  0  0  0  0  0
  2  1  1  1
  2 10  1  0
  3  2  1  0
  3  4  1  0
  4  5  2  0
  4  9  1  0
  5  6  1  0
  6  7  2  0
  8  7  1  0
  9  8  2  0
 10 11  2  0
 13 12  1  1
 13 15  1  0
 14 13  1  0
 15 17  1  0
 15 16  1  1
 16 10  1  0
 17 18  2  0
 19 17  1  0
 19 20  1  0
 20 21  1  0
 22 21  1  0
 23 19  1  0
 23 22  1  0
 23 24  1  6
 25 24  1  0
 26 24  2  0
M  END
$$$$
