FTP.pdb
     RDKit          3D

 26 27  0  0  1  0  0  0  0  0999 V2000
    6.6679  -17.6547   20.4777 N   0  0  0  0  0  0  0  0  0  0  0  0
    7.0136  -16.4078   21.1093 C   0  0  1  0  0  0  0  0  0  0  0  0
    6.2541  -15.2988   20.4350 C   0  0  0  0  0  0  0  0  0  0  0  0
    7.2231  -14.2406   20.0575 C   0  0  0  0  0  0  0  0  0  0  0  0
    6.8162  -13.1134   19.3471 C   0  0  0  0  0  0  0  0  0  0  0  0
    7.7031  -12.1230   18.9847 C   0  0  0  0  0  0  0  0  0  0  0  0
    9.0207  -12.2397   19.3265 C   0  0  0  0  0  0  0  0  0  0  0  0
    9.4585  -13.3291   20.0224 C   0  0  0  0  0  0  0  0  0  0  0  0
    8.5710  -14.3138   20.3815 C   0  0  0  0  0  0  0  0  0  0  0  0
    6.7915  -16.4318   22.5729 C   0  0  0  0  0  0  0  0  0  0  0  0
    5.5659  -16.3868   22.9373 O   0  0  0  0  0  0  0  0  0  0  0  0
    7.4524  -18.2481   26.8393 C   0  0  0  0  0  0  0  0  0  0  0  0
    7.4182  -18.0256   25.3270 C   0  0  1  0  0  0  0  0  0  0  0  0
    6.4403  -18.7306   24.7119 O   0  0  0  0  0  0  0  0  0  0  0  0
    7.5022  -16.5494   25.0091 C   0  0  2  0  0  0  0  0  0  0  0  0
    7.8099  -16.4989   23.5498 N   0  0  0  0  0  0  0  0  0  0  0  0
    8.5023  -15.8016   25.7582 C   0  0  0  0  0  0  0  0  0  0  0  0
    9.6994  -16.2500   25.6553 O   0  0  0  0  0  0  0  0  0  0  0  0
    8.3476  -14.6595   26.5748 N   0  0  0  0  0  0  0  0  0  0  0  0
    7.0155  -14.0491   26.7541 C   0  0  0  0  0  0  0  0  0  0  0  0
    7.0838  -13.4514   28.1334 C   0  0  0  0  0  0  0  0  0  0  0  0
    8.4489  -12.7939   28.0661 C   0  0  0  0  0  0  0  0  0  0  0  0
    9.2527  -13.8931   27.3639 C   0  0  1  0  0  0  0  0  0  0  0  0
    9.8836  -14.6647   28.4621 C   0  0  0  0  0  0  0  0  0  0  0  0
    9.4078  -15.9104   28.7988 O   0  0  0  0  0  0  0  0  0  0  0  0
   10.8458  -14.1772   29.0761 O   0  0  0  0  0  0  0  0  0  0  0  0
  2  1  1  6
  2 10  1  0
  3  2  1  0
  3  4  1  0
  4  5  2  0
  4  9  1  0
  5  6  1  0
  6  7  2  0
  8  7  1  0
  9  8  2  0
 10 11  2  0
 13 12  1  1
 13 15  1  0
 14 13  1  0
 15 17  1  0
 15 16  1  6
 16 10  1  0
 17 18  2  0
 19 17  1  0
 19 20  1  0
 20 21  1  0
 22 21  1  0
 23 19  1  0
 23 22  1  0
 23 24  1  1
 25 24  1  0
 26 24  2  0
M  END
$$$$
