FTP.pdb
     RDKit          3D

 26 27  0  0  1  0  0  0  0  0999 V2000
    6.7807  -17.7359   20.6739 N   0  0  0  0  0  0  0  0  0  0  0  0
    7.0366  -16.4257   21.2134 C   0  0  1  0  0  0  0  0  0  0  0  0
    6.1108  -15.4425   20.5520 C   0  0  0  0  0  0  0  0  0  0  0  0
    6.9125  -14.2677   20.1296 C   0  0  0  0  0  0  0  0  0  0  0  0
    7.4261  -14.1745   18.8380 C   0  0  0  0  0  0  0  0  0  0  0  0
    8.1761  -13.0928   18.4300 C   0  0  0  0  0  0  0  0  0  0  0  0
    8.4289  -12.0777   19.3087 C   0  0  0  0  0  0  0  0  0  0  0  0
    7.9431  -12.1320   20.5830 C   0  0  0  0  0  0  0  0  0  0  0  0
    7.1962  -13.2120   20.9854 C   0  0  0  0  0  0  0  0  0  0  0  0
    6.9327  -16.3894   22.6899 C   0  0  0  0  0  0  0  0  0  0  0  0
    5.7397  -16.4114   23.1514 O   0  0  0  0  0  0  0  0  0  0  0  0
    6.1146  -18.1814   24.5906 C   0  0  0  0  0  0  0  0  0  0  0  0
    7.4450  -17.8858   25.2837 C   0  0  1  0  0  0  0  0  0  0  0  0
    8.3850  -18.8299   25.0459 O   0  0  0  0  0  0  0  0  0  0  0  0
    7.8482  -16.4456   25.0590 C   0  0  2  0  0  0  0  0  0  0  0  0
    8.0271  -16.3344   23.5817 N   0  0  0  0  0  0  0  0  0  0  0  0
    9.0601  -16.0185   25.7442 C   0  0  0  0  0  0  0  0  0  0  0  0
   10.1259  -16.6376   25.3901 O   0  0  0  0  0  0  0  0  0  0  0  0
    9.2325  -15.0259   26.7341 N   0  0  0  0  0  0  0  0  0  0  0  0
    8.0930  -14.1834   27.1480 C   0  0  0  0  0  0  0  0  0  0  0  0
    8.3983  -13.8579   28.5850 C   0  0  0  0  0  0  0  0  0  0  0  0
    9.8692  -13.5071   28.4670 C   0  0  0  0  0  0  0  0  0  0  0  0
   10.3450  -14.6173   27.5244 C   0  0  1  0  0  0  0  0  0  0  0  0
   10.8611  -15.6817   28.4189 C   0  0  0  0  0  0  0  0  0  0  0  0
   12.0970  -15.5551   29.0089 O   0  0  0  0  0  0  0  0  0  0  0  0
   10.1683  -16.6893   28.6315 O   0  0  0  0  0  0  0  0  0  0  0  0
  2  1  1  6
  2 10  1  0
  3  2  1  0
  3  4  1  0
  4  5  2  0
  4  9  1  0
  5  6  1  0
  6  7  2  0
  8  7  1  0
  9  8  2  0
 10 11  2  0
 13 12  1  6
 13 15  1  0
 14 13  1  0
 15 17  1  0
 15 16  1  6
 16 10  1  0
 17 18  2  0
 19 17  1  0
 19 20  1  0
 20 21  1  0
 22 21  1  0
 23 19  1  0
 23 22  1  0
 23 24  1  1
 25 24  1  0
 26 24  2  0
M  END
$$$$
