FTP.pdb
     RDKit          3D

 26 27  0  0  1  0  0  0  0  0999 V2000
    5.8602  -17.0814   25.1700 N   0  0  0  0  0  0  0  0  0  0  0  0
    6.4993  -15.8695   24.7276 C   0  0  1  0  0  0  0  0  0  0  0  0
    7.5014  -15.4460   25.7658 C   0  0  0  0  0  0  0  0  0  0  0  0
    7.0891  -14.1205   26.2898 C   0  0  0  0  0  0  0  0  0  0  0  0
    7.9771  -13.3239   27.0093 C   0  0  0  0  0  0  0  0  0  0  0  0
    7.6100  -12.0924   27.5067 C   0  0  0  0  0  0  0  0  0  0  0  0
    6.3421  -11.6300   27.2942 C   0  0  0  0  0  0  0  0  0  0  0  0
    5.4428  -12.3810   26.5940 C   0  0  0  0  0  0  0  0  0  0  0  0
    5.8131  -13.6079   26.1000 C   0  0  0  0  0  0  0  0  0  0  0  0
    7.1061  -16.0054   23.3839 C   0  0  0  0  0  0  0  0  0  0  0  0
    7.4792  -17.1891   23.0733 O   0  0  0  0  0  0  0  0  0  0  0  0
    8.7237  -13.8101   19.2024 C   0  0  0  0  0  0  0  0  0  0  0  0
    7.8425  -13.8130   20.4520 C   0  0  1  0  0  0  0  0  0  0  0  0
    6.6345  -13.2384   20.2470 O   0  0  0  0  0  0  0  0  0  0  0  0
    7.8502  -15.1798   21.0994 C   0  0  2  0  0  0  0  0  0  0  0  0
    7.2895  -14.9497   22.4631 N   0  0  0  0  0  0  0  0  0  0  0  0
    9.1536  -15.8219   21.1953 C   0  0  0  0  0  0  0  0  0  0  0  0
   10.0054  -15.2055   21.9295 O   0  0  0  0  0  0  0  0  0  0  0  0
    9.6131  -17.0192   20.6033 N   0  0  0  0  0  0  0  0  0  0  0  0
    8.6841  -17.8741   19.8382 C   0  0  0  0  0  0  0  0  0  0  0  0
    9.5701  -18.5295   18.8136 C   0  0  0  0  0  0  0  0  0  0  0  0
   10.7430  -18.9190   19.6928 C   0  0  0  0  0  0  0  0  0  0  0  0
   10.8884  -17.6509   20.5404 C   0  0  1  0  0  0  0  0  0  0  0  0
   11.9180  -16.8426   19.8435 C   0  0  0  0  0  0  0  0  0  0  0  0
   13.2547  -17.0951   20.0463 O   0  0  0  0  0  0  0  0  0  0  0  0
   11.5640  -15.9348   19.0746 O   0  0  0  0  0  0  0  0  0  0  0  0
  2  1  1  1
  2 10  1  0
  3  2  1  0
  3  4  1  0
  4  5  2  0
  4  9  1  0
  5  6  1  0
  6  7  2  0
  8  7  1  0
  9  8  2  0
 10 11  2  0
 13 12  1  6
 13 15  1  0
 14 13  1  0
 15 17  1  0
 15 16  1  1
 16 10  1  0
 17 18  2  0
 19 17  1  0
 19 20  1  0
 20 21  1  0
 22 21  1  0
 23 19  1  0
 23 22  1  0
 23 24  1  6
 25 24  1  0
 26 24  2  0
M  END
$$$$
