FTP.pdb
     RDKit          3D

 26 27  0  0  1  0  0  0  0  0999 V2000
    5.8040  -16.6773   25.8484 N   0  0  0  0  0  0  0  0  0  0  0  0
    6.6938  -15.7074   25.2649 C   0  0  1  0  0  0  0  0  0  0  0  0
    7.5214  -15.0922   26.3594 C   0  0  0  0  0  0  0  0  0  0  0  0
    7.1082  -13.6750   26.5078 C   0  0  0  0  0  0  0  0  0  0  0  0
    5.8702  -13.3402   27.0519 C   0  0  0  0  0  0  0  0  0  0  0  0
    5.4684  -12.0297   27.1933 C   0  0  0  0  0  0  0  0  0  0  0  0
    6.2999  -11.0225   26.7921 C   0  0  0  0  0  0  0  0  0  0  0  0
    7.5210  -11.3098   26.2543 C   0  0  0  0  0  0  0  0  0  0  0  0
    7.9172  -12.6174   26.1151 C   0  0  0  0  0  0  0  0  0  0  0  0
    7.5282  -16.2801   24.1842 C   0  0  0  0  0  0  0  0  0  0  0  0
    8.0405  -17.4239   24.4414 O   0  0  0  0  0  0  0  0  0  0  0  0
    6.8766  -15.2234   20.4574 C   0  0  0  0  0  0  0  0  0  0  0  0
    8.3703  -15.4924   20.6433 C   0  0  1  0  0  0  0  0  0  0  0  0
    9.1287  -14.3810   20.4973 O   0  0  0  0  0  0  0  0  0  0  0  0
    8.6059  -16.3245   21.8840 C   0  0  2  0  0  0  0  0  0  0  0  0
    7.7813  -15.6643   22.9381 N   0  0  0  0  0  0  0  0  0  0  0  0
    9.9917  -16.4230   22.3203 C   0  0  0  0  0  0  0  0  0  0  0  0
   10.4962  -15.3303   22.7632 O   0  0  0  0  0  0  0  0  0  0  0  0
   10.8555  -17.5405   22.3293 N   0  0  0  0  0  0  0  0  0  0  0  0
   10.3458  -18.8767   21.9630 C   0  0  0  0  0  0  0  0  0  0  0  0
   11.5468  -19.5623   21.3700 C   0  0  0  0  0  0  0  0  0  0  0  0
   12.5999  -19.1740   22.3902 C   0  0  0  0  0  0  0  0  0  0  0  0
   12.2426  -17.7007   22.6116 C   0  0  1  0  0  0  0  0  0  0  0  0
   13.1273  -16.9507   21.6875 C   0  0  0  0  0  0  0  0  0  0  0  0
   14.4299  -16.6816   22.0374 O   0  0  0  0  0  0  0  0  0  0  0  0
   12.6829  -16.5670   20.5939 O   0  0  0  0  0  0  0  0  0  0  0  0
  2  1  1  1
  2 10  1  0
  3  2  1  0
  3  4  1  0
  4  5  2  0
  4  9  1  0
  5  6  1  0
  6  7  2  0
  8  7  1  0
  9  8  2  0
 10 11  2  0
 13 12  1  1
 13 15  1  0
 14 13  1  0
 15 17  1  0
 15 16  1  1
 16 10  1  0
 17 18  2  0
 19 17  1  0
 19 20  1  0
 20 21  1  0
 22 21  1  0
 23 19  1  0
 23 22  1  0
 23 24  1  6
 25 24  1  0
 26 24  2  0
M  END
$$$$
