FTP.pdb
     RDKit          3D

 26 27  0  0  1  0  0  0  0  0999 V2000
    5.4146  -15.9591   25.7666 N   0  0  0  0  0  0  0  0  0  0  0  0
    6.0706  -15.9091   24.4859 C   0  0  1  0  0  0  0  0  0  0  0  0
    6.1653  -14.4735   24.0483 C   0  0  0  0  0  0  0  0  0  0  0  0
    6.7121  -13.6828   25.1784 C   0  0  0  0  0  0  0  0  0  0  0  0
    5.8682  -13.0673   26.1001 C   0  0  0  0  0  0  0  0  0  0  0  0
    6.3586  -12.3260   27.1532 C   0  0  0  0  0  0  0  0  0  0  0  0
    7.7087  -12.1843   27.3070 C   0  0  0  0  0  0  0  0  0  0  0  0
    8.5685  -12.7721   26.4249 C   0  0  0  0  0  0  0  0  0  0  0  0
    8.0752  -13.5100   25.3768 C   0  0  0  0  0  0  0  0  0  0  0  0
    7.3899  -16.5811   24.4970 C   0  0  0  0  0  0  0  0  0  0  0  0
    7.8923  -16.7728   25.6578 O   0  0  0  0  0  0  0  0  0  0  0  0
    8.0697  -19.9841   23.3540 C   0  0  0  0  0  0  0  0  0  0  0  0
    9.0362  -19.0592   22.6135 C   0  0  1  0  0  0  0  0  0  0  0  0
    8.6848  -18.8533   21.3228 O   0  0  0  0  0  0  0  0  0  0  0  0
    9.3350  -17.8327   23.4463 C   0  0  2  0  0  0  0  0  0  0  0  0
    8.0968  -17.0055   23.3497 N   0  0  0  0  0  0  0  0  0  0  0  0
   10.4917  -17.0545   23.0256 C   0  0  0  0  0  0  0  0  0  0  0  0
   10.3712  -16.4847   21.8831 O   0  0  0  0  0  0  0  0  0  0  0  0
   11.7188  -16.8348   23.6896 N   0  0  0  0  0  0  0  0  0  0  0  0
   11.9226  -17.3410   25.0613 C   0  0  0  0  0  0  0  0  0  0  0  0
   13.4023  -17.6073   25.1232 C   0  0  0  0  0  0  0  0  0  0  0  0
   13.9234  -16.3410   24.4712 C   0  0  0  0  0  0  0  0  0  0  0  0
   12.9359  -16.2004   23.3082 C   0  0  1  0  0  0  0  0  0  0  0  0
   13.6084  -16.8489   22.1565 C   0  0  0  0  0  0  0  0  0  0  0  0
   14.6341  -16.2095   21.5003 O   0  0  0  0  0  0  0  0  0  0  0  0
   13.2380  -17.9750   21.7885 O   0  0  0  0  0  0  0  0  0  0  0  0
  2  1  1  1
  2 10  1  0
  3  2  1  0
  3  4  1  0
  4  5  2  0
  4  9  1  0
  5  6  1  0
  6  7  2  0
  8  7  1  0
  9  8  2  0
 10 11  2  0
 13 12  1  1
 13 15  1  0
 14 13  1  0
 15 17  1  0
 15 16  1  6
 16 10  1  0
 17 18  2  0
 19 17  1  0
 19 20  1  0
 20 21  1  0
 22 21  1  0
 23 19  1  0
 23 22  1  0
 23 24  1  6
 25 24  1  0
 26 24  2  0
M  END
$$$$
