FTP.pdb
     RDKit          3D

 26 27  0  0  1  0  0  0  0  0999 V2000
    6.3195  -14.4282   21.8485 N   0  0  0  0  0  0  0  0  0  0  0  0
    7.6889  -14.3882   22.2914 C   0  0  1  0  0  0  0  0  0  0  0  0
    8.0451  -12.9669   22.6296 C   0  0  0  0  0  0  0  0  0  0  0  0
    7.4842  -12.6578   23.9679 C   0  0  0  0  0  0  0  0  0  0  0  0
    6.1114  -12.5139   24.1565 C   0  0  0  0  0  0  0  0  0  0  0  0
    5.5736  -12.2229   25.3914 C   0  0  0  0  0  0  0  0  0  0  0  0
    6.4008  -12.0690   26.4678 C   0  0  0  0  0  0  0  0  0  0  0  0
    7.7515  -12.2022   26.3238 C   0  0  0  0  0  0  0  0  0  0  0  0
    8.2832  -12.4923   25.0911 C   0  0  0  0  0  0  0  0  0  0  0  0
    7.9494  -15.3154   23.4159 C   0  0  0  0  0  0  0  0  0  0  0  0
    6.9187  -15.6448   24.0985 O   0  0  0  0  0  0  0  0  0  0  0  0
    8.2723  -18.5692   23.5984 C   0  0  0  0  0  0  0  0  0  0  0  0
    9.5700  -18.1285   24.2763 C   0  0  1  0  0  0  0  0  0  0  0  0
   10.6599  -18.3025   23.4929 O   0  0  0  0  0  0  0  0  0  0  0  0
    9.3957  -16.7690   24.9156 C   0  0  2  0  0  0  0  0  0  0  0  0
    9.2155  -15.8360   23.7650 N   0  0  0  0  0  0  0  0  0  0  0  0
   10.4997  -16.3233   25.7542 C   0  0  0  0  0  0  0  0  0  0  0  0
   11.6645  -16.4848   25.2424 O   0  0  0  0  0  0  0  0  0  0  0  0
   10.4748  -15.7399   27.0403 N   0  0  0  0  0  0  0  0  0  0  0  0
    9.2081  -15.2285   27.6000 C   0  0  0  0  0  0  0  0  0  0  0  0
    9.3790  -15.4101   29.0839 C   0  0  0  0  0  0  0  0  0  0  0  0
   10.7925  -14.8859   29.2504 C   0  0  0  0  0  0  0  0  0  0  0  0
   11.4715  -15.5264   28.0354 C   0  0  1  0  0  0  0  0  0  0  0  0
   12.0736  -16.7795   28.5517 C   0  0  0  0  0  0  0  0  0  0  0  0
   13.2656  -16.7471   29.2369 O   0  0  0  0  0  0  0  0  0  0  0  0
   11.4928  -17.8597   28.3604 O   0  0  0  0  0  0  0  0  0  0  0  0
  2  1  1  1
  2 10  1  0
  3  2  1  0
  3  4  1  0
  4  5  2  0
  4  9  1  0
  5  6  1  0
  6  7  2  0
  8  7  1  0
  9  8  2  0
 10 11  2  0
 13 12  1  6
 13 15  1  0
 14 13  1  0
 15 17  1  0
 15 16  1  6
 16 10  1  0
 17 18  2  0
 19 17  1  0
 19 20  1  0
 20 21  1  0
 22 21  1  0
 23 19  1  0
 23 22  1  0
 23 24  1  1
 25 24  1  0
 26 24  2  0
M  END
$$$$
