FTP.pdb
     RDKit          3D

 26 27  0  0  1  0  0  0  0  0999 V2000
    5.5416  -17.4932   25.4216 N   0  0  0  0  0  0  0  0  0  0  0  0
    6.3965  -16.3716   25.1316 C   0  0  1  0  0  0  0  0  0  0  0  0
    6.9364  -15.8292   26.4261 C   0  0  0  0  0  0  0  0  0  0  0  0
    6.8065  -14.3516   26.3960 C   0  0  0  0  0  0  0  0  0  0  0  0
    6.4302  -13.6395   27.5327 C   0  0  0  0  0  0  0  0  0  0  0  0
    6.3008  -12.2676   27.5217 C   0  0  0  0  0  0  0  0  0  0  0  0
    6.5459  -11.5765   26.3689 C   0  0  0  0  0  0  0  0  0  0  0  0
    6.9168  -12.2381   25.2342 C   0  0  0  0  0  0  0  0  0  0  0  0
    7.0446  -13.6054   25.2498 C   0  0  0  0  0  0  0  0  0  0  0  0
    7.4723  -16.7105   24.1725 C   0  0  0  0  0  0  0  0  0  0  0  0
    8.0643  -17.8234   24.3910 O   0  0  0  0  0  0  0  0  0  0  0  0
    9.8116  -15.7142   19.8784 C   0  0  0  0  0  0  0  0  0  0  0  0
    8.6359  -15.6049   20.8497 C   0  0  1  0  0  0  0  0  0  0  0  0
    7.4433  -15.8675   20.2662 O   0  0  0  0  0  0  0  0  0  0  0  0
    8.9451  -16.3371   22.1365 C   0  0  2  0  0  0  0  0  0  0  0  0
    7.8669  -15.9115   23.0762 N   0  0  0  0  0  0  0  0  0  0  0  0
   10.2524  -16.0629   22.7164 C   0  0  0  0  0  0  0  0  0  0  0  0
   10.6276  -14.8386   22.6450 O   0  0  0  0  0  0  0  0  0  0  0  0
   11.1610  -16.9429   23.3449 N   0  0  0  0  0  0  0  0  0  0  0  0
   10.7459  -18.3164   23.6920 C   0  0  0  0  0  0  0  0  0  0  0  0
   12.0241  -19.1052   23.6009 C   0  0  0  0  0  0  0  0  0  0  0  0
   12.9643  -18.1645   24.3300 C   0  0  0  0  0  0  0  0  0  0  0  0
   12.5234  -16.8200   23.7424 C   0  0  1  0  0  0  0  0  0  0  0  0
   13.4521  -16.5747   22.6126 C   0  0  0  0  0  0  0  0  0  0  0  0
   13.0585  -16.8338   21.3205 O   0  0  0  0  0  0  0  0  0  0  0  0
   14.5892  -16.1332   22.8419 O   0  0  0  0  0  0  0  0  0  0  0  0
  2  1  1  1
  2 10  1  0
  3  2  1  0
  3  4  1  0
  4  5  2  0
  4  9  1  0
  5  6  1  0
  6  7  2  0
  8  7  1  0
  9  8  2  0
 10 11  2  0
 13 12  1  6
 13 15  1  0
 14 13  1  0
 15 17  1  0
 15 16  1  1
 16 10  1  0
 17 18  2  0
 19 17  1  0
 19 20  1  0
 20 21  1  0
 22 21  1  0
 23 19  1  0
 23 22  1  0
 23 24  1  6
 25 24  1  0
 26 24  2  0
M  END
$$$$
