FTP.pdb
     RDKit          3D

 26 27  0  0  1  0  0  0  0  0999 V2000
   11.5234  -17.0428   25.9053 N   0  0  0  0  0  0  0  0  0  0  0  0
   10.7602  -15.9807   25.3032 C   0  0  1  0  0  0  0  0  0  0  0  0
   11.1772  -14.6758   25.9235 C   0  0  0  0  0  0  0  0  0  0  0  0
   10.6505  -14.6359   27.3099 C   0  0  0  0  0  0  0  0  0  0  0  0
   11.4717  -14.9172   28.3994 C   0  0  0  0  0  0  0  0  0  0  0  0
   10.9984  -14.8889   29.6933 C   0  0  0  0  0  0  0  0  0  0  0  0
    9.6886  -14.5774   29.9254 C   0  0  0  0  0  0  0  0  0  0  0  0
    8.8521  -14.2956   28.8844 C   0  0  0  0  0  0  0  0  0  0  0  0
    9.3282  -14.3250   27.5964 C   0  0  0  0  0  0  0  0  0  0  0  0
   10.8769  -15.9638   23.8274 C   0  0  0  0  0  0  0  0  0  0  0  0
   11.9110  -15.3647   23.3708 O   0  0  0  0  0  0  0  0  0  0  0  0
   10.5608  -17.6217   19.3872 C   0  0  0  0  0  0  0  0  0  0  0  0
   10.6107  -17.6165   20.9154 C   0  0  1  0  0  0  0  0  0  0  0  0
   11.8101  -18.0076   21.4055 O   0  0  0  0  0  0  0  0  0  0  0  0
   10.0367  -16.3265   21.4574 C   0  0  2  0  0  0  0  0  0  0  0  0
    9.9527  -16.5457   22.9311 N   0  0  0  0  0  0  0  0  0  0  0  0
    8.7320  -15.9499   20.9317 C   0  0  0  0  0  0  0  0  0  0  0  0
    7.8139  -16.8320   21.0853 O   0  0  0  0  0  0  0  0  0  0  0  0
    8.3317  -14.7605   20.2833 N   0  0  0  0  0  0  0  0  0  0  0  0
    9.2201  -13.5816   20.2787 C   0  0  0  0  0  0  0  0  0  0  0  0
    8.8796  -12.8880   18.9875 C   0  0  0  0  0  0  0  0  0  0  0  0
    7.3656  -12.9592   19.0437 C   0  0  0  0  0  0  0  0  0  0  0  0
    7.1730  -14.3962   19.5390 C   0  0  1  0  0  0  0  0  0  0  0  0
    6.9801  -15.2010   18.3084 C   0  0  0  0  0  0  0  0  0  0  0  0
    5.7513  -15.2452   17.6923 O   0  0  0  0  0  0  0  0  0  0  0  0
    7.9374  -15.8355   17.8377 O   0  0  0  0  0  0  0  0  0  0  0  0
  2  1  1  1
  2 10  1  0
  3  2  1  0
  3  4  1  0
  4  5  2  0
  4  9  1  0
  5  6  1  0
  6  7  2  0
  8  7  1  0
  9  8  2  0
 10 11  2  0
 13 12  1  6
 13 15  1  0
 14 13  1  0
 15 17  1  0
 15 16  1  1
 16 10  1  0
 17 18  2  0
 19 17  1  0
 19 20  1  0
 20 21  1  0
 22 21  1  0
 23 19  1  0
 23 22  1  0
 23 24  1  6
 25 24  1  0
 26 24  2  0
M  END
$$$$
