FTP.pdb
     RDKit          3D

 26 27  0  0  1  0  0  0  0  0999 V2000
    6.9911  -18.1402   20.5838 N   0  0  0  0  0  0  0  0  0  0  0  0
    7.3438  -16.7968   20.9630 C   0  0  1  0  0  0  0  0  0  0  0  0
    6.5771  -15.8346   20.0984 C   0  0  0  0  0  0  0  0  0  0  0  0
    7.2350  -14.5080   20.1907 C   0  0  0  0  0  0  0  0  0  0  0  0
    8.1867  -14.1106   19.2541 C   0  0  0  0  0  0  0  0  0  0  0  0
    8.8105  -12.8841   19.3268 C   0  0  0  0  0  0  0  0  0  0  0  0
    8.4943  -12.0259   20.3418 C   0  0  0  0  0  0  0  0  0  0  0  0
    7.5669  -12.3786   21.2790 C   0  0  0  0  0  0  0  0  0  0  0  0
    6.9476  -13.6021   21.2026 C   0  0  0  0  0  0  0  0  0  0  0  0
    7.1375  -16.5416   22.4068 C   0  0  0  0  0  0  0  0  0  0  0  0
    5.9155  -16.4372   22.7710 O   0  0  0  0  0  0  0  0  0  0  0  0
    5.9318  -17.7949   24.4922 C   0  0  0  0  0  0  0  0  0  0  0  0
    7.2584  -17.5828   25.2223 C   0  0  1  0  0  0  0  0  0  0  0  0
    8.0616  -18.6715   25.1840 O   0  0  0  0  0  0  0  0  0  0  0  0
    7.8756  -16.2616   24.8215 C   0  0  2  0  0  0  0  0  0  0  0  0
    8.1669  -16.4122   23.3657 N   0  0  0  0  0  0  0  0  0  0  0  0
    9.0872  -15.8910   25.5393 C   0  0  0  0  0  0  0  0  0  0  0  0
   10.1207  -16.5933   25.2507 O   0  0  0  0  0  0  0  0  0  0  0  0
    9.2897  -14.8751   26.4995 N   0  0  0  0  0  0  0  0  0  0  0  0
    8.2203  -13.8980   26.7844 C   0  0  0  0  0  0  0  0  0  0  0  0
    8.4474  -13.5370   28.2274 C   0  0  0  0  0  0  0  0  0  0  0  0
    9.9524  -13.3494   28.2164 C   0  0  0  0  0  0  0  0  0  0  0  0
   10.3758  -14.5481   27.3614 C   0  0  1  0  0  0  0  0  0  0  0  0
   10.7022  -15.6162   28.3371 C   0  0  0  0  0  0  0  0  0  0  0  0
   11.9044  -15.6038   29.0049 O   0  0  0  0  0  0  0  0  0  0  0  0
    9.8809  -16.5229   28.5469 O   0  0  0  0  0  0  0  0  0  0  0  0
  2  1  1  6
  2 10  1  0
  3  2  1  0
  3  4  1  0
  4  5  2  0
  4  9  1  0
  5  6  1  0
  6  7  2  0
  8  7  1  0
  9  8  2  0
 10 11  2  0
 13 12  1  6
 13 15  1  0
 14 13  1  0
 15 17  1  0
 15 16  1  6
 16 10  1  0
 17 18  2  0
 19 17  1  0
 19 20  1  0
 20 21  1  0
 22 21  1  0
 23 19  1  0
 23 22  1  0
 23 24  1  1
 25 24  1  0
 26 24  2  0
M  END
$$$$
