FTP.pdb
     RDKit          3D

 26 27  0  0  1  0  0  0  0  0999 V2000
    6.3255  -15.8020   25.7232 N   0  0  0  0  0  0  0  0  0  0  0  0
    6.5891  -15.6557   24.3153 C   0  0  1  0  0  0  0  0  0  0  0  0
    6.6556  -14.1897   23.9869 C   0  0  0  0  0  0  0  0  0  0  0  0
    6.9546  -13.4507   25.2382 C   0  0  0  0  0  0  0  0  0  0  0  0
    8.2664  -13.2710   25.6711 C   0  0  0  0  0  0  0  0  0  0  0  0
    8.5622  -12.5910   26.8327 C   0  0  0  0  0  0  0  0  0  0  0  0
    7.5480  -12.0745   27.5885 C   0  0  0  0  0  0  0  0  0  0  0  0
    6.2494  -12.2296   27.1980 C   0  0  0  0  0  0  0  0  0  0  0  0
    5.9593  -12.9081   26.0396 C   0  0  0  0  0  0  0  0  0  0  0  0
    7.8054  -16.3830   23.8867 C   0  0  0  0  0  0  0  0  0  0  0  0
    8.2816  -17.2003   24.7481 O   0  0  0  0  0  0  0  0  0  0  0  0
    8.0840  -17.9981   20.3930 C   0  0  0  0  0  0  0  0  0  0  0  0
    9.3859  -17.2626   20.7123 C   0  0  1  0  0  0  0  0  0  0  0  0
    9.5550  -16.1432   19.9706 O   0  0  0  0  0  0  0  0  0  0  0  0
    9.5615  -17.1264   22.2082 C   0  0  2  0  0  0  0  0  0  0  0  0
    8.4441  -16.2343   22.6353 N   0  0  0  0  0  0  0  0  0  0  0  0
   10.8372  -16.5750   22.6431 C   0  0  0  0  0  0  0  0  0  0  0  0
   11.0459  -15.3589   22.2938 O   0  0  0  0  0  0  0  0  0  0  0  0
   11.8712  -17.1799   23.3916 N   0  0  0  0  0  0  0  0  0  0  0  0
   11.7230  -18.5654   23.8791 C   0  0  0  0  0  0  0  0  0  0  0  0
   13.1363  -19.0808   23.9128 C   0  0  0  0  0  0  0  0  0  0  0  0
   13.8312  -17.8968   24.5574 C   0  0  0  0  0  0  0  0  0  0  0  0
   13.1597  -16.7398   23.8105 C   0  0  1  0  0  0  0  0  0  0  0  0
   14.0758  -16.4289   22.6864 C   0  0  0  0  0  0  0  0  0  0  0  0
   13.8222  -16.9198   21.4269 O   0  0  0  0  0  0  0  0  0  0  0  0
   15.0747  -15.7212   22.8910 O   0  0  0  0  0  0  0  0  0  0  0  0
  2  1  1  1
  2 10  1  0
  3  2  1  0
  3  4  1  0
  4  5  2  0
  4  9  1  0
  5  6  1  0
  6  7  2  0
  8  7  1  0
  9  8  2  0
 10 11  2  0
 13 12  1  1
 13 15  1  0
 14 13  1  0
 15 17  1  0
 15 16  1  6
 16 10  1  0
 17 18  2  0
 19 17  1  0
 19 20  1  0
 20 21  1  0
 22 21  1  0
 23 19  1  0
 23 22  1  0
 23 24  1  6
 25 24  1  0
 26 24  2  0
M  END
$$$$
