FTP.pdb
     RDKit          3D

 26 27  0  0  1  0  0  0  0  0999 V2000
    8.7203  -15.7362   25.6865 N   0  0  0  0  0  0  0  0  0  0  0  0
    7.4664  -16.3950   25.4282 C   0  0  1  0  0  0  0  0  0  0  0  0
    6.4293  -15.8432   26.3670 C   0  0  0  0  0  0  0  0  0  0  0  0
    6.6909  -14.3932   26.5412 C   0  0  0  0  0  0  0  0  0  0  0  0
    5.7158  -13.4453   26.2392 C   0  0  0  0  0  0  0  0  0  0  0  0
    5.9430  -12.0946   26.3910 C   0  0  0  0  0  0  0  0  0  0  0  0
    7.1550  -11.6621   26.8500 C   0  0  0  0  0  0  0  0  0  0  0  0
    8.1362  -12.5599   27.1569 C   0  0  0  0  0  0  0  0  0  0  0  0
    7.9054  -13.9051   27.0040 C   0  0  0  0  0  0  0  0  0  0  0  0
    7.0522  -16.2920   24.0105 C   0  0  0  0  0  0  0  0  0  0  0  0
    5.8581  -16.6794   23.7637 O   0  0  0  0  0  0  0  0  0  0  0  0
    6.6731  -13.5814   21.5738 C   0  0  0  0  0  0  0  0  0  0  0  0
    7.6582  -14.5674   20.9451 C   0  0  1  0  0  0  0  0  0  0  0  0
    8.9247  -14.0924   20.9015 O   0  0  0  0  0  0  0  0  0  0  0  0
    7.4646  -15.9498   21.5272 C   0  0  2  0  0  0  0  0  0  0  0  0
    7.8634  -15.8112   22.9584 N   0  0  0  0  0  0  0  0  0  0  0  0
    8.2337  -17.0115   20.8932 C   0  0  0  0  0  0  0  0  0  0  0  0
    9.4681  -17.0618   21.2371 O   0  0  0  0  0  0  0  0  0  0  0  0
    7.8203  -17.9900   19.9622 N   0  0  0  0  0  0  0  0  0  0  0  0
    6.4147  -18.0424   19.5141 C   0  0  0  0  0  0  0  0  0  0  0  0
    6.5101  -18.5902   18.1158 C   0  0  0  0  0  0  0  0  0  0  0  0
    7.4963  -19.7197   18.3442 C   0  0  0  0  0  0  0  0  0  0  0  0
    8.5057  -19.0257   19.2644 C   0  0  1  0  0  0  0  0  0  0  0  0
    9.5690  -18.5285   18.3580 C   0  0  0  0  0  0  0  0  0  0  0  0
   10.4563  -19.4062   17.7803 O   0  0  0  0  0  0  0  0  0  0  0  0
    9.6523  -17.3124   18.1242 O   0  0  0  0  0  0  0  0  0  0  0  0
  2  1  1  6
  2 10  1  0
  3  2  1  0
  3  4  1  0
  4  5  2  0
  4  9  1  0
  5  6  1  0
  6  7  2  0
  8  7  1  0
  9  8  2  0
 10 11  2  0
 13 12  1  1
 13 15  1  0
 14 13  1  0
 15 17  1  0
 15 16  1  1
 16 10  1  0
 17 18  2  0
 19 17  1  0
 19 20  1  0
 20 21  1  0
 22 21  1  0
 23 19  1  0
 23 22  1  0
 23 24  1  6
 25 24  1  0
 26 24  2  0
M  END
$$$$
