MSQ.pdb
     RDKit          3D

 24 23  0  0  1  0  0  0  0  0999 V2000
    9.9858  -10.6717   -9.4581 C   0  0  0  0  0  0  0  0  0  0  0  0
   11.4525   -9.8967   -8.7325 S   0  0  0  0  0  0  0  0  0  0  0  0
   12.8949  -10.2299   -9.7729 C   0  0  0  0  0  0  0  0  0  0  0  0
   14.1487   -9.5804   -9.2228 C   0  0  0  0  0  0  0  0  0  0  0  0
   15.2703   -9.8848  -10.2127 C   0  0  2  0  0  0  0  0  0  0  0  0
   15.7060  -11.2412  -10.1208 N   0  0  0  0  0  0  0  0  0  0  0  0
   16.3809   -8.9056   -9.9137 C   0  0  0  0  0  0  0  0  0  0  0  0
   17.0819   -8.9950   -8.8775 O   0  0  0  0  0  0  0  0  0  0  0  0
   19.7740   -6.0146  -11.3253 O   0  0  0  0  0  0  0  0  0  0  0  0
   18.7609   -6.9044  -11.6577 C   0  0  0  0  0  0  0  0  0  0  0  0
   17.7110   -6.8440  -10.5702 C   0  0  2  0  0  0  0  0  0  0  0  0
   16.6698   -7.8437  -10.8042 N   0  0  0  0  0  0  0  0  0  0  0  0
   17.1266   -5.5028  -10.4228 C   0  0  0  0  0  0  0  0  0  0  0  0
   16.2353   -5.0911  -11.2546 O   0  0  0  0  0  0  0  0  0  0  0  0
   15.8854   -1.9188   -5.6008 N   0  0  0  0  0  0  0  0  0  0  0  0
   15.8558   -0.9455   -6.6166 C   0  0  0  0  0  0  0  0  0  0  0  0
   15.3331    0.1601   -6.4108 O   0  0  0  0  0  0  0  0  0  0  0  0
   16.4539   -1.2467   -7.9399 C   0  0  0  0  0  0  0  0  0  0  0  0
   17.0149   -2.6392   -7.9993 C   0  0  0  0  0  0  0  0  0  0  0  0
   16.8552   -3.2373   -9.3319 C   0  0  2  0  0  0  0  0  0  0  0  0
   17.4469   -4.5722   -9.4264 N   0  0  0  0  0  0  0  0  0  0  0  0
   17.3467   -2.4578  -10.4418 C   0  0  0  0  0  0  0  0  0  0  0  0
   18.5444   -2.5987  -10.8615 O   0  0  0  0  0  0  0  0  0  0  0  0
   16.5785   -1.5374  -11.1066 O   0  0  0  0  0  0  0  0  0  0  0  0
  2  1  1  0
  2  3  1  0
  4  3  1  0
  5  4  1  0
  5  6  1  1
  7  8  2  0
  7  5  1  0
  9 10  1  0
 11 10  1  6
 11 12  1  0
 12  7  1  0
 13 11  1  0
 13 21  1  0
 14 13  2  0
 16 17  2  0
 16 15  1  0
 18 16  1  0
 19 18  1  0
 20 19  1  1
 20 21  1  0
 20 22  1  0
 22 24  1  0
 23 22  2  0
M  END
$$$$
