MSQ.pdb
     RDKit          3D

 24 23  0  0  1  0  0  0  0  0999 V2000
   27.6274  -16.5170  -14.7057 C   0  0  0  0  0  0  0  0  0  0  0  0
   26.8532  -15.1246  -15.5660 S   0  0  0  0  0  0  0  0  0  0  0  0
   25.0584  -15.1958  -15.3473 C   0  0  0  0  0  0  0  0  0  0  0  0
   24.3616  -14.0329  -16.0244 C   0  0  0  0  0  0  0  0  0  0  0  0
   22.8669  -14.3420  -15.9979 C   0  0  2  0  0  0  0  0  0  0  0  0
   22.5746  -15.6026  -16.6010 N   0  0  0  0  0  0  0  0  0  0  0  0
   22.1815  -13.1968  -16.7052 C   0  0  0  0  0  0  0  0  0  0  0  0
   21.8997  -13.2457  -17.9264 O   0  0  0  0  0  0  0  0  0  0  0  0
   18.9557  -11.6663  -15.9285 O   0  0  0  0  0  0  0  0  0  0  0  0
   19.7157  -11.3821  -17.0555 C   0  0  0  0  0  0  0  0  0  0  0  0
   21.0776  -10.9121  -16.5940 C   0  0  2  0  0  0  0  0  0  0  0  0
   21.8307  -12.0180  -16.0040 N   0  0  0  0  0  0  0  0  0  0  0  0
   20.9980   -9.7766  -15.6633 C   0  0  0  0  0  0  0  0  0  0  0  0
   21.0973   -9.9717  -14.3954 O   0  0  0  0  0  0  0  0  0  0  0  0
   23.2611   -4.0925  -16.5662 N   0  0  0  0  0  0  0  0  0  0  0  0
   22.6869   -3.9498  -15.2895 C   0  0  0  0  0  0  0  0  0  0  0  0
   22.8132   -2.8889  -14.6599 O   0  0  0  0  0  0  0  0  0  0  0  0
   21.9267   -5.0766  -14.6961 C   0  0  0  0  0  0  0  0  0  0  0  0
   21.8192   -6.2407  -15.6397 C   0  0  0  0  0  0  0  0  0  0  0  0
   20.9762   -7.3127  -15.0928 C   0  0  2  0  0  0  0  0  0  0  0  0
   20.8167   -8.4342  -16.0191 N   0  0  0  0  0  0  0  0  0  0  0  0
   19.6621   -6.9218  -14.6437 C   0  0  0  0  0  0  0  0  0  0  0  0
   18.6487   -7.0282  -15.4131 O   0  0  0  0  0  0  0  0  0  0  0  0
   19.4184   -6.4243  -13.3898 O   0  0  0  0  0  0  0  0  0  0  0  0
  2  1  1  0
  2  3  1  0
  4  3  1  0
  5  4  1  0
  5  6  1  6
  7  8  2  0
  7  5  1  0
  9 10  1  0
 11 10  1  1
 11 12  1  0
 12  7  1  0
 13 11  1  0
 13 21  1  0
 14 13  2  0
 16 17  2  0
 16 15  1  0
 18 16  1  0
 19 18  1  0
 20 19  1  6
 20 21  1  0
 20 22  1  0
 22 24  1  0
 23 22  2  0
M  END
$$$$
