MSQ.pdb
     RDKit          3D

 24 23  0  0  1  0  0  0  0  0999 V2000
   20.8552  -20.4255  -10.2061 C   0  0  0  0  0  0  0  0  0  0  0  0
   21.6607  -20.6068   -8.5947 S   0  0  0  0  0  0  0  0  0  0  0  0
   23.4084  -21.0118   -8.8300 C   0  0  0  0  0  0  0  0  0  0  0  0
   23.9467  -20.4515  -10.1311 C   0  0  0  0  0  0  0  0  0  0  0  0
   25.3994  -20.9083  -10.2373 C   0  0  2  0  0  0  0  0  0  0  0  0
   26.1820  -20.4506   -9.1344 N   0  0  0  0  0  0  0  0  0  0  0  0
   25.9146  -20.3893  -11.5589 C   0  0  0  0  0  0  0  0  0  0  0  0
   26.4600  -19.2644  -11.6618 O   0  0  0  0  0  0  0  0  0  0  0  0
   26.5574  -22.8385  -14.6755 O   0  0  0  0  0  0  0  0  0  0  0  0
   26.9450  -21.5190  -14.8684 C   0  0  0  0  0  0  0  0  0  0  0  0
   25.9992  -20.6353  -14.0853 C   0  0  2  0  0  0  0  0  0  0  0  0
   25.7975  -21.1649  -12.7373 N   0  0  0  0  0  0  0  0  0  0  0  0
   24.7126  -20.4389  -14.7694 C   0  0  0  0  0  0  0  0  0  0  0  0
   23.6719  -21.0933  -14.3894 O   0  0  0  0  0  0  0  0  0  0  0  0
   20.9994  -16.0507  -15.0870 N   0  0  0  0  0  0  0  0  0  0  0  0
   20.4246  -16.8121  -16.1214 C   0  0  0  0  0  0  0  0  0  0  0  0
   19.3306  -16.4865  -16.6064 O   0  0  0  0  0  0  0  0  0  0  0  0
   21.1335  -18.0104  -16.6323 C   0  0  0  0  0  0  0  0  0  0  0  0
   22.4312  -18.2452  -15.9125 C   0  0  0  0  0  0  0  0  0  0  0  0
   23.1705  -19.3841  -16.4740 C   0  0  2  0  0  0  0  0  0  0  0  0
   24.4782  -19.5738  -15.8456 N   0  0  0  0  0  0  0  0  0  0  0  0
   23.3659  -19.3728  -17.9033 C   0  0  0  0  0  0  0  0  0  0  0  0
   24.4699  -18.9795  -18.4102 O   0  0  0  0  0  0  0  0  0  0  0  0
   22.4036  -19.7767  -18.7922 O   0  0  0  0  0  0  0  0  0  0  0  0
  2  1  1  0
  2  3  1  0
  4  3  1  0
  5  4  1  0
  5  6  1  1
  7  8  2  0
  7  5  1  0
  9 10  1  0
 11 10  1  6
 11 12  1  0
 12  7  1  0
 13 11  1  0
 13 21  1  0
 14 13  2  0
 16 17  2  0
 16 15  1  0
 18 16  1  0
 19 18  1  0
 20 19  1  1
 20 21  1  0
 20 22  1  0
 22 24  1  0
 23 22  2  0
M  END
$$$$
