MSQ.pdb
     RDKit          3D

 24 23  0  0  1  0  0  0  0  0999 V2000
   21.5960  -17.6409  -17.0377 C   0  0  0  0  0  0  0  0  0  0  0  0
   21.2841  -17.3663  -18.7999 S   0  0  0  0  0  0  0  0  0  0  0  0
   21.6835  -15.6545  -19.2293 C   0  0  0  0  0  0  0  0  0  0  0  0
   21.6275  -14.7424  -18.0204 C   0  0  0  0  0  0  0  0  0  0  0  0
   22.0781  -13.3620  -18.4917 C   0  0  2  0  0  0  0  0  0  0  0  0
   23.3933  -13.3935  -19.0461 N   0  0  0  0  0  0  0  0  0  0  0  0
   21.9849  -12.4498  -17.2914 C   0  0  0  0  0  0  0  0  0  0  0  0
   20.9136  -12.2966  -16.6573 O   0  0  0  0  0  0  0  0  0  0  0  0
   25.0974   -9.8003  -16.4107 O   0  0  0  0  0  0  0  0  0  0  0  0
   24.5021  -10.4105  -15.3144 C   0  0  0  0  0  0  0  0  0  0  0  0
   23.0953  -10.8050  -15.7064 C   0  0  2  0  0  0  0  0  0  0  0  0
   23.1169  -11.7305  -16.8383 N   0  0  0  0  0  0  0  0  0  0  0  0
   22.2425   -9.6427  -15.9957 C   0  0  0  0  0  0  0  0  0  0  0  0
   22.2165   -9.1386  -17.1793 O   0  0  0  0  0  0  0  0  0  0  0  0
   16.7470   -9.3958  -15.2178 N   0  0  0  0  0  0  0  0  0  0  0  0
   17.5077   -9.7022  -16.3613 C   0  0  0  0  0  0  0  0  0  0  0  0
   17.0934  -10.5295  -17.1871 O   0  0  0  0  0  0  0  0  0  0  0  0
   18.8121   -9.0303  -16.5772 C   0  0  0  0  0  0  0  0  0  0  0  0
   19.1624   -8.1062  -15.4456 C   0  0  0  0  0  0  0  0  0  0  0  0
   20.6014   -7.8111  -15.4053 C   0  0  2  0  0  0  0  0  0  0  0  0
   21.4101   -8.9864  -15.0803 N   0  0  0  0  0  0  0  0  0  0  0  0
   21.0065   -6.7408  -14.5270 C   0  0  0  0  0  0  0  0  0  0  0  0
   21.8278   -6.9524  -13.5725 O   0  0  0  0  0  0  0  0  0  0  0  0
   20.5502   -5.4547  -14.6566 O   0  0  0  0  0  0  0  0  0  0  0  0
  2  1  1  0
  2  3  1  0
  4  3  1  0
  5  4  1  0
  5  6  1  1
  7  8  2  0
  7  5  1  0
  9 10  1  0
 11 10  1  6
 11 12  1  0
 12  7  1  0
 13 11  1  0
 13 21  1  0
 14 13  2  0
 16 17  2  0
 16 15  1  0
 18 16  1  0
 19 18  1  0
 20 19  1  1
 20 21  1  0
 20 22  1  0
 22 24  1  0
 23 22  2  0
M  END
$$$$
