MSQ.pdb
     RDKit          3D

 24 23  0  0  1  0  0  0  0  0999 V2000
   23.7580  -13.7085  -16.8897 C   0  0  0  0  0  0  0  0  0  0  0  0
   22.8178  -12.3620  -16.1273 S   0  0  0  0  0  0  0  0  0  0  0  0
   23.8988  -11.4073  -15.0345 C   0  0  0  0  0  0  0  0  0  0  0  0
   23.1456  -10.3026  -14.3212 C   0  0  0  0  0  0  0  0  0  0  0  0
   22.5975   -9.3761  -15.4037 C   0  0  2  0  0  0  0  0  0  0  0  0
   23.6295   -8.9009  -16.2682 N   0  0  0  0  0  0  0  0  0  0  0  0
   21.8901   -8.2516  -14.6852 C   0  0  0  0  0  0  0  0  0  0  0  0
   20.9472   -8.4654  -13.8861 O   0  0  0  0  0  0  0  0  0  0  0  0
   22.6648   -4.2697  -15.7792 O   0  0  0  0  0  0  0  0  0  0  0  0
   22.3920   -4.5041  -14.4379 C   0  0  0  0  0  0  0  0  0  0  0  0
   21.5504   -5.7578  -14.3447 C   0  0  2  0  0  0  0  0  0  0  0  0
   22.2734   -6.9047  -14.8925 N   0  0  0  0  0  0  0  0  0  0  0  0
   20.2387   -5.6071  -14.9917 C   0  0  0  0  0  0  0  0  0  0  0  0
   20.0339   -6.1034  -16.1611 O   0  0  0  0  0  0  0  0  0  0  0  0
   15.2369   -8.0834  -14.9115 N   0  0  0  0  0  0  0  0  0  0  0  0
   14.7383   -6.9036  -15.4940 C   0  0  0  0  0  0  0  0  0  0  0  0
   13.5735   -6.8568  -15.9173 O   0  0  0  0  0  0  0  0  0  0  0  0
   15.6131   -5.7108  -15.6010 C   0  0  0  0  0  0  0  0  0  0  0  0
   16.9558   -5.9400  -14.9671 C   0  0  0  0  0  0  0  0  0  0  0  0
   17.8508   -4.7888  -15.1490 C   0  0  2  0  0  0  0  0  0  0  0  0
   19.1267   -4.9495  -14.4509 N   0  0  0  0  0  0  0  0  0  0  0  0
   17.3107   -3.5005  -14.7890 C   0  0  0  0  0  0  0  0  0  0  0  0
   16.6632   -2.8013  -15.6389 O   0  0  0  0  0  0  0  0  0  0  0  0
   17.4505   -2.9544  -13.5394 O   0  0  0  0  0  0  0  0  0  0  0  0
  2  1  1  0
  2  3  1  0
  4  3  1  0
  5  4  1  0
  5  6  1  1
  7  8  2  0
  7  5  1  0
  9 10  1  0
 11 10  1  6
 11 12  1  0
 12  7  1  0
 13 11  1  0
 13 21  1  0
 14 13  2  0
 16 17  2  0
 16 15  1  0
 18 16  1  0
 19 18  1  0
 20 19  1  1
 20 21  1  0
 20 22  1  0
 22 24  1  0
 23 22  2  0
M  END
$$$$
