MSQ.pdb
     RDKit          3D

 24 23  0  0  1  0  0  0  0  0999 V2000
   16.5173  -14.0490  -13.8086 C   0  0  0  0  0  0  0  0  0  0  0  0
   14.7606  -14.4300  -14.0259 S   0  0  0  0  0  0  0  0  0  0  0  0
   13.7760  -12.9356  -13.7590 C   0  0  0  0  0  0  0  0  0  0  0  0
   14.4296  -11.7132  -14.3715 C   0  0  0  0  0  0  0  0  0  0  0  0
   13.6097  -10.5064  -13.9223 C   0  0  2  0  0  0  0  0  0  0  0  0
   12.2454  -10.6098  -14.3299 N   0  0  0  0  0  0  0  0  0  0  0  0
   14.2894   -9.2886  -14.5024 C   0  0  0  0  0  0  0  0  0  0  0  0
   13.9358   -8.7915  -15.5983 O   0  0  0  0  0  0  0  0  0  0  0  0
   16.0707   -5.1260  -14.3263 O   0  0  0  0  0  0  0  0  0  0  0  0
   15.3809   -6.2159  -13.8117 C   0  0  0  0  0  0  0  0  0  0  0  0
   16.0561   -7.4740  -14.3115 C   0  0  2  0  0  0  0  0  0  0  0  0
   15.3596   -8.6619  -13.8196 N   0  0  0  0  0  0  0  0  0  0  0  0
   17.4847   -7.5236  -13.9668 C   0  0  0  0  0  0  0  0  0  0  0  0
   17.8866   -8.2425  -12.9782 O   0  0  0  0  0  0  0  0  0  0  0  0
   21.7175  -10.5685  -15.6094 N   0  0  0  0  0  0  0  0  0  0  0  0
   22.5518   -9.6171  -14.9940 C   0  0  0  0  0  0  0  0  0  0  0  0
   23.7650   -9.8383  -14.8623 O   0  0  0  0  0  0  0  0  0  0  0  0
   21.9740   -8.3433  -14.5008 C   0  0  0  0  0  0  0  0  0  0  0  0
   20.4980   -8.2554  -14.7671 C   0  0  0  0  0  0  0  0  0  0  0  0
   19.9325   -6.9819  -14.3006 C   0  0  2  0  0  0  0  0  0  0  0  0
   18.5133   -6.8406  -14.6278 N   0  0  0  0  0  0  0  0  0  0  0  0
   20.6079   -5.7863  -14.7428 C   0  0  0  0  0  0  0  0  0  0  0  0
   20.1042   -5.0494  -15.6559 O   0  0  0  0  0  0  0  0  0  0  0  0
   21.8057   -5.3692  -14.2228 O   0  0  0  0  0  0  0  0  0  0  0  0
  2  1  1  0
  2  3  1  0
  4  3  1  0
  5  4  1  0
  5  6  1  6
  7  8  2  0
  7  5  1  0
  9 10  1  0
 11 10  1  1
 11 12  1  0
 12  7  1  0
 13 11  1  0
 13 21  1  0
 14 13  2  0
 16 17  2  0
 16 15  1  0
 18 16  1  0
 19 18  1  0
 20 19  1  6
 20 21  1  0
 20 22  1  0
 22 24  1  0
 23 22  2  0
M  END
$$$$
