MSQ.pdb
     RDKit          3D

 24 23  0  0  1  0  0  0  0  0999 V2000
   23.9207  -22.1317  -18.6308 C   0  0  0  0  0  0  0  0  0  0  0  0
   24.1026  -20.4108  -19.1633 S   0  0  0  0  0  0  0  0  0  0  0  0
   23.6556  -19.3027  -17.8045 C   0  0  0  0  0  0  0  0  0  0  0  0
   23.4446  -20.0577  -16.5076 C   0  0  0  0  0  0  0  0  0  0  0  0
   21.9861  -19.8459  -16.1096 C   0  0  2  0  0  0  0  0  0  0  0  0
   21.6550  -18.4598  -16.0238 N   0  0  0  0  0  0  0  0  0  0  0  0
   21.7943  -20.5624  -14.7938 C   0  0  0  0  0  0  0  0  0  0  0  0
   22.0802  -21.7755  -14.6521 O   0  0  0  0  0  0  0  0  0  0  0  0
   19.7230  -18.6552  -11.6904 O   0  0  0  0  0  0  0  0  0  0  0  0
   20.7491  -19.5086  -11.3064 C   0  0  0  0  0  0  0  0  0  0  0  0
   20.9387  -20.5337  -12.4026 C   0  0  2  0  0  0  0  0  0  0  0  0
   21.2803  -19.8798  -13.6651 N   0  0  0  0  0  0  0  0  0  0  0  0
   19.7689  -21.4096  -12.5656 C   0  0  0  0  0  0  0  0  0  0  0  0
   18.9564  -21.2270  -13.5464 O   0  0  0  0  0  0  0  0  0  0  0  0
   18.2032  -26.9335   -9.7796 N   0  0  0  0  0  0  0  0  0  0  0  0
   17.1273  -26.6903  -10.6533 C   0  0  0  0  0  0  0  0  0  0  0  0
   16.2279  -27.5330  -10.7906 O   0  0  0  0  0  0  0  0  0  0  0  0
   17.0716  -25.4177  -11.4131 C   0  0  0  0  0  0  0  0  0  0  0  0
   18.3101  -24.5906  -11.2157 C   0  0  0  0  0  0  0  0  0  0  0  0
   18.2194  -23.2959  -11.9047 C   0  0  2  0  0  0  0  0  0  0  0  0
   19.4197  -22.4776  -11.7297 N   0  0  0  0  0  0  0  0  0  0  0  0
   17.0770  -22.4789  -11.5750 C   0  0  0  0  0  0  0  0  0  0  0  0
   17.1575  -21.5712  -10.6805 O   0  0  0  0  0  0  0  0  0  0  0  0
   15.8582  -22.6167  -12.1871 O   0  0  0  0  0  0  0  0  0  0  0  0
  2  1  1  0
  2  3  1  0
  4  3  1  0
  5  4  1  0
  5  6  1  1
  7  8  2  0
  7  5  1  0
  9 10  1  0
 11 10  1  1
 11 12  1  0
 12  7  1  0
 13 11  1  0
 13 21  1  0
 14 13  2  0
 16 17  2  0
 16 15  1  0
 18 16  1  0
 19 18  1  0
 20 19  1  1
 20 21  1  0
 20 22  1  0
 22 24  1  0
 23 22  2  0
M  END
$$$$
