MSQ.pdb
     RDKit          3D

 24 23  0  0  1  0  0  0  0  0999 V2000
   16.9721  -19.4944  -17.4057 C   0  0  0  0  0  0  0  0  0  0  0  0
   16.9705  -18.0539  -16.3088 S   0  0  0  0  0  0  0  0  0  0  0  0
   17.3200  -16.5590  -17.2666 C   0  0  0  0  0  0  0  0  0  0  0  0
   17.1445  -15.3037  -16.4361 C   0  0  0  0  0  0  0  0  0  0  0  0
   17.6273  -14.1383  -17.2959 C   0  0  2  0  0  0  0  0  0  0  0  0
   18.8992  -14.4054  -17.8866 N   0  0  0  0  0  0  0  0  0  0  0  0
   17.6581  -12.9267  -16.3945 C   0  0  0  0  0  0  0  0  0  0  0  0
   16.6880  -12.6226  -15.6598 O   0  0  0  0  0  0  0  0  0  0  0  0
   20.9592  -10.4040  -16.5360 O   0  0  0  0  0  0  0  0  0  0  0  0
   20.3095  -10.4691  -15.3103 C   0  0  0  0  0  0  0  0  0  0  0  0
   18.8688  -10.8537  -15.5654 C   0  0  2  0  0  0  0  0  0  0  0  0
   18.7964  -12.0862  -16.3489 N   0  0  0  0  0  0  0  0  0  0  0  0
   18.1022   -9.7771  -16.2097 C   0  0  0  0  0  0  0  0  0  0  0  0
   17.9807   -9.7470  -17.4903 O   0  0  0  0  0  0  0  0  0  0  0  0
   13.5908   -5.8815  -14.0949 N   0  0  0  0  0  0  0  0  0  0  0  0
   13.8639   -5.3709  -15.3773 C   0  0  0  0  0  0  0  0  0  0  0  0
   13.1775   -4.4500  -15.8451 O   0  0  0  0  0  0  0  0  0  0  0  0
   14.9797   -5.9395  -16.1719 C   0  0  0  0  0  0  0  0  0  0  0  0
   15.6454   -7.0862  -15.4653 C   0  0  0  0  0  0  0  0  0  0  0  0
   16.7716   -7.6264  -16.2392 C   0  0  2  0  0  0  0  0  0  0  0  0
   17.4540   -8.7237  -15.5526 N   0  0  0  0  0  0  0  0  0  0  0  0
   17.7735   -6.6745  -16.6530 C   0  0  0  0  0  0  0  0  0  0  0  0
   18.8698   -6.5561  -16.0090 O   0  0  0  0  0  0  0  0  0  0  0  0
   17.6210   -5.8547  -17.7410 O   0  0  0  0  0  0  0  0  0  0  0  0
  2  1  1  0
  2  3  1  0
  4  3  1  0
  5  4  1  0
  5  6  1  1
  7  8  2  0
  7  5  1  0
  9 10  1  0
 11 10  1  6
 11 12  1  0
 12  7  1  0
 13 11  1  0
 13 21  1  0
 14 13  2  0
 16 17  2  0
 16 15  1  0
 18 16  1  0
 19 18  1  0
 20 19  1  1
 20 21  1  0
 20 22  1  0
 22 24  1  0
 23 22  2  0
M  END
$$$$
