MSQ.pdb
     RDKit          3D

 24 23  0  0  1  0  0  0  0  0999 V2000
   12.6869  -10.6369  -17.1961 C   0  0  0  0  0  0  0  0  0  0  0  0
   13.0257  -12.2788  -16.5123 S   0  0  0  0  0  0  0  0  0  0  0  0
   14.8082  -12.5894  -16.5293 C   0  0  0  0  0  0  0  0  0  0  0  0
   15.5341  -11.7639  -15.4862 C   0  0  0  0  0  0  0  0  0  0  0  0
   17.0266  -12.0063  -15.6962 C   0  0  2  0  0  0  0  0  0  0  0  0
   17.4010  -13.3410  -15.3546 N   0  0  0  0  0  0  0  0  0  0  0  0
   17.7483  -10.9774  -14.8584 C   0  0  0  0  0  0  0  0  0  0  0  0
   17.7876  -11.0514  -13.6069 O   0  0  0  0  0  0  0  0  0  0  0  0
   20.5625   -7.0127  -14.8411 O   0  0  0  0  0  0  0  0  0  0  0  0
   19.9574   -7.9943  -15.6150 C   0  0  0  0  0  0  0  0  0  0  0  0
   19.0351   -8.7921  -14.7198 C   0  0  2  0  0  0  0  0  0  0  0  0
   18.4117   -9.8842  -15.4660 N   0  0  0  0  0  0  0  0  0  0  0  0
   18.0175   -7.9550  -14.0674 C   0  0  0  0  0  0  0  0  0  0  0  0
   16.8924   -7.7325  -14.6508 O   0  0  0  0  0  0  0  0  0  0  0  0
   14.8933   -5.5312   -7.8515 N   0  0  0  0  0  0  0  0  0  0  0  0
   15.9702   -6.0397   -8.6010 C   0  0  0  0  0  0  0  0  0  0  0  0
   16.9303   -6.5805   -8.0322 O   0  0  0  0  0  0  0  0  0  0  0  0
   15.9539   -5.9266  -10.0797 C   0  0  0  0  0  0  0  0  0  0  0  0
   17.0478   -6.7355  -10.7172 C   0  0  0  0  0  0  0  0  0  0  0  0
   17.0757   -6.5644  -12.1764 C   0  0  2  0  0  0  0  0  0  0  0  0
   18.1399   -7.3389  -12.8156 N   0  0  0  0  0  0  0  0  0  0  0  0
   17.1697   -5.2070  -12.6558 C   0  0  0  0  0  0  0  0  0  0  0  0
   18.2789   -4.7378  -13.0800 O   0  0  0  0  0  0  0  0  0  0  0  0
   16.0996   -4.3510  -12.6900 O   0  0  0  0  0  0  0  0  0  0  0  0
  2  1  1  0
  2  3  1  0
  4  3  1  0
  5  4  1  0
  5  6  1  1
  7  8  2  0
  7  5  1  0
  9 10  1  0
 11 10  1  6
 11 12  1  0
 12  7  1  0
 13 11  1  0
 13 21  1  0
 14 13  2  0
 16 17  2  0
 16 15  1  0
 18 16  1  0
 19 18  1  0
 20 19  1  1
 20 21  1  0
 20 22  1  0
 22 24  1  0
 23 22  2  0
M  END
$$$$
