MSQ.pdb
     RDKit          3D

 24 23  0  0  1  0  0  0  0  0999 V2000
   19.7551  -14.6312  -21.8088 C   0  0  0  0  0  0  0  0  0  0  0  0
   18.8232  -13.7346  -20.5415 S   0  0  0  0  0  0  0  0  0  0  0  0
   19.7970  -13.6447  -19.0192 C   0  0  0  0  0  0  0  0  0  0  0  0
   19.0472  -12.9321  -17.9117 C   0  0  0  0  0  0  0  0  0  0  0  0
   19.9948  -12.8599  -16.7170 C   0  0  2  0  0  0  0  0  0  0  0  0
   19.9125  -14.0295  -15.9024 N   0  0  0  0  0  0  0  0  0  0  0  0
   19.6290  -11.6067  -15.9572 C   0  0  0  0  0  0  0  0  0  0  0  0
   18.9633  -11.6464  -14.8949 O   0  0  0  0  0  0  0  0  0  0  0  0
   21.3860   -9.2237  -14.1951 O   0  0  0  0  0  0  0  0  0  0  0  0
   20.0068   -9.1066  -14.3083 C   0  0  0  0  0  0  0  0  0  0  0  0
   19.6604   -9.0732  -15.7805 C   0  0  2  0  0  0  0  0  0  0  0  0
   20.0311  -10.3324  -16.4250 N   0  0  0  0  0  0  0  0  0  0  0  0
   20.2663   -7.9292  -16.4778 C   0  0  0  0  0  0  0  0  0  0  0  0
   21.4949   -7.9800  -16.8568 O   0  0  0  0  0  0  0  0  0  0  0  0
   17.9981   -4.6073  -20.9396 N   0  0  0  0  0  0  0  0  0  0  0  0
   19.2743   -5.1613  -21.1501 C   0  0  0  0  0  0  0  0  0  0  0  0
   19.6806   -5.3811  -22.3010 O   0  0  0  0  0  0  0  0  0  0  0  0
   20.1361   -5.4833  -19.9868 C   0  0  0  0  0  0  0  0  0  0  0  0
   19.4523   -5.1881  -18.6820 C   0  0  0  0  0  0  0  0  0  0  0  0
   20.2530   -5.6304  -17.5320 C   0  0  2  0  0  0  0  0  0  0  0  0
   19.6237   -6.7255  -16.7934 N   0  0  0  0  0  0  0  0  0  0  0  0
   20.6173   -4.6091  -16.5805 C   0  0  0  0  0  0  0  0  0  0  0  0
   20.1438   -4.6201  -15.3947 O   0  0  0  0  0  0  0  0  0  0  0  0
   21.4779   -3.5842  -16.8772 O   0  0  0  0  0  0  0  0  0  0  0  0
  2  1  1  0
  2  3  1  0
  4  3  1  0
  5  4  1  0
  5  6  1  1
  7  8  2  0
  7  5  1  0
  9 10  1  0
 11 10  1  1
 11 12  1  0
 12  7  1  0
 13 11  1  0
 13 21  1  0
 14 13  2  0
 16 17  2  0
 16 15  1  0
 18 16  1  0
 19 18  1  0
 20 19  1  6
 20 21  1  0
 20 22  1  0
 22 24  1  0
 23 22  2  0
M  END
$$$$
