MSQ.pdb
     RDKit          3D

 24 23  0  0  1  0  0  0  0  0999 V2000
   27.7700  -17.9265  -15.5872 C   0  0  0  0  0  0  0  0  0  0  0  0
   28.2709  -19.5010  -14.8466 S   0  0  0  0  0  0  0  0  0  0  0  0
   26.9041  -20.6825  -14.9459 C   0  0  0  0  0  0  0  0  0  0  0  0
   25.6178  -20.1043  -14.3911 C   0  0  0  0  0  0  0  0  0  0  0  0
   24.5831  -21.2263  -14.4235 C   0  0  2  0  0  0  0  0  0  0  0  0
   24.2879  -21.6380  -15.7583 N   0  0  0  0  0  0  0  0  0  0  0  0
   23.3631  -20.7029  -13.7032 C   0  0  0  0  0  0  0  0  0  0  0  0
   23.1697  -19.4753  -13.5335 O   0  0  0  0  0  0  0  0  0  0  0  0
   19.9436  -21.1124  -14.6955 O   0  0  0  0  0  0  0  0  0  0  0  0
   20.3627  -20.2981  -13.6515 C   0  0  0  0  0  0  0  0  0  0  0  0
   21.0976  -21.1628  -12.6511 C   0  0  2  0  0  0  0  0  0  0  0  0
   22.3872  -21.5914  -13.1909 N   0  0  0  0  0  0  0  0  0  0  0  0
   20.3026  -22.3190  -12.2120 C   0  0  0  0  0  0  0  0  0  0  0  0
   20.4218  -23.4510  -12.8121 O   0  0  0  0  0  0  0  0  0  0  0  0
   19.2895  -24.5872   -6.6850 N   0  0  0  0  0  0  0  0  0  0  0  0
   18.3382  -25.3304   -7.4080 C   0  0  0  0  0  0  0  0  0  0  0  0
   17.7298  -26.2657   -6.8668 O   0  0  0  0  0  0  0  0  0  0  0  0
   18.0640  -24.9908   -8.8254 C   0  0  0  0  0  0  0  0  0  0  0  0
   18.8329  -23.7799   -9.2721 C   0  0  0  0  0  0  0  0  0  0  0  0
   18.6631  -23.5229  -10.7089 C   0  0  2  0  0  0  0  0  0  0  0  0
   19.3805  -22.3293  -11.1579 N   0  0  0  0  0  0  0  0  0  0  0  0
   17.3034  -23.4233  -11.1806 C   0  0  0  0  0  0  0  0  0  0  0  0
   16.7186  -24.4276  -11.7096 O   0  0  0  0  0  0  0  0  0  0  0  0
   16.5644  -22.2721  -11.0923 O   0  0  0  0  0  0  0  0  0  0  0  0
  2  1  1  0
  2  3  1  0
  4  3  1  0
  5  4  1  0
  5  6  1  6
  7  8  2  0
  7  5  1  0
  9 10  1  0
 11 10  1  6
 11 12  1  0
 12  7  1  0
 13 11  1  0
 13 21  1  0
 14 13  2  0
 16 17  2  0
 16 15  1  0
 18 16  1  0
 19 18  1  0
 20 19  1  1
 20 21  1  0
 20 22  1  0
 22 24  1  0
 23 22  2  0
M  END
$$$$
