MSQ.pdb
     RDKit          3D

 24 23  0  0  1  0  0  0  0  0999 V2000
   19.6653  -17.4982  -17.2430 C   0  0  0  0  0  0  0  0  0  0  0  0
   19.6391  -17.3414  -19.0466 S   0  0  0  0  0  0  0  0  0  0  0  0
   20.2772  -15.7174  -19.5257 C   0  0  0  0  0  0  0  0  0  0  0  0
   20.0678  -14.6855  -18.4358 C   0  0  0  0  0  0  0  0  0  0  0  0
   20.6441  -13.3723  -18.9589 C   0  0  2  0  0  0  0  0  0  0  0  0
   21.7433  -13.5898  -19.8436 N   0  0  0  0  0  0  0  0  0  0  0  0
   21.0382  -12.5652  -17.7445 C   0  0  0  0  0  0  0  0  0  0  0  0
   20.1972  -12.2068  -16.8857 O   0  0  0  0  0  0  0  0  0  0  0  0
   24.6797  -10.3664  -15.3672 O   0  0  0  0  0  0  0  0  0  0  0  0
   24.3284  -11.1979  -16.4225 C   0  0  0  0  0  0  0  0  0  0  0  0
   22.8184  -11.2729  -16.4752 C   0  0  2  0  0  0  0  0  0  0  0  0
   22.3851  -12.1835  -17.5340 N   0  0  0  0  0  0  0  0  0  0  0  0
   22.1922   -9.9517  -16.6310 C   0  0  0  0  0  0  0  0  0  0  0  0
   22.1012   -9.4128  -17.7959 O   0  0  0  0  0  0  0  0  0  0  0  0
   17.0267   -7.8383  -16.9863 N   0  0  0  0  0  0  0  0  0  0  0  0
   17.6469   -6.5897  -16.7960 C   0  0  0  0  0  0  0  0  0  0  0  0
   17.0091   -5.5400  -16.9668 O   0  0  0  0  0  0  0  0  0  0  0  0
   19.0719   -6.5320  -16.3888 C   0  0  0  0  0  0  0  0  0  0  0  0
   19.6738   -7.9020  -16.2543 C   0  0  0  0  0  0  0  0  0  0  0  0
   21.0693   -7.8443  -15.7977 C   0  0  2  0  0  0  0  0  0  0  0  0
   21.6543   -9.1709  -15.6003 N   0  0  0  0  0  0  0  0  0  0  0  0
   21.3166   -7.0717  -14.6048 C   0  0  0  0  0  0  0  0  0  0  0  0
   21.5931   -7.6459  -13.4983 O   0  0  0  0  0  0  0  0  0  0  0  0
   21.2751   -5.7017  -14.5800 O   0  0  0  0  0  0  0  0  0  0  0  0
  2  1  1  0
  2  3  1  0
  4  3  1  0
  5  4  1  0
  5  6  1  6
  7  8  2  0
  7  5  1  0
  9 10  1  0
 11 10  1  6
 11 12  1  0
 12  7  1  0
 13 11  1  0
 13 21  1  0
 14 13  2  0
 16 17  2  0
 16 15  1  0
 18 16  1  0
 19 18  1  0
 20 19  1  1
 20 21  1  0
 20 22  1  0
 22 24  1  0
 23 22  2  0
M  END
$$$$
