LEH.pdb
     RDKit          3D

 28 28  0  0  1  0  0  0  0  0999 V2000
   11.1394  -12.6592  -12.9538 C   0  0  0  0  0  0  0  0  0  0  0  0
   11.7095  -13.0190  -11.6187 C   0  0  2  0  0  0  0  0  0  0  0  0
   10.6814  -12.7313  -10.5471 C   0  0  0  0  0  0  0  0  0  0  0  0
   12.9781  -12.2635  -11.2872 C   0  0  0  0  0  0  0  0  0  0  0  0
   14.0573  -12.4965  -12.3138 C   0  0  2  0  0  0  0  0  0  0  0  0
   14.5343  -13.8511  -12.1409 N   0  0  0  0  0  0  0  0  0  0  0  0
   15.1470  -11.5042  -12.0091 C   0  0  0  0  0  0  0  0  0  0  0  0
   15.8856  -11.6507  -11.0018 O   0  0  0  0  0  0  0  0  0  0  0  0
   15.3442  -10.4030  -12.8548 N   0  0  0  0  0  0  0  0  0  0  0  0
   16.3724   -9.4263  -12.5965 C   0  0  1  0  0  0  0  0  0  0  0  0
   17.1827   -9.1019  -13.8042 C   0  0  0  0  0  0  0  0  0  0  0  0
   18.0061  -10.1473  -14.4146 C   0  0  0  0  0  0  0  0  0  0  0  0
   18.8938   -9.8575  -15.5131 C   0  0  0  0  0  0  0  0  0  0  0  0
   18.6616   -9.5787  -16.6914 O   0  0  0  0  0  0  0  0  0  0  0  0
   15.9304   -8.2762  -11.7806 C   0  0  0  0  0  0  0  0  0  0  0  0
   15.0022   -7.5599  -12.2493 O   0  0  0  0  0  0  0  0  0  0  0  0
   20.2804   -9.8946  -15.2058 O   0  0  0  0  0  0  0  0  0  0  0  0
   16.4702   -7.9436  -10.5371 N   0  0  0  0  0  0  0  0  0  0  0  0
   16.1614   -6.7169   -9.7968 C   0  0  1  0  0  0  0  0  0  0  0  0
   15.7660   -7.0136   -8.3914 C   0  0  0  0  0  0  0  0  0  0  0  0
   14.3128   -7.2943   -8.3227 C   0  0  0  0  0  0  0  0  0  0  0  0
   13.3480   -7.3301   -9.3034 C   0  0  0  0  0  0  0  0  0  0  0  0
   12.1693   -7.7131   -8.7881 N   0  0  0  0  0  0  0  0  0  0  0  0
   12.3558   -7.9262   -7.4954 C   0  0  0  0  0  0  0  0  0  0  0  0
   13.6353   -7.6822   -7.1897 N   0  0  0  0  0  0  0  0  0  0  0  0
   17.4874   -6.0286   -9.7185 C   0  0  0  0  0  0  0  0  0  0  0  0
   17.5525   -4.8848   -9.2201 O   0  0  0  0  0  0  0  0  0  0  0  0
   18.6329   -6.5963  -10.1719 O   0  0  0  0  0  0  0  0  0  0  0  0
  2  1  1  6
  2  3  1  0
  4  2  1  0
  5  4  1  0
  5  6  1  1
  7  8  2  0
  7  5  1  0
  9  7  1  0
 10  9  1  0
 10 11  1  6
 11 12  1  0
 12 13  1  0
 13 14  2  0
 13 17  1  0
 15 16  2  0
 15 10  1  0
 18 15  1  0
 19 20  1  1
 19 18  1  0
 20 21  1  0
 21 25  1  0
 21 22  2  0
 22 23  1  0
 24 23  1  0
 25 24  2  0
 26 19  1  0
 27 26  2  0
 28 26  1  0
M  END
$$$$
