LEH.pdb
     RDKit          3D

 28 28  0  0  1  0  0  0  0  0999 V2000
   18.2124  -13.5283  -17.8807 C   0  0  0  0  0  0  0  0  0  0  0  0
   18.8653  -13.4450  -16.5376 C   0  0  2  0  0  0  0  0  0  0  0  0
   18.2217  -14.4522  -15.6106 C   0  0  0  0  0  0  0  0  0  0  0  0
   18.7629  -12.0730  -15.9073 C   0  0  0  0  0  0  0  0  0  0  0  0
   19.3315  -10.9992  -16.7996 C   0  0  2  0  0  0  0  0  0  0  0  0
   20.7577  -11.2227  -16.8915 N   0  0  0  0  0  0  0  0  0  0  0  0
   19.0396   -9.6896  -16.1178 C   0  0  0  0  0  0  0  0  0  0  0  0
   17.8699   -9.3995  -15.7584 O   0  0  0  0  0  0  0  0  0  0  0  0
   20.0803   -8.7804  -15.8787 N   0  0  0  0  0  0  0  0  0  0  0  0
   19.8336   -7.4862  -15.2939 C   0  0  1  0  0  0  0  0  0  0  0  0
   21.0703   -6.8383  -14.7732 C   0  0  0  0  0  0  0  0  0  0  0  0
   20.9702   -5.5390  -14.1061 C   0  0  0  0  0  0  0  0  0  0  0  0
   22.1459   -4.8216  -13.6799 C   0  0  0  0  0  0  0  0  0  0  0  0
   23.3228   -5.1768  -13.5857 O   0  0  0  0  0  0  0  0  0  0  0  0
   18.9284   -6.6233  -16.0812 C   0  0  0  0  0  0  0  0  0  0  0  0
   19.2110   -6.4516  -17.2998 O   0  0  0  0  0  0  0  0  0  0  0  0
   21.9334   -3.4698  -13.2981 O   0  0  0  0  0  0  0  0  0  0  0  0
   17.7925   -5.9993  -15.5627 N   0  0  0  0  0  0  0  0  0  0  0  0
   16.9152   -5.1036  -16.3219 C   0  0  1  0  0  0  0  0  0  0  0  0
   15.4803   -5.4559  -16.1311 C   0  0  0  0  0  0  0  0  0  0  0  0
   14.6283   -4.5820  -16.9711 C   0  0  0  0  0  0  0  0  0  0  0  0
   14.9212   -3.8278  -18.0845 C   0  0  0  0  0  0  0  0  0  0  0  0
   13.8080   -3.2562  -18.5699 N   0  0  0  0  0  0  0  0  0  0  0  0
   12.8037   -3.6282  -17.7926 C   0  0  0  0  0  0  0  0  0  0  0  0
   13.2692   -4.4256  -16.8243 N   0  0  0  0  0  0  0  0  0  0  0  0
   17.1127   -3.7850  -15.6434 C   0  0  0  0  0  0  0  0  0  0  0  0
   16.4388   -2.8008  -16.0151 O   0  0  0  0  0  0  0  0  0  0  0  0
   18.0020   -3.6086  -14.6345 O   0  0  0  0  0  0  0  0  0  0  0  0
  2  1  1  6
  2  3  1  0
  4  2  1  0
  5  4  1  0
  5  6  1  1
  7  8  2  0
  7  5  1  0
  9  7  1  0
 10  9  1  0
 10 11  1  6
 11 12  1  0
 12 13  1  0
 13 14  2  0
 13 17  1  0
 15 16  2  0
 15 10  1  0
 18 15  1  0
 19 20  1  1
 19 18  1  0
 20 21  1  0
 21 25  1  0
 21 22  2  0
 22 23  1  0
 24 23  1  0
 25 24  2  0
 26 19  1  0
 27 26  2  0
 28 26  1  0
M  END
$$$$
