LEH.pdb
     RDKit          3D

 28 28  0  0  1  0  0  0  0  0999 V2000
   19.3853  -11.8567    5.5463 C   0  0  0  0  0  0  0  0  0  0  0  0
   18.5507  -13.0561    5.2269 C   0  0  2  0  0  0  0  0  0  0  0  0
   18.7761  -13.4463    3.7830 C   0  0  0  0  0  0  0  0  0  0  0  0
   17.0700  -12.8280    5.4408 C   0  0  0  0  0  0  0  0  0  0  0  0
   16.2888  -14.1165    5.3937 C   0  0  2  0  0  0  0  0  0  0  0  0
   14.8947  -13.7852    5.5911 N   0  0  0  0  0  0  0  0  0  0  0  0
   16.8027  -14.9601    6.5292 C   0  0  0  0  0  0  0  0  0  0  0  0
   16.5709  -14.6399    7.7231 O   0  0  0  0  0  0  0  0  0  0  0  0
   17.5485  -16.1162    6.2574 N   0  0  0  0  0  0  0  0  0  0  0  0
   18.0126  -16.9816    7.3127 C   0  0  1  0  0  0  0  0  0  0  0  0
   17.4891  -18.3719    7.1969 C   0  0  0  0  0  0  0  0  0  0  0  0
   17.8215  -19.3497    8.2345 C   0  0  0  0  0  0  0  0  0  0  0  0
   17.3931  -20.7229    8.1365 C   0  0  0  0  0  0  0  0  0  0  0  0
   16.7446  -21.3099    7.2677 O   0  0  0  0  0  0  0  0  0  0  0  0
   19.4521  -16.8512    7.6201 C   0  0  0  0  0  0  0  0  0  0  0  0
   20.2612  -16.9913    6.6609 O   0  0  0  0  0  0  0  0  0  0  0  0
   17.7738  -21.5616    9.2183 O   0  0  0  0  0  0  0  0  0  0  0  0
   19.9610  -16.5818    8.8917 N   0  0  0  0  0  0  0  0  0  0  0  0
   21.3870  -16.4689    9.2107 C   0  0  1  0  0  0  0  0  0  0  0  0
   21.6124  -15.5969   10.3975 C   0  0  0  0  0  0  0  0  0  0  0  0
   23.0495  -15.5937   10.7579 C   0  0  0  0  0  0  0  0  0  0  0  0
   24.1600  -16.0181   10.0646 C   0  0  0  0  0  0  0  0  0  0  0  0
   25.2777  -15.7417   10.7546 N   0  0  0  0  0  0  0  0  0  0  0  0
   24.9096  -15.1464   11.8777 C   0  0  0  0  0  0  0  0  0  0  0  0
   23.5758  -15.0447   11.9046 N   0  0  0  0  0  0  0  0  0  0  0  0
   21.7461  -17.8561    9.6407 C   0  0  0  0  0  0  0  0  0  0  0  0
   20.9103  -18.5334   10.2760 O   0  0  0  0  0  0  0  0  0  0  0  0
   22.9522  -18.4152    9.3711 O   0  0  0  0  0  0  0  0  0  0  0  0
  2  1  1  6
  2  3  1  0
  4  2  1  0
  5  4  1  0
  5  6  1  1
  7  8  2  0
  7  5  1  0
  9  7  1  0
 10  9  1  0
 10 11  1  6
 11 12  1  0
 12 13  1  0
 13 14  2  0
 13 17  1  0
 15 16  2  0
 15 10  1  0
 18 15  1  0
 19 20  1  1
 19 18  1  0
 20 21  1  0
 21 25  1  0
 21 22  2  0
 22 23  1  0
 24 23  1  0
 25 24  2  0
 26 19  1  0
 27 26  2  0
 28 26  1  0
M  END
$$$$
