LEH.pdb
     RDKit          3D

 28 28  0  0  1  0  0  0  0  0999 V2000
   26.7989  -21.0180   -6.8647 C   0  0  0  0  0  0  0  0  0  0  0  0
   27.9430  -20.2775   -7.4810 C   0  0  2  0  0  0  0  0  0  0  0  0
   28.1737  -18.9946   -6.7137 C   0  0  0  0  0  0  0  0  0  0  0  0
   27.7183  -19.9360   -8.9381 C   0  0  0  0  0  0  0  0  0  0  0  0
   27.5469  -21.1704   -9.7863 C   0  0  2  0  0  0  0  0  0  0  0  0
   28.8602  -21.5660  -10.2457 N   0  0  0  0  0  0  0  0  0  0  0  0
   26.6760  -20.7653  -10.9449 C   0  0  0  0  0  0  0  0  0  0  0  0
   27.0236  -19.8332  -11.7143 O   0  0  0  0  0  0  0  0  0  0  0  0
   25.4634  -21.4318  -11.1726 N   0  0  0  0  0  0  0  0  0  0  0  0
   24.7561  -21.3081  -12.4225 C   0  0  1  0  0  0  0  0  0  0  0  0
   24.7862  -22.5577  -13.2336 C   0  0  0  0  0  0  0  0  0  0  0  0
   24.2119  -22.5500  -14.5803 C   0  0  0  0  0  0  0  0  0  0  0  0
   24.2692  -23.7153  -15.4273 C   0  0  0  0  0  0  0  0  0  0  0  0
   23.7819  -23.9349  -16.5382 O   0  0  0  0  0  0  0  0  0  0  0  0
   23.4469  -20.6307  -12.3184 C   0  0  0  0  0  0  0  0  0  0  0  0
   22.7559  -20.8672  -11.2884 O   0  0  0  0  0  0  0  0  0  0  0  0
   25.0107  -24.8115  -14.9107 O   0  0  0  0  0  0  0  0  0  0  0  0
   22.9396  -19.7534  -13.2784 N   0  0  0  0  0  0  0  0  0  0  0  0
   21.6824  -19.0116  -13.1463 C   0  0  1  0  0  0  0  0  0  0  0  0
   21.5018  -18.0425  -14.2634 C   0  0  0  0  0  0  0  0  0  0  0  0
   20.2405  -17.2872  -14.0797 C   0  0  0  0  0  0  0  0  0  0  0  0
   19.3677  -17.2229  -13.0176 C   0  0  0  0  0  0  0  0  0  0  0  0
   18.3914  -16.3358  -13.2657 N   0  0  0  0  0  0  0  0  0  0  0  0
   18.6188  -15.8262  -14.4656 C   0  0  0  0  0  0  0  0  0  0  0  0
   19.7241  -16.3805  -14.9766 N   0  0  0  0  0  0  0  0  0  0  0  0
   20.6447  -20.0709  -13.3439 C   0  0  0  0  0  0  0  0  0  0  0  0
   20.8431  -20.9691  -14.1894 O   0  0  0  0  0  0  0  0  0  0  0  0
   19.4850  -20.0976  -12.6407 O   0  0  0  0  0  0  0  0  0  0  0  0
  2  1  1  1
  2  3  1  0
  4  2  1  0
  5  4  1  0
  5  6  1  6
  7  8  2  0
  7  5  1  0
  9  7  1  0
 10  9  1  0
 10 11  1  1
 11 12  1  0
 12 13  1  0
 13 14  2  0
 13 17  1  0
 15 16  2  0
 15 10  1  0
 18 15  1  0
 19 20  1  6
 19 18  1  0
 20 21  1  0
 21 25  1  0
 21 22  2  0
 22 23  1  0
 24 23  1  0
 25 24  2  0
 26 19  1  0
 27 26  2  0
 28 26  1  0
M  END
$$$$
