LEH.pdb
     RDKit          3D

 28 28  0  0  1  0  0  0  0  0999 V2000
   19.7746  -13.8435  -19.7260 C   0  0  0  0  0  0  0  0  0  0  0  0
   19.3167  -14.0898  -18.3236 C   0  0  2  0  0  0  0  0  0  0  0  0
   17.8237  -14.3324  -18.3253 C   0  0  0  0  0  0  0  0  0  0  0  0
   19.6192  -12.9413  -17.3858 C   0  0  0  0  0  0  0  0  0  0  0  0
   21.0865  -12.5956  -17.3730 C   0  0  2  0  0  0  0  0  0  0  0  0
   21.7852  -13.6963  -16.7463 N   0  0  0  0  0  0  0  0  0  0  0  0
   21.2150  -11.3433  -16.5482 C   0  0  0  0  0  0  0  0  0  0  0  0
   20.9001  -11.3412  -15.3307 O   0  0  0  0  0  0  0  0  0  0  0  0
   21.6905  -10.1641  -17.1399 N   0  0  0  0  0  0  0  0  0  0  0  0
   21.7605   -8.9254  -16.4060 C   0  0  1  0  0  0  0  0  0  0  0  0
   23.1461   -8.3863  -16.3064 C   0  0  0  0  0  0  0  0  0  0  0  0
   23.9402   -8.2257  -17.5259 C   0  0  0  0  0  0  0  0  0  0  0  0
   24.6521   -7.0029  -17.8022 C   0  0  0  0  0  0  0  0  0  0  0  0
   24.7255   -5.9468  -17.1703 O   0  0  0  0  0  0  0  0  0  0  0  0
   20.7057   -7.9502  -16.7526 C   0  0  0  0  0  0  0  0  0  0  0  0
   20.4906   -7.7458  -17.9799 O   0  0  0  0  0  0  0  0  0  0  0  0
   25.4059   -6.9921  -19.0064 O   0  0  0  0  0  0  0  0  0  0  0  0
   19.9415   -7.2551  -15.8138 N   0  0  0  0  0  0  0  0  0  0  0  0
   18.8565   -6.3276  -16.1463 C   0  0  1  0  0  0  0  0  0  0  0  0
   17.6873   -6.5101  -15.2412 C   0  0  0  0  0  0  0  0  0  0  0  0
   16.8942   -7.6861  -15.6693 C   0  0  0  0  0  0  0  0  0  0  0  0
   17.0849   -8.5853  -16.6935 C   0  0  0  0  0  0  0  0  0  0  0  0
   16.1498   -9.5474  -16.6533 N   0  0  0  0  0  0  0  0  0  0  0  0
   15.3615   -9.2868  -15.6229 C   0  0  0  0  0  0  0  0  0  0  0  0
   15.7870   -8.1739  -15.0141 N   0  0  0  0  0  0  0  0  0  0  0  0
   19.4398   -4.9924  -15.8069 C   0  0  0  0  0  0  0  0  0  0  0  0
   20.5783   -4.9363  -15.2954 O   0  0  0  0  0  0  0  0  0  0  0  0
   18.7791   -3.8288  -16.0294 O   0  0  0  0  0  0  0  0  0  0  0  0
  2  1  1  6
  2  3  1  0
  4  2  1  0
  5  4  1  0
  5  6  1  1
  7  8  2  0
  7  5  1  0
  9  7  1  0
 10  9  1  0
 10 11  1  6
 11 12  1  0
 12 13  1  0
 13 14  2  0
 13 17  1  0
 15 16  2  0
 15 10  1  0
 18 15  1  0
 19 20  1  1
 19 18  1  0
 20 21  1  0
 21 25  1  0
 21 22  2  0
 22 23  1  0
 24 23  1  0
 25 24  2  0
 26 19  1  0
 27 26  2  0
 28 26  1  0
M  END
$$$$
