LEH.pdb
     RDKit          3D

 28 28  0  0  1  0  0  0  0  0999 V2000
   22.1302  -13.0322  -15.7616 C   0  0  0  0  0  0  0  0  0  0  0  0
   23.1845  -11.9934  -15.5464 C   0  0  2  0  0  0  0  0  0  0  0  0
   23.5659  -11.9703  -14.0829 C   0  0  0  0  0  0  0  0  0  0  0  0
   22.7460  -10.6035  -15.9540 C   0  0  0  0  0  0  0  0  0  0  0  0
   22.4130  -10.5255  -17.4222 C   0  0  2  0  0  0  0  0  0  0  0  0
   23.6495  -10.6850  -18.1558 N   0  0  0  0  0  0  0  0  0  0  0  0
   21.8316   -9.1559  -17.6481 C   0  0  0  0  0  0  0  0  0  0  0  0
   22.5809   -8.1594  -17.8129 O   0  0  0  0  0  0  0  0  0  0  0  0
   20.4400   -8.9847  -17.6758 N   0  0  0  0  0  0  0  0  0  0  0  0
   19.8418   -7.6857  -17.8561 C   0  0  1  0  0  0  0  0  0  0  0  0
   18.7316   -7.6898  -18.8501 C   0  0  0  0  0  0  0  0  0  0  0  0
   18.0735   -6.4276  -19.1921 C   0  0  0  0  0  0  0  0  0  0  0  0
   17.0163   -6.3737  -20.1710 C   0  0  0  0  0  0  0  0  0  0  0  0
   16.3003   -7.2605  -20.6408 O   0  0  0  0  0  0  0  0  0  0  0  0
   19.5879   -6.9508  -16.5994 C   0  0  0  0  0  0  0  0  0  0  0  0
   18.7903   -7.4780  -15.7746 O   0  0  0  0  0  0  0  0  0  0  0  0
   16.7353   -5.0846  -20.6980 O   0  0  0  0  0  0  0  0  0  0  0  0
   20.1746   -5.7265  -16.2749 N   0  0  0  0  0  0  0  0  0  0  0  0
   19.9681   -5.0137  -15.0111 C   0  0  1  0  0  0  0  0  0  0  0  0
   21.0653   -5.2929  -14.0426 C   0  0  0  0  0  0  0  0  0  0  0  0
   20.8565   -6.6156  -13.4085 C   0  0  0  0  0  0  0  0  0  0  0  0
   19.9064   -7.5870  -13.6269 C   0  0  0  0  0  0  0  0  0  0  0  0
   20.1578   -8.6674  -12.8711 N   0  0  0  0  0  0  0  0  0  0  0  0
   21.2516   -8.4120  -12.1714 C   0  0  0  0  0  0  0  0  0  0  0  0
   21.6920   -7.1858  -12.4757 N   0  0  0  0  0  0  0  0  0  0  0  0
   20.1184   -3.5786  -15.4061 C   0  0  0  0  0  0  0  0  0  0  0  0
   20.3399   -3.2952  -16.6026 O   0  0  0  0  0  0  0  0  0  0  0  0
   20.0269   -2.5617  -14.5130 O   0  0  0  0  0  0  0  0  0  0  0  0
  2  1  1  1
  2  3  1  0
  4  2  1  0
  5  4  1  0
  5  6  1  6
  7  8  2  0
  7  5  1  0
  9  7  1  0
 10  9  1  0
 10 11  1  1
 11 12  1  0
 12 13  1  0
 13 14  2  0
 13 17  1  0
 15 16  2  0
 15 10  1  0
 18 15  1  0
 19 20  1  1
 19 18  1  0
 20 21  1  0
 21 25  1  0
 21 22  2  0
 22 23  1  0
 24 23  1  0
 25 24  2  0
 26 19  1  0
 27 26  2  0
 28 26  1  0
M  END
$$$$
