LEH.pdb
     RDKit          3D

 28 28  0  0  1  0  0  0  0  0999 V2000
   17.4510  -16.2993    1.2466 C   0  0  0  0  0  0  0  0  0  0  0  0
   17.5526  -14.9515    1.8871 C   0  0  2  0  0  0  0  0  0  0  0  0
   18.8225  -14.2753    1.4199 C   0  0  0  0  0  0  0  0  0  0  0  0
   17.5626  -15.0076    3.3993 C   0  0  0  0  0  0  0  0  0  0  0  0
   16.3301  -15.6816    3.9463 C   0  0  2  0  0  0  0  0  0  0  0  0
   15.2309  -14.7513    3.8093 N   0  0  0  0  0  0  0  0  0  0  0  0
   16.6145  -15.9614    5.3975 C   0  0  0  0  0  0  0  0  0  0  0  0
   16.5328  -15.0460    6.2560 O   0  0  0  0  0  0  0  0  0  0  0  0
   16.9746  -17.2553    5.8009 N   0  0  0  0  0  0  0  0  0  0  0  0
   17.4294  -17.5300    7.1409 C   0  0  1  0  0  0  0  0  0  0  0  0
   17.1945  -18.9416    7.5565 C   0  0  0  0  0  0  0  0  0  0  0  0
   17.5045  -19.3435    8.9298 C   0  0  0  0  0  0  0  0  0  0  0  0
   17.2638  -20.6883    9.3905 C   0  0  0  0  0  0  0  0  0  0  0  0
   16.2148  -21.3177    9.5428 O   0  0  0  0  0  0  0  0  0  0  0  0
   18.7586  -16.9694    7.4612 C   0  0  0  0  0  0  0  0  0  0  0  0
   19.6642  -17.1002    6.5910 O   0  0  0  0  0  0  0  0  0  0  0  0
   18.4232  -21.4344    9.7337 O   0  0  0  0  0  0  0  0  0  0  0  0
   19.0647  -16.3092    8.6524 N   0  0  0  0  0  0  0  0  0  0  0  0
   20.3801  -15.7528    8.9813 C   0  0  1  0  0  0  0  0  0  0  0  0
   20.2597  -14.4187    9.6335 C   0  0  0  0  0  0  0  0  0  0  0  0
   20.2244  -13.3533    8.6044 C   0  0  0  0  0  0  0  0  0  0  0  0
   20.2273  -13.4189    7.2298 C   0  0  0  0  0  0  0  0  0  0  0  0
   20.1007  -12.1915    6.7014 N   0  0  0  0  0  0  0  0  0  0  0  0
   20.0148  -11.3369    7.7081 C   0  0  0  0  0  0  0  0  0  0  0  0
   20.0860  -12.0090    8.8627 N   0  0  0  0  0  0  0  0  0  0  0  0
   20.8858  -16.6860   10.0356 C   0  0  0  0  0  0  0  0  0  0  0  0
   20.1812  -17.6594   10.3776 O   0  0  0  0  0  0  0  0  0  0  0  0
   22.0863  -16.5185   10.6446 O   0  0  0  0  0  0  0  0  0  0  0  0
  2  1  1  6
  2  3  1  0
  4  2  1  0
  5  4  1  0
  5  6  1  1
  7  8  2  0
  7  5  1  0
  9  7  1  0
 10  9  1  0
 10 11  1  6
 11 12  1  0
 12 13  1  0
 13 14  2  0
 13 17  1  0
 15 16  2  0
 15 10  1  0
 18 15  1  0
 19 20  1  1
 19 18  1  0
 20 21  1  0
 21 25  1  0
 21 22  2  0
 22 23  1  0
 24 23  1  0
 25 24  2  0
 26 19  1  0
 27 26  2  0
 28 26  1  0
M  END
$$$$
