LEH.pdb
     RDKit          3D

 28 28  0  0  1  0  0  0  0  0999 V2000
   28.7120  -17.4636  -15.4179 C   0  0  0  0  0  0  0  0  0  0  0  0
   27.6602  -17.8650  -16.4026 C   0  0  2  0  0  0  0  0  0  0  0  0
   27.0317  -16.6213  -16.9908 C   0  0  0  0  0  0  0  0  0  0  0  0
   26.5677  -18.7183  -15.7955 C   0  0  0  0  0  0  0  0  0  0  0  0
   27.1273  -19.8953  -15.0379 C   0  0  2  0  0  0  0  0  0  0  0  0
   27.7173  -20.7930  -16.0067 N   0  0  0  0  0  0  0  0  0  0  0  0
   25.9572  -20.5462  -14.3507 C   0  0  0  0  0  0  0  0  0  0  0  0
   25.0506  -21.1063  -15.0186 O   0  0  0  0  0  0  0  0  0  0  0  0
   25.8733  -20.5303  -12.9509 N   0  0  0  0  0  0  0  0  0  0  0  0
   24.7532  -21.1120  -12.2544 C   0  0  1  0  0  0  0  0  0  0  0  0
   25.0802  -21.5066  -10.8552 C   0  0  0  0  0  0  0  0  0  0  0  0
   25.5710  -20.4908   -9.9220 C   0  0  0  0  0  0  0  0  0  0  0  0
   26.7776  -20.6930   -9.1592 C   0  0  0  0  0  0  0  0  0  0  0  0
   27.0951  -20.3164   -8.0291 O   0  0  0  0  0  0  0  0  0  0  0  0
   23.4756  -20.3949  -12.4472 C   0  0  0  0  0  0  0  0  0  0  0  0
   23.4926  -19.1399  -12.3094 O   0  0  0  0  0  0  0  0  0  0  0  0
   27.7884  -21.4558   -9.8034 O   0  0  0  0  0  0  0  0  0  0  0  0
   22.2689  -21.0167  -12.7723 N   0  0  0  0  0  0  0  0  0  0  0  0
   21.1460  -20.3553  -13.4430 C   0  0  1  0  0  0  0  0  0  0  0  0
   21.4075  -20.1810  -14.8994 C   0  0  0  0  0  0  0  0  0  0  0  0
   20.2188  -19.5935  -15.5605 C   0  0  0  0  0  0  0  0  0  0  0  0
   19.0141  -19.1672  -15.0496 C   0  0  0  0  0  0  0  0  0  0  0  0
   18.2605  -18.6226  -16.0177 N   0  0  0  0  0  0  0  0  0  0  0  0
   18.9561  -18.6881  -17.1415 C   0  0  0  0  0  0  0  0  0  0  0  0
   20.1369  -19.2668  -16.8946 N   0  0  0  0  0  0  0  0  0  0  0  0
   20.0482  -21.3660  -13.3365 C   0  0  0  0  0  0  0  0  0  0  0  0
   20.3085  -22.5050  -12.8939 O   0  0  0  0  0  0  0  0  0  0  0  0
   18.7707  -21.0985  -13.7057 O   0  0  0  0  0  0  0  0  0  0  0  0
  2  1  1  1
  2  3  1  0
  4  2  1  0
  5  4  1  0
  5  6  1  6
  7  8  2  0
  7  5  1  0
  9  7  1  0
 10  9  1  0
 10 11  1  1
 11 12  1  0
 12 13  1  0
 13 14  2  0
 13 17  1  0
 15 16  2  0
 15 10  1  0
 18 15  1  0
 19 20  1  6
 19 18  1  0
 20 21  1  0
 21 25  1  0
 21 22  2  0
 22 23  1  0
 24 23  1  0
 25 24  2  0
 26 19  1  0
 27 26  2  0
 28 26  1  0
M  END
$$$$
