LEH.pdb
     RDKit          3D

 28 28  0  0  1  0  0  0  0  0999 V2000
   24.8742  -13.7405  -19.7863 C   0  0  0  0  0  0  0  0  0  0  0  0
   24.6523  -14.5767  -21.0064 C   0  0  2  0  0  0  0  0  0  0  0  0
   24.2081  -13.6847  -22.1444 C   0  0  0  0  0  0  0  0  0  0  0  0
   23.6147  -15.6602  -20.8078 C   0  0  0  0  0  0  0  0  0  0  0  0
   23.9125  -16.5110  -19.5995 C   0  0  2  0  0  0  0  0  0  0  0  0
   24.8517  -17.5319  -20.0095 N   0  0  0  0  0  0  0  0  0  0  0  0
   22.6025  -17.1261  -19.1866 C   0  0  0  0  0  0  0  0  0  0  0  0
   21.9675  -17.8733  -19.9740 O   0  0  0  0  0  0  0  0  0  0  0  0
   22.0808  -16.8657  -17.9112 N   0  0  0  0  0  0  0  0  0  0  0  0
   20.8036  -17.3892  -17.4958 C   0  0  1  0  0  0  0  0  0  0  0  0
   20.8068  -17.8818  -16.0895 C   0  0  0  0  0  0  0  0  0  0  0  0
   19.6337  -18.5934  -15.5786 C   0  0  0  0  0  0  0  0  0  0  0  0
   19.5761  -19.0649  -14.2173 C   0  0  0  0  0  0  0  0  0  0  0  0
   19.2339  -18.4989  -13.1770 O   0  0  0  0  0  0  0  0  0  0  0  0
   19.6461  -16.5607  -17.8930 C   0  0  0  0  0  0  0  0  0  0  0  0
   19.5712  -15.4009  -17.3995 O   0  0  0  0  0  0  0  0  0  0  0  0
   19.9794  -20.4127  -14.0188 O   0  0  0  0  0  0  0  0  0  0  0  0
   18.6472  -16.9799  -18.7733 N   0  0  0  0  0  0  0  0  0  0  0  0
   17.2095  -16.8978  -18.5006 C   0  0  1  0  0  0  0  0  0  0  0  0
   16.8901  -17.3549  -17.1191 C   0  0  0  0  0  0  0  0  0  0  0  0
   16.5946  -18.8068  -17.1216 C   0  0  0  0  0  0  0  0  0  0  0  0
   16.7520  -19.7633  -18.0985 C   0  0  0  0  0  0  0  0  0  0  0  0
   16.4260  -20.9760  -17.6245 N   0  0  0  0  0  0  0  0  0  0  0  0
   16.0633  -20.8201  -16.3615 C   0  0  0  0  0  0  0  0  0  0  0  0
   16.1559  -19.5261  -16.0339 N   0  0  0  0  0  0  0  0  0  0  0  0
   16.9468  -15.4252  -18.5218 C   0  0  0  0  0  0  0  0  0  0  0  0
   17.8799  -14.6431  -18.8025 O   0  0  0  0  0  0  0  0  0  0  0  0
   15.7290  -14.8963  -18.2438 O   0  0  0  0  0  0  0  0  0  0  0  0
  2  1  1  1
  2  3  1  0
  4  2  1  0
  5  4  1  0
  5  6  1  6
  7  8  2  0
  7  5  1  0
  9  7  1  0
 10  9  1  0
 10 11  1  1
 11 12  1  0
 12 13  1  0
 13 14  2  0
 13 17  1  0
 15 16  2  0
 15 10  1  0
 18 15  1  0
 19 20  1  1
 19 18  1  0
 20 21  1  0
 21 25  1  0
 21 22  2  0
 22 23  1  0
 24 23  1  0
 25 24  2  0
 26 19  1  0
 27 26  2  0
 28 26  1  0
M  END
$$$$
