LEH.pdb
     RDKit          3D

 28 28  0  0  1  0  0  0  0  0999 V2000
   20.8745  -11.9409  -22.1782 C   0  0  0  0  0  0  0  0  0  0  0  0
   19.4496  -12.2112  -21.8129 C   0  0  2  0  0  0  0  0  0  0  0  0
   18.5738  -11.9714  -23.0226 C   0  0  0  0  0  0  0  0  0  0  0  0
   18.9500  -11.3474  -20.6752 C   0  0  0  0  0  0  0  0  0  0  0  0
   19.8483  -11.4315  -19.4674 C   0  0  2  0  0  0  0  0  0  0  0  0
   19.5350  -12.6649  -18.7797 N   0  0  0  0  0  0  0  0  0  0  0  0
   19.5101  -10.2418  -18.6098 C   0  0  0  0  0  0  0  0  0  0  0  0
   18.3699  -10.1270  -18.0918 O   0  0  0  0  0  0  0  0  0  0  0  0
   20.4739   -9.2485  -18.3835 N   0  0  0  0  0  0  0  0  0  0  0  0
   20.1802   -8.0754  -17.5991 C   0  0  1  0  0  0  0  0  0  0  0  0
   20.6917   -8.1669  -16.2025 C   0  0  0  0  0  0  0  0  0  0  0  0
   20.4422   -7.0613  -15.2758 C   0  0  0  0  0  0  0  0  0  0  0  0
   20.9514   -7.0830  -13.9272 C   0  0  0  0  0  0  0  0  0  0  0  0
   20.4725   -7.5394  -12.8869 O   0  0  0  0  0  0  0  0  0  0  0  0
   20.4229   -6.7967  -18.2990 C   0  0  0  0  0  0  0  0  0  0  0  0
   21.5427   -6.6528  -18.8645 O   0  0  0  0  0  0  0  0  0  0  0  0
   22.2242   -6.4789  -13.7437 O   0  0  0  0  0  0  0  0  0  0  0  0
   19.4964   -5.7553  -18.3730 N   0  0  0  0  0  0  0  0  0  0  0  0
   19.7478   -4.4618  -19.0148 C   0  0  1  0  0  0  0  0  0  0  0  0
   18.5063   -3.9041  -19.6209 C   0  0  0  0  0  0  0  0  0  0  0  0
   18.2421   -4.5566  -20.9247 C   0  0  0  0  0  0  0  0  0  0  0  0
   19.0980   -5.0214  -21.8970 C   0  0  0  0  0  0  0  0  0  0  0  0
   18.4092   -5.6196  -22.8814 N   0  0  0  0  0  0  0  0  0  0  0  0
   17.1268   -5.5509  -22.5621 C   0  0  0  0  0  0  0  0  0  0  0  0
   16.9987   -4.9172  -21.3907 N   0  0  0  0  0  0  0  0  0  0  0  0
   20.0812   -3.5722  -17.8592 C   0  0  0  0  0  0  0  0  0  0  0  0
   20.0797   -4.0471  -16.7035 O   0  0  0  0  0  0  0  0  0  0  0  0
   20.3852   -2.2591  -18.0120 O   0  0  0  0  0  0  0  0  0  0  0  0
  2  1  1  6
  2  3  1  0
  4  2  1  0
  5  4  1  0
  5  6  1  1
  7  8  2  0
  7  5  1  0
  9  7  1  0
 10  9  1  0
 10 11  1  1
 11 12  1  0
 12 13  1  0
 13 14  2  0
 13 17  1  0
 15 16  2  0
 15 10  1  0
 18 15  1  0
 19 20  1  1
 19 18  1  0
 20 21  1  0
 21 25  1  0
 21 22  2  0
 22 23  1  0
 24 23  1  0
 25 24  2  0
 26 19  1  0
 27 26  2  0
 28 26  1  0
M  END
$$$$
