LEH.pdb
     RDKit          3D

 28 28  0  0  1  0  0  0  0  0999 V2000
   16.0762  -14.7817  -16.1694 C   0  0  0  0  0  0  0  0  0  0  0  0
   17.4868  -14.6945  -15.6800 C   0  0  2  0  0  0  0  0  0  0  0  0
   17.6764  -15.6689  -14.5386 C   0  0  0  0  0  0  0  0  0  0  0  0
   17.8695  -13.3103  -15.2029 C   0  0  0  0  0  0  0  0  0  0  0  0
   17.6630  -12.2685  -16.2728 C   0  0  2  0  0  0  0  0  0  0  0  0
   18.5932  -12.5561  -17.3426 N   0  0  0  0  0  0  0  0  0  0  0  0
   17.9784  -10.9430  -15.6336 C   0  0  0  0  0  0  0  0  0  0  0  0
   17.3908  -10.5811  -14.5822 O   0  0  0  0  0  0  0  0  0  0  0  0
   18.9371  -10.0995  -16.2133 N   0  0  0  0  0  0  0  0  0  0  0  0
   19.2379   -8.8035  -15.6583 C   0  0  1  0  0  0  0  0  0  0  0  0
   20.6939   -8.4872  -15.6766 C   0  0  0  0  0  0  0  0  0  0  0  0
   21.6340   -9.4090  -15.0362 C   0  0  0  0  0  0  0  0  0  0  0  0
   23.0548   -9.1651  -15.0552 C   0  0  0  0  0  0  0  0  0  0  0  0
   23.8102   -8.8443  -15.9752 O   0  0  0  0  0  0  0  0  0  0  0  0
   18.3314   -7.7242  -16.1020 C   0  0  0  0  0  0  0  0  0  0  0  0
   18.0043   -7.7112  -17.3216 O   0  0  0  0  0  0  0  0  0  0  0  0
   23.7183   -9.3150  -13.8079 O   0  0  0  0  0  0  0  0  0  0  0  0
   17.8199   -6.7346  -15.2609 N   0  0  0  0  0  0  0  0  0  0  0  0
   16.8847   -5.6871  -15.6807 C   0  0  1  0  0  0  0  0  0  0  0  0
   15.6547   -5.6861  -14.8401 C   0  0  0  0  0  0  0  0  0  0  0  0
   14.8293   -6.8772  -15.1490 C   0  0  0  0  0  0  0  0  0  0  0  0
   14.5549   -7.5068  -16.3416 C   0  0  0  0  0  0  0  0  0  0  0  0
   13.8194   -8.6097  -16.1315 N   0  0  0  0  0  0  0  0  0  0  0  0
   13.6158   -8.7041  -14.8273 C   0  0  0  0  0  0  0  0  0  0  0  0
   14.2124   -7.6757  -14.2136 N   0  0  0  0  0  0  0  0  0  0  0  0
   17.6181   -4.4273  -15.3447 C   0  0  0  0  0  0  0  0  0  0  0  0
   18.7427   -4.5014  -14.8055 O   0  0  0  0  0  0  0  0  0  0  0  0
   17.1094   -3.1958  -15.5994 O   0  0  0  0  0  0  0  0  0  0  0  0
  2  1  1  1
  2  3  1  0
  4  2  1  0
  5  4  1  0
  5  6  1  6
  7  8  2  0
  7  5  1  0
  9  7  1  0
 10  9  1  0
 10 11  1  6
 11 12  1  0
 12 13  1  0
 13 14  2  0
 13 17  1  0
 15 16  2  0
 15 10  1  0
 18 15  1  0
 19 20  1  1
 19 18  1  0
 20 21  1  0
 21 25  1  0
 21 22  2  0
 22 23  1  0
 24 23  1  0
 25 24  2  0
 26 19  1  0
 27 26  2  0
 28 26  1  0
M  END
$$$$
