LEH.pdb
     RDKit          3D

 28 28  0  0  1  0  0  0  0  0999 V2000
   22.1018  -14.4688  -16.3053 C   0  0  0  0  0  0  0  0  0  0  0  0
   21.5679  -13.7745  -17.5177 C   0  0  2  0  0  0  0  0  0  0  0  0
   22.6405  -13.7438  -18.5837 C   0  0  0  0  0  0  0  0  0  0  0  0
   21.1170  -12.3561  -17.2441 C   0  0  0  0  0  0  0  0  0  0  0  0
   20.0351  -12.3010  -16.1957 C   0  0  2  0  0  0  0  0  0  0  0  0
   18.9762  -13.1908  -16.6190 N   0  0  0  0  0  0  0  0  0  0  0  0
   19.5536  -10.8754  -16.1647 C   0  0  0  0  0  0  0  0  0  0  0  0
   20.3567   -9.9308  -15.9536 O   0  0  0  0  0  0  0  0  0  0  0  0
   18.1958  -10.5931  -16.3730 N   0  0  0  0  0  0  0  0  0  0  0  0
   17.6888   -9.2444  -16.3275 C   0  0  1  0  0  0  0  0  0  0  0  0
   16.6049   -8.9972  -17.3197 C   0  0  0  0  0  0  0  0  0  0  0  0
   15.9887   -7.6710  -17.3899 C   0  0  0  0  0  0  0  0  0  0  0  0
   14.9589   -7.3720  -18.3536 C   0  0  0  0  0  0  0  0  0  0  0  0
   13.7549   -7.6369  -18.3622 O   0  0  0  0  0  0  0  0  0  0  0  0
   17.4538   -8.7264  -14.9637 C   0  0  0  0  0  0  0  0  0  0  0  0
   16.9411   -9.5202  -14.1261 O   0  0  0  0  0  0  0  0  0  0  0  0
   15.3844   -6.6475  -19.4993 O   0  0  0  0  0  0  0  0  0  0  0  0
   17.7656   -7.4292  -14.5532 N   0  0  0  0  0  0  0  0  0  0  0  0
   17.4298   -6.8680  -13.2416 C   0  0  1  0  0  0  0  0  0  0  0  0
   18.6525   -6.6076  -12.4312 C   0  0  0  0  0  0  0  0  0  0  0  0
   18.2941   -5.8732  -11.1953 C   0  0  0  0  0  0  0  0  0  0  0  0
   17.8413   -6.3180   -9.9742 C   0  0  0  0  0  0  0  0  0  0  0  0
   17.7260   -5.2933   -9.1150 N   0  0  0  0  0  0  0  0  0  0  0  0
   18.0969   -4.1975   -9.7576 C   0  0  0  0  0  0  0  0  0  0  0  0
   18.4435   -4.5180  -11.0095 N   0  0  0  0  0  0  0  0  0  0  0  0
   16.8658   -5.5255  -13.5848 C   0  0  0  0  0  0  0  0  0  0  0  0
   17.0538   -5.0591  -14.7286 O   0  0  0  0  0  0  0  0  0  0  0  0
   16.1547   -4.7838  -12.6992 O   0  0  0  0  0  0  0  0  0  0  0  0
  2  1  1  1
  2  3  1  0
  4  2  1  0
  5  4  1  0
  5  6  1  6
  7  8  2  0
  7  5  1  0
  9  7  1  0
 10  9  1  0
 10 11  1  6
 11 12  1  0
 12 13  1  0
 13 14  2  0
 13 17  1  0
 15 16  2  0
 15 10  1  0
 18 15  1  0
 19 20  1  1
 19 18  1  0
 20 21  1  0
 21 25  1  0
 21 22  2  0
 22 23  1  0
 24 23  1  0
 25 24  2  0
 26 19  1  0
 27 26  2  0
 28 26  1  0
M  END
$$$$
