LEH.pdb
     RDKit          3D

 28 28  0  0  1  0  0  0  0  0999 V2000
   27.8368  -20.3408   -4.8628 C   0  0  0  0  0  0  0  0  0  0  0  0
   28.3568  -19.5206   -6.0003 C   0  0  2  0  0  0  0  0  0  0  0  0
   28.7463  -18.1521   -5.4869 C   0  0  0  0  0  0  0  0  0  0  0  0
   27.3543  -19.3494   -7.1210 C   0  0  0  0  0  0  0  0  0  0  0  0
   26.9836  -20.6676   -7.7515 C   0  0  2  0  0  0  0  0  0  0  0  0
   28.2126  -21.3860   -8.0077 N   0  0  0  0  0  0  0  0  0  0  0  0
   26.2825  -20.3332   -9.0406 C   0  0  0  0  0  0  0  0  0  0  0  0
   25.3852  -19.4526   -9.0739 O   0  0  0  0  0  0  0  0  0  0  0  0
   26.6306  -21.0084  -10.2195 N   0  0  0  0  0  0  0  0  0  0  0  0
   26.0289  -20.6758  -11.4865 C   0  0  1  0  0  0  0  0  0  0  0  0
   26.9058  -20.9957  -12.6481 C   0  0  0  0  0  0  0  0  0  0  0  0
   26.3868  -20.8189  -14.0056 C   0  0  0  0  0  0  0  0  0  0  0  0
   27.1888  -21.1316  -15.1622 C   0  0  0  0  0  0  0  0  0  0  0  0
   27.5275  -22.2141  -15.6453 O   0  0  0  0  0  0  0  0  0  0  0  0
   24.6111  -21.0732  -11.6119 C   0  0  0  0  0  0  0  0  0  0  0  0
   24.2847  -22.1995  -11.1436 O   0  0  0  0  0  0  0  0  0  0  0  0
   27.6843  -20.0129  -15.8842 O   0  0  0  0  0  0  0  0  0  0  0  0
   23.6254  -20.2839  -12.2065 N   0  0  0  0  0  0  0  0  0  0  0  0
   22.2054  -20.6397  -12.2785 C   0  0  1  0  0  0  0  0  0  0  0  0
   21.3347  -19.4422  -12.1123 C   0  0  0  0  0  0  0  0  0  0  0  0
   19.9094  -19.8351  -12.2100 C   0  0  0  0  0  0  0  0  0  0  0  0
   19.3152  -21.0692  -12.3437 C   0  0  0  0  0  0  0  0  0  0  0  0
   17.9785  -20.9527  -12.3073 N   0  0  0  0  0  0  0  0  0  0  0  0
   17.6997  -19.6685  -12.1511 C   0  0  0  0  0  0  0  0  0  0  0  0
   18.8422  -18.9749  -12.0894 N   0  0  0  0  0  0  0  0  0  0  0  0
   22.0404  -21.0788  -13.6990 C   0  0  0  0  0  0  0  0  0  0  0  0
   22.7949  -20.6058  -14.5753 O   0  0  0  0  0  0  0  0  0  0  0  0
   21.0964  -21.9746  -14.0817 O   0  0  0  0  0  0  0  0  0  0  0  0
  2  1  1  1
  2  3  1  0
  4  2  1  0
  5  4  1  0
  5  6  1  6
  7  8  2  0
  7  5  1  0
  9  7  1  0
 10  9  1  0
 10 11  1  6
 11 12  1  0
 12 13  1  0
 13 14  2  0
 13 17  1  0
 15 16  2  0
 15 10  1  0
 18 15  1  0
 19 20  1  6
 19 18  1  0
 20 21  1  0
 21 25  1  0
 21 22  2  0
 22 23  1  0
 24 23  1  0
 25 24  2  0
 26 19  1  0
 27 26  2  0
 28 26  1  0
M  END
$$$$
