HMR.pdb
     RDKit          3D

 30 30  0  0  1  0  0  0  0  0999 V2000
    7.5335  -15.8745   19.7908 N   0  0  0  0  0  0  0  0  0  0  0  0
    8.9662  -15.7860   19.9880 C   0  0  1  0  0  0  0  0  0  0  0  0
    9.5879  -14.7584   19.1024 C   0  0  0  0  0  0  0  0  0  0  0  0
    8.7528  -14.4410   17.9224 C   0  0  0  0  0  0  0  0  0  0  0  0
    7.5102  -14.9864   17.5926 C   0  0  0  0  0  0  0  0  0  0  0  0
    7.0676  -14.4517   16.4526 N   0  0  0  0  0  0  0  0  0  0  0  0
    7.9930  -13.5760   16.0398 C   0  0  0  0  0  0  0  0  0  0  0  0
    9.0086  -13.5664   16.9211 N   0  0  0  0  0  0  0  0  0  0  0  0
    9.2033  -15.4606   21.4341 C   0  0  0  0  0  0  0  0  0  0  0  0
   10.3431  -15.6941   21.9067 O   0  0  0  0  0  0  0  0  0  0  0  0
    7.4732  -11.4589   27.7590 C   0  0  0  0  0  0  0  0  0  0  0  0
    6.8242  -11.9375   26.1366 S   0  0  0  0  0  0  0  0  0  0  0  0
    7.3783  -13.6564   25.7249 C   0  0  0  0  0  0  0  0  0  0  0  0
    7.1416  -13.8616   24.2643 C   0  0  0  0  0  0  0  0  0  0  0  0
    8.2177  -14.7598   23.6772 C   0  0  2  0  0  0  0  0  0  0  0  0
    8.2052  -14.9094   22.2717 N   0  0  0  0  0  0  0  0  0  0  0  0
    8.4651  -15.9559   24.4759 C   0  0  0  0  0  0  0  0  0  0  0  0
    7.5261  -16.8245   24.5268 O   0  0  0  0  0  0  0  0  0  0  0  0
   15.2826  -20.0955   23.2736 N   0  0  0  0  0  0  0  0  0  0  0  0
   15.1792  -19.9801   24.6957 C   0  0  0  0  0  0  0  0  0  0  0  0
   16.2008  -20.1876   25.4427 N   0  0  0  0  0  0  0  0  0  0  0  0
   13.9405  -19.6326   25.2884 N   0  0  0  0  0  0  0  0  0  0  0  0
   12.6768  -20.1791   24.8341 C   0  0  0  0  0  0  0  0  0  0  0  0
   11.5235  -19.5457   25.5376 C   0  0  0  0  0  0  0  0  0  0  0  0
   11.0731  -18.2252   25.0896 C   0  0  0  0  0  0  0  0  0  0  0  0
    9.9150  -17.5802   25.7531 C   0  0  2  0  0  0  0  0  0  0  0  0
    9.6445  -16.2459   25.1981 N   0  0  0  0  0  0  0  0  0  0  0  0
    9.9682  -17.5113   27.2277 C   0  0  0  0  0  0  0  0  0  0  0  0
    9.8189  -16.2980   27.8670 O   0  0  0  0  0  0  0  0  0  0  0  0
   10.1489  -18.5212   27.9575 O   0  0  0  0  0  0  0  0  0  0  0  0
  2  1  1  1
  2  9  1  0
  2  3  1  0
  3  4  1  0
  4  8  1  0
  5  6  1  0
  5  4  2  0
  6  7  1  0
  7  8  2  0
  9 16  1  0
 10  9  2  0
 11 12  1  0
 12 13  1  0
 13 14  1  0
 15 14  1  1
 16 15  1  0
 17 15  1  0
 18 17  2  0
 19 20  1  0
 20 22  1  0
 21 20  2  0
 22 23  1  0
 23 24  1  0
 24 25  1  0
 26 25  1  6
 26 28  1  0
 26 27  1  0
 27 17  1  0
 28 29  1  0
 30 28  2  0
M  END
$$$$
