HMR.pdb
     RDKit          3D

 30 30  0  0  1  0  0  0  0  0999 V2000
    7.6136  -15.7713   18.6261 N   0  0  0  0  0  0  0  0  0  0  0  0
    9.0028  -15.3613   18.6644 C   0  0  1  0  0  0  0  0  0  0  0  0
    9.2795  -14.2421   17.7170 C   0  0  0  0  0  0  0  0  0  0  0  0
    8.5664  -14.3947   16.4291 C   0  0  0  0  0  0  0  0  0  0  0  0
    7.9017  -15.5289   15.9581 C   0  0  0  0  0  0  0  0  0  0  0  0
    7.3811  -15.2829   14.7540 N   0  0  0  0  0  0  0  0  0  0  0  0
    7.6933  -14.0197   14.4374 C   0  0  0  0  0  0  0  0  0  0  0  0
    8.4064  -13.4815   15.4425 N   0  0  0  0  0  0  0  0  0  0  0  0
    9.3152  -14.9576   20.0760 C   0  0  0  0  0  0  0  0  0  0  0  0
   10.4884  -14.5907   20.3331 O   0  0  0  0  0  0  0  0  0  0  0  0
    6.5792  -11.9999   25.5367 C   0  0  0  0  0  0  0  0  0  0  0  0
    8.1158  -12.9570   25.4632 S   0  0  0  0  0  0  0  0  0  0  0  0
    7.7617  -14.6579   24.8208 C   0  0  0  0  0  0  0  0  0  0  0  0
    7.4150  -14.5232   23.3741 C   0  0  0  0  0  0  0  0  0  0  0  0
    8.5602  -15.0230   22.5090 C   0  0  2  0  0  0  0  0  0  0  0  0
    8.3517  -14.9752   21.1118 N   0  0  0  0  0  0  0  0  0  0  0  0
    9.2097  -16.2131   23.0489 C   0  0  0  0  0  0  0  0  0  0  0  0
    8.4476  -17.1265   23.5219 O   0  0  0  0  0  0  0  0  0  0  0  0
   10.2512  -13.7993   30.1391 N   0  0  0  0  0  0  0  0  0  0  0  0
   10.4767  -15.2091   30.2293 C   0  0  0  0  0  0  0  0  0  0  0  0
   10.5631  -15.7837   31.3727 N   0  0  0  0  0  0  0  0  0  0  0  0
   10.6047  -15.9814   29.0489 N   0  0  0  0  0  0  0  0  0  0  0  0
   11.4238  -15.5642   27.9278 C   0  0  0  0  0  0  0  0  0  0  0  0
   11.3871  -16.5654   26.8222 C   0  0  0  0  0  0  0  0  0  0  0  0
   10.9685  -16.1192   25.4906 C   0  0  0  0  0  0  0  0  0  0  0  0
   11.2668  -16.9601   24.3069 C   0  0  2  0  0  0  0  0  0  0  0  0
   10.6015  -16.4525   23.0981 N   0  0  0  0  0  0  0  0  0  0  0  0
   11.0056  -18.4062   24.4563 C   0  0  0  0  0  0  0  0  0  0  0  0
    9.7227  -18.8933   24.3150 O   0  0  0  0  0  0  0  0  0  0  0  0
   11.9081  -19.2453   24.7145 O   0  0  0  0  0  0  0  0  0  0  0  0
  2  1  1  1
  2  9  1  0
  2  3  1  0
  3  4  1  0
  4  8  1  0
  5  6  1  0
  5  4  2  0
  6  7  1  0
  7  8  2  0
  9 16  1  0
 10  9  2  0
 11 12  1  0
 12 13  1  0
 13 14  1  0
 15 14  1  1
 16 15  1  0
 17 15  1  0
 18 17  2  0
 19 20  1  0
 20 22  1  0
 21 20  2  0
 22 23  1  0
 23 24  1  0
 24 25  1  0
 26 25  1  1
 26 28  1  0
 26 27  1  0
 27 17  1  0
 28 29  1  0
 30 28  2  0
M  END
$$$$
