HMR.pdb
     RDKit          3D

 30 30  0  0  1  0  0  0  0  0999 V2000
    9.2118  -15.7206   19.2383 N   0  0  0  0  0  0  0  0  0  0  0  0
    8.2282  -16.1871   20.1945 C   0  0  1  0  0  0  0  0  0  0  0  0
    8.0296  -17.6639   20.1136 C   0  0  0  0  0  0  0  0  0  0  0  0
    7.4454  -18.0916   18.8227 C   0  0  0  0  0  0  0  0  0  0  0  0
    6.1284  -17.9210   18.3911 C   0  0  0  0  0  0  0  0  0  0  0  0
    5.9800  -18.4393   17.1700 N   0  0  0  0  0  0  0  0  0  0  0  0
    7.1674  -18.9391   16.8043 C   0  0  0  0  0  0  0  0  0  0  0  0
    8.0520  -18.7321   17.7957 N   0  0  0  0  0  0  0  0  0  0  0  0
    8.7011  -15.7845   21.5610 C   0  0  0  0  0  0  0  0  0  0  0  0
    9.8851  -16.0611   21.8750 O   0  0  0  0  0  0  0  0  0  0  0  0
    7.1290  -10.9835   26.8908 C   0  0  0  0  0  0  0  0  0  0  0  0
    6.2921  -12.5831   26.7384 S   0  0  0  0  0  0  0  0  0  0  0  0
    7.4543  -13.8289   26.0114 C   0  0  0  0  0  0  0  0  0  0  0  0
    7.0897  -13.9895   24.5718 C   0  0  0  0  0  0  0  0  0  0  0  0
    8.1310  -14.8335   23.8555 C   0  0  2  0  0  0  0  0  0  0  0  0
    7.8747  -15.1154   22.4943 N   0  0  0  0  0  0  0  0  0  0  0  0
    8.6527  -15.9204   24.6778 C   0  0  0  0  0  0  0  0  0  0  0  0
    7.8299  -16.8423   25.0119 O   0  0  0  0  0  0  0  0  0  0  0  0
   15.2583  -21.4751   23.9008 N   0  0  0  0  0  0  0  0  0  0  0  0
   14.7623  -21.7019   25.2234 C   0  0  0  0  0  0  0  0  0  0  0  0
   15.0875  -22.7613   25.8690 N   0  0  0  0  0  0  0  0  0  0  0  0
   13.9057  -20.7506   25.8297 N   0  0  0  0  0  0  0  0  0  0  0  0
   13.3638  -19.6159   25.1081 C   0  0  0  0  0  0  0  0  0  0  0  0
   12.5361  -18.7486   25.9963 C   0  0  0  0  0  0  0  0  0  0  0  0
   11.8621  -17.5885   25.4071 C   0  0  0  0  0  0  0  0  0  0  0  0
   10.4664  -17.2746   25.7954 C   0  0  2  0  0  0  0  0  0  0  0  0
    9.9818  -16.0512   25.1396 N   0  0  0  0  0  0  0  0  0  0  0  0
   10.1959  -17.2096   27.2462 C   0  0  0  0  0  0  0  0  0  0  0  0
   10.2441  -18.3583   28.0086 O   0  0  0  0  0  0  0  0  0  0  0  0
    9.9138  -16.1392   27.8461 O   0  0  0  0  0  0  0  0  0  0  0  0
  2  1  1  6
  2  9  1  0
  2  3  1  0
  3  4  1  0
  4  8  1  0
  5  6  1  0
  5  4  2  0
  6  7  1  0
  7  8  2  0
  9 16  1  0
 10  9  2  0
 11 12  1  0
 12 13  1  0
 13 14  1  0
 15 14  1  1
 16 15  1  0
 17 15  1  0
 18 17  2  0
 19 20  1  0
 20 22  1  0
 21 20  2  0
 22 23  1  0
 23 24  1  0
 24 25  1  0
 26 25  1  1
 26 28  1  0
 26 27  1  0
 27 17  1  0
 28 29  1  0
 30 28  2  0
M  END
$$$$
