HMR.pdb
     RDKit          3D

 30 30  0  0  1  0  0  0  0  0999 V2000
    8.4478  -12.6201   19.3844 N   0  0  0  0  0  0  0  0  0  0  0  0
    8.1251  -13.9124   19.9546 C   0  0  1  0  0  0  0  0  0  0  0  0
    8.7393  -15.0313   19.1816 C   0  0  0  0  0  0  0  0  0  0  0  0
    8.3214  -15.0412   17.7617 C   0  0  0  0  0  0  0  0  0  0  0  0
    7.0899  -15.4478   17.2440 C   0  0  0  0  0  0  0  0  0  0  0  0
    7.0884  -15.3122   15.9162 N   0  0  0  0  0  0  0  0  0  0  0  0
    8.2871  -14.8289   15.5655 C   0  0  0  0  0  0  0  0  0  0  0  0
    9.0322  -14.6643   16.6728 N   0  0  0  0  0  0  0  0  0  0  0  0
    8.6112  -13.9128   21.3748 C   0  0  0  0  0  0  0  0  0  0  0  0
    9.8378  -13.7310   21.5730 O   0  0  0  0  0  0  0  0  0  0  0  0
    6.5001  -11.4608   27.2665 C   0  0  0  0  0  0  0  0  0  0  0  0
    5.5595  -11.7030   25.7371 S   0  0  0  0  0  0  0  0  0  0  0  0
    6.6758  -12.3663   24.4160 C   0  0  0  0  0  0  0  0  0  0  0  0
    7.1419  -13.7131   24.8631 C   0  0  0  0  0  0  0  0  0  0  0  0
    8.0931  -14.3086   23.8384 C   0  0  2  0  0  0  0  0  0  0  0  0
    7.7516  -14.1077   22.4815 N   0  0  0  0  0  0  0  0  0  0  0  0
    8.5900  -15.6279   24.2157 C   0  0  0  0  0  0  0  0  0  0  0  0
    7.7932  -16.6166   24.0538 O   0  0  0  0  0  0  0  0  0  0  0  0
   16.7131  -20.3126   25.1702 N   0  0  0  0  0  0  0  0  0  0  0  0
   15.5735  -20.7247   24.4098 C   0  0  0  0  0  0  0  0  0  0  0  0
   15.7127  -21.4858   23.3869 N   0  0  0  0  0  0  0  0  0  0  0  0
   14.2785  -20.2923   24.7867 N   0  0  0  0  0  0  0  0  0  0  0  0
   13.8413  -18.9176   24.6425 C   0  0  0  0  0  0  0  0  0  0  0  0
   12.3866  -18.7729   24.9409 C   0  0  0  0  0  0  0  0  0  0  0  0
   11.7528  -17.4724   24.7078 C   0  0  0  0  0  0  0  0  0  0  0  0
   10.3131  -17.2922   25.0114 C   0  0  2  0  0  0  0  0  0  0  0  0
    9.8689  -15.9167   24.7426 N   0  0  0  0  0  0  0  0  0  0  0  0
    9.8778  -17.7078   26.3604 C   0  0  0  0  0  0  0  0  0  0  0  0
    9.8980  -19.0420   26.7107 O   0  0  0  0  0  0  0  0  0  0  0  0
    9.4759  -16.8955   27.2343 O   0  0  0  0  0  0  0  0  0  0  0  0
  2  1  1  6
  2  9  1  0
  2  3  1  0
  3  4  1  0
  4  8  1  0
  5  6  1  0
  5  4  2  0
  6  7  1  0
  7  8  2  0
  9 16  1  0
 10  9  2  0
 11 12  1  0
 12 13  1  0
 13 14  1  0
 15 14  1  1
 16 15  1  0
 17 15  1  0
 18 17  2  0
 19 20  1  0
 20 22  1  0
 21 20  2  0
 22 23  1  0
 23 24  1  0
 24 25  1  0
 26 25  1  1
 26 28  1  0
 26 27  1  0
 27 17  1  0
 28 29  1  0
 30 28  2  0
M  END
$$$$
