HMR.pdb
     RDKit          3D

 30 30  0  0  1  0  0  0  0  0999 V2000
    8.9096  -12.3716   19.4315 N   0  0  0  0  0  0  0  0  0  0  0  0
    8.3571  -13.6371   19.8707 C   0  0  1  0  0  0  0  0  0  0  0  0
    8.8040  -14.7695   19.0079 C   0  0  0  0  0  0  0  0  0  0  0  0
    8.2086  -14.7250   17.6536 C   0  0  0  0  0  0  0  0  0  0  0  0
    7.4410  -13.6986   17.0991 C   0  0  0  0  0  0  0  0  0  0  0  0
    7.0821  -14.0214   15.8548 N   0  0  0  0  0  0  0  0  0  0  0  0
    7.5987  -15.2291   15.5936 C   0  0  0  0  0  0  0  0  0  0  0  0
    8.2772  -15.6561   16.6732 N   0  0  0  0  0  0  0  0  0  0  0  0
    8.7858  -13.8467   21.2939 C   0  0  0  0  0  0  0  0  0  0  0  0
   10.0065  -13.7222   21.5612 O   0  0  0  0  0  0  0  0  0  0  0  0
    5.6724  -10.9028   26.8440 C   0  0  0  0  0  0  0  0  0  0  0  0
    5.9333  -12.6625   26.5009 S   0  0  0  0  0  0  0  0  0  0  0  0
    6.7440  -12.8627   24.8475 C   0  0  0  0  0  0  0  0  0  0  0  0
    7.0260  -14.3181   24.6642 C   0  0  0  0  0  0  0  0  0  0  0  0
    8.1607  -14.5142   23.6725 C   0  0  2  0  0  0  0  0  0  0  0  0
    7.8795  -14.1747   22.3295 N   0  0  0  0  0  0  0  0  0  0  0  0
    8.9243  -15.7352   23.9088 C   0  0  0  0  0  0  0  0  0  0  0  0
    8.3585  -16.8422   23.6035 O   0  0  0  0  0  0  0  0  0  0  0  0
   13.8914  -15.4543   19.7057 N   0  0  0  0  0  0  0  0  0  0  0  0
   14.5533  -15.3529   20.9700 C   0  0  0  0  0  0  0  0  0  0  0  0
   15.4557  -14.4625   21.1640 N   0  0  0  0  0  0  0  0  0  0  0  0
   14.2114  -16.2402   22.0198 N   0  0  0  0  0  0  0  0  0  0  0  0
   13.3515  -17.3904   21.8213 C   0  0  0  0  0  0  0  0  0  0  0  0
   12.0672  -17.2473   22.5670 C   0  0  0  0  0  0  0  0  0  0  0  0
   12.0965  -17.3330   24.0296 C   0  0  0  0  0  0  0  0  0  0  0  0
   10.8563  -17.0908   24.8045 C   0  0  2  0  0  0  0  0  0  0  0  0
   10.2305  -15.8106   24.4426 N   0  0  0  0  0  0  0  0  0  0  0  0
   10.9784  -17.1946   26.2729 C   0  0  0  0  0  0  0  0  0  0  0  0
   11.4465  -18.3594   26.8451 O   0  0  0  0  0  0  0  0  0  0  0  0
   10.6704  -16.2588   27.0568 O   0  0  0  0  0  0  0  0  0  0  0  0
  2  1  1  6
  2  9  1  0
  2  3  1  0
  3  4  1  0
  4  8  1  0
  5  6  1  0
  5  4  2  0
  6  7  1  0
  7  8  2  0
  9 16  1  0
 10  9  2  0
 11 12  1  0
 12 13  1  0
 13 14  1  0
 15 14  1  1
 16 15  1  0
 17 15  1  0
 18 17  2  0
 19 20  1  0
 20 22  1  0
 21 20  2  0
 22 23  1  0
 23 24  1  0
 24 25  1  0
 26 25  1  6
 26 28  1  0
 26 27  1  0
 27 17  1  0
 28 29  1  0
 30 28  2  0
M  END
$$$$
