HMR.pdb
     RDKit          3D

 30 30  0  0  1  0  0  0  0  0999 V2000
   10.5793  -14.2259   20.5540 N   0  0  0  0  0  0  0  0  0  0  0  0
    9.1783  -14.2256   20.9236 C   0  0  1  0  0  0  0  0  0  0  0  0
    8.3815  -15.1705   20.0875 C   0  0  0  0  0  0  0  0  0  0  0  0
    8.0776  -14.6276   18.7446 C   0  0  0  0  0  0  0  0  0  0  0  0
    8.4215  -13.3713   18.2411 C   0  0  0  0  0  0  0  0  0  0  0  0
    7.9729  -13.2449   16.9904 N   0  0  0  0  0  0  0  0  0  0  0  0
    7.3490  -14.3873   16.6755 C   0  0  0  0  0  0  0  0  0  0  0  0
    7.4096  -15.2220   17.7281 N   0  0  0  0  0  0  0  0  0  0  0  0
    9.0949  -14.5949   22.3761 C   0  0  0  0  0  0  0  0  0  0  0  0
   10.1501  -14.9668   22.9464 O   0  0  0  0  0  0  0  0  0  0  0  0
    7.1144  -10.6938   27.4694 C   0  0  0  0  0  0  0  0  0  0  0  0
    5.8978  -12.0060   27.1855 S   0  0  0  0  0  0  0  0  0  0  0  0
    6.7533  -13.5261   26.5620 C   0  0  0  0  0  0  0  0  0  0  0  0
    6.9167  -13.3700   25.0854 C   0  0  0  0  0  0  0  0  0  0  0  0
    7.7153  -14.5316   24.5178 C   0  0  2  0  0  0  0  0  0  0  0  0
    7.8897  -14.5408   23.1152 N   0  0  0  0  0  0  0  0  0  0  0  0
    7.4133  -15.8050   25.1635 C   0  0  0  0  0  0  0  0  0  0  0  0
    7.1940  -15.7791   26.4245 O   0  0  0  0  0  0  0  0  0  0  0  0
   10.2458  -21.6130   20.5363 N   0  0  0  0  0  0  0  0  0  0  0  0
   11.5639  -21.1685   20.8707 C   0  0  0  0  0  0  0  0  0  0  0  0
   12.5463  -21.9928   20.8833 N   0  0  0  0  0  0  0  0  0  0  0  0
   11.7910  -19.8073   21.1898 N   0  0  0  0  0  0  0  0  0  0  0  0
   10.7118  -18.8534   21.3552 C   0  0  0  0  0  0  0  0  0  0  0  0
   10.1882  -18.8581   22.7524 C   0  0  0  0  0  0  0  0  0  0  0  0
    9.1589  -17.8800   23.1147 C   0  0  0  0  0  0  0  0  0  0  0  0
    8.4973  -17.9664   24.4385 C   0  0  2  0  0  0  0  0  0  0  0  0
    7.3396  -17.0646   24.5274 N   0  0  0  0  0  0  0  0  0  0  0  0
    9.3723  -17.7804   25.6140 C   0  0  0  0  0  0  0  0  0  0  0  0
    9.4919  -18.7865   26.5504 O   0  0  0  0  0  0  0  0  0  0  0  0
   10.0328  -16.7287   25.8206 O   0  0  0  0  0  0  0  0  0  0  0  0
  2  1  1  6
  2  9  1  0
  2  3  1  0
  3  4  1  0
  4  8  1  0
  5  6  1  0
  5  4  2  0
  6  7  1  0
  7  8  2  0
  9 16  1  0
 10  9  2  0
 11 12  1  0
 12 13  1  0
 13 14  1  0
 15 14  1  6
 16 15  1  0
 17 15  1  0
 18 17  2  0
 19 20  1  0
 20 22  1  0
 21 20  2  0
 22 23  1  0
 23 24  1  0
 24 25  1  0
 26 25  1  6
 26 28  1  0
 26 27  1  0
 27 17  1  0
 28 29  1  0
 30 28  2  0
M  END
$$$$
