HMR.pdb
     RDKit          3D

 30 30  0  0  1  0  0  0  0  0999 V2000
    7.7297  -16.4813   19.9395 N   0  0  0  0  0  0  0  0  0  0  0  0
    9.1517  -16.2372   20.0720 C   0  0  1  0  0  0  0  0  0  0  0  0
    9.6744  -15.3777   18.9699 C   0  0  0  0  0  0  0  0  0  0  0  0
    9.2255  -15.8274   17.6332 C   0  0  0  0  0  0  0  0  0  0  0  0
    7.9520  -16.2727   17.2728 C   0  0  0  0  0  0  0  0  0  0  0  0
    7.9324  -16.5924   15.9771 N   0  0  0  0  0  0  0  0  0  0  0  0
    9.1604  -16.3645   15.4938 C   0  0  0  0  0  0  0  0  0  0  0  0
    9.9417  -15.9042   16.4868 N   0  0  0  0  0  0  0  0  0  0  0  0
    9.3758  -15.5903   21.4078 C   0  0  0  0  0  0  0  0  0  0  0  0
   10.5575  -15.3199   21.7357 O   0  0  0  0  0  0  0  0  0  0  0  0
    6.4294  -11.7069   27.6537 C   0  0  0  0  0  0  0  0  0  0  0  0
    6.0892  -12.4551   26.0391 S   0  0  0  0  0  0  0  0  0  0  0  0
    7.5152  -13.5237   25.5333 C   0  0  0  0  0  0  0  0  0  0  0  0
    7.2557  -13.9778   24.1341 C   0  0  0  0  0  0  0  0  0  0  0  0
    8.3998  -14.8486   23.6420 C   0  0  2  0  0  0  0  0  0  0  0  0
    8.3211  -15.2789   22.2979 N   0  0  0  0  0  0  0  0  0  0  0  0
    8.8456  -15.8235   24.6322 C   0  0  0  0  0  0  0  0  0  0  0  0
    8.1237  -16.8699   24.7827 O   0  0  0  0  0  0  0  0  0  0  0  0
   15.0632  -20.3221   27.0823 N   0  0  0  0  0  0  0  0  0  0  0  0
   14.7933  -20.8139   25.7663 C   0  0  0  0  0  0  0  0  0  0  0  0
   15.0415  -22.0351   25.4629 N   0  0  0  0  0  0  0  0  0  0  0  0
   14.2459  -19.9492   24.7871 N   0  0  0  0  0  0  0  0  0  0  0  0
   13.9170  -18.5646   25.0641 C   0  0  0  0  0  0  0  0  0  0  0  0
   12.4853  -18.4111   25.4550 C   0  0  0  0  0  0  0  0  0  0  0  0
   11.9993  -17.0758   25.8130 C   0  0  0  0  0  0  0  0  0  0  0  0
   10.5681  -16.8798   26.1453 C   0  0  2  0  0  0  0  0  0  0  0  0
   10.0001  -15.7213   25.4406 N   0  0  0  0  0  0  0  0  0  0  0  0
   10.2408  -16.8047   27.5838 C   0  0  0  0  0  0  0  0  0  0  0  0
   10.1669  -17.9593   28.3352 O   0  0  0  0  0  0  0  0  0  0  0  0
   10.0165  -15.7201   28.1826 O   0  0  0  0  0  0  0  0  0  0  0  0
  2  1  1  6
  2  9  1  0
  2  3  1  0
  3  4  1  0
  4  8  1  0
  5  6  1  0
  5  4  2  0
  6  7  1  0
  7  8  2  0
  9 16  1  0
 10  9  2  0
 11 12  1  0
 12 13  1  0
 13 14  1  0
 15 14  1  1
 16 15  1  0
 17 15  1  0
 18 17  2  0
 19 20  1  0
 20 22  1  0
 21 20  2  0
 22 23  1  0
 23 24  1  0
 24 25  1  0
 26 25  1  1
 26 28  1  0
 26 27  1  0
 27 17  1  0
 28 29  1  0
 30 28  2  0
M  END
$$$$
