HMR.pdb
     RDKit          3D

 30 30  0  0  1  0  0  0  0  0999 V2000
    7.5560  -15.6531   19.5507 N   0  0  0  0  0  0  0  0  0  0  0  0
    8.7535  -14.8456   19.6659 C   0  0  1  0  0  0  0  0  0  0  0  0
    8.6514  -13.5823   18.8783 C   0  0  0  0  0  0  0  0  0  0  0  0
    8.4632  -13.8258   17.4306 C   0  0  0  0  0  0  0  0  0  0  0  0
    9.2862  -14.5701   16.5828 C   0  0  0  0  0  0  0  0  0  0  0  0
    8.7891  -14.5610   15.3441 N   0  0  0  0  0  0  0  0  0  0  0  0
    7.6672  -13.8301   15.3724 C   0  0  0  0  0  0  0  0  0  0  0  0
    7.4674  -13.3858   16.6258 N   0  0  0  0  0  0  0  0  0  0  0  0
    8.9614  -14.5525   21.1234 C   0  0  0  0  0  0  0  0  0  0  0  0
   10.0693  -14.0746   21.4714 O   0  0  0  0  0  0  0  0  0  0  0  0
    6.1989  -12.3167   28.0024 C   0  0  0  0  0  0  0  0  0  0  0  0
    5.8795  -12.6863   26.2577 S   0  0  0  0  0  0  0  0  0  0  0  0
    7.0544  -13.9927   25.6712 C   0  0  0  0  0  0  0  0  0  0  0  0
    6.7887  -14.2089   24.2172 C   0  0  0  0  0  0  0  0  0  0  0  0
    8.0624  -14.6354   23.5065 C   0  0  2  0  0  0  0  0  0  0  0  0
    7.9707  -14.7916   22.1046 N   0  0  0  0  0  0  0  0  0  0  0  0
    8.8219  -15.6399   24.2440 C   0  0  0  0  0  0  0  0  0  0  0  0
    8.2508  -16.7679   24.4446 O   0  0  0  0  0  0  0  0  0  0  0  0
   15.9916  -15.6439   20.5797 N   0  0  0  0  0  0  0  0  0  0  0  0
   14.5635  -15.6437   20.6645 C   0  0  0  0  0  0  0  0  0  0  0  0
   13.8771  -14.7174   20.1027 N   0  0  0  0  0  0  0  0  0  0  0  0
   13.8975  -16.6740   21.3725 N   0  0  0  0  0  0  0  0  0  0  0  0
   13.8675  -16.7330   22.8207 C   0  0  0  0  0  0  0  0  0  0  0  0
   12.4682  -16.7279   23.3386 C   0  0  0  0  0  0  0  0  0  0  0  0
   12.2613  -16.6780   24.7884 C   0  0  0  0  0  0  0  0  0  0  0  0
   10.8838  -16.6081   25.3317 C   0  0  2  0  0  0  0  0  0  0  0  0
   10.1293  -15.4847   24.7571 N   0  0  0  0  0  0  0  0  0  0  0  0
   10.7675  -16.5926   26.8042 C   0  0  0  0  0  0  0  0  0  0  0  0
   10.9450  -17.7572   27.5220 O   0  0  0  0  0  0  0  0  0  0  0  0
   10.5065  -15.5518   27.4628 O   0  0  0  0  0  0  0  0  0  0  0  0
  2  1  1  1
  2  9  1  0
  2  3  1  0
  3  4  1  0
  4  8  1  0
  5  6  1  0
  5  4  2  0
  6  7  1  0
  7  8  2  0
  9 16  1  0
 10  9  2  0
 11 12  1  0
 12 13  1  0
 13 14  1  0
 15 14  1  1
 16 15  1  0
 17 15  1  0
 18 17  2  0
 19 20  1  0
 20 22  1  0
 21 20  2  0
 22 23  1  0
 23 24  1  0
 24 25  1  0
 26 25  1  1
 26 28  1  0
 26 27  1  0
 27 17  1  0
 28 29  1  0
 30 28  2  0
M  END
$$$$
