HMR.pdb
     RDKit          3D

 30 30  0  0  1  0  0  0  0  0999 V2000
   10.3142  -13.7302   20.2499 N   0  0  0  0  0  0  0  0  0  0  0  0
    8.9687  -14.0428   20.6871 C   0  0  1  0  0  0  0  0  0  0  0  0
    8.3803  -15.1747   19.9130 C   0  0  0  0  0  0  0  0  0  0  0  0
    8.2009  -14.8536   18.4793 C   0  0  0  0  0  0  0  0  0  0  0  0
    8.5660  -13.6764   17.8229 C   0  0  0  0  0  0  0  0  0  0  0  0
    8.2425  -13.7581   16.5305 N   0  0  0  0  0  0  0  0  0  0  0  0
    7.6786  -14.9575   16.3378 C   0  0  0  0  0  0  0  0  0  0  0  0
    7.6515  -15.6199   17.5078 N   0  0  0  0  0  0  0  0  0  0  0  0
    9.0348  -14.3719   22.1502 C   0  0  0  0  0  0  0  0  0  0  0  0
   10.0713  -14.9392   22.5756 O   0  0  0  0  0  0  0  0  0  0  0  0
    5.5444  -11.5603   27.4139 C   0  0  0  0  0  0  0  0  0  0  0  0
    7.0659  -11.1365   26.5263 S   0  0  0  0  0  0  0  0  0  0  0  0
    7.1334  -12.0645   24.9245 C   0  0  0  0  0  0  0  0  0  0  0  0
    6.9383  -13.5113   25.2407 C   0  0  0  0  0  0  0  0  0  0  0  0
    7.9057  -14.3620   24.4347 C   0  0  2  0  0  0  0  0  0  0  0  0
    7.9885  -14.0717   23.0538 N   0  0  0  0  0  0  0  0  0  0  0  0
    7.8940  -15.7685   24.8238 C   0  0  0  0  0  0  0  0  0  0  0  0
    7.3100  -16.5857   24.0302 O   0  0  0  0  0  0  0  0  0  0  0  0
   14.8620  -20.2653   25.1219 N   0  0  0  0  0  0  0  0  0  0  0  0
   14.1584  -20.3824   23.8818 C   0  0  0  0  0  0  0  0  0  0  0  0
   14.6100  -21.1318   22.9441 N   0  0  0  0  0  0  0  0  0  0  0  0
   12.9516  -19.6677   23.6837 N   0  0  0  0  0  0  0  0  0  0  0  0
   12.4489  -18.7031   24.6422 C   0  0  0  0  0  0  0  0  0  0  0  0
   11.1824  -18.0722   24.1691 C   0  0  0  0  0  0  0  0  0  0  0  0
   10.5802  -17.0171   24.9885 C   0  0  0  0  0  0  0  0  0  0  0  0
    9.5021  -17.3572   25.9473 C   0  0  2  0  0  0  0  0  0  0  0  0
    8.4675  -16.3136   25.9945 N   0  0  0  0  0  0  0  0  0  0  0  0
    9.9365  -17.6984   27.3173 C   0  0  0  0  0  0  0  0  0  0  0  0
    9.9157  -19.0114   27.7402 O   0  0  0  0  0  0  0  0  0  0  0  0
   10.3339  -16.8390   28.1472 O   0  0  0  0  0  0  0  0  0  0  0  0
  2  1  1  6
  2  9  1  0
  2  3  1  0
  3  4  1  0
  4  8  1  0
  5  6  1  0
  5  4  2  0
  6  7  1  0
  7  8  2  0
  9 16  1  0
 10  9  2  0
 11 12  1  0
 12 13  1  0
 13 14  1  0
 15 14  1  6
 16 15  1  0
 17 15  1  0
 18 17  2  0
 19 20  1  0
 20 22  1  0
 21 20  2  0
 22 23  1  0
 23 24  1  0
 24 25  1  0
 26 25  1  6
 26 28  1  0
 26 27  1  0
 27 17  1  0
 28 29  1  0
 30 28  2  0
M  END
$$$$
