HMR.pdb
     RDKit          3D

 30 30  0  0  1  0  0  0  0  0999 V2000
    7.7064  -15.7447   20.2295 N   0  0  0  0  0  0  0  0  0  0  0  0
    9.1316  -15.6435   20.4705 C   0  0  1  0  0  0  0  0  0  0  0  0
    9.7712  -14.6113   19.6032 C   0  0  0  0  0  0  0  0  0  0  0  0
    8.9091  -14.2023   18.4718 C   0  0  0  0  0  0  0  0  0  0  0  0
    7.6171  -14.6490   18.1867 C   0  0  0  0  0  0  0  0  0  0  0  0
    7.1636  -14.0521   17.0824 N   0  0  0  0  0  0  0  0  0  0  0  0
    8.1301  -13.2326   16.6490 C   0  0  0  0  0  0  0  0  0  0  0  0
    9.1821  -13.3198   17.4820 N   0  0  0  0  0  0  0  0  0  0  0  0
    9.3213  -15.3148   21.9228 C   0  0  0  0  0  0  0  0  0  0  0  0
   10.4911  -15.3350   22.3789 O   0  0  0  0  0  0  0  0  0  0  0  0
    7.2450  -10.6533   26.3641 C   0  0  0  0  0  0  0  0  0  0  0  0
    6.3775  -12.2059   26.7094 S   0  0  0  0  0  0  0  0  0  0  0  0
    7.4375  -13.6388   26.2049 C   0  0  0  0  0  0  0  0  0  0  0  0
    7.1978  -13.8782   24.7500 C   0  0  0  0  0  0  0  0  0  0  0  0
    8.2663  -14.7990   24.1845 C   0  0  2  0  0  0  0  0  0  0  0  0
    8.2472  -14.9884   22.7838 N   0  0  0  0  0  0  0  0  0  0  0  0
    8.5098  -15.9735   25.0158 C   0  0  0  0  0  0  0  0  0  0  0  0
    7.7331  -16.9766   24.8455 O   0  0  0  0  0  0  0  0  0  0  0  0
   13.8160  -22.4367   26.1207 N   0  0  0  0  0  0  0  0  0  0  0  0
   13.2064  -22.1791   24.8524 C   0  0  0  0  0  0  0  0  0  0  0  0
   13.1665  -23.0905   23.9509 N   0  0  0  0  0  0  0  0  0  0  0  0
   12.6394  -20.9088   24.5858 N   0  0  0  0  0  0  0  0  0  0  0  0
   12.8100  -19.7755   25.4738 C   0  0  0  0  0  0  0  0  0  0  0  0
   11.5129  -19.3577   26.0815 C   0  0  0  0  0  0  0  0  0  0  0  0
   10.9260  -18.0816   25.6639 C   0  0  0  0  0  0  0  0  0  0  0  0
    9.9239  -17.4158   26.5298 C   0  0  2  0  0  0  0  0  0  0  0  0
    9.5234  -16.1078   25.9912 N   0  0  0  0  0  0  0  0  0  0  0  0
   10.2846  -17.2844   27.9562 C   0  0  0  0  0  0  0  0  0  0  0  0
   10.2916  -18.3976   28.7710 O   0  0  0  0  0  0  0  0  0  0  0  0
   10.5927  -16.1864   28.4896 O   0  0  0  0  0  0  0  0  0  0  0  0
  2  1  1  6
  2  9  1  0
  2  3  1  0
  3  4  1  0
  4  8  1  0
  5  6  1  0
  5  4  2  0
  6  7  1  0
  7  8  2  0
  9 16  1  0
 10  9  2  0
 11 12  1  0
 12 13  1  0
 13 14  1  0
 15 14  1  1
 16 15  1  0
 17 15  1  0
 18 17  2  0
 19 20  1  0
 20 22  1  0
 21 20  2  0
 22 23  1  0
 23 24  1  0
 24 25  1  0
 26 25  1  6
 26 28  1  0
 26 27  1  0
 27 17  1  0
 28 29  1  0
 30 28  2  0
M  END
$$$$
