HMR.pdb
     RDKit          3D

 30 30  0  0  1  0  0  0  0  0999 V2000
    9.2372  -12.4697   19.6756 N   0  0  0  0  0  0  0  0  0  0  0  0
    8.5279  -13.6149   20.2095 C   0  0  1  0  0  0  0  0  0  0  0  0
    8.8179  -14.8588   19.4381 C   0  0  0  0  0  0  0  0  0  0  0  0
    8.3300  -14.7919   18.0424 C   0  0  0  0  0  0  0  0  0  0  0  0
    7.9438  -13.6523   17.3338 C   0  0  0  0  0  0  0  0  0  0  0  0
    7.5621  -13.9918   16.1008 N   0  0  0  0  0  0  0  0  0  0  0  0
    7.6924  -15.3206   15.9970 C   0  0  0  0  0  0  0  0  0  0  0  0
    8.1541  -15.8061   17.1630 N   0  0  0  0  0  0  0  0  0  0  0  0
    8.9357  -13.7683   21.6460 C   0  0  0  0  0  0  0  0  0  0  0  0
   10.1587  -13.6852   21.9187 O   0  0  0  0  0  0  0  0  0  0  0  0
    5.0344  -12.6548   26.6908 C   0  0  0  0  0  0  0  0  0  0  0  0
    6.1056  -11.3618   26.0101 S   0  0  0  0  0  0  0  0  0  0  0  0
    7.2706  -12.1024   24.7750 C   0  0  0  0  0  0  0  0  0  0  0  0
    7.3306  -13.5703   25.0454 C   0  0  0  0  0  0  0  0  0  0  0  0
    8.2616  -14.2508   24.0558 C   0  0  2  0  0  0  0  0  0  0  0  0
    8.0073  -14.0001   22.6881 N   0  0  0  0  0  0  0  0  0  0  0  0
    8.5998  -15.6191   24.4342 C   0  0  0  0  0  0  0  0  0  0  0  0
    7.6667  -16.4916   24.3527 O   0  0  0  0  0  0  0  0  0  0  0  0
   12.1952  -16.2498   19.7174 N   0  0  0  0  0  0  0  0  0  0  0  0
   12.8443  -15.5309   20.7702 C   0  0  0  0  0  0  0  0  0  0  0  0
   13.5439  -14.4873   20.5124 N   0  0  0  0  0  0  0  0  0  0  0  0
   12.7151  -15.9706   22.1104 N   0  0  0  0  0  0  0  0  0  0  0  0
   12.6542  -17.3739   22.4695 C   0  0  0  0  0  0  0  0  0  0  0  0
   11.3141  -17.7409   23.0133 C   0  0  0  0  0  0  0  0  0  0  0  0
   11.2044  -18.0642   24.4384 C   0  0  0  0  0  0  0  0  0  0  0  0
   10.1071  -17.4756   25.2426 C   0  0  2  0  0  0  0  0  0  0  0  0
    9.8614  -16.0717   24.8818 N   0  0  0  0  0  0  0  0  0  0  0  0
   10.2366  -17.6040   26.7085 C   0  0  0  0  0  0  0  0  0  0  0  0
   10.4005  -18.8489   27.2797 O   0  0  0  0  0  0  0  0  0  0  0  0
   10.2033  -16.6182   27.4910 O   0  0  0  0  0  0  0  0  0  0  0  0
  2  1  1  6
  2  9  1  0
  2  3  1  0
  3  4  1  0
  4  8  1  0
  5  6  1  0
  5  4  2  0
  6  7  1  0
  7  8  2  0
  9 16  1  0
 10  9  2  0
 11 12  1  0
 12 13  1  0
 13 14  1  0
 15 14  1  1
 16 15  1  0
 17 15  1  0
 18 17  2  0
 19 20  1  0
 20 22  1  0
 21 20  2  0
 22 23  1  0
 23 24  1  0
 24 25  1  0
 26 25  1  6
 26 28  1  0
 26 27  1  0
 27 17  1  0
 28 29  1  0
 30 28  2  0
M  END
$$$$
