HMR.pdb
     RDKit          3D

 30 30  0  0  1  0  0  0  0  0999 V2000
    7.6129  -15.8823   20.2137 N   0  0  0  0  0  0  0  0  0  0  0  0
    9.0443  -15.7962   20.4215 C   0  0  1  0  0  0  0  0  0  0  0  0
    9.7051  -14.9357   19.3971 C   0  0  0  0  0  0  0  0  0  0  0  0
    8.7531  -14.4094   18.3934 C   0  0  0  0  0  0  0  0  0  0  0  0
    7.4227  -14.7904   18.2065 C   0  0  0  0  0  0  0  0  0  0  0  0
    6.8871  -14.0921   17.2030 N   0  0  0  0  0  0  0  0  0  0  0  0
    7.8382  -13.2713   16.7389 C   0  0  0  0  0  0  0  0  0  0  0  0
    8.9625  -13.4589   17.4523 N   0  0  0  0  0  0  0  0  0  0  0  0
    9.2676  -15.2521   21.8026 C   0  0  0  0  0  0  0  0  0  0  0  0
   10.4536  -15.1011   22.1868 O   0  0  0  0  0  0  0  0  0  0  0  0
    6.8151  -10.6640   26.6506 C   0  0  0  0  0  0  0  0  0  0  0  0
    6.0947  -12.3264   26.6494 S   0  0  0  0  0  0  0  0  0  0  0  0
    7.3621  -13.5556   26.0889 C   0  0  0  0  0  0  0  0  0  0  0  0
    7.1697  -13.7541   24.6209 C   0  0  0  0  0  0  0  0  0  0  0  0
    8.2549  -14.6612   24.0652 C   0  0  2  0  0  0  0  0  0  0  0  0
    8.2076  -14.9087   22.6743 N   0  0  0  0  0  0  0  0  0  0  0  0
    8.5595  -15.7915   24.9365 C   0  0  0  0  0  0  0  0  0  0  0  0
    7.6304  -16.6539   25.1151 O   0  0  0  0  0  0  0  0  0  0  0  0
   13.9596  -20.2960   22.8724 N   0  0  0  0  0  0  0  0  0  0  0  0
   14.3757  -20.7770   24.1538 C   0  0  0  0  0  0  0  0  0  0  0  0
   15.5655  -21.2231   24.3279 N   0  0  0  0  0  0  0  0  0  0  0  0
   13.4702  -20.7611   25.2428 N   0  0  0  0  0  0  0  0  0  0  0  0
   12.0892  -20.3421   25.1042 C   0  0  0  0  0  0  0  0  0  0  0  0
   11.7479  -19.2576   26.0703 C   0  0  0  0  0  0  0  0  0  0  0  0
   11.2334  -17.9907   25.5435 C   0  0  0  0  0  0  0  0  0  0  0  0
   10.1036  -17.3162   26.2262 C   0  0  2  0  0  0  0  0  0  0  0  0
    9.7844  -16.0241   25.6016 N   0  0  0  0  0  0  0  0  0  0  0  0
   10.2353  -17.1503   27.6881 C   0  0  0  0  0  0  0  0  0  0  0  0
   10.0398  -18.2297   28.5247 O   0  0  0  0  0  0  0  0  0  0  0  0
   10.5210  -16.0518   28.2329 O   0  0  0  0  0  0  0  0  0  0  0  0
  2  1  1  6
  2  9  1  0
  2  3  1  0
  3  4  1  0
  4  8  1  0
  5  6  1  0
  5  4  2  0
  6  7  1  0
  7  8  2  0
  9 16  1  0
 10  9  2  0
 11 12  1  0
 12 13  1  0
 13 14  1  0
 15 14  1  1
 16 15  1  0
 17 15  1  0
 18 17  2  0
 19 20  1  0
 20 22  1  0
 21 20  2  0
 22 23  1  0
 23 24  1  0
 24 25  1  0
 26 25  1  6
 26 28  1  0
 26 27  1  0
 27 17  1  0
 28 29  1  0
 30 28  2  0
M  END
$$$$
