HMR.pdb
     RDKit          3D

 30 30  0  0  1  0  0  0  0  0999 V2000
    7.4817  -15.5470   20.8813 N   0  0  0  0  0  0  0  0  0  0  0  0
    8.8340  -15.0642   21.0751 C   0  0  1  0  0  0  0  0  0  0  0  0
    9.0926  -13.8098   20.3095 C   0  0  0  0  0  0  0  0  0  0  0  0
    8.7692  -13.9417   18.8712 C   0  0  0  0  0  0  0  0  0  0  0  0
    7.9102  -13.1378   18.1190 C   0  0  0  0  0  0  0  0  0  0  0  0
    7.8745  -13.5686   16.8563 N   0  0  0  0  0  0  0  0  0  0  0  0
    8.6883  -14.6292   16.7759 C   0  0  0  0  0  0  0  0  0  0  0  0
    9.2286  -14.8572   17.9860 N   0  0  0  0  0  0  0  0  0  0  0  0
    9.0272  -14.8426   22.5471 C   0  0  0  0  0  0  0  0  0  0  0  0
   10.1474  -14.4268   22.9337 O   0  0  0  0  0  0  0  0  0  0  0  0
    6.7539  -11.6749   27.8147 C   0  0  0  0  0  0  0  0  0  0  0  0
    5.7984  -11.9870   26.3074 S   0  0  0  0  0  0  0  0  0  0  0  0
    6.8310  -12.9386   25.0994 C   0  0  0  0  0  0  0  0  0  0  0  0
    6.9815  -14.3237   25.6379 C   0  0  0  0  0  0  0  0  0  0  0  0
    8.0990  -15.0532   24.9110 C   0  0  2  0  0  0  0  0  0  0  0  0
    8.0098  -15.0816   23.5006 N   0  0  0  0  0  0  0  0  0  0  0  0
    8.5122  -16.2823   25.5807 C   0  0  0  0  0  0  0  0  0  0  0  0
    7.5841  -17.0254   26.0550 O   0  0  0  0  0  0  0  0  0  0  0  0
   13.6216  -15.9584   22.1115 N   0  0  0  0  0  0  0  0  0  0  0  0
   12.9336  -17.2124   22.1380 C   0  0  0  0  0  0  0  0  0  0  0  0
   12.5513  -17.7695   21.0479 N   0  0  0  0  0  0  0  0  0  0  0  0
   12.6714  -17.8487   23.3760 N   0  0  0  0  0  0  0  0  0  0  0  0
   12.1005  -19.1784   23.4652 C   0  0  0  0  0  0  0  0  0  0  0  0
   10.9661  -19.2218   24.4334 C   0  0  0  0  0  0  0  0  0  0  0  0
   11.2007  -18.7594   25.8039 C   0  0  0  0  0  0  0  0  0  0  0  0
   10.1639  -17.9574   26.4961 C   0  0  2  0  0  0  0  0  0  0  0  0
    9.8413  -16.7297   25.7544 N   0  0  0  0  0  0  0  0  0  0  0  0
   10.4319  -17.6348   27.9125 C   0  0  0  0  0  0  0  0  0  0  0  0
   10.6666  -18.6487   28.8180 O   0  0  0  0  0  0  0  0  0  0  0  0
   10.4578  -16.4570   28.3568 O   0  0  0  0  0  0  0  0  0  0  0  0
  2  1  1  1
  2  9  1  0
  2  3  1  0
  3  4  1  0
  4  8  1  0
  5  6  1  0
  5  4  2  0
  6  7  1  0
  7  8  2  0
  9 16  1  0
 10  9  2  0
 11 12  1  0
 12 13  1  0
 13 14  1  0
 15 14  1  1
 16 15  1  0
 17 15  1  0
 18 17  2  0
 19 20  1  0
 20 22  1  0
 21 20  2  0
 22 23  1  0
 23 24  1  0
 24 25  1  0
 26 25  1  6
 26 28  1  0
 26 27  1  0
 27 17  1  0
 28 29  1  0
 30 28  2  0
M  END
$$$$
