DAF.pdb
     RDKit          3D

 25 25  0  0  1  0  0  0  0  0999 V2000
   21.0692   -7.5387  -22.8239 N   0  0  0  0  0  0  0  0  0  0  0  0
   21.1624   -8.6045  -21.8470 C   0  0  1  0  0  0  0  0  0  0  0  0
   21.7226   -9.8125  -22.5660 C   0  0  0  0  0  0  0  0  0  0  0  0
   20.5716  -10.6954  -22.8938 C   0  0  0  0  0  0  0  0  0  0  0  0
   19.5647  -10.8182  -22.1343 O   0  0  0  0  0  0  0  0  0  0  0  0
   22.0447   -8.1476  -20.7531 C   0  0  0  0  0  0  0  0  0  0  0  0
   22.3179   -8.9231  -19.8109 O   0  0  0  0  0  0  0  0  0  0  0  0
   20.5295  -11.4498  -24.0692 O   0  0  0  0  0  0  0  0  0  0  0  0
   24.1010   -5.0124  -20.0277 C   0  0  0  0  0  0  0  0  0  0  0  0
   23.4867   -6.3765  -19.6865 C   0  0  2  0  0  0  0  0  0  0  0  0
   22.6149   -6.8386  -20.7131 N   0  0  0  0  0  0  0  0  0  0  0  0
   22.7961   -6.2688  -18.3600 C   0  0  0  0  0  0  0  0  0  0  0  0
   21.6492   -5.7661  -18.2749 O   0  0  0  0  0  0  0  0  0  0  0  0
   23.4046   -6.7253  -17.1631 N   0  0  0  0  0  0  0  0  0  0  0  0
   22.7700   -6.6394  -15.8628 C   0  0  1  0  0  0  0  0  0  0  0  0
   22.5061   -7.9982  -15.2744 C   0  0  0  0  0  0  0  0  0  0  0  0
   23.6638   -8.8759  -15.5349 C   0  0  0  0  0  0  0  0  0  0  0  0
   23.8630   -9.5089  -16.7291 C   0  0  0  0  0  0  0  0  0  0  0  0
   24.9527  -10.3460  -16.9855 C   0  0  0  0  0  0  0  0  0  0  0  0
   25.8488  -10.5090  -15.9413 C   0  0  0  0  0  0  0  0  0  0  0  0
   25.6509   -9.8746  -14.7422 C   0  0  0  0  0  0  0  0  0  0  0  0
   24.5726   -9.0546  -14.5082 C   0  0  0  0  0  0  0  0  0  0  0  0
   23.6676   -5.8721  -14.9699 C   0  0  0  0  0  0  0  0  0  0  0  0
   24.8049   -5.4820  -15.3439 O   0  0  0  0  0  0  0  0  0  0  0  0
   23.2997   -5.5439  -13.6735 O   0  0  0  0  0  0  0  0  0  0  0  0
  2  1  1  6
  2  6  1  0
  3  2  1  0
  3  4  1  0
  4  8  1  0
  5  4  2  0
  6  7  2  0
 10  9  1  6
 10 12  1  0
 11 10  1  0
 11  6  1  0
 12 13  2  0
 12 14  1  0
 14 15  1  0
 15 23  1  0
 15 16  1  1
 17 16  1  0
 17 22  2  0
 18 17  1  0
 19 18  2  0
 19 20  1  0
 20 21  2  0
 21 22  1  0
 23 24  2  0
 23 25  1  0
M  END
$$$$
