DAF.pdb
     RDKit          3D

 25 25  0  0  1  0  0  0  0  0999 V2000
   24.8405  -38.2248   -9.4207 N   0  0  0  0  0  0  0  0  0  0  0  0
   24.5701  -36.8166   -9.6275 C   0  0  1  0  0  0  0  0  0  0  0  0
   23.4081  -36.7289  -10.5929 C   0  0  0  0  0  0  0  0  0  0  0  0
   23.9834  -36.6995  -11.9640 C   0  0  0  0  0  0  0  0  0  0  0  0
   24.9961  -37.3850  -12.2965 O   0  0  0  0  0  0  0  0  0  0  0  0
   24.2528  -36.2135   -8.3163 C   0  0  0  0  0  0  0  0  0  0  0  0
   24.2317  -34.9691   -8.1941 O   0  0  0  0  0  0  0  0  0  0  0  0
   23.4383  -35.9077  -12.9780 O   0  0  0  0  0  0  0  0  0  0  0  0
   23.0820  -37.5094   -4.9254 C   0  0  0  0  0  0  0  0  0  0  0  0
   23.6231  -36.4425   -5.8864 C   0  0  2  0  0  0  0  0  0  0  0  0
   23.9625  -36.9927   -7.1550 N   0  0  0  0  0  0  0  0  0  0  0  0
   24.7873  -35.7601   -5.2327 C   0  0  0  0  0  0  0  0  0  0  0  0
   25.8987  -36.3364   -5.1432 O   0  0  0  0  0  0  0  0  0  0  0  0
   24.6797  -34.4518   -4.6961 N   0  0  0  0  0  0  0  0  0  0  0  0
   25.7908  -33.7440   -4.0916 C   0  0  1  0  0  0  0  0  0  0  0  0
   25.9259  -32.3453   -4.6280 C   0  0  0  0  0  0  0  0  0  0  0  0
   26.2426  -32.4037   -6.0684 C   0  0  0  0  0  0  0  0  0  0  0  0
   27.4591  -32.8010   -6.5467 C   0  0  0  0  0  0  0  0  0  0  0  0
   27.7718  -32.8556   -7.9079 C   0  0  0  0  0  0  0  0  0  0  0  0
   26.7607  -32.4767   -8.7763 C   0  0  0  0  0  0  0  0  0  0  0  0
   25.5391  -32.0778   -8.2985 C   0  0  0  0  0  0  0  0  0  0  0  0
   25.2497  -32.0304   -6.9555 C   0  0  0  0  0  0  0  0  0  0  0  0
   25.5594  -33.7003   -2.6299 C   0  0  0  0  0  0  0  0  0  0  0  0
   24.5084  -34.1569   -2.1080 O   0  0  0  0  0  0  0  0  0  0  0  0
   26.4910  -33.1527   -1.7605 O   0  0  0  0  0  0  0  0  0  0  0  0
  2  1  1  1
  2  6  1  0
  3  2  1  0
  3  4  1  0
  4  8  1  0
  5  4  2  0
  6  7  2  0
 10  9  1  1
 10 12  1  0
 11 10  1  0
 11  6  1  0
 12 13  2  0
 12 14  1  0
 14 15  1  0
 15 23  1  0
 15 16  1  6
 17 16  1  0
 17 22  2  0
 18 17  1  0
 19 18  2  0
 19 20  1  0
 20 21  2  0
 21 22  1  0
 23 24  2  0
 23 25  1  0
M  END
$$$$
