DAF.pdb
     RDKit          3D

 25 25  0  0  1  0  0  0  0  0999 V2000
   27.3541  -16.4072  -16.9233 N   0  0  0  0  0  0  0  0  0  0  0  0
   27.0552  -17.7747  -16.5500 C   0  0  1  0  0  0  0  0  0  0  0  0
   28.3624  -18.4123  -16.1319 C   0  0  0  0  0  0  0  0  0  0  0  0
   28.9663  -19.0069  -17.3540 C   0  0  0  0  0  0  0  0  0  0  0  0
   29.6036  -18.3195  -18.2067 O   0  0  0  0  0  0  0  0  0  0  0  0
   26.0715  -17.7444  -15.4477 C   0  0  0  0  0  0  0  0  0  0  0  0
   26.2459  -16.9703  -14.4811 O   0  0  0  0  0  0  0  0  0  0  0  0
   28.8673  -20.3711  -17.6393 O   0  0  0  0  0  0  0  0  0  0  0  0
   22.5030  -18.3969  -14.9706 C   0  0  0  0  0  0  0  0  0  0  0  0
   23.9203  -18.5365  -14.3995 C   0  0  2  0  0  0  0  0  0  0  0  0
   24.9062  -18.5702  -15.4263 N   0  0  0  0  0  0  0  0  0  0  0  0
   23.9642  -19.7564  -13.5288 C   0  0  0  0  0  0  0  0  0  0  0  0
   24.1242  -20.8954  -14.0312 O   0  0  0  0  0  0  0  0  0  0  0  0
   23.8283  -19.6723  -12.1197 N   0  0  0  0  0  0  0  0  0  0  0  0
   23.8096  -20.8315  -11.2497 C   0  0  1  0  0  0  0  0  0  0  0  0
   24.3297  -20.5121   -9.8751 C   0  0  0  0  0  0  0  0  0  0  0  0
   25.8053  -20.5433   -9.8924 C   0  0  0  0  0  0  0  0  0  0  0  0
   26.5248  -21.1352  -10.8916 C   0  0  0  0  0  0  0  0  0  0  0  0
   27.9218  -21.1751  -10.9161 C   0  0  0  0  0  0  0  0  0  0  0  0
   28.5628  -20.5682   -9.8480 C   0  0  0  0  0  0  0  0  0  0  0  0
   27.8427  -19.9735   -8.8443 C   0  0  0  0  0  0  0  0  0  0  0  0
   26.4684  -19.9441   -8.8372 C   0  0  0  0  0  0  0  0  0  0  0  0
   22.4106  -21.3073  -11.1584 C   0  0  0  0  0  0  0  0  0  0  0  0
   21.4431  -20.6146  -11.5702 O   0  0  0  0  0  0  0  0  0  0  0  0
   22.0951  -22.5430  -10.6132 O   0  0  0  0  0  0  0  0  0  0  0  0
  2  1  1  1
  2  6  1  0
  3  2  1  0
  3  4  1  0
  4  8  1  0
  5  4  2  0
  6  7  2  0
 10  9  1  6
 10 12  1  0
 11 10  1  0
 11  6  1  0
 12 13  2  0
 12 14  1  0
 14 15  1  0
 15 23  1  0
 15 16  1  1
 17 16  1  0
 17 22  2  0
 18 17  1  0
 19 18  2  0
 19 20  1  0
 20 21  2  0
 21 22  1  0
 23 24  2  0
 23 25  1  0
M  END
$$$$
