DAF.pdb
     RDKit          3D

 25 25  0  0  1  0  0  0  0  0999 V2000
   20.0482  -12.0424  -17.3754 N   0  0  0  0  0  0  0  0  0  0  0  0
   18.9033  -11.2106  -17.0652 C   0  0  1  0  0  0  0  0  0  0  0  0
   18.3775  -11.6689  -15.7223 C   0  0  0  0  0  0  0  0  0  0  0  0
   17.4809  -12.8275  -15.9790 C   0  0  0  0  0  0  0  0  0  0  0  0
   17.0289  -13.1014  -17.1307 O   0  0  0  0  0  0  0  0  0  0  0  0
   19.3533   -9.8034  -17.0373 C   0  0  0  0  0  0  0  0  0  0  0  0
   20.5351   -9.5355  -16.7283 O   0  0  0  0  0  0  0  0  0  0  0  0
   17.0788  -13.6920  -14.9577 O   0  0  0  0  0  0  0  0  0  0  0  0
   17.8799   -6.4465  -18.0751 C   0  0  0  0  0  0  0  0  0  0  0  0
   18.9043   -7.3454  -17.3702 C   0  0  2  0  0  0  0  0  0  0  0  0
   18.4919   -8.7082  -17.3515 N   0  0  0  0  0  0  0  0  0  0  0  0
   19.1431   -6.8046  -15.9923 C   0  0  0  0  0  0  0  0  0  0  0  0
   18.3789   -7.1091  -15.0443 O   0  0  0  0  0  0  0  0  0  0  0  0
   20.2293   -5.9379  -15.7090 N   0  0  0  0  0  0  0  0  0  0  0  0
   20.4957   -5.3977  -14.3906 C   0  0  1  0  0  0  0  0  0  0  0  0
   21.7207   -6.0099  -13.7686 C   0  0  0  0  0  0  0  0  0  0  0  0
   22.8462   -5.9228  -14.7196 C   0  0  0  0  0  0  0  0  0  0  0  0
   23.5126   -4.7586  -14.9781 C   0  0  0  0  0  0  0  0  0  0  0  0
   24.5763   -4.6632  -15.8799 C   0  0  0  0  0  0  0  0  0  0  0  0
   24.9347   -5.8394  -16.5188 C   0  0  0  0  0  0  0  0  0  0  0  0
   24.2674   -7.0088  -16.2607 C   0  0  0  0  0  0  0  0  0  0  0  0
   23.2229   -7.0834  -15.3700 C   0  0  0  0  0  0  0  0  0  0  0  0
   20.6809   -3.9354  -14.5286 C   0  0  0  0  0  0  0  0  0  0  0  0
   20.7389   -3.3746  -15.6545 O   0  0  0  0  0  0  0  0  0  0  0  0
   20.8002   -3.1082  -13.4218 O   0  0  0  0  0  0  0  0  0  0  0  0
  2  1  1  1
  2  6  1  0
  3  2  1  0
  3  4  1  0
  4  8  1  0
  5  4  2  0
  6  7  2  0
 10  9  1  1
 10 12  1  0
 11 10  1  0
 11  6  1  0
 12 13  2  0
 12 14  1  0
 14 15  1  0
 15 23  1  0
 15 16  1  6
 17 16  1  0
 17 22  2  0
 18 17  1  0
 19 18  2  0
 19 20  1  0
 20 21  2  0
 21 22  1  0
 23 24  2  0
 23 25  1  0
M  END
$$$$
