DAF.pdb
     RDKit          3D

 25 25  0  0  1  0  0  0  0  0999 V2000
   20.3586  -11.9264  -17.7111 N   0  0  0  0  0  0  0  0  0  0  0  0
   19.3725  -10.9197  -17.3752 C   0  0  1  0  0  0  0  0  0  0  0  0
   18.8657  -11.2461  -15.9871 C   0  0  0  0  0  0  0  0  0  0  0  0
   18.0369  -12.4753  -16.1051 C   0  0  0  0  0  0  0  0  0  0  0  0
   17.0384  -12.5560  -16.8812 O   0  0  0  0  0  0  0  0  0  0  0  0
   20.0296   -9.5973  -17.4325 C   0  0  0  0  0  0  0  0  0  0  0  0
   21.1621   -9.4443  -16.9247 O   0  0  0  0  0  0  0  0  0  0  0  0
   18.3105  -13.6260  -15.3613 O   0  0  0  0  0  0  0  0  0  0  0  0
   19.2557   -6.2178  -19.0305 C   0  0  0  0  0  0  0  0  0  0  0  0
   20.0230   -7.1667  -18.1002 C   0  0  2  0  0  0  0  0  0  0  0  0
   19.4273   -8.4591  -18.0504 N   0  0  0  0  0  0  0  0  0  0  0  0
   20.1173   -6.5314  -16.7454 C   0  0  0  0  0  0  0  0  0  0  0  0
   19.2017   -6.6867  -15.9010 O   0  0  0  0  0  0  0  0  0  0  0  0
   21.2317   -5.7393  -16.3690 N   0  0  0  0  0  0  0  0  0  0  0  0
   21.3624   -5.1137  -15.0680 C   0  0  1  0  0  0  0  0  0  0  0  0
   22.7179   -5.3535  -14.4618 C   0  0  0  0  0  0  0  0  0  0  0  0
   22.9160   -6.8032  -14.2676 C   0  0  0  0  0  0  0  0  0  0  0  0
   22.3302   -7.5040  -13.2516 C   0  0  0  0  0  0  0  0  0  0  0  0
   22.5144   -8.8756  -13.0550 C   0  0  0  0  0  0  0  0  0  0  0  0
   23.3433   -9.5111  -13.9656 C   0  0  0  0  0  0  0  0  0  0  0  0
   23.9320   -8.8097  -14.9859 C   0  0  0  0  0  0  0  0  0  0  0  0
   23.7392   -7.4602  -15.1635 C   0  0  0  0  0  0  0  0  0  0  0  0
   21.1398   -3.6601  -15.2393 C   0  0  0  0  0  0  0  0  0  0  0  0
   21.0107   -3.1355  -16.3766 O   0  0  0  0  0  0  0  0  0  0  0  0
   21.0621   -2.8016  -14.1527 O   0  0  0  0  0  0  0  0  0  0  0  0
  2  1  1  1
  2  6  1  0
  3  2  1  0
  3  4  1  0
  4  8  1  0
  5  4  2  0
  6  7  2  0
 10  9  1  6
 10 12  1  0
 11 10  1  0
 11  6  1  0
 12 13  2  0
 12 14  1  0
 14 15  1  0
 15 23  1  0
 15 16  1  6
 17 16  1  0
 17 22  2  0
 18 17  1  0
 19 18  2  0
 19 20  1  0
 20 21  2  0
 21 22  1  0
 23 24  2  0
 23 25  1  0
M  END
$$$$
