DAF.pdb
     RDKit          3D

 25 25  0  0  1  0  0  0  0  0999 V2000
   18.2769  -11.2138  -16.5478 N   0  0  0  0  0  0  0  0  0  0  0  0
   19.7068  -11.0140  -16.6671 C   0  0  1  0  0  0  0  0  0  0  0  0
   20.1662  -11.8244  -17.8597 C   0  0  0  0  0  0  0  0  0  0  0  0
   19.9693  -13.2573  -17.5133 C   0  0  0  0  0  0  0  0  0  0  0  0
   19.0839  -13.9789  -18.0620 O   0  0  0  0  0  0  0  0  0  0  0  0
   19.9542   -9.5682  -16.8464 C   0  0  0  0  0  0  0  0  0  0  0  0
   21.1270   -9.1342  -16.8454 O   0  0  0  0  0  0  0  0  0  0  0  0
   20.7550  -13.9009  -16.5539 O   0  0  0  0  0  0  0  0  0  0  0  0
   17.8226   -6.5001  -17.6246 C   0  0  0  0  0  0  0  0  0  0  0  0
   19.1072   -7.2195  -17.1921 C   0  0  2  0  0  0  0  0  0  0  0  0
   18.9023   -8.6185  -17.0248 N   0  0  0  0  0  0  0  0  0  0  0  0
   19.6205   -6.5666  -15.9437 C   0  0  0  0  0  0  0  0  0  0  0  0
   19.0277   -6.7251  -14.8488 O   0  0  0  0  0  0  0  0  0  0  0  0
   20.7826   -5.7538  -15.9508 N   0  0  0  0  0  0  0  0  0  0  0  0
   21.2903   -5.0780  -14.7733 C   0  0  1  0  0  0  0  0  0  0  0  0
   22.7116   -5.4662  -14.4705 C   0  0  0  0  0  0  0  0  0  0  0  0
   22.7694   -6.9099  -14.1689 C   0  0  0  0  0  0  0  0  0  0  0  0
   23.4095   -7.8119  -14.9709 C   0  0  0  0  0  0  0  0  0  0  0  0
   23.4666   -9.1816  -14.6980 C   0  0  0  0  0  0  0  0  0  0  0  0
   22.8248   -9.5950  -13.5416 C   0  0  0  0  0  0  0  0  0  0  0  0
   22.1819   -8.6915  -12.7354 C   0  0  0  0  0  0  0  0  0  0  0  0
   22.1362   -7.3474  -13.0201 C   0  0  0  0  0  0  0  0  0  0  0  0
   21.2099   -3.6200  -15.0172 C   0  0  0  0  0  0  0  0  0  0  0  0
   20.8871   -3.1491  -16.1395 O   0  0  0  0  0  0  0  0  0  0  0  0
   21.4867   -2.6976  -14.0191 O   0  0  0  0  0  0  0  0  0  0  0  0
  2  1  1  6
  2  6  1  0
  3  2  1  0
  3  4  1  0
  4  8  1  0
  5  4  2  0
  6  7  2  0
 10  9  1  1
 10 12  1  0
 11 10  1  0
 11  6  1  0
 12 13  2  0
 12 14  1  0
 14 15  1  0
 15 23  1  0
 15 16  1  6
 17 16  1  0
 17 22  2  0
 18 17  1  0
 19 18  2  0
 19 20  1  0
 20 21  2  0
 21 22  1  0
 23 24  2  0
 23 25  1  0
M  END
$$$$
