DAF.pdb
     RDKit          3D

 25 25  0  0  1  0  0  0  0  0999 V2000
   27.3916  -18.9672  -15.1275 N   0  0  0  0  0  0  0  0  0  0  0  0
   27.0141  -20.2023  -14.4712 C   0  0  1  0  0  0  0  0  0  0  0  0
   28.2483  -21.0773  -14.4366 C   0  0  0  0  0  0  0  0  0  0  0  0
   28.2522  -21.8730  -15.6931 C   0  0  0  0  0  0  0  0  0  0  0  0
   27.6045  -21.5258  -16.7254 O   0  0  0  0  0  0  0  0  0  0  0  0
   26.5271  -19.8709  -13.1159 C   0  0  0  0  0  0  0  0  0  0  0  0
   27.2555  -19.2180  -12.3369 O   0  0  0  0  0  0  0  0  0  0  0  0
   28.9762  -23.0620  -15.8132 O   0  0  0  0  0  0  0  0  0  0  0  0
   23.2873  -20.3488  -11.1566 C   0  0  0  0  0  0  0  0  0  0  0  0
   24.7892  -20.0693  -11.3009 C   0  0  2  0  0  0  0  0  0  0  0  0
   25.2403  -20.2650  -12.6372 N   0  0  0  0  0  0  0  0  0  0  0  0
   25.5292  -20.9279  -10.3195 C   0  0  0  0  0  0  0  0  0  0  0  0
   25.7739  -22.1313  -10.5795 O   0  0  0  0  0  0  0  0  0  0  0  0
   25.9767  -20.4202   -9.0732 N   0  0  0  0  0  0  0  0  0  0  0  0
   26.6755  -21.2233   -8.0895 C   0  0  1  0  0  0  0  0  0  0  0  0
   28.1001  -20.7765   -7.9075 C   0  0  0  0  0  0  0  0  0  0  0  0
   28.2205  -20.0355   -6.6366 C   0  0  0  0  0  0  0  0  0  0  0  0
   27.8345  -18.7325   -6.4964 C   0  0  0  0  0  0  0  0  0  0  0  0
   27.9482  -18.0193   -5.2996 C   0  0  0  0  0  0  0  0  0  0  0  0
   28.4866  -18.7159   -4.2295 C   0  0  0  0  0  0  0  0  0  0  0  0
   28.8744  -20.0235   -4.3680 C   0  0  0  0  0  0  0  0  0  0  0  0
   28.7549  -20.7090   -5.5537 C   0  0  0  0  0  0  0  0  0  0  0  0
   25.9454  -21.1059   -6.8069 C   0  0  0  0  0  0  0  0  0  0  0  0
   26.2092  -21.8427   -5.8204 O   0  0  0  0  0  0  0  0  0  0  0  0
   24.9320  -20.1761   -6.6274 O   0  0  0  0  0  0  0  0  0  0  0  0
  2  1  1  1
  2  6  1  0
  3  2  1  0
  3  4  1  0
  4  8  1  0
  5  4  2  0
  6  7  2  0
 10  9  1  6
 10 12  1  0
 11 10  1  0
 11  6  1  0
 12 13  2  0
 12 14  1  0
 14 15  1  0
 15 23  1  0
 15 16  1  1
 17 16  1  0
 17 22  2  0
 18 17  1  0
 19 18  2  0
 19 20  1  0
 20 21  2  0
 21 22  1  0
 23 24  2  0
 23 25  1  0
M  END
$$$$
