DAF.pdb
     RDKit          3D

 25 25  0  0  1  0  0  0  0  0999 V2000
   35.5179   -9.8178  -19.3474 N   0  0  0  0  0  0  0  0  0  0  0  0
   34.8210   -9.6967  -18.0831 C   0  0  1  0  0  0  0  0  0  0  0  0
   35.8541   -9.3119  -17.0464 C   0  0  0  0  0  0  0  0  0  0  0  0
   36.7137  -10.5053  -16.8258 C   0  0  0  0  0  0  0  0  0  0  0  0
   36.2851  -11.6910  -16.9537 O   0  0  0  0  0  0  0  0  0  0  0  0
   33.7723   -8.6666  -18.2346 C   0  0  0  0  0  0  0  0  0  0  0  0
   34.0378   -7.5908  -18.8142 O   0  0  0  0  0  0  0  0  0  0  0  0
   38.0577  -10.3915  -16.4610 O   0  0  0  0  0  0  0  0  0  0  0  0
   30.0384   -8.4071  -17.5173 C   0  0  0  0  0  0  0  0  0  0  0  0
   31.4336   -7.8336  -17.7983 C   0  0  2  0  0  0  0  0  0  0  0  0
   32.4419   -8.8375  -17.7437 N   0  0  0  0  0  0  0  0  0  0  0  0
   31.6916   -6.7155  -16.8332 C   0  0  0  0  0  0  0  0  0  0  0  0
   31.8086   -6.9450  -15.6048 O   0  0  0  0  0  0  0  0  0  0  0  0
   31.8120   -5.3701  -17.2653 N   0  0  0  0  0  0  0  0  0  0  0  0
   31.9796   -4.2529  -16.3572 C   0  0  1  0  0  0  0  0  0  0  0  0
   33.2976   -3.5567  -16.5585 C   0  0  0  0  0  0  0  0  0  0  0  0
   34.3910   -4.4460  -16.1202 C   0  0  0  0  0  0  0  0  0  0  0  0
   35.0511   -5.2874  -16.9703 C   0  0  0  0  0  0  0  0  0  0  0  0
   36.0845   -6.1372  -16.5657 C   0  0  0  0  0  0  0  0  0  0  0  0
   36.4189   -6.0853  -15.2220 C   0  0  0  0  0  0  0  0  0  0  0  0
   35.7579   -5.2416  -14.3672 C   0  0  0  0  0  0  0  0  0  0  0  0
   34.7434   -4.4125  -14.7835 C   0  0  0  0  0  0  0  0  0  0  0  0
   30.8693   -3.3033  -16.5967 C   0  0  0  0  0  0  0  0  0  0  0  0
   30.0709   -3.4414  -17.5606 O   0  0  0  0  0  0  0  0  0  0  0  0
   30.6526   -2.2115  -15.7693 O   0  0  0  0  0  0  0  0  0  0  0  0
  2  1  1  6
  2  6  1  0
  3  2  1  0
  3  4  1  0
  4  8  1  0
  5  4  2  0
  6  7  2  0
 10  9  1  1
 10 12  1  0
 11 10  1  0
 11  6  1  0
 12 13  2  0
 12 14  1  0
 14 15  1  0
 15 23  1  0
 15 16  1  6
 17 16  1  0
 17 22  2  0
 18 17  1  0
 19 18  2  0
 19 20  1  0
 20 21  2  0
 21 22  1  0
 23 24  2  0
 23 25  1  0
M  END
$$$$
