DAF.pdb
     RDKit          3D

 25 25  0  0  1  0  0  0  0  0999 V2000
   26.8744  -22.6385  -18.3344 N   0  0  0  0  0  0  0  0  0  0  0  0
   27.1966  -22.2240  -16.9842 C   0  0  1  0  0  0  0  0  0  0  0  0
   28.5310  -21.5130  -17.0488 C   0  0  0  0  0  0  0  0  0  0  0  0
   29.5619  -22.5482  -17.3270 C   0  0  0  0  0  0  0  0  0  0  0  0
   29.9305  -22.8492  -18.5015 O   0  0  0  0  0  0  0  0  0  0  0  0
   26.1149  -21.3377  -16.5063 C   0  0  0  0  0  0  0  0  0  0  0  0
   26.2709  -20.6791  -15.4548 O   0  0  0  0  0  0  0  0  0  0  0  0
   30.1924  -23.2583  -16.3020 O   0  0  0  0  0  0  0  0  0  0  0  0
   22.5968  -20.4262  -17.6954 C   0  0  0  0  0  0  0  0  0  0  0  0
   23.7770  -20.4188  -16.7147 C   0  0  2  0  0  0  0  0  0  0  0  0
   24.8731  -21.1896  -17.1963 N   0  0  0  0  0  0  0  0  0  0  0  0
   23.2891  -20.8963  -15.3798 C   0  0  0  0  0  0  0  0  0  0  0  0
   23.2399  -22.1228  -15.1180 O   0  0  0  0  0  0  0  0  0  0  0  0
   22.8689  -19.9913  -14.3720 N   0  0  0  0  0  0  0  0  0  0  0  0
   22.4911  -20.4055  -13.0353 C   0  0  1  0  0  0  0  0  0  0  0  0
   22.9413  -19.4199  -11.9922 C   0  0  0  0  0  0  0  0  0  0  0  0
   22.5905  -19.9322  -10.6532 C   0  0  0  0  0  0  0  0  0  0  0  0
   23.4496  -20.6732   -9.8921 C   0  0  0  0  0  0  0  0  0  0  0  0
   23.1267  -21.1676   -8.6252 C   0  0  0  0  0  0  0  0  0  0  0  0
   21.8567  -20.8622   -8.1626 C   0  0  0  0  0  0  0  0  0  0  0  0
   20.9931  -20.1187   -8.9247 C   0  0  0  0  0  0  0  0  0  0  0  0
   21.3284  -19.6407  -10.1692 C   0  0  0  0  0  0  0  0  0  0  0  0
   21.0167  -20.5343  -13.0002 C   0  0  0  0  0  0  0  0  0  0  0  0
   20.2626  -19.7209  -13.5961 O   0  0  0  0  0  0  0  0  0  0  0  0
   20.3909  -21.5601  -12.3074 O   0  0  0  0  0  0  0  0  0  0  0  0
  2  1  1  6
  2  6  1  0
  3  2  1  0
  3  4  1  0
  4  8  1  0
  5  4  2  0
  6  7  2  0
 10  9  1  6
 10 12  1  0
 11 10  1  0
 11  6  1  0
 12 13  2  0
 12 14  1  0
 14 15  1  0
 15 23  1  0
 15 16  1  1
 17 16  1  0
 17 22  2  0
 18 17  1  0
 19 18  2  0
 19 20  1  0
 20 21  2  0
 21 22  1  0
 23 24  2  0
 23 25  1  0
M  END
$$$$
