DAF.pdb
     RDKit          3D

 25 25  0  0  1  0  0  0  0  0999 V2000
   19.5121  -13.3426  -16.7976 N   0  0  0  0  0  0  0  0  0  0  0  0
   18.3958  -12.4660  -16.5069 C   0  0  1  0  0  0  0  0  0  0  0  0
   17.8558  -12.8754  -15.1537 C   0  0  0  0  0  0  0  0  0  0  0  0
   17.1132  -14.1489  -15.3494 C   0  0  0  0  0  0  0  0  0  0  0  0
   16.4131  -14.3820  -16.3796 O   0  0  0  0  0  0  0  0  0  0  0  0
   18.8927  -11.0743  -16.5115 C   0  0  0  0  0  0  0  0  0  0  0  0
   20.0098  -10.8123  -16.0144 O   0  0  0  0  0  0  0  0  0  0  0  0
   17.1422  -15.1751  -14.4015 O   0  0  0  0  0  0  0  0  0  0  0  0
   17.6558   -7.7345  -17.8973 C   0  0  0  0  0  0  0  0  0  0  0  0
   18.6130   -8.6428  -17.1139 C   0  0  2  0  0  0  0  0  0  0  0  0
   18.1490   -9.9880  -17.0656 N   0  0  0  0  0  0  0  0  0  0  0  0
   18.8098   -8.0597  -15.7466 C   0  0  0  0  0  0  0  0  0  0  0  0
   18.0761   -8.4097  -14.7903 O   0  0  0  0  0  0  0  0  0  0  0  0
   19.8209   -7.1009  -15.4831 N   0  0  0  0  0  0  0  0  0  0  0  0
   20.0797   -6.5565  -14.1649 C   0  0  1  0  0  0  0  0  0  0  0  0
   21.3381   -7.1173  -13.5614 C   0  0  0  0  0  0  0  0  0  0  0  0
   22.4566   -6.9332  -14.5067 C   0  0  0  0  0  0  0  0  0  0  0  0
   22.9923   -7.9586  -15.2334 C   0  0  0  0  0  0  0  0  0  0  0  0
   24.0544   -7.7971  -16.1276 C   0  0  0  0  0  0  0  0  0  0  0  0
   24.5541   -6.5101  -16.2469 C   0  0  0  0  0  0  0  0  0  0  0  0
   24.0178   -5.4797  -15.5188 C   0  0  0  0  0  0  0  0  0  0  0  0
   22.9728   -5.6577  -14.6436 C   0  0  0  0  0  0  0  0  0  0  0  0
   20.1985   -5.0867  -14.2966 C   0  0  0  0  0  0  0  0  0  0  0  0
   20.2733   -4.3317  -13.2917 O   0  0  0  0  0  0  0  0  0  0  0  0
   20.2335   -4.4665  -15.5367 O   0  0  0  0  0  0  0  0  0  0  0  0
  2  1  1  1
  2  6  1  0
  3  2  1  0
  3  4  1  0
  4  8  1  0
  5  4  2  0
  6  7  2  0
 10  9  1  6
 10 12  1  0
 11 10  1  0
 11  6  1  0
 12 13  2  0
 12 14  1  0
 14 15  1  0
 15 23  1  0
 15 16  1  6
 17 16  1  0
 17 22  2  0
 18 17  1  0
 19 18  2  0
 19 20  1  0
 20 21  2  0
 21 22  1  0
 23 24  2  0
 23 25  1  0
M  END
$$$$
