LTM.pdb
     RDKit          3D

 24 23  0  0  1  0  0  0  0  0999 V2000
    9.7029  -12.9617   19.2294 C   0  0  0  0  0  0  0  0  0  0  0  0
    8.2991  -13.4427   18.9191 C   0  0  2  0  0  0  0  0  0  0  0  0
    7.4101  -12.2519   18.7491 C   0  0  0  0  0  0  0  0  0  0  0  0
    7.8575  -14.3460   20.0507 C   0  0  0  0  0  0  0  0  0  0  0  0
    8.7965  -15.5322   20.0747 C   0  0  2  0  0  0  0  0  0  0  0  0
    8.4364  -16.3818   18.9603 N   0  0  0  0  0  0  0  0  0  0  0  0
    8.7261  -16.2767   21.3499 C   0  0  0  0  0  0  0  0  0  0  0  0
    7.7909  -17.0504   21.6127 O   0  0  0  0  0  0  0  0  0  0  0  0
    9.8572  -19.0859   22.7631 C   0  0  0  0  0  0  0  0  0  0  0  0
   10.4614  -18.0409   23.6769 C   0  0  1  0  0  0  0  0  0  0  0  0
   11.8300  -17.8982   23.4568 O   0  0  0  0  0  0  0  0  0  0  0  0
    9.7318  -16.7312   23.6179 C   0  0  2  0  0  0  0  0  0  0  0  0
    9.7430  -16.1187   22.3145 N   0  0  0  0  0  0  0  0  0  0  0  0
   10.3025  -15.8392   24.6592 C   0  0  0  0  0  0  0  0  0  0  0  0
   10.9411  -14.8081   24.3243 O   0  0  0  0  0  0  0  0  0  0  0  0
    6.9632  -12.2874   26.1855 C   0  0  0  0  0  0  0  0  0  0  0  0
    7.6659  -12.1062   27.8545 S   0  0  0  0  0  0  0  0  0  0  0  0
    9.0712  -13.2247   28.0855 C   0  0  0  0  0  0  0  0  0  0  0  0
    9.0513  -14.2447   26.9561 C   0  0  0  0  0  0  0  0  0  0  0  0
   10.2622  -15.1804   27.0916 C   0  0  2  0  0  0  0  0  0  0  0  0
   10.1337  -16.1384   26.0121 N   0  0  0  0  0  0  0  0  0  0  0  0
   10.2102  -15.7950   28.4153 C   0  0  0  0  0  0  0  0  0  0  0  0
   10.6656  -15.1194   29.5258 O   0  0  0  0  0  0  0  0  0  0  0  0
    9.7495  -16.9464   28.5534 O   0  0  0  0  0  0  0  0  0  0  0  0
  2  1  1  1
  2  3  1  0
  4  2  1  0
  5  7  1  0
  5  4  1  0
  5  6  1  6
  7  8  2  0
 10  9  1  6
 11 10  1  0
 12 10  1  0
 13  7  1  0
 12 13  1  6
 14 15  2  0
 14 12  1  0
 16 17  1  0
 18 19  1  0
 18 17  1  0
 20 19  1  1
 20 21  1  0
 21 14  1  0
 22 20  1  0
 22 23  1  0
 24 22  2  0
M  END
$$$$
