LTM.pdb
     RDKit          3D

 24 23  0  0  1  0  0  0  0  0999 V2000
   10.0151  -13.3111   18.9925 C   0  0  0  0  0  0  0  0  0  0  0  0
    8.6610  -13.3860   18.3149 C   0  0  2  0  0  0  0  0  0  0  0  0
    8.1169  -11.9998   18.1749 C   0  0  0  0  0  0  0  0  0  0  0  0
    7.7726  -14.2818   19.1514 C   0  0  0  0  0  0  0  0  0  0  0  0
    8.5178  -15.5804   19.3698 C   0  0  2  0  0  0  0  0  0  0  0  0
    8.0673  -16.5052   18.3523 N   0  0  0  0  0  0  0  0  0  0  0  0
    8.2941  -16.1340   20.7222 C   0  0  0  0  0  0  0  0  0  0  0  0
    7.1596  -16.4151   21.1418 O   0  0  0  0  0  0  0  0  0  0  0  0
    9.1416  -19.3433   22.0532 C   0  0  0  0  0  0  0  0  0  0  0  0
    9.8838  -18.3585   22.9316 C   0  0  1  0  0  0  0  0  0  0  0  0
   11.2515  -18.3647   22.6651 O   0  0  0  0  0  0  0  0  0  0  0  0
    9.2954  -16.9793   22.8773 C   0  0  2  0  0  0  0  0  0  0  0  0
    9.3901  -16.3585   21.5812 N   0  0  0  0  0  0  0  0  0  0  0  0
    9.9402  -16.1620   23.9365 C   0  0  0  0  0  0  0  0  0  0  0  0
   10.8837  -15.3828   23.6440 O   0  0  0  0  0  0  0  0  0  0  0  0
    5.6719  -13.5712   27.8671 C   0  0  0  0  0  0  0  0  0  0  0  0
    7.3023  -12.9873   27.3078 S   0  0  0  0  0  0  0  0  0  0  0  0
    7.9920  -14.1040   26.0602 C   0  0  0  0  0  0  0  0  0  0  0  0
    9.5089  -14.0604   26.1767 C   0  0  0  0  0  0  0  0  0  0  0  0
   10.0480  -15.4869   26.3624 C   0  0  2  0  0  0  0  0  0  0  0  0
    9.5038  -16.2529   25.2593 N   0  0  0  0  0  0  0  0  0  0  0  0
    9.6077  -15.9679   27.6691 C   0  0  0  0  0  0  0  0  0  0  0  0
   10.1118  -15.4222   28.8289 O   0  0  0  0  0  0  0  0  0  0  0  0
    8.7647  -16.8846   27.7474 O   0  0  0  0  0  0  0  0  0  0  0  0
  2  1  1  1
  2  3  1  0
  4  2  1  0
  5  7  1  0
  5  4  1  0
  5  6  1  6
  7  8  2  0
 10  9  1  6
 11 10  1  0
 12 10  1  0
 13  7  1  0
 12 13  1  6
 14 15  2  0
 14 12  1  0
 16 17  1  0
 18 19  1  0
 18 17  1  0
 20 19  1  6
 20 21  1  0
 21 14  1  0
 22 20  1  0
 22 23  1  0
 24 22  2  0
M  END
$$$$
