LTM.pdb
     RDKit          3D

 24 23  0  0  1  0  0  0  0  0999 V2000
   10.0934  -12.9456   19.1161 C   0  0  0  0  0  0  0  0  0  0  0  0
    8.6935  -13.0528   18.5439 C   0  0  2  0  0  0  0  0  0  0  0  0
    8.0624  -11.6969   18.5618 C   0  0  0  0  0  0  0  0  0  0  0  0
    7.9303  -14.0647   19.3717 C   0  0  0  0  0  0  0  0  0  0  0  0
    8.7541  -15.3333   19.4068 C   0  0  2  0  0  0  0  0  0  0  0  0
    8.4771  -16.0538   18.1829 N   0  0  0  0  0  0  0  0  0  0  0  0
    8.4500  -16.1662   20.5896 C   0  0  0  0  0  0  0  0  0  0  0  0
    7.3735  -16.7734   20.7112 O   0  0  0  0  0  0  0  0  0  0  0  0
    9.5031  -19.3309   21.7941 C   0  0  0  0  0  0  0  0  0  0  0  0
    9.9718  -18.3504   22.8482 C   0  0  1  0  0  0  0  0  0  0  0  0
   11.3485  -18.1459   22.7811 O   0  0  0  0  0  0  0  0  0  0  0  0
    9.1994  -17.0643   22.8243 C   0  0  2  0  0  0  0  0  0  0  0  0
    9.3984  -16.2900   21.6263 N   0  0  0  0  0  0  0  0  0  0  0  0
    9.5443  -16.2975   24.0485 C   0  0  0  0  0  0  0  0  0  0  0  0
   10.5699  -15.5689   24.0674 O   0  0  0  0  0  0  0  0  0  0  0  0
    6.6054  -11.2853   27.0130 C   0  0  0  0  0  0  0  0  0  0  0  0
    6.6308  -13.0248   26.4788 S   0  0  0  0  0  0  0  0  0  0  0  0
    7.6095  -14.0338   27.6205 C   0  0  0  0  0  0  0  0  0  0  0  0
    7.6430  -15.4565   27.0809 C   0  0  0  0  0  0  0  0  0  0  0  0
    9.0151  -15.7299   26.4465 C   0  0  2  0  0  0  0  0  0  0  0  0
    8.7343  -16.3802   25.1823 N   0  0  0  0  0  0  0  0  0  0  0  0
    9.7779  -16.5681   27.3675 C   0  0  0  0  0  0  0  0  0  0  0  0
   10.0262  -17.8913   27.0771 O   0  0  0  0  0  0  0  0  0  0  0  0
   10.2149  -16.0896   28.4339 O   0  0  0  0  0  0  0  0  0  0  0  0
  2  1  1  1
  2  3  1  0
  4  2  1  0
  5  7  1  0
  5  4  1  0
  5  6  1  6
  7  8  2  0
 10  9  1  6
 11 10  1  0
 12 10  1  0
 13  7  1  0
 12 13  1  6
 14 15  2  0
 14 12  1  0
 16 17  1  0
 18 19  1  0
 18 17  1  0
 20 19  1  1
 20 21  1  0
 21 14  1  0
 22 20  1  0
 22 23  1  0
 24 22  2  0
M  END
$$$$
