LTM.pdb
     RDKit          3D

 24 23  0  0  1  0  0  0  0  0999 V2000
    9.8752  -12.7514   19.2410 C   0  0  0  0  0  0  0  0  0  0  0  0
    8.4308  -13.1965   19.1225 C   0  0  2  0  0  0  0  0  0  0  0  0
    7.5494  -11.9901   19.1923 C   0  0  0  0  0  0  0  0  0  0  0  0
    8.1576  -14.1862   20.2350 C   0  0  0  0  0  0  0  0  0  0  0  0
    9.0823  -15.3657   20.0276 C   0  0  2  0  0  0  0  0  0  0  0  0
    8.6404  -16.0466   18.8298 N   0  0  0  0  0  0  0  0  0  0  0  0
    9.0866  -16.2846   21.1856 C   0  0  0  0  0  0  0  0  0  0  0  0
    8.0746  -16.9153   21.5324 O   0  0  0  0  0  0  0  0  0  0  0  0
   10.4875  -19.4821   21.8417 C   0  0  0  0  0  0  0  0  0  0  0  0
   11.1499  -18.5739   22.8559 C   0  0  1  0  0  0  0  0  0  0  0  0
   12.4809  -18.3245   22.5274 O   0  0  0  0  0  0  0  0  0  0  0  0
   10.3728  -17.3131   23.0960 C   0  0  2  0  0  0  0  0  0  0  0  0
   10.2672  -16.4665   21.9357 N   0  0  0  0  0  0  0  0  0  0  0  0
   10.9869  -16.6064   24.2489 C   0  0  0  0  0  0  0  0  0  0  0  0
   11.5372  -15.4875   24.0813 O   0  0  0  0  0  0  0  0  0  0  0  0
    8.9735  -12.0909   27.2992 C   0  0  0  0  0  0  0  0  0  0  0  0
    8.5362  -13.6132   28.1955 S   0  0  0  0  0  0  0  0  0  0  0  0
    9.9181  -14.7835   28.1878 C   0  0  0  0  0  0  0  0  0  0  0  0
    9.8558  -15.5766   26.8904 C   0  0  0  0  0  0  0  0  0  0  0  0
   11.1177  -16.4433   26.7606 C   0  0  2  0  0  0  0  0  0  0  0  0
   10.9567  -17.1780   25.5220 N   0  0  0  0  0  0  0  0  0  0  0  0
   11.1936  -17.3068   27.9359 C   0  0  0  0  0  0  0  0  0  0  0  0
   11.9224  -16.9307   29.0424 O   0  0  0  0  0  0  0  0  0  0  0  0
   10.5945  -18.4013   27.9484 O   0  0  0  0  0  0  0  0  0  0  0  0
  2  1  1  1
  2  3  1  0
  4  2  1  0
  5  7  1  0
  5  4  1  0
  5  6  1  6
  7  8  2  0
 10  9  1  6
 11 10  1  0
 12 10  1  0
 13  7  1  0
 12 13  1  6
 14 15  2  0
 14 12  1  0
 16 17  1  0
 18 19  1  0
 18 17  1  0
 20 19  1  1
 20 21  1  0
 21 14  1  0
 22 20  1  0
 22 23  1  0
 24 22  2  0
M  END
$$$$
