LTM.pdb
     RDKit          3D

 24 23  0  0  1  0  0  0  0  0999 V2000
    9.8166  -13.1920   18.9168 C   0  0  0  0  0  0  0  0  0  0  0  0
    8.4158  -13.4095   18.3794 C   0  0  2  0  0  0  0  0  0  0  0  0
    7.7250  -12.0859   18.2900 C   0  0  0  0  0  0  0  0  0  0  0  0
    7.7092  -14.3774   19.3044 C   0  0  0  0  0  0  0  0  0  0  0  0
    8.5742  -15.6142   19.4105 C   0  0  2  0  0  0  0  0  0  0  0  0
    8.1780  -16.5030   18.3397 N   0  0  0  0  0  0  0  0  0  0  0  0
    8.4421  -16.2792   20.7241 C   0  0  0  0  0  0  0  0  0  0  0  0
    7.3358  -16.5407   21.2242 O   0  0  0  0  0  0  0  0  0  0  0  0
   10.3754  -19.4875   22.0694 C   0  0  0  0  0  0  0  0  0  0  0  0
   10.6049  -18.2930   22.9708 C   0  0  1  0  0  0  0  0  0  0  0  0
   11.9098  -17.8155   22.8654 O   0  0  0  0  0  0  0  0  0  0  0  0
    9.5817  -17.2140   22.7709 C   0  0  2  0  0  0  0  0  0  0  0  0
    9.5965  -16.6374   21.4512 N   0  0  0  0  0  0  0  0  0  0  0  0
    9.7789  -16.1911   23.8295 C   0  0  0  0  0  0  0  0  0  0  0  0
   10.6496  -15.2945   23.6847 O   0  0  0  0  0  0  0  0  0  0  0  0
    6.4577  -11.0301   28.2132 C   0  0  0  0  0  0  0  0  0  0  0  0
    6.3447  -12.4425   27.0711 S   0  0  0  0  0  0  0  0  0  0  0  0
    7.7533  -13.5596   27.2887 C   0  0  0  0  0  0  0  0  0  0  0  0
    7.7572  -14.5436   26.1276 C   0  0  0  0  0  0  0  0  0  0  0  0
    9.1102  -15.2696   26.0781 C   0  0  2  0  0  0  0  0  0  0  0  0
    9.0007  -16.2181   24.9880 N   0  0  0  0  0  0  0  0  0  0  0  0
    9.3273  -15.9059   27.3745 C   0  0  0  0  0  0  0  0  0  0  0  0
    9.2484  -17.2742   27.5114 O   0  0  0  0  0  0  0  0  0  0  0  0
    9.5881  -15.2108   28.3774 O   0  0  0  0  0  0  0  0  0  0  0  0
  2  1  1  1
  2  3  1  0
  4  2  1  0
  5  7  1  0
  5  4  1  0
  5  6  1  6
  7  8  2  0
 10  9  1  6
 11 10  1  0
 12 10  1  0
 13  7  1  0
 12 13  1  6
 14 15  2  0
 14 12  1  0
 16 17  1  0
 18 19  1  0
 18 17  1  0
 20 19  1  1
 20 21  1  0
 21 14  1  0
 22 20  1  0
 22 23  1  0
 24 22  2  0
M  END
$$$$
