LTM.pdb
     RDKit          3D

 24 23  0  0  1  0  0  0  0  0999 V2000
    9.9464  -13.2441   19.6933 C   0  0  0  0  0  0  0  0  0  0  0  0
    8.7684  -13.2838   18.7399 C   0  0  2  0  0  0  0  0  0  0  0  0
    7.9540  -12.0439   18.9312 C   0  0  0  0  0  0  0  0  0  0  0  0
    7.9851  -14.5480   19.0228 C   0  0  0  0  0  0  0  0  0  0  0  0
    8.9623  -15.7026   18.9865 C   0  0  2  0  0  0  0  0  0  0  0  0
    8.6090  -16.5226   17.8480 N   0  0  0  0  0  0  0  0  0  0  0  0
    8.9400  -16.4948   20.2344 C   0  0  0  0  0  0  0  0  0  0  0  0
    7.9070  -17.0454   20.6492 O   0  0  0  0  0  0  0  0  0  0  0  0
   10.2920  -19.6629   20.9931 C   0  0  0  0  0  0  0  0  0  0  0  0
   10.9802  -18.7345   21.9712 C   0  0  1  0  0  0  0  0  0  0  0  0
   12.3111  -18.5169   21.6205 O   0  0  0  0  0  0  0  0  0  0  0  0
   10.2259  -17.4545   22.1805 C   0  0  2  0  0  0  0  0  0  0  0  0
   10.1184  -16.6437   20.9951 N   0  0  0  0  0  0  0  0  0  0  0  0
   10.8658  -16.7214   23.3024 C   0  0  0  0  0  0  0  0  0  0  0  0
   11.7264  -15.8346   23.0659 O   0  0  0  0  0  0  0  0  0  0  0  0
    9.9388  -12.9034   29.8099 C   0  0  0  0  0  0  0  0  0  0  0  0
    9.2798  -13.9741   28.4942 S   0  0  0  0  0  0  0  0  0  0  0  0
   10.6072  -14.9308   27.7184 C   0  0  0  0  0  0  0  0  0  0  0  0
   10.0361  -15.6127   26.4835 C   0  0  0  0  0  0  0  0  0  0  0  0
   11.1420  -16.4226   25.7898 C   0  0  2  0  0  0  0  0  0  0  0  0
   10.5165  -17.0109   24.6225 N   0  0  0  0  0  0  0  0  0  0  0  0
   11.6359  -17.4157   26.7397 C   0  0  0  0  0  0  0  0  0  0  0  0
   12.6383  -17.1028   27.6309 O   0  0  0  0  0  0  0  0  0  0  0  0
   11.1508  -18.5652   26.7527 O   0  0  0  0  0  0  0  0  0  0  0  0
  2  1  1  1
  2  3  1  0
  4  2  1  0
  5  7  1  0
  5  4  1  0
  5  6  1  6
  7  8  2  0
 10  9  1  6
 11 10  1  0
 12 10  1  0
 13  7  1  0
 12 13  1  6
 14 15  2  0
 14 12  1  0
 16 17  1  0
 18 19  1  0
 18 17  1  0
 20 19  1  1
 20 21  1  0
 21 14  1  0
 22 20  1  0
 22 23  1  0
 24 22  2  0
M  END
$$$$
