LTM.pdb
     RDKit          3D

 24 23  0  0  1  0  0  0  0  0999 V2000
    9.5533  -13.0748   20.0121 C   0  0  0  0  0  0  0  0  0  0  0  0
    8.5457  -13.1897   18.8851 C   0  0  2  0  0  0  0  0  0  0  0  0
    7.7962  -11.8998   18.7779 C   0  0  0  0  0  0  0  0  0  0  0  0
    7.6439  -14.3673   19.1875 C   0  0  0  0  0  0  0  0  0  0  0  0
    8.5339  -15.5407   19.5345 C   0  0  2  0  0  0  0  0  0  0  0  0
    8.4819  -16.4585   18.4172 N   0  0  0  0  0  0  0  0  0  0  0  0
    8.1176  -16.2088   20.7858 C   0  0  0  0  0  0  0  0  0  0  0  0
    7.1837  -17.0267   20.8191 O   0  0  0  0  0  0  0  0  0  0  0  0
    7.8127  -18.7750   22.2275 C   0  0  0  0  0  0  0  0  0  0  0  0
    8.7663  -18.0828   23.1780 C   0  0  1  0  0  0  0  0  0  0  0  0
   10.0922  -18.4111   22.9022 O   0  0  0  0  0  0  0  0  0  0  0  0
    8.5440  -16.6003   23.2407 C   0  0  2  0  0  0  0  0  0  0  0  0
    8.7885  -15.9234   21.9932 N   0  0  0  0  0  0  0  0  0  0  0  0
    9.3766  -16.0564   24.3438 C   0  0  0  0  0  0  0  0  0  0  0  0
   10.6027  -15.8418   24.1606 O   0  0  0  0  0  0  0  0  0  0  0  0
    6.5354  -10.9987   25.9160 C   0  0  0  0  0  0  0  0  0  0  0  0
    6.7380  -12.7448   26.3871 S   0  0  0  0  0  0  0  0  0  0  0  0
    8.3700  -13.0281   27.1189 C   0  0  0  0  0  0  0  0  0  0  0  0
    8.4466  -14.4863   27.5481 C   0  0  0  0  0  0  0  0  0  0  0  0
    9.5149  -15.2089   26.7134 C   0  0  2  0  0  0  0  0  0  0  0  0
    8.8048  -15.7803   25.5869 N   0  0  0  0  0  0  0  0  0  0  0  0
   10.1474  -16.2134   27.5640 C   0  0  0  0  0  0  0  0  0  0  0  0
   11.0717  -15.8498   28.5183 O   0  0  0  0  0  0  0  0  0  0  0  0
    9.8543  -17.4191   27.4331 O   0  0  0  0  0  0  0  0  0  0  0  0
  2  1  1  1
  2  3  1  0
  4  2  1  0
  5  7  1  0
  5  4  1  0
  5  6  1  6
  7  8  2  0
 10  9  1  6
 11 10  1  0
 12 10  1  0
 13  7  1  0
 12 13  1  6
 14 15  2  0
 14 12  1  0
 16 17  1  0
 18 19  1  0
 18 17  1  0
 20 19  1  1
 20 21  1  0
 21 14  1  0
 22 20  1  0
 22 23  1  0
 24 22  2  0
M  END
$$$$
