LTM.pdb
     RDKit          3D

 24 23  0  0  1  0  0  0  0  0999 V2000
    9.8464  -13.3951   18.7897 C   0  0  0  0  0  0  0  0  0  0  0  0
    8.3311  -13.4393   18.8041 C   0  0  2  0  0  0  0  0  0  0  0  0
    7.8088  -12.0423   18.6906 C   0  0  0  0  0  0  0  0  0  0  0  0
    7.8991  -14.1236   20.0834 C   0  0  0  0  0  0  0  0  0  0  0  0
    8.5741  -15.4772   20.1220 C   0  0  2  0  0  0  0  0  0  0  0  0
    7.8534  -16.3376   19.2088 N   0  0  0  0  0  0  0  0  0  0  0  0
    8.5965  -16.0535   21.4831 C   0  0  0  0  0  0  0  0  0  0  0  0
    7.5616  -16.4249   22.0606 O   0  0  0  0  0  0  0  0  0  0  0  0
   11.0736  -18.6929   24.7468 C   0  0  0  0  0  0  0  0  0  0  0  0
   11.0072  -17.9458   23.4316 C   0  0  1  0  0  0  0  0  0  0  0  0
   10.8574  -18.8175   22.3548 O   0  0  0  0  0  0  0  0  0  0  0  0
    9.9734  -16.8584   23.4371 C   0  0  2  0  0  0  0  0  0  0  0  0
    9.8216  -16.1956   22.1675 N   0  0  0  0  0  0  0  0  0  0  0  0
   10.3115  -15.9075   24.5266 C   0  0  0  0  0  0  0  0  0  0  0  0
   11.2216  -15.0552   24.3590 O   0  0  0  0  0  0  0  0  0  0  0  0
    5.8207  -11.5929   26.4189 C   0  0  0  0  0  0  0  0  0  0  0  0
    6.4709  -13.0463   27.3003 S   0  0  0  0  0  0  0  0  0  0  0  0
    8.0911  -13.5229   26.6468 C   0  0  0  0  0  0  0  0  0  0  0  0
    8.6096  -14.6878   27.4779 C   0  0  0  0  0  0  0  0  0  0  0  0
    9.9548  -15.1629   26.9080 C   0  0  2  0  0  0  0  0  0  0  0  0
    9.6227  -15.9535   25.7399 N   0  0  0  0  0  0  0  0  0  0  0  0
   10.6379  -15.9297   27.9462 C   0  0  0  0  0  0  0  0  0  0  0  0
   11.3792  -15.2965   28.9192 O   0  0  0  0  0  0  0  0  0  0  0  0
   10.5557  -17.1747   27.9615 O   0  0  0  0  0  0  0  0  0  0  0  0
  2  1  1  1
  2  3  1  0
  4  2  1  0
  5  7  1  0
  5  4  1  0
  5  6  1  6
  7  8  2  0
 10  9  1  1
 11 10  1  0
 12 10  1  0
 13  7  1  0
 12 13  1  6
 14 15  2  0
 14 12  1  0
 16 17  1  0
 18 19  1  0
 18 17  1  0
 20 19  1  1
 20 21  1  0
 21 14  1  0
 22 20  1  0
 22 23  1  0
 24 22  2  0
M  END
$$$$
