LTM.pdb
     RDKit          3D

 24 23  0  0  1  0  0  0  0  0999 V2000
   10.0343  -13.1464   19.3690 C   0  0  0  0  0  0  0  0  0  0  0  0
    8.8542  -13.0488   18.4223 C   0  0  2  0  0  0  0  0  0  0  0  0
    8.1909  -11.7225   18.6169 C   0  0  0  0  0  0  0  0  0  0  0  0
    7.9306  -14.2131   18.7106 C   0  0  0  0  0  0  0  0  0  0  0  0
    8.7929  -15.4471   18.8619 C   0  0  2  0  0  0  0  0  0  0  0  0
    8.5651  -16.2704   17.6940 N   0  0  0  0  0  0  0  0  0  0  0  0
    8.4897  -16.1940   20.1011 C   0  0  0  0  0  0  0  0  0  0  0  0
    7.3950  -16.7503   20.2862 O   0  0  0  0  0  0  0  0  0  0  0  0
    9.7834  -19.2977   21.5668 C   0  0  0  0  0  0  0  0  0  0  0  0
   10.1337  -18.1897   22.5373 C   0  0  1  0  0  0  0  0  0  0  0  0
   11.4914  -17.8796   22.4917 O   0  0  0  0  0  0  0  0  0  0  0  0
    9.2632  -16.9791   22.3698 C   0  0  2  0  0  0  0  0  0  0  0  0
    9.4602  -16.2911   21.1200 N   0  0  0  0  0  0  0  0  0  0  0  0
    9.4832  -16.0890   23.5381 C   0  0  0  0  0  0  0  0  0  0  0  0
   10.3907  -15.2182   23.5045 O   0  0  0  0  0  0  0  0  0  0  0  0
    6.4945  -11.2400   26.5238 C   0  0  0  0  0  0  0  0  0  0  0  0
    5.9886  -12.8325   27.2450 S   0  0  0  0  0  0  0  0  0  0  0  0
    7.3987  -13.9628   27.3607 C   0  0  0  0  0  0  0  0  0  0  0  0
    7.3790  -14.8665   26.1362 C   0  0  0  0  0  0  0  0  0  0  0  0
    8.7997  -15.3811   25.8585 C   0  0  2  0  0  0  0  0  0  0  0  0
    8.6859  -16.2127   24.6772 N   0  0  0  0  0  0  0  0  0  0  0  0
    9.2509  -16.1154   27.0374 C   0  0  0  0  0  0  0  0  0  0  0  0
    9.7379  -15.4495   28.1403 O   0  0  0  0  0  0  0  0  0  0  0  0
    9.1990  -17.3620   27.0565 O   0  0  0  0  0  0  0  0  0  0  0  0
  2  1  1  1
  2  3  1  0
  4  2  1  0
  5  7  1  0
  5  4  1  0
  5  6  1  6
  7  8  2  0
 10  9  1  6
 11 10  1  0
 12 10  1  0
 13  7  1  0
 12 13  1  6
 14 15  2  0
 14 12  1  0
 16 17  1  0
 18 19  1  0
 18 17  1  0
 20 19  1  1
 20 21  1  0
 21 14  1  0
 22 20  1  0
 22 23  1  0
 24 22  2  0
M  END
$$$$
