LTM.pdb
     RDKit          3D

 24 23  0  0  1  0  0  0  0  0999 V2000
    9.1727  -12.9835   20.2246 C   0  0  0  0  0  0  0  0  0  0  0  0
    8.1361  -13.1743   19.1349 C   0  0  2  0  0  0  0  0  0  0  0  0
    7.2135  -11.9970   19.1386 C   0  0  0  0  0  0  0  0  0  0  0  0
    7.4189  -14.4807   19.4005 C   0  0  0  0  0  0  0  0  0  0  0  0
    8.4757  -15.5510   19.5647 C   0  0  2  0  0  0  0  0  0  0  0  0
    8.3544  -16.4451   18.4336 N   0  0  0  0  0  0  0  0  0  0  0  0
    8.3330  -16.2886   20.8378 C   0  0  0  0  0  0  0  0  0  0  0  0
    7.5395  -17.2350   20.9678 O   0  0  0  0  0  0  0  0  0  0  0  0
    8.6970  -18.8628   22.1703 C   0  0  0  0  0  0  0  0  0  0  0  0
    9.5536  -18.0494   23.1172 C   0  0  1  0  0  0  0  0  0  0  0  0
   10.9079  -18.1652   22.8101 O   0  0  0  0  0  0  0  0  0  0  0  0
    9.1083  -16.6199   23.2150 C   0  0  2  0  0  0  0  0  0  0  0  0
    9.1131  -15.9230   21.9547 N   0  0  0  0  0  0  0  0  0  0  0  0
    9.9541  -15.9429   24.2308 C   0  0  0  0  0  0  0  0  0  0  0  0
   10.6541  -14.9491   23.9064 O   0  0  0  0  0  0  0  0  0  0  0  0
    7.1824  -11.6528   26.2113 C   0  0  0  0  0  0  0  0  0  0  0  0
    8.5609  -12.2194   27.2557 S   0  0  0  0  0  0  0  0  0  0  0  0
    8.3039  -13.9315   27.7865 C   0  0  0  0  0  0  0  0  0  0  0  0
    8.5200  -14.8353   26.5811 C   0  0  0  0  0  0  0  0  0  0  0  0
    9.8682  -15.5585   26.7203 C   0  0  2  0  0  0  0  0  0  0  0  0
    9.9767  -16.4037   25.5482 N   0  0  0  0  0  0  0  0  0  0  0  0
    9.8485  -16.3106   27.9719 C   0  0  0  0  0  0  0  0  0  0  0  0
    9.3793  -17.6049   28.0105 O   0  0  0  0  0  0  0  0  0  0  0  0
   10.2595  -15.7836   29.0256 O   0  0  0  0  0  0  0  0  0  0  0  0
  2  1  1  1
  2  3  1  0
  4  2  1  0
  5  7  1  0
  5  4  1  0
  5  6  1  6
  7  8  2  0
 10  9  1  6
 11 10  1  0
 12 10  1  0
 13  7  1  0
 12 13  1  6
 14 15  2  0
 14 12  1  0
 16 17  1  0
 18 19  1  0
 18 17  1  0
 20 19  1  6
 20 21  1  0
 21 14  1  0
 22 20  1  0
 22 23  1  0
 24 22  2  0
M  END
$$$$
