LTM.pdb
     RDKit          3D

 24 23  0  0  1  0  0  0  0  0999 V2000
    9.8281  -12.8695   19.1867 C   0  0  0  0  0  0  0  0  0  0  0  0
    8.4688  -13.1129   18.5611 C   0  0  2  0  0  0  0  0  0  0  0  0
    7.6713  -11.8499   18.6392 C   0  0  0  0  0  0  0  0  0  0  0  0
    7.8175  -14.2629   19.2993 C   0  0  0  0  0  0  0  0  0  0  0  0
    8.8139  -15.4011   19.3317 C   0  0  2  0  0  0  0  0  0  0  0  0
    8.5802  -16.2041   18.1510 N   0  0  0  0  0  0  0  0  0  0  0  0
    8.6917  -16.2179   20.5578 C   0  0  0  0  0  0  0  0  0  0  0  0
    7.6303  -16.7791   20.8749 O   0  0  0  0  0  0  0  0  0  0  0  0
   10.6275  -19.2707   21.7330 C   0  0  0  0  0  0  0  0  0  0  0  0
   10.8207  -18.1728   22.7575 C   0  0  1  0  0  0  0  0  0  0  0  0
   12.1162  -17.6608   22.7210 O   0  0  0  0  0  0  0  0  0  0  0  0
    9.7771  -17.0994   22.6570 C   0  0  2  0  0  0  0  0  0  0  0  0
    9.8039  -16.3788   21.4103 N   0  0  0  0  0  0  0  0  0  0  0  0
    9.9306  -16.1974   23.8268 C   0  0  0  0  0  0  0  0  0  0  0  0
   10.6734  -15.1850   23.7484 O   0  0  0  0  0  0  0  0  0  0  0  0
    6.0222  -12.0050   27.1525 C   0  0  0  0  0  0  0  0  0  0  0  0
    7.7901  -12.4031   27.3203 S   0  0  0  0  0  0  0  0  0  0  0  0
    8.0218  -14.1632   27.6776 C   0  0  0  0  0  0  0  0  0  0  0  0
    8.0495  -14.9125   26.3532 C   0  0  0  0  0  0  0  0  0  0  0  0
    9.3725  -15.6837   26.2304 C   0  0  2  0  0  0  0  0  0  0  0  0
    9.2527  -16.4668   25.0170 N   0  0  0  0  0  0  0  0  0  0  0  0
    9.5295  -16.5020   27.4298 C   0  0  0  0  0  0  0  0  0  0  0  0
   10.0043  -15.9543   28.6009 O   0  0  0  0  0  0  0  0  0  0  0  0
    9.2329  -17.7137   27.4043 O   0  0  0  0  0  0  0  0  0  0  0  0
  2  1  1  1
  2  3  1  0
  4  2  1  0
  5  7  1  0
  5  4  1  0
  5  6  1  6
  7  8  2  0
 10  9  1  6
 11 10  1  0
 12 10  1  0
 13  7  1  0
 12 13  1  6
 14 15  2  0
 14 12  1  0
 16 17  1  0
 18 19  1  0
 18 17  1  0
 20 19  1  1
 20 21  1  0
 21 14  1  0
 22 20  1  0
 22 23  1  0
 24 22  2  0
M  END
$$$$
