SCM.pdb
     RDKit          3D

 21 20  0  0  1  0  0  0  0  0999 V2000
    6.7279  -18.4821   24.2996 O   0  0  0  0  0  0  0  0  0  0  0  0
    5.4979  -18.2993   23.6487 C   0  0  0  0  0  0  0  0  0  0  0  0
    5.6788  -18.3564   22.1445 C   0  0  2  0  0  0  0  0  0  0  0  0
    6.0114  -19.7335   21.8276 N   0  0  0  0  0  0  0  0  0  0  0  0
    6.7584  -17.4616   21.6879 C   0  0  0  0  0  0  0  0  0  0  0  0
    7.9536  -17.8747   21.4972 O   0  0  0  0  0  0  0  0  0  0  0  0
    6.5419  -16.0820   21.4296 N   0  0  0  0  0  0  0  0  0  0  0  0
    7.6044  -15.1600   21.1161 C   0  0  1  0  0  0  0  0  0  0  0  0
    6.9453  -13.8669   20.6778 C   0  0  0  0  0  0  0  0  0  0  0  0
    8.1630  -12.6861   20.0553 S   0  0  0  0  0  0  0  0  0  0  0  0
    8.4691  -14.8744   22.2851 C   0  0  0  0  0  0  0  0  0  0  0  0
    9.5283  -14.1902   22.0711 O   0  0  0  0  0  0  0  0  0  0  0  0
    5.3509  -11.5376   26.4211 C   0  0  0  0  0  0  0  0  0  0  0  0
    6.6989  -12.5293   27.0895 S   0  0  0  0  0  0  0  0  0  0  0  0
    7.7438  -13.0686   25.6923 C   0  0  0  0  0  0  0  0  0  0  0  0
    8.1733  -14.4950   25.8557 C   0  0  0  0  0  0  0  0  0  0  0  0
    8.9840  -14.9287   24.6869 C   0  0  2  0  0  0  0  0  0  0  0  0
    8.1307  -15.3413   23.5738 N   0  0  0  0  0  0  0  0  0  0  0  0
    9.8370  -16.0956   24.9795 C   0  0  0  0  0  0  0  0  0  0  0  0
   10.9907  -15.9980   25.7271 O   0  0  0  0  0  0  0  0  0  0  0  0
    9.5073  -17.2434   24.5263 O   0  0  0  0  0  0  0  0  0  0  0  0
  2  1  1  0
  3  2  1  0
  3  4  1  1
  5  6  2  0
  5  3  1  0
  7  5  1  0
  8 11  1  0
  8  7  1  0
  8  9  1  1
 10  9  1  0
 11 12  2  0
 13 14  1  0
 15 14  1  0
 16 15  1  0
 17 16  1  1
 18 17  1  0
 18 11  1  0
 19 17  1  0
 20 19  1  0
 21 19  2  0
M  END
$$$$
