SCM.pdb
     RDKit          3D

 21 20  0  0  1  0  0  0  0  0999 V2000
    6.9334  -17.1195   22.4028 O   0  0  0  0  0  0  0  0  0  0  0  0
    7.6555  -16.6488   21.2952 C   0  0  0  0  0  0  0  0  0  0  0  0
    7.6892  -15.1331   21.2877 C   0  0  2  0  0  0  0  0  0  0  0  0
    8.6136  -14.7527   20.2348 N   0  0  0  0  0  0  0  0  0  0  0  0
    8.1480  -14.5886   22.5790 C   0  0  0  0  0  0  0  0  0  0  0  0
    9.3860  -14.5272   22.8937 O   0  0  0  0  0  0  0  0  0  0  0  0
    7.2450  -14.0962   23.5585 N   0  0  0  0  0  0  0  0  0  0  0  0
    7.6638  -13.6278   24.8556 C   0  0  1  0  0  0  0  0  0  0  0  0
    6.4476  -12.9981   25.5059 C   0  0  0  0  0  0  0  0  0  0  0  0
    6.8107  -12.4524   27.1896 S   0  0  0  0  0  0  0  0  0  0  0  0
    8.1463  -14.7263   25.7252 C   0  0  0  0  0  0  0  0  0  0  0  0
    7.5157  -15.8372   25.6620 O   0  0  0  0  0  0  0  0  0  0  0  0
   12.3709  -18.4710   24.4952 C   0  0  0  0  0  0  0  0  0  0  0  0
   12.9528  -18.1509   26.1703 S   0  0  0  0  0  0  0  0  0  0  0  0
   11.5579  -17.4602   27.1255 C   0  0  0  0  0  0  0  0  0  0  0  0
   10.9809  -16.2547   26.4475 C   0  0  0  0  0  0  0  0  0  0  0  0
    9.8186  -15.7352   27.2159 C   0  0  2  0  0  0  0  0  0  0  0  0
    9.2534  -14.5451   26.5823 N   0  0  0  0  0  0  0  0  0  0  0  0
   10.1740  -15.3183   28.5851 C   0  0  0  0  0  0  0  0  0  0  0  0
   10.5098  -16.2231   29.5689 O   0  0  0  0  0  0  0  0  0  0  0  0
   10.1708  -14.0763   28.8836 O   0  0  0  0  0  0  0  0  0  0  0  0
  2  1  1  0
  3  2  1  0
  3  4  1  6
  5  6  2  0
  5  3  1  0
  7  5  1  0
  8 11  1  0
  8  7  1  0
  8  9  1  1
 10  9  1  0
 11 12  2  0
 13 14  1  0
 15 14  1  0
 16 15  1  0
 17 16  1  6
 18 17  1  0
 18 11  1  0
 19 17  1  0
 20 19  1  0
 21 19  2  0
M  END
$$$$
