SCM.pdb
     RDKit          3D

 21 20  0  0  1  0  0  0  0  0999 V2000
    5.9621  -19.5173   24.3583 O   0  0  0  0  0  0  0  0  0  0  0  0
    5.7267  -18.5483   23.3705 C   0  0  0  0  0  0  0  0  0  0  0  0
    6.6099  -18.7946   22.1631 C   0  0  2  0  0  0  0  0  0  0  0  0
    6.4214  -20.1874   21.7994 N   0  0  0  0  0  0  0  0  0  0  0  0
    8.0314  -18.5424   22.4632 C   0  0  0  0  0  0  0  0  0  0  0  0
    8.8397  -19.4809   22.7816 O   0  0  0  0  0  0  0  0  0  0  0  0
    8.5968  -17.2403   22.4182 N   0  0  0  0  0  0  0  0  0  0  0  0
    9.8834  -16.9171   22.9816 C   0  0  1  0  0  0  0  0  0  0  0  0
   10.7506  -16.4287   21.8378 C   0  0  0  0  0  0  0  0  0  0  0  0
   12.3950  -15.9532   22.4159 S   0  0  0  0  0  0  0  0  0  0  0  0
    9.8016  -15.8445   24.0009 C   0  0  0  0  0  0  0  0  0  0  0  0
    9.4093  -14.6939   23.6034 O   0  0  0  0  0  0  0  0  0  0  0  0
    6.7222  -11.6588   25.8070 C   0  0  0  0  0  0  0  0  0  0  0  0
    6.9013  -12.5777   27.3467 S   0  0  0  0  0  0  0  0  0  0  0  0
    8.5607  -13.3401   27.3543 C   0  0  0  0  0  0  0  0  0  0  0  0
    8.6554  -14.4425   26.3437 C   0  0  0  0  0  0  0  0  0  0  0  0
   10.0429  -14.9742   26.2858 C   0  0  2  0  0  0  0  0  0  0  0  0
   10.1439  -16.0913   25.3481 N   0  0  0  0  0  0  0  0  0  0  0  0
   10.5098  -15.5060   27.5797 C   0  0  0  0  0  0  0  0  0  0  0  0
   10.8459  -14.6877   28.6364 O   0  0  0  0  0  0  0  0  0  0  0  0
   10.6139  -16.7692   27.7383 O   0  0  0  0  0  0  0  0  0  0  0  0
  2  1  1  0
  3  2  1  0
  3  4  1  1
  5  6  2  0
  5  3  1  0
  7  5  1  0
  8 11  1  0
  8  7  1  0
  8  9  1  6
 10  9  1  0
 11 12  2  0
 13 14  1  0
 15 14  1  0
 16 15  1  0
 17 16  1  1
 18 17  1  0
 18 11  1  0
 19 17  1  0
 20 19  1  0
 21 19  2  0
M  END
$$$$
