SCM.pdb
     RDKit          3D

 21 20  0  0  1  0  0  0  0  0999 V2000
   11.8787  -14.3286   19.1911 O   0  0  0  0  0  0  0  0  0  0  0  0
   11.6572  -15.6889   19.4565 C   0  0  0  0  0  0  0  0  0  0  0  0
   10.2541  -16.0892   19.0446 C   0  0  2  0  0  0  0  0  0  0  0  0
    9.9495  -15.3272   17.8471 N   0  0  0  0  0  0  0  0  0  0  0  0
    9.2665  -15.7861   20.0969 C   0  0  0  0  0  0  0  0  0  0  0  0
    8.3537  -14.9035   19.9437 O   0  0  0  0  0  0  0  0  0  0  0  0
    9.2637  -16.4545   21.3500 N   0  0  0  0  0  0  0  0  0  0  0  0
    8.3029  -16.1823   22.3893 C   0  0  1  0  0  0  0  0  0  0  0  0
    7.4486  -17.4268   22.5310 C   0  0  0  0  0  0  0  0  0  0  0  0
    8.4631  -18.8886   22.8448 S   0  0  0  0  0  0  0  0  0  0  0  0
    8.9457  -15.9019   23.6947 C   0  0  0  0  0  0  0  0  0  0  0  0
   10.1997  -16.1354   23.7871 O   0  0  0  0  0  0  0  0  0  0  0  0
    5.5957  -11.7322   26.5265 C   0  0  0  0  0  0  0  0  0  0  0  0
    6.9834  -12.2273   25.4890 S   0  0  0  0  0  0  0  0  0  0  0  0
    8.3156  -12.8275   26.5844 C   0  0  0  0  0  0  0  0  0  0  0  0
    8.1183  -14.2706   26.9373 C   0  0  0  0  0  0  0  0  0  0  0  0
    8.9145  -15.1390   26.0301 C   0  0  2  0  0  0  0  0  0  0  0  0
    8.1986  -15.3997   24.7824 N   0  0  0  0  0  0  0  0  0  0  0  0
    9.1952  -16.4677   26.6051 C   0  0  0  0  0  0  0  0  0  0  0  0
   10.1198  -16.6573   27.6094 O   0  0  0  0  0  0  0  0  0  0  0  0
    8.5676  -17.4884   26.1625 O   0  0  0  0  0  0  0  0  0  0  0  0
  2  1  1  0
  3  2  1  0
  3  4  1  6
  5  6  2  0
  5  3  1  0
  7  5  1  0
  8 11  1  0
  8  7  1  0
  8  9  1  1
 10  9  1  0
 11 12  2  0
 13 14  1  0
 15 14  1  0
 16 15  1  0
 17 16  1  1
 18 17  1  0
 18 11  1  0
 19 17  1  0
 20 19  1  0
 21 19  2  0
M  END
$$$$
