SCM.pdb
     RDKit          3D

 21 20  0  0  1  0  0  0  0  0999 V2000
   10.1874  -12.5788   19.5942 O   0  0  0  0  0  0  0  0  0  0  0  0
   10.0767  -13.4041   18.4642 C   0  0  0  0  0  0  0  0  0  0  0  0
    8.6992  -14.0341   18.3991 C   0  0  2  0  0  0  0  0  0  0  0  0
    7.7675  -12.9485   18.1523 N   0  0  0  0  0  0  0  0  0  0  0  0
    8.3496  -14.7191   19.6573 C   0  0  0  0  0  0  0  0  0  0  0  0
    7.4975  -14.2404   20.4820 O   0  0  0  0  0  0  0  0  0  0  0  0
    8.9363  -15.9558   20.0361 N   0  0  0  0  0  0  0  0  0  0  0  0
    8.6066  -16.6460   21.2576 C   0  0  1  0  0  0  0  0  0  0  0  0
    9.3816  -17.9491   21.2456 C   0  0  0  0  0  0  0  0  0  0  0  0
    9.1284  -18.8789   22.7739 S   0  0  0  0  0  0  0  0  0  0  0  0
    8.9958  -15.8786   22.4640 C   0  0  0  0  0  0  0  0  0  0  0  0
   10.0881  -15.2161   22.4040 O   0  0  0  0  0  0  0  0  0  0  0  0
    6.4054  -11.0405   27.8261 C   0  0  0  0  0  0  0  0  0  0  0  0
    5.9826  -12.1824   26.4978 S   0  0  0  0  0  0  0  0  0  0  0  0
    7.4888  -13.1193   26.0638 C   0  0  0  0  0  0  0  0  0  0  0  0
    7.2204  -14.0957   24.9591 C   0  0  0  0  0  0  0  0  0  0  0  0
    8.4531  -14.8611   24.6336 C   0  0  2  0  0  0  0  0  0  0  0  0
    8.1902  -15.8848   23.6235 N   0  0  0  0  0  0  0  0  0  0  0  0
    9.0023  -15.5877   25.7934 C   0  0  0  0  0  0  0  0  0  0  0  0
    9.1497  -16.9579   25.8040 O   0  0  0  0  0  0  0  0  0  0  0  0
    9.3546  -14.9351   26.8334 O   0  0  0  0  0  0  0  0  0  0  0  0
  2  1  1  0
  3  2  1  0
  3  4  1  1
  5  6  2  0
  5  3  1  0
  7  5  1  0
  8 11  1  0
  8  7  1  0
  8  9  1  6
 10  9  1  0
 11 12  2  0
 13 14  1  0
 15 14  1  0
 16 15  1  0
 17 16  1  1
 18 17  1  0
 18 11  1  0
 19 17  1  0
 20 19  1  0
 21 19  2  0
M  END
$$$$
