SCM.pdb
     RDKit          3D

 21 20  0  0  1  0  0  0  0  0999 V2000
   11.6491  -17.7042   20.7281 O   0  0  0  0  0  0  0  0  0  0  0  0
   11.0141  -17.3291   19.5339 C   0  0  0  0  0  0  0  0  0  0  0  0
    9.6559  -17.9935   19.4227 C   0  0  2  0  0  0  0  0  0  0  0  0
    9.0806  -17.5347   18.1712 N   0  0  0  0  0  0  0  0  0  0  0  0
    8.7726  -17.6267   20.5452 C   0  0  0  0  0  0  0  0  0  0  0  0
    8.0808  -16.5512   20.5471 O   0  0  0  0  0  0  0  0  0  0  0  0
    8.6320  -18.4440   21.6982 N   0  0  0  0  0  0  0  0  0  0  0  0
    7.7726  -18.1081   22.8053 C   0  0  1  0  0  0  0  0  0  0  0  0
    7.5069  -19.3968   23.5585 C   0  0  0  0  0  0  0  0  0  0  0  0
    6.5018  -19.1029   25.0308 S   0  0  0  0  0  0  0  0  0  0  0  0
    8.4004  -17.1405   23.7358 C   0  0  0  0  0  0  0  0  0  0  0  0
    9.6660  -17.2281   23.8983 O   0  0  0  0  0  0  0  0  0  0  0  0
    6.0028  -11.4780   25.6879 C   0  0  0  0  0  0  0  0  0  0  0  0
    7.1777  -11.7230   27.0320 S   0  0  0  0  0  0  0  0  0  0  0  0
    8.1787  -13.1990   26.6391 C   0  0  0  0  0  0  0  0  0  0  0  0
    7.4586  -14.1042   25.6862 C   0  0  0  0  0  0  0  0  0  0  0  0
    8.3298  -15.2449   25.2973 C   0  0  2  0  0  0  0  0  0  0  0  0
    7.6276  -16.1692   24.4085 N   0  0  0  0  0  0  0  0  0  0  0  0
    8.7592  -16.0598   26.4490 C   0  0  0  0  0  0  0  0  0  0  0  0
    9.8915  -15.7683   27.1786 O   0  0  0  0  0  0  0  0  0  0  0  0
    8.0669  -17.0774   26.7908 O   0  0  0  0  0  0  0  0  0  0  0  0
  2  1  1  0
  3  2  1  0
  3  4  1  6
  5  6  2  0
  5  3  1  0
  7  5  1  0
  8 11  1  0
  8  7  1  0
  8  9  1  1
 10  9  1  0
 11 12  2  0
 13 14  1  0
 15 14  1  0
 16 15  1  0
 17 16  1  1
 18 17  1  0
 18 11  1  0
 19 17  1  0
 20 19  1  0
 21 19  2  0
M  END
$$$$
