SCM.pdb
     RDKit          3D

 21 20  0  0  1  0  0  0  0  0999 V2000
    7.9995  -15.4193   18.9197 O   0  0  0  0  0  0  0  0  0  0  0  0
    9.2266  -15.9604   18.5057 C   0  0  0  0  0  0  0  0  0  0  0  0
    9.2961  -17.4375   18.8403 C   0  0  2  0  0  0  0  0  0  0  0  0
    8.2184  -18.0720   18.1030 N   0  0  0  0  0  0  0  0  0  0  0  0
    9.1270  -17.6809   20.2849 C   0  0  0  0  0  0  0  0  0  0  0  0
    8.0511  -18.1693   20.7742 O   0  0  0  0  0  0  0  0  0  0  0  0
   10.1479  -17.3890   21.2281 N   0  0  0  0  0  0  0  0  0  0  0  0
   10.0318  -17.6807   22.6347 C   0  0  1  0  0  0  0  0  0  0  0  0
   11.3032  -18.4017   23.0375 C   0  0  0  0  0  0  0  0  0  0  0  0
   12.7636  -17.3860   22.7211 S   0  0  0  0  0  0  0  0  0  0  0  0
    9.9051  -16.4552   23.4581 C   0  0  0  0  0  0  0  0  0  0  0  0
   10.3688  -15.3713   22.9622 O   0  0  0  0  0  0  0  0  0  0  0  0
    6.1315  -11.1397   27.1040 C   0  0  0  0  0  0  0  0  0  0  0  0
    6.1324  -12.6175   26.0730 S   0  0  0  0  0  0  0  0  0  0  0  0
    7.7727  -13.4057   26.2251 C   0  0  0  0  0  0  0  0  0  0  0  0
    7.8800  -14.6094   25.3388 C   0  0  0  0  0  0  0  0  0  0  0  0
    9.2201  -15.2383   25.4797 C   0  0  2  0  0  0  0  0  0  0  0  0
    9.2983  -16.4924   24.7324 N   0  0  0  0  0  0  0  0  0  0  0  0
    9.5457  -15.5926   26.8737 C   0  0  0  0  0  0  0  0  0  0  0  0
    9.9337  -14.6520   27.8033 O   0  0  0  0  0  0  0  0  0  0  0  0
    9.4726  -16.8127   27.2446 O   0  0  0  0  0  0  0  0  0  0  0  0
  2  1  1  0
  3  2  1  0
  3  4  1  6
  5  6  2  0
  5  3  1  0
  7  5  1  0
  8 11  1  0
  8  7  1  0
  8  9  1  1
 10  9  1  0
 11 12  2  0
 13 14  1  0
 15 14  1  0
 16 15  1  0
 17 16  1  1
 18 17  1  0
 18 11  1  0
 19 17  1  0
 20 19  1  0
 21 19  2  0
M  END
$$$$
