SCM.pdb
     RDKit          3D

 21 20  0  0  1  0  0  0  0  0999 V2000
   10.2091  -18.0537   20.5700 O   0  0  0  0  0  0  0  0  0  0  0  0
    9.5768  -19.2230   20.1195 C   0  0  0  0  0  0  0  0  0  0  0  0
    8.1114  -18.9587   19.8344 C   0  0  2  0  0  0  0  0  0  0  0  0
    8.0755  -18.0432   18.7084 N   0  0  0  0  0  0  0  0  0  0  0  0
    7.4275  -18.3557   20.9934 C   0  0  0  0  0  0  0  0  0  0  0  0
    6.3245  -17.7185   20.8805 O   0  0  0  0  0  0  0  0  0  0  0  0
    7.9489  -18.4430   22.3116 N   0  0  0  0  0  0  0  0  0  0  0  0
    7.2514  -17.9489   23.4720 C   0  0  1  0  0  0  0  0  0  0  0  0
    6.7304  -19.1619   24.2177 C   0  0  0  0  0  0  0  0  0  0  0  0
    8.0338  -19.9423   25.1959 S   0  0  0  0  0  0  0  0  0  0  0  0
    8.1364  -17.1827   24.3806 C   0  0  0  0  0  0  0  0  0  0  0  0
    9.3957  -17.3717   24.2611 O   0  0  0  0  0  0  0  0  0  0  0  0
    6.3048  -10.7074   25.2665 C   0  0  0  0  0  0  0  0  0  0  0  0
    6.5106  -11.9997   26.5053 S   0  0  0  0  0  0  0  0  0  0  0  0
    7.6001  -13.2840   25.7993 C   0  0  0  0  0  0  0  0  0  0  0  0
    7.8837  -14.3638   26.7991 C   0  0  0  0  0  0  0  0  0  0  0  0
    8.5504  -15.5179   26.1396 C   0  0  2  0  0  0  0  0  0  0  0  0
    7.6040  -16.2866   25.3328 N   0  0  0  0  0  0  0  0  0  0  0  0
    9.1174  -16.4814   27.1014 C   0  0  0  0  0  0  0  0  0  0  0  0
    8.6669  -17.7803   27.1981 O   0  0  0  0  0  0  0  0  0  0  0  0
   10.0584  -16.1098   27.8812 O   0  0  0  0  0  0  0  0  0  0  0  0
  2  1  1  0
  3  2  1  0
  3  4  1  6
  5  6  2  0
  5  3  1  0
  7  5  1  0
  8 11  1  0
  8  7  1  0
  8  9  1  1
 10  9  1  0
 11 12  2  0
 13 14  1  0
 15 14  1  0
 16 15  1  0
 17 16  1  1
 18 17  1  0
 18 11  1  0
 19 17  1  0
 20 19  1  0
 21 19  2  0
M  END
$$$$
