SCM.pdb
     RDKit          3D

 21 20  0  0  1  0  0  0  0  0999 V2000
    9.9247  -19.2829   23.9095 O   0  0  0  0  0  0  0  0  0  0  0  0
    9.6479  -19.5212   22.5543 C   0  0  0  0  0  0  0  0  0  0  0  0
   10.3882  -18.5296   21.6783 C   0  0  2  0  0  0  0  0  0  0  0  0
   11.7970  -18.8618   21.7902 N   0  0  0  0  0  0  0  0  0  0  0  0
   10.1644  -17.1389   22.1146 C   0  0  0  0  0  0  0  0  0  0  0  0
   10.9463  -16.5457   22.9345 O   0  0  0  0  0  0  0  0  0  0  0  0
    9.0658  -16.3664   21.6528 N   0  0  0  0  0  0  0  0  0  0  0  0
    8.7607  -15.0488   22.1509 C   0  0  1  0  0  0  0  0  0  0  0  0
    7.7139  -14.4631   21.2236 C   0  0  0  0  0  0  0  0  0  0  0  0
    7.4092  -12.7209   21.5929 S   0  0  0  0  0  0  0  0  0  0  0  0
    8.2081  -15.0775   23.5256 C   0  0  0  0  0  0  0  0  0  0  0  0
    8.1436  -16.2172   24.1023 O   0  0  0  0  0  0  0  0  0  0  0  0
   10.8254  -15.3404   28.6825 C   0  0  0  0  0  0  0  0  0  0  0  0
    9.9418  -13.7806   28.8647 S   0  0  0  0  0  0  0  0  0  0  0  0
    8.4202  -13.8780   27.8595 C   0  0  0  0  0  0  0  0  0  0  0  0
    8.7397  -13.9307   26.3963 C   0  0  0  0  0  0  0  0  0  0  0  0
    7.4882  -13.9638   25.5939 C   0  0  2  0  0  0  0  0  0  0  0  0
    7.7745  -13.8942   24.1619 N   0  0  0  0  0  0  0  0  0  0  0  0
    6.5969  -12.8219   25.8706 C   0  0  0  0  0  0  0  0  0  0  0  0
    5.4196  -12.9577   26.5741 O   0  0  0  0  0  0  0  0  0  0  0  0
    6.9147  -11.6602   25.4453 O   0  0  0  0  0  0  0  0  0  0  0  0
  2  1  1  0
  3  2  1  0
  3  4  1  1
  5  6  2  0
  5  3  1  0
  7  5  1  0
  8 11  1  0
  8  7  1  0
  8  9  1  6
 10  9  1  0
 11 12  2  0
 13 14  1  0
 15 14  1  0
 16 15  1  0
 17 16  1  1
 18 17  1  0
 18 11  1  0
 19 17  1  0
 20 19  1  0
 21 19  2  0
M  END
$$$$
