SCM.pdb
     RDKit          3D

 21 20  0  0  1  0  0  0  0  0999 V2000
    8.4980  -17.7151   22.6960 O   0  0  0  0  0  0  0  0  0  0  0  0
    7.6455  -17.0853   21.7759 C   0  0  0  0  0  0  0  0  0  0  0  0
    8.0635  -15.6433   21.5648 C   0  0  2  0  0  0  0  0  0  0  0  0
    9.2472  -15.6824   20.7253 N   0  0  0  0  0  0  0  0  0  0  0  0
    8.3745  -14.9705   22.8396 C   0  0  0  0  0  0  0  0  0  0  0  0
    9.5656  -14.8930   23.2986 O   0  0  0  0  0  0  0  0  0  0  0  0
    7.3716  -14.3639   23.6417 N   0  0  0  0  0  0  0  0  0  0  0  0
    7.6533  -13.6892   24.8837 C   0  0  1  0  0  0  0  0  0  0  0  0
    6.3559  -13.0486   25.3366 C   0  0  0  0  0  0  0  0  0  0  0  0
    6.5480  -12.2357   26.9387 S   0  0  0  0  0  0  0  0  0  0  0  0
    8.1127  -14.6196   25.9417 C   0  0  0  0  0  0  0  0  0  0  0  0
    7.6313  -15.8044   25.9226 O   0  0  0  0  0  0  0  0  0  0  0  0
   12.2772  -19.2715   26.5436 C   0  0  0  0  0  0  0  0  0  0  0  0
   12.8910  -17.6542   27.0483 S   0  0  0  0  0  0  0  0  0  0  0  0
   11.5512  -16.8035   27.9519 C   0  0  0  0  0  0  0  0  0  0  0  0
   10.9363  -15.7216   27.1169 C   0  0  0  0  0  0  0  0  0  0  0  0
    9.6702  -15.2467   27.7355 C   0  0  2  0  0  0  0  0  0  0  0  0
    9.0404  -14.2073   26.9228 N   0  0  0  0  0  0  0  0  0  0  0  0
    9.8717  -14.6369   29.0631 C   0  0  0  0  0  0  0  0  0  0  0  0
    9.9591  -15.3882   30.2151 O   0  0  0  0  0  0  0  0  0  0  0  0
    9.9667  -13.3670   29.1625 O   0  0  0  0  0  0  0  0  0  0  0  0
  2  1  1  0
  3  2  1  0
  3  4  1  6
  5  6  2  0
  5  3  1  0
  7  5  1  0
  8 11  1  0
  8  7  1  0
  8  9  1  1
 10  9  1  0
 11 12  2  0
 13 14  1  0
 15 14  1  0
 16 15  1  0
 17 16  1  6
 18 17  1  0
 18 11  1  0
 19 17  1  0
 20 19  1  0
 21 19  2  0
M  END
$$$$
