SCM.pdb
     RDKit          3D

 21 20  0  0  1  0  0  0  0  0999 V2000
    5.4522  -16.1927   19.7348 O   0  0  0  0  0  0  0  0  0  0  0  0
    6.4377  -15.3754   19.1594 C   0  0  0  0  0  0  0  0  0  0  0  0
    7.6488  -16.1989   18.7675 C   0  0  2  0  0  0  0  0  0  0  0  0
    7.1669  -17.2220   17.8572 N   0  0  0  0  0  0  0  0  0  0  0  0
    8.2856  -16.8291   19.9388 C   0  0  0  0  0  0  0  0  0  0  0  0
    8.0480  -18.0392   20.2772 O   0  0  0  0  0  0  0  0  0  0  0  0
    9.2050  -16.1335   20.7683 N   0  0  0  0  0  0  0  0  0  0  0  0
    9.7632  -16.6938   21.9731 C   0  0  1  0  0  0  0  0  0  0  0  0
   11.2033  -17.0513   21.6618 C   0  0  0  0  0  0  0  0  0  0  0  0
   11.9897  -17.8875   23.0572 S   0  0  0  0  0  0  0  0  0  0  0  0
    9.7504  -15.7342   23.1022 C   0  0  0  0  0  0  0  0  0  0  0  0
   10.2716  -14.5849   22.8940 O   0  0  0  0  0  0  0  0  0  0  0  0
    6.1886  -11.1341   27.6371 C   0  0  0  0  0  0  0  0  0  0  0  0
    6.1818  -12.3322   26.2912 S   0  0  0  0  0  0  0  0  0  0  0  0
    7.6826  -13.3607   26.4491 C   0  0  0  0  0  0  0  0  0  0  0  0
    7.8098  -14.3141   25.2999 C   0  0  0  0  0  0  0  0  0  0  0  0
    9.1068  -15.0382   25.3690 C   0  0  2  0  0  0  0  0  0  0  0  0
    9.1860  -16.0822   24.3486 N   0  0  0  0  0  0  0  0  0  0  0  0
    9.3111  -15.7313   26.6546 C   0  0  0  0  0  0  0  0  0  0  0  0
    9.6301  -15.0578   27.8139 O   0  0  0  0  0  0  0  0  0  0  0  0
    9.1943  -17.0021   26.7080 O   0  0  0  0  0  0  0  0  0  0  0  0
  2  1  1  0
  3  2  1  0
  3  4  1  6
  5  6  2  0
  5  3  1  0
  7  5  1  0
  8 11  1  0
  8  7  1  0
  8  9  1  6
 10  9  1  0
 11 12  2  0
 13 14  1  0
 15 14  1  0
 16 15  1  0
 17 16  1  1
 18 17  1  0
 18 11  1  0
 19 17  1  0
 20 19  1  0
 21 19  2  0
M  END
$$$$
