TRQ.pdb
     RDKit          3D

 28 27  0  0  1  0  0  0  0  0999 V2000
    7.8283  -15.6240   26.5347 C   0  0  0  0  0  0  0  0  0  0  0  0
    7.5971  -17.1241   26.5630 C   0  0  1  0  0  0  0  0  0  0  0  0
    6.9925  -17.4924   27.7410 O   0  0  0  0  0  0  0  0  0  0  0  0
    6.7356  -17.4851   25.3841 C   0  0  2  0  0  0  0  0  0  0  0  0
    6.3498  -18.8798   25.4379 N   0  0  0  0  0  0  0  0  0  0  0  0
    7.4858  -17.2608   24.1123 C   0  0  0  0  0  0  0  0  0  0  0  0
    8.2479  -18.1735   23.6494 O   0  0  0  0  0  0  0  0  0  0  0  0
    8.0182  -13.5084   15.7245 N   0  0  0  0  0  0  0  0  0  0  0  0
    7.6963  -13.9214   17.0332 C   0  0  0  0  0  0  0  0  0  0  0  0
    7.2561  -15.1117   17.2580 N   0  0  0  0  0  0  0  0  0  0  0  0
    7.8446  -13.0483   18.1430 N   0  0  0  0  0  0  0  0  0  0  0  0
    7.2968  -13.3619   19.4468 C   0  0  0  0  0  0  0  0  0  0  0  0
    8.1646  -14.3624   20.1628 C   0  0  0  0  0  0  0  0  0  0  0  0
    7.4985  -14.7941   21.4156 C   0  0  0  0  0  0  0  0  0  0  0  0
    8.1640  -15.9115   22.1684 C   0  0  2  0  0  0  0  0  0  0  0  0
    7.3603  -16.0350   23.4068 N   0  0  0  0  0  0  0  0  0  0  0  0
    9.5345  -15.5679   22.5737 C   0  0  0  0  0  0  0  0  0  0  0  0
    9.7047  -15.0281   23.7057 O   0  0  0  0  0  0  0  0  0  0  0  0
    7.0032  -15.3940   18.2441 N   0  0  0  0  0  0  0  0  0  0  0  0
   11.2164  -19.3311   25.2905 C   0  0  0  0  0  0  0  0  0  0  0  0
   11.8464  -18.1449   25.7351 O   0  0  0  0  0  0  0  0  0  0  0  0
   12.2302  -18.0395   26.9556 C   0  0  0  0  0  0  0  0  0  0  0  0
   12.0820  -17.0176   24.8226 C   0  0  0  0  0  0  0  0  0  0  0  0
   11.7277  -17.2020   23.4055 C   0  0  2  0  0  0  0  0  0  0  0  0
   11.9668  -16.1029   22.4384 N   0  0  0  0  0  0  0  0  0  0  0  0
   10.6850  -15.7999   21.7897 C   0  0  0  0  0  0  0  0  0  0  0  0
   13.0365  -16.2672   21.4722 O   0  0  0  0  0  0  0  0  0  0  0  0
   12.8290  -16.5147   20.2414 O   0  0  0  0  0  0  0  0  0  0  0  0
  2  1  1  1
  2  3  1  0
  4  2  1  0
  4  5  1  1
  6  4  1  0
  7  6  2  0
  9  8  1  0
 10  9  2  0
 11  9  1  0
 12 11  1  0
 13 14  1  0
 13 12  1  0
 15 14  1  6
 15 16  1  0
 16  6  1  0
 17 18  2  0
 17 15  1  0
 19 20  1  0
 20 22  1  0
 21 20  2  0
 22 23  1  0
 24 23  1  1
 24 25  1  0
 25 17  1  0
 26 28  1  0
 26 24  1  0
 27 26  2  0
M  END
$$$$
