TRQ.pdb
     RDKit          3D

 28 27  0  0  1  0  0  0  0  0999 V2000
    9.3456  -12.1587   19.4832 C   0  0  0  0  0  0  0  0  0  0  0  0
    8.0501  -12.5865   18.8174 C   0  0  1  0  0  0  0  0  0  0  0  0
    7.5061  -11.5391   18.1132 O   0  0  0  0  0  0  0  0  0  0  0  0
    8.3546  -13.7431   17.9054 C   0  0  2  0  0  0  0  0  0  0  0  0
    7.1546  -14.1979   17.2345 N   0  0  0  0  0  0  0  0  0  0  0  0
    8.9065  -14.8860   18.6927 C   0  0  0  0  0  0  0  0  0  0  0  0
    8.1270  -15.6222   19.3844 O   0  0  0  0  0  0  0  0  0  0  0  0
   14.3739  -21.4063   16.5589 N   0  0  0  0  0  0  0  0  0  0  0  0
   14.2717  -20.0616   16.9691 C   0  0  0  0  0  0  0  0  0  0  0  0
   14.5677  -19.1027   16.1604 N   0  0  0  0  0  0  0  0  0  0  0  0
   13.8419  -19.7170   18.2777 N   0  0  0  0  0  0  0  0  0  0  0  0
   12.5727  -19.0635   18.5232 C   0  0  0  0  0  0  0  0  0  0  0  0
   12.7494  -17.8845   19.4428 C   0  0  0  0  0  0  0  0  0  0  0  0
   12.0707  -16.6976   18.8681 C   0  0  0  0  0  0  0  0  0  0  0  0
   10.7311  -16.3521   19.4547 C   0  0  2  0  0  0  0  0  0  0  0  0
   10.2986  -15.1653   18.6807 N   0  0  0  0  0  0  0  0  0  0  0  0
   10.8317  -15.9387   20.8616 C   0  0  0  0  0  0  0  0  0  0  0  0
   10.4092  -14.7883   21.1776 O   0  0  0  0  0  0  0  0  0  0  0  0
   14.4037  -18.1026   16.4589 N   0  0  0  0  0  0  0  0  0  0  0  0
    7.5122  -14.4818   23.6440 C   0  0  0  0  0  0  0  0  0  0  0  0
    7.8035  -15.3430   24.7280 O   0  0  0  0  0  0  0  0  0  0  0  0
    7.2548  -15.1453   25.8717 C   0  0  0  0  0  0  0  0  0  0  0  0
    8.7251  -16.4772   24.5755 C   0  0  0  0  0  0  0  0  0  0  0  0
    9.4481  -16.6012   23.2989 C   0  0  1  0  0  0  0  0  0  0  0  0
   10.9297  -16.5300   23.2826 N   0  0  0  0  0  0  0  0  0  0  0  0
   11.3658  -16.7368   21.8961 C   0  0  0  0  0  0  0  0  0  0  0  0
   11.6618  -17.3708   24.2111 O   0  0  0  0  0  0  0  0  0  0  0  0
   11.8313  -18.6191   24.0323 O   0  0  0  0  0  0  0  0  0  0  0  0
  2  1  1  6
  2  3  1  0
  4  2  1  0
  4  5  1  1
  6  4  1  0
  7  6  2  0
  9  8  1  0
 10  9  2  0
 11  9  1  0
 12 11  1  0
 13 14  1  0
 13 12  1  0
 15 14  1  6
 15 16  1  0
 16  6  1  0
 17 18  2  0
 17 15  1  0
 19 20  1  0
 20 22  1  0
 21 20  2  0
 22 23  1  0
 24 23  1  6
 24 25  1  0
 25 17  1  0
 26 28  1  0
 26 24  1  0
 27 26  2  0
M  END
$$$$
