TRQ.pdb
     RDKit          3D

 28 27  0  0  1  0  0  0  0  0999 V2000
   11.3321   -5.9984   41.8107 C   0  0  0  0  0  0  0  0  0  0  0  0
   10.0626   -5.6522   42.5676 C   0  0  1  0  0  0  0  0  0  0  0  0
    9.8580   -4.2932   42.5614 O   0  0  0  0  0  0  0  0  0  0  0  0
    8.9164   -6.3684   41.9075 C   0  0  2  0  0  0  0  0  0  0  0  0
    7.6543   -5.9667   42.4928 N   0  0  0  0  0  0  0  0  0  0  0  0
    9.0615   -7.8439   42.0871 C   0  0  0  0  0  0  0  0  0  0  0  0
    8.5877   -8.4117   43.1269 O   0  0  0  0  0  0  0  0  0  0  0  0
   13.0180  -13.5887   39.4211 N   0  0  0  0  0  0  0  0  0  0  0  0
   12.0325  -14.5419   39.0938 C   0  0  0  0  0  0  0  0  0  0  0  0
   12.3190  -15.7979   39.0556 N   0  0  0  0  0  0  0  0  0  0  0  0
   10.6987  -14.1563   38.7969 N   0  0  0  0  0  0  0  0  0  0  0  0
   10.2816  -12.7691   38.7946 C   0  0  0  0  0  0  0  0  0  0  0  0
   10.4732  -12.1527   40.1548 C   0  0  0  0  0  0  0  0  0  0  0  0
    9.9579  -10.7621   40.1493 C   0  0  0  0  0  0  0  0  0  0  0  0
    9.9793  -10.0427   41.4685 C   0  0  2  0  0  0  0  0  0  0  0  0
    9.7252   -8.6286   41.1073 N   0  0  0  0  0  0  0  0  0  0  0  0
   11.3019  -10.0957   42.1076 C   0  0  0  0  0  0  0  0  0  0  0  0
   12.1181   -9.1582   41.8694 O   0  0  0  0  0  0  0  0  0  0  0  0
   11.5627  -16.4958   38.8164 N   0  0  0  0  0  0  0  0  0  0  0  0
   12.1446   -6.9539   46.1339 C   0  0  0  0  0  0  0  0  0  0  0  0
   13.1786   -7.1696   45.1928 O   0  0  0  0  0  0  0  0  0  0  0  0
   14.1439   -6.3289   45.0942 C   0  0  0  0  0  0  0  0  0  0  0  0
   13.1803   -8.3499   44.3176 C   0  0  0  0  0  0  0  0  0  0  0  0
   12.1176   -9.3489   44.5185 C   0  0  2  0  0  0  0  0  0  0  0  0
   12.3924  -10.7806   44.2435 N   0  0  0  0  0  0  0  0  0  0  0  0
   11.7323  -11.1209   42.9771 C   0  0  0  0  0  0  0  0  0  0  0  0
   12.0919  -11.7437   45.2862 O   0  0  0  0  0  0  0  0  0  0  0  0
   11.3370  -12.7517   45.1039 O   0  0  0  0  0  0  0  0  0  0  0  0
  2  1  1  6
  2  3  1  0
  4  2  1  0
  4  5  1  1
  6  4  1  0
  7  6  2  0
  9  8  1  0
 10  9  2  0
 11  9  1  0
 12 11  1  0
 13 14  1  0
 13 12  1  0
 15 14  1  6
 15 16  1  0
 16  6  1  0
 17 18  2  0
 17 15  1  0
 19 20  1  0
 20 22  1  0
 21 20  2  0
 22 23  1  0
 24 23  1  6
 24 25  1  0
 25 17  1  0
 26 28  1  0
 26 24  1  0
 27 26  2  0
M  END
$$$$
