TRQ.pdb
     RDKit          3D

 28 27  0  0  1  0  0  0  0  0999 V2000
   10.6705  -14.3879   19.8118 C   0  0  0  0  0  0  0  0  0  0  0  0
    9.7493  -13.2172   19.5194 C   0  0  1  0  0  0  0  0  0  0  0  0
   10.1378  -12.5800   18.3653 O   0  0  0  0  0  0  0  0  0  0  0  0
    8.3477  -13.7478   19.3913 C   0  0  2  0  0  0  0  0  0  0  0  0
    7.4324  -12.6933   19.0079 N   0  0  0  0  0  0  0  0  0  0  0  0
    7.8892  -14.3068   20.6981 C   0  0  0  0  0  0  0  0  0  0  0  0
    7.5095  -13.5237   21.6312 O   0  0  0  0  0  0  0  0  0  0  0  0
    8.6757  -21.3924   24.5676 N   0  0  0  0  0  0  0  0  0  0  0  0
    7.3041  -21.4190   24.8914 C   0  0  0  0  0  0  0  0  0  0  0  0
    6.8583  -22.2142   25.8024 N   0  0  0  0  0  0  0  0  0  0  0  0
    6.3707  -20.5770   24.2311 N   0  0  0  0  0  0  0  0  0  0  0  0
    6.7169  -19.8321   23.0380 C   0  0  0  0  0  0  0  0  0  0  0  0
    6.9374  -18.3785   23.3624 C   0  0  0  0  0  0  0  0  0  0  0  0
    7.2850  -17.6384   22.1251 C   0  0  0  0  0  0  0  0  0  0  0  0
    7.4577  -16.1526   22.2686 C   0  0  2  0  0  0  0  0  0  0  0  0
    7.8704  -15.7096   20.9164 N   0  0  0  0  0  0  0  0  0  0  0  0
    8.5499  -15.8076   23.1896 C   0  0  0  0  0  0  0  0  0  0  0  0
    9.4165  -14.9709   22.8014 O   0  0  0  0  0  0  0  0  0  0  0  0
    5.8400  -22.1669   26.0799 N   0  0  0  0  0  0  0  0  0  0  0  0
    5.8838  -12.3037   25.3956 C   0  0  0  0  0  0  0  0  0  0  0  0
    6.7776  -12.3236   26.4921 O   0  0  0  0  0  0  0  0  0  0  0  0
    6.6794  -11.4395   27.4178 C   0  0  0  0  0  0  0  0  0  0  0  0
    7.8256  -13.3474   26.6041 C   0  0  0  0  0  0  0  0  0  0  0  0
    7.8861  -14.3786   25.5551 C   0  0  1  0  0  0  0  0  0  0  0  0
    8.9148  -15.4449   25.6301 N   0  0  0  0  0  0  0  0  0  0  0  0
    8.7043  -16.3418   24.4870 C   0  0  0  0  0  0  0  0  0  0  0  0
    9.0462  -16.1774   26.8755 O   0  0  0  0  0  0  0  0  0  0  0  0
    9.4515  -15.6425   27.9565 O   0  0  0  0  0  0  0  0  0  0  0  0
  2  1  1  6
  2  3  1  0
  4  2  1  0
  4  5  1  1
  6  4  1  0
  7  6  2  0
  9  8  1  0
 10  9  2  0
 11  9  1  0
 12 11  1  0
 13 14  1  0
 13 12  1  0
 15 14  1  6
 15 16  1  0
 16  6  1  0
 17 18  2  0
 17 15  1  0
 19 20  1  0
 20 22  1  0
 21 20  2  0
 22 23  1  0
 24 23  1  6
 24 25  1  0
 25 17  1  0
 26 28  1  0
 26 24  1  0
 27 26  2  0
M  END
$$$$
