TRQ.pdb
     RDKit          3D

 28 27  0  0  1  0  0  0  0  0999 V2000
    8.0379  -22.1176   18.2580 C   0  0  0  0  0  0  0  0  0  0  0  0
    8.6348  -20.9140   18.9647 C   0  0  1  0  0  0  0  0  0  0  0  0
    9.9875  -21.0841   19.1384 O   0  0  0  0  0  0  0  0  0  0  0  0
    8.3522  -19.6955   18.1293 C   0  0  2  0  0  0  0  0  0  0  0  0
    9.0162  -19.7875   16.8458 N   0  0  0  0  0  0  0  0  0  0  0  0
    8.8518  -18.4707   18.8226 C   0  0  0  0  0  0  0  0  0  0  0  0
    9.9158  -17.8949   18.4171 O   0  0  0  0  0  0  0  0  0  0  0  0
    8.5049  -12.9158   17.6770 N   0  0  0  0  0  0  0  0  0  0  0  0
    8.0156  -12.5927   18.9588 C   0  0  0  0  0  0  0  0  0  0  0  0
    7.8789  -11.3631   19.3202 N   0  0  0  0  0  0  0  0  0  0  0  0
    7.6581  -13.6020   19.8912 N   0  0  0  0  0  0  0  0  0  0  0  0
    8.2938  -13.7108   21.1883 C   0  0  0  0  0  0  0  0  0  0  0  0
    7.7067  -14.8521   21.9754 C   0  0  0  0  0  0  0  0  0  0  0  0
    7.4518  -16.0012   21.0731 C   0  0  0  0  0  0  0  0  0  0  0  0
    8.6651  -16.6530   20.4720 C   0  0  2  0  0  0  0  0  0  0  0  0
    8.1519  -17.9352   19.9359 N   0  0  0  0  0  0  0  0  0  0  0  0
    9.6777  -16.9814   21.4855 C   0  0  0  0  0  0  0  0  0  0  0  0
    9.3117  -17.6362   22.5049 O   0  0  0  0  0  0  0  0  0  0  0  0
    7.6063  -11.1422   20.3167 N   0  0  0  0  0  0  0  0  0  0  0  0
   15.9805  -15.6941   21.3609 C   0  0  0  0  0  0  0  0  0  0  0  0
   14.8778  -14.8920   20.9838 O   0  0  0  0  0  0  0  0  0  0  0  0
   15.0595  -13.8509   20.2549 C   0  0  0  0  0  0  0  0  0  0  0  0
   13.5105  -15.2272   21.4047 C   0  0  0  0  0  0  0  0  0  0  0  0
   13.3088  -16.5018   22.1136 C   0  0  1  0  0  0  0  0  0  0  0  0
   11.9424  -16.9051   22.5274 N   0  0  0  0  0  0  0  0  0  0  0  0
   11.0399  -16.6210   21.4048 C   0  0  0  0  0  0  0  0  0  0  0  0
   11.4288  -16.3833   23.7799 O   0  0  0  0  0  0  0  0  0  0  0  0
   10.5771  -15.4400   23.8422 O   0  0  0  0  0  0  0  0  0  0  0  0
  2  1  1  6
  2  3  1  0
  4  2  1  0
  4  5  1  6
  6  4  1  0
  7  6  2  0
  9  8  1  0
 10  9  2  0
 11  9  1  0
 12 11  1  0
 13 14  1  0
 13 12  1  0
 15 14  1  1
 15 16  1  0
 16  6  1  0
 17 18  2  0
 17 15  1  0
 19 20  1  0
 20 22  1  0
 21 20  2  0
 22 23  1  0
 24 23  1  6
 24 25  1  0
 25 17  1  0
 26 28  1  0
 26 24  1  0
 27 26  2  0
M  END
$$$$
