TRQ.pdb
     RDKit          3D

 28 27  0  0  1  0  0  0  0  0999 V2000
    8.3399  -11.4862   25.9388 C   0  0  0  0  0  0  0  0  0  0  0  0
    7.2058  -11.9987   26.8081 C   0  0  1  0  0  0  0  0  0  0  0  0
    6.6615  -10.9699   27.5391 O   0  0  0  0  0  0  0  0  0  0  0  0
    6.1730  -12.6199   25.9082 C   0  0  2  0  0  0  0  0  0  0  0  0
    5.0394  -13.0911   26.6760 N   0  0  0  0  0  0  0  0  0  0  0  0
    6.7590  -13.7870   25.1836 C   0  0  0  0  0  0  0  0  0  0  0  0
    6.7107  -14.9519   25.7019 O   0  0  0  0  0  0  0  0  0  0  0  0
    9.0906  -13.3987   17.1070 N   0  0  0  0  0  0  0  0  0  0  0  0
    7.8792  -13.7585   17.7316 C   0  0  0  0  0  0  0  0  0  0  0  0
    6.7486  -13.5225   17.1598 N   0  0  0  0  0  0  0  0  0  0  0  0
    7.8606  -14.3896   19.0034 N   0  0  0  0  0  0  0  0  0  0  0  0
    9.0685  -14.8739   19.6394 C   0  0  0  0  0  0  0  0  0  0  0  0
    8.7582  -15.4762   20.9839 C   0  0  0  0  0  0  0  0  0  0  0  0
    8.1214  -14.4564   21.8522 C   0  0  0  0  0  0  0  0  0  0  0  0
    7.9396  -14.8352   23.2950 C   0  0  2  0  0  0  0  0  0  0  0  0
    7.3737  -13.6147   23.9153 N   0  0  0  0  0  0  0  0  0  0  0  0
    9.2206  -15.1066   23.9627 C   0  0  0  0  0  0  0  0  0  0  0  0
   10.0773  -14.1763   24.0115 O   0  0  0  0  0  0  0  0  0  0  0  0
    5.8545  -13.8319   17.6299 N   0  0  0  0  0  0  0  0  0  0  0  0
   10.2314  -17.2040   29.4087 C   0  0  0  0  0  0  0  0  0  0  0  0
    9.8270  -15.9766   28.8332 O   0  0  0  0  0  0  0  0  0  0  0  0
    9.2821  -15.0725   29.5639 C   0  0  0  0  0  0  0  0  0  0  0  0
   10.0229  -15.7028   27.4029 C   0  0  0  0  0  0  0  0  0  0  0  0
   10.7278  -16.7194   26.6046 C   0  0  2  0  0  0  0  0  0  0  0  0
   10.9034  -16.5172   25.1455 N   0  0  0  0  0  0  0  0  0  0  0  0
    9.5685  -16.3364   24.5616 C   0  0  0  0  0  0  0  0  0  0  0  0
   11.6867  -17.4940   24.4125 O   0  0  0  0  0  0  0  0  0  0  0  0
   12.9310  -17.6747   24.6081 O   0  0  0  0  0  0  0  0  0  0  0  0
  2  1  1  6
  2  3  1  0
  4  2  1  0
  4  5  1  1
  6  4  1  0
  7  6  2  0
  9  8  1  0
 10  9  2  0
 11  9  1  0
 12 11  1  0
 13 14  1  0
 13 12  1  0
 15 14  1  6
 15 16  1  0
 16  6  1  0
 17 18  2  0
 17 15  1  0
 19 20  1  0
 20 22  1  0
 21 20  2  0
 22 23  1  0
 24 23  1  1
 24 25  1  0
 25 17  1  0
 26 28  1  0
 26 24  1  0
 27 26  2  0
M  END
$$$$
