TRQ.pdb
     RDKit          3D

 28 27  0  0  1  0  0  0  0  0999 V2000
    6.4605  -13.6952   19.1739 C   0  0  0  0  0  0  0  0  0  0  0  0
    7.8407  -13.4049   18.6124 C   0  0  1  0  0  0  0  0  0  0  0  0
    7.7872  -12.3485   17.7348 O   0  0  0  0  0  0  0  0  0  0  0  0
    8.7573  -13.0970   19.7645 C   0  0  2  0  0  0  0  0  0  0  0  0
   10.0466  -12.6420   19.2877 N   0  0  0  0  0  0  0  0  0  0  0  0
    8.9748  -14.3231   20.5891 C   0  0  0  0  0  0  0  0  0  0  0  0
    7.9798  -14.9291   21.1094 O   0  0  0  0  0  0  0  0  0  0  0  0
   13.8258  -15.2686   17.4023 N   0  0  0  0  0  0  0  0  0  0  0  0
   13.4094  -16.5073   16.8739 C   0  0  0  0  0  0  0  0  0  0  0  0
   13.3036  -16.6774   15.6008 N   0  0  0  0  0  0  0  0  0  0  0  0
   13.0941  -17.6043   17.7184 N   0  0  0  0  0  0  0  0  0  0  0  0
   13.0074  -17.4667   19.1578 C   0  0  0  0  0  0  0  0  0  0  0  0
   11.6496  -16.9586   19.5638 C   0  0  0  0  0  0  0  0  0  0  0  0
   11.6128  -16.7522   21.0319 C   0  0  0  0  0  0  0  0  0  0  0  0
   10.3807  -16.0861   21.5764 C   0  0  2  0  0  0  0  0  0  0  0  0
   10.2852  -14.8264   20.8025 N   0  0  0  0  0  0  0  0  0  0  0  0
   10.5298  -15.7154   22.9909 C   0  0  0  0  0  0  0  0  0  0  0  0
   11.5907  -15.1225   23.3441 O   0  0  0  0  0  0  0  0  0  0  0  0
   12.9891  -17.6140   15.2266 N   0  0  0  0  0  0  0  0  0  0  0  0
    5.9945  -12.6110   24.8132 C   0  0  0  0  0  0  0  0  0  0  0  0
    6.7767  -13.3273   25.7495 O   0  0  0  0  0  0  0  0  0  0  0  0
    6.7784  -12.9798   26.9854 C   0  0  0  0  0  0  0  0  0  0  0  0
    7.5932  -14.4784   25.3403 C   0  0  0  0  0  0  0  0  0  0  0  0
    8.9970  -14.5099   25.7828 C   0  0  1  0  0  0  0  0  0  0  0  0
    9.8655  -15.6481   25.3940 N   0  0  0  0  0  0  0  0  0  0  0  0
    9.5687  -15.9704   23.9927 C   0  0  0  0  0  0  0  0  0  0  0  0
    9.8552  -16.8303   26.2349 O   0  0  0  0  0  0  0  0  0  0  0  0
   10.0924  -16.7958   27.4846 O   0  0  0  0  0  0  0  0  0  0  0  0
  2  1  1  1
  2  3  1  0
  4  2  1  0
  4  5  1  6
  6  4  1  0
  7  6  2  0
  9  8  1  0
 10  9  2  0
 11  9  1  0
 12 11  1  0
 13 14  1  0
 13 12  1  0
 15 14  1  6
 15 16  1  0
 16  6  1  0
 17 18  2  0
 17 15  1  0
 19 20  1  0
 20 22  1  0
 21 20  2  0
 22 23  1  0
 24 23  1  6
 24 25  1  0
 25 17  1  0
 26 28  1  0
 26 24  1  0
 27 26  2  0
M  END
$$$$
