TRQ.pdb
     RDKit          3D

 28 27  0  0  1  0  0  0  0  0999 V2000
    7.8618  -11.5382   26.1741 C   0  0  0  0  0  0  0  0  0  0  0  0
    7.1798  -12.5743   27.0493 C   0  0  1  0  0  0  0  0  0  0  0  0
    6.5791  -11.9687   28.1270 O   0  0  0  0  0  0  0  0  0  0  0  0
    6.1645  -13.2989   26.2088 C   0  0  2  0  0  0  0  0  0  0  0  0
    5.4103  -14.2390   27.0112 N   0  0  0  0  0  0  0  0  0  0  0  0
    6.8485  -14.0618   25.1221 C   0  0  0  0  0  0  0  0  0  0  0  0
    7.1885  -15.2771   25.3098 O   0  0  0  0  0  0  0  0  0  0  0  0
    6.8254  -13.8910   16.8809 N   0  0  0  0  0  0  0  0  0  0  0  0
    8.2040  -14.1578   17.0039 C   0  0  0  0  0  0  0  0  0  0  0  0
    8.8139  -14.8847   16.1316 N   0  0  0  0  0  0  0  0  0  0  0  0
    8.9653  -13.6393   18.0844 N   0  0  0  0  0  0  0  0  0  0  0  0
    8.3414  -13.0824   19.2672 C   0  0  0  0  0  0  0  0  0  0  0  0
    8.4359  -14.0436   20.4222 C   0  0  0  0  0  0  0  0  0  0  0  0
    7.7858  -13.4528   21.6172 C   0  0  0  0  0  0  0  0  0  0  0  0
    7.7779  -14.3039   22.8556 C   0  0  2  0  0  0  0  0  0  0  0  0
    7.1268  -13.4463   23.8732 N   0  0  0  0  0  0  0  0  0  0  0  0
    9.1357  -14.5939   23.3379 C   0  0  0  0  0  0  0  0  0  0  0  0
    9.4433  -14.2297   24.5103 O   0  0  0  0  0  0  0  0  0  0  0  0
    9.8607  -15.0093   16.2004 N   0  0  0  0  0  0  0  0  0  0  0  0
   11.2688  -19.3794   26.6332 C   0  0  0  0  0  0  0  0  0  0  0  0
   10.3343  -18.3891   26.2492 O   0  0  0  0  0  0  0  0  0  0  0  0
    9.0886  -18.5412   26.5197 C   0  0  0  0  0  0  0  0  0  0  0  0
   10.7586  -17.1712   25.5452 C   0  0  0  0  0  0  0  0  0  0  0  0
   10.4185  -17.0557   24.1174 C   0  0  2  0  0  0  0  0  0  0  0  0
   11.1392  -16.0775   23.2662 N   0  0  0  0  0  0  0  0  0  0  0  0
   10.1296  -15.2567   22.5862 C   0  0  0  0  0  0  0  0  0  0  0  0
   12.1364  -16.5842   22.3421 O   0  0  0  0  0  0  0  0  0  0  0  0
   11.9130  -16.7475   21.1001 O   0  0  0  0  0  0  0  0  0  0  0  0
  2  1  1  6
  2  3  1  0
  4  2  1  0
  4  5  1  1
  6  4  1  0
  7  6  2  0
  9  8  1  0
 10  9  2  0
 11  9  1  0
 12 11  1  0
 13 14  1  0
 13 12  1  0
 15 14  1  6
 15 16  1  0
 16  6  1  0
 17 18  2  0
 17 15  1  0
 19 20  1  0
 20 22  1  0
 21 20  2  0
 22 23  1  0
 24 23  1  1
 24 25  1  0
 25 17  1  0
 26 28  1  0
 26 24  1  0
 27 26  2  0
M  END
$$$$
