TRQ.pdb
     RDKit          3D

 28 27  0  0  1  0  0  0  0  0999 V2000
    9.9131  -12.4513   19.3302 C   0  0  0  0  0  0  0  0  0  0  0  0
    8.5517  -12.6117   19.9823 C   0  0  1  0  0  0  0  0  0  0  0  0
    7.8519  -11.4302   19.9245 O   0  0  0  0  0  0  0  0  0  0  0  0
    7.8146  -13.7056   19.2595 C   0  0  2  0  0  0  0  0  0  0  0  0
    6.4969  -13.8993   19.8277 N   0  0  0  0  0  0  0  0  0  0  0  0
    8.5631  -14.9927   19.3762 C   0  0  0  0  0  0  0  0  0  0  0  0
    8.3878  -15.7452   20.3916 O   0  0  0  0  0  0  0  0  0  0  0  0
    9.2568  -18.6296   12.7745 N   0  0  0  0  0  0  0  0  0  0  0  0
   10.4658  -18.5855   13.4978 C   0  0  0  0  0  0  0  0  0  0  0  0
   11.1971  -19.6395   13.6220 N   0  0  0  0  0  0  0  0  0  0  0  0
   10.9189  -17.3876   14.1108 N   0  0  0  0  0  0  0  0  0  0  0  0
   10.0812  -16.6182   15.0077 C   0  0  0  0  0  0  0  0  0  0  0  0
    9.8173  -17.3826   16.2777 C   0  0  0  0  0  0  0  0  0  0  0  0
   10.8180  -17.0040   17.3047 C   0  0  0  0  0  0  0  0  0  0  0  0
   10.2716  -16.6080   18.6474 C   0  0  2  0  0  0  0  0  0  0  0  0
    9.4743  -15.3922   18.3632 N   0  0  0  0  0  0  0  0  0  0  0  0
   11.3341  -16.2198   19.5859 C   0  0  0  0  0  0  0  0  0  0  0  0
   11.5091  -14.9871   19.8131 O   0  0  0  0  0  0  0  0  0  0  0  0
   12.1412  -19.5641   14.0902 N   0  0  0  0  0  0  0  0  0  0  0  0
    9.9934  -15.3900   24.6939 C   0  0  0  0  0  0  0  0  0  0  0  0
   10.3811  -16.7309   24.4629 O   0  0  0  0  0  0  0  0  0  0  0  0
   10.2773  -17.6009   25.4012 C   0  0  0  0  0  0  0  0  0  0  0  0
   10.9004  -17.1612   23.1575 C   0  0  0  0  0  0  0  0  0  0  0  0
   11.7559  -16.2174   22.4193 C   0  0  1  0  0  0  0  0  0  0  0  0
   12.8188  -16.7343   21.5229 N   0  0  0  0  0  0  0  0  0  0  0  0
   12.1790  -17.1268   20.2611 C   0  0  0  0  0  0  0  0  0  0  0  0
   13.6929  -17.7741   22.0326 O   0  0  0  0  0  0  0  0  0  0  0  0
   14.5067  -17.5883   22.9929 O   0  0  0  0  0  0  0  0  0  0  0  0
  2  1  1  6
  2  3  1  0
  4  2  1  0
  4  5  1  1
  6  4  1  0
  7  6  2  0
  9  8  1  0
 10  9  2  0
 11  9  1  0
 12 11  1  0
 13 14  1  0
 13 12  1  0
 15 14  1  6
 15 16  1  0
 16  6  1  0
 17 18  2  0
 17 15  1  0
 19 20  1  0
 20 22  1  0
 21 20  2  0
 22 23  1  0
 24 23  1  6
 24 25  1  0
 25 17  1  0
 26 28  1  0
 26 24  1  0
 27 26  2  0
M  END
$$$$
