TRQ.pdb
     RDKit          3D

 28 27  0  0  1  0  0  0  0  0999 V2000
    6.3586  -20.1356   27.1291 C   0  0  0  0  0  0  0  0  0  0  0  0
    7.2483  -19.3636   26.1716 C   0  0  1  0  0  0  0  0  0  0  0  0
    8.5657  -19.7056   26.3622 O   0  0  0  0  0  0  0  0  0  0  0  0
    6.8107  -19.6831   24.7684 C   0  0  2  0  0  0  0  0  0  0  0  0
    7.0406  -21.0800   24.4643 N   0  0  0  0  0  0  0  0  0  0  0  0
    7.5851  -18.8624   23.7899 C   0  0  0  0  0  0  0  0  0  0  0  0
    8.5817  -19.3703   23.1760 O   0  0  0  0  0  0  0  0  0  0  0  0
    9.4736  -12.8178   19.4697 N   0  0  0  0  0  0  0  0  0  0  0  0
    8.3175  -13.1527   18.7360 C   0  0  0  0  0  0  0  0  0  0  0  0
    8.3311  -13.1456   17.4473 N   0  0  0  0  0  0  0  0  0  0  0  0
    7.1055  -13.5077   19.3849 N   0  0  0  0  0  0  0  0  0  0  0  0
    6.9989  -13.5829   20.8275 C   0  0  0  0  0  0  0  0  0  0  0  0
    7.9979  -14.5616   21.3853 C   0  0  0  0  0  0  0  0  0  0  0  0
    7.2872  -15.6324   22.1255 C   0  0  0  0  0  0  0  0  0  0  0  0
    8.1410  -16.7490   22.6568 C   0  0  2  0  0  0  0  0  0  0  0  0
    7.2229  -17.5139   23.5325 N   0  0  0  0  0  0  0  0  0  0  0  0
    9.2362  -16.2550   23.5035 C   0  0  0  0  0  0  0  0  0  0  0  0
    8.9369  -15.6226   24.5582 O   0  0  0  0  0  0  0  0  0  0  0  0
    7.4307  -13.3045   16.9178 N   0  0  0  0  0  0  0  0  0  0  0  0
   10.0348  -18.5515   27.7474 C   0  0  0  0  0  0  0  0  0  0  0  0
   11.3811  -18.1165   27.7474 O   0  0  0  0  0  0  0  0  0  0  0  0
   12.0798  -18.1877   28.8221 C   0  0  0  0  0  0  0  0  0  0  0  0
   12.0113  -17.5843   26.5314 C   0  0  0  0  0  0  0  0  0  0  0  0
   11.1418  -17.3179   25.3736 C   0  0  1  0  0  0  0  0  0  0  0  0
   11.5905  -16.3778   24.3174 N   0  0  0  0  0  0  0  0  0  0  0  0
   10.6084  -16.4374   23.2278 C   0  0  0  0  0  0  0  0  0  0  0  0
   12.9504  -16.5033   23.8275 O   0  0  0  0  0  0  0  0  0  0  0  0
   13.9705  -16.4377   24.5853 O   0  0  0  0  0  0  0  0  0  0  0  0
  2  1  1  1
  2  3  1  0
  4  2  1  0
  4  5  1  6
  6  4  1  0
  7  6  2  0
  9  8  1  0
 10  9  2  0
 11  9  1  0
 12 11  1  0
 13 14  1  0
 13 12  1  0
 15 14  1  1
 15 16  1  0
 16  6  1  0
 17 18  2  0
 17 15  1  0
 19 20  1  0
 20 22  1  0
 21 20  2  0
 22 23  1  0
 24 23  1  1
 24 25  1  0
 25 17  1  0
 26 28  1  0
 26 24  1  0
 27 26  2  0
M  END
$$$$
