TRQ.pdb
     RDKit          3D

 28 27  0  0  1  0  0  0  0  0999 V2000
   10.1016  -12.9124   20.5096 C   0  0  0  0  0  0  0  0  0  0  0  0
    8.8692  -12.6923   19.6509 C   0  0  1  0  0  0  0  0  0  0  0  0
    9.1799  -11.9187   18.5583 O   0  0  0  0  0  0  0  0  0  0  0  0
    8.3527  -14.0387   19.2232 C   0  0  2  0  0  0  0  0  0  0  0  0
    7.1745  -13.8970   18.3935 N   0  0  0  0  0  0  0  0  0  0  0  0
    7.9810  -14.8498   20.4209 C   0  0  0  0  0  0  0  0  0  0  0  0
    6.7931  -14.8000   20.8839 O   0  0  0  0  0  0  0  0  0  0  0  0
    6.2547  -18.9471   25.1305 N   0  0  0  0  0  0  0  0  0  0  0  0
    6.7579  -20.2548   24.9771 C   0  0  0  0  0  0  0  0  0  0  0  0
    6.7621  -21.0787   25.9683 N   0  0  0  0  0  0  0  0  0  0  0  0
    7.2742  -20.7088   23.7348 N   0  0  0  0  0  0  0  0  0  0  0  0
    7.5800  -19.7985   22.6503 C   0  0  0  0  0  0  0  0  0  0  0  0
    8.6508  -18.8225   23.0597 C   0  0  0  0  0  0  0  0  0  0  0  0
    8.8820  -17.8480   21.9659 C   0  0  0  0  0  0  0  0  0  0  0  0
    8.4695  -16.4301   22.2440 C   0  0  2  0  0  0  0  0  0  0  0  0
    8.9407  -15.6822   21.0551 N   0  0  0  0  0  0  0  0  0  0  0  0
    9.1639  -15.8694   23.4119 C   0  0  0  0  0  0  0  0  0  0  0  0
    9.9329  -14.8805   23.2314 O   0  0  0  0  0  0  0  0  0  0  0  0
    7.1594  -22.0486   25.8354 N   0  0  0  0  0  0  0  0  0  0  0  0
    6.2903  -12.1717   24.9846 C   0  0  0  0  0  0  0  0  0  0  0  0
    7.0481  -12.1299   26.1785 O   0  0  0  0  0  0  0  0  0  0  0  0
    6.9236  -11.1386   26.9848 C   0  0  0  0  0  0  0  0  0  0  0  0
    7.9820  -13.2092   26.5280 C   0  0  0  0  0  0  0  0  0  0  0  0
    8.1761  -14.2877   25.5448 C   0  0  1  0  0  0  0  0  0  0  0  0
    9.0799  -15.4200   25.8637 N   0  0  0  0  0  0  0  0  0  0  0  0
    9.0337  -16.3534   24.7314 C   0  0  0  0  0  0  0  0  0  0  0  0
    8.8979  -16.0995   27.1326 O   0  0  0  0  0  0  0  0  0  0  0  0
    8.2186  -17.1682   27.2571 O   0  0  0  0  0  0  0  0  0  0  0  0
  2  1  1  1
  2  3  1  0
  4  2  1  0
  4  5  1  6
  6  4  1  0
  7  6  2  0
  9  8  1  0
 10  9  2  0
 11  9  1  0
 12 11  1  0
 13 14  1  0
 13 12  1  0
 15 14  1  6
 15 16  1  0
 16  6  1  0
 17 18  2  0
 17 15  1  0
 19 20  1  0
 20 22  1  0
 21 20  2  0
 22 23  1  0
 24 23  1  6
 24 25  1  0
 25 17  1  0
 26 28  1  0
 26 24  1  0
 27 26  2  0
M  END
$$$$
