TRQ.pdb
     RDKit          3D

 28 27  0  0  1  0  0  0  0  0999 V2000
   10.6199  -15.1125   19.5734 C   0  0  0  0  0  0  0  0  0  0  0  0
    9.9825  -13.7611   19.3049 C   0  0  1  0  0  0  0  0  0  0  0  0
   10.5025  -13.2065   18.1599 O   0  0  0  0  0  0  0  0  0  0  0  0
    8.4978  -13.9638   19.1742 C   0  0  2  0  0  0  0  0  0  0  0  0
    7.8433  -12.7315   18.7873 N   0  0  0  0  0  0  0  0  0  0  0  0
    7.9229  -14.4032   20.4807 C   0  0  0  0  0  0  0  0  0  0  0  0
    7.6575  -13.5429   21.3848 O   0  0  0  0  0  0  0  0  0  0  0  0
    2.0384  -19.7573   20.5141 N   0  0  0  0  0  0  0  0  0  0  0  0
    2.8235  -19.3345   21.6058 C   0  0  0  0  0  0  0  0  0  0  0  0
    2.2856  -19.1098   22.7553 N   0  0  0  0  0  0  0  0  0  0  0  0
    4.2247  -19.1425   21.4801 N   0  0  0  0  0  0  0  0  0  0  0  0
    5.1344  -19.3715   22.5839 C   0  0  0  0  0  0  0  0  0  0  0  0
    5.8078  -18.0890   22.9943 C   0  0  0  0  0  0  0  0  0  0  0  0
    6.3327  -17.3948   21.7934 C   0  0  0  0  0  0  0  0  0  0  0  0
    7.0481  -16.0963   22.0388 C   0  0  2  0  0  0  0  0  0  0  0  0
    7.6660  -15.7771   20.7307 N   0  0  0  0  0  0  0  0  0  0  0  0
    8.1412  -16.2404   23.0107 C   0  0  0  0  0  0  0  0  0  0  0  0
    9.2611  -16.6563   22.5925 O   0  0  0  0  0  0  0  0  0  0  0  0
    2.9051  -18.9380   23.5937 N   0  0  0  0  0  0  0  0  0  0  0  0
    9.1334  -12.7186   28.1925 C   0  0  0  0  0  0  0  0  0  0  0  0
    9.8477  -13.9134   28.4450 O   0  0  0  0  0  0  0  0  0  0  0  0
   10.3094  -14.1505   29.6192 C   0  0  0  0  0  0  0  0  0  0  0  0
   10.0725  -14.9067   27.3858 C   0  0  0  0  0  0  0  0  0  0  0  0
    9.0506  -15.0230   26.3323 C   0  0  1  0  0  0  0  0  0  0  0  0
    9.2228  -16.0199   25.2473 N   0  0  0  0  0  0  0  0  0  0  0  0
    8.0357  -15.9442   24.3867 C   0  0  0  0  0  0  0  0  0  0  0  0
    9.5332  -17.3867   25.6219 O   0  0  0  0  0  0  0  0  0  0  0  0
    8.6439  -18.2834   25.7772 O   0  0  0  0  0  0  0  0  0  0  0  0
  2  1  1  6
  2  3  1  0
  4  2  1  0
  4  5  1  1
  6  4  1  0
  7  6  2  0
  9  8  1  0
 10  9  2  0
 11  9  1  0
 12 11  1  0
 13 14  1  0
 13 12  1  0
 15 14  1  6
 15 16  1  0
 16  6  1  0
 17 18  2  0
 17 15  1  0
 19 20  1  0
 20 22  1  0
 21 20  2  0
 22 23  1  0
 24 23  1  6
 24 25  1  0
 25 17  1  0
 26 28  1  0
 26 24  1  0
 27 26  2  0
M  END
$$$$
