TRQ.pdb
     RDKit          3D

 28 27  0  0  1  0  0  0  0  0999 V2000
    7.9442  -15.5911   16.3985 C   0  0  0  0  0  0  0  0  0  0  0  0
    8.3791  -14.1860   16.7745 C   0  0  1  0  0  0  0  0  0  0  0  0
    7.3927  -13.2810   16.4633 O   0  0  0  0  0  0  0  0  0  0  0  0
    8.6748  -14.1687   18.2492 C   0  0  2  0  0  0  0  0  0  0  0  0
    8.7246  -12.8099   18.7470 N   0  0  0  0  0  0  0  0  0  0  0  0
    9.9981  -14.8081   18.5148 C   0  0  0  0  0  0  0  0  0  0  0  0
   10.1971  -16.0259   18.1902 O   0  0  0  0  0  0  0  0  0  0  0  0
   17.3909  -15.5204   19.0025 N   0  0  0  0  0  0  0  0  0  0  0  0
   17.7213  -14.5678   18.0174 C   0  0  0  0  0  0  0  0  0  0  0  0
   18.9438  -14.1994   17.8421 N   0  0  0  0  0  0  0  0  0  0  0  0
   16.7272  -13.9843   17.1884 N   0  0  0  0  0  0  0  0  0  0  0  0
   15.5217  -13.3936   17.7326 C   0  0  0  0  0  0  0  0  0  0  0  0
   14.6470  -14.4477   18.3577 C   0  0  0  0  0  0  0  0  0  0  0  0
   13.3575  -13.8439   18.7726 C   0  0  0  0  0  0  0  0  0  0  0  0
   12.3261  -14.7928   19.3148 C   0  0  2  0  0  0  0  0  0  0  0  0
   11.0455  -14.0716   19.1285 N   0  0  0  0  0  0  0  0  0  0  0  0
   12.4879  -15.0227   20.7575 C   0  0  0  0  0  0  0  0  0  0  0  0
   11.5927  -14.5827   21.5364 O   0  0  0  0  0  0  0  0  0  0  0  0
   19.1652  -13.4623   17.1183 N   0  0  0  0  0  0  0  0  0  0  0  0
    9.9151  -17.5781   24.8278 C   0  0  0  0  0  0  0  0  0  0  0  0
   11.2957  -17.8381   24.6609 O   0  0  0  0  0  0  0  0  0  0  0  0
   12.1101  -17.6357   25.6325 C   0  0  0  0  0  0  0  0  0  0  0  0
   11.8285  -18.3469   23.3896 C   0  0  0  0  0  0  0  0  0  0  0  0
   12.1984  -17.3598   22.3618 C   0  0  1  0  0  0  0  0  0  0  0  0
   13.3761  -16.4829   22.5740 N   0  0  0  0  0  0  0  0  0  0  0  0
   13.5747  -15.7062   21.3440 C   0  0  0  0  0  0  0  0  0  0  0  0
   14.6085  -17.0973   23.0308 O   0  0  0  0  0  0  0  0  0  0  0  0
   14.9018  -18.3151   22.8076 O   0  0  0  0  0  0  0  0  0  0  0  0
  2  1  1  1
  2  3  1  0
  4  2  1  0
  4  5  1  6
  6  4  1  0
  7  6  2  0
  9  8  1  0
 10  9  2  0
 11  9  1  0
 12 11  1  0
 13 14  1  0
 13 12  1  0
 15 14  1  1
 15 16  1  0
 16  6  1  0
 17 18  2  0
 17 15  1  0
 19 20  1  0
 20 22  1  0
 21 20  2  0
 22 23  1  0
 24 23  1  1
 24 25  1  0
 25 17  1  0
 26 28  1  0
 26 24  1  0
 27 26  2  0
M  END
$$$$
