VDH.pdb
     RDKit          3D

 26 26  0  0  1  0  0  0  0  0999 V2000
    7.8037  -12.8687   18.1889 C   0  0  0  0  0  0  0  0  0  0  0  0
    8.3913  -13.4525   19.4568 C   0  0  1  0  0  0  0  0  0  0  0  0
    7.4942  -13.2573   20.6347 C   0  0  0  0  0  0  0  0  0  0  0  0
    8.6947  -14.9052   19.1762 C   0  0  2  0  0  0  0  0  0  0  0  0
    7.4866  -15.6711   19.0398 N   0  0  0  0  0  0  0  0  0  0  0  0
    9.5563  -15.5207   20.1961 C   0  0  0  0  0  0  0  0  0  0  0  0
   10.7187  -15.0908   20.4456 O   0  0  0  0  0  0  0  0  0  0  0  0
    9.0736  -16.6355   20.9293 N   0  0  0  0  0  0  0  0  0  0  0  0
    9.9212  -17.3225   21.9416 C   0  0  1  0  0  0  0  0  0  0  0  0
   11.2568  -17.6328   21.3365 C   0  0  0  0  0  0  0  0  0  0  0  0
   12.0527  -18.5549   22.1462 C   0  0  0  0  0  0  0  0  0  0  0  0
   11.6597  -19.5360   22.8039 O   0  0  0  0  0  0  0  0  0  0  0  0
   10.0076  -16.3884   23.0797 C   0  0  0  0  0  0  0  0  0  0  0  0
   10.6554  -15.3331   22.9998 O   0  0  0  0  0  0  0  0  0  0  0  0
   13.4407  -18.3201   22.2013 O   0  0  0  0  0  0  0  0  0  0  0  0
    9.3470  -16.6848   24.2899 N   0  0  0  0  0  0  0  0  0  0  0  0
    9.1696  -15.6087   25.2975 C   0  0  1  0  0  0  0  0  0  0  0  0
    7.8584  -14.9470   25.0685 C   0  0  0  0  0  0  0  0  0  0  0  0
    7.4713  -13.8709   25.9443 C   0  0  0  0  0  0  0  0  0  0  0  0
    8.1178  -13.2782   26.9841 C   0  0  0  0  0  0  0  0  0  0  0  0
    7.3648  -12.2430   27.4712 N   0  0  0  0  0  0  0  0  0  0  0  0
    6.2717  -12.2110   26.7284 C   0  0  0  0  0  0  0  0  0  0  0  0
    6.3020  -13.1713   25.8042 N   0  0  0  0  0  0  0  0  0  0  0  0
    9.2600  -16.3153   26.5851 C   0  0  0  0  0  0  0  0  0  0  0  0
    9.0792  -17.5334   26.6842 O   0  0  0  0  0  0  0  0  0  0  0  0
    9.5560  -15.6192   27.7424 O   0  0  0  0  0  0  0  0  0  0  0  0
  2  3  1  1
  2  1  1  0
  4  2  1  0
  4  5  1  1
  6  4  1  0
  7  6  2  0
  8  6  1  0
  9 10  1  6
  9  8  1  0
 10 11  1  0
 11 15  1  0
 11 12  2  0
 13  9  1  0
 14 13  2  0
 16 13  1  0
 17 18  1  6
 17 16  1  0
 18 19  1  0
 19 20  2  0
 20 21  1  0
 22 21  1  0
 23 19  1  0
 23 22  2  0
 24 17  1  0
 25 24  2  0
 26 24  1  0
M  END
$$$$
