VDH.pdb
     RDKit          3D

 26 26  0  0  1  0  0  0  0  0999 V2000
    7.5757  -12.9262   20.0143 C   0  0  0  0  0  0  0  0  0  0  0  0
    7.3850  -13.6837   18.7167 C   0  0  1  0  0  0  0  0  0  0  0  0
    7.2052  -12.7672   17.5513 C   0  0  0  0  0  0  0  0  0  0  0  0
    8.5686  -14.6096   18.5665 C   0  0  2  0  0  0  0  0  0  0  0  0
    8.4619  -15.3990   17.3705 N   0  0  0  0  0  0  0  0  0  0  0  0
    8.7586  -15.4937   19.7256 C   0  0  0  0  0  0  0  0  0  0  0  0
    8.8724  -15.0472   20.9028 O   0  0  0  0  0  0  0  0  0  0  0  0
    8.8174  -16.8970   19.5239 N   0  0  0  0  0  0  0  0  0  0  0  0
    9.0292  -17.8347   20.6603 C   0  0  1  0  0  0  0  0  0  0  0  0
    8.7372  -19.2326   20.2058 C   0  0  0  0  0  0  0  0  0  0  0  0
    8.8594  -20.2210   21.2772 C   0  0  0  0  0  0  0  0  0  0  0  0
    9.1397  -20.0264   22.4743 O   0  0  0  0  0  0  0  0  0  0  0  0
   10.4331  -17.6435   21.0699 C   0  0  0  0  0  0  0  0  0  0  0  0
   11.3711  -18.0409   20.3613 O   0  0  0  0  0  0  0  0  0  0  0  0
    8.6354  -21.5680   20.9308 O   0  0  0  0  0  0  0  0  0  0  0  0
   10.7332  -16.9985   22.2875 N   0  0  0  0  0  0  0  0  0  0  0  0
   12.1502  -16.8943   22.7187 C   0  0  1  0  0  0  0  0  0  0  0  0
   12.6655  -15.5481   22.3556 C   0  0  0  0  0  0  0  0  0  0  0  0
   13.0159  -15.2959   20.9813 C   0  0  0  0  0  0  0  0  0  0  0  0
   12.5281  -14.4059   20.0757 C   0  0  0  0  0  0  0  0  0  0  0  0
   13.2333  -14.4990   18.9052 N   0  0  0  0  0  0  0  0  0  0  0  0
   14.1417  -15.4384   19.1048 C   0  0  0  0  0  0  0  0  0  0  0  0
   14.0407  -15.9371   20.3371 N   0  0  0  0  0  0  0  0  0  0  0  0
   12.0943  -17.1362   24.1692 C   0  0  0  0  0  0  0  0  0  0  0  0
   11.0314  -17.3431   24.7638 O   0  0  0  0  0  0  0  0  0  0  0  0
   13.2551  -17.1380   24.9203 O   0  0  0  0  0  0  0  0  0  0  0  0
  2  3  1  6
  2  1  1  0
  4  2  1  0
  4  5  1  6
  6  4  1  0
  7  6  2  0
  8  6  1  0
  9 10  1  6
  9  8  1  0
 10 11  1  0
 11 15  1  0
 11 12  2  0
 13  9  1  0
 14 13  2  0
 16 13  1  0
 17 18  1  1
 17 16  1  0
 18 19  1  0
 19 20  2  0
 20 21  1  0
 22 21  1  0
 23 19  1  0
 23 22  2  0
 24 17  1  0
 25 24  2  0
 26 24  1  0
M  END
$$$$
