VDH.pdb
     RDKit          3D

 26 26  0  0  1  0  0  0  0  0999 V2000
    7.5206  -15.0116   19.5223 C   0  0  0  0  0  0  0  0  0  0  0  0
    8.0811  -13.7842   18.8344 C   0  0  1  0  0  0  0  0  0  0  0  0
    7.1370  -12.6283   18.8884 C   0  0  0  0  0  0  0  0  0  0  0  0
    9.4172  -13.4896   19.4738 C   0  0  2  0  0  0  0  0  0  0  0  0
   10.0516  -12.3591   18.8538 N   0  0  0  0  0  0  0  0  0  0  0  0
   10.3315  -14.6406   19.4535 C   0  0  0  0  0  0  0  0  0  0  0  0
    9.9851  -15.7842   19.8662 O   0  0  0  0  0  0  0  0  0  0  0  0
   11.6490  -14.4698   18.9552 N   0  0  0  0  0  0  0  0  0  0  0  0
   12.6562  -15.5625   19.0381 C   0  0  1  0  0  0  0  0  0  0  0  0
   13.6343  -15.4168   17.9120 C   0  0  0  0  0  0  0  0  0  0  0  0
   13.1170  -15.9100   16.6359 C   0  0  0  0  0  0  0  0  0  0  0  0
   12.4368  -16.9311   16.4251 O   0  0  0  0  0  0  0  0  0  0  0  0
   13.2815  -15.4194   20.3663 C   0  0  0  0  0  0  0  0  0  0  0  0
   13.6880  -14.3195   20.7722 O   0  0  0  0  0  0  0  0  0  0  0  0
   13.4151  -15.1477   15.4894 O   0  0  0  0  0  0  0  0  0  0  0  0
   13.4280  -16.5442   21.2041 N   0  0  0  0  0  0  0  0  0  0  0  0
   14.0441  -16.3706   22.5439 C   0  0  1  0  0  0  0  0  0  0  0  0
   13.2410  -17.1227   23.5435 C   0  0  0  0  0  0  0  0  0  0  0  0
   11.9126  -16.6556   23.8470 C   0  0  0  0  0  0  0  0  0  0  0  0
   11.3964  -15.4000   23.9328 C   0  0  0  0  0  0  0  0  0  0  0  0
   10.0518  -15.4658   24.1856 N   0  0  0  0  0  0  0  0  0  0  0  0
    9.7593  -16.7534   24.2504 C   0  0  0  0  0  0  0  0  0  0  0  0
   10.8494  -17.4947   24.0521 N   0  0  0  0  0  0  0  0  0  0  0  0
   15.4108  -16.8880   22.3713 C   0  0  0  0  0  0  0  0  0  0  0  0
   15.8111  -17.3513   21.2983 O   0  0  0  0  0  0  0  0  0  0  0  0
   16.3016  -16.8687   23.4285 O   0  0  0  0  0  0  0  0  0  0  0  0
  2  3  1  1
  2  1  1  0
  4  2  1  0
  4  5  1  6
  6  4  1  0
  7  6  2  0
  8  6  1  0
  9 10  1  6
  9  8  1  0
 10 11  1  0
 11 15  1  0
 11 12  2  0
 13  9  1  0
 14 13  2  0
 16 13  1  0
 17 18  1  1
 17 16  1  0
 18 19  1  0
 19 20  2  0
 20 21  1  0
 22 21  1  0
 23 19  1  0
 23 22  2  0
 24 17  1  0
 25 24  2  0
 26 24  1  0
M  END
$$$$
