VDH.pdb
     RDKit          3D

 26 26  0  0  1  0  0  0  0  0999 V2000
    6.8786  -13.1075   19.0824 C   0  0  0  0  0  0  0  0  0  0  0  0
    8.1050  -13.8434   19.5808 C   0  0  1  0  0  0  0  0  0  0  0  0
    9.0186  -12.9531   20.3575 C   0  0  0  0  0  0  0  0  0  0  0  0
    7.6162  -15.0308   20.3758 C   0  0  2  0  0  0  0  0  0  0  0  0
    6.7977  -14.6145   21.4811 N   0  0  0  0  0  0  0  0  0  0  0  0
    8.7082  -15.8849   20.8651 C   0  0  0  0  0  0  0  0  0  0  0  0
    9.5125  -16.4659   20.0818 O   0  0  0  0  0  0  0  0  0  0  0  0
    8.8710  -16.0681   22.2627 N   0  0  0  0  0  0  0  0  0  0  0  0
   10.0803  -16.7322   22.8211 C   0  0  1  0  0  0  0  0  0  0  0  0
   11.3043  -16.0235   22.3253 C   0  0  0  0  0  0  0  0  0  0  0  0
   12.0433  -16.7894   21.3220 C   0  0  0  0  0  0  0  0  0  0  0  0
   12.9878  -16.4084   20.6062 O   0  0  0  0  0  0  0  0  0  0  0  0
    9.9264  -16.6594   24.2862 C   0  0  0  0  0  0  0  0  0  0  0  0
   10.9001  -16.4531   25.0271 O   0  0  0  0  0  0  0  0  0  0  0  0
   11.6522  -18.1286   21.1264 O   0  0  0  0  0  0  0  0  0  0  0  0
    8.6548  -16.8254   24.8730 N   0  0  0  0  0  0  0  0  0  0  0  0
    8.5332  -16.7937   26.3525 C   0  0  1  0  0  0  0  0  0  0  0  0
    7.2801  -16.0820   26.7168 C   0  0  0  0  0  0  0  0  0  0  0  0
    7.2333  -14.6511   26.5577 C   0  0  0  0  0  0  0  0  0  0  0  0
    8.2197  -13.7148   26.5288 C   0  0  0  0  0  0  0  0  0  0  0  0
    7.6814  -12.4790   26.2854 N   0  0  0  0  0  0  0  0  0  0  0  0
    6.3787  -12.6697   26.1669 C   0  0  0  0  0  0  0  0  0  0  0  0
    6.0750  -13.9583   26.3238 N   0  0  0  0  0  0  0  0  0  0  0  0
    8.5408  -18.2145   26.7356 C   0  0  0  0  0  0  0  0  0  0  0  0
    8.3739  -19.1212   25.9133 O   0  0  0  0  0  0  0  0  0  0  0  0
    8.7391  -18.5792   28.0544 O   0  0  0  0  0  0  0  0  0  0  0  0
  2  3  1  1
  2  1  1  0
  4  2  1  0
  4  5  1  1
  6  4  1  0
  7  6  2  0
  8  6  1  0
  9 10  1  1
  9  8  1  0
 10 11  1  0
 11 15  1  0
 11 12  2  0
 13  9  1  0
 14 13  2  0
 16 13  1  0
 17 18  1  6
 17 16  1  0
 18 19  1  0
 19 20  2  0
 20 21  1  0
 22 21  1  0
 23 19  1  0
 23 22  2  0
 24 17  1  0
 25 24  2  0
 26 24  1  0
M  END
$$$$
