VDH.pdb
     RDKit          3D

 26 26  0  0  1  0  0  0  0  0999 V2000
    8.8127  -12.9454   20.7694 C   0  0  0  0  0  0  0  0  0  0  0  0
    7.7509  -13.5526   19.8764 C   0  0  1  0  0  0  0  0  0  0  0  0
    7.4204  -12.6721   18.7162 C   0  0  0  0  0  0  0  0  0  0  0  0
    8.2476  -14.9176   19.4629 C   0  0  2  0  0  0  0  0  0  0  0  0
    7.2808  -15.5960   18.6443 N   0  0  0  0  0  0  0  0  0  0  0  0
    8.6103  -15.7686   20.6055 C   0  0  0  0  0  0  0  0  0  0  0  0
    7.7722  -16.5224   21.1778 O   0  0  0  0  0  0  0  0  0  0  0  0
    9.9446  -15.7486   21.0878 N   0  0  0  0  0  0  0  0  0  0  0  0
   10.3854  -16.6532   22.1844 C   0  0  1  0  0  0  0  0  0  0  0  0
   11.7897  -17.1031   21.9168 C   0  0  0  0  0  0  0  0  0  0  0  0
   12.2858  -18.0553   22.9101 C   0  0  0  0  0  0  0  0  0  0  0  0
   11.6748  -18.5451   23.8778 O   0  0  0  0  0  0  0  0  0  0  0  0
   10.2607  -15.8596   23.4214 C   0  0  0  0  0  0  0  0  0  0  0  0
   10.5106  -14.6442   23.4354 O   0  0  0  0  0  0  0  0  0  0  0  0
   13.6205  -18.4843   22.7715 O   0  0  0  0  0  0  0  0  0  0  0  0
    9.8508  -16.4782   24.6205 N   0  0  0  0  0  0  0  0  0  0  0  0
    9.3276  -15.6352   25.7251 C   0  0  1  0  0  0  0  0  0  0  0  0
    7.9647  -15.1631   25.3656 C   0  0  0  0  0  0  0  0  0  0  0  0
    7.4407  -14.0033   26.0404 C   0  0  0  0  0  0  0  0  0  0  0  0
    7.9834  -13.1880   26.9844 C   0  0  0  0  0  0  0  0  0  0  0  0
    7.1159  -12.1681   27.2730 N   0  0  0  0  0  0  0  0  0  0  0  0
    6.0574  -12.3667   26.5064 C   0  0  0  0  0  0  0  0  0  0  0  0
    6.2176  -13.4564   25.7553 N   0  0  0  0  0  0  0  0  0  0  0  0
    9.3560  -16.5299   26.8931 C   0  0  0  0  0  0  0  0  0  0  0  0
    9.1476  -16.1241   28.0412 O   0  0  0  0  0  0  0  0  0  0  0  0
    9.6225  -17.8770   26.7322 O   0  0  0  0  0  0  0  0  0  0  0  0
  2  3  1  6
  2  1  1  0
  4  2  1  0
  4  5  1  1
  6  4  1  0
  7  6  2  0
  8  6  1  0
  9 10  1  6
  9  8  1  0
 10 11  1  0
 11 15  1  0
 11 12  2  0
 13  9  1  0
 14 13  2  0
 16 13  1  0
 17 18  1  6
 17 16  1  0
 18 19  1  0
 19 20  2  0
 20 21  1  0
 22 21  1  0
 23 19  1  0
 23 22  2  0
 24 17  1  0
 25 24  2  0
 26 24  1  0
M  END
$$$$
