VDH.pdb
     RDKit          3D

 26 26  0  0  1  0  0  0  0  0999 V2000
    7.6587  -12.5542   19.5126 C   0  0  0  0  0  0  0  0  0  0  0  0
    7.9983  -13.4533   20.6832 C   0  0  1  0  0  0  0  0  0  0  0  0
    6.9678  -13.3858   21.7621 C   0  0  0  0  0  0  0  0  0  0  0  0
    8.1891  -14.8460   20.1311 C   0  0  2  0  0  0  0  0  0  0  0  0
    6.9533  -15.3789   19.6275 N   0  0  0  0  0  0  0  0  0  0  0  0
    8.7662  -15.7791   21.1096 C   0  0  0  0  0  0  0  0  0  0  0  0
    8.0726  -16.6634   21.6884 O   0  0  0  0  0  0  0  0  0  0  0  0
   10.1479  -15.6901   21.4200 N   0  0  0  0  0  0  0  0  0  0  0  0
   10.7949  -16.6500   22.3555 C   0  0  1  0  0  0  0  0  0  0  0  0
   12.2812  -16.5901   22.1721 C   0  0  0  0  0  0  0  0  0  0  0  0
   12.9995  -17.5683   22.9886 C   0  0  0  0  0  0  0  0  0  0  0  0
   13.2684  -17.5071   24.2025 O   0  0  0  0  0  0  0  0  0  0  0  0
   10.3637  -16.2349   23.7036 C   0  0  0  0  0  0  0  0  0  0  0  0
   10.1318  -15.0450   23.9682 O   0  0  0  0  0  0  0  0  0  0  0  0
   13.4519  -18.7329   22.3378 O   0  0  0  0  0  0  0  0  0  0  0  0
   10.2069  -17.1962   24.7235 N   0  0  0  0  0  0  0  0  0  0  0  0
    9.5796  -16.7908   26.0067 C   0  0  1  0  0  0  0  0  0  0  0  0
    8.1399  -16.5068   25.7696 C   0  0  0  0  0  0  0  0  0  0  0  0
    7.6918  -15.1392   25.8308 C   0  0  0  0  0  0  0  0  0  0  0  0
    8.3651  -13.9796   26.0600 C   0  0  0  0  0  0  0  0  0  0  0  0
    7.5095  -12.9155   25.9524 N   0  0  0  0  0  0  0  0  0  0  0  0
    6.3280  -13.4306   25.6585 C   0  0  0  0  0  0  0  0  0  0  0  0
    6.4004  -14.7593   25.5776 N   0  0  0  0  0  0  0  0  0  0  0  0
    9.8187  -17.9411   26.8929 C   0  0  0  0  0  0  0  0  0  0  0  0
   10.0693  -19.0696   26.4572 O   0  0  0  0  0  0  0  0  0  0  0  0
    9.7677  -17.7852   28.2657 O   0  0  0  0  0  0  0  0  0  0  0  0
  2  3  1  1
  2  1  1  0
  4  2  1  0
  4  5  1  1
  6  4  1  0
  7  6  2  0
  8  6  1  0
  9 10  1  1
  9  8  1  0
 10 11  1  0
 11 15  1  0
 11 12  2  0
 13  9  1  0
 14 13  2  0
 16 13  1  0
 17 18  1  6
 17 16  1  0
 18 19  1  0
 19 20  2  0
 20 21  1  0
 22 21  1  0
 23 19  1  0
 23 22  2  0
 24 17  1  0
 25 24  2  0
 26 24  1  0
M  END
$$$$
