VDH.pdb
     RDKit          3D

 26 26  0  0  1  0  0  0  0  0999 V2000
    8.3053  -12.0146   19.3183 C   0  0  0  0  0  0  0  0  0  0  0  0
    7.6387  -13.2024   19.9807 C   0  0  1  0  0  0  0  0  0  0  0  0
    7.2083  -14.2320   18.9881 C   0  0  0  0  0  0  0  0  0  0  0  0
    8.6073  -13.7374   21.0086 C   0  0  2  0  0  0  0  0  0  0  0  0
    9.7945  -14.2532   20.3845 N   0  0  0  0  0  0  0  0  0  0  0  0
    8.0169  -14.7691   21.8737 C   0  0  0  0  0  0  0  0  0  0  0  0
    6.8702  -14.6408   22.3901 O   0  0  0  0  0  0  0  0  0  0  0  0
    8.7534  -15.9517   22.1427 N   0  0  0  0  0  0  0  0  0  0  0  0
    8.1473  -17.0890   22.8874 C   0  0  1  0  0  0  0  0  0  0  0  0
    8.6193  -18.3783   22.2863 C   0  0  0  0  0  0  0  0  0  0  0  0
    8.2369  -18.5302   20.8827 C   0  0  0  0  0  0  0  0  0  0  0  0
    8.9627  -18.4466   19.8748 O   0  0  0  0  0  0  0  0  0  0  0  0
    8.5776  -16.9147   24.2874 C   0  0  0  0  0  0  0  0  0  0  0  0
    8.1822  -17.6773   25.1829 O   0  0  0  0  0  0  0  0  0  0  0  0
    6.8811  -18.8063   20.6173 O   0  0  0  0  0  0  0  0  0  0  0  0
    9.4550  -15.8661   24.6325 N   0  0  0  0  0  0  0  0  0  0  0  0
    9.7051  -15.5772   26.0673 C   0  0  1  0  0  0  0  0  0  0  0  0
    8.4178  -15.2149   26.7162 C   0  0  0  0  0  0  0  0  0  0  0  0
    7.8117  -13.9522   26.3794 C   0  0  0  0  0  0  0  0  0  0  0  0
    8.2010  -12.9639   25.5297 C   0  0  0  0  0  0  0  0  0  0  0  0
    7.2515  -11.9773   25.4972 N   0  0  0  0  0  0  0  0  0  0  0  0
    6.2951  -12.3694   26.3213 C   0  0  0  0  0  0  0  0  0  0  0  0
    6.5972  -13.5477   26.8669 N   0  0  0  0  0  0  0  0  0  0  0  0
   10.2962  -16.8241   26.5784 C   0  0  0  0  0  0  0  0  0  0  0  0
   10.4041  -17.8382   25.8811 O   0  0  0  0  0  0  0  0  0  0  0  0
   10.7561  -16.8944   27.8803 O   0  0  0  0  0  0  0  0  0  0  0  0
  2  3  1  6
  2  1  1  0
  4  2  1  0
  4  5  1  6
  6  4  1  0
  7  6  2  0
  8  6  1  0
  9 10  1  6
  9  8  1  0
 10 11  1  0
 11 15  1  0
 11 12  2  0
 13  9  1  0
 14 13  2  0
 16 13  1  0
 17 18  1  1
 17 16  1  0
 18 19  1  0
 19 20  2  0
 20 21  1  0
 22 21  1  0
 23 19  1  0
 23 22  2  0
 24 17  1  0
 25 24  2  0
 26 24  1  0
M  END
$$$$
