VDH.pdb
     RDKit          3D

 26 26  0  0  1  0  0  0  0  0999 V2000
    7.9378  -12.4052   18.9882 C   0  0  0  0  0  0  0  0  0  0  0  0
    8.2706  -13.4647   20.0179 C   0  0  1  0  0  0  0  0  0  0  0  0
    7.4150  -13.3533   21.2369 C   0  0  0  0  0  0  0  0  0  0  0  0
    8.1516  -14.8039   19.3298 C   0  0  2  0  0  0  0  0  0  0  0  0
    6.8358  -14.9921   18.7838 N   0  0  0  0  0  0  0  0  0  0  0  0
    8.4876  -15.9342   20.2078 C   0  0  0  0  0  0  0  0  0  0  0  0
    7.6354  -16.8072   20.5390 O   0  0  0  0  0  0  0  0  0  0  0  0
    9.8112  -16.0558   20.7042 N   0  0  0  0  0  0  0  0  0  0  0  0
   10.1935  -17.1578   21.6287 C   0  0  1  0  0  0  0  0  0  0  0  0
   11.2562  -17.9950   20.9837 C   0  0  0  0  0  0  0  0  0  0  0  0
   11.7012  -19.1051   21.8257 C   0  0  0  0  0  0  0  0  0  0  0  0
   11.0166  -19.8195   22.5811 O   0  0  0  0  0  0  0  0  0  0  0  0
   10.6537  -16.4929   22.8622 C   0  0  0  0  0  0  0  0  0  0  0  0
   11.6603  -15.7672   22.8663 O   0  0  0  0  0  0  0  0  0  0  0  0
   13.0736  -19.4212   21.7914 O   0  0  0  0  0  0  0  0  0  0  0  0
    9.9478  -16.6747   24.0694 N   0  0  0  0  0  0  0  0  0  0  0  0
   10.3999  -15.9524   25.2854 C   0  0  1  0  0  0  0  0  0  0  0  0
    9.3048  -15.9707   26.2905 C   0  0  0  0  0  0  0  0  0  0  0  0
    9.5524  -15.3888   27.5847 C   0  0  0  0  0  0  0  0  0  0  0  0
    9.8922  -14.1246   27.9544 C   0  0  0  0  0  0  0  0  0  0  0  0
    9.9531  -14.0394   29.3201 N   0  0  0  0  0  0  0  0  0  0  0  0
    9.6503  -15.2447   29.7708 C   0  0  0  0  0  0  0  0  0  0  0  0
    9.4044  -16.0778   28.7594 N   0  0  0  0  0  0  0  0  0  0  0  0
   11.6020  -16.6902   25.7051 C   0  0  0  0  0  0  0  0  0  0  0  0
   12.6120  -16.1199   26.1303 O   0  0  0  0  0  0  0  0  0  0  0  0
   11.6327  -18.0705   25.6327 O   0  0  0  0  0  0  0  0  0  0  0  0
  2  3  1  1
  2  1  1  0
  4  2  1  0
  4  5  1  1
  6  4  1  0
  7  6  2  0
  8  6  1  0
  9 10  1  6
  9  8  1  0
 10 11  1  0
 11 15  1  0
 11 12  2  0
 13  9  1  0
 14 13  2  0
 16 13  1  0
 17 18  1  1
 17 16  1  0
 18 19  1  0
 19 20  2  0
 20 21  1  0
 22 21  1  0
 23 19  1  0
 23 22  2  0
 24 17  1  0
 25 24  2  0
 26 24  1  0
M  END
$$$$
