VDH.pdb
     RDKit          3D

 26 26  0  0  1  0  0  0  0  0999 V2000
    8.8385  -12.0713   18.9749 C   0  0  0  0  0  0  0  0  0  0  0  0
    8.9353  -13.2012   19.9788 C   0  0  1  0  0  0  0  0  0  0  0  0
    7.7224  -13.2893   20.8456 C   0  0  0  0  0  0  0  0  0  0  0  0
    9.1994  -14.4664   19.1974 C   0  0  2  0  0  0  0  0  0  0  0  0
    8.0703  -14.8179   18.3811 N   0  0  0  0  0  0  0  0  0  0  0  0
    9.5636  -15.6055   20.0523 C   0  0  0  0  0  0  0  0  0  0  0  0
    8.7669  -16.5607   20.2785 O   0  0  0  0  0  0  0  0  0  0  0  0
   10.8513  -15.6411   20.6473 N   0  0  0  0  0  0  0  0  0  0  0  0
   11.3089  -16.8189   21.4338 C   0  0  1  0  0  0  0  0  0  0  0  0
   12.7512  -17.0858   21.1264 C   0  0  0  0  0  0  0  0  0  0  0  0
   12.9378  -18.0791   20.0691 C   0  0  0  0  0  0  0  0  0  0  0  0
   12.1590  -18.9852   19.7195 O   0  0  0  0  0  0  0  0  0  0  0  0
   11.0775  -16.4612   22.8459 C   0  0  0  0  0  0  0  0  0  0  0  0
   11.6229  -15.4711   23.3578 O   0  0  0  0  0  0  0  0  0  0  0  0
   14.1440  -18.0196   19.3437 O   0  0  0  0  0  0  0  0  0  0  0  0
   10.2227  -17.2491   23.6443 N   0  0  0  0  0  0  0  0  0  0  0  0
   10.0830  -16.9269   25.0870 C   0  0  1  0  0  0  0  0  0  0  0  0
    8.6428  -16.7308   25.3985 C   0  0  0  0  0  0  0  0  0  0  0  0
    8.0446  -15.4546   25.1008 C   0  0  0  0  0  0  0  0  0  0  0  0
    8.5685  -14.3143   24.5757 C   0  0  0  0  0  0  0  0  0  0  0  0
    7.5810  -13.3784   24.4172 N   0  0  0  0  0  0  0  0  0  0  0  0
    6.4685  -13.9518   24.8428 C   0  0  0  0  0  0  0  0  0  0  0  0
    6.7089  -15.1953   25.2590 N   0  0  0  0  0  0  0  0  0  0  0  0
   10.6835  -18.0866   25.7652 C   0  0  0  0  0  0  0  0  0  0  0  0
   10.9977  -19.1163   25.1593 O   0  0  0  0  0  0  0  0  0  0  0  0
   10.9164  -18.0531   27.1276 O   0  0  0  0  0  0  0  0  0  0  0  0
  2  3  1  6
  2  1  1  0
  4  2  1  0
  4  5  1  1
  6  4  1  0
  7  6  2  0
  8  6  1  0
  9 10  1  1
  9  8  1  0
 10 11  1  0
 11 15  1  0
 11 12  2  0
 13  9  1  0
 14 13  2  0
 16 13  1  0
 17 18  1  1
 17 16  1  0
 18 19  1  0
 19 20  2  0
 20 21  1  0
 22 21  1  0
 23 19  1  0
 23 22  2  0
 24 17  1  0
 25 24  2  0
 26 24  1  0
M  END
$$$$
