VDH.pdb
     RDKit          3D

 26 26  0  0  1  0  0  0  0  0999 V2000
    9.0361  -13.0691   20.9591 C   0  0  0  0  0  0  0  0  0  0  0  0
    7.8766  -13.4724   20.0721 C   0  0  1  0  0  0  0  0  0  0  0  0
    7.5089  -12.3973   19.1029 C   0  0  0  0  0  0  0  0  0  0  0  0
    8.2624  -14.7694   19.4014 C   0  0  2  0  0  0  0  0  0  0  0  0
    7.2146  -15.2390   18.5374 N   0  0  0  0  0  0  0  0  0  0  0  0
    8.6244  -15.8263   20.3570 C   0  0  0  0  0  0  0  0  0  0  0  0
    7.7604  -16.5848   20.8828 O   0  0  0  0  0  0  0  0  0  0  0  0
    9.9878  -16.0071   20.7060 N   0  0  0  0  0  0  0  0  0  0  0  0
   10.4093  -17.0717   21.6568 C   0  0  1  0  0  0  0  0  0  0  0  0
   11.6518  -17.7305   21.1388 C   0  0  0  0  0  0  0  0  0  0  0  0
   12.1955  -18.7310   22.0568 C   0  0  0  0  0  0  0  0  0  0  0  0
   11.5895  -19.3921   22.9201 O   0  0  0  0  0  0  0  0  0  0  0  0
   10.6156  -16.3864   22.9465 C   0  0  0  0  0  0  0  0  0  0  0  0
   11.2482  -15.3212   23.0164 O   0  0  0  0  0  0  0  0  0  0  0  0
   13.5768  -18.9938   21.9685 O   0  0  0  0  0  0  0  0  0  0  0  0
   10.0904  -16.9386   24.1330 N   0  0  0  0  0  0  0  0  0  0  0  0
   10.3706  -16.2670   25.4272 C   0  0  1  0  0  0  0  0  0  0  0  0
    9.8132  -14.8896   25.3847 C   0  0  0  0  0  0  0  0  0  0  0  0
    8.3828  -14.7271   25.4346 C   0  0  0  0  0  0  0  0  0  0  0  0
    7.3708  -15.6353   25.3981 C   0  0  0  0  0  0  0  0  0  0  0  0
    6.1674  -14.9975   25.5440 N   0  0  0  0  0  0  0  0  0  0  0  0
    6.4527  -13.7127   25.6690 C   0  0  0  0  0  0  0  0  0  0  0  0
    7.7697  -13.5146   25.6084 N   0  0  0  0  0  0  0  0  0  0  0  0
    9.7238  -17.1377   26.4217 C   0  0  0  0  0  0  0  0  0  0  0  0
    9.7165  -16.8709   27.6279 O   0  0  0  0  0  0  0  0  0  0  0  0
    9.0939  -18.3021   26.0231 O   0  0  0  0  0  0  0  0  0  0  0  0
  2  3  1  6
  2  1  1  0
  4  2  1  0
  4  5  1  1
  6  4  1  0
  7  6  2  0
  8  6  1  0
  9 10  1  6
  9  8  1  0
 10 11  1  0
 11 15  1  0
 11 12  2  0
 13  9  1  0
 14 13  2  0
 16 13  1  0
 17 18  1  6
 17 16  1  0
 18 19  1  0
 19 20  2  0
 20 21  1  0
 22 21  1  0
 23 19  1  0
 23 22  2  0
 24 17  1  0
 25 24  2  0
 26 24  1  0
M  END
$$$$
