NYW.pdb
     RDKit          3D

 35 37  0  0  1  0  0  0  0  0999 V2000
    8.5180  -18.1608   16.0282 N   0  0  0  0  0  0  0  0  0  0  0  0
    8.2805  -16.9080   16.6568 C   0  0  0  0  0  0  0  0  0  0  0  0
    8.6067  -15.8614   16.0424 O   0  0  0  0  0  0  0  0  0  0  0  0
    7.6732  -16.8170   17.9853 C   0  0  0  0  0  0  0  0  0  0  0  0
    7.3732  -18.2052   18.5692 C   0  0  2  0  0  0  0  0  0  0  0  0
    6.0575  -18.5544   18.0660 N   0  0  0  0  0  0  0  0  0  0  0  0
    7.3497  -18.0169   20.0447 C   0  0  0  0  0  0  0  0  0  0  0  0
    6.7430  -16.9951   20.4793 O   0  0  0  0  0  0  0  0  0  0  0  0
    8.0234  -19.6349   28.7580 O   0  0  0  0  0  0  0  0  0  0  0  0
    7.9687  -19.7330   27.3516 C   0  0  0  0  0  0  0  0  0  0  0  0
    6.7779  -19.6287   26.7030 C   0  0  0  0  0  0  0  0  0  0  0  0
    6.7297  -19.7271   25.3042 C   0  0  0  0  0  0  0  0  0  0  0  0
    7.8770  -19.9289   24.5731 C   0  0  0  0  0  0  0  0  0  0  0  0
    7.8263  -20.0287   23.1262 C   0  0  0  0  0  0  0  0  0  0  0  0
    7.8165  -18.6944   22.4003 C   0  0  2  0  0  0  0  0  0  0  0  0
    7.9594  -18.9082   20.9515 N   0  0  0  0  0  0  0  0  0  0  0  0
    8.9142  -17.8310   22.9062 C   0  0  0  0  0  0  0  0  0  0  0  0
   10.0952  -18.0731   22.4767 O   0  0  0  0  0  0  0  0  0  0  0  0
    9.0655  -20.0307   25.2505 C   0  0  0  0  0  0  0  0  0  0  0  0
    9.1271  -19.9348   26.6392 C   0  0  0  0  0  0  0  0  0  0  0  0
    8.7778  -16.7742   23.8116 N   0  0  0  0  0  0  0  0  0  0  0  0
    9.9386  -15.9664   24.2592 C   0  0  1  0  0  0  0  0  0  0  0  0
    9.5062  -14.5851   24.5690 C   0  0  0  0  0  0  0  0  0  0  0  0
    8.2887  -14.5326   25.3782 C   0  0  0  0  0  0  0  0  0  0  0  0
    7.5841  -15.6288   25.9127 C   0  0  0  0  0  0  0  0  0  0  0  0
    6.4942  -15.2108   26.5618 N   0  0  0  0  0  0  0  0  0  0  0  0
    6.4529  -13.8810   26.4773 C   0  0  0  0  0  0  0  0  0  0  0  0
    5.5429  -12.9719   26.9977 C   0  0  0  0  0  0  0  0  0  0  0  0
    5.7056  -11.5997   26.8086 C   0  0  0  0  0  0  0  0  0  0  0  0
    6.7971  -11.1636   26.0888 C   0  0  0  0  0  0  0  0  0  0  0  0
    7.7115  -12.0460   25.5627 C   0  0  0  0  0  0  0  0  0  0  0  0
    7.5392  -13.4198   25.7571 C   0  0  0  0  0  0  0  0  0  0  0  0
   10.5432  -16.6622   25.3838 C   0  0  0  0  0  0  0  0  0  0  0  0
    9.9358  -17.5629   26.0473 O   0  0  0  0  0  0  0  0  0  0  0  0
   11.8410  -16.3925   25.8087 O   0  0  0  0  0  0  0  0  0  0  0  0
  2  1  1  0
  3  2  2  0
  4  2  1  0
  5  6  1  6
  5  4  1  0
  7  5  1  0
  8  7  2  0
  9 10  1  0
 10 20  2  0
 10 11  1  0
 11 12  2  0
 12 13  1  0
 13 14  1  0
 15 14  1  1
 15 17  1  0
 15 16  1  0
 16  7  1  0
 17 21  1  0
 18 17  2  0
 19 13  2  0
 20 19  1  0
 22 21  1  0
 22 23  1  1
 22 33  1  0
 24 32  1  0
 24 23  1  0
 25 24  2  0
 26 25  1  0
 26 27  1  0
 27 32  2  0
 28 27  1  0
 28 29  2  0
 29 30  1  0
 30 31  2  0
 32 31  1  0
 33 34  2  0
 33 35  1  0
M  END
$$$$
