NYW.pdb
     RDKit          3D

 35 37  0  0  1  0  0  0  0  0999 V2000
   12.2507  -19.4341   18.5256 N   0  0  0  0  0  0  0  0  0  0  0  0
   12.1270  -18.1067   18.0323 C   0  0  0  0  0  0  0  0  0  0  0  0
   12.6299  -17.8375   16.9124 O   0  0  0  0  0  0  0  0  0  0  0  0
   11.4362  -17.0647   18.7932 C   0  0  0  0  0  0  0  0  0  0  0  0
   10.9364  -17.5873   20.1479 C   0  0  2  0  0  0  0  0  0  0  0  0
    9.7588  -18.3779   19.8408 N   0  0  0  0  0  0  0  0  0  0  0  0
   10.5780  -16.3746   20.9316 C   0  0  0  0  0  0  0  0  0  0  0  0
   11.4588  -15.4702   21.0170 O   0  0  0  0  0  0  0  0  0  0  0  0
    7.4827  -13.9072   16.0953 O   0  0  0  0  0  0  0  0  0  0  0  0
    7.5413  -14.0232   17.5002 C   0  0  0  0  0  0  0  0  0  0  0  0
    7.1061  -15.1565   18.1132 C   0  0  0  0  0  0  0  0  0  0  0  0
    7.1669  -15.2662   19.5107 C   0  0  0  0  0  0  0  0  0  0  0  0
    7.6637  -14.2372   20.2762 C   0  0  0  0  0  0  0  0  0  0  0  0
    7.7277  -14.3523   21.7214 C   0  0  0  0  0  0  0  0  0  0  0  0
    9.0264  -14.9345   22.2524 C   0  0  2  0  0  0  0  0  0  0  0  0
    9.3299  -16.1991   21.5641 N   0  0  0  0  0  0  0  0  0  0  0  0
    8.9245  -15.1549   23.7178 C   0  0  0  0  0  0  0  0  0  0  0  0
    8.4520  -14.1970   24.4228 O   0  0  0  0  0  0  0  0  0  0  0  0
    8.0963  -13.1047   19.6344 C   0  0  0  0  0  0  0  0  0  0  0  0
    8.0414  -12.9831   18.2473 C   0  0  0  0  0  0  0  0  0  0  0  0
    9.2981  -16.3155   24.4022 N   0  0  0  0  0  0  0  0  0  0  0  0
    9.9540  -16.2686   25.7318 C   0  0  1  0  0  0  0  0  0  0  0  0
    8.9344  -16.3295   26.8030 C   0  0  0  0  0  0  0  0  0  0  0  0
    7.8247  -15.3998   26.5927 C   0  0  0  0  0  0  0  0  0  0  0  0
    6.5465  -15.7130   26.0907 C   0  0  0  0  0  0  0  0  0  0  0  0
    5.8012  -14.6090   25.9916 N   0  0  0  0  0  0  0  0  0  0  0  0
    6.5377  -13.5796   26.4099 C   0  0  0  0  0  0  0  0  0  0  0  0
    6.2234  -12.2329   26.5239 C   0  0  0  0  0  0  0  0  0  0  0  0
    7.1502  -11.3151   27.0176 C   0  0  0  0  0  0  0  0  0  0  0  0
    8.3933  -11.7780   27.3921 C   0  0  0  0  0  0  0  0  0  0  0  0
    8.7276  -13.1080   27.2872 C   0  0  0  0  0  0  0  0  0  0  0  0
    7.7918  -14.0202   26.7903 C   0  0  0  0  0  0  0  0  0  0  0  0
   10.9225  -17.3523   25.7760 C   0  0  0  0  0  0  0  0  0  0  0  0
   11.0879  -18.1715   24.8159 O   0  0  0  0  0  0  0  0  0  0  0  0
   11.7459  -17.5634   26.8783 O   0  0  0  0  0  0  0  0  0  0  0  0
  2  1  1  0
  3  2  2  0
  4  2  1  0
  5  6  1  6
  5  4  1  0
  7  5  1  0
  8  7  2  0
  9 10  1  0
 10 20  2  0
 10 11  1  0
 11 12  2  0
 12 13  1  0
 13 14  1  0
 15 14  1  6
 15 17  1  0
 15 16  1  0
 16  7  1  0
 17 21  1  0
 18 17  2  0
 19 13  2  0
 20 19  1  0
 22 21  1  0
 22 23  1  1
 22 33  1  0
 24 32  1  0
 24 23  1  0
 25 24  2  0
 26 25  1  0
 26 27  1  0
 27 32  2  0
 28 27  1  0
 28 29  2  0
 29 30  1  0
 30 31  2  0
 32 31  1  0
 33 34  2  0
 33 35  1  0
M  END
$$$$
