NYW.pdb
     RDKit          3D

 35 37  0  0  1  0  0  0  0  0999 V2000
    9.8044  -15.6503   16.6008 N   0  0  0  0  0  0  0  0  0  0  0  0
    8.6122  -15.3928   17.3309 C   0  0  0  0  0  0  0  0  0  0  0  0
    7.7587  -14.6210   16.8258 O   0  0  0  0  0  0  0  0  0  0  0  0
    8.3653  -16.0002   18.6394 C   0  0  0  0  0  0  0  0  0  0  0  0
    9.6151  -16.7085   19.1819 C   0  0  2  0  0  0  0  0  0  0  0  0
    9.8187  -17.8473   18.3056 N   0  0  0  0  0  0  0  0  0  0  0  0
    9.2549  -17.1483   20.5567 C   0  0  0  0  0  0  0  0  0  0  0  0
    8.0380  -17.4244   20.7663 O   0  0  0  0  0  0  0  0  0  0  0  0
   16.0322  -18.9184   21.3095 O   0  0  0  0  0  0  0  0  0  0  0  0
   14.6774  -19.0212   21.6896 C   0  0  0  0  0  0  0  0  0  0  0  0
   13.6991  -19.0285   20.7449 C   0  0  0  0  0  0  0  0  0  0  0  0
   12.3535  -19.1310   21.1288 C   0  0  0  0  0  0  0  0  0  0  0  0
   12.0057  -19.2248   22.4563 C   0  0  0  0  0  0  0  0  0  0  0  0
   10.6138  -19.3324   22.8522 C   0  0  0  0  0  0  0  0  0  0  0  0
    9.8437  -18.0236   22.8179 C   0  0  2  0  0  0  0  0  0  0  0  0
   10.1909  -17.2666   21.6048 N   0  0  0  0  0  0  0  0  0  0  0  0
   10.1462  -17.2223   24.0315 C   0  0  0  0  0  0  0  0  0  0  0  0
   11.0880  -16.3601   23.9445 O   0  0  0  0  0  0  0  0  0  0  0  0
   13.0107  -19.2152   23.3898 C   0  0  0  0  0  0  0  0  0  0  0  0
   14.3509  -19.1139   23.0218 C   0  0  0  0  0  0  0  0  0  0  0  0
    9.4961  -17.3222   25.2654 N   0  0  0  0  0  0  0  0  0  0  0  0
    9.9485  -16.5637   26.4572 C   0  0  1  0  0  0  0  0  0  0  0  0
    8.7817  -16.1510   27.2689 C   0  0  0  0  0  0  0  0  0  0  0  0
    7.8216  -15.3383   26.5223 C   0  0  0  0  0  0  0  0  0  0  0  0
    6.7005  -15.8028   25.8073 C   0  0  0  0  0  0  0  0  0  0  0  0
    6.0732  -14.7852   25.2113 N   0  0  0  0  0  0  0  0  0  0  0  0
    6.7364  -13.6671   25.5062 C   0  0  0  0  0  0  0  0  0  0  0  0
    6.4840  -12.3490   25.1536 C   0  0  0  0  0  0  0  0  0  0  0  0
    7.3046  -11.3131   25.5997 C   0  0  0  0  0  0  0  0  0  0  0  0
    8.3785  -11.6294   26.4035 C   0  0  0  0  0  0  0  0  0  0  0  0
    8.6488  -12.9285   26.7652 C   0  0  0  0  0  0  0  0  0  0  0  0
    7.8208  -13.9601   26.3122 C   0  0  0  0  0  0  0  0  0  0  0  0
   10.8973  -17.4032   27.1710 C   0  0  0  0  0  0  0  0  0  0  0  0
   11.1148  -18.6186   26.8612 O   0  0  0  0  0  0  0  0  0  0  0  0
   11.6431  -16.9271   28.2455 O   0  0  0  0  0  0  0  0  0  0  0  0
  2  1  1  0
  3  2  2  0
  4  2  1  0
  5  6  1  6
  5  4  1  0
  7  5  1  0
  8  7  2  0
  9 10  1  0
 10 20  2  0
 10 11  1  0
 11 12  2  0
 12 13  1  0
 13 14  1  0
 15 14  1  1
 15 17  1  0
 15 16  1  0
 16  7  1  0
 17 21  1  0
 18 17  2  0
 19 13  2  0
 20 19  1  0
 22 21  1  0
 22 23  1  1
 22 33  1  0
 24 32  1  0
 24 23  1  0
 25 24  2  0
 26 25  1  0
 26 27  1  0
 27 32  2  0
 28 27  1  0
 28 29  2  0
 29 30  1  0
 30 31  2  0
 32 31  1  0
 33 34  2  0
 33 35  1  0
M  END
$$$$
