NYW.pdb
     RDKit          3D

 35 37  0  0  1  0  0  0  0  0999 V2000
    9.1451  -18.9385   16.8648 N   0  0  0  0  0  0  0  0  0  0  0  0
   10.1663  -18.9197   17.8535 C   0  0  0  0  0  0  0  0  0  0  0  0
   10.9125  -19.9254   17.9590 O   0  0  0  0  0  0  0  0  0  0  0  0
   10.3607  -17.7690   18.7366 C   0  0  0  0  0  0  0  0  0  0  0  0
   10.2699  -18.1671   20.2169 C   0  0  2  0  0  0  0  0  0  0  0  0
    8.9470  -18.7421   20.3767 N   0  0  0  0  0  0  0  0  0  0  0  0
   10.3962  -16.8946   20.9771 C   0  0  0  0  0  0  0  0  0  0  0  0
   11.4720  -16.2456   20.8274 O   0  0  0  0  0  0  0  0  0  0  0  0
    6.8844  -13.5034   16.9066 O   0  0  0  0  0  0  0  0  0  0  0  0
    7.2584  -13.6793   18.2556 C   0  0  0  0  0  0  0  0  0  0  0  0
    8.1541  -12.8353   18.8342 C   0  0  0  0  0  0  0  0  0  0  0  0
    8.5223  -13.0151   20.1762 C   0  0  0  0  0  0  0  0  0  0  0  0
    7.9871  -14.0398   20.9214 C   0  0  0  0  0  0  0  0  0  0  0  0
    8.3672  -14.2239   22.3097 C   0  0  0  0  0  0  0  0  0  0  0  0
    9.5822  -15.1108   22.5203 C   0  0  2  0  0  0  0  0  0  0  0  0
    9.3916  -16.3978   21.8330 N   0  0  0  0  0  0  0  0  0  0  0  0
    9.8087  -15.3286   23.9721 C   0  0  0  0  0  0  0  0  0  0  0  0
   10.1904  -14.3212   24.6630 O   0  0  0  0  0  0  0  0  0  0  0  0
    7.0859  -14.8775   20.3149 C   0  0  0  0  0  0  0  0  0  0  0  0
    6.7119  -14.7098   18.9832 C   0  0  0  0  0  0  0  0  0  0  0  0
    9.6436  -16.5360   24.6575 N   0  0  0  0  0  0  0  0  0  0  0  0
    9.9647  -16.6730   26.0992 C   0  0  1  0  0  0  0  0  0  0  0  0
    8.7174  -16.7811   26.8888 C   0  0  0  0  0  0  0  0  0  0  0  0
    7.7014  -15.8059   26.4932 C   0  0  0  0  0  0  0  0  0  0  0  0
    6.4643  -16.0801   25.8782 C   0  0  0  0  0  0  0  0  0  0  0  0
    5.8100  -14.9446   25.6203 N   0  0  0  0  0  0  0  0  0  0  0  0
    6.5670  -13.9317   26.0424 C   0  0  0  0  0  0  0  0  0  0  0  0
    6.3345  -12.5638   26.0256 C   0  0  0  0  0  0  0  0  0  0  0  0
    7.2649  -11.6675   26.5511 C   0  0  0  0  0  0  0  0  0  0  0  0
    8.4278  -12.1734   27.0910 C   0  0  0  0  0  0  0  0  0  0  0  0
    8.6802  -13.5251   27.1178 C   0  0  0  0  0  0  0  0  0  0  0  0
    7.7417  -14.4156   26.5877 C   0  0  0  0  0  0  0  0  0  0  0  0
   10.8530  -17.8158   26.2389 C   0  0  0  0  0  0  0  0  0  0  0  0
   11.1898  -18.5539   25.2580 O   0  0  0  0  0  0  0  0  0  0  0  0
   11.4051  -18.1774   27.4644 O   0  0  0  0  0  0  0  0  0  0  0  0
  2  1  1  0
  3  2  2  0
  4  2  1  0
  5  6  1  6
  5  4  1  0
  7  5  1  0
  8  7  2  0
  9 10  1  0
 10 20  2  0
 10 11  1  0
 11 12  2  0
 12 13  1  0
 13 14  1  0
 15 14  1  1
 15 17  1  0
 15 16  1  0
 16  7  1  0
 17 21  1  0
 18 17  2  0
 19 13  2  0
 20 19  1  0
 22 21  1  0
 22 23  1  1
 22 33  1  0
 24 32  1  0
 24 23  1  0
 25 24  2  0
 26 25  1  0
 26 27  1  0
 27 32  2  0
 28 27  1  0
 28 29  2  0
 29 30  1  0
 30 31  2  0
 32 31  1  0
 33 34  2  0
 33 35  1  0
M  END
$$$$
