NYW.pdb
     RDKit          3D

 35 37  0  0  1  0  0  0  0  0999 V2000
    9.2522  -16.4562   17.4173 N   0  0  0  0  0  0  0  0  0  0  0  0
    9.1766  -15.4363   18.4047 C   0  0  0  0  0  0  0  0  0  0  0  0
    9.5000  -14.2663   18.0793 O   0  0  0  0  0  0  0  0  0  0  0  0
    8.7365  -15.7201   19.7713 C   0  0  0  0  0  0  0  0  0  0  0  0
    8.4270  -17.2109   19.9706 C   0  0  2  0  0  0  0  0  0  0  0  0
    7.1617  -17.4314   19.2949 N   0  0  0  0  0  0  0  0  0  0  0  0
    8.2881  -17.3929   21.4405 C   0  0  0  0  0  0  0  0  0  0  0  0
    7.2708  -16.8741   21.9855 O   0  0  0  0  0  0  0  0  0  0  0  0
    8.2765  -21.5704   29.2066 O   0  0  0  0  0  0  0  0  0  0  0  0
    8.5699  -21.1323   27.8979 C   0  0  0  0  0  0  0  0  0  0  0  0
    9.8519  -20.8540   27.5396 C   0  0  0  0  0  0  0  0  0  0  0  0
   10.1377  -20.4187   26.2366 C   0  0  0  0  0  0  0  0  0  0  0  0
    9.1334  -20.2679   25.3090 C   0  0  0  0  0  0  0  0  0  0  0  0
    9.4303  -19.8194   23.9613 C   0  0  0  0  0  0  0  0  0  0  0  0
    8.8974  -18.4377   23.6230 C   0  0  2  0  0  0  0  0  0  0  0  0
    9.2196  -18.1015   22.2271 N   0  0  0  0  0  0  0  0  0  0  0  0
    9.4775  -17.4279   24.5450 C   0  0  0  0  0  0  0  0  0  0  0  0
   10.6247  -16.9485   24.2418 O   0  0  0  0  0  0  0  0  0  0  0  0
    7.8488  -20.5550   25.6950 C   0  0  0  0  0  0  0  0  0  0  0  0
    7.5516  -20.9880   26.9856 C   0  0  0  0  0  0  0  0  0  0  0  0
    8.8856  -16.9502   25.7182 N   0  0  0  0  0  0  0  0  0  0  0  0
    9.5932  -16.0248   26.6366 C   0  0  1  0  0  0  0  0  0  0  0  0
    8.6237  -15.3707   27.5439 C   0  0  0  0  0  0  0  0  0  0  0  0
    7.5776  -14.6361   26.8329 C   0  0  0  0  0  0  0  0  0  0  0  0
    6.3672  -15.1600   26.3386 C   0  0  0  0  0  0  0  0  0  0  0  0
    5.6725  -14.2111   25.7052 N   0  0  0  0  0  0  0  0  0  0  0  0
    6.3773  -13.0810   25.7633 C   0  0  0  0  0  0  0  0  0  0  0  0
    6.0889  -11.8124   25.2807 C   0  0  0  0  0  0  0  0  0  0  0  0
    6.9693  -10.7486   25.4771 C   0  0  0  0  0  0  0  0  0  0  0  0
    8.1395  -10.9866   26.1653 C   0  0  0  0  0  0  0  0  0  0  0  0
    8.4469  -12.2357   26.6520 C   0  0  0  0  0  0  0  0  0  0  0  0
    7.5582  -13.2959   26.4493 C   0  0  0  0  0  0  0  0  0  0  0  0
   10.6180  -16.7948   27.3231 C   0  0  0  0  0  0  0  0  0  0  0  0
   11.4523  -16.2712   28.1295 O   0  0  0  0  0  0  0  0  0  0  0  0
   10.7513  -18.1692   27.1483 O   0  0  0  0  0  0  0  0  0  0  0  0
  2  1  1  0
  3  2  2  0
  4  2  1  0
  5  6  1  6
  5  4  1  0
  7  5  1  0
  8  7  2  0
  9 10  1  0
 10 20  2  0
 10 11  1  0
 11 12  2  0
 12 13  1  0
 13 14  1  0
 15 14  1  1
 15 17  1  0
 15 16  1  0
 16  7  1  0
 17 21  1  0
 18 17  2  0
 19 13  2  0
 20 19  1  0
 22 21  1  0
 22 23  1  1
 22 33  1  0
 24 32  1  0
 24 23  1  0
 25 24  2  0
 26 25  1  0
 26 27  1  0
 27 32  2  0
 28 27  1  0
 28 29  2  0
 29 30  1  0
 30 31  2  0
 32 31  1  0
 33 34  2  0
 33 35  1  0
M  END
$$$$
