NYW.pdb
     RDKit          3D

 35 37  0  0  1  0  0  0  0  0999 V2000
    7.8933  -21.1555   19.8215 N   0  0  0  0  0  0  0  0  0  0  0  0
    8.5524  -20.9696   21.0673 C   0  0  0  0  0  0  0  0  0  0  0  0
    8.6202  -21.9446   21.8572 O   0  0  0  0  0  0  0  0  0  0  0  0
    9.1434  -19.6837   21.4404 C   0  0  0  0  0  0  0  0  0  0  0  0
    8.9002  -18.6136   20.3662 C   0  0  2  0  0  0  0  0  0  0  0  0
    9.6863  -19.0362   19.2220 N   0  0  0  0  0  0  0  0  0  0  0  0
    9.4296  -17.3481   20.9419 C   0  0  0  0  0  0  0  0  0  0  0  0
   10.6339  -17.0622   20.6790 O   0  0  0  0  0  0  0  0  0  0  0  0
    7.0906  -12.8493   16.7072 O   0  0  0  0  0  0  0  0  0  0  0  0
    7.3968  -13.1532   18.0505 C   0  0  0  0  0  0  0  0  0  0  0  0
    8.3605  -12.4548   18.7087 C   0  0  0  0  0  0  0  0  0  0  0  0
    8.6608  -12.7614   20.0445 C   0  0  0  0  0  0  0  0  0  0  0  0
    7.9904  -13.7652   20.7038 C   0  0  0  0  0  0  0  0  0  0  0  0
    8.3005  -14.0804   22.0860 C   0  0  0  0  0  0  0  0  0  0  0  0
    9.2622  -15.2418   22.2692 C   0  0  2  0  0  0  0  0  0  0  0  0
    8.6628  -16.4795   21.7457 N   0  0  0  0  0  0  0  0  0  0  0  0
    9.6025  -15.4000   23.7064 C   0  0  0  0  0  0  0  0  0  0  0  0
   10.2383  -14.4409   24.2667 O   0  0  0  0  0  0  0  0  0  0  0  0
    7.0229  -14.4549   20.0182 C   0  0  0  0  0  0  0  0  0  0  0  0
    6.7151  -14.1603   18.6915 C   0  0  0  0  0  0  0  0  0  0  0  0
    9.2923  -16.5028   24.5079 N   0  0  0  0  0  0  0  0  0  0  0  0
    9.7268  -16.5944   25.9232 C   0  0  1  0  0  0  0  0  0  0  0  0
    8.5462  -16.6804   26.8118 C   0  0  0  0  0  0  0  0  0  0  0  0
    7.5639  -15.6250   26.5650 C   0  0  0  0  0  0  0  0  0  0  0  0
    6.3052  -15.7722   25.9502 C   0  0  0  0  0  0  0  0  0  0  0  0
    5.6935  -14.5889   25.8513 N   0  0  0  0  0  0  0  0  0  0  0  0
    6.4992  -13.6668   26.3780 C   0  0  0  0  0  0  0  0  0  0  0  0
    6.3230  -12.2997   26.5371 C   0  0  0  0  0  0  0  0  0  0  0  0
    7.2991  -11.5127   27.1479 C   0  0  0  0  0  0  0  0  0  0  0  0
    8.4501  -12.1267   27.5928 C   0  0  0  0  0  0  0  0  0  0  0  0
    8.6472  -13.4798   27.4451 C   0  0  0  0  0  0  0  0  0  0  0  0
    7.6631  -14.2600   26.8308 C   0  0  0  0  0  0  0  0  0  0  0  0
   10.6284  -17.7306   26.0273 C   0  0  0  0  0  0  0  0  0  0  0  0
   10.8649  -18.5171   25.0548 O   0  0  0  0  0  0  0  0  0  0  0  0
   11.3046  -18.0319   27.2060 O   0  0  0  0  0  0  0  0  0  0  0  0
  2  1  1  0
  3  2  2  0
  4  2  1  0
  5  6  1  6
  5  4  1  0
  7  5  1  0
  8  7  2  0
  9 10  1  0
 10 20  2  0
 10 11  1  0
 11 12  2  0
 12 13  1  0
 13 14  1  0
 15 14  1  1
 15 17  1  0
 15 16  1  0
 16  7  1  0
 17 21  1  0
 18 17  2  0
 19 13  2  0
 20 19  1  0
 22 21  1  0
 22 23  1  1
 22 33  1  0
 24 32  1  0
 24 23  1  0
 25 24  2  0
 26 25  1  0
 26 27  1  0
 27 32  2  0
 28 27  1  0
 28 29  2  0
 29 30  1  0
 30 31  2  0
 32 31  1  0
 33 34  2  0
 33 35  1  0
M  END
$$$$
