NYW.pdb
     RDKit          3D

 35 37  0  0  1  0  0  0  0  0999 V2000
    8.7157  -16.7792   16.5069 N   0  0  0  0  0  0  0  0  0  0  0  0
    8.8033  -17.8039   17.4884 C   0  0  0  0  0  0  0  0  0  0  0  0
    7.7363  -18.2622   17.9686 O   0  0  0  0  0  0  0  0  0  0  0  0
   10.0931  -18.3256   17.9425 C   0  0  0  0  0  0  0  0  0  0  0  0
   10.1629  -18.4136   19.4740 C   0  0  2  0  0  0  0  0  0  0  0  0
    8.7953  -18.6347   19.9061 N   0  0  0  0  0  0  0  0  0  0  0  0
   10.6587  -17.0852   19.9241 C   0  0  0  0  0  0  0  0  0  0  0  0
   11.8090  -16.7408   19.5249 O   0  0  0  0  0  0  0  0  0  0  0  0
    7.5001  -13.3173   15.7069 O   0  0  0  0  0  0  0  0  0  0  0  0
    7.9863  -13.4454   17.0251 C   0  0  0  0  0  0  0  0  0  0  0  0
    7.2279  -14.0477   17.9799 C   0  0  0  0  0  0  0  0  0  0  0  0
    7.7166  -14.1723   19.2892 C   0  0  0  0  0  0  0  0  0  0  0  0
    8.9606  -13.6910   19.6247 C   0  0  0  0  0  0  0  0  0  0  0  0
    9.4659  -13.8219   20.9787 C   0  0  0  0  0  0  0  0  0  0  0  0
   10.4893  -14.9284   21.1674 C   0  0  2  0  0  0  0  0  0  0  0  0
    9.9170  -16.2195   20.7543 N   0  0  0  0  0  0  0  0  0  0  0  0
   10.9222  -14.9854   22.5872 C   0  0  0  0  0  0  0  0  0  0  0  0
   11.5752  -13.9827   23.0412 O   0  0  0  0  0  0  0  0  0  0  0  0
    9.7062  -13.0877   18.6439 C   0  0  0  0  0  0  0  0  0  0  0  0
    9.2325  -12.9576   17.3399 C   0  0  0  0  0  0  0  0  0  0  0  0
   10.6826  -16.0362   23.4779 N   0  0  0  0  0  0  0  0  0  0  0  0
    9.6984  -15.9235   24.5820 C   0  0  1  0  0  0  0  0  0  0  0  0
    8.3835  -15.5025   24.0484 C   0  0  0  0  0  0  0  0  0  0  0  0
    7.4346  -15.1222   25.0947 C   0  0  0  0  0  0  0  0  0  0  0  0
    6.3601  -15.8936   25.5788 C   0  0  0  0  0  0  0  0  0  0  0  0
    5.6776  -15.2135   26.5039 N   0  0  0  0  0  0  0  0  0  0  0  0
    6.2608  -14.0237   26.6498 C   0  0  0  0  0  0  0  0  0  0  0  0
    5.9533  -12.9658   27.4935 C   0  0  0  0  0  0  0  0  0  0  0  0
    6.7232  -11.8029   27.5024 C   0  0  0  0  0  0  0  0  0  0  0  0
    7.8031  -11.7269   26.6492 C   0  0  0  0  0  0  0  0  0  0  0  0
    8.1263  -12.7623   25.8036 C   0  0  0  0  0  0  0  0  0  0  0  0
    7.3479  -13.9236   25.8015 C   0  0  0  0  0  0  0  0  0  0  0  0
    9.6734  -17.2027   25.2729 C   0  0  0  0  0  0  0  0  0  0  0  0
    9.7833  -18.3175   24.6683 O   0  0  0  0  0  0  0  0  0  0  0  0
    9.5339  -17.2938   26.6548 O   0  0  0  0  0  0  0  0  0  0  0  0
  2  1  1  0
  3  2  2  0
  4  2  1  0
  5  6  1  1
  5  4  1  0
  7  5  1  0
  8  7  2  0
  9 10  1  0
 10 20  2  0
 10 11  1  0
 11 12  2  0
 12 13  1  0
 13 14  1  0
 15 14  1  1
 15 17  1  0
 15 16  1  0
 16  7  1  0
 17 21  1  0
 18 17  2  0
 19 13  2  0
 20 19  1  0
 22 21  1  0
 22 23  1  6
 22 33  1  0
 24 32  1  0
 24 23  1  0
 25 24  2  0
 26 25  1  0
 26 27  1  0
 27 32  2  0
 28 27  1  0
 28 29  2  0
 29 30  1  0
 30 31  2  0
 32 31  1  0
 33 34  2  0
 33 35  1  0
M  END
$$$$
