NYW.pdb
     RDKit          3D

 35 37  0  0  1  0  0  0  0  0999 V2000
   10.9913  -20.5044   17.9872 N   0  0  0  0  0  0  0  0  0  0  0  0
   10.1212  -19.3853   17.8803 C   0  0  0  0  0  0  0  0  0  0  0  0
    9.1982  -19.4271   17.0284 O   0  0  0  0  0  0  0  0  0  0  0  0
   10.2788  -18.2045   18.7304 C   0  0  0  0  0  0  0  0  0  0  0  0
    9.9556  -18.5146   20.1992 C   0  0  2  0  0  0  0  0  0  0  0  0
    8.5331  -18.8007   20.2245 N   0  0  0  0  0  0  0  0  0  0  0  0
   10.2638  -17.2644   20.9443 C   0  0  0  0  0  0  0  0  0  0  0  0
   11.4335  -16.7988   20.8173 O   0  0  0  0  0  0  0  0  0  0  0  0
    6.6942  -13.3174   17.1852 O   0  0  0  0  0  0  0  0  0  0  0  0
    7.1662  -13.5787   18.4889 C   0  0  0  0  0  0  0  0  0  0  0  0
    6.6571  -14.6152   19.2072 C   0  0  0  0  0  0  0  0  0  0  0  0
    7.1304  -14.8703   20.5032 C   0  0  0  0  0  0  0  0  0  0  0  0
    8.1088  -14.0820   21.0628 C   0  0  0  0  0  0  0  0  0  0  0  0
    8.5988  -14.3477   22.4026 C   0  0  0  0  0  0  0  0  0  0  0  0
    9.7199  -15.3701   22.4747 C   0  0  2  0  0  0  0  0  0  0  0  0
    9.3291  -16.5971   21.7626 N   0  0  0  0  0  0  0  0  0  0  0  0
   10.0410  -15.6753   23.8924 C   0  0  0  0  0  0  0  0  0  0  0  0
   10.7437  -14.8176   24.5316 O   0  0  0  0  0  0  0  0  0  0  0  0
    8.6060  -13.0428   20.3181 C   0  0  0  0  0  0  0  0  0  0  0  0
    8.1447  -12.7789   19.0300 C   0  0  0  0  0  0  0  0  0  0  0  0
    9.6463  -16.8166   24.5973 N   0  0  0  0  0  0  0  0  0  0  0  0
   10.1029  -17.0830   25.9832 C   0  0  1  0  0  0  0  0  0  0  0  0
    9.8853  -15.8871   26.8278 C   0  0  0  0  0  0  0  0  0  0  0  0
    8.5333  -15.3408   26.7119 C   0  0  0  0  0  0  0  0  0  0  0  0
    7.3573  -16.0574   26.4167 C   0  0  0  0  0  0  0  0  0  0  0  0
    6.3116  -15.2292   26.3477 N   0  0  0  0  0  0  0  0  0  0  0  0
    6.7520  -13.9939   26.5871 C   0  0  0  0  0  0  0  0  0  0  0  0
    6.0672  -12.7888   26.6515 C   0  0  0  0  0  0  0  0  0  0  0  0
    6.7297  -11.5975   26.9464 C   0  0  0  0  0  0  0  0  0  0  0  0
    8.0883  -11.6437   27.1739 C   0  0  0  0  0  0  0  0  0  0  0  0
    8.7881  -12.8262   27.1145 C   0  0  0  0  0  0  0  0  0  0  0  0
    8.1151  -14.0151   26.8173 C   0  0  0  0  0  0  0  0  0  0  0  0
    9.4044  -18.2702   26.4491 C   0  0  0  0  0  0  0  0  0  0  0  0
    8.4396  -18.8005   25.8100 O   0  0  0  0  0  0  0  0  0  0  0  0
    9.7523  -18.9160   27.6321 O   0  0  0  0  0  0  0  0  0  0  0  0
  2  1  1  0
  3  2  2  0
  4  2  1  0
  5  6  1  6
  5  4  1  0
  7  5  1  0
  8  7  2  0
  9 10  1  0
 10 20  2  0
 10 11  1  0
 11 12  2  0
 12 13  1  0
 13 14  1  0
 15 14  1  1
 15 17  1  0
 15 16  1  0
 16  7  1  0
 17 21  1  0
 18 17  2  0
 19 13  2  0
 20 19  1  0
 22 21  1  0
 22 23  1  1
 22 33  1  0
 24 32  1  0
 24 23  1  0
 25 24  2  0
 26 25  1  0
 26 27  1  0
 27 32  2  0
 28 27  1  0
 28 29  2  0
 29 30  1  0
 30 31  2  0
 32 31  1  0
 33 34  2  0
 33 35  1  0
M  END
$$$$
