NYW.pdb
     RDKit          3D

 35 37  0  0  1  0  0  0  0  0999 V2000
   10.2126  -20.3514   18.4235 N   0  0  0  0  0  0  0  0  0  0  0  0
   10.4124  -19.0446   17.9009 C   0  0  0  0  0  0  0  0  0  0  0  0
   10.6151  -18.9206   16.6669 O   0  0  0  0  0  0  0  0  0  0  0  0
   10.3874  -17.8603   18.7605 C   0  0  0  0  0  0  0  0  0  0  0  0
   10.2180  -18.2356   20.2399 C   0  0  2  0  0  0  0  0  0  0  0  0
    8.8729  -18.7700   20.3462 N   0  0  0  0  0  0  0  0  0  0  0  0
   10.3470  -16.9570   20.9893 C   0  0  0  0  0  0  0  0  0  0  0  0
   11.4538  -16.3508   20.8961 O   0  0  0  0  0  0  0  0  0  0  0  0
    7.0885  -13.4991   16.7479 O   0  0  0  0  0  0  0  0  0  0  0  0
    7.3989  -13.6784   18.1125 C   0  0  0  0  0  0  0  0  0  0  0  0
    6.8177  -14.6830   18.8215 C   0  0  0  0  0  0  0  0  0  0  0  0
    7.1303  -14.8564   20.1783 C   0  0  0  0  0  0  0  0  0  0  0  0
    8.0222  -14.0196   20.8074 C   0  0  0  0  0  0  0  0  0  0  0  0
    8.3461  -14.2009   22.2103 C   0  0  0  0  0  0  0  0  0  0  0  0
    9.5182  -15.1304   22.4736 C   0  0  2  0  0  0  0  0  0  0  0  0
    9.3128  -16.4099   21.7765 N   0  0  0  0  0  0  0  0  0  0  0  0
    9.6718  -15.3561   23.9336 C   0  0  0  0  0  0  0  0  0  0  0  0
   10.1071  -14.3780   24.6349 O   0  0  0  0  0  0  0  0  0  0  0  0
    8.5949  -13.0140   20.0708 C   0  0  0  0  0  0  0  0  0  0  0  0
    8.2931  -12.8310   18.7227 C   0  0  0  0  0  0  0  0  0  0  0  0
    9.3845  -16.5418   24.6167 N   0  0  0  0  0  0  0  0  0  0  0  0
    9.7145  -16.7234   26.0515 C   0  0  1  0  0  0  0  0  0  0  0  0
    8.4718  -16.8439   26.8465 C   0  0  0  0  0  0  0  0  0  0  0  0
    7.5414  -15.7363   26.6289 C   0  0  0  0  0  0  0  0  0  0  0  0
    6.2778  -15.8062   26.0107 C   0  0  0  0  0  0  0  0  0  0  0  0
    5.7235  -14.5927   25.9444 N   0  0  0  0  0  0  0  0  0  0  0  0
    6.5721  -13.7250   26.4957 C   0  0  0  0  0  0  0  0  0  0  0  0
    6.4614  -12.3558   26.6921 C   0  0  0  0  0  0  0  0  0  0  0  0
    7.4736  -11.6335   27.3238 C   0  0  0  0  0  0  0  0  0  0  0  0
    8.5934  -12.3138   27.7514 C   0  0  0  0  0  0  0  0  0  0  0  0
    8.7256  -13.6703   27.5668 C   0  0  0  0  0  0  0  0  0  0  0  0
    7.7057  -14.3854   26.9318 C   0  0  0  0  0  0  0  0  0  0  0  0
   10.5938  -17.8772   26.1514 C   0  0  0  0  0  0  0  0  0  0  0  0
   10.8702  -18.6242   25.1584 O   0  0  0  0  0  0  0  0  0  0  0  0
   11.2033  -18.2405   27.3489 O   0  0  0  0  0  0  0  0  0  0  0  0
  2  1  1  0
  3  2  2  0
  4  2  1  0
  5  6  1  6
  5  4  1  0
  7  5  1  0
  8  7  2  0
  9 10  1  0
 10 20  2  0
 10 11  1  0
 11 12  2  0
 12 13  1  0
 13 14  1  0
 15 14  1  1
 15 17  1  0
 15 16  1  0
 16  7  1  0
 17 21  1  0
 18 17  2  0
 19 13  2  0
 20 19  1  0
 22 21  1  0
 22 23  1  1
 22 33  1  0
 24 32  1  0
 24 23  1  0
 25 24  2  0
 26 25  1  0
 26 27  1  0
 27 32  2  0
 28 27  1  0
 28 29  2  0
 29 30  1  0
 30 31  2  0
 32 31  1  0
 33 34  2  0
 33 35  1  0
M  END
$$$$
