NYW.pdb
     RDKit          3D

 35 37  0  0  1  0  0  0  0  0999 V2000
   10.8619  -20.1922   18.3552 N   0  0  0  0  0  0  0  0  0  0  0  0
   10.4285  -18.9390   17.8428 C   0  0  0  0  0  0  0  0  0  0  0  0
   10.2837  -18.8210   16.6001 O   0  0  0  0  0  0  0  0  0  0  0  0
   10.1529  -17.8022   18.7224 C   0  0  0  0  0  0  0  0  0  0  0  0
   10.3552  -18.1655   20.2006 C   0  0  2  0  0  0  0  0  0  0  0  0
    9.2038  -18.9745   20.5555 N   0  0  0  0  0  0  0  0  0  0  0  0
   10.3449  -16.8696   20.9312 C   0  0  0  0  0  0  0  0  0  0  0  0
   11.3807  -16.1499   20.8299 O   0  0  0  0  0  0  0  0  0  0  0  0
    6.8630  -13.5836   16.6749 O   0  0  0  0  0  0  0  0  0  0  0  0
    7.1687  -13.7635   18.0405 C   0  0  0  0  0  0  0  0  0  0  0  0
    7.8648  -12.8119   18.7183 C   0  0  0  0  0  0  0  0  0  0  0  0
    8.1659  -12.9963   20.0762 C   0  0  0  0  0  0  0  0  0  0  0  0
    7.7648  -14.1335   20.7377 C   0  0  0  0  0  0  0  0  0  0  0  0
    8.0752  -14.3225   22.1426 C   0  0  0  0  0  0  0  0  0  0  0  0
    9.3322  -15.1327   22.4089 C   0  0  2  0  0  0  0  0  0  0  0  0
    9.2561  -16.4250   21.7094 N   0  0  0  0  0  0  0  0  0  0  0  0
    9.5021  -15.3446   23.8693 C   0  0  0  0  0  0  0  0  0  0  0  0
    9.7701  -14.3166   24.5830 O   0  0  0  0  0  0  0  0  0  0  0  0
    7.0641  -15.0784   20.0321 C   0  0  0  0  0  0  0  0  0  0  0  0
    6.7587  -14.9075   18.6833 C   0  0  0  0  0  0  0  0  0  0  0  0
    9.3966  -16.5667   24.5402 N   0  0  0  0  0  0  0  0  0  0  0  0
    9.7370  -16.7080   25.9770 C   0  0  1  0  0  0  0  0  0  0  0  0
    8.5032  -16.8837   26.7757 C   0  0  0  0  0  0  0  0  0  0  0  0
    7.5058  -15.8428   26.5278 C   0  0  0  0  0  0  0  0  0  0  0  0
    6.2115  -16.0238   26.0026 C   0  0  0  0  0  0  0  0  0  0  0  0
    5.5929  -14.8473   25.8713 N   0  0  0  0  0  0  0  0  0  0  0  0
    6.4285  -13.8970   26.2904 C   0  0  0  0  0  0  0  0  0  0  0  0
    6.2604  -12.5224   26.3780 C   0  0  0  0  0  0  0  0  0  0  0  0
    7.2715  -11.7024   26.8783 C   0  0  0  0  0  0  0  0  0  0  0  0
    8.4490  -12.2911   27.2866 C   0  0  0  0  0  0  0  0  0  0  0  0
    8.6386  -13.6510   27.2084 C   0  0  0  0  0  0  0  0  0  0  0  0
    7.6193  -14.4646   26.7045 C   0  0  0  0  0  0  0  0  0  0  0  0
   10.6779  -17.8105   26.0934 C   0  0  0  0  0  0  0  0  0  0  0  0
   11.2496  -18.1191   27.1880 O   0  0  0  0  0  0  0  0  0  0  0  0
   11.0133  -18.6137   25.0072 O   0  0  0  0  0  0  0  0  0  0  0  0
  2  1  1  0
  3  2  2  0
  4  2  1  0
  5  6  1  1
  5  4  1  0
  7  5  1  0
  8  7  2  0
  9 10  1  0
 10 20  2  0
 10 11  1  0
 11 12  2  0
 12 13  1  0
 13 14  1  0
 15 14  1  1
 15 17  1  0
 15 16  1  0
 16  7  1  0
 17 21  1  0
 18 17  2  0
 19 13  2  0
 20 19  1  0
 22 21  1  0
 22 23  1  1
 22 33  1  0
 24 32  1  0
 24 23  1  0
 25 24  2  0
 26 25  1  0
 26 27  1  0
 27 32  2  0
 28 27  1  0
 28 29  2  0
 29 30  1  0
 30 31  2  0
 32 31  1  0
 33 34  2  0
 33 35  1  0
M  END
$$$$
