NYW.pdb
     RDKit          3D

 35 37  0  0  1  0  0  0  0  0999 V2000
   11.3680  -19.8541   18.4616 N   0  0  0  0  0  0  0  0  0  0  0  0
   11.0247  -18.5594   17.9856 C   0  0  0  0  0  0  0  0  0  0  0  0
   11.0954  -18.3402   16.7502 O   0  0  0  0  0  0  0  0  0  0  0  0
   10.5978  -17.4942   18.8940 C   0  0  0  0  0  0  0  0  0  0  0  0
   10.5567  -17.9737   20.3523 C   0  0  2  0  0  0  0  0  0  0  0  0
    9.2734  -18.6349   20.5003 N   0  0  0  0  0  0  0  0  0  0  0  0
   10.6204  -16.7372   21.1770 C   0  0  0  0  0  0  0  0  0  0  0  0
   11.6725  -16.0409   21.0801 O   0  0  0  0  0  0  0  0  0  0  0  0
    6.9452  -13.4873   17.1808 O   0  0  0  0  0  0  0  0  0  0  0  0
    7.3175  -13.6742   18.5288 C   0  0  0  0  0  0  0  0  0  0  0  0
    6.8400  -14.7366   19.2308 C   0  0  0  0  0  0  0  0  0  0  0  0
    7.2137  -14.9174   20.5711 C   0  0  0  0  0  0  0  0  0  0  0  0
    8.0622  -14.0298   21.1908 C   0  0  0  0  0  0  0  0  0  0  0  0
    8.4495  -14.2186   22.5765 C   0  0  0  0  0  0  0  0  0  0  0  0
    9.7019  -15.0549   22.7746 C   0  0  2  0  0  0  0  0  0  0  0  0
    9.5828  -16.3227   22.0373 N   0  0  0  0  0  0  0  0  0  0  0  0
    9.9168  -15.3161   24.2209 C   0  0  0  0  0  0  0  0  0  0  0  0
   10.5417  -14.4227   24.8910 O   0  0  0  0  0  0  0  0  0  0  0  0
    8.5301  -12.9664   20.4614 C   0  0  0  0  0  0  0  0  0  0  0  0
    8.1667  -12.7755   19.1298 C   0  0  0  0  0  0  0  0  0  0  0  0
    9.4989  -16.4514   24.9220 N   0  0  0  0  0  0  0  0  0  0  0  0
   10.0125  -16.7741   26.2756 C   0  0  1  0  0  0  0  0  0  0  0  0
    9.1352  -16.1761   27.3070 C   0  0  0  0  0  0  0  0  0  0  0  0
    7.9650  -15.5022   26.7446 C   0  0  0  0  0  0  0  0  0  0  0  0
    6.8532  -16.1137   26.1331 C   0  0  0  0  0  0  0  0  0  0  0  0
    5.9940  -15.1888   25.6965 N   0  0  0  0  0  0  0  0  0  0  0  0
    6.4953  -13.9908   25.9973 C   0  0  0  0  0  0  0  0  0  0  0  0
    5.9843  -12.7190   25.7808 C   0  0  0  0  0  0  0  0  0  0  0  0
    6.6726  -11.5829   26.2061 C   0  0  0  0  0  0  0  0  0  0  0  0
    7.8793  -11.7523   26.8503 C   0  0  0  0  0  0  0  0  0  0  0  0
    8.4058  -13.0028   27.0751 C   0  0  0  0  0  0  0  0  0  0  0  0
    7.7086  -14.1355   26.6441 C   0  0  0  0  0  0  0  0  0  0  0  0
   10.1253  -18.2212   26.3630 C   0  0  0  0  0  0  0  0  0  0  0  0
    9.6861  -19.0048   25.4612 O   0  0  0  0  0  0  0  0  0  0  0  0
   10.7334  -18.8512   27.4451 O   0  0  0  0  0  0  0  0  0  0  0  0
  2  1  1  0
  3  2  2  0
  4  2  1  0
  5  6  1  6
  5  4  1  0
  7  5  1  0
  8  7  2  0
  9 10  1  0
 10 20  2  0
 10 11  1  0
 11 12  2  0
 12 13  1  0
 13 14  1  0
 15 14  1  1
 15 17  1  0
 15 16  1  0
 16  7  1  0
 17 21  1  0
 18 17  2  0
 19 13  2  0
 20 19  1  0
 22 21  1  0
 22 23  1  1
 22 33  1  0
 24 32  1  0
 24 23  1  0
 25 24  2  0
 26 25  1  0
 26 27  1  0
 27 32  2  0
 28 27  1  0
 28 29  2  0
 29 30  1  0
 30 31  2  0
 32 31  1  0
 33 34  2  0
 33 35  1  0
M  END
$$$$
