NYW.pdb
     RDKit          3D

 35 37  0  0  1  0  0  0  0  0999 V2000
   11.5295  -19.9079   17.7168 N   0  0  0  0  0  0  0  0  0  0  0  0
   10.4114  -19.0304   17.7407 C   0  0  0  0  0  0  0  0  0  0  0  0
    9.4204  -19.3078   17.0194 O   0  0  0  0  0  0  0  0  0  0  0  0
   10.3943  -17.8290   18.5764 C   0  0  0  0  0  0  0  0  0  0  0  0
   10.0527  -18.1577   20.0370 C   0  0  2  0  0  0  0  0  0  0  0  0
    8.7125  -18.7130   19.9995 N   0  0  0  0  0  0  0  0  0  0  0  0
   10.0720  -16.8526   20.7508 C   0  0  0  0  0  0  0  0  0  0  0  0
   11.1584  -16.2044   20.7243 O   0  0  0  0  0  0  0  0  0  0  0  0
    7.4037  -13.1375   16.2372 O   0  0  0  0  0  0  0  0  0  0  0  0
    7.5350  -13.3817   17.6206 C   0  0  0  0  0  0  0  0  0  0  0  0
    8.1838  -12.4892   18.4156 C   0  0  0  0  0  0  0  0  0  0  0  0
    8.3113  -12.7373   19.7907 C   0  0  0  0  0  0  0  0  0  0  0  0
    7.7861  -13.8781   20.3515 C   0  0  0  0  0  0  0  0  0  0  0  0
    7.9170  -14.1330   21.7740 C   0  0  0  0  0  0  0  0  0  0  0  0
    9.0735  -15.0435   22.1495 C   0  0  2  0  0  0  0  0  0  0  0  0
    8.9578  -16.3250   21.4355 N   0  0  0  0  0  0  0  0  0  0  0  0
    9.0886  -15.2692   23.6175 C   0  0  0  0  0  0  0  0  0  0  0  0
    8.1849  -14.6839   24.3095 O   0  0  0  0  0  0  0  0  0  0  0  0
    7.1364  -14.7627   19.5286 C   0  0  0  0  0  0  0  0  0  0  0  0
    7.0029  -14.5281   18.1615 C   0  0  0  0  0  0  0  0  0  0  0  0
   10.0013  -16.0641   24.3175 N   0  0  0  0  0  0  0  0  0  0  0  0
    9.9772  -16.1741   25.7966 C   0  0  1  0  0  0  0  0  0  0  0  0
    8.6709  -16.7068   26.2444 C   0  0  0  0  0  0  0  0  0  0  0  0
    7.5948  -15.7182   26.1788 C   0  0  0  0  0  0  0  0  0  0  0  0
    6.3001  -15.9149   25.6601 C   0  0  0  0  0  0  0  0  0  0  0  0
    5.5959  -14.7816   25.7221 N   0  0  0  0  0  0  0  0  0  0  0  0
    6.3753  -13.8450   26.2626 C   0  0  0  0  0  0  0  0  0  0  0  0
    6.1133  -12.5155   26.5613 C   0  0  0  0  0  0  0  0  0  0  0  0
    7.0796  -11.7063   27.1585 C   0  0  0  0  0  0  0  0  0  0  0  0
    8.3085  -12.2596   27.4473 C   0  0  0  0  0  0  0  0  0  0  0  0
    8.5912  -13.5745   27.1596 C   0  0  0  0  0  0  0  0  0  0  0  0
    7.6161  -14.3774   26.5601 C   0  0  0  0  0  0  0  0  0  0  0  0
   11.1142  -16.9911   26.1892 C   0  0  0  0  0  0  0  0  0  0  0  0
   11.8308  -17.6273   25.3513 O   0  0  0  0  0  0  0  0  0  0  0  0
   11.5027  -17.1269   27.5189 O   0  0  0  0  0  0  0  0  0  0  0  0
  2  1  1  0
  3  2  2  0
  4  2  1  0
  5  6  1  6
  5  4  1  0
  7  5  1  0
  8  7  2  0
  9 10  1  0
 10 20  2  0
 10 11  1  0
 11 12  2  0
 12 13  1  0
 13 14  1  0
 15 14  1  1
 15 17  1  0
 15 16  1  0
 16  7  1  0
 17 21  1  0
 18 17  2  0
 19 13  2  0
 20 19  1  0
 22 21  1  0
 22 23  1  6
 22 33  1  0
 24 32  1  0
 24 23  1  0
 25 24  2  0
 26 25  1  0
 26 27  1  0
 27 32  2  0
 28 27  1  0
 28 29  2  0
 29 30  1  0
 30 31  2  0
 32 31  1  0
 33 34  2  0
 33 35  1  0
M  END
$$$$
