NYW.pdb
     RDKit          3D

 35 37  0  0  1  0  0  0  0  0999 V2000
    8.7993  -16.2146   17.2602 N   0  0  0  0  0  0  0  0  0  0  0  0
    7.5067  -16.4738   17.7920 C   0  0  0  0  0  0  0  0  0  0  0  0
    6.5657  -16.6971   16.9895 O   0  0  0  0  0  0  0  0  0  0  0  0
    7.2562  -16.4844   19.2339 C   0  0  0  0  0  0  0  0  0  0  0  0
    8.5346  -16.1974   20.0348 C   0  0  2  0  0  0  0  0  0  0  0  0
    9.5681  -16.9964   19.4027 N   0  0  0  0  0  0  0  0  0  0  0  0
    8.2536  -16.6791   21.4140 C   0  0  0  0  0  0  0  0  0  0  0  0
    7.2839  -16.1377   22.0204 O   0  0  0  0  0  0  0  0  0  0  0  0
    7.5252  -21.6054   28.6890 O   0  0  0  0  0  0  0  0  0  0  0  0
    7.8878  -21.0947   27.4248 C   0  0  0  0  0  0  0  0  0  0  0  0
    6.9320  -20.8163   26.4982 C   0  0  0  0  0  0  0  0  0  0  0  0
    7.2984  -20.3084   25.2426 C   0  0  0  0  0  0  0  0  0  0  0  0
    8.6197  -20.0861   24.9319 C   0  0  0  0  0  0  0  0  0  0  0  0
    8.9976  -19.5592   23.6337 C   0  0  0  0  0  0  0  0  0  0  0  0
    8.6735  -18.0893   23.4292 C   0  0  2  0  0  0  0  0  0  0  0  0
    9.0044  -17.6874   22.0528 N   0  0  0  0  0  0  0  0  0  0  0  0
    9.4269  -17.2608   24.4049 C   0  0  0  0  0  0  0  0  0  0  0  0
   10.6004  -16.8785   24.0660 O   0  0  0  0  0  0  0  0  0  0  0  0
    9.5647  -20.3748   25.8834 C   0  0  0  0  0  0  0  0  0  0  0  0
    9.2141  -20.8795   27.1340 C   0  0  0  0  0  0  0  0  0  0  0  0
    8.9728  -16.8577   25.6644 N   0  0  0  0  0  0  0  0  0  0  0  0
    9.7748  -15.9730   26.5444 C   0  0  1  0  0  0  0  0  0  0  0  0
    8.9009  -15.3340   27.5537 C   0  0  0  0  0  0  0  0  0  0  0  0
    7.7487  -14.6511   26.9655 C   0  0  0  0  0  0  0  0  0  0  0  0
    6.5122  -15.2301   26.6194 C   0  0  0  0  0  0  0  0  0  0  0  0
    5.7089  -14.3178   26.0659 N   0  0  0  0  0  0  0  0  0  0  0  0
    6.3670  -13.1590   26.0343 C   0  0  0  0  0  0  0  0  0  0  0  0
    5.9708  -11.9087   25.5811 C   0  0  0  0  0  0  0  0  0  0  0  0
    6.8222  -10.8073   25.6666 C   0  0  0  0  0  0  0  0  0  0  0  0
    8.0737  -10.9890   26.2147 C   0  0  0  0  0  0  0  0  0  0  0  0
    8.4884  -12.2189   26.6696 C   0  0  0  0  0  0  0  0  0  0  0  0
    7.6280  -13.3172   26.5787 C   0  0  0  0  0  0  0  0  0  0  0  0
   10.8424  -16.7798   27.1134 C   0  0  0  0  0  0  0  0  0  0  0  0
   10.8532  -18.0515   27.0571 O   0  0  0  0  0  0  0  0  0  0  0  0
   11.9371  -16.2097   27.7569 O   0  0  0  0  0  0  0  0  0  0  0  0
  2  1  1  0
  3  2  2  0
  4  2  1  0
  5  6  1  6
  5  4  1  0
  7  5  1  0
  8  7  2  0
  9 10  1  0
 10 20  2  0
 10 11  1  0
 11 12  2  0
 12 13  1  0
 13 14  1  0
 15 14  1  6
 15 17  1  0
 15 16  1  0
 16  7  1  0
 17 21  1  0
 18 17  2  0
 19 13  2  0
 20 19  1  0
 22 21  1  0
 22 23  1  1
 22 33  1  0
 24 32  1  0
 24 23  1  0
 25 24  2  0
 26 25  1  0
 26 27  1  0
 27 32  2  0
 28 27  1  0
 28 29  2  0
 29 30  1  0
 30 31  2  0
 32 31  1  0
 33 34  2  0
 33 35  1  0
M  END
$$$$
