NYW.pdb
     RDKit          3D

 35 37  0  0  1  0  0  0  0  0999 V2000
    8.5658  -13.1523   17.9083 N   0  0  0  0  0  0  0  0  0  0  0  0
    7.9223  -14.4180   17.9760 C   0  0  0  0  0  0  0  0  0  0  0  0
    7.2685  -14.8087   16.9764 O   0  0  0  0  0  0  0  0  0  0  0  0
    8.0058  -15.2604   19.1700 C   0  0  0  0  0  0  0  0  0  0  0  0
    8.8131  -14.5838   20.2873 C   0  0  2  0  0  0  0  0  0  0  0  0
   10.0292  -14.1151   19.6491 N   0  0  0  0  0  0  0  0  0  0  0  0
    9.1054  -15.6604   21.2714 C   0  0  0  0  0  0  0  0  0  0  0  0
    8.1617  -16.4599   21.5388 O   0  0  0  0  0  0  0  0  0  0  0  0
   12.5327  -20.3358   17.7781 O   0  0  0  0  0  0  0  0  0  0  0  0
   12.3870  -19.6329   18.9928 C   0  0  0  0  0  0  0  0  0  0  0  0
   12.9330  -18.3959   19.1387 C   0  0  0  0  0  0  0  0  0  0  0  0
   12.7848  -17.7016   20.3489 C   0  0  0  0  0  0  0  0  0  0  0  0
   12.0905  -18.2571   21.3983 C   0  0  0  0  0  0  0  0  0  0  0  0
   11.9363  -17.5375   22.6490 C   0  0  0  0  0  0  0  0  0  0  0  0
   10.5652  -16.9178   22.8570 C   0  0  2  0  0  0  0  0  0  0  0  0
   10.3580  -15.8202   21.8992 N   0  0  0  0  0  0  0  0  0  0  0  0
   10.4374  -16.4191   24.2503 C   0  0  0  0  0  0  0  0  0  0  0  0
   11.0525  -15.3356   24.5433 O   0  0  0  0  0  0  0  0  0  0  0  0
   11.5493  -19.5058   21.2263 C   0  0  0  0  0  0  0  0  0  0  0  0
   11.6892  -20.2058   20.0296 C   0  0  0  0  0  0  0  0  0  0  0  0
    9.7056  -17.0247   25.2762 N   0  0  0  0  0  0  0  0  0  0  0  0
    9.6819  -16.4781   26.6550 C   0  0  1  0  0  0  0  0  0  0  0  0
    8.2982  -16.4862   27.1803 C   0  0  0  0  0  0  0  0  0  0  0  0
    7.3982  -15.6016   26.4405 C   0  0  0  0  0  0  0  0  0  0  0  0
    6.4051  -15.9885   25.5196 C   0  0  0  0  0  0  0  0  0  0  0  0
    5.8042  -14.9134   25.0029 N   0  0  0  0  0  0  0  0  0  0  0  0
    6.3615  -13.8320   25.5480 C   0  0  0  0  0  0  0  0  0  0  0  0
    6.0839  -12.4848   25.3650 C   0  0  0  0  0  0  0  0  0  0  0  0
    6.7822  -11.5026   26.0671 C   0  0  0  0  0  0  0  0  0  0  0  0
    7.7603  -11.9020   26.9523 C   0  0  0  0  0  0  0  0  0  0  0  0
    8.0533  -13.2313   27.1493 C   0  0  0  0  0  0  0  0  0  0  0  0
    7.3483  -14.2084   26.4401 C   0  0  0  0  0  0  0  0  0  0  0  0
   10.6189  -17.2587   27.4469 C   0  0  0  0  0  0  0  0  0  0  0  0
   11.2035  -18.2978   27.0010 O   0  0  0  0  0  0  0  0  0  0  0  0
   10.9476  -16.9141   28.7549 O   0  0  0  0  0  0  0  0  0  0  0  0
  2  1  1  0
  3  2  2  0
  4  2  1  0
  5  6  1  6
  5  4  1  0
  7  5  1  0
  8  7  2  0
  9 10  1  0
 10 20  2  0
 10 11  1  0
 11 12  2  0
 12 13  1  0
 13 14  1  0
 15 14  1  1
 15 17  1  0
 15 16  1  0
 16  7  1  0
 17 21  1  0
 18 17  2  0
 19 13  2  0
 20 19  1  0
 22 21  1  0
 22 23  1  1
 22 33  1  0
 24 32  1  0
 24 23  1  0
 25 24  2  0
 26 25  1  0
 26 27  1  0
 27 32  2  0
 28 27  1  0
 28 29  2  0
 29 30  1  0
 30 31  2  0
 32 31  1  0
 33 34  2  0
 33 35  1  0
M  END
$$$$
