NYW.pdb
     RDKit          3D

 35 37  0  0  1  0  0  0  0  0999 V2000
   11.1522  -18.3406   16.2464 N   0  0  0  0  0  0  0  0  0  0  0  0
    9.8153  -17.9769   15.9281 C   0  0  0  0  0  0  0  0  0  0  0  0
    9.4341  -18.0908   14.7361 O   0  0  0  0  0  0  0  0  0  0  0  0
    8.8902  -17.4795   16.9474 C   0  0  0  0  0  0  0  0  0  0  0  0
    8.0393  -18.6106   17.5429 C   0  0  2  0  0  0  0  0  0  0  0  0
    6.7693  -18.5409   16.8442 N   0  0  0  0  0  0  0  0  0  0  0  0
    7.8785  -18.2688   18.9818 C   0  0  0  0  0  0  0  0  0  0  0  0
    7.3043  -17.1728   19.2466 O   0  0  0  0  0  0  0  0  0  0  0  0
    7.5460  -19.0682   27.8309 O   0  0  0  0  0  0  0  0  0  0  0  0
    7.6242  -19.2972   26.4410 C   0  0  0  0  0  0  0  0  0  0  0  0
    6.5714  -18.9927   25.6358 C   0  0  0  0  0  0  0  0  0  0  0  0
    6.6549  -19.2226   24.2541 C   0  0  0  0  0  0  0  0  0  0  0  0
    7.7941  -19.7555   23.6972 C   0  0  0  0  0  0  0  0  0  0  0  0
    7.8801  -19.9913   22.2679 C   0  0  0  0  0  0  0  0  0  0  0  0
    8.0352  -18.7352   21.4281 C   0  0  2  0  0  0  0  0  0  0  0  0
    8.3280  -19.0958   20.0318 N   0  0  0  0  0  0  0  0  0  0  0  0
    9.1197  -17.8835   21.9803 C   0  0  0  0  0  0  0  0  0  0  0  0
   10.3248  -18.2365   21.7335 O   0  0  0  0  0  0  0  0  0  0  0  0
    8.8421  -20.0541   24.5304 C   0  0  0  0  0  0  0  0  0  0  0  0
    8.7719  -19.8306   25.9040 C   0  0  0  0  0  0  0  0  0  0  0  0
    8.9469  -16.7278   22.7479 N   0  0  0  0  0  0  0  0  0  0  0  0
   10.0971  -15.9469   23.2651 C   0  0  1  0  0  0  0  0  0  0  0  0
    9.7016  -14.5352   23.4686 C   0  0  0  0  0  0  0  0  0  0  0  0
    9.0133  -14.3094   24.7394 C   0  0  0  0  0  0  0  0  0  0  0  0
    9.1794  -15.0436   25.9299 C   0  0  0  0  0  0  0  0  0  0  0  0
    8.3572  -14.5864   26.8782 N   0  0  0  0  0  0  0  0  0  0  0  0
    7.6558  -13.5783   26.3598 C   0  0  0  0  0  0  0  0  0  0  0  0
    6.6931  -12.7603   26.9337 C   0  0  0  0  0  0  0  0  0  0  0  0
    6.0940  -11.7316   26.2069 C   0  0  0  0  0  0  0  0  0  0  0  0
    6.4818  -11.5442   24.8977 C   0  0  0  0  0  0  0  0  0  0  0  0
    7.4332  -12.3430   24.3075 C   0  0  0  0  0  0  0  0  0  0  0  0
    8.0273  -13.3721   25.0441 C   0  0  0  0  0  0  0  0  0  0  0  0
   10.5632  -16.6097   24.4727 C   0  0  0  0  0  0  0  0  0  0  0  0
   11.7873  -16.6313   24.8211 O   0  0  0  0  0  0  0  0  0  0  0  0
    9.6927  -17.2640   25.3396 O   0  0  0  0  0  0  0  0  0  0  0  0
  2  1  1  0
  3  2  2  0
  4  2  1  0
  5  6  1  6
  5  4  1  0
  7  5  1  0
  8  7  2  0
  9 10  1  0
 10 20  2  0
 10 11  1  0
 11 12  2  0
 12 13  1  0
 13 14  1  0
 15 14  1  1
 15 17  1  0
 15 16  1  0
 16  7  1  0
 17 21  1  0
 18 17  2  0
 19 13  2  0
 20 19  1  0
 22 21  1  0
 22 23  1  1
 22 33  1  0
 24 32  1  0
 24 23  1  0
 25 24  2  0
 26 25  1  0
 26 27  1  0
 27 32  2  0
 28 27  1  0
 28 29  2  0
 29 30  1  0
 30 31  2  0
 32 31  1  0
 33 34  2  0
 33 35  1  0
M  END
$$$$
