NYW.pdb
     RDKit          3D

 35 37  0  0  1  0  0  0  0  0999 V2000
   10.0261  -20.3375   18.4868 N   0  0  0  0  0  0  0  0  0  0  0  0
   11.1028  -19.9506   19.3305 C   0  0  0  0  0  0  0  0  0  0  0  0
   12.1334  -20.6695   19.3495 O   0  0  0  0  0  0  0  0  0  0  0  0
   11.0333  -18.7498   20.1643 C   0  0  0  0  0  0  0  0  0  0  0  0
    9.6528  -18.0821   20.0850 C   0  0  2  0  0  0  0  0  0  0  0  0
    9.5378  -17.6050   18.7192 N   0  0  0  0  0  0  0  0  0  0  0  0
    9.7065  -16.9477   21.0459 C   0  0  0  0  0  0  0  0  0  0  0  0
   10.8394  -16.4188   21.2407 O   0  0  0  0  0  0  0  0  0  0  0  0
    7.7841  -13.1841   16.5659 O   0  0  0  0  0  0  0  0  0  0  0  0
    7.7646  -13.4397   17.9533 C   0  0  0  0  0  0  0  0  0  0  0  0
    7.0632  -14.4956   18.4459 C   0  0  0  0  0  0  0  0  0  0  0  0
    7.0474  -14.7450   19.8266 C   0  0  0  0  0  0  0  0  0  0  0  0
    7.7357  -13.9317   20.6963 C   0  0  0  0  0  0  0  0  0  0  0  0
    7.7202  -14.1915   22.1239 C   0  0  0  0  0  0  0  0  0  0  0  0
    8.6963  -15.2612   22.5826 C   0  0  2  0  0  0  0  0  0  0  0  0
    8.5757  -16.4529   21.7278 N   0  0  0  0  0  0  0  0  0  0  0  0
    8.4357  -15.6143   24.0016 C   0  0  0  0  0  0  0  0  0  0  0  0
    7.5460  -14.9337   24.6207 O   0  0  0  0  0  0  0  0  0  0  0  0
    8.4355  -12.8733   20.1749 C   0  0  0  0  0  0  0  0  0  0  0  0
    8.4592  -12.6147   18.8058 C   0  0  0  0  0  0  0  0  0  0  0  0
    9.0739  -16.6244   24.7278 N   0  0  0  0  0  0  0  0  0  0  0  0
   10.0764  -16.3248   25.7792 C   0  0  1  0  0  0  0  0  0  0  0  0
    9.4199  -15.6750   26.9357 C   0  0  0  0  0  0  0  0  0  0  0  0
    8.1539  -15.0293   26.5890 C   0  0  0  0  0  0  0  0  0  0  0  0
    6.9678  -15.6672   26.1767 C   0  0  0  0  0  0  0  0  0  0  0  0
    6.0238  -14.7632   25.9012 N   0  0  0  0  0  0  0  0  0  0  0  0
    6.5409  -13.5536   26.1167 C   0  0  0  0  0  0  0  0  0  0  0  0
    5.9697  -12.2944   25.9991 C   0  0  0  0  0  0  0  0  0  0  0  0
    6.6941  -11.1424   26.3045 C   0  0  0  0  0  0  0  0  0  0  0  0
    7.9981  -11.2828   26.7282 C   0  0  0  0  0  0  0  0  0  0  0  0
    8.5855  -12.5203   26.8513 C   0  0  0  0  0  0  0  0  0  0  0  0
    7.8513  -13.6692   26.5420 C   0  0  0  0  0  0  0  0  0  0  0  0
   10.7483  -17.5724   26.1057 C   0  0  0  0  0  0  0  0  0  0  0  0
   10.4593  -18.6799   25.5487 O   0  0  0  0  0  0  0  0  0  0  0  0
   11.7667  -17.6376   27.0523 O   0  0  0  0  0  0  0  0  0  0  0  0
  2  1  1  0
  3  2  2  0
  4  2  1  0
  5  6  1  6
  5  4  1  0
  7  5  1  0
  8  7  2  0
  9 10  1  0
 10 20  2  0
 10 11  1  0
 11 12  2  0
 12 13  1  0
 13 14  1  0
 15 14  1  6
 15 17  1  0
 15 16  1  0
 16  7  1  0
 17 21  1  0
 18 17  2  0
 19 13  2  0
 20 19  1  0
 22 21  1  0
 22 23  1  1
 22 33  1  0
 24 32  1  0
 24 23  1  0
 25 24  2  0
 26 25  1  0
 26 27  1  0
 27 32  2  0
 28 27  1  0
 28 29  2  0
 29 30  1  0
 30 31  2  0
 32 31  1  0
 33 34  2  0
 33 35  1  0
M  END
$$$$
