EKE.pdb
     RDKit          3D

 28 27  0  0  1  0  0  0  0  0999 V2000
   18.4642  -13.2270  -16.0590 N   0  0  0  0  0  0  0  0  0  0  0  0
   18.4960  -11.8819  -16.5949 C   0  0  1  0  0  0  0  0  0  0  0  0
   17.1838  -11.1649  -16.3739 C   0  0  0  0  0  0  0  0  0  0  0  0
   16.1023  -11.9917  -17.0624 C   0  0  0  0  0  0  0  0  0  0  0  0
   14.7725  -11.3652  -16.9131 C   0  0  0  0  0  0  0  0  0  0  0  0
   13.7802  -11.9000  -17.4422 O   0  0  0  0  0  0  0  0  0  0  0  0
   19.6443  -11.1476  -16.0222 C   0  0  0  0  0  0  0  0  0  0  0  0
   19.7185  -10.9065  -14.7830 O   0  0  0  0  0  0  0  0  0  0  0  0
   14.6024  -10.1966  -16.1983 O   0  0  0  0  0  0  0  0  0  0  0  0
   20.7050  -10.6884  -16.8494 N   0  0  0  0  0  0  0  0  0  0  0  0
   21.8470   -9.9602  -16.4203 C   0  0  1  0  0  0  0  0  0  0  0  0
   23.1146  -10.3271  -17.2053 C   0  0  0  0  0  0  0  0  0  0  0  0
   24.0331  -11.1729  -16.3962 C   0  0  0  0  0  0  0  0  0  0  0  0
   25.4432  -10.6958  -16.4608 C   0  0  0  0  0  0  0  0  0  0  0  0
   26.3800  -11.5866  -15.6900 C   0  0  0  0  0  0  0  0  0  0  0  0
   27.7592  -11.1329  -15.8455 N   0  0  0  0  0  0  0  0  0  0  0  0
   21.6941   -8.4939  -16.5136 C   0  0  0  0  0  0  0  0  0  0  0  0
   21.7340   -7.9732  -17.6583 O   0  0  0  0  0  0  0  0  0  0  0  0
   21.5086   -7.6453  -15.4187 N   0  0  0  0  0  0  0  0  0  0  0  0
   21.3358   -6.1625  -15.5470 C   0  0  1  0  0  0  0  0  0  0  0  0
   19.8814   -5.8715  -15.4284 C   0  0  0  0  0  0  0  0  0  0  0  0
   19.4709   -4.4643  -15.3256 C   0  0  0  0  0  0  0  0  0  0  0  0
   18.0682   -4.1113  -15.1563 C   0  0  0  0  0  0  0  0  0  0  0  0
   17.2173   -5.0481  -14.9583 O   0  0  0  0  0  0  0  0  0  0  0  0
   22.1024   -5.6219  -14.4162 C   0  0  0  0  0  0  0  0  0  0  0  0
   22.3466   -4.2251  -14.3839 O   0  0  0  0  0  0  0  0  0  0  0  0
   17.5638   -2.8224  -15.1883 O   0  0  0  0  0  0  0  0  0  0  0  0
   22.5804   -6.2514  -13.4541 O   0  0  0  0  0  0  0  0  0  0  0  0
  2  1  1  1
  2  3  1  0
  3  4  1  0
  5  4  1  0
  6  5  2  0
  7  2  1  0
  7 10  1  0
  8  7  2  0
  9  5  1  0
 11 10  1  0
 11 12  1  6
 13 12  1  0
 13 14  1  0
 15 14  1  0
 16 15  1  0
 17 11  1  0
 18 17  2  0
 19 17  1  0
 20 19  1  0
 20 21  1  1
 22 21  1  0
 23 24  2  0
 23 22  1  0
 25 20  1  0
 25 26  1  0
 27 23  1  0
 28 25  2  0
M  END
$$$$
