EKE.pdb
     RDKit          3D

 28 27  0  0  1  0  0  0  0  0999 V2000
   25.8410  -20.5029  -14.4014 N   0  0  0  0  0  0  0  0  0  0  0  0
   24.9923  -20.3756  -15.5679 C   0  0  1  0  0  0  0  0  0  0  0  0
   25.3521  -21.3894  -16.6298 C   0  0  0  0  0  0  0  0  0  0  0  0
   26.2160  -22.4520  -15.9575 C   0  0  0  0  0  0  0  0  0  0  0  0
   27.6537  -22.1916  -16.1778 C   0  0  0  0  0  0  0  0  0  0  0  0
   28.4832  -23.0878  -15.9340 O   0  0  0  0  0  0  0  0  0  0  0  0
   23.5738  -20.4637  -15.1605 C   0  0  0  0  0  0  0  0  0  0  0  0
   22.6541  -20.6279  -16.0128 O   0  0  0  0  0  0  0  0  0  0  0  0
   28.1018  -20.9742  -16.6494 O   0  0  0  0  0  0  0  0  0  0  0  0
   23.1980  -20.3670  -13.7932 N   0  0  0  0  0  0  0  0  0  0  0  0
   21.8858  -20.5239  -13.2718 C   0  0  1  0  0  0  0  0  0  0  0  0
   21.8430  -20.4494  -11.7387 C   0  0  0  0  0  0  0  0  0  0  0  0
   20.5029  -20.8220  -11.2105 C   0  0  0  0  0  0  0  0  0  0  0  0
   20.3175  -22.2984  -11.1334 C   0  0  0  0  0  0  0  0  0  0  0  0
   18.9472  -22.6736  -10.6368 C   0  0  0  0  0  0  0  0  0  0  0  0
   18.7951  -24.1256  -10.6068 N   0  0  0  0  0  0  0  0  0  0  0  0
   20.9163  -19.5301  -13.7766 C   0  0  0  0  0  0  0  0  0  0  0  0
   21.1226  -18.3197  -13.5020 O   0  0  0  0  0  0  0  0  0  0  0  0
   19.7862  -19.8413  -14.5376 N   0  0  0  0  0  0  0  0  0  0  0  0
   18.8273  -18.8087  -15.0470 C   0  0  1  0  0  0  0  0  0  0  0  0
   17.9676  -19.4647  -16.0690 C   0  0  0  0  0  0  0  0  0  0  0  0
   16.8815  -18.6715  -16.6613 C   0  0  0  0  0  0  0  0  0  0  0  0
   15.5764  -19.2685  -16.9080 C   0  0  0  0  0  0  0  0  0  0  0  0
   14.6671  -18.5542  -17.4593 O   0  0  0  0  0  0  0  0  0  0  0  0
   18.0669  -18.4178  -13.8523 C   0  0  0  0  0  0  0  0  0  0  0  0
   17.7847  -19.4169  -12.8858 O   0  0  0  0  0  0  0  0  0  0  0  0
   15.2261  -20.5706  -16.5944 O   0  0  0  0  0  0  0  0  0  0  0  0
   17.6242  -17.2886  -13.5710 O   0  0  0  0  0  0  0  0  0  0  0  0
  2  1  1  1
  2  3  1  0
  3  4  1  0
  5  4  1  0
  6  5  2  0
  7  2  1  0
  7 10  1  0
  8  7  2  0
  9  5  1  0
 11 10  1  0
 11 12  1  1
 13 12  1  0
 13 14  1  0
 15 14  1  0
 16 15  1  0
 17 11  1  0
 18 17  2  0
 19 17  1  0
 20 19  1  0
 20 21  1  6
 22 21  1  0
 23 24  2  0
 23 22  1  0
 25 20  1  0
 25 26  1  0
 27 23  1  0
 28 25  2  0
M  END
$$$$
