EKE.pdb
     RDKit          3D

 28 27  0  0  1  0  0  0  0  0999 V2000
   28.0628  -21.8538  -16.8621 N   0  0  0  0  0  0  0  0  0  0  0  0
   27.9274  -20.8837  -15.7953 C   0  0  1  0  0  0  0  0  0  0  0  0
   28.0054  -19.4679  -16.3190 C   0  0  0  0  0  0  0  0  0  0  0  0
   28.0937  -19.5589  -17.8393 C   0  0  0  0  0  0  0  0  0  0  0  0
   27.2782  -18.5108  -18.4871 C   0  0  0  0  0  0  0  0  0  0  0  0
   27.5467  -17.3120  -18.2832 O   0  0  0  0  0  0  0  0  0  0  0  0
   26.6785  -21.1411  -15.0471 C   0  0  0  0  0  0  0  0  0  0  0  0
   25.6854  -21.6978  -15.5975 O   0  0  0  0  0  0  0  0  0  0  0  0
   26.2216  -18.8292  -19.3163 O   0  0  0  0  0  0  0  0  0  0  0  0
   26.5547  -20.7702  -13.6806 N   0  0  0  0  0  0  0  0  0  0  0  0
   25.4138  -20.9708  -12.8581 C   0  0  1  0  0  0  0  0  0  0  0  0
   25.6918  -20.6812  -11.3760 C   0  0  0  0  0  0  0  0  0  0  0  0
   24.5286  -21.0412  -10.5211 C   0  0  0  0  0  0  0  0  0  0  0  0
   24.7973  -20.8057   -9.0746 C   0  0  0  0  0  0  0  0  0  0  0  0
   23.6065  -21.1344   -8.2148 C   0  0  0  0  0  0  0  0  0  0  0  0
   23.8627  -20.7650   -6.8255 N   0  0  0  0  0  0  0  0  0  0  0  0
   24.2450  -20.1535  -13.2429 C   0  0  0  0  0  0  0  0  0  0  0  0
   24.3672  -18.9019  -13.2013 O   0  0  0  0  0  0  0  0  0  0  0  0
   23.0133  -20.6740  -13.6494 N   0  0  0  0  0  0  0  0  0  0  0  0
   21.8767  -19.8217  -14.1257 C   0  0  1  0  0  0  0  0  0  0  0  0
   21.3323  -20.4531  -15.3582 C   0  0  0  0  0  0  0  0  0  0  0  0
   20.1479  -19.8404  -15.9755 C   0  0  0  0  0  0  0  0  0  0  0  0
   19.5790  -20.3921  -17.1973 C   0  0  0  0  0  0  0  0  0  0  0  0
   18.5426  -19.8325  -17.7009 O   0  0  0  0  0  0  0  0  0  0  0  0
   20.9183  -19.8631  -13.0129 C   0  0  0  0  0  0  0  0  0  0  0  0
   20.9957  -20.9519  -12.1072 O   0  0  0  0  0  0  0  0  0  0  0  0
   20.0737  -21.4911  -17.8785 O   0  0  0  0  0  0  0  0  0  0  0  0
   20.0193  -19.0411  -12.7555 O   0  0  0  0  0  0  0  0  0  0  0  0
  2  1  1  6
  2  3  1  0
  3  4  1  0
  5  4  1  0
  6  5  2  0
  7  2  1  0
  7 10  1  0
  8  7  2  0
  9  5  1  0
 11 10  1  0
 11 12  1  1
 13 12  1  0
 13 14  1  0
 15 14  1  0
 16 15  1  0
 17 11  1  0
 18 17  2  0
 19 17  1  0
 20 19  1  0
 20 21  1  6
 22 21  1  0
 23 24  2  0
 23 22  1  0
 25 20  1  0
 25 26  1  0
 27 23  1  0
 28 25  2  0
M  END
$$$$
