EKE.pdb
     RDKit          3D

 28 27  0  0  1  0  0  0  0  0999 V2000
   15.7858  -13.4018  -17.5324 N   0  0  0  0  0  0  0  0  0  0  0  0
   16.3254  -12.8886  -16.2903 C   0  0  1  0  0  0  0  0  0  0  0  0
   17.2559  -13.8839  -15.6358 C   0  0  0  0  0  0  0  0  0  0  0  0
   16.4020  -15.0677  -15.1920 C   0  0  0  0  0  0  0  0  0  0  0  0
   17.1920  -16.0295  -14.3957 C   0  0  0  0  0  0  0  0  0  0  0  0
   17.6656  -15.6748  -13.3000 O   0  0  0  0  0  0  0  0  0  0  0  0
   16.9757  -11.5835  -16.5344 C   0  0  0  0  0  0  0  0  0  0  0  0
   17.7770  -11.4185  -17.4987 O   0  0  0  0  0  0  0  0  0  0  0  0
   17.4187  -17.3171  -14.8384 O   0  0  0  0  0  0  0  0  0  0  0  0
   16.7193  -10.4691  -15.6903 N   0  0  0  0  0  0  0  0  0  0  0  0
   17.3059   -9.1800  -15.8031 C   0  0  1  0  0  0  0  0  0  0  0  0
   16.4071   -8.0676  -15.2443 C   0  0  0  0  0  0  0  0  0  0  0  0
   16.9547   -6.7180  -15.5482 C   0  0  0  0  0  0  0  0  0  0  0  0
   16.0742   -5.6258  -15.0462 C   0  0  0  0  0  0  0  0  0  0  0  0
   16.6215   -4.2614  -15.3689 C   0  0  0  0  0  0  0  0  0  0  0  0
   15.6175   -3.2339  -15.1072 N   0  0  0  0  0  0  0  0  0  0  0  0
   18.6139   -9.0544  -15.1281 C   0  0  0  0  0  0  0  0  0  0  0  0
   18.6913   -9.4266  -13.9287 O   0  0  0  0  0  0  0  0  0  0  0  0
   19.7706   -8.5507  -15.7293 N   0  0  0  0  0  0  0  0  0  0  0  0
   21.1190   -8.5856  -15.0767 C   0  0  1  0  0  0  0  0  0  0  0  0
   22.0846   -9.1152  -16.0773 C   0  0  0  0  0  0  0  0  0  0  0  0
   23.5095   -9.1198  -15.7180 C   0  0  0  0  0  0  0  0  0  0  0  0
   24.5146   -9.5598  -16.6755 C   0  0  0  0  0  0  0  0  0  0  0  0
   24.7717   -8.8136  -17.6845 O   0  0  0  0  0  0  0  0  0  0  0  0
   21.3828   -7.1792  -14.7434 C   0  0  0  0  0  0  0  0  0  0  0  0
   20.8284   -6.1801  -15.5837 O   0  0  0  0  0  0  0  0  0  0  0  0
   25.2344  -10.7390  -16.5865 O   0  0  0  0  0  0  0  0  0  0  0  0
   22.0513   -6.7385  -13.7899 O   0  0  0  0  0  0  0  0  0  0  0  0
  2  1  1  6
  2  3  1  0
  3  4  1  0
  5  4  1  0
  6  5  2  0
  7  2  1  0
  7 10  1  0
  8  7  2  0
  9  5  1  0
 11 10  1  0
 11 12  1  1
 13 12  1  0
 13 14  1  0
 15 14  1  0
 16 15  1  0
 17 11  1  0
 18 17  2  0
 19 17  1  0
 20 19  1  0
 20 21  1  6
 22 21  1  0
 23 24  2  0
 23 22  1  0
 25 20  1  0
 25 26  1  0
 27 23  1  0
 28 25  2  0
M  END
$$$$
