EKE.pdb
     RDKit          3D

 28 27  0  0  1  0  0  0  0  0999 V2000
   26.8107  -17.1001  -18.5018 N   0  0  0  0  0  0  0  0  0  0  0  0
   25.3849  -17.2068  -18.7328 C   0  0  1  0  0  0  0  0  0  0  0  0
   25.0608  -17.2193  -20.2091 C   0  0  0  0  0  0  0  0  0  0  0  0
   26.0311  -16.2567  -20.8869 C   0  0  0  0  0  0  0  0  0  0  0  0
   25.6625  -14.8503  -20.6232 C   0  0  0  0  0  0  0  0  0  0  0  0
   26.5301  -13.9618  -20.7154 O   0  0  0  0  0  0  0  0  0  0  0  0
   24.8565  -18.3945  -18.0285 C   0  0  0  0  0  0  0  0  0  0  0  0
   23.6702  -18.7930  -18.2107 O   0  0  0  0  0  0  0  0  0  0  0  0
   24.3745  -14.4957  -20.2760 O   0  0  0  0  0  0  0  0  0  0  0  0
   25.6683  -19.1287  -17.1218 N   0  0  0  0  0  0  0  0  0  0  0  0
   25.2567  -20.2426  -16.3419 C   0  0  1  0  0  0  0  0  0  0  0  0
   26.4348  -20.9725  -15.6808 C   0  0  0  0  0  0  0  0  0  0  0  0
   27.0785  -21.9322  -16.6179 C   0  0  0  0  0  0  0  0  0  0  0  0
   28.2938  -22.5642  -16.0315 C   0  0  0  0  0  0  0  0  0  0  0  0
   28.9807  -23.4850  -17.0039 C   0  0  0  0  0  0  0  0  0  0  0  0
   30.2681  -23.9217  -16.4709 N   0  0  0  0  0  0  0  0  0  0  0  0
   24.3041  -19.9026  -15.2652 C   0  0  0  0  0  0  0  0  0  0  0  0
   24.6798  -19.0808  -14.3898 O   0  0  0  0  0  0  0  0  0  0  0  0
   23.0152  -20.4308  -15.1517 N   0  0  0  0  0  0  0  0  0  0  0  0
   22.0829  -20.0914  -14.0288 C   0  0  1  0  0  0  0  0  0  0  0  0
   20.7716  -19.7302  -14.6322 C   0  0  0  0  0  0  0  0  0  0  0  0
   19.6628  -19.4137  -13.7213 C   0  0  0  0  0  0  0  0  0  0  0  0
   18.3339  -19.1255  -14.2425 C   0  0  0  0  0  0  0  0  0  0  0  0
   17.3909  -19.9639  -14.0214 O   0  0  0  0  0  0  0  0  0  0  0  0
   22.0095  -21.3335  -13.2476 C   0  0  0  0  0  0  0  0  0  0  0  0
   22.4077  -22.5407  -13.8767 O   0  0  0  0  0  0  0  0  0  0  0  0
   17.9929  -17.9977  -14.9694 O   0  0  0  0  0  0  0  0  0  0  0  0
   21.6304  -21.4667  -12.0691 O   0  0  0  0  0  0  0  0  0  0  0  0
  2  1  1  6
  2  3  1  0
  3  4  1  0
  5  4  1  0
  6  5  2  0
  7  2  1  0
  7 10  1  0
  8  7  2  0
  9  5  1  0
 11 10  1  0
 11 12  1  1
 13 12  1  0
 13 14  1  0
 15 14  1  0
 16 15  1  0
 17 11  1  0
 18 17  2  0
 19 17  1  0
 20 19  1  0
 20 21  1  6
 22 21  1  0
 23 24  2  0
 23 22  1  0
 25 20  1  0
 25 26  1  0
 27 23  1  0
 28 25  2  0
M  END
$$$$
