EKE.pdb
     RDKit          3D

 28 27  0  0  1  0  0  0  0  0999 V2000
   21.6468  -27.4478  -10.3337 N   0  0  0  0  0  0  0  0  0  0  0  0
   20.6624  -27.7117  -11.3626 C   0  0  1  0  0  0  0  0  0  0  0  0
   20.5621  -29.1884  -11.6696 C   0  0  0  0  0  0  0  0  0  0  0  0
   20.1573  -29.8866  -10.3750 C   0  0  0  0  0  0  0  0  0  0  0  0
   20.0347  -31.3462  -10.5691 C   0  0  0  0  0  0  0  0  0  0  0  0
   19.6810  -32.0637   -9.6148 O   0  0  0  0  0  0  0  0  0  0  0  0
   19.3631  -27.1277  -10.9667 C   0  0  0  0  0  0  0  0  0  0  0  0
   18.3773  -27.1197  -11.7587 O   0  0  0  0  0  0  0  0  0  0  0  0
   20.3036  -31.9364  -11.7876 O   0  0  0  0  0  0  0  0  0  0  0  0
   19.1804  -26.5554   -9.6785 N   0  0  0  0  0  0  0  0  0  0  0  0
   17.9737  -26.0045   -9.1700 C   0  0  1  0  0  0  0  0  0  0  0  0
   18.0182  -25.7763   -7.6522 C   0  0  0  0  0  0  0  0  0  0  0  0
   16.7051  -25.3101   -7.1307 C   0  0  0  0  0  0  0  0  0  0  0  0
   16.6661  -25.2859   -5.6414 C   0  0  0  0  0  0  0  0  0  0  0  0
   15.3123  -24.8915   -5.1151 C   0  0  0  0  0  0  0  0  0  0  0  0
   15.2862  -24.9787   -3.6577 N   0  0  0  0  0  0  0  0  0  0  0  0
   17.5950  -24.7164   -9.7864 C   0  0  0  0  0  0  0  0  0  0  0  0
   18.4332  -23.7791   -9.7445 O   0  0  0  0  0  0  0  0  0  0  0  0
   16.3706  -24.4672  -10.4123 N   0  0  0  0  0  0  0  0  0  0  0  0
   16.1251  -23.2835  -11.2977 C   0  0  1  0  0  0  0  0  0  0  0  0
   15.7166  -23.8018  -12.6313 C   0  0  0  0  0  0  0  0  0  0  0  0
   15.2577  -22.8291  -13.6327 C   0  0  0  0  0  0  0  0  0  0  0  0
   14.7562  -23.2754  -14.9249 C   0  0  0  0  0  0  0  0  0  0  0  0
   15.0052  -24.4743  -15.3011 O   0  0  0  0  0  0  0  0  0  0  0  0
   15.0344  -22.5642  -10.6256 C   0  0  0  0  0  0  0  0  0  0  0  0
   14.8812  -21.1808  -10.8985 O   0  0  0  0  0  0  0  0  0  0  0  0
   14.0146  -22.5004  -15.8002 O   0  0  0  0  0  0  0  0  0  0  0  0
   14.2030  -23.0266   -9.8224 O   0  0  0  0  0  0  0  0  0  0  0  0
  2  1  1  1
  2  3  1  0
  3  4  1  0
  5  4  1  0
  6  5  2  0
  7  2  1  0
  7 10  1  0
  8  7  2  0
  9  5  1  0
 11 10  1  0
 11 12  1  1
 13 12  1  0
 13 14  1  0
 15 14  1  0
 16 15  1  0
 17 11  1  0
 18 17  2  0
 19 17  1  0
 20 19  1  0
 20 21  1  6
 22 21  1  0
 23 24  2  0
 23 22  1  0
 25 20  1  0
 25 26  1  0
 27 23  1  0
 28 25  2  0
M  END
$$$$
