EKE.pdb
     RDKit          3D

 28 27  0  0  1  0  0  0  0  0999 V2000
   16.4005  -11.4846  -15.3129 N   0  0  0  0  0  0  0  0  0  0  0  0
   16.9825  -11.1969  -14.0183 C   0  0  1  0  0  0  0  0  0  0  0  0
   18.4276  -10.7708  -14.1413 C   0  0  0  0  0  0  0  0  0  0  0  0
   18.8174  -10.9339  -15.6071 C   0  0  0  0  0  0  0  0  0  0  0  0
   20.2415  -10.6043  -15.8227 C   0  0  0  0  0  0  0  0  0  0  0  0
   20.9276  -10.1964  -14.8669 O   0  0  0  0  0  0  0  0  0  0  0  0
   16.1555  -10.1930  -13.3154 C   0  0  0  0  0  0  0  0  0  0  0  0
   15.5699   -9.2661  -13.9457 O   0  0  0  0  0  0  0  0  0  0  0  0
   20.8327  -10.7383  -17.0628 O   0  0  0  0  0  0  0  0  0  0  0  0
   15.9915  -10.2386  -11.9043 N   0  0  0  0  0  0  0  0  0  0  0  0
   15.1726   -9.3757  -11.1277 C   0  0  1  0  0  0  0  0  0  0  0  0
   14.3418  -10.1297  -10.0795 C   0  0  0  0  0  0  0  0  0  0  0  0
   13.1631  -10.7982  -10.6938 C   0  0  0  0  0  0  0  0  0  0  0  0
   12.4458  -11.6769   -9.7276 C   0  0  0  0  0  0  0  0  0  0  0  0
   11.3146  -12.4290  -10.3756 C   0  0  0  0  0  0  0  0  0  0  0  0
   10.5809  -13.2048   -9.3795 N   0  0  0  0  0  0  0  0  0  0  0  0
   15.9210   -8.3253  -10.4072 C   0  0  0  0  0  0  0  0  0  0  0  0
   16.8702   -8.6879   -9.6653 O   0  0  0  0  0  0  0  0  0  0  0  0
   15.6474   -6.9575  -10.4925 N   0  0  0  0  0  0  0  0  0  0  0  0
   16.4008   -5.9180   -9.7198 C   0  0  1  0  0  0  0  0  0  0  0  0
   16.0938   -4.5974  -10.3330 C   0  0  0  0  0  0  0  0  0  0  0  0
   16.6526   -3.3987   -9.6927 C   0  0  0  0  0  0  0  0  0  0  0  0
   16.4350   -2.0796  -10.2699 C   0  0  0  0  0  0  0  0  0  0  0  0
   15.7387   -1.9836  -11.3409 O   0  0  0  0  0  0  0  0  0  0  0  0
   15.8614   -6.0349   -8.3582 C   0  0  0  0  0  0  0  0  0  0  0  0
   14.6037   -6.6692   -8.1921 O   0  0  0  0  0  0  0  0  0  0  0  0
   16.9234   -0.8937   -9.7486 O   0  0  0  0  0  0  0  0  0  0  0  0
   16.3816   -5.6359   -7.2997 O   0  0  0  0  0  0  0  0  0  0  0  0
  2  1  1  6
  2  3  1  0
  3  4  1  0
  5  4  1  0
  6  5  2  0
  7  2  1  0
  7 10  1  0
  8  7  2  0
  9  5  1  0
 11 10  1  0
 11 12  1  1
 13 12  1  0
 13 14  1  0
 15 14  1  0
 16 15  1  0
 17 11  1  0
 18 17  2  0
 19 17  1  0
 20 19  1  0
 20 21  1  6
 22 21  1  0
 23 24  2  0
 23 22  1  0
 25 20  1  0
 25 26  1  0
 27 23  1  0
 28 25  2  0
M  END
$$$$
