EKE.pdb
     RDKit          3D

 28 27  0  0  1  0  0  0  0  0999 V2000
   22.3531  -20.8055  -12.4255 N   0  0  0  0  0  0  0  0  0  0  0  0
   21.4494  -20.5863  -13.5358 C   0  0  1  0  0  0  0  0  0  0  0  0
   20.0176  -20.4554  -13.0692 C   0  0  0  0  0  0  0  0  0  0  0  0
   19.5629  -21.8440  -12.6304 C   0  0  0  0  0  0  0  0  0  0  0  0
   18.1105  -21.8715  -12.3600 C   0  0  0  0  0  0  0  0  0  0  0  0
   17.4582  -20.8119  -12.4071 O   0  0  0  0  0  0  0  0  0  0  0  0
   21.8986  -19.4136  -14.3161 C   0  0  0  0  0  0  0  0  0  0  0  0
   22.4353  -18.4162  -13.7536 O   0  0  0  0  0  0  0  0  0  0  0  0
   17.4563  -23.0482  -12.0554 O   0  0  0  0  0  0  0  0  0  0  0  0
   21.7413  -19.3705  -15.7281 N   0  0  0  0  0  0  0  0  0  0  0  0
   22.2030  -18.3410  -16.5914 C   0  0  1  0  0  0  0  0  0  0  0  0
   22.9565  -18.8846  -17.8139 C   0  0  0  0  0  0  0  0  0  0  0  0
   23.5104  -17.7844  -18.6484 C   0  0  0  0  0  0  0  0  0  0  0  0
   24.9979  -17.7244  -18.5878 C   0  0  0  0  0  0  0  0  0  0  0  0
   25.5540  -16.5851  -19.3990 C   0  0  0  0  0  0  0  0  0  0  0  0
   27.0132  -16.5837  -19.3436 N   0  0  0  0  0  0  0  0  0  0  0  0
   21.1321  -17.4618  -17.1038 C   0  0  0  0  0  0  0  0  0  0  0  0
   20.0824  -18.0071  -17.5323 O   0  0  0  0  0  0  0  0  0  0  0  0
   21.2045  -16.0667  -17.1457 N   0  0  0  0  0  0  0  0  0  0  0  0
   20.0806  -15.1985  -17.6231 C   0  0  1  0  0  0  0  0  0  0  0  0
   20.4497  -13.7880  -17.3256 C   0  0  0  0  0  0  0  0  0  0  0  0
   20.0851  -13.2481  -16.0085 C   0  0  0  0  0  0  0  0  0  0  0  0
   20.2914  -11.8397  -15.7011 C   0  0  0  0  0  0  0  0  0  0  0  0
   21.1686  -11.1863  -16.3679 O   0  0  0  0  0  0  0  0  0  0  0  0
   20.0233  -15.4629  -19.0672 C   0  0  0  0  0  0  0  0  0  0  0  0
   18.7600  -15.7567  -19.6412 O   0  0  0  0  0  0  0  0  0  0  0  0
   19.6046  -11.1291  -14.7316 O   0  0  0  0  0  0  0  0  0  0  0  0
   20.9699  -15.4631  -19.8761 O   0  0  0  0  0  0  0  0  0  0  0  0
  2  1  1  1
  2  3  1  0
  3  4  1  0
  5  4  1  0
  6  5  2  0
  7  2  1  0
  7 10  1  0
  8  7  2  0
  9  5  1  0
 11 10  1  0
 11 12  1  6
 13 12  1  0
 13 14  1  0
 15 14  1  0
 16 15  1  0
 17 11  1  0
 18 17  2  0
 19 17  1  0
 20 19  1  0
 20 21  1  6
 22 21  1  0
 23 24  2  0
 23 22  1  0
 25 20  1  0
 25 26  1  0
 27 23  1  0
 28 25  2  0
M  END
$$$$
