EKE.pdb
     RDKit          3D

 28 27  0  0  1  0  0  0  0  0999 V2000
   15.6268  -13.0846  -11.9825 N   0  0  0  0  0  0  0  0  0  0  0  0
   16.4944  -12.2520  -12.7897 C   0  0  1  0  0  0  0  0  0  0  0  0
   16.3408  -12.5540  -14.2628 C   0  0  0  0  0  0  0  0  0  0  0  0
   15.4339  -13.7755  -14.3754 C   0  0  0  0  0  0  0  0  0  0  0  0
   15.1963  -14.1380  -15.7880 C   0  0  0  0  0  0  0  0  0  0  0  0
   14.1364  -14.7104  -16.1038 O   0  0  0  0  0  0  0  0  0  0  0  0
   16.2468  -10.8285  -12.4762 C   0  0  0  0  0  0  0  0  0  0  0  0
   16.4965   -9.9172  -13.3168 O   0  0  0  0  0  0  0  0  0  0  0  0
   16.1242  -13.8564  -16.7703 O   0  0  0  0  0  0  0  0  0  0  0  0
   15.7178  -10.4381  -11.2161 N   0  0  0  0  0  0  0  0  0  0  0  0
   15.4335   -9.1091  -10.8021 C   0  0  1  0  0  0  0  0  0  0  0  0
   14.3584   -9.0451   -9.7077 C   0  0  0  0  0  0  0  0  0  0  0  0
   13.9706   -7.6413   -9.4038 C   0  0  0  0  0  0  0  0  0  0  0  0
   12.9030   -7.5627   -8.3674 C   0  0  0  0  0  0  0  0  0  0  0  0
   12.5141   -6.1418   -8.0590 C   0  0  0  0  0  0  0  0  0  0  0  0
   11.5542   -6.1026   -6.9593 N   0  0  0  0  0  0  0  0  0  0  0  0
   16.6093   -8.3746  -10.2918 C   0  0  0  0  0  0  0  0  0  0  0  0
   17.2639   -8.8980   -9.3535 O   0  0  0  0  0  0  0  0  0  0  0  0
   17.0444   -7.1391  -10.7789 N   0  0  0  0  0  0  0  0  0  0  0  0
   18.3203   -6.4858  -10.3426 C   0  0  1  0  0  0  0  0  0  0  0  0
   19.2976   -6.6294  -11.4555 C   0  0  0  0  0  0  0  0  0  0  0  0
   20.6109   -5.9887  -11.3004 C   0  0  0  0  0  0  0  0  0  0  0  0
   21.5809   -6.0128  -12.3863 C   0  0  0  0  0  0  0  0  0  0  0  0
   21.9784   -7.1464  -12.8313 O   0  0  0  0  0  0  0  0  0  0  0  0
   17.9376   -5.0849  -10.1195 C   0  0  0  0  0  0  0  0  0  0  0  0
   16.7986   -4.5884  -10.8035 O   0  0  0  0  0  0  0  0  0  0  0  0
   22.1203   -4.8925  -12.9950 O   0  0  0  0  0  0  0  0  0  0  0  0
   18.5020   -4.2524   -9.3856 O   0  0  0  0  0  0  0  0  0  0  0  0
  2  1  1  1
  2  3  1  0
  3  4  1  0
  5  4  1  0
  6  5  2  0
  7  2  1  0
  7 10  1  0
  8  7  2  0
  9  5  1  0
 11 10  1  0
 11 12  1  1
 13 12  1  0
 13 14  1  0
 15 14  1  0
 16 15  1  0
 17 11  1  0
 18 17  2  0
 19 17  1  0
 20 19  1  0
 20 21  1  6
 22 21  1  0
 23 24  2  0
 23 22  1  0
 25 20  1  0
 25 26  1  0
 27 23  1  0
 28 25  2  0
M  END
$$$$
