EKE.pdb
     RDKit          3D

 28 27  0  0  1  0  0  0  0  0999 V2000
   12.9734  -13.8674  -14.3699 N   0  0  0  0  0  0  0  0  0  0  0  0
   14.2033  -13.2512  -13.9168 C   0  0  1  0  0  0  0  0  0  0  0  0
   15.4162  -14.0210  -14.3870 C   0  0  0  0  0  0  0  0  0  0  0  0
   15.3472  -15.4007  -13.7397 C   0  0  0  0  0  0  0  0  0  0  0  0
   16.4227  -16.2817  -14.2401 C   0  0  0  0  0  0  0  0  0  0  0  0
   17.5959  -15.8646  -14.2625 O   0  0  0  0  0  0  0  0  0  0  0  0
   14.2335  -11.8353  -14.3412 C   0  0  0  0  0  0  0  0  0  0  0  0
   13.7978  -11.4791  -15.4737 O   0  0  0  0  0  0  0  0  0  0  0  0
   16.1578  -17.5612  -14.6852 O   0  0  0  0  0  0  0  0  0  0  0  0
   14.7546  -10.8263  -13.4864 N   0  0  0  0  0  0  0  0  0  0  0  0
   14.8475   -9.4406  -13.7856 C   0  0  1  0  0  0  0  0  0  0  0  0
   13.6369   -8.6417  -13.2817 C   0  0  0  0  0  0  0  0  0  0  0  0
   13.3143   -8.9722  -11.8674 C   0  0  0  0  0  0  0  0  0  0  0  0
   12.1071   -8.2474  -11.3800 C   0  0  0  0  0  0  0  0  0  0  0  0
   11.7679   -8.6014   -9.9570 C   0  0  0  0  0  0  0  0  0  0  0  0
   10.5538   -7.9090   -9.5344 N   0  0  0  0  0  0  0  0  0  0  0  0
   16.0523   -8.7868  -13.2347 C   0  0  0  0  0  0  0  0  0  0  0  0
   16.4175   -9.1144  -12.0761 O   0  0  0  0  0  0  0  0  0  0  0  0
   16.8138   -7.8299  -13.9110 N   0  0  0  0  0  0  0  0  0  0  0  0
   18.0594   -7.2193  -13.3447 C   0  0  1  0  0  0  0  0  0  0  0  0
   19.2173   -7.8402  -14.0431 C   0  0  0  0  0  0  0  0  0  0  0  0
   20.5599   -7.3339  -13.7262 C   0  0  0  0  0  0  0  0  0  0  0  0
   21.7409   -7.9343  -14.3306 C   0  0  0  0  0  0  0  0  0  0  0  0
   22.4199   -7.2457  -15.1708 O   0  0  0  0  0  0  0  0  0  0  0  0
   17.9236   -5.7909  -13.6605 C   0  0  0  0  0  0  0  0  0  0  0  0
   18.6805   -4.8651  -12.8977 O   0  0  0  0  0  0  0  0  0  0  0  0
   22.2057   -9.2116  -14.0680 O   0  0  0  0  0  0  0  0  0  0  0  0
   17.2074   -5.2730  -14.5374 O   0  0  0  0  0  0  0  0  0  0  0  0
  2  1  1  6
  2  3  1  0
  3  4  1  0
  5  4  1  0
  6  5  2  0
  7  2  1  0
  7 10  1  0
  8  7  2  0
  9  5  1  0
 11 10  1  0
 11 12  1  1
 13 12  1  0
 13 14  1  0
 15 14  1  0
 16 15  1  0
 17 11  1  0
 18 17  2  0
 19 17  1  0
 20 19  1  0
 20 21  1  6
 22 21  1  0
 23 24  2  0
 23 22  1  0
 25 20  1  0
 25 26  1  0
 27 23  1  0
 28 25  2  0
M  END
$$$$
