GVV.pdb
     RDKit          3D

 19 18  0  0  1  0  0  0  0  0999 V2000
   22.0215  -14.8309  -19.3595 N   0  0  0  0  0  0  0  0  0  0  0  0
   21.9207  -13.4006  -19.5482 C   0  0  0  0  0  0  0  0  0  0  0  0
   21.9362  -12.6999  -18.2019 C   0  0  0  0  0  0  0  0  0  0  0  0
   21.1722  -13.1644  -17.3573 O   0  0  0  0  0  0  0  0  0  0  0  0
   24.5745  -12.1781  -15.7151 C   0  0  0  0  0  0  0  0  0  0  0  0
   24.1982  -10.7803  -16.0932 C   0  0  2  0  0  0  0  0  0  0  0  0
   24.0891   -9.9493  -14.8576 C   0  0  0  0  0  0  0  0  0  0  0  0
   22.8994  -10.7753  -16.8451 C   0  0  2  0  0  0  0  0  0  0  0  0
   22.7837  -11.6014  -17.9883 N   0  0  0  0  0  0  0  0  0  0  0  0
   22.2533   -9.4591  -16.9677 C   0  0  0  0  0  0  0  0  0  0  0  0
   22.5584   -8.5912  -17.8426 O   0  0  0  0  0  0  0  0  0  0  0  0
   18.6907   -8.8573  -17.6610 C   0  0  0  0  0  0  0  0  0  0  0  0
   18.9944   -8.1188  -16.3948 C   0  0  1  0  0  0  0  0  0  0  0  0
   18.5342   -8.9453  -15.2150 C   0  0  0  0  0  0  0  0  0  0  0  0
   20.4731   -7.8383  -16.2314 C   0  0  2  0  0  0  0  0  0  0  0  0
   21.2166   -9.0783  -16.0818 N   0  0  0  0  0  0  0  0  0  0  0  0
   20.6617   -6.9488  -15.0650 C   0  0  0  0  0  0  0  0  0  0  0  0
   20.4533   -5.6001  -15.1830 O   0  0  0  0  0  0  0  0  0  0  0  0
   21.0133   -7.4270  -13.9631 O   0  0  0  0  0  0  0  0  0  0  0  0
  1  2  1  0
  3  2  1  0
  3  4  2  0
  6  5  1  1
  6  8  1  0
  7  6  1  0
  8  9  1  6
  9  3  1  0
 10  8  1  0
 11 10  2  0
 13 12  1  6
 13 14  1  0
 15 16  1  1
 15 13  1  0
 16 10  1  0
 17 15  1  0
 18 17  1  0
 19 17  2  0
M  END
$$$$
