GVV.pdb
     RDKit          3D

 19 18  0  0  1  0  0  0  0  0999 V2000
   13.8449  -13.8381  -15.9242 N   0  0  0  0  0  0  0  0  0  0  0  0
   14.8188  -13.3633  -16.8822 C   0  0  0  0  0  0  0  0  0  0  0  0
   15.8800  -12.5404  -16.1748 C   0  0  0  0  0  0  0  0  0  0  0  0
   15.7550  -12.4565  -14.9542 O   0  0  0  0  0  0  0  0  0  0  0  0
   19.5005  -13.0480  -16.1118 C   0  0  0  0  0  0  0  0  0  0  0  0
   19.3839  -11.6522  -16.6376 C   0  0  2  0  0  0  0  0  0  0  0  0
   20.3610  -10.7758  -15.9261 C   0  0  0  0  0  0  0  0  0  0  0  0
   17.9859  -11.1396  -16.4501 C   0  0  2  0  0  0  0  0  0  0  0  0
   16.9120  -11.9375  -16.9112 N   0  0  0  0  0  0  0  0  0  0  0  0
   17.8163   -9.6939  -16.6650 C   0  0  0  0  0  0  0  0  0  0  0  0
   18.0718   -9.0982  -17.7566 O   0  0  0  0  0  0  0  0  0  0  0  0
   14.7017   -7.8323  -16.5271 C   0  0  0  0  0  0  0  0  0  0  0  0
   15.6083   -7.1416  -15.5566 C   0  0  1  0  0  0  0  0  0  0  0  0
   15.2703   -7.5930  -14.1534 C   0  0  0  0  0  0  0  0  0  0  0  0
   17.0688   -7.4451  -15.8153 C   0  0  2  0  0  0  0  0  0  0  0  0
   17.3398   -8.8603  -15.6245 N   0  0  0  0  0  0  0  0  0  0  0  0
   17.8939   -6.6088  -14.9169 C   0  0  0  0  0  0  0  0  0  0  0  0
   18.4030   -7.1329  -13.7583 O   0  0  0  0  0  0  0  0  0  0  0  0
   18.1304   -5.4161  -15.2135 O   0  0  0  0  0  0  0  0  0  0  0  0
  1  2  1  0
  3  2  1  0
  3  4  2  0
  6  5  1  1
  6  8  1  0
  7  6  1  0
  8  9  1  6
  9  3  1  0
 10  8  1  0
 11 10  2  0
 13 12  1  6
 13 14  1  0
 15 16  1  1
 15 13  1  0
 16 10  1  0
 17 15  1  0
 18 17  1  0
 19 17  2  0
M  END
$$$$
