GVV.pdb
     RDKit          3D

 19 18  0  0  1  0  0  0  0  0999 V2000
   19.7437  -14.2323  -19.0421 N   0  0  0  0  0  0  0  0  0  0  0  0
   20.6541  -13.1183  -19.1897 C   0  0  0  0  0  0  0  0  0  0  0  0
   20.8684  -12.4452  -17.8463 C   0  0  0  0  0  0  0  0  0  0  0  0
   19.8790  -12.3970  -17.1173 O   0  0  0  0  0  0  0  0  0  0  0  0
   23.7020  -12.9479  -15.2423 C   0  0  0  0  0  0  0  0  0  0  0  0
   23.7448  -11.5073  -15.6435 C   0  0  2  0  0  0  0  0  0  0  0  0
   23.8866  -10.6608  -14.4218 C   0  0  0  0  0  0  0  0  0  0  0  0
   22.4995  -11.1384  -16.3956 C   0  0  2  0  0  0  0  0  0  0  0  0
   22.1299  -11.9298  -17.5090 N   0  0  0  0  0  0  0  0  0  0  0  0
   22.2763   -9.6939  -16.5647 C   0  0  0  0  0  0  0  0  0  0  0  0
   22.9851   -8.9422  -17.3025 O   0  0  0  0  0  0  0  0  0  0  0  0
   19.5140   -7.8990  -18.0504 C   0  0  0  0  0  0  0  0  0  0  0  0
   19.5958   -7.3844  -16.6470 C   0  0  1  0  0  0  0  0  0  0  0  0
   18.5578   -8.0853  -15.7996 C   0  0  0  0  0  0  0  0  0  0  0  0
   20.9558   -7.6196  -16.0249 C   0  0  2  0  0  0  0  0  0  0  0  0
   21.2173   -9.0428  -15.8873 N   0  0  0  0  0  0  0  0  0  0  0  0
   21.0056   -6.9300  -14.7175 C   0  0  0  0  0  0  0  0  0  0  0  0
   20.9305   -7.6483  -13.5536 O   0  0  0  0  0  0  0  0  0  0  0  0
   21.1170   -5.6844  -14.6704 O   0  0  0  0  0  0  0  0  0  0  0  0
  1  2  1  0
  3  2  1  0
  3  4  2  0
  6  5  1  1
  6  8  1  0
  7  6  1  0
  8  9  1  6
  9  3  1  0
 10  8  1  0
 11 10  2  0
 13 12  1  6
 13 14  1  0
 15 16  1  1
 15 13  1  0
 16 10  1  0
 17 15  1  0
 18 17  1  0
 19 17  2  0
M  END
$$$$
