GVV.pdb
     RDKit          3D

 19 18  0  0  1  0  0  0  0  0999 V2000
   22.0935  -14.3830  -18.9172 N   0  0  0  0  0  0  0  0  0  0  0  0
   22.2245  -13.7317  -17.6326 C   0  0  0  0  0  0  0  0  0  0  0  0
   21.2943  -12.5343  -17.5635 C   0  0  0  0  0  0  0  0  0  0  0  0
   21.2591  -11.8354  -18.5749 O   0  0  0  0  0  0  0  0  0  0  0  0
   17.6358  -12.5626  -16.9070 C   0  0  0  0  0  0  0  0  0  0  0  0
   18.1865  -11.6867  -15.8263 C   0  0  2  0  0  0  0  0  0  0  0  0
   17.3119  -10.4863  -15.6731 C   0  0  0  0  0  0  0  0  0  0  0  0
   19.5913  -11.2737  -16.1551 C   0  0  2  0  0  0  0  0  0  0  0  0
   20.5478  -12.2874  -16.4005 N   0  0  0  0  0  0  0  0  0  0  0  0
   20.0974  -10.1195  -15.3957 C   0  0  0  0  0  0  0  0  0  0  0  0
   20.4313  -10.1595  -14.1715 O   0  0  0  0  0  0  0  0  0  0  0  0
   22.9084   -7.7828  -16.6358 C   0  0  0  0  0  0  0  0  0  0  0  0
   21.7465   -6.9412  -16.2085 C   0  0  1  0  0  0  0  0  0  0  0  0
   20.9954   -6.4721  -17.4343 C   0  0  0  0  0  0  0  0  0  0  0  0
   20.7821   -7.6980  -15.3202 C   0  0  2  0  0  0  0  0  0  0  0  0
   20.2447   -8.8554  -16.0161 N   0  0  0  0  0  0  0  0  0  0  0  0
   19.7081   -6.7761  -14.8913 C   0  0  0  0  0  0  0  0  0  0  0  0
   19.8935   -5.9528  -13.8124 O   0  0  0  0  0  0  0  0  0  0  0  0
   18.6234   -6.7451  -15.5148 O   0  0  0  0  0  0  0  0  0  0  0  0
  1  2  1  0
  3  2  1  0
  3  4  2  0
  6  5  1  6
  6  8  1  0
  7  6  1  0
  8  9  1  1
  9  3  1  0
 10  8  1  0
 11 10  2  0
 13 12  1  6
 13 14  1  0
 15 16  1  6
 15 13  1  0
 16 10  1  0
 17 15  1  0
 18 17  1  0
 19 17  2  0
M  END
$$$$
