GVV.pdb
     RDKit          3D

 19 18  0  0  1  0  0  0  0  0999 V2000
   21.6033  -14.0377  -18.5595 N   0  0  0  0  0  0  0  0  0  0  0  0
   21.8992  -12.6295  -18.7040 C   0  0  0  0  0  0  0  0  0  0  0  0
   21.3018  -11.8547  -17.5436 C   0  0  0  0  0  0  0  0  0  0  0  0
   20.1703  -12.1995  -17.2067 O   0  0  0  0  0  0  0  0  0  0  0  0
   23.7822   -9.2997  -14.8411 C   0  0  0  0  0  0  0  0  0  0  0  0
   22.4718   -9.9852  -14.6149 C   0  0  2  0  0  0  0  0  0  0  0  0
   22.7213  -11.3891  -14.1723 C   0  0  0  0  0  0  0  0  0  0  0  0
   21.6514   -9.9693  -15.8715 C   0  0  2  0  0  0  0  0  0  0  0  0
   22.0336  -10.8244  -16.9323 N   0  0  0  0  0  0  0  0  0  0  0  0
   21.1761   -8.6414  -16.2908 C   0  0  0  0  0  0  0  0  0  0  0  0
   21.7941   -7.8832  -17.1001 O   0  0  0  0  0  0  0  0  0  0  0  0
   17.1320   -7.8454  -16.3448 C   0  0  0  0  0  0  0  0  0  0  0  0
   18.1710   -7.0345  -17.0546 C   0  0  1  0  0  0  0  0  0  0  0  0
   17.6005   -5.6729  -17.3819 C   0  0  0  0  0  0  0  0  0  0  0  0
   19.4194   -6.8395  -16.2206 C   0  0  2  0  0  0  0  0  0  0  0  0
   19.9565   -8.1211  -15.7944 N   0  0  0  0  0  0  0  0  0  0  0  0
   19.0883   -5.9786  -15.0645 C   0  0  0  0  0  0  0  0  0  0  0  0
   18.8443   -6.5339  -13.8363 O   0  0  0  0  0  0  0  0  0  0  0  0
   19.0299   -4.7364  -15.2051 O   0  0  0  0  0  0  0  0  0  0  0  0
  1  2  1  0
  3  2  1  0
  3  4  2  0
  6  5  1  6
  6  8  1  0
  7  6  1  0
  8  9  1  6
  9  3  1  0
 10  8  1  0
 11 10  2  0
 13 12  1  1
 13 14  1  0
 15 16  1  1
 15 13  1  0
 16 10  1  0
 17 15  1  0
 18 17  1  0
 19 17  2  0
M  END
$$$$
