GVV.pdb
     RDKit          3D

 19 18  0  0  1  0  0  0  0  0999 V2000
   31.0809  -22.2675  -11.4103 N   0  0  0  0  0  0  0  0  0  0  0  0
   30.5892  -21.0056  -10.9030 C   0  0  0  0  0  0  0  0  0  0  0  0
   29.2212  -21.1995  -10.2747 C   0  0  0  0  0  0  0  0  0  0  0  0
   28.5995  -22.1880  -10.6606 O   0  0  0  0  0  0  0  0  0  0  0  0
   28.5178  -20.1681   -6.4765 C   0  0  0  0  0  0  0  0  0  0  0  0
   27.3876  -19.6600   -7.3148 C   0  0  2  0  0  0  0  0  0  0  0  0
   26.0925  -20.0421   -6.6777 C   0  0  0  0  0  0  0  0  0  0  0  0
   27.4751  -20.2220   -8.7036 C   0  0  2  0  0  0  0  0  0  0  0  0
   28.7460  -20.2835   -9.3230 N   0  0  0  0  0  0  0  0  0  0  0  0
   26.3699  -19.8476   -9.6001 C   0  0  0  0  0  0  0  0  0  0  0  0
   26.1351  -18.6623   -9.9896 O   0  0  0  0  0  0  0  0  0  0  0  0
   26.0301  -20.9237  -12.9996 C   0  0  0  0  0  0  0  0  0  0  0  0
   24.7265  -21.3015  -12.3681 C   0  0  1  0  0  0  0  0  0  0  0  0
   24.7423  -22.7778  -12.0411 C   0  0  0  0  0  0  0  0  0  0  0  0
   24.4607  -20.5338  -11.0906 C   0  0  2  0  0  0  0  0  0  0  0  0
   25.4771  -20.8289  -10.0944 N   0  0  0  0  0  0  0  0  0  0  0  0
   23.1073  -20.8775  -10.6030 C   0  0  0  0  0  0  0  0  0  0  0  0
   21.9977  -20.4134  -11.2584 O   0  0  0  0  0  0  0  0  0  0  0  0
   22.9714  -21.5954   -9.5869 O   0  0  0  0  0  0  0  0  0  0  0  0
  1  2  1  0
  3  2  1  0
  3  4  2  0
  6  5  1  1
  6  8  1  0
  7  6  1  0
  8  9  1  6
  9  3  1  0
 10  8  1  0
 11 10  2  0
 13 12  1  1
 13 14  1  0
 15 16  1  1
 15 13  1  0
 16 10  1  0
 17 15  1  0
 18 17  1  0
 19 17  2  0
M  END
$$$$
