GVV.pdb
     RDKit          3D

 19 18  0  0  1  0  0  0  0  0999 V2000
   28.3585  -22.4349  -15.7187 N   0  0  0  0  0  0  0  0  0  0  0  0
   27.9233  -21.2276  -15.0518 C   0  0  0  0  0  0  0  0  0  0  0  0
   26.7610  -21.5391  -14.1267 C   0  0  0  0  0  0  0  0  0  0  0  0
   26.1599  -22.5843  -14.3693 O   0  0  0  0  0  0  0  0  0  0  0  0
   26.8599  -21.2043  -10.2511 C   0  0  0  0  0  0  0  0  0  0  0  0
   25.6620  -20.4352  -10.7113 C   0  0  2  0  0  0  0  0  0  0  0  0
   24.4906  -20.7925   -9.8572 C   0  0  0  0  0  0  0  0  0  0  0  0
   25.3715  -20.7360  -12.1526 C   0  0  2  0  0  0  0  0  0  0  0  0
   26.4368  -20.6604  -13.0810 N   0  0  0  0  0  0  0  0  0  0  0  0
   24.0833  -20.2274  -12.6498 C   0  0  0  0  0  0  0  0  0  0  0  0
   23.8052  -18.9964  -12.7867 O   0  0  0  0  0  0  0  0  0  0  0  0
   22.4858  -20.9187  -15.9102 C   0  0  0  0  0  0  0  0  0  0  0  0
   21.4737  -21.2954  -14.8736 C   0  0  1  0  0  0  0  0  0  0  0  0
   21.4709  -22.7982  -14.7051 C   0  0  0  0  0  0  0  0  0  0  0  0
   21.7650  -20.6662  -13.5277 C   0  0  2  0  0  0  0  0  0  0  0  0
   23.0476  -21.1204  -13.0165 N   0  0  0  0  0  0  0  0  0  0  0  0
   20.6626  -20.9986  -12.5995 C   0  0  0  0  0  0  0  0  0  0  0  0
   19.5365  -20.2200  -12.5564 O   0  0  0  0  0  0  0  0  0  0  0  0
   20.7555  -21.9953  -11.8483 O   0  0  0  0  0  0  0  0  0  0  0  0
  1  2  1  0
  3  2  1  0
  3  4  2  0
  6  5  1  1
  6  8  1  0
  7  6  1  0
  8  9  1  6
  9  3  1  0
 10  8  1  0
 11 10  2  0
 13 12  1  6
 13 14  1  0
 15 16  1  1
 15 13  1  0
 16 10  1  0
 17 15  1  0
 18 17  1  0
 19 17  2  0
M  END
$$$$
