GVV.pdb
     RDKit          3D

 19 18  0  0  1  0  0  0  0  0999 V2000
   19.1714  -14.1021  -16.9068 N   0  0  0  0  0  0  0  0  0  0  0  0
   19.9221  -13.2175  -16.0434 C   0  0  0  0  0  0  0  0  0  0  0  0
   19.5370  -11.7759  -16.3210 C   0  0  0  0  0  0  0  0  0  0  0  0
   19.8655  -11.3460  -17.4255 O   0  0  0  0  0  0  0  0  0  0  0  0
   16.1071  -10.2950  -16.2960 C   0  0  0  0  0  0  0  0  0  0  0  0
   16.8597   -9.5173  -15.2630 C   0  0  2  0  0  0  0  0  0  0  0  0
   16.5080   -8.0713  -15.3835 C   0  0  0  0  0  0  0  0  0  0  0  0
   18.3374   -9.7140  -15.4364 C   0  0  2  0  0  0  0  0  0  0  0  0
   18.8533  -11.0288  -15.3487 N   0  0  0  0  0  0  0  0  0  0  0  0
   19.1822   -8.6780  -14.8215 C   0  0  0  0  0  0  0  0  0  0  0  0
   19.3562   -8.5464  -13.5709 O   0  0  0  0  0  0  0  0  0  0  0  0
   22.8184   -8.0357  -15.7680 C   0  0  0  0  0  0  0  0  0  0  0  0
   22.0850   -6.7332  -15.8482 C   0  0  1  0  0  0  0  0  0  0  0  0
   21.7675   -6.4301  -17.2953 C   0  0  0  0  0  0  0  0  0  0  0  0
   20.7864   -6.7538  -15.0703 C   0  0  2  0  0  0  0  0  0  0  0  0
   19.8723   -7.7384  -15.6250 N   0  0  0  0  0  0  0  0  0  0  0  0
   20.1992   -5.3965  -15.0905 C   0  0  0  0  0  0  0  0  0  0  0  0
   20.6372   -4.4405  -14.2128 O   0  0  0  0  0  0  0  0  0  0  0  0
   19.2975   -5.1165  -15.9120 O   0  0  0  0  0  0  0  0  0  0  0  0
  1  2  1  0
  3  2  1  0
  3  4  2  0
  6  5  1  6
  6  8  1  0
  7  6  1  0
  8  9  1  1
  9  3  1  0
 10  8  1  0
 11 10  2  0
 13 12  1  6
 13 14  1  0
 15 16  1  6
 15 13  1  0
 16 10  1  0
 17 15  1  0
 18 17  1  0
 19 17  2  0
M  END
$$$$
