GVV.pdb
     RDKit          3D

 19 18  0  0  1  0  0  0  0  0999 V2000
   27.4055  -23.1610  -16.8814 N   0  0  0  0  0  0  0  0  0  0  0  0
   26.5212  -23.6024  -15.8256 C   0  0  0  0  0  0  0  0  0  0  0  0
   26.2879  -22.4712  -14.8409 C   0  0  0  0  0  0  0  0  0  0  0  0
   27.0661  -21.5234  -14.9332 O   0  0  0  0  0  0  0  0  0  0  0  0
   22.9926  -20.7771  -14.3975 C   0  0  0  0  0  0  0  0  0  0  0  0
   23.3861  -21.1380  -13.0000 C   0  0  2  0  0  0  0  0  0  0  0  0
   23.1893  -19.9536  -12.1125 C   0  0  0  0  0  0  0  0  0  0  0  0
   24.8165  -21.5906  -12.9615 C   0  0  2  0  0  0  0  0  0  0  0  0
   25.2410  -22.5520  -13.9091 N   0  0  0  0  0  0  0  0  0  0  0  0
   25.3817  -21.7620  -11.6138 C   0  0  0  0  0  0  0  0  0  0  0  0
   25.1175  -22.7381  -10.8463 O   0  0  0  0  0  0  0  0  0  0  0  0
   28.7542  -20.3278   -8.2646 C   0  0  0  0  0  0  0  0  0  0  0  0
   28.1700  -20.2421   -9.6402 C   0  0  1  0  0  0  0  0  0  0  0  0
   29.0922  -20.9381  -10.6158 C   0  0  0  0  0  0  0  0  0  0  0  0
   26.8055  -20.8921   -9.7287 C   0  0  2  0  0  0  0  0  0  0  0  0
   26.2856  -20.8100  -11.0835 N   0  0  0  0  0  0  0  0  0  0  0  0
   25.9022  -20.2337   -8.7602 C   0  0  0  0  0  0  0  0  0  0  0  0
   25.6093  -20.8382   -7.5665 O   0  0  0  0  0  0  0  0  0  0  0  0
   25.4012  -19.1188   -9.0292 O   0  0  0  0  0  0  0  0  0  0  0  0
  1  2  1  0
  3  2  1  0
  3  4  2  0
  6  5  1  6
  6  8  1  0
  7  6  1  0
  8  9  1  1
  9  3  1  0
 10  8  1  0
 11 10  2  0
 13 12  1  1
 13 14  1  0
 15 16  1  6
 15 13  1  0
 16 10  1  0
 17 15  1  0
 18 17  1  0
 19 17  2  0
M  END
$$$$
