GVV.pdb
     RDKit          3D

 19 18  0  0  1  0  0  0  0  0999 V2000
   22.4818  -21.3148  -11.3782 N   0  0  0  0  0  0  0  0  0  0  0  0
   23.0877  -20.2790  -10.5710 C   0  0  0  0  0  0  0  0  0  0  0  0
   24.3015  -20.8323   -9.8470 C   0  0  0  0  0  0  0  0  0  0  0  0
   24.0692  -21.7301   -9.0391 O   0  0  0  0  0  0  0  0  0  0  0  0
   27.8021  -21.6654  -11.4335 C   0  0  0  0  0  0  0  0  0  0  0  0
   28.0434  -20.7231  -10.2969 C   0  0  2  0  0  0  0  0  0  0  0  0
   29.1770  -21.2316   -9.4689 C   0  0  0  0  0  0  0  0  0  0  0  0
   26.8041  -20.5856   -9.4616 C   0  0  2  0  0  0  0  0  0  0  0  0
   25.5794  -20.3187  -10.1185 N   0  0  0  0  0  0  0  0  0  0  0  0
   26.9863  -19.8768   -8.1851 C   0  0  0  0  0  0  0  0  0  0  0  0
   26.7255  -18.6472   -8.0062 O   0  0  0  0  0  0  0  0  0  0  0  0
   28.4689  -20.2305   -3.4146 C   0  0  0  0  0  0  0  0  0  0  0  0
   28.1349  -20.8869   -4.7179 C   0  0  1  0  0  0  0  0  0  0  0  0
   26.9862  -21.8481   -4.5100 C   0  0  0  0  0  0  0  0  0  0  0  0
   27.7322  -19.8868   -5.7807 C   0  0  2  0  0  0  0  0  0  0  0  0
   27.4802  -20.5567   -7.0458 N   0  0  0  0  0  0  0  0  0  0  0  0
   28.8010  -18.8724   -5.9076 C   0  0  0  0  0  0  0  0  0  0  0  0
   28.7075  -17.6818   -5.2368 O   0  0  0  0  0  0  0  0  0  0  0  0
   29.7973  -19.0995   -6.6303 O   0  0  0  0  0  0  0  0  0  0  0  0
  1  2  1  0
  3  2  1  0
  3  4  2  0
  6  5  1  6
  6  8  1  0
  7  6  1  0
  8  9  1  6
  9  3  1  0
 10  8  1  0
 11 10  2  0
 13 12  1  1
 13 14  1  0
 15 16  1  6
 15 13  1  0
 16 10  1  0
 17 15  1  0
 18 17  1  0
 19 17  2  0
M  END
$$$$
