GVV.pdb
     RDKit          3D

 19 18  0  0  1  0  0  0  0  0999 V2000
   23.7403  -19.1056  -18.1888 N   0  0  0  0  0  0  0  0  0  0  0  0
   24.3702  -18.3633  -17.1193 C   0  0  0  0  0  0  0  0  0  0  0  0
   24.9163  -19.3222  -16.0773 C   0  0  0  0  0  0  0  0  0  0  0  0
   24.1633  -20.2419  -15.7615 O   0  0  0  0  0  0  0  0  0  0  0  0
   28.7638  -20.5303  -15.8014 C   0  0  0  0  0  0  0  0  0  0  0  0
   28.3227  -19.9437  -14.4977 C   0  0  2  0  0  0  0  0  0  0  0  0
   28.7841  -20.8223  -13.3822 C   0  0  0  0  0  0  0  0  0  0  0  0
   26.8290  -19.8006  -14.4692 C   0  0  2  0  0  0  0  0  0  0  0  0
   26.1997  -19.1269  -15.5429 N   0  0  0  0  0  0  0  0  0  0  0  0
   26.2530  -19.5219  -13.1442 C   0  0  0  0  0  0  0  0  0  0  0  0
   26.2999  -18.3920  -12.5672 O   0  0  0  0  0  0  0  0  0  0  0  0
   23.0123  -20.5773   -9.6564 C   0  0  0  0  0  0  0  0  0  0  0  0
   23.6402  -20.8637  -10.9849 C   0  0  1  0  0  0  0  0  0  0  0  0
   22.8109  -20.2226  -12.0748 C   0  0  0  0  0  0  0  0  0  0  0  0
   25.0522  -20.3267  -11.0831 C   0  0  2  0  0  0  0  0  0  0  0  0
   25.5899  -20.5394  -12.4166 N   0  0  0  0  0  0  0  0  0  0  0  0
   25.8833  -20.9847  -10.0518 C   0  0  0  0  0  0  0  0  0  0  0  0
   26.1609  -20.3425   -8.8741 O   0  0  0  0  0  0  0  0  0  0  0  0
   26.3370  -22.1337  -10.2525 O   0  0  0  0  0  0  0  0  0  0  0  0
  1  2  1  0
  3  2  1  0
  3  4  2  0
  6  5  1  6
  6  8  1  0
  7  6  1  0
  8  9  1  6
  9  3  1  0
 10  8  1  0
 11 10  2  0
 13 12  1  1
 13 14  1  0
 15 16  1  6
 15 13  1  0
 16 10  1  0
 17 15  1  0
 18 17  1  0
 19 17  2  0
M  END
$$$$
