GVV.pdb
     RDKit          3D

 19 18  0  0  1  0  0  0  0  0999 V2000
   19.1618  -16.4037  -16.4891 N   0  0  0  0  0  0  0  0  0  0  0  0
   18.2021  -15.4861  -15.9160 C   0  0  0  0  0  0  0  0  0  0  0  0
   18.3751  -14.1085  -16.5292 C   0  0  0  0  0  0  0  0  0  0  0  0
   18.7182  -14.0968  -17.7103 O   0  0  0  0  0  0  0  0  0  0  0  0
   15.8850  -10.8398  -15.3565 C   0  0  0  0  0  0  0  0  0  0  0  0
   16.7374  -11.0549  -16.5671 C   0  0  2  0  0  0  0  0  0  0  0  0
   16.0410  -11.9912  -17.4986 C   0  0  0  0  0  0  0  0  0  0  0  0
   18.0753  -11.6076  -16.1710 C   0  0  2  0  0  0  0  0  0  0  0  0
   18.1463  -12.9589  -15.7568 N   0  0  0  0  0  0  0  0  0  0  0  0
   18.9330  -10.6841  -15.4116 C   0  0  0  0  0  0  0  0  0  0  0  0
   19.0369  -10.6816  -14.1463 O   0  0  0  0  0  0  0  0  0  0  0  0
   21.5353   -7.7552  -17.4560 C   0  0  0  0  0  0  0  0  0  0  0  0
   21.8767   -8.5892  -16.2606 C   0  0  1  0  0  0  0  0  0  0  0  0
   22.9123   -7.8656  -15.4295 C   0  0  0  0  0  0  0  0  0  0  0  0
   20.6718   -8.8638  -15.3860 C   0  0  2  0  0  0  0  0  0  0  0  0
   19.7181   -9.7135  -16.0795 N   0  0  0  0  0  0  0  0  0  0  0  0
   20.0645   -7.5731  -14.9953 C   0  0  0  0  0  0  0  0  0  0  0  0
   20.5529   -6.8758  -13.9223 O   0  0  0  0  0  0  0  0  0  0  0  0
   19.0996   -7.1127  -15.6460 O   0  0  0  0  0  0  0  0  0  0  0  0
  1  2  1  0
  3  2  1  0
  3  4  2  0
  6  5  1  1
  6  8  1  0
  7  6  1  0
  8  9  1  1
  9  3  1  0
 10  8  1  0
 11 10  2  0
 13 12  1  6
 13 14  1  0
 15 16  1  6
 15 13  1  0
 16 10  1  0
 17 15  1  0
 18 17  1  0
 19 17  2  0
M  END
$$$$
