GVV.pdb
     RDKit          3D

 19 18  0  0  1  0  0  0  0  0999 V2000
   27.6244  -32.7322   -9.7230 N   0  0  0  0  0  0  0  0  0  0  0  0
   28.6567  -32.2368   -8.8396 C   0  0  0  0  0  0  0  0  0  0  0  0
   29.2975  -33.3936   -8.0946 C   0  0  0  0  0  0  0  0  0  0  0  0
   28.8358  -34.5047   -8.3491 O   0  0  0  0  0  0  0  0  0  0  0  0
   33.3518  -35.2019   -6.2145 C   0  0  0  0  0  0  0  0  0  0  0  0
   32.6632  -33.9868   -6.7507 C   0  0  2  0  0  0  0  0  0  0  0  0
   33.2087  -32.7734   -6.0730 C   0  0  0  0  0  0  0  0  0  0  0  0
   31.1819  -34.0882   -6.5326 C   0  0  2  0  0  0  0  0  0  0  0  0
   30.3426  -33.1560   -7.1879 N   0  0  0  0  0  0  0  0  0  0  0  0
   30.7739  -34.4263   -5.1599 C   0  0  0  0  0  0  0  0  0  0  0  0
   30.7815  -33.6079   -4.1894 O   0  0  0  0  0  0  0  0  0  0  0  0
   27.4237  -36.4561   -4.2713 C   0  0  0  0  0  0  0  0  0  0  0  0
   28.6537  -37.0732   -3.6819 C   0  0  1  0  0  0  0  0  0  0  0  0
   29.1218  -38.1992   -4.5761 C   0  0  0  0  0  0  0  0  0  0  0  0
   29.7855  -36.0781   -3.5375 C   0  0  2  0  0  0  0  0  0  0  0  0
   30.3336  -35.7330   -4.8387 N   0  0  0  0  0  0  0  0  0  0  0  0
   30.8173  -36.6581   -2.6507 C   0  0  0  0  0  0  0  0  0  0  0  0
   31.9450  -37.2265   -3.1814 O   0  0  0  0  0  0  0  0  0  0  0  0
   30.6629  -36.6312   -1.4090 O   0  0  0  0  0  0  0  0  0  0  0  0
  1  2  1  0
  3  2  1  0
  3  4  2  0
  6  5  1  1
  6  8  1  0
  7  6  1  0
  8  9  1  1
  9  3  1  0
 10  8  1  0
 11 10  2  0
 13 12  1  6
 13 14  1  0
 15 16  1  6
 15 13  1  0
 16 10  1  0
 17 15  1  0
 18 17  1  0
 19 17  2  0
M  END
$$$$
