QWE.pdb
     RDKit          3D

 33 34  0  0  1  0  0  0  0  0999 V2000
   26.2908  -20.3548  -21.0658 N   0  0  0  0  0  0  0  0  0  0  0  0
   27.2262  -20.4862  -19.9696 C   0  0  0  0  0  0  0  0  0  0  0  0
   27.7464  -19.4285  -19.5398 O   0  0  0  0  0  0  0  0  0  0  0  0
   27.5413  -21.7958  -19.3958 C   0  0  0  0  0  0  0  0  0  0  0  0
   26.9106  -22.0221  -18.0765 C   0  0  0  0  0  0  0  0  0  0  0  0
   27.5180  -21.1638  -17.0009 C   0  0  2  0  0  0  0  0  0  0  0  0
   28.8368  -21.6605  -16.6564 N   0  0  0  0  0  0  0  0  0  0  0  0
   26.6013  -21.2574  -15.8039 C   0  0  0  0  0  0  0  0  0  0  0  0
   26.1644  -22.3722  -15.4273 O   0  0  0  0  0  0  0  0  0  0  0  0
   26.2008  -20.1107  -15.0651 N   0  0  0  0  0  0  0  0  0  0  0  0
   25.3788  -20.2189  -13.8640 C   0  0  1  0  0  0  0  0  0  0  0  0
   25.9074  -19.3018  -12.7757 C   0  0  0  0  0  0  0  0  0  0  0  0
   26.5909  -20.1168  -11.7511 C   0  0  0  0  0  0  0  0  0  0  0  0
   25.9594  -20.7795  -10.6979 C   0  0  0  0  0  0  0  0  0  0  0  0
   26.8767  -21.4186   -9.9666 N   0  0  0  0  0  0  0  0  0  0  0  0
   28.1116  -21.2106  -10.4903 C   0  0  0  0  0  0  0  0  0  0  0  0
   29.3794  -21.6248  -10.1422 C   0  0  0  0  0  0  0  0  0  0  0  0
   30.4573  -21.2303  -10.9001 C   0  0  0  0  0  0  0  0  0  0  0  0
   30.2998  -20.4240  -12.0091 C   0  0  0  0  0  0  0  0  0  0  0  0
   29.0330  -20.0129  -12.3530 C   0  0  0  0  0  0  0  0  0  0  0  0
   27.9308  -20.4000  -11.6009 C   0  0  0  0  0  0  0  0  0  0  0  0
   23.9866  -19.9284  -14.2160 C   0  0  0  0  0  0  0  0  0  0  0  0
   23.7215  -18.7672  -14.6313 O   0  0  0  0  0  0  0  0  0  0  0  0
   22.9154  -20.8479  -14.1266 N   0  0  0  0  0  0  0  0  0  0  0  0
   21.5740  -20.4056  -14.3206 C   0  0  1  0  0  0  0  0  0  0  0  0
   20.6870  -21.4616  -14.9435 C   0  0  0  0  0  0  0  0  0  0  0  0
   20.7822  -21.5240  -16.4335 C   0  0  0  0  0  0  0  0  0  0  0  0
   21.9798  -22.3031  -16.7897 C   0  0  0  0  0  0  0  0  0  0  0  0
   23.0422  -21.7153  -17.0587 O   0  0  0  0  0  0  0  0  0  0  0  0
   20.9555  -19.8766  -13.0700 C   0  0  0  0  0  0  0  0  0  0  0  0
   19.7787  -19.1463  -13.1975 O   0  0  0  0  0  0  0  0  0  0  0  0
   21.9269  -23.6762  -16.8258 O   0  0  0  0  0  0  0  0  0  0  0  0
   21.4363  -20.0552  -11.9316 O   0  0  0  0  0  0  0  0  0  0  0  0
  1  2  1  0
  2  3  2  0
  4  5  1  0
  4  2  1  0
  5  6  1  0
  6  7  1  1
  8  9  2  0
  8  6  1  0
 10  8  1  0
 11 10  1  0
 11 12  1  1
 12 13  1  0
 13 14  2  0
 13 21  1  0
 14 15  1  0
 15 16  1  0
 16 17  2  0
 18 17  1  0
 19 18  2  0
 20 21  2  0
 20 19  1  0
 21 16  1  0
 22 11  1  0
 23 22  2  0
 24 22  1  0
 25 24  1  0
 25 26  1  1
 26 27  1  0
 28 32  1  0
 28 27  1  0
 29 28  2  0
 30 31  1  0
 30 25  1  0
 33 30  2  0
M  END
$$$$
