QWE.pdb
     RDKit          3D

 33 34  0  0  1  0  0  0  0  0999 V2000
   16.5309  -22.0867    2.0726 N   0  0  0  0  0  0  0  0  0  0  0  0
   15.2387  -21.5724    1.6731 C   0  0  0  0  0  0  0  0  0  0  0  0
   14.4766  -22.3646    1.0686 O   0  0  0  0  0  0  0  0  0  0  0  0
   14.8490  -20.1921    1.9676 C   0  0  0  0  0  0  0  0  0  0  0  0
   15.8373  -19.4716    2.8005 C   0  0  0  0  0  0  0  0  0  0  0  0
   15.3406  -19.2414    4.2015 C   0  0  2  0  0  0  0  0  0  0  0  0
   14.0933  -18.5013    4.1696 N   0  0  0  0  0  0  0  0  0  0  0  0
   16.4029  -18.4342    4.9098 C   0  0  0  0  0  0  0  0  0  0  0  0
   17.5990  -18.8148    4.8988 O   0  0  0  0  0  0  0  0  0  0  0  0
   16.1021  -17.2318    5.6059 N   0  0  0  0  0  0  0  0  0  0  0  0
   17.1325  -16.4697    6.3043 C   0  0  1  0  0  0  0  0  0  0  0  0
   16.6641  -15.0467    6.5500 C   0  0  0  0  0  0  0  0  0  0  0  0
   17.4785  -14.1252    5.7322 C   0  0  0  0  0  0  0  0  0  0  0  0
   17.1560  -13.6938    4.4449 C   0  0  0  0  0  0  0  0  0  0  0  0
   18.1104  -12.8691    4.0049 N   0  0  0  0  0  0  0  0  0  0  0  0
   19.0711  -12.7269    4.9531 C   0  0  0  0  0  0  0  0  0  0  0  0
   20.2477  -12.0121    5.0218 C   0  0  0  0  0  0  0  0  0  0  0  0
   21.0217  -12.0809    6.1568 C   0  0  0  0  0  0  0  0  0  0  0  0
   20.6465  -12.8538    7.2370 C   0  0  0  0  0  0  0  0  0  0  0  0
   19.4717  -13.5655    7.1644 C   0  0  0  0  0  0  0  0  0  0  0  0
   18.6754  -13.5098    6.0272 C   0  0  0  0  0  0  0  0  0  0  0  0
   17.4790  -17.1688    7.5443 C   0  0  0  0  0  0  0  0  0  0  0  0
   16.5295  -17.5572    8.2783 O   0  0  0  0  0  0  0  0  0  0  0  0
   18.7953  -17.4428    7.9839 N   0  0  0  0  0  0  0  0  0  0  0  0
   19.0137  -18.0544    9.2530 C   0  0  1  0  0  0  0  0  0  0  0  0
   19.9729  -19.2230    9.1895 C   0  0  0  0  0  0  0  0  0  0  0  0
   20.0982  -19.9685   10.4785 C   0  0  0  0  0  0  0  0  0  0  0  0
   21.0252  -21.0943   10.2753 C   0  0  0  0  0  0  0  0  0  0  0  0
   21.5434  -21.2747    9.1592 O   0  0  0  0  0  0  0  0  0  0  0  0
   19.4484  -17.0790   10.2952 C   0  0  0  0  0  0  0  0  0  0  0  0
   19.0628  -17.3305   11.6076 O   0  0  0  0  0  0  0  0  0  0  0  0
   21.3191  -21.9452   11.3141 O   0  0  0  0  0  0  0  0  0  0  0  0
   20.1315  -16.0631   10.0496 O   0  0  0  0  0  0  0  0  0  0  0  0
  1  2  1  0
  2  3  2  0
  4  5  1  0
  4  2  1  0
  5  6  1  0
  6  7  1  6
  8  9  2  0
  8  6  1  0
 10  8  1  0
 11 10  1  0
 11 12  1  1
 12 13  1  0
 13 14  2  0
 13 21  1  0
 14 15  1  0
 15 16  1  0
 16 17  2  0
 18 17  1  0
 19 18  2  0
 20 21  2  0
 20 19  1  0
 21 16  1  0
 22 11  1  0
 23 22  2  0
 24 22  1  0
 25 24  1  0
 25 26  1  6
 26 27  1  0
 28 32  1  0
 28 27  1  0
 29 28  2  0
 30 31  1  0
 30 25  1  0
 33 30  2  0
M  END
$$$$
