QWE.pdb
     RDKit          3D

 33 34  0  0  1  0  0  0  0  0999 V2000
   28.2463  -17.4802  -14.4813 N   0  0  0  0  0  0  0  0  0  0  0  0
   28.1472  -17.9797  -15.8358 C   0  0  0  0  0  0  0  0  0  0  0  0
   28.9145  -17.4668  -16.6856 O   0  0  0  0  0  0  0  0  0  0  0  0
   27.1947  -19.0351  -16.1859 C   0  0  0  0  0  0  0  0  0  0  0  0
   26.5723  -19.6748  -15.0056 C   0  0  0  0  0  0  0  0  0  0  0  0
   27.4626  -20.7186  -14.3887 C   0  0  2  0  0  0  0  0  0  0  0  0
   27.4751  -21.9105  -15.2157 N   0  0  0  0  0  0  0  0  0  0  0  0
   26.8799  -21.0368  -13.0319 C   0  0  0  0  0  0  0  0  0  0  0  0
   25.8208  -21.7039  -12.9389 O   0  0  0  0  0  0  0  0  0  0  0  0
   27.4925  -20.6042  -11.8242 N   0  0  0  0  0  0  0  0  0  0  0  0
   26.8846  -20.8554  -10.5213 C   0  0  1  0  0  0  0  0  0  0  0  0
   27.8132  -20.4055   -9.4076 C   0  0  0  0  0  0  0  0  0  0  0  0
   27.0885  -20.4706   -8.1224 C   0  0  0  0  0  0  0  0  0  0  0  0
   25.8242  -21.0324   -7.9398 C   0  0  0  0  0  0  0  0  0  0  0  0
   25.4740  -20.9204   -6.6555 N   0  0  0  0  0  0  0  0  0  0  0  0
   26.4608  -20.2999   -5.9601 C   0  0  0  0  0  0  0  0  0  0  0  0
   26.6175  -19.9389   -4.6391 C   0  0  0  0  0  0  0  0  0  0  0  0
   27.7698  -19.3038   -4.2382 C   0  0  0  0  0  0  0  0  0  0  0  0
   28.7809  -19.0167   -5.1327 C   0  0  0  0  0  0  0  0  0  0  0  0
   28.6206  -19.3786   -6.4500 C   0  0  0  0  0  0  0  0  0  0  0  0
   27.4645  -20.0210   -6.8756 C   0  0  0  0  0  0  0  0  0  0  0  0
   25.5819  -20.1869  -10.4704 C   0  0  0  0  0  0  0  0  0  0  0  0
   25.5556  -18.9457  -10.6932 O   0  0  0  0  0  0  0  0  0  0  0  0
   24.3503  -20.8241  -10.1910 N   0  0  0  0  0  0  0  0  0  0  0  0
   23.1283  -20.2555  -10.6557 C   0  0  1  0  0  0  0  0  0  0  0  0
   22.8620  -20.5393  -12.1181 C   0  0  0  0  0  0  0  0  0  0  0  0
   21.5688  -19.9779  -12.6135 C   0  0  0  0  0  0  0  0  0  0  0  0
   21.3812  -20.4068  -14.0095 C   0  0  0  0  0  0  0  0  0  0  0  0
   22.2229  -21.1479  -14.5470 O   0  0  0  0  0  0  0  0  0  0  0  0
   21.9548  -20.6547   -9.8251 C   0  0  0  0  0  0  0  0  0  0  0  0
   20.7501  -20.0019  -10.0638 O   0  0  0  0  0  0  0  0  0  0  0  0
   20.2799  -19.9912  -14.7193 O   0  0  0  0  0  0  0  0  0  0  0  0
   22.0013  -21.5333   -8.9391 O   0  0  0  0  0  0  0  0  0  0  0  0
  1  2  1  0
  2  3  2  0
  4  5  1  0
  4  2  1  0
  5  6  1  0
  6  7  1  6
  8  9  2  0
  8  6  1  0
 10  8  1  0
 11 10  1  0
 11 12  1  1
 12 13  1  0
 13 14  2  0
 13 21  1  0
 14 15  1  0
 15 16  1  0
 16 17  2  0
 18 17  1  0
 19 18  2  0
 20 21  2  0
 20 19  1  0
 21 16  1  0
 22 11  1  0
 23 22  2  0
 24 22  1  0
 25 24  1  0
 25 26  1  6
 26 27  1  0
 28 32  1  0
 28 27  1  0
 29 28  2  0
 30 31  1  0
 30 25  1  0
 33 30  2  0
M  END
$$$$
