QWE.pdb
     RDKit          3D

 33 34  0  0  1  0  0  0  0  0999 V2000
   26.4746  -22.1410  -18.0243 N   0  0  0  0  0  0  0  0  0  0  0  0
   27.4255  -21.0600  -18.1698 C   0  0  0  0  0  0  0  0  0  0  0  0
   27.8812  -20.8584  -19.3212 O   0  0  0  0  0  0  0  0  0  0  0  0
   27.8276  -20.2454  -17.0216 C   0  0  0  0  0  0  0  0  0  0  0  0
   27.1608  -20.6428  -15.7619 C   0  0  0  0  0  0  0  0  0  0  0  0
   28.1444  -21.0782  -14.7104 C   0  0  2  0  0  0  0  0  0  0  0  0
   28.7218  -22.3589  -15.0722 N   0  0  0  0  0  0  0  0  0  0  0  0
   27.3696  -21.2064  -13.4201 C   0  0  0  0  0  0  0  0  0  0  0  0
   26.3212  -21.8953  -13.3775 O   0  0  0  0  0  0  0  0  0  0  0  0
   27.7845  -20.5660  -12.2206 N   0  0  0  0  0  0  0  0  0  0  0  0
   27.0736  -20.7593  -10.9607 C   0  0  1  0  0  0  0  0  0  0  0  0
   27.8430  -20.1257   -9.8155 C   0  0  0  0  0  0  0  0  0  0  0  0
   27.1813  -20.4738   -8.5418 C   0  0  0  0  0  0  0  0  0  0  0  0
   25.9532  -21.1262   -8.4258 C   0  0  0  0  0  0  0  0  0  0  0  0
   25.6573  -21.2808   -7.1323 N   0  0  0  0  0  0  0  0  0  0  0  0
   26.6459  -20.7538   -6.3661 C   0  0  0  0  0  0  0  0  0  0  0  0
   26.8464  -20.6447   -5.0068 C   0  0  0  0  0  0  0  0  0  0  0  0
   27.9862  -20.0381   -4.5325 C   0  0  0  0  0  0  0  0  0  0  0  0
   28.9415  -19.5322   -5.3904 C   0  0  0  0  0  0  0  0  0  0  0  0
   28.7377  -19.6430   -6.7462 C   0  0  0  0  0  0  0  0  0  0  0  0
   27.5933  -20.2521   -7.2460 C   0  0  0  0  0  0  0  0  0  0  0  0
   25.7187  -20.2179  -11.0943 C   0  0  0  0  0  0  0  0  0  0  0  0
   25.6025  -18.9709  -11.2444 O   0  0  0  0  0  0  0  0  0  0  0  0
   24.5298  -20.9838  -11.0682 N   0  0  0  0  0  0  0  0  0  0  0  0
   23.2652  -20.3492  -11.2430 C   0  0  1  0  0  0  0  0  0  0  0  0
   22.5886  -20.7263  -12.5430 C   0  0  0  0  0  0  0  0  0  0  0  0
   23.2827  -20.1994  -13.7568 C   0  0  0  0  0  0  0  0  0  0  0  0
   23.3964  -21.2919  -14.7374 C   0  0  0  0  0  0  0  0  0  0  0  0
   22.8340  -22.3794  -14.5192 O   0  0  0  0  0  0  0  0  0  0  0  0
   22.3438  -20.5741  -10.0912 C   0  0  0  0  0  0  0  0  0  0  0  0
   21.1031  -19.9468  -10.1323 O   0  0  0  0  0  0  0  0  0  0  0  0
   24.1212  -21.1135  -15.8917 O   0  0  0  0  0  0  0  0  0  0  0  0
   22.6284  -21.2876   -9.1069 O   0  0  0  0  0  0  0  0  0  0  0  0
  1  2  1  0
  2  3  2  0
  4  5  1  0
  4  2  1  0
  5  6  1  0
  6  7  1  6
  8  9  2  0
  8  6  1  0
 10  8  1  0
 11 10  1  0
 11 12  1  1
 12 13  1  0
 13 14  2  0
 13 21  1  0
 14 15  1  0
 15 16  1  0
 16 17  2  0
 18 17  1  0
 19 18  2  0
 20 21  2  0
 20 19  1  0
 21 16  1  0
 22 11  1  0
 23 22  2  0
 24 22  1  0
 25 24  1  0
 25 26  1  6
 26 27  1  0
 28 32  1  0
 28 27  1  0
 29 28  2  0
 30 31  1  0
 30 25  1  0
 33 30  2  0
M  END
$$$$
