QWE.pdb
     RDKit          3D

 33 34  0  0  1  0  0  0  0  0999 V2000
   27.9048  -23.9012  -17.2150 N   0  0  0  0  0  0  0  0  0  0  0  0
   28.2217  -22.6283  -17.8260 C   0  0  0  0  0  0  0  0  0  0  0  0
   28.7443  -22.6625  -18.9661 O   0  0  0  0  0  0  0  0  0  0  0  0
   27.9395  -21.3670  -17.1383 C   0  0  0  0  0  0  0  0  0  0  0  0
   27.2996  -21.5530  -15.8171 C   0  0  0  0  0  0  0  0  0  0  0  0
   28.2280  -21.2152  -14.6828 C   0  0  2  0  0  0  0  0  0  0  0  0
   29.3156  -22.1739  -14.6305 N   0  0  0  0  0  0  0  0  0  0  0  0
   27.4090  -21.2928  -13.4160 C   0  0  0  0  0  0  0  0  0  0  0  0
   26.3853  -22.0176  -13.3678 O   0  0  0  0  0  0  0  0  0  0  0  0
   27.7538  -20.5638  -12.2452 N   0  0  0  0  0  0  0  0  0  0  0  0
   26.9475  -20.6342  -11.0307 C   0  0  1  0  0  0  0  0  0  0  0  0
   27.6035  -19.8440   -9.9126 C   0  0  0  0  0  0  0  0  0  0  0  0
   26.9209  -20.1551   -8.6404 C   0  0  0  0  0  0  0  0  0  0  0  0
   25.6409  -20.6990   -8.5267 C   0  0  0  0  0  0  0  0  0  0  0  0
   25.3398  -20.8498   -7.2340 N   0  0  0  0  0  0  0  0  0  0  0  0
   26.3753  -20.4252   -6.4660 C   0  0  0  0  0  0  0  0  0  0  0  0
   26.5922  -20.3581   -5.1065 C   0  0  0  0  0  0  0  0  0  0  0  0
   27.7835  -19.8625   -4.6300 C   0  0  0  0  0  0  0  0  0  0  0  0
   28.7748  -19.4273   -5.4860 C   0  0  0  0  0  0  0  0  0  0  0  0
   28.5544  -19.4959   -6.8420 C   0  0  0  0  0  0  0  0  0  0  0  0
   27.3581  -19.9932   -7.3439 C   0  0  0  0  0  0  0  0  0  0  0  0
   25.5943  -20.1612  -11.3334 C   0  0  0  0  0  0  0  0  0  0  0  0
   25.4614  -18.9522  -11.6673 O   0  0  0  0  0  0  0  0  0  0  0  0
   24.4241  -20.9542  -11.2807 N   0  0  0  0  0  0  0  0  0  0  0  0
   23.1636  -20.3953  -11.6431 C   0  0  1  0  0  0  0  0  0  0  0  0
   22.5490  -21.0588  -12.8564 C   0  0  0  0  0  0  0  0  0  0  0  0
   22.2060  -22.4978  -12.6453 C   0  0  0  0  0  0  0  0  0  0  0  0
   20.7654  -22.6729  -12.8946 C   0  0  0  0  0  0  0  0  0  0  0  0
   20.0697  -21.6929  -13.2143 O   0  0  0  0  0  0  0  0  0  0  0  0
   22.1932  -20.3797  -10.5098 C   0  0  0  0  0  0  0  0  0  0  0  0
   22.5236  -21.1118   -9.3743 O   0  0  0  0  0  0  0  0  0  0  0  0
   20.1881  -23.9147  -12.7752 O   0  0  0  0  0  0  0  0  0  0  0  0
   21.1149  -19.7506  -10.5312 O   0  0  0  0  0  0  0  0  0  0  0  0
  1  2  1  0
  2  3  2  0
  4  5  1  0
  4  2  1  0
  5  6  1  0
  6  7  1  1
  8  9  2  0
  8  6  1  0
 10  8  1  0
 11 10  1  0
 11 12  1  1
 12 13  1  0
 13 14  2  0
 13 21  1  0
 14 15  1  0
 15 16  1  0
 16 17  2  0
 18 17  1  0
 19 18  2  0
 20 21  2  0
 20 19  1  0
 21 16  1  0
 22 11  1  0
 23 22  2  0
 24 22  1  0
 25 24  1  0
 25 26  1  6
 26 27  1  0
 28 32  1  0
 28 27  1  0
 29 28  2  0
 30 31  1  0
 30 25  1  0
 33 30  2  0
M  END
$$$$
