QWE.pdb
     RDKit          3D

 33 34  0  0  1  0  0  0  0  0999 V2000
   27.4064  -23.9923  -19.3378 N   0  0  0  0  0  0  0  0  0  0  0  0
   28.7357  -23.4417  -19.4913 C   0  0  0  0  0  0  0  0  0  0  0  0
   29.1953  -23.3895  -20.6575 O   0  0  0  0  0  0  0  0  0  0  0  0
   29.4980  -22.9691  -18.3341 C   0  0  0  0  0  0  0  0  0  0  0  0
   28.7444  -23.0562  -17.0636 C   0  0  0  0  0  0  0  0  0  0  0  0
   27.7047  -21.9758  -16.9437 C   0  0  2  0  0  0  0  0  0  0  0  0
   28.3126  -20.6768  -17.1617 N   0  0  0  0  0  0  0  0  0  0  0  0
   27.1537  -22.0598  -15.5398 C   0  0  0  0  0  0  0  0  0  0  0  0
   26.5300  -23.0827  -15.1651 O   0  0  0  0  0  0  0  0  0  0  0  0
   27.3138  -21.0062  -14.5989 N   0  0  0  0  0  0  0  0  0  0  0  0
   26.7190  -21.0678  -13.2675 C   0  0  1  0  0  0  0  0  0  0  0  0
   27.3699  -20.0494  -12.3487 C   0  0  0  0  0  0  0  0  0  0  0  0
   26.7339  -20.1278  -11.0180 C   0  0  0  0  0  0  0  0  0  0  0  0
   25.3625  -20.0386  -10.7757 C   0  0  0  0  0  0  0  0  0  0  0  0
   25.1392  -20.1500   -9.4634 N   0  0  0  0  0  0  0  0  0  0  0  0
   26.3159  -20.3120   -8.8067 C   0  0  0  0  0  0  0  0  0  0  0  0
   26.6563  -20.4715   -7.4806 C   0  0  0  0  0  0  0  0  0  0  0  0
   27.9782  -20.6154   -7.1287 C   0  0  0  0  0  0  0  0  0  0  0  0
   28.9801  -20.6041   -8.0779 C   0  0  0  0  0  0  0  0  0  0  0  0
   28.6362  -20.4447   -9.4001 C   0  0  0  0  0  0  0  0  0  0  0  0
   27.3070  -20.2978   -9.7768 C   0  0  0  0  0  0  0  0  0  0  0  0
   25.2719  -20.8725  -13.3866 C   0  0  0  0  0  0  0  0  0  0  0  0
   24.8704  -19.7871  -13.8882 O   0  0  0  0  0  0  0  0  0  0  0  0
   24.2886  -21.8059  -12.9830 N   0  0  0  0  0  0  0  0  0  0  0  0
   22.9238  -21.6099  -13.3456 C   0  0  1  0  0  0  0  0  0  0  0  0
   22.2104  -22.9007  -13.6845 C   0  0  0  0  0  0  0  0  0  0  0  0
   20.7745  -22.7148  -14.0542 C   0  0  0  0  0  0  0  0  0  0  0  0
   20.5795  -23.2158  -15.4249 C   0  0  0  0  0  0  0  0  0  0  0  0
   20.5236  -24.4405  -15.6334 O   0  0  0  0  0  0  0  0  0  0  0  0
   22.1587  -20.8459  -12.3173 C   0  0  0  0  0  0  0  0  0  0  0  0
   20.9354  -20.3061  -12.7001 O   0  0  0  0  0  0  0  0  0  0  0  0
   20.4592  -22.3349  -16.4734 O   0  0  0  0  0  0  0  0  0  0  0  0
   22.5577  -20.6703  -11.1473 O   0  0  0  0  0  0  0  0  0  0  0  0
  1  2  1  0
  2  3  2  0
  4  5  1  0
  4  2  1  0
  5  6  1  0
  6  7  1  1
  8  9  2  0
  8  6  1  0
 10  8  1  0
 11 10  1  0
 11 12  1  1
 12 13  1  0
 13 14  2  0
 13 21  1  0
 14 15  1  0
 15 16  1  0
 16 17  2  0
 18 17  1  0
 19 18  2  0
 20 21  2  0
 20 19  1  0
 21 16  1  0
 22 11  1  0
 23 22  2  0
 24 22  1  0
 25 24  1  0
 25 26  1  1
 26 27  1  0
 28 32  1  0
 28 27  1  0
 29 28  2  0
 30 31  1  0
 30 25  1  0
 33 30  2  0
M  END
$$$$
