QWE.pdb
     RDKit          3D

 33 34  0  0  1  0  0  0  0  0999 V2000
   21.9213  -21.0650  -16.2531 N   0  0  0  0  0  0  0  0  0  0  0  0
   22.4118  -19.7078  -16.3598 C   0  0  0  0  0  0  0  0  0  0  0  0
   22.3437  -19.1688  -17.4907 O   0  0  0  0  0  0  0  0  0  0  0  0
   22.9576  -19.0062  -15.1964 C   0  0  0  0  0  0  0  0  0  0  0  0
   22.9003  -19.8058  -13.9527 C   0  0  0  0  0  0  0  0  0  0  0  0
   24.2526  -19.9586  -13.3119 C   0  0  2  0  0  0  0  0  0  0  0  0
   25.1391  -20.6926  -14.1949 N   0  0  0  0  0  0  0  0  0  0  0  0
   24.0398  -20.7329  -12.0325 C   0  0  0  0  0  0  0  0  0  0  0  0
   23.6581  -21.9280  -12.0723 O   0  0  0  0  0  0  0  0  0  0  0  0
   24.2580  -20.1550  -10.7521 N   0  0  0  0  0  0  0  0  0  0  0  0
   24.1295  -20.9346   -9.5250 C   0  0  1  0  0  0  0  0  0  0  0  0
   24.9043  -20.2780   -8.3965 C   0  0  0  0  0  0  0  0  0  0  0  0
   26.3471  -20.5184   -8.6013 C   0  0  0  0  0  0  0  0  0  0  0  0
   26.9005  -21.2294   -9.6668 C   0  0  0  0  0  0  0  0  0  0  0  0
   28.2300  -21.2511   -9.5384 N   0  0  0  0  0  0  0  0  0  0  0  0
   28.5970  -20.5771   -8.4189 C   0  0  0  0  0  0  0  0  0  0  0  0
   29.8094  -20.2980   -7.8256 C   0  0  0  0  0  0  0  0  0  0  0  0
   29.8460  -19.5693   -6.6596 C   0  0  0  0  0  0  0  0  0  0  0  0
   28.6898  -19.1070   -6.0643 C   0  0  0  0  0  0  0  0  0  0  0  0
   27.4820  -19.3877   -6.6595 C   0  0  0  0  0  0  0  0  0  0  0  0
   27.4230  -20.1221   -7.8374 C   0  0  0  0  0  0  0  0  0  0  0  0
   22.7070  -21.0926   -9.2118 C   0  0  0  0  0  0  0  0  0  0  0  0
   22.0008  -20.0483   -9.1703 O   0  0  0  0  0  0  0  0  0  0  0  0
   22.0627  -22.3247   -8.9520 N   0  0  0  0  0  0  0  0  0  0  0  0
   20.6818  -22.3500   -8.5983 C   0  0  1  0  0  0  0  0  0  0  0  0
   19.8518  -23.2212   -9.5160 C   0  0  0  0  0  0  0  0  0  0  0  0
   19.0417  -24.2507   -8.7971 C   0  0  0  0  0  0  0  0  0  0  0  0
   18.0092  -24.7549   -9.7178 C   0  0  0  0  0  0  0  0  0  0  0  0
   18.0479  -24.4424  -10.9209 O   0  0  0  0  0  0  0  0  0  0  0  0
   20.4591  -22.7330   -7.1736 C   0  0  0  0  0  0  0  0  0  0  0  0
   19.1815  -22.5522   -6.6545 O   0  0  0  0  0  0  0  0  0  0  0  0
   17.0041  -25.5688   -9.2521 O   0  0  0  0  0  0  0  0  0  0  0  0
   21.3511  -23.2009   -6.4357 O   0  0  0  0  0  0  0  0  0  0  0  0
  1  2  1  0
  2  3  2  0
  4  5  1  0
  4  2  1  0
  5  6  1  0
  6  7  1  6
  8  9  2  0
  8  6  1  0
 10  8  1  0
 11 10  1  0
 11 12  1  1
 12 13  1  0
 13 14  2  0
 13 21  1  0
 14 15  1  0
 15 16  1  0
 16 17  2  0
 18 17  1  0
 19 18  2  0
 20 21  2  0
 20 19  1  0
 21 16  1  0
 22 11  1  0
 23 22  2  0
 24 22  1  0
 25 24  1  0
 25 26  1  6
 26 27  1  0
 28 32  1  0
 28 27  1  0
 29 28  2  0
 30 31  1  0
 30 25  1  0
 33 30  2  0
M  END
$$$$
