QWE.pdb
     RDKit          3D

 33 34  0  0  1  0  0  0  0  0999 V2000
   28.6393  -32.7323   -2.9023 N   0  0  0  0  0  0  0  0  0  0  0  0
   28.3195  -33.9511   -3.6138 C   0  0  0  0  0  0  0  0  0  0  0  0
   28.2069  -33.8655   -4.8604 O   0  0  0  0  0  0  0  0  0  0  0  0
   28.1403  -35.2183   -2.9028 C   0  0  0  0  0  0  0  0  0  0  0  0
   28.3237  -35.0976   -1.4394 C   0  0  0  0  0  0  0  0  0  0  0  0
   27.0137  -35.0969   -0.7001 C   0  0  2  0  0  0  0  0  0  0  0  0
   26.1293  -34.0923   -1.2600 N   0  0  0  0  0  0  0  0  0  0  0  0
   27.3295  -34.7636    0.7389 C   0  0  0  0  0  0  0  0  0  0  0  0
   28.0203  -35.5486    1.4332 O   0  0  0  0  0  0  0  0  0  0  0  0
   26.8684  -33.5702    1.3588 N   0  0  0  0  0  0  0  0  0  0  0  0
   27.2090  -33.2400    2.7390 C   0  0  1  0  0  0  0  0  0  0  0  0
   27.1657  -31.7372    2.9506 C   0  0  0  0  0  0  0  0  0  0  0  0
   25.7803  -31.2645    2.7549 C   0  0  0  0  0  0  0  0  0  0  0  0
   25.0532  -31.3741    1.5689 C   0  0  0  0  0  0  0  0  0  0  0  0
   23.8392  -30.8456    1.7462 N   0  0  0  0  0  0  0  0  0  0  0  0
   23.7189  -30.3804    3.0157 C   0  0  0  0  0  0  0  0  0  0  0  0
   22.7061  -29.7584    3.7137 C   0  0  0  0  0  0  0  0  0  0  0  0
   22.9030  -29.4016    5.0274 C   0  0  0  0  0  0  0  0  0  0  0  0
   24.0988  -29.6529    5.6691 C   0  0  0  0  0  0  0  0  0  0  0  0
   25.1070  -30.2738    4.9690 C   0  0  0  0  0  0  0  0  0  0  0  0
   24.9286  -30.6424    3.6414 C   0  0  0  0  0  0  0  0  0  0  0  0
   26.3005  -33.9596    3.6354 C   0  0  0  0  0  0  0  0  0  0  0  0
   25.2159  -34.3814    3.1488 O   0  0  0  0  0  0  0  0  0  0  0  0
   26.5438  -34.2187    5.0045 N   0  0  0  0  0  0  0  0  0  0  0  0
   25.5650  -34.8947    5.7903 C   0  0  1  0  0  0  0  0  0  0  0  0
   26.1704  -35.7526    6.8800 C   0  0  0  0  0  0  0  0  0  0  0  0
   25.1600  -36.5049    7.6838 C   0  0  0  0  0  0  0  0  0  0  0  0
   25.5648  -36.4586    9.0987 C   0  0  0  0  0  0  0  0  0  0  0  0
   24.6973  -36.4460    9.9897 O   0  0  0  0  0  0  0  0  0  0  0  0
   24.5454  -33.9678    6.3625 C   0  0  0  0  0  0  0  0  0  0  0  0
   24.9991  -32.7619    6.8863 O   0  0  0  0  0  0  0  0  0  0  0  0
   26.8968  -36.4293    9.4371 O   0  0  0  0  0  0  0  0  0  0  0  0
   23.3226  -34.2187    6.3934 O   0  0  0  0  0  0  0  0  0  0  0  0
  1  2  1  0
  2  3  2  0
  4  5  1  0
  4  2  1  0
  5  6  1  0
  6  7  1  6
  8  9  2  0
  8  6  1  0
 10  8  1  0
 11 10  1  0
 11 12  1  6
 12 13  1  0
 13 14  2  0
 13 21  1  0
 14 15  1  0
 15 16  1  0
 16 17  2  0
 18 17  1  0
 19 18  2  0
 20 21  2  0
 20 19  1  0
 21 16  1  0
 22 11  1  0
 23 22  2  0
 24 22  1  0
 25 24  1  0
 25 26  1  1
 26 27  1  0
 28 32  1  0
 28 27  1  0
 29 28  2  0
 30 31  1  0
 30 25  1  0
 33 30  2  0
M  END
$$$$
