QWE.pdb
     RDKit          3D

 33 34  0  0  1  0  0  0  0  0999 V2000
   27.7798  -17.0399  -14.6468 N   0  0  0  0  0  0  0  0  0  0  0  0
   28.6891  -17.6896  -15.5661 C   0  0  0  0  0  0  0  0  0  0  0  0
   29.5065  -16.9531  -16.1688 O   0  0  0  0  0  0  0  0  0  0  0  0
   28.6494  -19.1384  -15.7734 C   0  0  0  0  0  0  0  0  0  0  0  0
   27.6171  -19.8167  -14.9586 C   0  0  0  0  0  0  0  0  0  0  0  0
   28.0815  -20.0736  -13.5512 C   0  0  2  0  0  0  0  0  0  0  0  0
   29.2845  -20.8841  -13.5666 N   0  0  0  0  0  0  0  0  0  0  0  0
   26.9655  -20.8179  -12.8568 C   0  0  0  0  0  0  0  0  0  0  0  0
   26.0674  -21.3818  -13.5284 O   0  0  0  0  0  0  0  0  0  0  0  0
   26.8839  -20.9117  -11.4406 N   0  0  0  0  0  0  0  0  0  0  0  0
   25.8125  -21.6502  -10.7797 C   0  0  1  0  0  0  0  0  0  0  0  0
   26.1393  -21.8579   -9.3117 C   0  0  0  0  0  0  0  0  0  0  0  0
   26.5454  -20.5658   -8.7228 C   0  0  0  0  0  0  0  0  0  0  0  0
   26.0993  -19.3133   -9.1466 C   0  0  0  0  0  0  0  0  0  0  0  0
   26.6665  -18.3662   -8.3944 N   0  0  0  0  0  0  0  0  0  0  0  0
   27.4841  -18.9362   -7.4730 C   0  0  0  0  0  0  0  0  0  0  0  0
   28.2916  -18.4377   -6.4734 C   0  0  0  0  0  0  0  0  0  0  0  0
   29.0160  -19.3032   -5.6871 C   0  0  0  0  0  0  0  0  0  0  0  0
   28.9538  -20.6690   -5.8757 C   0  0  0  0  0  0  0  0  0  0  0  0
   28.1468  -21.1624   -6.8744 C   0  0  0  0  0  0  0  0  0  0  0  0
   27.4069  -20.3054   -7.6797 C   0  0  0  0  0  0  0  0  0  0  0  0
   24.5510  -20.9322  -10.9779 C   0  0  0  0  0  0  0  0  0  0  0  0
   24.6039  -19.6747  -11.0609 O   0  0  0  0  0  0  0  0  0  0  0  0
   23.2772  -21.5383  -11.0837 N   0  0  0  0  0  0  0  0  0  0  0  0
   22.2129  -20.8574  -11.7441 C   0  0  1  0  0  0  0  0  0  0  0  0
   21.4261  -21.7527  -12.6765 C   0  0  0  0  0  0  0  0  0  0  0  0
   20.3015  -21.0563  -13.3716 C   0  0  0  0  0  0  0  0  0  0  0  0
   19.6329  -22.0243  -14.2572 C   0  0  0  0  0  0  0  0  0  0  0  0
   20.0513  -23.1936  -14.3229 O   0  0  0  0  0  0  0  0  0  0  0  0
   21.2973  -20.1611  -10.7938 C   0  0  0  0  0  0  0  0  0  0  0  0
   20.4888  -19.1524  -11.3071 O   0  0  0  0  0  0  0  0  0  0  0  0
   18.5492  -21.6397  -15.0103 O   0  0  0  0  0  0  0  0  0  0  0  0
   21.2229  -20.4360   -9.5781 O   0  0  0  0  0  0  0  0  0  0  0  0
  1  2  1  0
  2  3  2  0
  4  5  1  0
  4  2  1  0
  5  6  1  0
  6  7  1  6
  8  9  2  0
  8  6  1  0
 10  8  1  0
 11 10  1  0
 11 12  1  1
 12 13  1  0
 13 14  2  0
 13 21  1  0
 14 15  1  0
 15 16  1  0
 16 17  2  0
 18 17  1  0
 19 18  2  0
 20 21  2  0
 20 19  1  0
 21 16  1  0
 22 11  1  0
 23 22  2  0
 24 22  1  0
 25 24  1  0
 25 26  1  1
 26 27  1  0
 28 32  1  0
 28 27  1  0
 29 28  2  0
 30 31  1  0
 30 25  1  0
 33 30  2  0
M  END
$$$$
