QWE.pdb
     RDKit          3D

 33 34  0  0  1  0  0  0  0  0999 V2000
   29.0332  -22.2418  -15.4527 N   0  0  0  0  0  0  0  0  0  0  0  0
   29.7166  -20.9665  -15.4755 C   0  0  0  0  0  0  0  0  0  0  0  0
   30.4422  -20.7311  -16.4716 O   0  0  0  0  0  0  0  0  0  0  0  0
   29.5597  -20.0036  -14.3838 C   0  0  0  0  0  0  0  0  0  0  0  0
   28.5968  -20.4446  -13.3504 C   0  0  0  0  0  0  0  0  0  0  0  0
   29.2304  -20.5495  -11.9902 C   0  0  2  0  0  0  0  0  0  0  0  0
   30.2841  -21.5464  -12.0101 N   0  0  0  0  0  0  0  0  0  0  0  0
   28.1381  -20.9707  -11.0357 C   0  0  0  0  0  0  0  0  0  0  0  0
   27.8650  -22.1864  -10.8835 O   0  0  0  0  0  0  0  0  0  0  0  0
   27.3859  -20.0287  -10.2821 N   0  0  0  0  0  0  0  0  0  0  0  0
   26.1080  -20.3789   -9.6701 C   0  0  1  0  0  0  0  0  0  0  0  0
   25.8771  -19.5541   -8.4166 C   0  0  0  0  0  0  0  0  0  0  0  0
   27.1094  -19.5623   -7.6026 C   0  0  0  0  0  0  0  0  0  0  0  0
   28.2934  -18.9000   -7.9294 C   0  0  0  0  0  0  0  0  0  0  0  0
   29.1999  -19.1211   -6.9734 N   0  0  0  0  0  0  0  0  0  0  0  0
   28.6686  -19.9130   -6.0075 C   0  0  0  0  0  0  0  0  0  0  0  0
   29.1519  -20.4355   -4.8271 C   0  0  0  0  0  0  0  0  0  0  0  0
   28.3388  -21.2252   -4.0479 C   0  0  0  0  0  0  0  0  0  0  0  0
   27.0409  -21.5096   -4.4214 C   0  0  0  0  0  0  0  0  0  0  0  0
   26.5625  -20.9862   -5.6000 C   0  0  0  0  0  0  0  0  0  0  0  0
   27.3673  -20.1862   -6.4017 C   0  0  0  0  0  0  0  0  0  0  0  0
   25.0444  -20.2025  -10.6622 C   0  0  0  0  0  0  0  0  0  0  0  0
   25.0870  -19.1686  -11.3835 O   0  0  0  0  0  0  0  0  0  0  0  0
   23.9727  -21.1008  -10.8750 N   0  0  0  0  0  0  0  0  0  0  0  0
   22.9870  -20.8176  -11.8654 C   0  0  1  0  0  0  0  0  0  0  0  0
   22.9403  -21.8540  -12.9671 C   0  0  0  0  0  0  0  0  0  0  0  0
   22.9606  -23.2625  -12.4684 C   0  0  0  0  0  0  0  0  0  0  0  0
   22.5123  -24.1468  -13.5571 C   0  0  0  0  0  0  0  0  0  0  0  0
   22.4655  -25.3762  -13.3754 O   0  0  0  0  0  0  0  0  0  0  0  0
   21.6282  -20.6133  -11.2838 C   0  0  0  0  0  0  0  0  0  0  0  0
   20.6166  -20.2078  -12.1479 O   0  0  0  0  0  0  0  0  0  0  0  0
   22.1459  -23.6181  -14.7719 O   0  0  0  0  0  0  0  0  0  0  0  0
   21.3595  -20.7861  -10.0768 O   0  0  0  0  0  0  0  0  0  0  0  0
  1  2  1  0
  2  3  2  0
  4  5  1  0
  4  2  1  0
  5  6  1  0
  6  7  1  6
  8  9  2  0
  8  6  1  0
 10  8  1  0
 11 10  1  0
 11 12  1  1
 12 13  1  0
 13 14  2  0
 13 21  1  0
 14 15  1  0
 15 16  1  0
 16 17  2  0
 18 17  1  0
 19 18  2  0
 20 21  2  0
 20 19  1  0
 21 16  1  0
 22 11  1  0
 23 22  2  0
 24 22  1  0
 25 24  1  0
 25 26  1  6
 26 27  1  0
 28 32  1  0
 28 27  1  0
 29 28  2  0
 30 31  1  0
 30 25  1  0
 33 30  2  0
M  END
$$$$
