QWE.pdb
     RDKit          3D

 33 34  0  0  1  0  0  0  0  0999 V2000
   26.7849  -28.1769  -18.6641 N   0  0  0  0  0  0  0  0  0  0  0  0
   27.3822  -28.6491  -17.4336 C   0  0  0  0  0  0  0  0  0  0  0  0
   27.6841  -29.8657  -17.3815 O   0  0  0  0  0  0  0  0  0  0  0  0
   27.6203  -27.7409  -16.3102 C   0  0  0  0  0  0  0  0  0  0  0  0
   27.2297  -26.3427  -16.5969 C   0  0  0  0  0  0  0  0  0  0  0  0
   28.2840  -25.6062  -17.3771 C   0  0  2  0  0  0  0  0  0  0  0  0
   29.4789  -25.4493  -16.5696 N   0  0  0  0  0  0  0  0  0  0  0  0
   27.7058  -24.2518  -17.7134 C   0  0  0  0  0  0  0  0  0  0  0  0
   27.3242  -23.4819  -16.7984 O   0  0  0  0  0  0  0  0  0  0  0  0
   27.5709  -23.7974  -19.0537 N   0  0  0  0  0  0  0  0  0  0  0  0
   26.9618  -22.5096  -19.3709 C   0  0  1  0  0  0  0  0  0  0  0  0
   27.3820  -22.0515  -20.7560 C   0  0  0  0  0  0  0  0  0  0  0  0
   26.7983  -20.7206  -21.0192 C   0  0  0  0  0  0  0  0  0  0  0  0
   27.1016  -19.5557  -20.3133 C   0  0  0  0  0  0  0  0  0  0  0  0
   26.3947  -18.5397  -20.8159 N   0  0  0  0  0  0  0  0  0  0  0  0
   25.6207  -18.9781  -21.8410 C   0  0  0  0  0  0  0  0  0  0  0  0
   24.7218  -18.3673  -22.6889 C   0  0  0  0  0  0  0  0  0  0  0  0
   24.0817  -19.1102  -23.6534 C   0  0  0  0  0  0  0  0  0  0  0  0
   24.3188  -20.4624  -23.7945 C   0  0  0  0  0  0  0  0  0  0  0  0
   25.2164  -21.0681  -22.9464 C   0  0  0  0  0  0  0  0  0  0  0  0
   25.8738  -20.3360  -21.9654 C   0  0  0  0  0  0  0  0  0  0  0  0
   25.5078  -22.6280  -19.2357 C   0  0  0  0  0  0  0  0  0  0  0  0
   24.9929  -23.7581  -19.4562 O   0  0  0  0  0  0  0  0  0  0  0  0
   24.6351  -21.5740  -18.8773 N   0  0  0  0  0  0  0  0  0  0  0  0
   23.2352  -21.8142  -18.7540 C   0  0  1  0  0  0  0  0  0  0  0  0
   22.9073  -22.9026  -17.7550 C   0  0  0  0  0  0  0  0  0  0  0  0
   21.4477  -23.2065  -17.6548 C   0  0  0  0  0  0  0  0  0  0  0  0
   21.1022  -23.3600  -16.2317 C   0  0  0  0  0  0  0  0  0  0  0  0
   20.4409  -24.3450  -15.8588 O   0  0  0  0  0  0  0  0  0  0  0  0
   22.4631  -20.5749  -18.4469 C   0  0  0  0  0  0  0  0  0  0  0  0
   21.0856  -20.6161  -18.6347 O   0  0  0  0  0  0  0  0  0  0  0  0
   21.5080  -22.4190  -15.3155 O   0  0  0  0  0  0  0  0  0  0  0  0
   22.9861  -19.5183  -18.0356 O   0  0  0  0  0  0  0  0  0  0  0  0
  1  2  1  0
  2  3  2  0
  4  5  1  0
  4  2  1  0
  5  6  1  0
  6  7  1  1
  8  9  2  0
  8  6  1  0
 10  8  1  0
 11 10  1  0
 11 12  1  6
 12 13  1  0
 13 14  2  0
 13 21  1  0
 14 15  1  0
 15 16  1  0
 16 17  2  0
 18 17  1  0
 19 18  2  0
 20 21  2  0
 20 19  1  0
 21 16  1  0
 22 11  1  0
 23 22  2  0
 24 22  1  0
 25 24  1  0
 25 26  1  1
 26 27  1  0
 28 32  1  0
 28 27  1  0
 29 28  2  0
 30 31  1  0
 30 25  1  0
 33 30  2  0
M  END
$$$$
