QWE.pdb
     RDKit          3D

 33 34  0  0  1  0  0  0  0  0999 V2000
   28.1680  -21.4639  -11.3249 N   0  0  0  0  0  0  0  0  0  0  0  0
   28.3492  -20.8993  -12.6449 C   0  0  0  0  0  0  0  0  0  0  0  0
   29.4607  -21.0907  -13.1944 O   0  0  0  0  0  0  0  0  0  0  0  0
   27.2789  -20.1444  -13.2992 C   0  0  0  0  0  0  0  0  0  0  0  0
   26.1218  -19.8855  -12.4138 C   0  0  0  0  0  0  0  0  0  0  0  0
   25.1092  -20.9968  -12.4615 C   0  0  2  0  0  0  0  0  0  0  0  0
   25.5123  -21.9929  -13.4361 N   0  0  0  0  0  0  0  0  0  0  0  0
   23.7985  -20.3700  -12.8746 C   0  0  0  0  0  0  0  0  0  0  0  0
   23.2754  -19.4739  -12.1683 O   0  0  0  0  0  0  0  0  0  0  0  0
   23.1126  -20.7585  -14.0577 N   0  0  0  0  0  0  0  0  0  0  0  0
   21.8279  -20.1737  -14.4284 C   0  0  1  0  0  0  0  0  0  0  0  0
   21.9796  -19.2980  -15.6593 C   0  0  0  0  0  0  0  0  0  0  0  0
   22.5062  -17.9805  -15.2492 C   0  0  0  0  0  0  0  0  0  0  0  0
   23.8287  -17.5612  -15.3990 C   0  0  0  0  0  0  0  0  0  0  0  0
   23.9533  -16.3191  -14.9230 N   0  0  0  0  0  0  0  0  0  0  0  0
   22.7568  -15.8818  -14.4547 C   0  0  0  0  0  0  0  0  0  0  0  0
   22.3296  -14.7076  -13.8729 C   0  0  0  0  0  0  0  0  0  0  0  0
   21.0130  -14.5720  -13.4985 C   0  0  0  0  0  0  0  0  0  0  0  0
   20.1019  -15.5904  -13.6926 C   0  0  0  0  0  0  0  0  0  0  0  0
   20.5322  -16.7606  -14.2735 C   0  0  0  0  0  0  0  0  0  0  0  0
   21.8578  -16.9179  -14.6589 C   0  0  0  0  0  0  0  0  0  0  0  0
   20.8558  -21.2525  -14.6232 C   0  0  0  0  0  0  0  0  0  0  0  0
   21.2607  -22.3060  -15.1863 O   0  0  0  0  0  0  0  0  0  0  0  0
   19.4980  -21.2056  -14.2293 N   0  0  0  0  0  0  0  0  0  0  0  0
   18.6449  -22.3231  -14.4660 C   0  0  1  0  0  0  0  0  0  0  0  0
   18.0133  -22.8637  -13.2016 C   0  0  0  0  0  0  0  0  0  0  0  0
   17.0646  -21.9113  -12.5490 C   0  0  0  0  0  0  0  0  0  0  0  0
   16.5052  -22.5608  -11.3518 C   0  0  0  0  0  0  0  0  0  0  0  0
   16.2837  -21.8877  -10.3298 O   0  0  0  0  0  0  0  0  0  0  0  0
   17.5989  -22.0420  -15.4923 C   0  0  0  0  0  0  0  0  0  0  0  0
   17.4875  -20.7336  -15.9507 O   0  0  0  0  0  0  0  0  0  0  0  0
   16.2274  -23.9070  -11.3605 O   0  0  0  0  0  0  0  0  0  0  0  0
   16.8301  -22.9116  -15.9525 O   0  0  0  0  0  0  0  0  0  0  0  0
  1  2  1  0
  2  3  2  0
  4  5  1  0
  4  2  1  0
  5  6  1  0
  6  7  1  6
  8  9  2  0
  8  6  1  0
 10  8  1  0
 11 10  1  0
 11 12  1  6
 12 13  1  0
 13 14  2  0
 13 21  1  0
 14 15  1  0
 15 16  1  0
 16 17  2  0
 18 17  1  0
 19 18  2  0
 20 21  2  0
 20 19  1  0
 21 16  1  0
 22 11  1  0
 23 22  2  0
 24 22  1  0
 25 24  1  0
 25 26  1  1
 26 27  1  0
 28 32  1  0
 28 27  1  0
 29 28  2  0
 30 31  1  0
 30 25  1  0
 33 30  2  0
M  END
$$$$
