QWE.pdb
     RDKit          3D

 33 34  0  0  1  0  0  0  0  0999 V2000
   26.9362  -22.9298  -19.4915 N   0  0  0  0  0  0  0  0  0  0  0  0
   28.2471  -23.5414  -19.5318 C   0  0  0  0  0  0  0  0  0  0  0  0
   28.7750  -23.6741  -20.6621 O   0  0  0  0  0  0  0  0  0  0  0  0
   28.9167  -23.9788  -18.3055 C   0  0  0  0  0  0  0  0  0  0  0  0
   28.0839  -23.8107  -17.0939 C   0  0  0  0  0  0  0  0  0  0  0  0
   27.5968  -22.3970  -16.9300 C   0  0  2  0  0  0  0  0  0  0  0  0
   28.7158  -21.4764  -16.9991 N   0  0  0  0  0  0  0  0  0  0  0  0
   26.9461  -22.3189  -15.5691 C   0  0  0  0  0  0  0  0  0  0  0  0
   26.0216  -23.1110  -15.2635 O   0  0  0  0  0  0  0  0  0  0  0  0
   27.3436  -21.3648  -14.5931 N   0  0  0  0  0  0  0  0  0  0  0  0
   26.6724  -21.2615  -13.3013 C   0  0  1  0  0  0  0  0  0  0  0  0
   27.4038  -20.2822  -12.4008 C   0  0  0  0  0  0  0  0  0  0  0  0
   26.7441  -20.2601  -11.0795 C   0  0  0  0  0  0  0  0  0  0  0  0
   25.3863  -20.0222  -10.8626 C   0  0  0  0  0  0  0  0  0  0  0  0
   25.1338  -20.0765   -9.5519 N   0  0  0  0  0  0  0  0  0  0  0  0
   26.2776  -20.3438   -8.8718 C   0  0  0  0  0  0  0  0  0  0  0  0
   26.5804  -20.5044   -7.5367 C   0  0  0  0  0  0  0  0  0  0  0  0
   27.8748  -20.7767   -7.1594 C   0  0  0  0  0  0  0  0  0  0  0  0
   28.8858  -20.8940   -8.0915 C   0  0  0  0  0  0  0  0  0  0  0  0
   28.5795  -20.7330   -9.4228 C   0  0  0  0  0  0  0  0  0  0  0  0
   27.2785  -20.4576   -9.8251 C   0  0  0  0  0  0  0  0  0  0  0  0
   25.2744  -20.8836  -13.5236 C   0  0  0  0  0  0  0  0  0  0  0  0
   25.0534  -19.7788  -14.0906 O   0  0  0  0  0  0  0  0  0  0  0  0
   24.1522  -21.6604  -13.1521 N   0  0  0  0  0  0  0  0  0  0  0  0
   22.8361  -21.2174  -13.4750 C   0  0  1  0  0  0  0  0  0  0  0  0
   21.9238  -22.3425  -13.9130 C   0  0  0  0  0  0  0  0  0  0  0  0
   20.5498  -22.2632  -13.3311 C   0  0  0  0  0  0  0  0  0  0  0  0
   19.8114  -23.4772  -13.7175 C   0  0  0  0  0  0  0  0  0  0  0  0
   20.3818  -24.3641  -14.3767 O   0  0  0  0  0  0  0  0  0  0  0  0
   22.2056  -20.4339  -12.3728 C   0  0  0  0  0  0  0  0  0  0  0  0
   21.2861  -19.4533  -12.7296 O   0  0  0  0  0  0  0  0  0  0  0  0
   18.4954  -23.6326  -13.3523 O   0  0  0  0  0  0  0  0  0  0  0  0
   22.4598  -20.6134  -11.1635 O   0  0  0  0  0  0  0  0  0  0  0  0
  1  2  1  0
  2  3  2  0
  4  5  1  0
  4  2  1  0
  5  6  1  0
  6  7  1  1
  8  9  2  0
  8  6  1  0
 10  8  1  0
 11 10  1  0
 11 12  1  1
 12 13  1  0
 13 14  2  0
 13 21  1  0
 14 15  1  0
 15 16  1  0
 16 17  2  0
 18 17  1  0
 19 18  2  0
 20 21  2  0
 20 19  1  0
 21 16  1  0
 22 11  1  0
 23 22  2  0
 24 22  1  0
 25 24  1  0
 25 26  1  1
 26 27  1  0
 28 32  1  0
 28 27  1  0
 29 28  2  0
 30 31  1  0
 30 25  1  0
 33 30  2  0
M  END
$$$$
