QWE.pdb
     RDKit          3D

 33 34  0  0  1  0  0  0  0  0999 V2000
   27.8524  -22.5382  -18.4082 N   0  0  0  0  0  0  0  0  0  0  0  0
   29.0601  -22.4474  -17.6162 C   0  0  0  0  0  0  0  0  0  0  0  0
   30.1487  -22.5583  -18.2298 O   0  0  0  0  0  0  0  0  0  0  0  0
   29.0023  -22.2341  -16.1689 C   0  0  0  0  0  0  0  0  0  0  0  0
   27.6208  -22.1794  -15.6416 C   0  0  0  0  0  0  0  0  0  0  0  0
   27.3396  -20.8926  -14.9152 C   0  0  2  0  0  0  0  0  0  0  0  0
   28.5480  -20.0935  -14.8372 N   0  0  0  0  0  0  0  0  0  0  0  0
   26.8796  -21.2712  -13.5272 C   0  0  0  0  0  0  0  0  0  0  0  0
   26.0676  -22.2145  -13.3652 O   0  0  0  0  0  0  0  0  0  0  0  0
   27.3365  -20.5905  -12.3657 N   0  0  0  0  0  0  0  0  0  0  0  0
   26.7223  -20.8030  -11.0589 C   0  0  1  0  0  0  0  0  0  0  0  0
   27.5946  -20.2188   -9.9622 C   0  0  0  0  0  0  0  0  0  0  0  0
   26.9309  -20.4263   -8.6592 C   0  0  0  0  0  0  0  0  0  0  0  0
   25.6296  -20.8996   -8.4860 C   0  0  0  0  0  0  0  0  0  0  0  0
   25.3551  -20.9648   -7.1802 N   0  0  0  0  0  0  0  0  0  0  0  0
   26.4292  -20.5506   -6.4611 C   0  0  0  0  0  0  0  0  0  0  0  0
   26.6840  -20.4205   -5.1128 C   0  0  0  0  0  0  0  0  0  0  0  0
   27.9096  -19.9589   -4.6922 C   0  0  0  0  0  0  0  0  0  0  0  0
   28.8982  -19.6203   -5.5938 C   0  0  0  0  0  0  0  0  0  0  0  0
   28.6399  -19.7516   -6.9384 C   0  0  0  0  0  0  0  0  0  0  0  0
   27.4086  -20.2160   -7.3842 C   0  0  0  0  0  0  0  0  0  0  0  0
   25.3748  -20.2282  -11.0705 C   0  0  0  0  0  0  0  0  0  0  0  0
   25.2770  -18.9726  -11.0001 O   0  0  0  0  0  0  0  0  0  0  0  0
   24.1737  -20.9707  -11.1545 N   0  0  0  0  0  0  0  0  0  0  0  0
   22.9483  -20.3164  -11.4751 C   0  0  1  0  0  0  0  0  0  0  0  0
   22.4000  -20.7167  -12.8276 C   0  0  0  0  0  0  0  0  0  0  0  0
   21.6124  -21.9864  -12.8050 C   0  0  0  0  0  0  0  0  0  0  0  0
   21.1608  -22.2768  -14.1761 C   0  0  0  0  0  0  0  0  0  0  0  0
   19.9556  -22.4886  -14.3981 O   0  0  0  0  0  0  0  0  0  0  0  0
   21.9089  -20.4905  -10.4189 C   0  0  0  0  0  0  0  0  0  0  0  0
   22.1549  -21.4356   -9.4286 O   0  0  0  0  0  0  0  0  0  0  0  0
   22.0661  -22.3142  -15.2098 O   0  0  0  0  0  0  0  0  0  0  0  0
   20.8448  -19.8384  -10.3816 O   0  0  0  0  0  0  0  0  0  0  0  0
  1  2  1  0
  2  3  2  0
  4  5  1  0
  4  2  1  0
  5  6  1  0
  6  7  1  1
  8  9  2  0
  8  6  1  0
 10  8  1  0
 11 10  1  0
 11 12  1  1
 12 13  1  0
 13 14  2  0
 13 21  1  0
 14 15  1  0
 15 16  1  0
 16 17  2  0
 18 17  1  0
 19 18  2  0
 20 21  2  0
 20 19  1  0
 21 16  1  0
 22 11  1  0
 23 22  2  0
 24 22  1  0
 25 24  1  0
 25 26  1  6
 26 27  1  0
 28 32  1  0
 28 27  1  0
 29 28  2  0
 30 31  1  0
 30 25  1  0
 33 30  2  0
M  END
$$$$
