QWE.pdb
     RDKit          3D

 33 34  0  0  1  0  0  0  0  0999 V2000
   18.7262  -14.8563  -15.1221 N   0  0  0  0  0  0  0  0  0  0  0  0
   18.4082  -15.1502  -16.5029 C   0  0  0  0  0  0  0  0  0  0  0  0
   17.4114  -15.8831  -16.7103 O   0  0  0  0  0  0  0  0  0  0  0  0
   19.2170  -14.6106  -17.5975 C   0  0  0  0  0  0  0  0  0  0  0  0
   20.3329  -13.7570  -17.1331 C   0  0  0  0  0  0  0  0  0  0  0  0
   19.9797  -12.2950  -17.1592 C   0  0  2  0  0  0  0  0  0  0  0  0
   19.6955  -11.8782  -18.5194 N   0  0  0  0  0  0  0  0  0  0  0  0
   21.1828  -11.5501  -16.6308 C   0  0  0  0  0  0  0  0  0  0  0  0
   21.6382  -11.8114  -15.4907 O   0  0  0  0  0  0  0  0  0  0  0  0
   21.8402  -10.5405  -17.3855 N   0  0  0  0  0  0  0  0  0  0  0  0
   22.8811   -9.7000  -16.8022 C   0  0  1  0  0  0  0  0  0  0  0  0
   24.1178   -9.7002  -17.6829 C   0  0  0  0  0  0  0  0  0  0  0  0
   24.8587  -10.9599  -17.4699 C   0  0  0  0  0  0  0  0  0  0  0  0
   24.6334  -12.1518  -18.1597 C   0  0  0  0  0  0  0  0  0  0  0  0
   25.4807  -13.0844  -17.7157 N   0  0  0  0  0  0  0  0  0  0  0  0
   26.2744  -12.5631  -16.7459 C   0  0  0  0  0  0  0  0  0  0  0  0
   27.2932  -13.0714  -15.9689 C   0  0  0  0  0  0  0  0  0  0  0  0
   27.9170  -12.2620  -15.0482 C   0  0  0  0  0  0  0  0  0  0  0  0
   27.5454  -10.9433  -14.8817 C   0  0  0  0  0  0  0  0  0  0  0  0
   26.5283  -10.4400  -15.6590 C   0  0  0  0  0  0  0  0  0  0  0  0
   25.8852  -11.2406  -16.5948 C   0  0  0  0  0  0  0  0  0  0  0  0
   22.3407   -8.3544  -16.5934 C   0  0  0  0  0  0  0  0  0  0  0  0
   21.8273   -7.7726  -17.5878 O   0  0  0  0  0  0  0  0  0  0  0  0
   22.3493   -7.6555  -15.3636 N   0  0  0  0  0  0  0  0  0  0  0  0
   21.7979   -6.3433  -15.2819 C   0  0  1  0  0  0  0  0  0  0  0  0
   20.3574   -6.2772  -15.7409 C   0  0  0  0  0  0  0  0  0  0  0  0
   19.4342   -7.1466  -14.9505 C   0  0  0  0  0  0  0  0  0  0  0  0
   18.0529   -6.8625  -15.3741 C   0  0  0  0  0  0  0  0  0  0  0  0
   17.8137   -5.8609  -16.0714 O   0  0  0  0  0  0  0  0  0  0  0  0
   21.9403   -5.7423  -13.9236 C   0  0  0  0  0  0  0  0  0  0  0  0
   21.6010   -4.4013  -13.7784 O   0  0  0  0  0  0  0  0  0  0  0  0
   17.0285   -7.7000  -15.0016 O   0  0  0  0  0  0  0  0  0  0  0  0
   22.3436   -6.3756  -12.9259 O   0  0  0  0  0  0  0  0  0  0  0  0
  1  2  1  0
  2  3  2  0
  4  5  1  0
  4  2  1  0
  5  6  1  0
  6  7  1  6
  8  9  2  0
  8  6  1  0
 10  8  1  0
 11 10  1  0
 11 12  1  6
 12 13  1  0
 13 14  2  0
 13 21  1  0
 14 15  1  0
 15 16  1  0
 16 17  2  0
 18 17  1  0
 19 18  2  0
 20 21  2  0
 20 19  1  0
 21 16  1  0
 22 11  1  0
 23 22  2  0
 24 22  1  0
 25 24  1  0
 25 26  1  1
 26 27  1  0
 28 32  1  0
 28 27  1  0
 29 28  2  0
 30 31  1  0
 30 25  1  0
 33 30  2  0
M  END
$$$$
