QWE.pdb
     RDKit          3D

 33 34  0  0  1  0  0  0  0  0999 V2000
   27.1050  -23.3578  -19.8794 N   0  0  0  0  0  0  0  0  0  0  0  0
   28.1626  -22.5578  -19.3002 C   0  0  0  0  0  0  0  0  0  0  0  0
   29.3399  -22.9321  -19.5192 O   0  0  0  0  0  0  0  0  0  0  0  0
   27.8616  -21.3691  -18.5002 C   0  0  0  0  0  0  0  0  0  0  0  0
   27.2414  -21.6858  -17.1946 C   0  0  0  0  0  0  0  0  0  0  0  0
   28.2390  -21.6571  -16.0691 C   0  0  2  0  0  0  0  0  0  0  0  0
   29.1256  -22.8014  -16.1636 N   0  0  0  0  0  0  0  0  0  0  0  0
   27.4450  -21.7227  -14.7858 C   0  0  0  0  0  0  0  0  0  0  0  0
   26.7754  -22.7474  -14.5078 O   0  0  0  0  0  0  0  0  0  0  0  0
   27.4210  -20.6492  -13.8541 N   0  0  0  0  0  0  0  0  0  0  0  0
   26.6323  -20.7134  -12.6278 C   0  0  1  0  0  0  0  0  0  0  0  0
   27.1340  -19.6937  -11.6211 C   0  0  0  0  0  0  0  0  0  0  0  0
   28.1145  -20.3432  -10.7278 C   0  0  0  0  0  0  0  0  0  0  0  0
   29.2475  -21.0406  -11.1491 C   0  0  0  0  0  0  0  0  0  0  0  0
   29.9080  -21.4942  -10.0801 N   0  0  0  0  0  0  0  0  0  0  0  0
   29.2590  -21.1269   -8.9460 C   0  0  0  0  0  0  0  0  0  0  0  0
   29.4962  -21.3240   -7.6026 C   0  0  0  0  0  0  0  0  0  0  0  0
   28.6231  -20.8082   -6.6734 C   0  0  0  0  0  0  0  0  0  0  0  0
   27.5066  -20.0925   -7.0557 C   0  0  0  0  0  0  0  0  0  0  0  0
   27.2735  -19.8980   -8.3973 C   0  0  0  0  0  0  0  0  0  0  0  0
   28.1430  -20.4106   -9.3520 C   0  0  0  0  0  0  0  0  0  0  0  0
   25.2191  -20.5222  -12.9639 C   0  0  0  0  0  0  0  0  0  0  0  0
   24.9490  -19.7599  -13.9318 O   0  0  0  0  0  0  0  0  0  0  0  0
   24.1328  -21.1256  -12.2879 N   0  0  0  0  0  0  0  0  0  0  0  0
   22.7936  -20.8263  -12.6746 C   0  0  1  0  0  0  0  0  0  0  0  0
   22.3093  -21.6713  -13.8328 C   0  0  0  0  0  0  0  0  0  0  0  0
   20.8961  -21.3927  -14.2304 C   0  0  0  0  0  0  0  0  0  0  0  0
   20.8007  -21.4807  -15.6971 C   0  0  0  0  0  0  0  0  0  0  0  0
   21.5459  -22.2577  -16.3196 O   0  0  0  0  0  0  0  0  0  0  0  0
   21.8339  -20.9047  -11.5349 C   0  0  0  0  0  0  0  0  0  0  0  0
   20.5110  -20.5572  -11.7872 O   0  0  0  0  0  0  0  0  0  0  0  0
   19.8915  -20.7076  -16.3793 O   0  0  0  0  0  0  0  0  0  0  0  0
   22.1562  -21.2617  -10.3826 O   0  0  0  0  0  0  0  0  0  0  0  0
  1  2  1  0
  2  3  2  0
  4  5  1  0
  4  2  1  0
  5  6  1  0
  6  7  1  6
  8  9  2  0
  8  6  1  0
 10  8  1  0
 11 10  1  0
 11 12  1  1
 12 13  1  0
 13 14  2  0
 13 21  1  0
 14 15  1  0
 15 16  1  0
 16 17  2  0
 18 17  1  0
 19 18  2  0
 20 21  2  0
 20 19  1  0
 21 16  1  0
 22 11  1  0
 23 22  2  0
 24 22  1  0
 25 24  1  0
 25 26  1  6
 26 27  1  0
 28 32  1  0
 28 27  1  0
 29 28  2  0
 30 31  1  0
 30 25  1  0
 33 30  2  0
M  END
$$$$
