PAW.pdb
     RDKit          3D

 27 29  0  0  1  0  0  0  0  0999 V2000
   26.2000  -16.7998  -13.6081 N   0  0  0  0  0  0  0  0  0  0  0  0
   27.2394  -16.4383  -14.5343 C   0  0  0  0  0  0  0  0  0  0  0  0
   26.7568  -16.8784  -15.9101 C   0  0  0  0  0  0  0  0  0  0  0  0
   25.3588  -17.4387  -15.6548 C   0  0  0  0  0  0  0  0  0  0  0  0
   25.4931  -17.9062  -14.2224 C   0  0  1  0  0  0  0  0  0  0  0  0
   26.3706  -19.0999  -14.1609 C   0  0  0  0  0  0  0  0  0  0  0  0
   26.0842  -20.1510  -14.7792 O   0  0  0  0  0  0  0  0  0  0  0  0
   29.6595  -20.0651  -12.4982 C   0  0  0  0  0  0  0  0  0  0  0  0
   28.2506  -20.3235  -13.0345 C   0  0  2  0  0  0  0  0  0  0  0  0
   27.5896  -19.1010  -13.3873 N   0  0  0  0  0  0  0  0  0  0  0  0
   27.4618  -21.1325  -12.0664 C   0  0  0  0  0  0  0  0  0  0  0  0
   27.4832  -22.3796  -12.1861 O   0  0  0  0  0  0  0  0  0  0  0  0
   26.6973  -20.5440  -11.0269 N   0  0  0  0  0  0  0  0  0  0  0  0
   25.9103  -21.2394  -10.0531 C   0  0  1  0  0  0  0  0  0  0  0  0
   26.6599  -21.6229   -8.7843 C   0  0  0  0  0  0  0  0  0  0  0  0
   26.9366  -20.4196   -7.9762 C   0  0  0  0  0  0  0  0  0  0  0  0
   26.5801  -19.1202   -8.1956 C   0  0  0  0  0  0  0  0  0  0  0  0
   27.0479  -18.3452   -7.1737 N   0  0  0  0  0  0  0  0  0  0  0  0
   27.7037  -19.1000   -6.2848 C   0  0  0  0  0  0  0  0  0  0  0  0
   28.3511  -18.7933   -5.0921 C   0  0  0  0  0  0  0  0  0  0  0  0
   28.9483  -19.7834   -4.3674 C   0  0  0  0  0  0  0  0  0  0  0  0
   28.8967  -21.0691   -4.8344 C   0  0  0  0  0  0  0  0  0  0  0  0
   28.2560  -21.3715   -6.0145 C   0  0  0  0  0  0  0  0  0  0  0  0
   27.6450  -20.3957   -6.7674 C   0  0  0  0  0  0  0  0  0  0  0  0
   24.6094  -20.6478   -9.7463 C   0  0  0  0  0  0  0  0  0  0  0  0
   24.2255  -19.4806  -10.4262 O   0  0  0  0  0  0  0  0  0  0  0  0
   23.7962  -21.1076   -8.9105 O   0  0  0  0  0  0  0  0  0  0  0  0
  1  2  1  0
  3  2  1  0
  4  5  1  0
  4  3  1  0
  5  6  1  6
  5  1  1  0
  6  7  2  0
  9  8  1  1
  9 11  1  0
 10  9  1  0
 10  6  1  0
 11 13  1  0
 11 12  2  0
 13 14  1  0
 14 25  1  0
 14 15  1  1
 16 15  1  0
 16 17  2  0
 18 17  1  0
 19 18  1  0
 20 19  2  0
 21 20  1  0
 22 21  2  0
 22 23  1  0
 23 24  2  0
 24 19  1  0
 24 16  1  0
 25 27  2  0
 25 26  1  0
M  END
$$$$
