PAW.pdb
     RDKit          3D

 27 29  0  0  1  0  0  0  0  0999 V2000
   26.5329  -16.6841  -13.8806 N   0  0  0  0  0  0  0  0  0  0  0  0
   27.6888  -16.3607  -14.6732 C   0  0  0  0  0  0  0  0  0  0  0  0
   27.2918  -16.6002  -16.1239 C   0  0  0  0  0  0  0  0  0  0  0  0
   25.8222  -17.0099  -16.0471 C   0  0  0  0  0  0  0  0  0  0  0  0
   25.7679  -17.6302  -14.6685 C   0  0  1  0  0  0  0  0  0  0  0  0
   26.4969  -18.9215  -14.6667 C   0  0  0  0  0  0  0  0  0  0  0  0
   26.1629  -19.8588  -15.4276 O   0  0  0  0  0  0  0  0  0  0  0  0
   29.6402  -20.4079  -13.1998 C   0  0  0  0  0  0  0  0  0  0  0  0
   28.1657  -20.4651  -13.6021 C   0  0  2  0  0  0  0  0  0  0  0  0
   27.6202  -19.1523  -13.7894 N   0  0  0  0  0  0  0  0  0  0  0  0
   27.3854  -21.2656  -12.6201 C   0  0  0  0  0  0  0  0  0  0  0  0
   27.3176  -22.5049  -12.7921 O   0  0  0  0  0  0  0  0  0  0  0  0
   26.7255  -20.6775  -11.5110 N   0  0  0  0  0  0  0  0  0  0  0  0
   25.8936  -21.3537  -10.5613 C   0  0  1  0  0  0  0  0  0  0  0  0
   26.5938  -21.7469   -9.2674 C   0  0  0  0  0  0  0  0  0  0  0  0
   26.8685  -20.5460   -8.4551 C   0  0  0  0  0  0  0  0  0  0  0  0
   26.4424  -19.2605   -8.6264 C   0  0  0  0  0  0  0  0  0  0  0  0
   26.9400  -18.4824   -7.6210 N   0  0  0  0  0  0  0  0  0  0  0  0
   27.6834  -19.2216   -6.7900 C   0  0  0  0  0  0  0  0  0  0  0  0
   28.3915  -18.9061   -5.6347 C   0  0  0  0  0  0  0  0  0  0  0  0
   29.0763  -19.8803   -4.9683 C   0  0  0  0  0  0  0  0  0  0  0  0
   29.0513  -21.1591   -5.4561 C   0  0  0  0  0  0  0  0  0  0  0  0
   28.3505  -21.4703   -6.5992 C   0  0  0  0  0  0  0  0  0  0  0  0
   27.6507  -20.5105   -7.2930 C   0  0  0  0  0  0  0  0  0  0  0  0
   24.5953  -20.7357  -10.2991 C   0  0  0  0  0  0  0  0  0  0  0  0
   23.6478  -21.4547   -9.5527 O   0  0  0  0  0  0  0  0  0  0  0  0
   24.2554  -19.5957  -10.6946 O   0  0  0  0  0  0  0  0  0  0  0  0
  1  2  1  0
  3  2  1  0
  4  5  1  0
  4  3  1  0
  5  6  1  6
  5  1  1  0
  6  7  2  0
  9  8  1  1
  9 11  1  0
 10  9  1  0
 10  6  1  0
 11 13  1  0
 11 12  2  0
 13 14  1  0
 14 25  1  0
 14 15  1  1
 16 15  1  0
 16 17  2  0
 18 17  1  0
 19 18  1  0
 20 19  2  0
 21 20  1  0
 22 21  2  0
 22 23  1  0
 23 24  2  0
 24 19  1  0
 24 16  1  0
 25 27  2  0
 25 26  1  0
M  END
$$$$
