PAW.pdb
     RDKit          3D

 27 29  0  0  1  0  0  0  0  0999 V2000
   26.3862  -17.6824  -15.7802 N   0  0  0  0  0  0  0  0  0  0  0  0
   25.1191  -17.4711  -15.1332 C   0  0  0  0  0  0  0  0  0  0  0  0
   25.4314  -16.8639  -13.7718 C   0  0  0  0  0  0  0  0  0  0  0  0
   26.9509  -16.7075  -13.7713 C   0  0  0  0  0  0  0  0  0  0  0  0
   27.3553  -17.8217  -14.7113 C   0  0  1  0  0  0  0  0  0  0  0  0
   27.1336  -19.1360  -14.0616 C   0  0  0  0  0  0  0  0  0  0  0  0
   26.1368  -19.8409  -14.3420 O   0  0  0  0  0  0  0  0  0  0  0  0
   29.7694  -21.3821  -12.7756 C   0  0  0  0  0  0  0  0  0  0  0  0
   28.2820  -21.0666  -12.9415 C   0  0  2  0  0  0  0  0  0  0  0  0
   28.0554  -19.6576  -13.0804 N   0  0  0  0  0  0  0  0  0  0  0  0
   27.4936  -21.6578  -11.8266 C   0  0  0  0  0  0  0  0  0  0  0  0
   27.4708  -22.9059  -11.7186 O   0  0  0  0  0  0  0  0  0  0  0  0
   26.7772  -20.8632  -10.8954 N   0  0  0  0  0  0  0  0  0  0  0  0
   25.8765  -21.3391   -9.8886 C   0  0  1  0  0  0  0  0  0  0  0  0
   26.5209  -21.6166   -8.5372 C   0  0  0  0  0  0  0  0  0  0  0  0
   26.9262  -20.3491   -7.8995 C   0  0  0  0  0  0  0  0  0  0  0  0
   26.6748  -19.0621   -8.2787 C   0  0  0  0  0  0  0  0  0  0  0  0
   27.2410  -18.2072   -7.3774 N   0  0  0  0  0  0  0  0  0  0  0  0
   27.8594  -18.8972   -6.4124 C   0  0  0  0  0  0  0  0  0  0  0  0
   28.5703  -18.4990   -5.2846 C   0  0  0  0  0  0  0  0  0  0  0  0
   29.1048  -19.4372   -4.4502 C   0  0  0  0  0  0  0  0  0  0  0  0
   28.9280  -20.7624   -4.7440 C   0  0  0  0  0  0  0  0  0  0  0  0
   28.2246  -21.1554   -5.8600 C   0  0  0  0  0  0  0  0  0  0  0  0
   27.6742  -20.2336   -6.7201 C   0  0  0  0  0  0  0  0  0  0  0  0
   24.6316  -20.5873   -9.7421 C   0  0  0  0  0  0  0  0  0  0  0  0
   23.6172  -21.1198   -8.9301 O   0  0  0  0  0  0  0  0  0  0  0  0
   24.3942  -19.4867  -10.2933 O   0  0  0  0  0  0  0  0  0  0  0  0
  1  2  1  0
  3  2  1  0
  4  5  1  0
  4  3  1  0
  5  6  1  1
  5  1  1  0
  6  7  2  0
  9  8  1  1
  9 11  1  0
 10  9  1  0
 10  6  1  0
 11 13  1  0
 11 12  2  0
 13 14  1  0
 14 25  1  0
 14 15  1  1
 16 15  1  0
 16 17  2  0
 18 17  1  0
 19 18  1  0
 20 19  2  0
 21 20  1  0
 22 21  2  0
 22 23  1  0
 23 24  2  0
 24 19  1  0
 24 16  1  0
 25 27  2  0
 25 26  1  0
M  END
$$$$
