PAW.pdb
     RDKit          3D

 27 29  0  0  1  0  0  0  0  0999 V2000
   27.5537  -21.0953  -15.1961 N   0  0  0  0  0  0  0  0  0  0  0  0
   27.3661  -19.8893  -15.9573 C   0  0  0  0  0  0  0  0  0  0  0  0
   28.3116  -18.8560  -15.3591 C   0  0  0  0  0  0  0  0  0  0  0  0
   29.0610  -19.6207  -14.2696 C   0  0  0  0  0  0  0  0  0  0  0  0
   28.0365  -20.6696  -13.8974 C   0  0  1  0  0  0  0  0  0  0  0  0
   26.9066  -20.0377  -13.1743 C   0  0  0  0  0  0  0  0  0  0  0  0
   26.9501  -18.8368  -12.8207 O   0  0  0  0  0  0  0  0  0  0  0  0
   23.4969  -21.1283  -11.8583 C   0  0  0  0  0  0  0  0  0  0  0  0
   24.7905  -20.3123  -11.8524 C   0  0  2  0  0  0  0  0  0  0  0  0
   25.7112  -20.7786  -12.8478 N   0  0  0  0  0  0  0  0  0  0  0  0
   25.3921  -20.2940  -10.4916 C   0  0  0  0  0  0  0  0  0  0  0  0
   26.5130  -19.7521  -10.3507 O   0  0  0  0  0  0  0  0  0  0  0  0
   24.7450  -20.8629   -9.3651 N   0  0  0  0  0  0  0  0  0  0  0  0
   25.2033  -20.8163   -8.0089 C   0  0  1  0  0  0  0  0  0  0  0  0
   25.5257  -19.4203   -7.4932 C   0  0  0  0  0  0  0  0  0  0  0  0
   26.9566  -19.3268   -7.1450 C   0  0  0  0  0  0  0  0  0  0  0  0
   28.0079  -18.8744   -7.8891 C   0  0  0  0  0  0  0  0  0  0  0  0
   29.1540  -18.9649   -7.1528 N   0  0  0  0  0  0  0  0  0  0  0  0
   28.8859  -19.4650   -5.9412 C   0  0  0  0  0  0  0  0  0  0  0  0
   29.6938  -19.7443   -4.8434 C   0  0  0  0  0  0  0  0  0  0  0  0
   29.1430  -20.2599   -3.7064 C   0  0  0  0  0  0  0  0  0  0  0  0
   27.7946  -20.4933   -3.6706 C   0  0  0  0  0  0  0  0  0  0  0  0
   26.9963  -20.2167   -4.7572 C   0  0  0  0  0  0  0  0  0  0  0  0
   27.5218  -19.6967   -5.9173 C   0  0  0  0  0  0  0  0  0  0  0  0
   24.4088  -21.5721   -7.0426 C   0  0  0  0  0  0  0  0  0  0  0  0
   25.0739  -22.4271   -6.1489 O   0  0  0  0  0  0  0  0  0  0  0  0
   23.1602  -21.5164   -6.9472 O   0  0  0  0  0  0  0  0  0  0  0  0
  1  2  1  0
  3  2  1  0
  4  5  1  0
  4  3  1  0
  5  6  1  1
  5  1  1  0
  6  7  2  0
  9  8  1  1
  9 11  1  0
 10  9  1  0
 10  6  1  0
 11 13  1  0
 11 12  2  0
 13 14  1  0
 14 25  1  0
 14 15  1  1
 16 15  1  0
 16 17  2  0
 18 17  1  0
 19 18  1  0
 20 19  2  0
 21 20  1  0
 22 21  2  0
 22 23  1  0
 23 24  2  0
 24 19  1  0
 24 16  1  0
 25 27  2  0
 25 26  1  0
M  END
$$$$
