PAW.pdb
     RDKit          3D

 27 29  0  0  1  0  0  0  0  0999 V2000
   26.7273  -18.3256  -16.3198 N   0  0  0  0  0  0  0  0  0  0  0  0
   27.1371  -17.1839  -15.5468 C   0  0  0  0  0  0  0  0  0  0  0  0
   28.4817  -17.5465  -14.9303 C   0  0  0  0  0  0  0  0  0  0  0  0
   28.7856  -18.9366  -15.4860 C   0  0  0  0  0  0  0  0  0  0  0  0
   27.3875  -19.4664  -15.7167 C   0  0  1  0  0  0  0  0  0  0  0  0
   26.7302  -19.7401  -14.4160 C   0  0  0  0  0  0  0  0  0  0  0  0
   26.2129  -18.8199  -13.7416 O   0  0  0  0  0  0  0  0  0  0  0  0
   25.1255  -22.7655  -12.9790 C   0  0  0  0  0  0  0  0  0  0  0  0
   25.7792  -21.3961  -12.7869 C   0  0  2  0  0  0  0  0  0  0  0  0
   26.6587  -21.0760  -13.8732 N   0  0  0  0  0  0  0  0  0  0  0  0
   26.4622  -21.3221  -11.4671 C   0  0  0  0  0  0  0  0  0  0  0  0
   27.7081  -21.4526  -11.4408 O   0  0  0  0  0  0  0  0  0  0  0  0
   25.7565  -21.1113  -10.2550 N   0  0  0  0  0  0  0  0  0  0  0  0
   26.3271  -21.0230   -8.9443 C   0  0  1  0  0  0  0  0  0  0  0  0
   27.5438  -20.1135   -8.8392 C   0  0  0  0  0  0  0  0  0  0  0  0
   27.6553  -19.5727   -7.4708 C   0  0  0  0  0  0  0  0  0  0  0  0
   27.0335  -18.4976   -6.9041 C   0  0  0  0  0  0  0  0  0  0  0  0
   27.4351  -18.3771   -5.6049 N   0  0  0  0  0  0  0  0  0  0  0  0
   28.3059  -19.3457   -5.2992 C   0  0  0  0  0  0  0  0  0  0  0  0
   28.9901  -19.6548   -4.1279 C   0  0  0  0  0  0  0  0  0  0  0  0
   29.8340  -20.7266   -4.0949 C   0  0  0  0  0  0  0  0  0  0  0  0
   29.9904  -21.4815   -5.2261 C   0  0  0  0  0  0  0  0  0  0  0  0
   29.3130  -21.1748   -6.3845 C   0  0  0  0  0  0  0  0  0  0  0  0
   28.4557  -20.1010   -6.4491 C   0  0  0  0  0  0  0  0  0  0  0  0
   25.3835  -20.7803   -7.8548 C   0  0  0  0  0  0  0  0  0  0  0  0
   24.4689  -19.7222   -7.9818 O   0  0  0  0  0  0  0  0  0  0  0  0
   25.3253  -21.4531   -6.7987 O   0  0  0  0  0  0  0  0  0  0  0  0
  1  2  1  0
  3  2  1  0
  4  5  1  0
  4  3  1  0
  5  6  1  1
  5  1  1  0
  6  7  2  0
  9  8  1  6
  9 11  1  0
 10  9  1  0
 10  6  1  0
 11 13  1  0
 11 12  2  0
 13 14  1  0
 14 25  1  0
 14 15  1  6
 16 15  1  0
 16 17  2  0
 18 17  1  0
 19 18  1  0
 20 19  2  0
 21 20  1  0
 22 21  2  0
 22 23  1  0
 23 24  2  0
 24 19  1  0
 24 16  1  0
 25 27  2  0
 25 26  1  0
M  END
$$$$
