PAW.pdb
     RDKit          3D

 27 29  0  0  1  0  0  0  0  0999 V2000
   27.5046  -18.5809  -16.7320 N   0  0  0  0  0  0  0  0  0  0  0  0
   27.8582  -17.1944  -16.5857 C   0  0  0  0  0  0  0  0  0  0  0  0
   29.2267  -17.1714  -15.9179 C   0  0  0  0  0  0  0  0  0  0  0  0
   29.6015  -18.6460  -15.7814 C   0  0  0  0  0  0  0  0  0  0  0  0
   28.2327  -19.2841  -15.6945 C   0  0  1  0  0  0  0  0  0  0  0  0
   27.6042  -18.9557  -14.3922 C   0  0  0  0  0  0  0  0  0  0  0  0
   27.9028  -17.9101  -13.7704 O   0  0  0  0  0  0  0  0  0  0  0  0
   24.5707  -19.0105  -12.7259 C   0  0  0  0  0  0  0  0  0  0  0  0
   26.0068  -19.5005  -12.5341 C   0  0  2  0  0  0  0  0  0  0  0  0
   26.6235  -19.8256  -13.7871 N   0  0  0  0  0  0  0  0  0  0  0  0
   26.0491  -20.6356  -11.5730 C   0  0  0  0  0  0  0  0  0  0  0  0
   25.9999  -21.7996  -12.0340 O   0  0  0  0  0  0  0  0  0  0  0  0
   26.1423  -20.4434  -10.1709 N   0  0  0  0  0  0  0  0  0  0  0  0
   25.9189  -21.4341   -9.1610 C   0  0  1  0  0  0  0  0  0  0  0  0
   27.0865  -21.6452   -8.2066 C   0  0  0  0  0  0  0  0  0  0  0  0
   27.3195  -20.4232   -7.4131 C   0  0  0  0  0  0  0  0  0  0  0  0
   26.8610  -19.1528   -7.6123 C   0  0  0  0  0  0  0  0  0  0  0  0
   27.3259  -18.3438   -6.6157 N   0  0  0  0  0  0  0  0  0  0  0  0
   28.0793  -19.0478   -5.7633 C   0  0  0  0  0  0  0  0  0  0  0  0
   28.7652  -18.6927   -4.6061 C   0  0  0  0  0  0  0  0  0  0  0  0
   29.4682  -19.6361   -3.9147 C   0  0  0  0  0  0  0  0  0  0  0  0
   29.4832  -20.9235   -4.3795 C   0  0  0  0  0  0  0  0  0  0  0  0
   28.8043  -21.2738   -5.5245 C   0  0  0  0  0  0  0  0  0  0  0  0
   28.0870  -20.3458   -6.2432 C   0  0  0  0  0  0  0  0  0  0  0  0
   24.6516  -21.3329   -8.4398 C   0  0  0  0  0  0  0  0  0  0  0  0
   24.2645  -22.3974   -7.6098 O   0  0  0  0  0  0  0  0  0  0  0  0
   23.8703  -20.3548   -8.5051 O   0  0  0  0  0  0  0  0  0  0  0  0
  1  2  1  0
  3  2  1  0
  4  5  1  0
  4  3  1  0
  5  6  1  1
  5  1  1  0
  6  7  2  0
  9  8  1  6
  9 11  1  0
 10  9  1  0
 10  6  1  0
 11 13  1  0
 11 12  2  0
 13 14  1  0
 14 25  1  0
 14 15  1  1
 16 15  1  0
 16 17  2  0
 18 17  1  0
 19 18  1  0
 20 19  2  0
 21 20  1  0
 22 21  2  0
 22 23  1  0
 23 24  2  0
 24 19  1  0
 24 16  1  0
 25 27  2  0
 25 26  1  0
M  END
$$$$
