EYC.pdb
     RDKit          3D

 28 28  0  0  1  0  0  0  0  0999 V2000
   10.5032  -16.2766   18.5538 N   0  0  0  0  0  0  0  0  0  0  0  0
    9.8889  -17.0293   19.6000 C   0  0  1  0  0  0  0  0  0  0  0  0
   10.5388  -18.3332   19.9036 C   0  0  0  0  0  0  0  0  0  0  0  0
   10.3592  -19.3384   18.7891 C   0  0  0  0  0  0  0  0  0  0  0  0
   11.0519  -20.6025   19.2072 C   0  0  0  0  0  0  0  0  0  0  0  0
   11.1716  -21.6042   18.4719 O   0  0  0  0  0  0  0  0  0  0  0  0
    9.8708  -16.2094   20.8662 C   0  0  0  0  0  0  0  0  0  0  0  0
   10.9646  -15.8256   21.3554 O   0  0  0  0  0  0  0  0  0  0  0  0
   11.5932  -20.6437   20.5050 O   0  0  0  0  0  0  0  0  0  0  0  0
    6.8449  -11.7218   27.9565 O   0  0  0  0  0  0  0  0  0  0  0  0
    6.9640  -12.4015   26.7420 C   0  0  0  0  0  0  0  0  0  0  0  0
    6.4114  -13.6555   26.5839 C   0  0  0  0  0  0  0  0  0  0  0  0
    6.5310  -14.3164   25.3878 C   0  0  0  0  0  0  0  0  0  0  0  0
    7.1882  -13.7790   24.3161 C   0  0  0  0  0  0  0  0  0  0  0  0
    7.3574  -14.4097   23.0098 C   0  0  0  0  0  0  0  0  0  0  0  0
    8.6334  -15.1028   22.7456 C   0  0  2  0  0  0  0  0  0  0  0  0
    8.6753  -15.8621   21.5146 N   0  0  0  0  0  0  0  0  0  0  0  0
    8.7832  -16.1274   23.8562 C   0  0  0  0  0  0  0  0  0  0  0  0
    8.0884  -17.1739   23.8841 O   0  0  0  0  0  0  0  0  0  0  0  0
    7.7468  -12.5135   24.4776 C   0  0  0  0  0  0  0  0  0  0  0  0
    7.6302  -11.8472   25.6715 C   0  0  0  0  0  0  0  0  0  0  0  0
    9.7151  -15.9467   24.9133 N   0  0  0  0  0  0  0  0  0  0  0  0
    9.9973  -16.9938   25.8802 C   0  0  1  0  0  0  0  0  0  0  0  0
   11.4294  -17.4135   25.9192 C   0  0  0  0  0  0  0  0  0  0  0  0
   11.4988  -19.1915   25.5499 S   0  0  0  0  0  0  0  0  0  0  0  0
    9.6520  -16.4444   27.2382 C   0  0  0  0  0  0  0  0  0  0  0  0
    9.4547  -15.1970   27.4048 O   0  0  0  0  0  0  0  0  0  0  0  0
    9.5270  -17.2291   28.3684 O   0  0  0  0  0  0  0  0  0  0  0  0
  2  1  1  6
  2  3  1  0
  2  7  1  0
  3  4  1  0
  5  6  2  0
  5  4  1  0
  7  8  2  0
  9  5  1  0
 11 12  2  0
 11 10  1  0
 13 12  1  0
 14 13  2  0
 15 14  1  0
 16 15  1  1
 17  7  1  0
 17 16  1  0
 18 22  1  0
 18 16  1  0
 19 18  2  0
 20 14  1  0
 20 21  2  0
 21 11  1  0
 23 22  1  0
 23 24  1  1
 24 25  1  0
 26 23  1  0
 26 28  1  0
 27 26  2  0
M  END
$$$$
