EYC.pdb
     RDKit          3D

 28 28  0  0  1  0  0  0  0  0999 V2000
    9.3565  -18.0375   19.9514 N   0  0  0  0  0  0  0  0  0  0  0  0
   10.5420  -17.9534   20.7427 C   0  0  1  0  0  0  0  0  0  0  0  0
   11.7873  -17.6591   19.9828 C   0  0  0  0  0  0  0  0  0  0  0  0
   11.9998  -18.6177   18.8336 C   0  0  0  0  0  0  0  0  0  0  0  0
   12.1971  -17.7963   17.5931 C   0  0  0  0  0  0  0  0  0  0  0  0
   13.2741  -17.2413   17.2921 O   0  0  0  0  0  0  0  0  0  0  0  0
   10.3711  -16.8845   21.7933 C   0  0  0  0  0  0  0  0  0  0  0  0
   11.3980  -16.3743   22.3115 O   0  0  0  0  0  0  0  0  0  0  0  0
   11.0954  -17.6550   16.7297 O   0  0  0  0  0  0  0  0  0  0  0  0
    6.3284  -11.4716   27.6707 O   0  0  0  0  0  0  0  0  0  0  0  0
    6.6533  -12.2843   26.5821 C   0  0  0  0  0  0  0  0  0  0  0  0
    7.5917  -11.8749   25.6576 C   0  0  0  0  0  0  0  0  0  0  0  0
    7.9069  -12.6790   24.5919 C   0  0  0  0  0  0  0  0  0  0  0  0
    7.3214  -13.8989   24.3958 C   0  0  0  0  0  0  0  0  0  0  0  0
    7.6010  -14.8171   23.2952 C   0  0  0  0  0  0  0  0  0  0  0  0
    8.9135  -15.4919   23.2847 C   0  0  2  0  0  0  0  0  0  0  0  0
    9.1061  -16.4419   22.2104 N   0  0  0  0  0  0  0  0  0  0  0  0
    8.9653  -16.3119   24.5616 C   0  0  0  0  0  0  0  0  0  0  0  0
    8.1597  -17.2527   24.7726 O   0  0  0  0  0  0  0  0  0  0  0  0
    6.3732  -14.3103   25.3291 C   0  0  0  0  0  0  0  0  0  0  0  0
    6.0539  -13.5106   26.3975 C   0  0  0  0  0  0  0  0  0  0  0  0
    9.9266  -16.0501   25.5745 N   0  0  0  0  0  0  0  0  0  0  0  0
   10.0550  -16.8915   26.7520 C   0  0  1  0  0  0  0  0  0  0  0  0
   11.3808  -17.5670   26.8732 C   0  0  0  0  0  0  0  0  0  0  0  0
   11.6445  -18.5500   25.3677 S   0  0  0  0  0  0  0  0  0  0  0  0
    9.8938  -15.9977   27.9521 C   0  0  0  0  0  0  0  0  0  0  0  0
    9.7473  -14.7401   27.8122 O   0  0  0  0  0  0  0  0  0  0  0  0
    9.8921  -16.4620   29.2533 O   0  0  0  0  0  0  0  0  0  0  0  0
  2  1  1  6
  2  3  1  0
  2  7  1  0
  3  4  1  0
  5  6  2  0
  5  4  1  0
  7  8  2  0
  9  5  1  0
 11 12  2  0
 11 10  1  0
 13 12  1  0
 14 13  2  0
 15 14  1  0
 16 15  1  6
 17  7  1  0
 17 16  1  0
 18 22  1  0
 18 16  1  0
 19 18  2  0
 20 14  1  0
 20 21  2  0
 21 11  1  0
 23 22  1  0
 23 24  1  1
 24 25  1  0
 26 23  1  0
 26 28  1  0
 27 26  2  0
M  END
$$$$
