EYC.pdb
     RDKit          3D

 28 28  0  0  1  0  0  0  0  0999 V2000
    9.5696  -18.0392   19.5189 N   0  0  0  0  0  0  0  0  0  0  0  0
   10.7211  -18.1919   20.3492 C   0  0  1  0  0  0  0  0  0  0  0  0
   12.0247  -17.9737   19.6652 C   0  0  0  0  0  0  0  0  0  0  0  0
   12.1045  -18.6915   18.3375 C   0  0  0  0  0  0  0  0  0  0  0  0
   13.5581  -18.8786   18.0137 C   0  0  0  0  0  0  0  0  0  0  0  0
   14.4860  -18.6016   18.8017 O   0  0  0  0  0  0  0  0  0  0  0  0
   10.6353  -17.2324   21.5101 C   0  0  0  0  0  0  0  0  0  0  0  0
   11.5540  -16.3870   21.6668 O   0  0  0  0  0  0  0  0  0  0  0  0
   13.8759  -19.3986   16.7458 O   0  0  0  0  0  0  0  0  0  0  0  0
    7.1003  -12.5493   18.7302 O   0  0  0  0  0  0  0  0  0  0  0  0
    7.3832  -13.2615   19.8981 C   0  0  0  0  0  0  0  0  0  0  0  0
    8.2943  -12.7745   20.8123 C   0  0  0  0  0  0  0  0  0  0  0  0
    8.5659  -13.4786   21.9578 C   0  0  0  0  0  0  0  0  0  0  0  0
    7.9618  -14.6708   22.2458 C   0  0  0  0  0  0  0  0  0  0  0  0
    8.1884  -15.4803   23.4400 C   0  0  0  0  0  0  0  0  0  0  0  0
    9.4195  -16.2927   23.4917 C   0  0  2  0  0  0  0  0  0  0  0  0
    9.5661  -17.2528   22.4192 N   0  0  0  0  0  0  0  0  0  0  0  0
    9.3145  -17.1194   24.7609 C   0  0  0  0  0  0  0  0  0  0  0  0
    8.3564  -17.9089   24.9546 O   0  0  0  0  0  0  0  0  0  0  0  0
    7.0433  -15.1619   21.3214 C   0  0  0  0  0  0  0  0  0  0  0  0
    6.7671  -14.4621   20.1739 C   0  0  0  0  0  0  0  0  0  0  0  0
   10.2948  -17.0354   25.7859 N   0  0  0  0  0  0  0  0  0  0  0  0
   10.3006  -17.9389   26.9236 C   0  0  1  0  0  0  0  0  0  0  0  0
   11.5205  -18.7949   27.0122 C   0  0  0  0  0  0  0  0  0  0  0  0
   11.9355  -19.3485   25.3319 S   0  0  0  0  0  0  0  0  0  0  0  0
   10.2575  -17.0868   28.1634 C   0  0  0  0  0  0  0  0  0  0  0  0
   10.2737  -15.8157   28.0806 O   0  0  0  0  0  0  0  0  0  0  0  0
   10.1982  -17.6051   29.4427 O   0  0  0  0  0  0  0  0  0  0  0  0
  2  1  1  6
  2  3  1  0
  2  7  1  0
  3  4  1  0
  5  6  2  0
  5  4  1  0
  7  8  2  0
  9  5  1  0
 11 12  2  0
 11 10  1  0
 13 12  1  0
 14 13  2  0
 15 14  1  0
 16 15  1  6
 17  7  1  0
 17 16  1  0
 18 22  1  0
 18 16  1  0
 19 18  2  0
 20 14  1  0
 20 21  2  0
 21 11  1  0
 23 22  1  0
 23 24  1  1
 24 25  1  0
 26 23  1  0
 26 28  1  0
 27 26  2  0
M  END
$$$$
