EYC.pdb
     RDKit          3D

 28 28  0  0  1  0  0  0  0  0999 V2000
   10.7906  -18.8098   22.7874 N   0  0  0  0  0  0  0  0  0  0  0  0
   10.6210  -17.4002   22.6364 C   0  0  1  0  0  0  0  0  0  0  0  0
    9.9584  -16.9769   21.3728 C   0  0  0  0  0  0  0  0  0  0  0  0
    8.7179  -17.7873   21.0747 C   0  0  0  0  0  0  0  0  0  0  0  0
    8.2027  -17.3456   19.7360 C   0  0  0  0  0  0  0  0  0  0  0  0
    8.7101  -17.6905   18.6488 O   0  0  0  0  0  0  0  0  0  0  0  0
    9.8122  -16.8640   23.7913 C   0  0  0  0  0  0  0  0  0  0  0  0
    9.0559  -17.6502   24.4183 O   0  0  0  0  0  0  0  0  0  0  0  0
    7.0819  -16.4956   19.7235 O   0  0  0  0  0  0  0  0  0  0  0  0
   12.0324  -17.7161   30.6463 O   0  0  0  0  0  0  0  0  0  0  0  0
   11.6053  -16.9198   29.5810 C   0  0  0  0  0  0  0  0  0  0  0  0
   12.0446  -17.1719   28.2979 C   0  0  0  0  0  0  0  0  0  0  0  0
   11.6198  -16.3867   27.2564 C   0  0  0  0  0  0  0  0  0  0  0  0
   10.7592  -15.3389   27.4322 C   0  0  0  0  0  0  0  0  0  0  0  0
   10.2545  -14.4586   26.3819 C   0  0  0  0  0  0  0  0  0  0  0  0
    9.2930  -15.0268   25.4172 C   0  0  2  0  0  0  0  0  0  0  0  0
    9.8760  -15.5190   24.1878 N   0  0  0  0  0  0  0  0  0  0  0  0
    8.3944  -13.8747   25.0039 C   0  0  0  0  0  0  0  0  0  0  0  0
    8.6513  -13.1684   23.9971 O   0  0  0  0  0  0  0  0  0  0  0  0
   10.3176  -15.0848   28.7282 C   0  0  0  0  0  0  0  0  0  0  0  0
   10.7387  -15.8668   29.7742 C   0  0  0  0  0  0  0  0  0  0  0  0
    7.2243  -13.5442   25.7388 N   0  0  0  0  0  0  0  0  0  0  0  0
    6.4868  -12.3149   25.5029 C   0  0  1  0  0  0  0  0  0  0  0  0
    5.2846  -12.1522   26.3728 C   0  0  0  0  0  0  0  0  0  0  0  0
    4.5450  -13.7946   26.6134 S   0  0  0  0  0  0  0  0  0  0  0  0
    7.4209  -11.1750   25.8081 C   0  0  0  0  0  0  0  0  0  0  0  0
    7.0612   -9.9685   25.6135 O   0  0  0  0  0  0  0  0  0  0  0  0
    8.6974  -11.3486   26.3072 O   0  0  0  0  0  0  0  0  0  0  0  0
  2  1  1  1
  2  3  1  0
  2  7  1  0
  3  4  1  0
  5  6  2  0
  5  4  1  0
  7  8  2  0
  9  5  1  0
 11 12  2  0
 11 10  1  0
 13 12  1  0
 14 13  2  0
 15 14  1  0
 16 15  1  1
 17  7  1  0
 17 16  1  0
 18 22  1  0
 18 16  1  0
 19 18  2  0
 20 14  1  0
 20 21  2  0
 21 11  1  0
 23 22  1  0
 23 24  1  1
 24 25  1  0
 26 23  1  0
 26 28  1  0
 27 26  2  0
M  END
$$$$
