EYC.pdb
     RDKit          3D

 28 28  0  0  1  0  0  0  0  0999 V2000
   11.5564  -17.1383   19.7751 N   0  0  0  0  0  0  0  0  0  0  0  0
   12.0516  -17.4271   21.0827 C   0  0  1  0  0  0  0  0  0  0  0  0
   13.5338  -17.5030   21.1927 C   0  0  0  0  0  0  0  0  0  0  0  0
   14.1100  -18.6600   20.4093 C   0  0  0  0  0  0  0  0  0  0  0  0
   15.5818  -18.7112   20.6991 C   0  0  0  0  0  0  0  0  0  0  0  0
   16.3940  -19.3997   20.0473 O   0  0  0  0  0  0  0  0  0  0  0  0
   11.5637  -16.3766   22.0491 C   0  0  0  0  0  0  0  0  0  0  0  0
   11.9278  -15.1837   21.8823 O   0  0  0  0  0  0  0  0  0  0  0  0
   16.0571  -17.9313   21.7690 O   0  0  0  0  0  0  0  0  0  0  0  0
    6.7754  -13.3849   18.9706 O   0  0  0  0  0  0  0  0  0  0  0  0
    7.2287  -13.9347   20.1721 C   0  0  0  0  0  0  0  0  0  0  0  0
    6.9174  -15.2357   20.5086 C   0  0  0  0  0  0  0  0  0  0  0  0
    7.3674  -15.7694   21.6895 C   0  0  0  0  0  0  0  0  0  0  0  0
    8.1299  -15.0565   22.5725 C   0  0  0  0  0  0  0  0  0  0  0  0
    8.6528  -15.5473   23.8447 C   0  0  0  0  0  0  0  0  0  0  0  0
   10.1167  -15.6818   23.9757 C   0  0  2  0  0  0  0  0  0  0  0  0
   10.7187  -16.6865   23.1262 N   0  0  0  0  0  0  0  0  0  0  0  0
   10.3612  -16.1568   25.3970 C   0  0  0  0  0  0  0  0  0  0  0  0
   10.7195  -17.3354   25.6444 O   0  0  0  0  0  0  0  0  0  0  0  0
    8.4422  -13.7428   22.2320 C   0  0  0  0  0  0  0  0  0  0  0  0
    7.9953  -13.2033   21.0521 C   0  0  0  0  0  0  0  0  0  0  0  0
   10.1943  -15.2892   26.5096 N   0  0  0  0  0  0  0  0  0  0  0  0
   10.5585  -15.6864   27.8589 C   0  0  1  0  0  0  0  0  0  0  0  0
   10.1908  -14.6873   28.9054 C   0  0  0  0  0  0  0  0  0  0  0  0
   10.7798  -13.0594   28.3526 S   0  0  0  0  0  0  0  0  0  0  0  0
    9.8071  -16.9544   28.1632 C   0  0  0  0  0  0  0  0  0  0  0  0
    8.8309  -17.3238   27.4329 O   0  0  0  0  0  0  0  0  0  0  0  0
   10.1125  -17.7853   29.2238 O   0  0  0  0  0  0  0  0  0  0  0  0
  2  1  1  6
  2  3  1  0
  2  7  1  0
  3  4  1  0
  5  6  2  0
  5  4  1  0
  7  8  2  0
  9  5  1  0
 11 12  2  0
 11 10  1  0
 13 12  1  0
 14 13  2  0
 15 14  1  0
 16 15  1  6
 17  7  1  0
 17 16  1  0
 18 22  1  0
 18 16  1  0
 19 18  2  0
 20 14  1  0
 20 21  2  0
 21 11  1  0
 23 22  1  0
 23 24  1  1
 24 25  1  0
 26 23  1  0
 26 28  1  0
 27 26  2  0
M  END
$$$$
