EYC.pdb
     RDKit          3D

 28 28  0  0  1  0  0  0  0  0999 V2000
    8.4264  -20.8870   26.4025 N   0  0  0  0  0  0  0  0  0  0  0  0
    9.3225  -19.8707   25.9524 C   0  0  1  0  0  0  0  0  0  0  0  0
   10.2843  -20.2993   24.9008 C   0  0  0  0  0  0  0  0  0  0  0  0
    9.6120  -20.5332   23.5675 C   0  0  0  0  0  0  0  0  0  0  0  0
   10.6645  -21.0115   22.6104 C   0  0  0  0  0  0  0  0  0  0  0  0
   10.8048  -22.2052   22.2728 O   0  0  0  0  0  0  0  0  0  0  0  0
    8.5314  -18.7038   25.4156 C   0  0  0  0  0  0  0  0  0  0  0  0
    7.3160  -18.8724   25.1370 O   0  0  0  0  0  0  0  0  0  0  0  0
   11.5337  -20.0461   22.0707 O   0  0  0  0  0  0  0  0  0  0  0  0
   10.8321  -15.1888   30.7854 O   0  0  0  0  0  0  0  0  0  0  0  0
   10.3060  -15.1646   29.4916 C   0  0  0  0  0  0  0  0  0  0  0  0
    9.4209  -16.1380   29.0769 C   0  0  0  0  0  0  0  0  0  0  0  0
    8.9071  -16.1069   27.8054 C   0  0  0  0  0  0  0  0  0  0  0  0
    9.2376  -15.1326   26.9050 C   0  0  0  0  0  0  0  0  0  0  0  0
    8.7351  -15.0221   25.5383 C   0  0  0  0  0  0  0  0  0  0  0  0
    8.3390  -16.2678   24.8529 C   0  0  2  0  0  0  0  0  0  0  0  0
    9.1066  -17.4389   25.2172 N   0  0  0  0  0  0  0  0  0  0  0  0
    8.6293  -16.0379   23.3804 C   0  0  0  0  0  0  0  0  0  0  0  0
    9.6394  -16.5360   22.8232 O   0  0  0  0  0  0  0  0  0  0  0  0
   10.1323  -14.1513   27.3246 C   0  0  0  0  0  0  0  0  0  0  0  0
   10.6494  -14.1767   28.5953 C   0  0  0  0  0  0  0  0  0  0  0  0
    7.7719  -15.2482   22.5682 N   0  0  0  0  0  0  0  0  0  0  0  0
    7.7987  -15.3232   21.1175 C   0  0  1  0  0  0  0  0  0  0  0  0
    6.7475  -14.5014   20.4481 C   0  0  0  0  0  0  0  0  0  0  0  0
    5.1273  -15.1592   20.9428 S   0  0  0  0  0  0  0  0  0  0  0  0
    9.1354  -14.7929   20.6734 C   0  0  0  0  0  0  0  0  0  0  0  0
    9.9702  -14.3390   21.5218 O   0  0  0  0  0  0  0  0  0  0  0  0
    9.5424  -14.7615   19.3535 O   0  0  0  0  0  0  0  0  0  0  0  0
  2  1  1  6
  2  3  1  0
  2  7  1  0
  3  4  1  0
  5  6  2  0
  5  4  1  0
  7  8  2  0
  9  5  1  0
 11 12  2  0
 11 10  1  0
 13 12  1  0
 14 13  2  0
 15 14  1  0
 16 15  1  1
 17  7  1  0
 17 16  1  0
 18 22  1  0
 18 16  1  0
 19 18  2  0
 20 14  1  0
 20 21  2  0
 21 11  1  0
 23 22  1  0
 23 24  1  6
 24 25  1  0
 26 23  1  0
 26 28  1  0
 27 26  2  0
M  END
$$$$
