EYC.pdb
     RDKit          3D

 28 28  0  0  1  0  0  0  0  0999 V2000
   10.3317  -17.4728   18.8204 N   0  0  0  0  0  0  0  0  0  0  0  0
    9.5122  -17.9292   19.8968 C   0  0  1  0  0  0  0  0  0  0  0  0
    9.8479  -19.2837   20.4139 C   0  0  0  0  0  0  0  0  0  0  0  0
   10.3552  -20.2044   19.3277 C   0  0  0  0  0  0  0  0  0  0  0  0
   10.5944  -21.5481   19.9521 C   0  0  0  0  0  0  0  0  0  0  0  0
    9.7652  -22.1331   20.6792 O   0  0  0  0  0  0  0  0  0  0  0  0
    9.6006  -16.9548   21.0450 C   0  0  0  0  0  0  0  0  0  0  0  0
   10.7188  -16.4527   21.3291 O   0  0  0  0  0  0  0  0  0  0  0  0
   11.8285  -22.1711   19.6915 O   0  0  0  0  0  0  0  0  0  0  0  0
    7.0117  -11.6179   27.7490 O   0  0  0  0  0  0  0  0  0  0  0  0
    7.0775  -12.4354   26.6183 C   0  0  0  0  0  0  0  0  0  0  0  0
    7.7276  -12.0057   25.4801 C   0  0  0  0  0  0  0  0  0  0  0  0
    7.7897  -12.8147   24.3739 C   0  0  0  0  0  0  0  0  0  0  0  0
    7.2240  -14.0590   24.3434 C   0  0  0  0  0  0  0  0  0  0  0  0
    7.2474  -14.9839   23.2134 C   0  0  0  0  0  0  0  0  0  0  0  0
    8.5313  -15.6362   22.8905 C   0  0  2  0  0  0  0  0  0  0  0  0
    8.4779  -16.5914   21.8050 N   0  0  0  0  0  0  0  0  0  0  0  0
    8.9033  -16.4448   24.1207 C   0  0  0  0  0  0  0  0  0  0  0  0
    8.3428  -17.5381   24.3838 O   0  0  0  0  0  0  0  0  0  0  0  0
    6.5669  -14.4909   25.4927 C   0  0  0  0  0  0  0  0  0  0  0  0
    6.5017  -13.6866   26.6025 C   0  0  0  0  0  0  0  0  0  0  0  0
    9.9011  -15.9996   25.0289 N   0  0  0  0  0  0  0  0  0  0  0  0
   10.3789  -16.8328   26.1191 C   0  0  1  0  0  0  0  0  0  0  0  0
   11.8568  -16.7774   26.3220 C   0  0  0  0  0  0  0  0  0  0  0  0
   12.2621  -17.8233   27.7518 S   0  0  0  0  0  0  0  0  0  0  0  0
    9.7320  -16.3237   27.3791 C   0  0  0  0  0  0  0  0  0  0  0  0
    9.3683  -15.1069   27.4783 O   0  0  0  0  0  0  0  0  0  0  0  0
    9.4920  -17.1151   28.4858 O   0  0  0  0  0  0  0  0  0  0  0  0
  2  1  1  6
  2  3  1  0
  2  7  1  0
  3  4  1  0
  5  6  2  0
  5  4  1  0
  7  8  2  0
  9  5  1  0
 11 12  2  0
 11 10  1  0
 13 12  1  0
 14 13  2  0
 15 14  1  0
 16 15  1  1
 17  7  1  0
 17 16  1  0
 18 22  1  0
 18 16  1  0
 19 18  2  0
 20 14  1  0
 20 21  2  0
 21 11  1  0
 23 22  1  0
 23 24  1  1
 24 25  1  0
 26 23  1  0
 26 28  1  0
 27 26  2  0
M  END
$$$$
