EYC.pdb
     RDKit          3D

 28 28  0  0  1  0  0  0  0  0999 V2000
   10.4493  -16.9855   18.9300 N   0  0  0  0  0  0  0  0  0  0  0  0
    9.2608  -17.1885   19.6948 C   0  0  1  0  0  0  0  0  0  0  0  0
    8.9497  -18.6091   20.0108 C   0  0  0  0  0  0  0  0  0  0  0  0
    8.2216  -19.3030   18.8826 C   0  0  0  0  0  0  0  0  0  0  0  0
    8.8944  -20.6259   18.6590 C   0  0  0  0  0  0  0  0  0  0  0  0
    8.5141  -21.4643   17.8157 O   0  0  0  0  0  0  0  0  0  0  0  0
    9.3637  -16.4314   20.9955 C   0  0  0  0  0  0  0  0  0  0  0  0
   10.4909  -16.3176   21.5430 O   0  0  0  0  0  0  0  0  0  0  0  0
   10.0176  -20.9217   19.4526 O   0  0  0  0  0  0  0  0  0  0  0  0
    6.9131  -11.6151   28.1334 O   0  0  0  0  0  0  0  0  0  0  0  0
    6.9684  -12.2718   26.9017 C   0  0  0  0  0  0  0  0  0  0  0  0
    7.7498  -11.7768   25.8784 C   0  0  0  0  0  0  0  0  0  0  0  0
    7.8004  -12.4278   24.6720 C   0  0  0  0  0  0  0  0  0  0  0  0
    7.0959  -13.5738   24.4276 C   0  0  0  0  0  0  0  0  0  0  0  0
    7.0964  -14.3306   23.1786 C   0  0  0  0  0  0  0  0  0  0  0  0
    8.3279  -15.0622   22.8232 C   0  0  2  0  0  0  0  0  0  0  0  0
    8.2448  -15.8514   21.6133 N   0  0  0  0  0  0  0  0  0  0  0  0
    8.5497  -16.0636   23.9428 C   0  0  0  0  0  0  0  0  0  0  0  0
    7.8059  -17.0660   24.0861 O   0  0  0  0  0  0  0  0  0  0  0  0
    6.3064  -14.0716   25.4612 C   0  0  0  0  0  0  0  0  0  0  0  0
    6.2519  -13.4251   26.6703 C   0  0  0  0  0  0  0  0  0  0  0  0
    9.6078  -15.9099   24.8785 N   0  0  0  0  0  0  0  0  0  0  0  0
    9.8568  -16.8832   25.9281 C   0  0  1  0  0  0  0  0  0  0  0  0
   11.1214  -17.6564   25.7509 C   0  0  0  0  0  0  0  0  0  0  0  0
   10.8018  -19.3711   26.2605 S   0  0  0  0  0  0  0  0  0  0  0  0
    9.9736  -16.1188   27.2193 C   0  0  0  0  0  0  0  0  0  0  0  0
   10.1364  -16.7298   28.3251 O   0  0  0  0  0  0  0  0  0  0  0  0
    9.9154  -14.7406   27.2969 O   0  0  0  0  0  0  0  0  0  0  0  0
  2  1  1  1
  2  3  1  0
  2  7  1  0
  3  4  1  0
  5  6  2  0
  5  4  1  0
  7  8  2  0
  9  5  1  0
 11 12  2  0
 11 10  1  0
 13 12  1  0
 14 13  2  0
 15 14  1  0
 16 15  1  1
 17  7  1  0
 17 16  1  0
 18 22  1  0
 18 16  1  0
 19 18  2  0
 20 14  1  0
 20 21  2  0
 21 11  1  0
 23 22  1  0
 23 24  1  6
 24 25  1  0
 26 23  1  0
 26 28  1  0
 27 26  2  0
M  END
$$$$
