EYC.pdb
     RDKit          3D

 28 28  0  0  1  0  0  0  0  0999 V2000
    8.4831  -19.6071   21.3061 N   0  0  0  0  0  0  0  0  0  0  0  0
    7.8397  -19.0776   22.4655 C   0  0  1  0  0  0  0  0  0  0  0  0
    7.7465  -20.0149   23.6178 C   0  0  0  0  0  0  0  0  0  0  0  0
    9.0593  -20.7075   23.9032 C   0  0  0  0  0  0  0  0  0  0  0  0
    8.9891  -21.2460   25.3024 C   0  0  0  0  0  0  0  0  0  0  0  0
    8.8780  -22.4594   25.5743 O   0  0  0  0  0  0  0  0  0  0  0  0
    8.5704  -17.8409   22.9261 C   0  0  0  0  0  0  0  0  0  0  0  0
    9.8257  -17.8124   22.8432 O   0  0  0  0  0  0  0  0  0  0  0  0
    9.0553  -20.3167   26.3564 O   0  0  0  0  0  0  0  0  0  0  0  0
    7.9216  -13.1114   17.7460 O   0  0  0  0  0  0  0  0  0  0  0  0
    7.9284  -13.3952   19.1137 C   0  0  0  0  0  0  0  0  0  0  0  0
    9.1028  -13.3387   19.8350 C   0  0  0  0  0  0  0  0  0  0  0  0
    9.1016  -13.6172   21.1783 C   0  0  0  0  0  0  0  0  0  0  0  0
    7.9634  -13.9568   21.8553 C   0  0  0  0  0  0  0  0  0  0  0  0
    7.8725  -14.2629   23.2803 C   0  0  0  0  0  0  0  0  0  0  0  0
    8.5580  -15.4773   23.7636 C   0  0  2  0  0  0  0  0  0  0  0  0
    7.8964  -16.7236   23.4433 N   0  0  0  0  0  0  0  0  0  0  0  0
    8.5357  -15.3874   25.2792 C   0  0  0  0  0  0  0  0  0  0  0  0
    7.4716  -15.5327   25.9314 O   0  0  0  0  0  0  0  0  0  0  0  0
    6.7787  -14.0149   21.1254 C   0  0  0  0  0  0  0  0  0  0  0  0
    6.7734  -13.7370   19.7817 C   0  0  0  0  0  0  0  0  0  0  0  0
    9.7173  -15.1336   26.0262 N   0  0  0  0  0  0  0  0  0  0  0  0
    9.6903  -14.9180   27.4627 C   0  0  1  0  0  0  0  0  0  0  0  0
   11.0052  -15.1392   28.1341 C   0  0  0  0  0  0  0  0  0  0  0  0
   11.5172  -16.8516   27.8055 S   0  0  0  0  0  0  0  0  0  0  0  0
    9.3074  -13.4797   27.6855 C   0  0  0  0  0  0  0  0  0  0  0  0
    9.2670  -12.6586   26.7124 O   0  0  0  0  0  0  0  0  0  0  0  0
    8.9808  -12.9610   28.9237 O   0  0  0  0  0  0  0  0  0  0  0  0
  2  1  1  6
  2  3  1  0
  2  7  1  0
  3  4  1  0
  5  6  2  0
  5  4  1  0
  7  8  2  0
  9  5  1  0
 11 12  2  0
 11 10  1  0
 13 12  1  0
 14 13  2  0
 15 14  1  0
 16 15  1  6
 17  7  1  0
 17 16  1  0
 18 22  1  0
 18 16  1  0
 19 18  2  0
 20 14  1  0
 20 21  2  0
 21 11  1  0
 23 22  1  0
 23 24  1  6
 24 25  1  0
 26 23  1  0
 26 28  1  0
 27 26  2  0
M  END
$$$$
