EYC.pdb
     RDKit          3D

 28 28  0  0  1  0  0  0  0  0999 V2000
   10.2653  -18.8494   21.1817 N   0  0  0  0  0  0  0  0  0  0  0  0
   11.3764  -17.9822   21.4096 C   0  0  1  0  0  0  0  0  0  0  0  0
   11.9850  -17.4018   20.1818 C   0  0  0  0  0  0  0  0  0  0  0  0
   12.1650  -18.4295   19.0882 C   0  0  0  0  0  0  0  0  0  0  0  0
   13.3373  -17.9999   18.2553 C   0  0  0  0  0  0  0  0  0  0  0  0
   13.3684  -16.9411   17.5945 O   0  0  0  0  0  0  0  0  0  0  0  0
   10.9516  -16.8443   22.3042 C   0  0  0  0  0  0  0  0  0  0  0  0
   11.7758  -15.9255   22.5489 O   0  0  0  0  0  0  0  0  0  0  0  0
   14.4580  -18.8498   18.2300 O   0  0  0  0  0  0  0  0  0  0  0  0
    5.9114  -11.6080   27.5035 O   0  0  0  0  0  0  0  0  0  0  0  0
    6.3921  -12.5359   26.5766 C   0  0  0  0  0  0  0  0  0  0  0  0
    7.1727  -12.1263   25.5156 C   0  0  0  0  0  0  0  0  0  0  0  0
    7.6424  -13.0435   24.6101 C   0  0  0  0  0  0  0  0  0  0  0  0
    7.3680  -14.3791   24.7104 C   0  0  0  0  0  0  0  0  0  0  0  0
    7.8302  -15.4203   23.7965 C   0  0  0  0  0  0  0  0  0  0  0  0
    9.2689  -15.7493   23.8067 C   0  0  2  0  0  0  0  0  0  0  0  0
    9.6694  -16.7780   22.8713 N   0  0  0  0  0  0  0  0  0  0  0  0
    9.5500  -16.3250   25.1833 C   0  0  0  0  0  0  0  0  0  0  0  0
    9.5572  -17.5644   25.3893 O   0  0  0  0  0  0  0  0  0  0  0  0
    6.5787  -14.7910   25.7812 C   0  0  0  0  0  0  0  0  0  0  0  0
    6.1061  -13.8785   26.6905 C   0  0  0  0  0  0  0  0  0  0  0  0
    9.8161  -15.4869   26.2993 N   0  0  0  0  0  0  0  0  0  0  0  0
   10.3785  -16.0035   27.5353 C   0  0  1  0  0  0  0  0  0  0  0  0
   10.3626  -15.0266   28.6639 C   0  0  0  0  0  0  0  0  0  0  0  0
   10.9021  -13.4171   28.0150 S   0  0  0  0  0  0  0  0  0  0  0  0
    9.5342  -17.1797   27.9460 C   0  0  0  0  0  0  0  0  0  0  0  0
    8.4418  -17.4388   27.3438 O   0  0  0  0  0  0  0  0  0  0  0  0
    9.8722  -18.0385   28.9740 O   0  0  0  0  0  0  0  0  0  0  0  0
  2  1  1  6
  2  3  1  0
  2  7  1  0
  3  4  1  0
  5  6  2  0
  5  4  1  0
  7  8  2  0
  9  5  1  0
 11 12  2  0
 11 10  1  0
 13 12  1  0
 14 13  2  0
 15 14  1  0
 16 15  1  1
 17  7  1  0
 17 16  1  0
 18 22  1  0
 18 16  1  0
 19 18  2  0
 20 14  1  0
 20 21  2  0
 21 11  1  0
 23 22  1  0
 23 24  1  1
 24 25  1  0
 26 23  1  0
 26 28  1  0
 27 26  2  0
M  END
$$$$
