EYC.pdb
     RDKit          3D

 28 28  0  0  1  0  0  0  0  0999 V2000
    9.7828  -17.4127   18.5255 N   0  0  0  0  0  0  0  0  0  0  0  0
   10.0986  -18.2402   19.6454 C   0  0  1  0  0  0  0  0  0  0  0  0
   11.2968  -19.1056   19.4714 C   0  0  0  0  0  0  0  0  0  0  0  0
   11.1561  -20.0545   18.3034 C   0  0  0  0  0  0  0  0  0  0  0  0
   12.2055  -21.1164   18.4573 C   0  0  0  0  0  0  0  0  0  0  0  0
   13.3909  -20.9791   18.0905 O   0  0  0  0  0  0  0  0  0  0  0  0
   10.3174  -17.3772   20.8632 C   0  0  0  0  0  0  0  0  0  0  0  0
   11.3926  -16.7313   20.9631 O   0  0  0  0  0  0  0  0  0  0  0  0
   11.8145  -22.3297   19.0524 O   0  0  0  0  0  0  0  0  0  0  0  0
    7.6805  -11.9220   18.6753 O   0  0  0  0  0  0  0  0  0  0  0  0
    7.8402  -12.7772   19.7682 C   0  0  0  0  0  0  0  0  0  0  0  0
    6.8642  -13.6991   20.0848 C   0  0  0  0  0  0  0  0  0  0  0  0
    7.0286  -14.5368   21.1586 C   0  0  0  0  0  0  0  0  0  0  0  0
    8.1420  -14.5021   21.9514 C   0  0  0  0  0  0  0  0  0  0  0  0
    8.3989  -15.3578   23.1066 C   0  0  0  0  0  0  0  0  0  0  0  0
    9.4859  -16.3498   22.9941 C   0  0  2  0  0  0  0  0  0  0  0  0
    9.3621  -17.2721   21.8861 N   0  0  0  0  0  0  0  0  0  0  0  0
    9.3923  -17.2068   24.2440 C   0  0  0  0  0  0  0  0  0  0  0  0
    8.4454  -18.0139   24.4191 O   0  0  0  0  0  0  0  0  0  0  0  0
    9.1259  -13.5698   21.6314 C   0  0  0  0  0  0  0  0  0  0  0  0
    8.9674  -12.7294   20.5583 C   0  0  0  0  0  0  0  0  0  0  0  0
   10.3712  -17.1325   25.2711 N   0  0  0  0  0  0  0  0  0  0  0  0
   10.3696  -18.0405   26.4054 C   0  0  1  0  0  0  0  0  0  0  0  0
   11.4083  -19.1098   26.3278 C   0  0  0  0  0  0  0  0  0  0  0  0
   12.9921  -18.3191   25.9170 S   0  0  0  0  0  0  0  0  0  0  0  0
   10.6624  -17.2163   27.6301 C   0  0  0  0  0  0  0  0  0  0  0  0
   10.9667  -15.9835   27.5277 O   0  0  0  0  0  0  0  0  0  0  0  0
   10.6231  -17.7210   28.9156 O   0  0  0  0  0  0  0  0  0  0  0  0
  2  1  1  6
  2  3  1  0
  2  7  1  0
  3  4  1  0
  5  6  2  0
  5  4  1  0
  7  8  2  0
  9  5  1  0
 11 12  2  0
 11 10  1  0
 13 12  1  0
 14 13  2  0
 15 14  1  0
 16 15  1  1
 17  7  1  0
 17 16  1  0
 18 22  1  0
 18 16  1  0
 19 18  2  0
 20 14  1  0
 20 21  2  0
 21 11  1  0
 23 22  1  0
 23 24  1  6
 24 25  1  0
 26 23  1  0
 26 28  1  0
 27 26  2  0
M  END
$$$$
