PIT.pdb
     RDKit          3D

 23 23  0  0  1  0  0  0  0  0999 V2000
    7.7216  -14.7886   19.9119 N   0  0  0  0  0  0  0  0  0  0  0  0
    7.6971  -16.0014   19.1169 C   0  0  0  0  0  0  0  0  0  0  0  0
    6.3925  -16.6816   19.5467 C   0  0  0  0  0  0  0  0  0  0  0  0
    6.4253  -16.4299   21.0416 C   0  0  0  0  0  0  0  0  0  0  0  0
    7.0146  -15.0545   21.1253 C   0  0  1  0  0  0  0  0  0  0  0  0
    7.9155  -14.9135   22.3337 C   0  0  0  0  0  0  0  0  0  0  0  0
    9.1168  -15.1203   22.1176 O   0  0  0  0  0  0  0  0  0  0  0  0
    5.8081  -11.6715   26.3336 C   0  0  0  0  0  0  0  0  0  0  0  0
    6.7515  -12.2416   25.2979 C   0  0  0  0  0  0  0  0  0  0  0  0
    7.1839  -13.6044   25.8037 C   0  0  2  0  0  0  0  0  0  0  0  0
    8.0219  -13.2975   27.0509 C   0  0  0  0  0  0  0  0  0  0  0  0
    8.0828  -14.3019   24.7953 C   0  0  2  0  0  0  0  0  0  0  0  0
    7.3512  -14.5724   23.5643 N   0  0  0  0  0  0  0  0  0  0  0  0
    8.5759  -15.5530   25.3859 C   0  0  0  0  0  0  0  0  0  0  0  0
    7.6992  -16.3407   25.9332 O   0  0  0  0  0  0  0  0  0  0  0  0
   11.8336  -19.2708   25.9303 C   0  0  0  0  0  0  0  0  0  0  0  0
   11.4618  -17.9190   25.3792 C   0  0  1  0  0  0  0  0  0  0  0  0
   11.3731  -17.9634   23.9828 O   0  0  0  0  0  0  0  0  0  0  0  0
   10.1524  -17.4112   25.9334 C   0  0  2  0  0  0  0  0  0  0  0  0
    9.8897  -16.0391   25.4432 N   0  0  0  0  0  0  0  0  0  0  0  0
   10.2894  -17.3738   27.4129 C   0  0  0  0  0  0  0  0  0  0  0  0
   10.6958  -16.2261   28.0605 O   0  0  0  0  0  0  0  0  0  0  0  0
   10.0383  -18.3914   28.1255 O   0  0  0  0  0  0  0  0  0  0  0  0
  1  5  1  0
  2  3  1  0
  2  1  1  0
  3  4  1  0
  5  4  1  0
  5  6  1  1
  6 13  1  0
  6  7  2  0
  8  9  1  0
  9 10  1  0
 10 12  1  0
 10 11  1  1
 12 14  1  0
 12 13  1  6
 14 15  2  0
 17 16  1  1
 17 18  1  0
 17 19  1  0
 19 21  1  0
 20 14  1  0
 19 20  1  6
 21 22  1  0
 23 21  2  0
M  END
$$$$
