PIT.pdb
     RDKit          3D

 23 23  0  0  1  0  0  0  0  0999 V2000
    7.9858  -14.8327   19.9729 N   0  0  0  0  0  0  0  0  0  0  0  0
    8.1400  -16.0621   19.2191 C   0  0  0  0  0  0  0  0  0  0  0  0
    6.8861  -16.8636   19.5862 C   0  0  0  0  0  0  0  0  0  0  0  0
    6.7915  -16.5702   21.0708 C   0  0  0  0  0  0  0  0  0  0  0  0
    7.2293  -15.1389   21.1463 C   0  0  1  0  0  0  0  0  0  0  0  0
    8.0270  -14.8721   22.4049 C   0  0  0  0  0  0  0  0  0  0  0  0
    9.2541  -14.9754   22.2784 O   0  0  0  0  0  0  0  0  0  0  0  0
    5.7093  -11.5340   26.1401 C   0  0  0  0  0  0  0  0  0  0  0  0
    6.7110  -12.1865   25.2135 C   0  0  0  0  0  0  0  0  0  0  0  0
    7.0155  -13.5546   25.7927 C   0  0  2  0  0  0  0  0  0  0  0  0
    7.7570  -13.2558   27.1014 C   0  0  0  0  0  0  0  0  0  0  0  0
    7.9568  -14.3341   24.8883 C   0  0  2  0  0  0  0  0  0  0  0  0
    7.3496  -14.5400   23.5797 N   0  0  0  0  0  0  0  0  0  0  0  0
    8.2631  -15.6233   25.5217 C   0  0  0  0  0  0  0  0  0  0  0  0
    7.2590  -16.3764   25.8581 O   0  0  0  0  0  0  0  0  0  0  0  0
    9.9779  -18.6872   24.1521 C   0  0  0  0  0  0  0  0  0  0  0  0
   10.5460  -18.3822   25.5135 C   0  0  1  0  0  0  0  0  0  0  0  0
   11.7640  -17.7018   25.3983 O   0  0  0  0  0  0  0  0  0  0  0  0
    9.6060  -17.5560   26.3581 C   0  0  2  0  0  0  0  0  0  0  0  0
    9.5149  -16.1795   25.8207 N   0  0  0  0  0  0  0  0  0  0  0  0
   10.1835  -17.4993   27.7264 C   0  0  0  0  0  0  0  0  0  0  0  0
   10.2164  -18.6188   28.5312 O   0  0  0  0  0  0  0  0  0  0  0  0
   10.6630  -16.4247   28.1971 O   0  0  0  0  0  0  0  0  0  0  0  0
  1  5  1  0
  2  3  1  0
  2  1  1  0
  3  4  1  0
  5  4  1  0
  5  6  1  1
  6 13  1  0
  6  7  2  0
  8  9  1  0
  9 10  1  0
 10 12  1  0
 10 11  1  1
 12 14  1  0
 12 13  1  6
 14 15  2  0
 17 16  1  6
 17 18  1  0
 17 19  1  0
 19 21  1  0
 20 14  1  0
 19 20  1  6
 21 22  1  0
 23 21  2  0
M  END
$$$$
