PIT.pdb
     RDKit          3D

 23 23  0  0  1  0  0  0  0  0999 V2000
    6.8799  -15.5174   21.4685 N   0  0  0  0  0  0  0  0  0  0  0  0
    6.2546  -14.5245   20.6161 C   0  0  0  0  0  0  0  0  0  0  0  0
    7.2729  -14.3343   19.4863 C   0  0  0  0  0  0  0  0  0  0  0  0
    8.5691  -14.3478   20.2729 C   0  0  0  0  0  0  0  0  0  0  0  0
    8.2952  -15.3741   21.3301 C   0  0  1  0  0  0  0  0  0  0  0  0
    8.9451  -14.9983   22.6447 C   0  0  0  0  0  0  0  0  0  0  0  0
   10.1768  -14.8810   22.6048 O   0  0  0  0  0  0  0  0  0  0  0  0
    5.9319  -11.9138   25.9854 C   0  0  0  0  0  0  0  0  0  0  0  0
    7.0610  -12.5016   25.1685 C   0  0  0  0  0  0  0  0  0  0  0  0
    7.5092  -13.7608   25.8849 C   0  0  2  0  0  0  0  0  0  0  0  0
    8.1132  -13.2542   27.2003 C   0  0  0  0  0  0  0  0  0  0  0  0
    8.6067  -14.4706   25.1082 C   0  0  2  0  0  0  0  0  0  0  0  0
    8.1408  -14.8161   23.7713 N   0  0  0  0  0  0  0  0  0  0  0  0
    9.0019  -15.6791   25.8434 C   0  0  0  0  0  0  0  0  0  0  0  0
    8.0544  -16.4838   26.2219 O   0  0  0  0  0  0  0  0  0  0  0  0
   12.1257  -19.3542   26.9450 C   0  0  0  0  0  0  0  0  0  0  0  0
   11.8635  -17.9749   26.3990 C   0  0  1  0  0  0  0  0  0  0  0  0
   11.9975  -17.9626   25.0056 O   0  0  0  0  0  0  0  0  0  0  0  0
   10.4891  -17.4642   26.7595 C   0  0  2  0  0  0  0  0  0  0  0  0
   10.2877  -16.1073   26.2026 N   0  0  0  0  0  0  0  0  0  0  0  0
   10.4265  -17.3881   28.2425 C   0  0  0  0  0  0  0  0  0  0  0  0
   10.1513  -18.5066   29.0009 O   0  0  0  0  0  0  0  0  0  0  0  0
   10.6232  -16.2972   28.8569 O   0  0  0  0  0  0  0  0  0  0  0  0
  1  5  1  0
  2  3  1  0
  2  1  1  0
  3  4  1  0
  5  4  1  0
  5  6  1  1
  6 13  1  0
  6  7  2  0
  8  9  1  0
  9 10  1  0
 10 12  1  0
 10 11  1  1
 12 14  1  0
 12 13  1  6
 14 15  2  0
 17 16  1  6
 17 18  1  0
 17 19  1  0
 19 21  1  0
 20 14  1  0
 19 20  1  6
 21 22  1  0
 23 21  2  0
M  END
$$$$
