PIT.pdb
     RDKit          3D

 23 23  0  0  1  0  0  0  0  0999 V2000
    6.9445  -14.8300   20.8688 N   0  0  0  0  0  0  0  0  0  0  0  0
    6.2764  -13.7117   20.2311 C   0  0  0  0  0  0  0  0  0  0  0  0
    7.3299  -13.1790   19.2535 C   0  0  0  0  0  0  0  0  0  0  0  0
    8.5798  -13.2828   20.1056 C   0  0  0  0  0  0  0  0  0  0  0  0
    8.3462  -14.5507   20.8695 C   0  0  1  0  0  0  0  0  0  0  0  0
    8.8909  -14.4535   22.2787 C   0  0  0  0  0  0  0  0  0  0  0  0
   10.1229  -14.3617   22.3582 O   0  0  0  0  0  0  0  0  0  0  0  0
    5.7814  -11.7149   25.7145 C   0  0  0  0  0  0  0  0  0  0  0  0
    6.9187  -12.3022   24.9086 C   0  0  0  0  0  0  0  0  0  0  0  0
    7.2434  -13.6480   25.5274 C   0  0  2  0  0  0  0  0  0  0  0  0
    7.7764  -13.3048   26.9238 C   0  0  0  0  0  0  0  0  0  0  0  0
    8.3543  -14.3484   24.7611 C   0  0  2  0  0  0  0  0  0  0  0  0
    7.9996  -14.4732   23.3531 N   0  0  0  0  0  0  0  0  0  0  0  0
    8.5771  -15.6732   25.3548 C   0  0  0  0  0  0  0  0  0  0  0  0
    7.5303  -16.4080   25.5841 O   0  0  0  0  0  0  0  0  0  0  0  0
   10.2087  -18.6371   23.8560 C   0  0  0  0  0  0  0  0  0  0  0  0
   10.7343  -18.4963   25.2608 C   0  0  1  0  0  0  0  0  0  0  0  0
   11.9926  -17.8828   25.2571 O   0  0  0  0  0  0  0  0  0  0  0  0
    9.8071  -17.6980   26.1454 C   0  0  2  0  0  0  0  0  0  0  0  0
    9.7877  -16.2813   25.7160 N   0  0  0  0  0  0  0  0  0  0  0  0
   10.3497  -17.7728   27.5271 C   0  0  0  0  0  0  0  0  0  0  0  0
   10.8579  -16.6539   28.1529 O   0  0  0  0  0  0  0  0  0  0  0  0
   10.3633  -18.8629   28.1734 O   0  0  0  0  0  0  0  0  0  0  0  0
  1  5  1  0
  2  3  1  0
  2  1  1  0
  3  4  1  0
  5  4  1  0
  5  6  1  1
  6 13  1  0
  6  7  2  0
  8  9  1  0
  9 10  1  0
 10 12  1  0
 10 11  1  1
 12 14  1  0
 12 13  1  6
 14 15  2  0
 17 16  1  6
 17 18  1  0
 17 19  1  0
 19 21  1  0
 20 14  1  0
 19 20  1  6
 21 22  1  0
 23 21  2  0
M  END
$$$$
