PIT.pdb
     RDKit          3D

 23 23  0  0  1  0  0  0  0  0999 V2000
    7.6770  -14.6123   19.9398 N   0  0  0  0  0  0  0  0  0  0  0  0
    7.7470  -15.8163   19.1341 C   0  0  0  0  0  0  0  0  0  0  0  0
    6.5293  -16.6244   19.5963 C   0  0  0  0  0  0  0  0  0  0  0  0
    6.5835  -16.3808   21.0919 C   0  0  0  0  0  0  0  0  0  0  0  0
    7.0374  -14.9547   21.1713 C   0  0  1  0  0  0  0  0  0  0  0  0
    7.9571  -14.7340   22.3533 C   0  0  0  0  0  0  0  0  0  0  0  0
    9.1658  -14.8128   22.0976 O   0  0  0  0  0  0  0  0  0  0  0  0
    5.8280  -11.7222   26.5501 C   0  0  0  0  0  0  0  0  0  0  0  0
    6.7836  -12.2024   25.4805 C   0  0  0  0  0  0  0  0  0  0  0  0
    7.2265  -13.5956   25.8838 C   0  0  2  0  0  0  0  0  0  0  0  0
    8.0512  -13.3773   27.1582 C   0  0  0  0  0  0  0  0  0  0  0  0
    8.1409  -14.2043   24.8326 C   0  0  2  0  0  0  0  0  0  0  0  0
    7.4002  -14.4664   23.6052 N   0  0  0  0  0  0  0  0  0  0  0  0
    8.7117  -15.4488   25.3644 C   0  0  0  0  0  0  0  0  0  0  0  0
    7.8867  -16.3135   25.8744 O   0  0  0  0  0  0  0  0  0  0  0  0
   12.1847  -18.9932   25.6702 C   0  0  0  0  0  0  0  0  0  0  0  0
   11.7430  -17.6227   25.2275 C   0  0  1  0  0  0  0  0  0  0  0  0
   11.6753  -17.5538   23.8309 O   0  0  0  0  0  0  0  0  0  0  0  0
   10.3993  -17.2380   25.7986 C   0  0  2  0  0  0  0  0  0  0  0  0
   10.0531  -15.8550   25.3993 N   0  0  0  0  0  0  0  0  0  0  0  0
   10.5218  -17.2932   27.2788 C   0  0  0  0  0  0  0  0  0  0  0  0
   10.2199  -18.4449   27.9748 O   0  0  0  0  0  0  0  0  0  0  0  0
   10.9063  -16.2878   27.9478 O   0  0  0  0  0  0  0  0  0  0  0  0
  1  5  1  0
  2  3  1  0
  2  1  1  0
  3  4  1  0
  5  4  1  0
  5  6  1  1
  6 13  1  0
  6  7  2  0
  8  9  1  0
  9 10  1  0
 10 12  1  0
 10 11  1  1
 12 14  1  0
 12 13  1  6
 14 15  2  0
 17 16  1  6
 17 18  1  0
 17 19  1  0
 19 21  1  0
 20 14  1  0
 19 20  1  1
 21 22  1  0
 23 21  2  0
M  END
$$$$
