PIT.pdb
     RDKit          3D

 23 23  0  0  1  0  0  0  0  0999 V2000
    8.0067  -15.0108   19.9346 N   0  0  0  0  0  0  0  0  0  0  0  0
    8.0663  -16.2820   19.2389 C   0  0  0  0  0  0  0  0  0  0  0  0
    6.7783  -16.9878   19.6776 C   0  0  0  0  0  0  0  0  0  0  0  0
    6.7440  -16.6184   21.1478 C   0  0  0  0  0  0  0  0  0  0  0  0
    7.2675  -15.2142   21.1409 C   0  0  1  0  0  0  0  0  0  0  0  0
    8.1155  -14.9360   22.3637 C   0  0  0  0  0  0  0  0  0  0  0  0
    9.3379  -14.9876   22.1755 O   0  0  0  0  0  0  0  0  0  0  0  0
    5.8622  -11.6825   26.2279 C   0  0  0  0  0  0  0  0  0  0  0  0
    6.9196  -12.2522   25.3086 C   0  0  0  0  0  0  0  0  0  0  0  0
    7.2089  -13.6594   25.7945 C   0  0  2  0  0  0  0  0  0  0  0  0
    7.9439  -13.4575   27.1252 C   0  0  0  0  0  0  0  0  0  0  0  0
    8.1499  -14.3831   24.8446 C   0  0  2  0  0  0  0  0  0  0  0  0
    7.4845  -14.6508   23.5760 N   0  0  0  0  0  0  0  0  0  0  0  0
    8.5841  -15.6380   25.4724 C   0  0  0  0  0  0  0  0  0  0  0  0
    7.6623  -16.4989   25.7850 O   0  0  0  0  0  0  0  0  0  0  0  0
   11.7601  -19.3557   26.0432 C   0  0  0  0  0  0  0  0  0  0  0  0
   11.4002  -17.9717   25.5693 C   0  0  1  0  0  0  0  0  0  0  0  0
   11.2484  -17.9511   24.1778 O   0  0  0  0  0  0  0  0  0  0  0  0
   10.1307  -17.4574   26.2043 C   0  0  2  0  0  0  0  0  0  0  0  0
    9.8838  -16.0581   25.7883 N   0  0  0  0  0  0  0  0  0  0  0  0
   10.3337  -17.4912   27.6763 C   0  0  0  0  0  0  0  0  0  0  0  0
   10.1551  -18.6564   28.3920 O   0  0  0  0  0  0  0  0  0  0  0  0
   10.6764  -16.4546   28.3199 O   0  0  0  0  0  0  0  0  0  0  0  0
  1  5  1  0
  2  3  1  0
  2  1  1  0
  3  4  1  0
  5  4  1  0
  5  6  1  1
  6 13  1  0
  6  7  2  0
  8  9  1  0
  9 10  1  0
 10 12  1  0
 10 11  1  1
 12 14  1  0
 12 13  1  6
 14 15  2  0
 17 16  1  1
 17 18  1  0
 17 19  1  0
 19 21  1  0
 20 14  1  0
 19 20  1  6
 21 22  1  0
 23 21  2  0
M  END
$$$$
