PIT.pdb
     RDKit          3D

 23 23  0  0  1  0  0  0  0  0999 V2000
    6.9412  -15.7975   21.6331 N   0  0  0  0  0  0  0  0  0  0  0  0
    6.1992  -14.8369   20.8392 C   0  0  0  0  0  0  0  0  0  0  0  0
    7.1543  -14.5177   19.6836 C   0  0  0  0  0  0  0  0  0  0  0  0
    8.4746  -14.4407   20.4254 C   0  0  0  0  0  0  0  0  0  0  0  0
    8.3321  -15.5225   21.4526 C   0  0  1  0  0  0  0  0  0  0  0  0
    8.9938  -15.1340   22.7577 C   0  0  0  0  0  0  0  0  0  0  0  0
   10.2113  -14.9224   22.6844 O   0  0  0  0  0  0  0  0  0  0  0  0
    5.9642  -12.1196   26.0476 C   0  0  0  0  0  0  0  0  0  0  0  0
    7.1279  -12.6863   25.2650 C   0  0  0  0  0  0  0  0  0  0  0  0
    7.5808  -13.9344   25.9977 C   0  0  2  0  0  0  0  0  0  0  0  0
    8.1769  -13.4089   27.3093 C   0  0  0  0  0  0  0  0  0  0  0  0
    8.6854  -14.6467   25.2334 C   0  0  2  0  0  0  0  0  0  0  0  0
    8.2146  -15.0439   23.9126 N   0  0  0  0  0  0  0  0  0  0  0  0
    9.1115  -15.8230   26.0027 C   0  0  0  0  0  0  0  0  0  0  0  0
    8.1847  -16.6387   26.4080 O   0  0  0  0  0  0  0  0  0  0  0  0
   12.2739  -19.4115   27.2279 C   0  0  0  0  0  0  0  0  0  0  0  0
   11.9700  -18.0875   26.5766 C   0  0  1  0  0  0  0  0  0  0  0  0
   11.9757  -18.2113   25.1822 O   0  0  0  0  0  0  0  0  0  0  0  0
   10.6372  -17.5252   27.0090 C   0  0  2  0  0  0  0  0  0  0  0  0
   10.4082  -16.2093   26.3703 N   0  0  0  0  0  0  0  0  0  0  0  0
   10.6991  -17.3388   28.4823 C   0  0  0  0  0  0  0  0  0  0  0  0
   10.7723  -16.0783   29.0370 O   0  0  0  0  0  0  0  0  0  0  0  0
   10.6865  -18.3280   29.2744 O   0  0  0  0  0  0  0  0  0  0  0  0
  1  5  1  0
  2  3  1  0
  2  1  1  0
  3  4  1  0
  5  4  1  0
  5  6  1  1
  6 13  1  0
  6  7  2  0
  8  9  1  0
  9 10  1  0
 10 12  1  0
 10 11  1  1
 12 14  1  0
 12 13  1  6
 14 15  2  0
 17 16  1  1
 17 18  1  0
 17 19  1  0
 19 21  1  0
 20 14  1  0
 19 20  1  6
 21 22  1  0
 23 21  2  0
M  END
$$$$
