PIT.pdb
     RDKit          3D

 23 23  0  0  1  0  0  0  0  0999 V2000
    6.9057  -15.0258   21.0534 N   0  0  0  0  0  0  0  0  0  0  0  0
    6.2285  -13.9403   20.3704 C   0  0  0  0  0  0  0  0  0  0  0  0
    7.2570  -13.4768   19.3327 C   0  0  0  0  0  0  0  0  0  0  0  0
    8.5307  -13.5430   20.1527 C   0  0  0  0  0  0  0  0  0  0  0  0
    8.3092  -14.7613   20.9968 C   0  0  1  0  0  0  0  0  0  0  0  0
    8.8962  -14.5869   22.3813 C   0  0  0  0  0  0  0  0  0  0  0  0
   10.1209  -14.4092   22.4117 O   0  0  0  0  0  0  0  0  0  0  0  0
    5.9132  -11.8957   25.9996 C   0  0  0  0  0  0  0  0  0  0  0  0
    7.0739  -12.4291   25.1896 C   0  0  0  0  0  0  0  0  0  0  0  0
    7.3469  -13.8343   25.6901 C   0  0  2  0  0  0  0  0  0  0  0  0
    7.8629  -13.6339   27.1203 C   0  0  0  0  0  0  0  0  0  0  0  0
    8.4510  -14.4976   24.8823 C   0  0  2  0  0  0  0  0  0  0  0  0
    8.0477  -14.6365   23.4889 N   0  0  0  0  0  0  0  0  0  0  0  0
    8.7411  -15.8133   25.4673 C   0  0  0  0  0  0  0  0  0  0  0  0
    7.7351  -16.6092   25.6744 O   0  0  0  0  0  0  0  0  0  0  0  0
   10.5841  -18.7731   24.0906 C   0  0  0  0  0  0  0  0  0  0  0  0
   11.0655  -18.5250   25.4964 C   0  0  1  0  0  0  0  0  0  0  0  0
   12.2767  -17.8233   25.4860 O   0  0  0  0  0  0  0  0  0  0  0  0
   10.0636  -17.7526   26.3205 C   0  0  2  0  0  0  0  0  0  0  0  0
    9.9793  -16.3545   25.8409 N   0  0  0  0  0  0  0  0  0  0  0  0
   10.5598  -17.7499   27.7215 C   0  0  0  0  0  0  0  0  0  0  0  0
   10.5995  -18.9114   28.4640 O   0  0  0  0  0  0  0  0  0  0  0  0
   10.9613  -16.6844   28.2781 O   0  0  0  0  0  0  0  0  0  0  0  0
  1  5  1  0
  2  3  1  0
  2  1  1  0
  3  4  1  0
  5  4  1  0
  5  6  1  1
  6 13  1  0
  6  7  2  0
  8  9  1  0
  9 10  1  0
 10 12  1  0
 10 11  1  1
 12 14  1  0
 12 13  1  6
 14 15  2  0
 17 16  1  6
 17 18  1  0
 17 19  1  0
 19 21  1  0
 20 14  1  0
 19 20  1  6
 21 22  1  0
 23 21  2  0
M  END
$$$$
