PIT.pdb
     RDKit          3D

 23 23  0  0  1  0  0  0  0  0999 V2000
    6.9371  -14.9345   20.7982 N   0  0  0  0  0  0  0  0  0  0  0  0
    6.2078  -13.8523   20.1654 C   0  0  0  0  0  0  0  0  0  0  0  0
    7.1955  -13.3217   19.1202 C   0  0  0  0  0  0  0  0  0  0  0  0
    8.4896  -13.3693   19.9090 C   0  0  0  0  0  0  0  0  0  0  0  0
    8.3291  -14.6201   20.7187 C   0  0  1  0  0  0  0  0  0  0  0  0
    8.9422  -14.4686   22.0945 C   0  0  0  0  0  0  0  0  0  0  0  0
   10.1799  -14.4735   22.1192 O   0  0  0  0  0  0  0  0  0  0  0  0
    6.9578  -12.0037   27.3090 C   0  0  0  0  0  0  0  0  0  0  0  0
    7.9564  -12.9839   26.7346 C   0  0  0  0  0  0  0  0  0  0  0  0
    7.4730  -13.3335   25.3403 C   0  0  2  0  0  0  0  0  0  0  0  0
    6.2711  -14.2564   25.5760 C   0  0  0  0  0  0  0  0  0  0  0  0
    8.5264  -14.1216   24.5781 C   0  0  2  0  0  0  0  0  0  0  0  0
    8.1011  -14.3384   23.2012 N   0  0  0  0  0  0  0  0  0  0  0  0
    8.7418  -15.4055   25.2581 C   0  0  0  0  0  0  0  0  0  0  0  0
    7.6916  -16.1223   25.5261 O   0  0  0  0  0  0  0  0  0  0  0  0
   11.2663  -19.5146   26.2306 C   0  0  0  0  0  0  0  0  0  0  0  0
   11.1855  -18.1069   25.7000 C   0  0  1  0  0  0  0  0  0  0  0  0
   11.1770  -18.1075   24.3002 O   0  0  0  0  0  0  0  0  0  0  0  0
    9.9604  -17.3749   26.1930 C   0  0  2  0  0  0  0  0  0  0  0  0
    9.9482  -15.9909   25.6675 N   0  0  0  0  0  0  0  0  0  0  0  0
   10.0492  -17.3240   27.6758 C   0  0  0  0  0  0  0  0  0  0  0  0
    9.6913  -18.4097   28.4472 O   0  0  0  0  0  0  0  0  0  0  0  0
   10.4552  -16.2854   28.2780 O   0  0  0  0  0  0  0  0  0  0  0  0
  1  5  1  0
  2  3  1  0
  2  1  1  0
  3  4  1  0
  5  4  1  0
  5  6  1  1
  6 13  1  0
  6  7  2  0
  8  9  1  0
  9 10  1  0
 10 12  1  0
 10 11  1  1
 12 14  1  0
 12 13  1  6
 14 15  2  0
 17 16  1  1
 17 18  1  0
 17 19  1  0
 19 21  1  0
 20 14  1  0
 19 20  1  6
 21 22  1  0
 23 21  2  0
M  END
$$$$
