PIT.pdb
     RDKit          3D

 23 23  0  0  1  0  0  0  0  0999 V2000
    7.7938  -14.8166   20.0609 N   0  0  0  0  0  0  0  0  0  0  0  0
    7.8849  -16.0592   19.3185 C   0  0  0  0  0  0  0  0  0  0  0  0
    6.6434  -16.8355   19.7715 C   0  0  0  0  0  0  0  0  0  0  0  0
    6.6414  -16.5189   21.2544 C   0  0  0  0  0  0  0  0  0  0  0  0
    7.1039  -15.0937   21.2815 C   0  0  1  0  0  0  0  0  0  0  0  0
    7.9788  -14.8209   22.4865 C   0  0  0  0  0  0  0  0  0  0  0  0
    9.1960  -14.9130   22.2808 O   0  0  0  0  0  0  0  0  0  0  0  0
    5.8392  -11.5649   26.4555 C   0  0  0  0  0  0  0  0  0  0  0  0
    6.8508  -12.1343   25.4858 C   0  0  0  0  0  0  0  0  0  0  0  0
    7.1493  -13.5482   25.9459 C   0  0  2  0  0  0  0  0  0  0  0  0
    7.9161  -13.3650   27.2613 C   0  0  0  0  0  0  0  0  0  0  0  0
    8.0664  -14.2603   24.9643 C   0  0  2  0  0  0  0  0  0  0  0  0
    7.3756  -14.4961   23.7030 N   0  0  0  0  0  0  0  0  0  0  0  0
    8.5006  -15.5315   25.5583 C   0  0  0  0  0  0  0  0  0  0  0  0
    7.5753  -16.3774   25.8999 O   0  0  0  0  0  0  0  0  0  0  0  0
   11.6197  -19.3201   25.9660 C   0  0  0  0  0  0  0  0  0  0  0  0
   11.2898  -17.9125   25.5429 C   0  0  1  0  0  0  0  0  0  0  0  0
   11.1273  -17.8404   24.1543 O   0  0  0  0  0  0  0  0  0  0  0  0
   10.0383  -17.3898   26.2064 C   0  0  2  0  0  0  0  0  0  0  0  0
    9.8036  -15.9818   25.8136 N   0  0  0  0  0  0  0  0  0  0  0  0
   10.2657  -17.4467   27.6741 C   0  0  0  0  0  0  0  0  0  0  0  0
   10.0064  -18.5967   28.3897 O   0  0  0  0  0  0  0  0  0  0  0  0
   10.7036  -16.4442   28.3140 O   0  0  0  0  0  0  0  0  0  0  0  0
  1  5  1  0
  2  3  1  0
  2  1  1  0
  3  4  1  0
  5  4  1  0
  5  6  1  1
  6 13  1  0
  6  7  2  0
  8  9  1  0
  9 10  1  0
 10 12  1  0
 10 11  1  1
 12 14  1  0
 12 13  1  6
 14 15  2  0
 17 16  1  6
 17 18  1  0
 17 19  1  0
 19 21  1  0
 20 14  1  0
 19 20  1  6
 21 22  1  0
 23 21  2  0
M  END
$$$$
