PIT.pdb
     RDKit          3D

 23 23  0  0  1  0  0  0  0  0999 V2000
    7.0848  -15.3480   21.3110 N   0  0  0  0  0  0  0  0  0  0  0  0
    6.2335  -14.3818   20.6437 C   0  0  0  0  0  0  0  0  0  0  0  0
    7.1492  -13.7832   19.5700 C   0  0  0  0  0  0  0  0  0  0  0  0
    8.4438  -13.6518   20.3484 C   0  0  0  0  0  0  0  0  0  0  0  0
    8.4312  -14.8800   21.2069 C   0  0  1  0  0  0  0  0  0  0  0  0
    9.0292  -14.6057   22.5704 C   0  0  0  0  0  0  0  0  0  0  0  0
   10.2416  -14.3555   22.5693 O   0  0  0  0  0  0  0  0  0  0  0  0
    6.1373  -11.9500   26.2976 C   0  0  0  0  0  0  0  0  0  0  0  0
    7.2710  -12.4776   25.4466 C   0  0  0  0  0  0  0  0  0  0  0  0
    7.5582  -13.8872   25.9265 C   0  0  2  0  0  0  0  0  0  0  0  0
    8.1152  -13.6995   27.3429 C   0  0  0  0  0  0  0  0  0  0  0  0
    8.6387  -14.5429   25.0814 C   0  0  2  0  0  0  0  0  0  0  0  0
    8.2031  -14.6517   23.6950 N   0  0  0  0  0  0  0  0  0  0  0  0
    8.9314  -15.8718   25.6342 C   0  0  0  0  0  0  0  0  0  0  0  0
    7.9214  -16.6515   25.8801 O   0  0  0  0  0  0  0  0  0  0  0  0
   11.0282  -18.7847   24.2562 C   0  0  0  0  0  0  0  0  0  0  0  0
   11.3404  -18.5867   25.7166 C   0  0  1  0  0  0  0  0  0  0  0  0
   12.5482  -17.8965   25.8733 O   0  0  0  0  0  0  0  0  0  0  0  0
   10.2519  -17.8321   26.4413 C   0  0  2  0  0  0  0  0  0  0  0  0
   10.1756  -16.4413   25.9396 N   0  0  0  0  0  0  0  0  0  0  0  0
   10.6240  -17.8031   27.8800 C   0  0  0  0  0  0  0  0  0  0  0  0
   10.6714  -18.9623   28.6256 O   0  0  0  0  0  0  0  0  0  0  0  0
   10.9089  -16.7166   28.4669 O   0  0  0  0  0  0  0  0  0  0  0  0
  1  5  1  0
  2  3  1  0
  2  1  1  0
  3  4  1  0
  5  4  1  0
  5  6  1  1
  6 13  1  0
  6  7  2  0
  8  9  1  0
  9 10  1  0
 10 12  1  0
 10 11  1  1
 12 14  1  0
 12 13  1  6
 14 15  2  0
 17 16  1  6
 17 18  1  0
 17 19  1  0
 19 21  1  0
 20 14  1  0
 19 20  1  6
 21 22  1  0
 23 21  2  0
M  END
$$$$
