PIT.pdb
     RDKit          3D

 23 23  0  0  1  0  0  0  0  0999 V2000
    6.8148  -14.7912   20.5950 N   0  0  0  0  0  0  0  0  0  0  0  0
    6.2238  -13.6395   19.9409 C   0  0  0  0  0  0  0  0  0  0  0  0
    7.2914  -13.2220   18.9234 C   0  0  0  0  0  0  0  0  0  0  0  0
    8.5505  -13.4050   19.7483 C   0  0  0  0  0  0  0  0  0  0  0  0
    8.2342  -14.6282   20.5544 C   0  0  1  0  0  0  0  0  0  0  0  0
    8.8214  -14.5378   21.9468 C   0  0  0  0  0  0  0  0  0  0  0  0
   10.0579  -14.5722   21.9964 O   0  0  0  0  0  0  0  0  0  0  0  0
    6.7434  -11.9389   27.0369 C   0  0  0  0  0  0  0  0  0  0  0  0
    7.7479  -12.9440   26.5185 C   0  0  0  0  0  0  0  0  0  0  0  0
    7.2945  -13.3365   25.1257 C   0  0  2  0  0  0  0  0  0  0  0  0
    6.0760  -14.2369   25.3632 C   0  0  0  0  0  0  0  0  0  0  0  0
    8.3564  -14.1626   24.4175 C   0  0  2  0  0  0  0  0  0  0  0  0
    7.9603  -14.4260   23.0400 N   0  0  0  0  0  0  0  0  0  0  0  0
    8.5425  -15.4226   25.1490 C   0  0  0  0  0  0  0  0  0  0  0  0
    7.4896  -16.1573   25.3495 O   0  0  0  0  0  0  0  0  0  0  0  0
   10.3237  -18.5730   24.2040 C   0  0  0  0  0  0  0  0  0  0  0  0
   10.7274  -18.2029   25.6074 C   0  0  1  0  0  0  0  0  0  0  0  0
   11.9658  -17.5503   25.6082 O   0  0  0  0  0  0  0  0  0  0  0  0
    9.7103  -17.3160   26.2844 C   0  0  2  0  0  0  0  0  0  0  0  0
    9.7231  -15.9676   25.6732 N   0  0  0  0  0  0  0  0  0  0  0  0
   10.1125  -17.1998   27.7105 C   0  0  0  0  0  0  0  0  0  0  0  0
   10.1060  -18.2992   28.5430 O   0  0  0  0  0  0  0  0  0  0  0  0
   10.4734  -16.0909   28.2069 O   0  0  0  0  0  0  0  0  0  0  0  0
  1  5  1  0
  2  3  1  0
  2  1  1  0
  3  4  1  0
  5  4  1  0
  5  6  1  1
  6 13  1  0
  6  7  2  0
  8  9  1  0
  9 10  1  0
 10 12  1  0
 10 11  1  1
 12 14  1  0
 12 13  1  6
 14 15  2  0
 17 16  1  6
 17 18  1  0
 17 19  1  0
 19 21  1  0
 20 14  1  0
 19 20  1  6
 21 22  1  0
 23 21  2  0
M  END
$$$$
