CSQ.pdb
     RDKit          3D

 22 21  0  0  1  0  0  0  0  0999 V2000
   19.8455  -13.1276  -16.3856 N   0  0  0  0  0  0  0  0  0  0  0  0
   19.3746  -11.7733  -16.6187 C   0  0  1  0  0  0  0  0  0  0  0  0
   18.0343  -11.5413  -15.9245 C   0  0  0  0  0  0  0  0  0  0  0  0
   16.7934  -12.5030  -16.8043 S   0  0  0  0  0  0  0  0  0  0  0  0
   20.3696  -10.8036  -16.0992 C   0  0  0  0  0  0  0  0  0  0  0  0
   20.8870  -10.9119  -14.9565 O   0  0  0  0  0  0  0  0  0  0  0  0
   23.1301   -7.0372  -17.4610 O   0  0  0  0  0  0  0  0  0  0  0  0
   22.2493   -8.0527  -17.7524 C   0  0  0  0  0  0  0  0  0  0  0  0
   21.7530   -8.7429  -16.4743 C   0  0  2  0  0  0  0  0  0  0  0  0
   20.7657   -9.7085  -16.9025 N   0  0  0  0  0  0  0  0  0  0  0  0
   21.0540   -7.6880  -15.6925 C   0  0  0  0  0  0  0  0  0  0  0  0
   19.8776   -7.3917  -16.0130 O   0  0  0  0  0  0  0  0  0  0  0  0
   18.8755   -7.5188  -10.6695 N   0  0  0  0  0  0  0  0  0  0  0  0
   18.6564   -6.1325  -10.8655 C   0  0  0  0  0  0  0  0  0  0  0  0
   17.9692   -5.4306  -10.1114 O   0  0  0  0  0  0  0  0  0  0  0  0
   19.3070   -5.5056  -12.0641 C   0  0  0  0  0  0  0  0  0  0  0  0
   20.1228   -6.5492  -12.7652 C   0  0  0  0  0  0  0  0  0  0  0  0
   20.8411   -5.9667  -13.9342 C   0  0  2  0  0  0  0  0  0  0  0  0
   21.6335   -7.0057  -14.6182 N   0  0  0  0  0  0  0  0  0  0  0  0
   21.7629   -4.8679  -13.6460 C   0  0  0  0  0  0  0  0  0  0  0  0
   23.0013   -5.0263  -13.7355 O   0  0  0  0  0  0  0  0  0  0  0  0
   21.3013   -3.6286  -13.2713 O   0  0  0  0  0  0  0  0  0  0  0  0
  2  1  1  1
  2  3  1  0
  3  4  1  0
  5  2  1  0
  5 10  1  0
  6  5  2  0
  8  7  1  0
  9  8  1  6
  9 10  1  0
  9 11  1  0
 11 19  1  0
 12 11  2  0
 13 14  1  0
 14 15  2  0
 16 17  1  0
 16 14  1  0
 18 17  1  1
 18 20  1  0
 19 18  1  0
 20 22  1  0
 21 20  2  0
M  END
$$$$
