CSQ.pdb
     RDKit          3D

 22 21  0  0  1  0  0  0  0  0999 V2000
   20.2960  -12.6124  -17.4568 N   0  0  0  0  0  0  0  0  0  0  0  0
   21.0972  -11.4006  -17.4671 C   0  0  1  0  0  0  0  0  0  0  0  0
   21.5149  -11.0423  -18.8916 C   0  0  0  0  0  0  0  0  0  0  0  0
   23.0278  -11.9458  -19.2573 S   0  0  0  0  0  0  0  0  0  0  0  0
   20.3140  -10.2808  -16.8901 C   0  0  0  0  0  0  0  0  0  0  0  0
   19.2707   -9.8337  -17.4348 O   0  0  0  0  0  0  0  0  0  0  0  0
   21.1945   -9.3457  -13.0880 O   0  0  0  0  0  0  0  0  0  0  0  0
   19.9563   -8.9651  -13.5507 C   0  0  0  0  0  0  0  0  0  0  0  0
   20.0051   -8.6091  -15.0430 C   0  0  2  0  0  0  0  0  0  0  0  0
   20.7387   -9.6786  -15.6824 N   0  0  0  0  0  0  0  0  0  0  0  0
   20.8251   -7.3715  -15.1352 C   0  0  0  0  0  0  0  0  0  0  0  0
   21.9909   -7.4631  -15.5899 O   0  0  0  0  0  0  0  0  0  0  0  0
   19.0571   -1.5893  -15.8855 N   0  0  0  0  0  0  0  0  0  0  0  0
   20.4576   -1.3729  -15.8716 C   0  0  0  0  0  0  0  0  0  0  0  0
   20.9864   -0.2720  -16.0767 O   0  0  0  0  0  0  0  0  0  0  0  0
   21.3254   -2.5646  -15.5895 C   0  0  0  0  0  0  0  0  0  0  0  0
   20.4427   -3.7505  -15.3426 C   0  0  0  0  0  0  0  0  0  0  0  0
   21.2498   -4.9446  -14.9623 C   0  0  2  0  0  0  0  0  0  0  0  0
   20.3706   -6.1084  -14.7432 N   0  0  0  0  0  0  0  0  0  0  0  0
   22.0701   -4.8150  -13.7579 C   0  0  0  0  0  0  0  0  0  0  0  0
   21.7217   -5.3494  -12.6811 O   0  0  0  0  0  0  0  0  0  0  0  0
   23.2482   -4.1068  -13.7696 O   0  0  0  0  0  0  0  0  0  0  0  0
  2  1  1  6
  2  3  1  0
  3  4  1  0
  5  2  1  0
  5 10  1  0
  6  5  2  0
  8  7  1  0
  9  8  1  1
  9 10  1  0
  9 11  1  0
 11 19  1  0
 12 11  2  0
 13 14  1  0
 14 15  2  0
 16 17  1  0
 16 14  1  0
 18 17  1  1
 18 20  1  0
 19 18  1  0
 20 22  1  0
 21 20  2  0
M  END
$$$$
