CSQ.pdb
     RDKit          3D

 22 21  0  0  1  0  0  0  0  0999 V2000
   25.1527  -12.9152  -17.4794 N   0  0  0  0  0  0  0  0  0  0  0  0
   25.1686  -11.8436  -16.4987 C   0  0  1  0  0  0  0  0  0  0  0  0
   26.5479  -11.1911  -16.4351 C   0  0  0  0  0  0  0  0  0  0  0  0
   27.6883  -12.3987  -15.7422 S   0  0  0  0  0  0  0  0  0  0  0  0
   24.1589  -10.8199  -16.8631 C   0  0  0  0  0  0  0  0  0  0  0  0
   24.0477  -10.3654  -18.0319 O   0  0  0  0  0  0  0  0  0  0  0  0
   21.5899   -9.8938  -13.8999 O   0  0  0  0  0  0  0  0  0  0  0  0
   21.0787   -9.7474  -15.1685 C   0  0  0  0  0  0  0  0  0  0  0  0
   22.1863   -9.4252  -16.1811 C   0  0  2  0  0  0  0  0  0  0  0  0
   23.2779  -10.3223  -15.8742 N   0  0  0  0  0  0  0  0  0  0  0  0
   22.6287   -8.0402  -15.8670 C   0  0  0  0  0  0  0  0  0  0  0  0
   23.6912   -7.8885  -15.2172 O   0  0  0  0  0  0  0  0  0  0  0  0
   23.5726   -1.2418  -17.6055 N   0  0  0  0  0  0  0  0  0  0  0  0
   22.9050   -2.4832  -17.7528 C   0  0  0  0  0  0  0  0  0  0  0  0
   22.6651   -3.0105  -18.8474 O   0  0  0  0  0  0  0  0  0  0  0  0
   22.4756   -3.1763  -16.4926 C   0  0  0  0  0  0  0  0  0  0  0  0
   21.9512   -4.5343  -16.8493 C   0  0  0  0  0  0  0  0  0  0  0  0
   22.5021   -5.5745  -15.9349 C   0  0  2  0  0  0  0  0  0  0  0  0
   21.9271   -6.8944  -16.2550 N   0  0  0  0  0  0  0  0  0  0  0  0
   22.2790   -5.3633  -14.5046 C   0  0  0  0  0  0  0  0  0  0  0  0
   22.9411   -4.5126  -13.8686 O   0  0  0  0  0  0  0  0  0  0  0  0
   21.3363   -6.0876  -13.8146 O   0  0  0  0  0  0  0  0  0  0  0  0
  2  1  1  6
  2  3  1  0
  3  4  1  0
  5  2  1  0
  5 10  1  0
  6  5  2  0
  8  7  1  0
  9  8  1  1
  9 10  1  0
  9 11  1  0
 11 19  1  0
 12 11  2  0
 13 14  1  0
 14 15  2  0
 16 17  1  0
 16 14  1  0
 18 17  1  6
 18 20  1  0
 19 18  1  0
 20 22  1  0
 21 20  2  0
M  END
$$$$
