CSQ.pdb
     RDKit          3D

 22 21  0  0  1  0  0  0  0  0999 V2000
   19.3678  -15.2490  -16.9392 N   0  0  0  0  0  0  0  0  0  0  0  0
   18.5995  -14.3884  -16.0563 C   0  0  1  0  0  0  0  0  0  0  0  0
   19.1130  -14.4911  -14.6218 C   0  0  0  0  0  0  0  0  0  0  0  0
   18.6940  -16.1314  -14.0113 S   0  0  0  0  0  0  0  0  0  0  0  0
   18.7061  -12.9818  -16.5151 C   0  0  0  0  0  0  0  0  0  0  0  0
   19.7721  -12.5015  -16.9822 O   0  0  0  0  0  0  0  0  0  0  0  0
   15.9629   -9.1968  -17.7851 O   0  0  0  0  0  0  0  0  0  0  0  0
   16.0972  -10.4573  -17.2510 C   0  0  0  0  0  0  0  0  0  0  0  0
   17.5701  -10.7914  -16.9769 C   0  0  2  0  0  0  0  0  0  0  0  0
   17.5786  -12.1312  -16.4332 N   0  0  0  0  0  0  0  0  0  0  0  0
   18.0017   -9.8577  -15.9024 C   0  0  0  0  0  0  0  0  0  0  0  0
   17.8140  -10.1970  -14.7092 O   0  0  0  0  0  0  0  0  0  0  0  0
   22.6582   -6.0197  -15.7390 N   0  0  0  0  0  0  0  0  0  0  0  0
   22.0754   -5.6399  -14.5043 C   0  0  0  0  0  0  0  0  0  0  0  0
   22.5643   -4.7941  -13.7433 O   0  0  0  0  0  0  0  0  0  0  0  0
   20.7920   -6.3183  -14.1227 C   0  0  0  0  0  0  0  0  0  0  0  0
   20.3937   -7.2451  -15.2312 C   0  0  0  0  0  0  0  0  0  0  0  0
   19.0338   -7.8066  -14.9927 C   0  0  2  0  0  0  0  0  0  0  0  0
   18.6060   -8.6204  -16.1460 N   0  0  0  0  0  0  0  0  0  0  0  0
   17.9653   -6.8363  -14.7536 C   0  0  0  0  0  0  0  0  0  0  0  0
   17.2126   -6.4659  -15.6825 O   0  0  0  0  0  0  0  0  0  0  0  0
   17.7515   -6.3032  -13.5048 O   0  0  0  0  0  0  0  0  0  0  0  0
  2  1  1  6
  2  3  1  0
  3  4  1  0
  5  2  1  0
  5 10  1  0
  6  5  2  0
  8  7  1  0
  9  8  1  1
  9 10  1  0
  9 11  1  0
 11 19  1  0
 12 11  2  0
 13 14  1  0
 14 15  2  0
 16 17  1  0
 16 14  1  0
 18 17  1  6
 18 20  1  0
 19 18  1  0
 20 22  1  0
 21 20  2  0
M  END
$$$$
