CSQ.pdb
     RDKit          3D

 22 21  0  0  1  0  0  0  0  0999 V2000
   21.8076  -15.6132  -19.2176 N   0  0  0  0  0  0  0  0  0  0  0  0
   22.4779  -14.3361  -19.3912 C   0  0  1  0  0  0  0  0  0  0  0  0
   21.7800  -13.5020  -20.4631 C   0  0  0  0  0  0  0  0  0  0  0  0
   21.8097  -14.4491  -21.9931 S   0  0  0  0  0  0  0  0  0  0  0  0
   22.4701  -13.5911  -18.1086 C   0  0  0  0  0  0  0  0  0  0  0  0
   21.4657  -13.5606  -17.3501 O   0  0  0  0  0  0  0  0  0  0  0  0
   25.8606  -12.8101  -15.7376 O   0  0  0  0  0  0  0  0  0  0  0  0
   25.1600  -11.7554  -16.2751 C   0  0  0  0  0  0  0  0  0  0  0  0
   23.6818  -12.1154  -16.4790 C   0  0  2  0  0  0  0  0  0  0  0  0
   23.6251  -12.8813  -17.7041 N   0  0  0  0  0  0  0  0  0  0  0  0
   22.9813  -10.8241  -16.7124 C   0  0  0  0  0  0  0  0  0  0  0  0
   23.0503  -10.3083  -17.8541 O   0  0  0  0  0  0  0  0  0  0  0  0
   17.4601   -9.6063  -16.0771 N   0  0  0  0  0  0  0  0  0  0  0  0
   17.8117   -8.2512  -16.2971 C   0  0  0  0  0  0  0  0  0  0  0  0
   16.9854   -7.3397  -16.4386 O   0  0  0  0  0  0  0  0  0  0  0  0
   19.2770   -7.9316  -16.3573 C   0  0  0  0  0  0  0  0  0  0  0  0
   20.0509   -9.2018  -16.1725 C   0  0  0  0  0  0  0  0  0  0  0  0
   21.5150   -8.9291  -16.1134 C   0  0  2  0  0  0  0  0  0  0  0  0
   22.2485  -10.1501  -15.7306 N   0  0  0  0  0  0  0  0  0  0  0  0
   21.9420   -7.8830  -15.1841 C   0  0  0  0  0  0  0  0  0  0  0  0
   22.5426   -8.1696  -14.1241 O   0  0  0  0  0  0  0  0  0  0  0  0
   21.7011   -6.5550  -15.4447 O   0  0  0  0  0  0  0  0  0  0  0  0
  2  1  1  1
  2  3  1  0
  3  4  1  0
  5  2  1  0
  5 10  1  0
  6  5  2  0
  8  7  1  0
  9  8  1  6
  9 10  1  0
  9 11  1  0
 11 19  1  0
 12 11  2  0
 13 14  1  0
 14 15  2  0
 16 17  1  0
 16 14  1  0
 18 17  1  1
 18 20  1  0
 19 18  1  0
 20 22  1  0
 21 20  2  0
M  END
$$$$
