CSQ.pdb
     RDKit          3D

 22 21  0  0  1  0  0  0  0  0999 V2000
   13.4708   -9.5122  -10.2935 N   0  0  0  0  0  0  0  0  0  0  0  0
   14.9176   -9.4534  -10.1765 C   0  0  1  0  0  0  0  0  0  0  0  0
   15.5670  -10.6147  -10.9259 C   0  0  0  0  0  0  0  0  0  0  0  0
   15.1122  -12.1330  -10.0736 S   0  0  0  0  0  0  0  0  0  0  0  0
   15.4109   -8.1717  -10.7371 C   0  0  0  0  0  0  0  0  0  0  0  0
   15.0292   -7.7297  -11.8525 O   0  0  0  0  0  0  0  0  0  0  0  0
   17.6046   -5.8497   -8.2419 O   0  0  0  0  0  0  0  0  0  0  0  0
   17.0395   -5.2273   -9.3306 C   0  0  0  0  0  0  0  0  0  0  0  0
   16.9309   -6.1853  -10.5250 C   0  0  2  0  0  0  0  0  0  0  0  0
   16.3461   -7.4017  -10.0064 N   0  0  0  0  0  0  0  0  0  0  0  0
   18.3306   -6.4853  -10.9291 C   0  0  0  0  0  0  0  0  0  0  0  0
   18.8240   -7.5879  -10.5899 O   0  0  0  0  0  0  0  0  0  0  0  0
   19.7218   -9.1656  -14.8951 N   0  0  0  0  0  0  0  0  0  0  0  0
   21.0946   -8.8830  -14.6851 C   0  0  0  0  0  0  0  0  0  0  0  0
   22.0166   -9.4991  -15.2363 O   0  0  0  0  0  0  0  0  0  0  0  0
   21.4200   -7.7677  -13.7348 C   0  0  0  0  0  0  0  0  0  0  0  0
   20.1439   -7.2734  -13.1236 C   0  0  0  0  0  0  0  0  0  0  0  0
   20.3992   -6.1112  -12.2258 C   0  0  2  0  0  0  0  0  0  0  0  0
   19.1306   -5.6073  -11.6671 N   0  0  0  0  0  0  0  0  0  0  0  0
   21.0694   -4.9602  -12.8310 C   0  0  0  0  0  0  0  0  0  0  0  0
   20.4176   -3.9595  -13.2056 O   0  0  0  0  0  0  0  0  0  0  0  0
   22.4327   -4.9386  -13.0054 O   0  0  0  0  0  0  0  0  0  0  0  0
  2  1  1  6
  2  3  1  0
  3  4  1  0
  5  2  1  0
  5 10  1  0
  6  5  2  0
  8  7  1  0
  9  8  1  1
  9 10  1  0
  9 11  1  0
 11 19  1  0
 12 11  2  0
 13 14  1  0
 14 15  2  0
 16 17  1  0
 16 14  1  0
 18 17  1  6
 18 20  1  0
 19 18  1  0
 20 22  1  0
 21 20  2  0
M  END
$$$$
