CSQ.pdb
     RDKit          3D

 22 21  0  0  1  0  0  0  0  0999 V2000
   13.9770   -9.9779  -10.1366 N   0  0  0  0  0  0  0  0  0  0  0  0
   15.4085   -9.7640  -10.0120 C   0  0  1  0  0  0  0  0  0  0  0  0
   16.1834  -10.9086  -10.6611 C   0  0  0  0  0  0  0  0  0  0  0  0
   15.8905  -12.3882   -9.6793 S   0  0  0  0  0  0  0  0  0  0  0  0
   15.7802   -8.4867  -10.6683 C   0  0  0  0  0  0  0  0  0  0  0  0
   15.3820   -8.1780  -11.8221 O   0  0  0  0  0  0  0  0  0  0  0  0
   17.6457   -5.8393   -8.2888 O   0  0  0  0  0  0  0  0  0  0  0  0
   17.0261   -5.3000   -9.3921 C   0  0  0  0  0  0  0  0  0  0  0  0
   17.0017   -6.2964  -10.5594 C   0  0  2  0  0  0  0  0  0  0  0  0
   16.6130   -7.5668   -9.9887 N   0  0  0  0  0  0  0  0  0  0  0  0
   18.4115   -6.4124  -11.0194 C   0  0  0  0  0  0  0  0  0  0  0  0
   19.1989   -7.1232  -10.3494 O   0  0  0  0  0  0  0  0  0  0  0  0
   20.4281   -8.8741  -15.5559 N   0  0  0  0  0  0  0  0  0  0  0  0
   21.6879   -8.2966  -15.2595 C   0  0  0  0  0  0  0  0  0  0  0  0
   22.7393   -8.6042  -15.8370 O   0  0  0  0  0  0  0  0  0  0  0  0
   21.7195   -7.2551  -14.1791 C   0  0  0  0  0  0  0  0  0  0  0  0
   20.3282   -7.0698  -13.6536 C   0  0  0  0  0  0  0  0  0  0  0  0
   20.3012   -6.0491  -12.5677 C   0  0  2  0  0  0  0  0  0  0  0  0
   18.9113   -5.7733  -12.1585 N   0  0  0  0  0  0  0  0  0  0  0  0
   20.9034   -4.7533  -12.8818 C   0  0  0  0  0  0  0  0  0  0  0  0
   20.1902   -3.7520  -13.1165 O   0  0  0  0  0  0  0  0  0  0  0  0
   22.2678   -4.5925  -12.9265 O   0  0  0  0  0  0  0  0  0  0  0  0
  2  1  1  6
  2  3  1  0
  3  4  1  0
  5  2  1  0
  5 10  1  0
  6  5  2  0
  8  7  1  0
  9  8  1  1
  9 10  1  0
  9 11  1  0
 11 19  1  0
 12 11  2  0
 13 14  1  0
 14 15  2  0
 16 17  1  0
 16 14  1  0
 18 17  1  6
 18 20  1  0
 19 18  1  0
 20 22  1  0
 21 20  2  0
M  END
$$$$
