CSQ.pdb
     RDKit          3D

 22 21  0  0  1  0  0  0  0  0999 V2000
   18.6615  -12.8684  -16.7356 N   0  0  0  0  0  0  0  0  0  0  0  0
   18.8943  -11.5050  -17.1797 C   0  0  1  0  0  0  0  0  0  0  0  0
   17.5796  -10.8323  -17.5683 C   0  0  0  0  0  0  0  0  0  0  0  0
   16.9326  -11.6961  -19.0085 S   0  0  0  0  0  0  0  0  0  0  0  0
   19.5382  -10.7297  -16.0913 C   0  0  0  0  0  0  0  0  0  0  0  0
   19.1164  -10.7504  -14.9052 O   0  0  0  0  0  0  0  0  0  0  0  0
   23.2364   -9.3464  -16.9179 O   0  0  0  0  0  0  0  0  0  0  0  0
   22.8946   -9.5775  -15.6058 C   0  0  0  0  0  0  0  0  0  0  0  0
   21.4189   -9.2427  -15.3478 C   0  0  2  0  0  0  0  0  0  0  0  0
   20.6703   -9.9305  -16.3759 N   0  0  0  0  0  0  0  0  0  0  0  0
   21.2899   -7.7803  -15.5872 C   0  0  0  0  0  0  0  0  0  0  0  0
   20.7199   -7.3978  -16.6374 O   0  0  0  0  0  0  0  0  0  0  0  0
   19.1079   -4.6010  -17.6339 N   0  0  0  0  0  0  0  0  0  0  0  0
   19.3027   -3.4346  -16.8530 C   0  0  0  0  0  0  0  0  0  0  0  0
   18.9914   -2.2957  -17.2267 O   0  0  0  0  0  0  0  0  0  0  0  0
   19.9242   -3.6204  -15.4993 C   0  0  0  0  0  0  0  0  0  0  0  0
   20.1397   -5.0857  -15.2698 C   0  0  0  0  0  0  0  0  0  0  0  0
   21.5851   -5.3849  -15.0625 C   0  0  2  0  0  0  0  0  0  0  0  0
   21.7685   -6.8046  -14.7071 N   0  0  0  0  0  0  0  0  0  0  0  0
   22.2648   -4.6089  -14.0252 C   0  0  0  0  0  0  0  0  0  0  0  0
   22.3940   -5.0597  -12.8648 O   0  0  0  0  0  0  0  0  0  0  0  0
   22.7848   -3.3644  -14.2903 O   0  0  0  0  0  0  0  0  0  0  0  0
  2  1  1  1
  2  3  1  0
  3  4  1  0
  5  2  1  0
  5 10  1  0
  6  5  2  0
  8  7  1  0
  9  8  1  6
  9 10  1  0
  9 11  1  0
 11 19  1  0
 12 11  2  0
 13 14  1  0
 14 15  2  0
 16 17  1  0
 16 14  1  0
 18 17  1  1
 18 20  1  0
 19 18  1  0
 20 22  1  0
 21 20  2  0
M  END
$$$$
