CSQ.pdb
     RDKit          3D

 22 21  0  0  1  0  0  0  0  0999 V2000
   18.6482  -12.7184  -17.0184 N   0  0  0  0  0  0  0  0  0  0  0  0
   19.2052  -11.4382  -17.4199 C   0  0  1  0  0  0  0  0  0  0  0  0
   18.3199  -10.7702  -18.4695 C   0  0  0  0  0  0  0  0  0  0  0  0
   18.3345  -11.8135  -19.9359 S   0  0  0  0  0  0  0  0  0  0  0  0
   19.3170  -10.5506  -16.2367 C   0  0  0  0  0  0  0  0  0  0  0  0
   18.3576  -10.3540  -15.4454 O   0  0  0  0  0  0  0  0  0  0  0  0
   22.9845   -9.8963  -14.9265 O   0  0  0  0  0  0  0  0  0  0  0  0
   21.9439   -9.6403  -14.0642 C   0  0  0  0  0  0  0  0  0  0  0  0
   20.7366   -9.0525  -14.8079 C   0  0  2  0  0  0  0  0  0  0  0  0
   20.5394   -9.8906  -15.9695 N   0  0  0  0  0  0  0  0  0  0  0  0
   21.1689   -7.7095  -15.2793 C   0  0  0  0  0  0  0  0  0  0  0  0
   21.7744   -7.6307  -16.3753 O   0  0  0  0  0  0  0  0  0  0  0  0
   18.2936   -2.7539  -16.0615 N   0  0  0  0  0  0  0  0  0  0  0  0
   19.5690   -2.1541  -16.2099 C   0  0  0  0  0  0  0  0  0  0  0  0
   19.7415   -0.9872  -16.5868 O   0  0  0  0  0  0  0  0  0  0  0  0
   20.7613   -3.0058  -15.8843 C   0  0  0  0  0  0  0  0  0  0  0  0
   20.2795   -4.3621  -15.4664 C   0  0  0  0  0  0  0  0  0  0  0  0
   21.4261   -5.2570  -15.1405 C   0  0  2  0  0  0  0  0  0  0  0  0
   20.9388   -6.5267  -14.5697 N   0  0  0  0  0  0  0  0  0  0  0  0
   22.4101   -4.7304  -14.1947 C   0  0  0  0  0  0  0  0  0  0  0  0
   22.3921   -5.0712  -12.9905 O   0  0  0  0  0  0  0  0  0  0  0  0
   23.3856   -3.8491  -14.5963 O   0  0  0  0  0  0  0  0  0  0  0  0
  2  1  1  1
  2  3  1  0
  3  4  1  0
  5  2  1  0
  5 10  1  0
  6  5  2  0
  8  7  1  0
  9  8  1  1
  9 10  1  0
  9 11  1  0
 11 19  1  0
 12 11  2  0
 13 14  1  0
 14 15  2  0
 16 17  1  0
 16 14  1  0
 18 17  1  1
 18 20  1  0
 19 18  1  0
 20 22  1  0
 21 20  2  0
M  END
$$$$
