CSQ.pdb
     RDKit          3D

 22 21  0  0  1  0  0  0  0  0999 V2000
   13.4093  -13.2034  -11.2697 N   0  0  0  0  0  0  0  0  0  0  0  0
   14.3792  -12.1461  -11.0423 C   0  0  1  0  0  0  0  0  0  0  0  0
   15.4556  -12.1595  -12.1255 C   0  0  0  0  0  0  0  0  0  0  0  0
   16.4724  -13.6208  -11.8625 S   0  0  0  0  0  0  0  0  0  0  0  0
   13.6932  -10.8309  -11.0497 C   0  0  0  0  0  0  0  0  0  0  0  0
   12.6034  -10.6398  -11.6504 O   0  0  0  0  0  0  0  0  0  0  0  0
   12.6762   -7.0105   -8.6074 O   0  0  0  0  0  0  0  0  0  0  0  0
   13.2738   -8.2330   -8.8083 C   0  0  0  0  0  0  0  0  0  0  0  0
   13.6336   -8.4404  -10.2860 C   0  0  2  0  0  0  0  0  0  0  0  0
   14.2689   -9.7371  -10.3616 N   0  0  0  0  0  0  0  0  0  0  0  0
   14.6581   -7.4087  -10.5997 C   0  0  0  0  0  0  0  0  0  0  0  0
   15.8305   -7.5919  -10.1922 O   0  0  0  0  0  0  0  0  0  0  0  0
   15.8911   -4.5412  -15.6003 N   0  0  0  0  0  0  0  0  0  0  0  0
   16.8313   -3.8541  -14.7928 C   0  0  0  0  0  0  0  0  0  0  0  0
   17.6854   -3.0769  -15.2401 O   0  0  0  0  0  0  0  0  0  0  0  0
   16.7648   -4.1018  -13.3138 C   0  0  0  0  0  0  0  0  0  0  0  0
   15.6595   -5.0769  -13.0422 C   0  0  0  0  0  0  0  0  0  0  0  0
   15.4956   -5.3010  -11.5778 C   0  0  2  0  0  0  0  0  0  0  0  0
   14.3895   -6.2433  -11.3244 N   0  0  0  0  0  0  0  0  0  0  0  0
   15.2201   -4.1143  -10.7678 C   0  0  0  0  0  0  0  0  0  0  0  0
   14.0632   -3.8690  -10.3580 O   0  0  0  0  0  0  0  0  0  0  0  0
   16.2197   -3.2338  -10.4287 O   0  0  0  0  0  0  0  0  0  0  0  0
  2  1  1  6
  2  3  1  0
  3  4  1  0
  5  2  1  0
  5 10  1  0
  6  5  2  0
  8  7  1  0
  9  8  1  1
  9 10  1  0
  9 11  1  0
 11 19  1  0
 12 11  2  0
 13 14  1  0
 14 15  2  0
 16 17  1  0
 16 14  1  0
 18 17  1  6
 18 20  1  0
 19 18  1  0
 20 22  1  0
 21 20  2  0
M  END
$$$$
