CSQ.pdb
     RDKit          3D

 22 21  0  0  1  0  0  0  0  0999 V2000
   16.0032  -12.8158  -16.4175 N   0  0  0  0  0  0  0  0  0  0  0  0
   16.4872  -11.8749  -15.4221 C   0  0  1  0  0  0  0  0  0  0  0  0
   17.8761  -12.2765  -14.9306 C   0  0  0  0  0  0  0  0  0  0  0  0
   17.6658  -13.6046  -13.7344 S   0  0  0  0  0  0  0  0  0  0  0  0
   16.5504  -10.5151  -16.0113 C   0  0  0  0  0  0  0  0  0  0  0  0
   17.2135  -10.2582  -17.0503 O   0  0  0  0  0  0  0  0  0  0  0  0
   14.0408   -7.7800  -14.3897 O   0  0  0  0  0  0  0  0  0  0  0  0
   14.4791   -7.5228  -15.6679 C   0  0  0  0  0  0  0  0  0  0  0  0
   15.8831   -8.0977  -15.9010 C   0  0  2  0  0  0  0  0  0  0  0  0
   15.8459   -9.4527  -15.3978 N   0  0  0  0  0  0  0  0  0  0  0  0
   16.7917   -7.3085  -15.0267 C   0  0  0  0  0  0  0  0  0  0  0  0
   16.9571   -7.6900  -13.8429 O   0  0  0  0  0  0  0  0  0  0  0  0
   22.3003   -6.2437  -15.0799 N   0  0  0  0  0  0  0  0  0  0  0  0
   22.0567   -5.2756  -14.0740 C   0  0  0  0  0  0  0  0  0  0  0  0
   22.9522   -4.6894  -13.4513 O   0  0  0  0  0  0  0  0  0  0  0  0
   20.6211   -4.9629  -13.7668 C   0  0  0  0  0  0  0  0  0  0  0  0
   19.7502   -5.7673  -14.6838 C   0  0  0  0  0  0  0  0  0  0  0  0
   18.3111   -5.4421  -14.4720 C   0  0  2  0  0  0  0  0  0  0  0  0
   17.4739   -6.1632  -15.4490 N   0  0  0  0  0  0  0  0  0  0  0  0
   17.9440   -4.0299  -14.5772 C   0  0  0  0  0  0  0  0  0  0  0  0
   17.3473   -3.5934  -15.5871 O   0  0  0  0  0  0  0  0  0  0  0  0
   18.2387   -3.1391  -13.5726 O   0  0  0  0  0  0  0  0  0  0  0  0
  2  1  1  6
  2  3  1  0
  3  4  1  0
  5  2  1  0
  5 10  1  0
  6  5  2  0
  8  7  1  0
  9  8  1  1
  9 10  1  0
  9 11  1  0
 11 19  1  0
 12 11  2  0
 13 14  1  0
 14 15  2  0
 16 17  1  0
 16 14  1  0
 18 17  1  6
 18 20  1  0
 19 18  1  0
 20 22  1  0
 21 20  2  0
M  END
$$$$
