CSQ.pdb
     RDKit          3D

 22 21  0  0  1  0  0  0  0  0999 V2000
   21.6610  -12.8146  -18.9833 N   0  0  0  0  0  0  0  0  0  0  0  0
   22.3335  -11.5709  -18.6498 C   0  0  1  0  0  0  0  0  0  0  0  0
   22.6848  -10.7916  -19.9152 C   0  0  0  0  0  0  0  0  0  0  0  0
   24.0368  -11.6574  -20.7284 S   0  0  0  0  0  0  0  0  0  0  0  0
   21.4510  -10.7417  -17.7930 C   0  0  0  0  0  0  0  0  0  0  0  0
   20.2102  -10.6524  -17.9863 O   0  0  0  0  0  0  0  0  0  0  0  0
   20.9856   -8.7988  -13.4691 O   0  0  0  0  0  0  0  0  0  0  0  0
   21.6219   -9.5822  -14.4037 C   0  0  0  0  0  0  0  0  0  0  0  0
   21.2046   -9.1970  -15.8298 C   0  0  2  0  0  0  0  0  0  0  0  0
   22.0052  -10.0160  -16.7124 N   0  0  0  0  0  0  0  0  0  0  0  0
   21.6296   -7.7824  -16.0055 C   0  0  0  0  0  0  0  0  0  0  0  0
   22.8203   -7.5552  -16.3294 O   0  0  0  0  0  0  0  0  0  0  0  0
   18.5023   -2.9383  -17.8765 N   0  0  0  0  0  0  0  0  0  0  0  0
   19.7401   -2.2900  -17.6399 C   0  0  0  0  0  0  0  0  0  0  0  0
   19.9624   -1.1055  -17.9244 O   0  0  0  0  0  0  0  0  0  0  0  0
   20.8258   -3.1108  -17.0069 C   0  0  0  0  0  0  0  0  0  0  0  0
   20.3072   -4.4995  -16.7856 C   0  0  0  0  0  0  0  0  0  0  0  0
   21.3110   -5.3339  -16.0661 C   0  0  2  0  0  0  0  0  0  0  0  0
   20.7766   -6.6882  -15.8301 N   0  0  0  0  0  0  0  0  0  0  0  0
   21.7561   -4.8338  -14.7654 C   0  0  0  0  0  0  0  0  0  0  0  0
   21.2279   -5.2381  -13.7052 O   0  0  0  0  0  0  0  0  0  0  0  0
   22.7676   -3.9085  -14.6645 O   0  0  0  0  0  0  0  0  0  0  0  0
  2  1  1  6
  2  3  1  0
  3  4  1  0
  5  2  1  0
  5 10  1  0
  6  5  2  0
  8  7  1  0
  9  8  1  1
  9 10  1  0
  9 11  1  0
 11 19  1  0
 12 11  2  0
 13 14  1  0
 14 15  2  0
 16 17  1  0
 16 14  1  0
 18 17  1  1
 18 20  1  0
 19 18  1  0
 20 22  1  0
 21 20  2  0
M  END
$$$$
