CSQ.pdb
     RDKit          3D

 22 21  0  0  1  0  0  0  0  0999 V2000
   13.5801  -10.9631   -9.5019 N   0  0  0  0  0  0  0  0  0  0  0  0
   14.8963  -10.3590   -9.3879 C   0  0  1  0  0  0  0  0  0  0  0  0
   15.8920  -11.0571  -10.3116 C   0  0  0  0  0  0  0  0  0  0  0  0
   16.1879  -12.7030   -9.6464 S   0  0  0  0  0  0  0  0  0  0  0  0
   14.8179   -8.9223   -9.7486 C   0  0  0  0  0  0  0  0  0  0  0  0
   14.1283   -8.5042  -10.7154 O   0  0  0  0  0  0  0  0  0  0  0  0
   15.5500   -4.4588   -8.1479 O   0  0  0  0  0  0  0  0  0  0  0  0
   15.4371   -5.8187   -7.9756 C   0  0  0  0  0  0  0  0  0  0  0  0
   15.5498   -6.5607   -9.3146 C   0  0  2  0  0  0  0  0  0  0  0  0
   15.5378   -7.9696   -8.9899 N   0  0  0  0  0  0  0  0  0  0  0  0
   16.8966   -6.2247   -9.8491 C   0  0  0  0  0  0  0  0  0  0  0  0
   17.8963   -6.4469   -9.1242 O   0  0  0  0  0  0  0  0  0  0  0  0
   19.9677   -8.8593  -13.3875 N   0  0  0  0  0  0  0  0  0  0  0  0
   20.8879   -7.7821  -13.3538 C   0  0  0  0  0  0  0  0  0  0  0  0
   22.0432   -7.8493  -13.7948 O   0  0  0  0  0  0  0  0  0  0  0  0
   20.4073   -6.4980  -12.7428 C   0  0  0  0  0  0  0  0  0  0  0  0
   19.0358   -6.7205  -12.1810 C   0  0  0  0  0  0  0  0  0  0  0  0
   18.5032   -5.4711  -11.5670 C   0  0  2  0  0  0  0  0  0  0  0  0
   17.1136   -5.6739  -11.1160 N   0  0  0  0  0  0  0  0  0  0  0  0
   18.4902   -4.2839  -12.4219 C   0  0  0  0  0  0  0  0  0  0  0  0
   17.4114   -3.7844  -12.8134 O   0  0  0  0  0  0  0  0  0  0  0  0
   19.6581   -3.6781  -12.8198 O   0  0  0  0  0  0  0  0  0  0  0  0
  2  1  1  6
  2  3  1  0
  3  4  1  0
  5  2  1  0
  5 10  1  0
  6  5  2  0
  8  7  1  0
  9  8  1  1
  9 10  1  0
  9 11  1  0
 11 19  1  0
 12 11  2  0
 13 14  1  0
 14 15  2  0
 16 17  1  0
 16 14  1  0
 18 17  1  6
 18 20  1  0
 19 18  1  0
 20 22  1  0
 21 20  2  0
M  END
$$$$
