CSQ.pdb
     RDKit          3D

 22 21  0  0  1  0  0  0  0  0999 V2000
   14.5736   -9.8634  -16.7796 N   0  0  0  0  0  0  0  0  0  0  0  0
   15.2340   -9.3190  -15.6057 C   0  0  1  0  0  0  0  0  0  0  0  0
   15.8805  -10.4330  -14.7853 C   0  0  0  0  0  0  0  0  0  0  0  0
   14.5561  -11.4277  -14.0815 S   0  0  0  0  0  0  0  0  0  0  0  0
   16.2768   -8.3510  -16.0249 C   0  0  0  0  0  0  0  0  0  0  0  0
   17.0384   -8.5595  -17.0056 O   0  0  0  0  0  0  0  0  0  0  0  0
   16.2998   -4.7962  -14.0187 O   0  0  0  0  0  0  0  0  0  0  0  0
   16.7612   -4.7835  -15.3144 C   0  0  0  0  0  0  0  0  0  0  0  0
   17.3962   -6.1290  -15.6922 C   0  0  2  0  0  0  0  0  0  0  0  0
   16.4381   -7.1417  -15.3087 N   0  0  0  0  0  0  0  0  0  0  0  0
   18.5896   -6.2713  -14.8158 C   0  0  0  0  0  0  0  0  0  0  0  0
   18.4492   -6.8446  -13.7087 O   0  0  0  0  0  0  0  0  0  0  0  0
   22.7180   -9.6813  -15.6312 N   0  0  0  0  0  0  0  0  0  0  0  0
   23.3064   -9.1687  -14.4483 C   0  0  0  0  0  0  0  0  0  0  0  0
   24.2437   -9.7163  -13.8523 O   0  0  0  0  0  0  0  0  0  0  0  0
   22.7408   -7.8870  -13.9096 C   0  0  0  0  0  0  0  0  0  0  0  0
   21.5583   -7.4986  -14.7445 C   0  0  0  0  0  0  0  0  0  0  0  0
   21.0046   -6.1863  -14.3051 C   0  0  2  0  0  0  0  0  0  0  0  0
   19.8624   -5.8018  -15.1553 N   0  0  0  0  0  0  0  0  0  0  0  0
   21.9310   -5.0542  -14.3222 C   0  0  0  0  0  0  0  0  0  0  0  0
   21.8817   -4.1958  -15.2318 O   0  0  0  0  0  0  0  0  0  0  0  0
   22.8811   -4.8945  -13.3418 O   0  0  0  0  0  0  0  0  0  0  0  0
  2  1  1  6
  2  3  1  0
  3  4  1  0
  5  2  1  0
  5 10  1  0
  6  5  2  0
  8  7  1  0
  9  8  1  1
  9 10  1  0
  9 11  1  0
 11 19  1  0
 12 11  2  0
 13 14  1  0
 14 15  2  0
 16 17  1  0
 16 14  1  0
 18 17  1  6
 18 20  1  0
 19 18  1  0
 20 22  1  0
 21 20  2  0
M  END
$$$$
