VKD.pdb
     RDKit          3D

 25 24  0  0  1  0  0  0  0  0999 V2000
   22.3083  -11.4921  -20.1926 C   0  0  0  0  0  0  0  0  0  0  0  0
   22.2575  -12.5007  -19.0708 C   0  0  2  0  0  0  0  0  0  0  0  0
   20.8945  -13.1386  -19.0253 C   0  0  0  0  0  0  0  0  0  0  0  0
   22.5754  -11.8164  -17.7418 C   0  0  2  0  0  0  0  0  0  0  0  0
   22.5286  -12.8499  -16.7354 N   0  0  0  0  0  0  0  0  0  0  0  0
   21.5132  -10.8413  -17.4947 C   0  0  0  0  0  0  0  0  0  0  0  0
   21.4889   -9.7738  -18.1886 O   0  0  0  0  0  0  0  0  0  0  0  0
   20.4928  -11.0206  -16.5105 N   0  0  0  0  0  0  0  0  0  0  0  0
   19.5374   -9.9985  -16.1820 C   0  0  1  0  0  0  0  0  0  0  0  0
   18.1561  -10.5032  -15.9786 C   0  0  0  0  0  0  0  0  0  0  0  0
   17.1049   -9.5204  -15.6231 C   0  0  0  0  0  0  0  0  0  0  0  0
   15.7980  -10.1770  -15.3775 C   0  0  0  0  0  0  0  0  0  0  0  0
   14.6854   -9.2067  -15.0546 C   0  0  0  0  0  0  0  0  0  0  0  0
   13.4117   -9.8164  -14.9040 N   0  0  0  0  0  0  0  0  0  0  0  0
   20.0251   -9.0227  -15.1838 C   0  0  0  0  0  0  0  0  0  0  0  0
   20.3331   -9.3628  -13.9934 O   0  0  0  0  0  0  0  0  0  0  0  0
   20.1954   -7.6310  -15.4596 N   0  0  0  0  0  0  0  0  0  0  0  0
   20.7028   -6.7110  -14.4707 C   0  0  1  0  0  0  0  0  0  0  0  0
   21.9341   -6.0206  -15.0290 C   0  0  0  0  0  0  0  0  0  0  0  0
   22.4487   -4.9488  -14.1525 C   0  0  0  0  0  0  0  0  0  0  0  0
   22.3649   -5.0404  -12.9110 O   0  0  0  0  0  0  0  0  0  0  0  0
   19.6637   -5.7141  -14.1583 C   0  0  0  0  0  0  0  0  0  0  0  0
   19.6580   -5.1670  -13.0386 O   0  0  0  0  0  0  0  0  0  0  0  0
   23.0398   -3.8090  -14.6709 O   0  0  0  0  0  0  0  0  0  0  0  0
   18.7099   -5.3895  -15.0922 O   0  0  0  0  0  0  0  0  0  0  0  0
  2  1  1  6
  3  2  1  0
  4  2  1  0
  4  5  1  1
  6  7  2  0
  6  4  1  0
  8  6  1  0
  9  8  1  0
  9 10  1  1
 11 10  1  0
 11 12  1  0
 13 12  1  0
 13 14  1  0
 15  9  1  0
 16 15  2  0
 17 15  1  0
 18 22  1  0
 18 17  1  0
 18 19  1  6
 20 21  2  0
 20 19  1  0
 22 25  1  0
 23 22  2  0
 24 20  1  0
M  END
$$$$
