VKD.pdb
     RDKit          3D

 25 24  0  0  1  0  0  0  0  0999 V2000
   24.8761  -13.5026  -16.0873 C   0  0  0  0  0  0  0  0  0  0  0  0
   24.0099  -12.2740  -16.2240 C   0  0  2  0  0  0  0  0  0  0  0  0
   23.9635  -11.5391  -14.9109 C   0  0  0  0  0  0  0  0  0  0  0  0
   22.6031  -12.6763  -16.6651 C   0  0  2  0  0  0  0  0  0  0  0  0
   22.7468  -13.2789  -17.9687 N   0  0  0  0  0  0  0  0  0  0  0  0
   21.8185  -11.4465  -16.7759 C   0  0  0  0  0  0  0  0  0  0  0  0
   22.1763  -10.5668  -17.6242 O   0  0  0  0  0  0  0  0  0  0  0  0
   20.6637  -11.1745  -15.9794 N   0  0  0  0  0  0  0  0  0  0  0  0
   19.8721   -9.9850  -16.1335 C   0  0  1  0  0  0  0  0  0  0  0  0
   18.4277  -10.2434  -16.3591 C   0  0  0  0  0  0  0  0  0  0  0  0
   17.5312   -9.0736  -16.5173 C   0  0  0  0  0  0  0  0  0  0  0  0
   16.1106   -9.4816  -16.6405 C   0  0  0  0  0  0  0  0  0  0  0  0
   15.1709   -8.3274  -16.9023 C   0  0  0  0  0  0  0  0  0  0  0  0
   13.8010   -8.6977  -16.9566 N   0  0  0  0  0  0  0  0  0  0  0  0
   20.1964   -8.9206  -15.1596 C   0  0  0  0  0  0  0  0  0  0  0  0
   20.2451   -9.1391  -13.9036 O   0  0  0  0  0  0  0  0  0  0  0  0
   20.4828   -7.5713  -15.5325 N   0  0  0  0  0  0  0  0  0  0  0  0
   20.7766   -6.5525  -14.5540 C   0  0  1  0  0  0  0  0  0  0  0  0
   21.9201   -5.6956  -15.0662 C   0  0  0  0  0  0  0  0  0  0  0  0
   22.2399   -4.5596  -14.1779 C   0  0  0  0  0  0  0  0  0  0  0  0
   21.6070   -4.3763  -13.1184 O   0  0  0  0  0  0  0  0  0  0  0  0
   19.5778   -5.7214  -14.3453 C   0  0  0  0  0  0  0  0  0  0  0  0
   18.8877   -5.3858  -15.3273 O   0  0  0  0  0  0  0  0  0  0  0  0
   23.2473   -3.6603  -14.4844 O   0  0  0  0  0  0  0  0  0  0  0  0
   19.2228   -5.3203  -13.0803 O   0  0  0  0  0  0  0  0  0  0  0  0
  2  1  1  1
  3  2  1  0
  4  2  1  0
  4  5  1  6
  6  7  2  0
  6  4  1  0
  8  6  1  0
  9  8  1  0
  9 10  1  1
 11 10  1  0
 11 12  1  0
 13 12  1  0
 13 14  1  0
 15  9  1  0
 16 15  2  0
 17 15  1  0
 18 22  1  0
 18 17  1  0
 18 19  1  6
 20 21  2  0
 20 19  1  0
 22 25  1  0
 23 22  2  0
 24 20  1  0
M  END
$$$$
