VKD.pdb
     RDKit          3D

 25 24  0  0  1  0  0  0  0  0999 V2000
   19.9349  -11.1275  -20.1409 C   0  0  0  0  0  0  0  0  0  0  0  0
   21.2011  -10.4954  -20.6659 C   0  0  2  0  0  0  0  0  0  0  0  0
   21.8511  -11.4174  -21.6629 C   0  0  0  0  0  0  0  0  0  0  0  0
   22.1529  -10.1989  -19.5076 C   0  0  2  0  0  0  0  0  0  0  0  0
   22.4909  -11.4764  -18.9272 N   0  0  0  0  0  0  0  0  0  0  0  0
   21.4103   -9.3979  -18.5343 C   0  0  0  0  0  0  0  0  0  0  0  0
   20.9903   -8.2472  -18.8821 O   0  0  0  0  0  0  0  0  0  0  0  0
   21.1274   -9.8376  -17.2044 N   0  0  0  0  0  0  0  0  0  0  0  0
   20.4087   -9.0347  -16.2536 C   0  0  1  0  0  0  0  0  0  0  0  0
   19.5261   -9.8127  -15.3481 C   0  0  0  0  0  0  0  0  0  0  0  0
   18.2314  -10.2929  -15.8868 C   0  0  0  0  0  0  0  0  0  0  0  0
   17.3914  -10.9104  -14.8320 C   0  0  0  0  0  0  0  0  0  0  0  0
   16.1121  -11.5195  -15.3576 C   0  0  0  0  0  0  0  0  0  0  0  0
   15.3090  -12.1303  -14.3583 N   0  0  0  0  0  0  0  0  0  0  0  0
   21.2312   -7.9855  -15.6141 C   0  0  0  0  0  0  0  0  0  0  0  0
   22.3695   -8.2350  -15.0949 O   0  0  0  0  0  0  0  0  0  0  0  0
   20.8319   -6.6165  -15.5236 N   0  0  0  0  0  0  0  0  0  0  0  0
   21.6614   -5.6169  -14.8955 C   0  0  1  0  0  0  0  0  0  0  0  0
   21.1967   -4.2425  -15.3421 C   0  0  0  0  0  0  0  0  0  0  0  0
   21.9328   -3.1391  -14.6922 C   0  0  0  0  0  0  0  0  0  0  0  0
   23.1527   -3.2378  -14.4493 O   0  0  0  0  0  0  0  0  0  0  0  0
   21.5424   -5.7387  -13.4319 C   0  0  0  0  0  0  0  0  0  0  0  0
   20.5826   -6.3684  -12.9466 O   0  0  0  0  0  0  0  0  0  0  0  0
   21.3022   -1.9608  -14.3299 O   0  0  0  0  0  0  0  0  0  0  0  0
   22.4806   -5.1644  -12.6089 O   0  0  0  0  0  0  0  0  0  0  0  0
  2  1  1  1
  3  2  1  0
  4  2  1  0
  4  5  1  1
  6  7  2  0
  6  4  1  0
  8  6  1  0
  9  8  1  0
  9 10  1  1
 11 10  1  0
 11 12  1  0
 13 12  1  0
 13 14  1  0
 15  9  1  0
 16 15  2  0
 17 15  1  0
 18 22  1  0
 18 17  1  0
 18 19  1  6
 20 21  2  0
 20 19  1  0
 22 25  1  0
 23 22  2  0
 24 20  1  0
M  END
$$$$
