VKD.pdb
     RDKit          3D

 25 24  0  0  1  0  0  0  0  0999 V2000
   28.6151  -21.2349  -18.2512 C   0  0  0  0  0  0  0  0  0  0  0  0
   27.4368  -21.2145  -17.3079 C   0  0  2  0  0  0  0  0  0  0  0  0
   27.0417  -19.7899  -17.0230 C   0  0  0  0  0  0  0  0  0  0  0  0
   27.7951  -21.9424  -16.0128 C   0  0  2  0  0  0  0  0  0  0  0  0
   27.9350  -23.3364  -16.3600 N   0  0  0  0  0  0  0  0  0  0  0  0
   26.6658  -21.7747  -15.0981 C   0  0  0  0  0  0  0  0  0  0  0  0
   25.5344  -22.2573  -15.4279 O   0  0  0  0  0  0  0  0  0  0  0  0
   26.7614  -21.0945  -13.8451 N   0  0  0  0  0  0  0  0  0  0  0  0
   25.6355  -20.9048  -12.9724 C   0  0  1  0  0  0  0  0  0  0  0  0
   26.0009  -20.5052  -11.5900 C   0  0  0  0  0  0  0  0  0  0  0  0
   24.9105  -20.0785  -10.6812 C   0  0  0  0  0  0  0  0  0  0  0  0
   24.2592  -21.2362  -10.0214 C   0  0  0  0  0  0  0  0  0  0  0  0
   23.0919  -20.8525   -9.1417 C   0  0  0  0  0  0  0  0  0  0  0  0
   22.4688  -21.9525   -8.4950 N   0  0  0  0  0  0  0  0  0  0  0  0
   24.5193  -20.1573  -13.5902 C   0  0  0  0  0  0  0  0  0  0  0  0
   24.6200  -18.9270  -13.9125 O   0  0  0  0  0  0  0  0  0  0  0  0
   23.2463  -20.7380  -13.8800 N   0  0  0  0  0  0  0  0  0  0  0  0
   22.1404  -19.9523  -14.3714 C   0  0  1  0  0  0  0  0  0  0  0  0
   21.9638  -20.2272  -15.8539 C   0  0  0  0  0  0  0  0  0  0  0  0
   21.9358  -21.6675  -16.1800 C   0  0  0  0  0  0  0  0  0  0  0  0
   21.9556  -22.5295  -15.2781 O   0  0  0  0  0  0  0  0  0  0  0  0
   20.9174  -20.3268  -13.6398 C   0  0  0  0  0  0  0  0  0  0  0  0
   20.9664  -21.2406  -12.7938 O   0  0  0  0  0  0  0  0  0  0  0  0
   21.8868  -22.1138  -17.4898 O   0  0  0  0  0  0  0  0  0  0  0  0
   19.7336  -19.6749  -13.8868 O   0  0  0  0  0  0  0  0  0  0  0  0
  2  1  1  6
  3  2  1  0
  4  2  1  0
  4  5  1  6
  6  7  2  0
  6  4  1  0
  8  6  1  0
  9  8  1  0
  9 10  1  1
 11 10  1  0
 11 12  1  0
 13 12  1  0
 13 14  1  0
 15  9  1  0
 16 15  2  0
 17 15  1  0
 18 22  1  0
 18 17  1  0
 18 19  1  6
 20 21  2  0
 20 19  1  0
 22 25  1  0
 23 22  2  0
 24 20  1  0
M  END
$$$$
