VKD.pdb
     RDKit          3D

 25 24  0  0  1  0  0  0  0  0999 V2000
   29.3493  -12.9444  -17.0418 C   0  0  0  0  0  0  0  0  0  0  0  0
   28.1557  -12.0940  -17.4034 C   0  0  2  0  0  0  0  0  0  0  0  0
   28.6197  -10.8364  -18.0888 C   0  0  0  0  0  0  0  0  0  0  0  0
   27.3571  -11.7572  -16.1448 C   0  0  2  0  0  0  0  0  0  0  0  0
   26.9935  -13.0204  -15.5487 N   0  0  0  0  0  0  0  0  0  0  0  0
   26.1502  -11.0520  -16.5766 C   0  0  0  0  0  0  0  0  0  0  0  0
   26.2647   -9.8735  -17.0454 O   0  0  0  0  0  0  0  0  0  0  0  0
   24.8392  -11.6156  -16.5015 N   0  0  0  0  0  0  0  0  0  0  0  0
   23.6558  -10.8910  -16.8752 C   0  0  1  0  0  0  0  0  0  0  0  0
   22.5646  -11.7457  -17.4070 C   0  0  0  0  0  0  0  0  0  0  0  0
   21.3179  -11.0796  -17.8533 C   0  0  0  0  0  0  0  0  0  0  0  0
   20.3337  -12.0532  -18.3852 C   0  0  0  0  0  0  0  0  0  0  0  0
   19.0588  -11.4128  -18.8835 C   0  0  0  0  0  0  0  0  0  0  0  0
   18.1037  -12.3376  -19.3828 N   0  0  0  0  0  0  0  0  0  0  0  0
   23.2528   -9.8585  -15.8964 C   0  0  0  0  0  0  0  0  0  0  0  0
   23.2445  -10.0782  -14.6397 O   0  0  0  0  0  0  0  0  0  0  0  0
   22.8446   -8.5396  -16.2646 N   0  0  0  0  0  0  0  0  0  0  0  0
   22.5386   -7.5300  -15.2803 C   0  0  1  0  0  0  0  0  0  0  0  0
   22.7289   -6.1604  -15.9067 C   0  0  0  0  0  0  0  0  0  0  0  0
   22.3807   -5.0503  -14.9968 C   0  0  0  0  0  0  0  0  0  0  0  0
   22.0735   -5.2686  -13.8073 O   0  0  0  0  0  0  0  0  0  0  0  0
   21.1426   -7.6926  -14.8376 C   0  0  0  0  0  0  0  0  0  0  0  0
   20.8637   -7.5550  -13.6307 O   0  0  0  0  0  0  0  0  0  0  0  0
   22.3816   -3.7336  -15.4254 O   0  0  0  0  0  0  0  0  0  0  0  0
   20.1566   -7.9923  -15.7460 O   0  0  0  0  0  0  0  0  0  0  0  0
  2  1  1  1
  3  2  1  0
  4  2  1  0
  4  5  1  6
  6  7  2  0
  6  4  1  0
  8  6  1  0
  9  8  1  0
  9 10  1  1
 11 10  1  0
 11 12  1  0
 13 12  1  0
 13 14  1  0
 15  9  1  0
 16 15  2  0
 17 15  1  0
 18 22  1  0
 18 17  1  0
 18 19  1  6
 20 21  2  0
 20 19  1  0
 22 25  1  0
 23 22  2  0
 24 20  1  0
M  END
$$$$
