VKD.pdb
     RDKit          3D

 25 24  0  0  1  0  0  0  0  0999 V2000
   23.4018  -18.8189  -20.7693 C   0  0  0  0  0  0  0  0  0  0  0  0
   24.2451  -17.8929  -19.9268 C   0  0  2  0  0  0  0  0  0  0  0  0
   25.4520  -18.6333  -19.4149 C   0  0  0  0  0  0  0  0  0  0  0  0
   23.4157  -17.3479  -18.7646 C   0  0  2  0  0  0  0  0  0  0  0  0
   24.2215  -16.3267  -18.1392 N   0  0  0  0  0  0  0  0  0  0  0  0
   23.2087  -18.4526  -17.8280 C   0  0  0  0  0  0  0  0  0  0  0  0
   22.4750  -19.4296  -18.1869 O   0  0  0  0  0  0  0  0  0  0  0  0
   23.7881  -18.4976  -16.5226 N   0  0  0  0  0  0  0  0  0  0  0  0
   23.5266  -19.5584  -15.5891 C   0  0  1  0  0  0  0  0  0  0  0  0
   24.5530  -19.6962  -14.5253 C   0  0  0  0  0  0  0  0  0  0  0  0
   24.4071  -20.8136  -13.5624 C   0  0  0  0  0  0  0  0  0  0  0  0
   24.6842  -22.1257  -14.1958 C   0  0  0  0  0  0  0  0  0  0  0  0
   24.4638  -23.3013  -13.2722 C   0  0  0  0  0  0  0  0  0  0  0  0
   24.6862  -24.5649  -13.8809 N   0  0  0  0  0  0  0  0  0  0  0  0
   22.1181  -19.6302  -15.1447 C   0  0  0  0  0  0  0  0  0  0  0  0
   21.5773  -18.7106  -14.4451 O   0  0  0  0  0  0  0  0  0  0  0  0
   21.2475  -20.7195  -15.4566 N   0  0  0  0  0  0  0  0  0  0  0  0
   19.8871  -20.7733  -14.9789 C   0  0  1  0  0  0  0  0  0  0  0  0
   19.1771  -21.9353  -15.6498 C   0  0  0  0  0  0  0  0  0  0  0  0
   17.7335  -21.9916  -15.3426 C   0  0  0  0  0  0  0  0  0  0  0  0
   17.2103  -21.1654  -14.5677 O   0  0  0  0  0  0  0  0  0  0  0  0
   19.8941  -20.9625  -13.5175 C   0  0  0  0  0  0  0  0  0  0  0  0
   20.7027  -21.7625  -13.0083 O   0  0  0  0  0  0  0  0  0  0  0  0
   16.9106  -22.9564  -15.8987 O   0  0  0  0  0  0  0  0  0  0  0  0
   19.0184  -20.2633  -12.7228 O   0  0  0  0  0  0  0  0  0  0  0  0
  2  1  1  1
  3  2  1  0
  4  2  1  0
  4  5  1  1
  6  7  2  0
  6  4  1  0
  8  6  1  0
  9  8  1  0
  9 10  1  1
 11 10  1  0
 11 12  1  0
 13 12  1  0
 13 14  1  0
 15  9  1  0
 16 15  2  0
 17 15  1  0
 18 22  1  0
 18 17  1  0
 18 19  1  6
 20 21  2  0
 20 19  1  0
 22 25  1  0
 23 22  2  0
 24 20  1  0
M  END
$$$$
