VKD.pdb
     RDKit          3D

 25 24  0  0  1  0  0  0  0  0999 V2000
   25.1299  -14.8161  -17.1559 C   0  0  0  0  0  0  0  0  0  0  0  0
   26.1364  -13.8245  -17.6870 C   0  0  2  0  0  0  0  0  0  0  0  0
   27.5298  -14.3490  -17.4634 C   0  0  0  0  0  0  0  0  0  0  0  0
   25.9522  -12.4750  -16.9937 C   0  0  2  0  0  0  0  0  0  0  0  0
   26.1868  -12.7088  -15.5889 N   0  0  0  0  0  0  0  0  0  0  0  0
   24.5610  -12.0718  -17.1992 C   0  0  0  0  0  0  0  0  0  0  0  0
   24.1661  -11.8173  -18.3828 O   0  0  0  0  0  0  0  0  0  0  0  0
   23.6123  -11.9464  -16.1379 N   0  0  0  0  0  0  0  0  0  0  0  0
   22.2856  -11.4303  -16.3344 C   0  0  1  0  0  0  0  0  0  0  0  0
   21.2103  -12.4372  -16.1500 C   0  0  0  0  0  0  0  0  0  0  0  0
   19.8085  -11.9978  -16.3478 C   0  0  0  0  0  0  0  0  0  0  0  0
   18.8529  -13.1218  -16.1963 C   0  0  0  0  0  0  0  0  0  0  0  0
   17.4056  -12.7057  -16.3229 C   0  0  0  0  0  0  0  0  0  0  0  0
   16.4825  -13.7776  -16.1977 N   0  0  0  0  0  0  0  0  0  0  0  0
   22.0565  -10.1134  -15.7020 C   0  0  0  0  0  0  0  0  0  0  0  0
   22.2206   -9.9210  -14.4516 O   0  0  0  0  0  0  0  0  0  0  0  0
   21.6391   -8.9537  -16.4248 N   0  0  0  0  0  0  0  0  0  0  0  0
   21.3825   -7.6942  -15.7693 C   0  0  1  0  0  0  0  0  0  0  0  0
   21.2190   -6.6159  -16.8252 C   0  0  0  0  0  0  0  0  0  0  0  0
   20.9848   -5.2734  -16.2554 C   0  0  0  0  0  0  0  0  0  0  0  0
   21.0312   -5.0830  -15.0232 O   0  0  0  0  0  0  0  0  0  0  0  0
   20.1506   -7.8071  -14.9688 C   0  0  0  0  0  0  0  0  0  0  0  0
   19.1189   -8.2669  -15.4955 O   0  0  0  0  0  0  0  0  0  0  0  0
   20.7067   -4.1820  -17.0609 O   0  0  0  0  0  0  0  0  0  0  0  0
   20.1384   -7.4101  -13.6537 O   0  0  0  0  0  0  0  0  0  0  0  0
  2  1  1  1
  3  2  1  0
  4  2  1  0
  4  5  1  1
  6  7  2  0
  6  4  1  0
  8  6  1  0
  9  8  1  0
  9 10  1  1
 11 10  1  0
 11 12  1  0
 13 12  1  0
 13 14  1  0
 15  9  1  0
 16 15  2  0
 17 15  1  0
 18 22  1  0
 18 17  1  0
 18 19  1  6
 20 21  2  0
 20 19  1  0
 22 25  1  0
 23 22  2  0
 24 20  1  0
M  END
$$$$
