VKD.pdb
     RDKit          3D

 25 24  0  0  1  0  0  0  0  0999 V2000
   27.2708  -11.5516  -16.0192 C   0  0  0  0  0  0  0  0  0  0  0  0
   26.0044  -10.7444  -16.1707 C   0  0  2  0  0  0  0  0  0  0  0  0
   26.0062   -9.6098  -15.1812 C   0  0  0  0  0  0  0  0  0  0  0  0
   24.7867  -11.6428  -15.9565 C   0  0  2  0  0  0  0  0  0  0  0  0
   24.8631  -12.6718  -16.9657 N   0  0  0  0  0  0  0  0  0  0  0  0
   23.5989  -10.8193  -16.1831 C   0  0  0  0  0  0  0  0  0  0  0  0
   23.3912  -10.3529  -17.3497 O   0  0  0  0  0  0  0  0  0  0  0  0
   22.6508  -10.5063  -15.1608 N   0  0  0  0  0  0  0  0  0  0  0  0
   21.5148   -9.6550  -15.3845 C   0  0  1  0  0  0  0  0  0  0  0  0
   20.2061  -10.3421  -15.2460 C   0  0  0  0  0  0  0  0  0  0  0  0
   18.9801   -9.5635  -15.5423 C   0  0  0  0  0  0  0  0  0  0  0  0
   17.7586  -10.3974  -15.4329 C   0  0  0  0  0  0  0  0  0  0  0  0
   16.5059   -9.7000  -15.9107 C   0  0  0  0  0  0  0  0  0  0  0  0
   15.3434  -10.5152  -15.8825 N   0  0  0  0  0  0  0  0  0  0  0  0
   21.6237   -8.3302  -14.7369 C   0  0  0  0  0  0  0  0  0  0  0  0
   22.0430   -8.1899  -13.5402 O   0  0  0  0  0  0  0  0  0  0  0  0
   21.2764   -7.1049  -15.3849 N   0  0  0  0  0  0  0  0  0  0  0  0
   21.3587   -5.8321  -14.7104 C   0  0  1  0  0  0  0  0  0  0  0  0
   22.4444   -4.9984  -15.3665 C   0  0  0  0  0  0  0  0  0  0  0  0
   22.5705   -3.6457  -14.7868 C   0  0  0  0  0  0  0  0  0  0  0  0
   22.3372   -3.4419  -13.5782 O   0  0  0  0  0  0  0  0  0  0  0  0
   20.0605   -5.1431  -14.8163 C   0  0  0  0  0  0  0  0  0  0  0  0
   19.2548   -5.4892  -15.7020 O   0  0  0  0  0  0  0  0  0  0  0  0
   22.9500   -2.5591  -15.5566 O   0  0  0  0  0  0  0  0  0  0  0  0
   19.7398   -4.1288  -13.9470 O   0  0  0  0  0  0  0  0  0  0  0  0
  2  1  1  1
  3  2  1  0
  4  2  1  0
  4  5  1  6
  6  7  2  0
  6  4  1  0
  8  6  1  0
  9  8  1  0
  9 10  1  1
 11 10  1  0
 11 12  1  0
 13 12  1  0
 13 14  1  0
 15  9  1  0
 16 15  2  0
 17 15  1  0
 18 22  1  0
 18 17  1  0
 18 19  1  6
 20 21  2  0
 20 19  1  0
 22 25  1  0
 23 22  2  0
 24 20  1  0
M  END
$$$$
