VKD.pdb
     RDKit          3D

 25 24  0  0  1  0  0  0  0  0999 V2000
   17.2218  -13.3993  -17.5420 C   0  0  0  0  0  0  0  0  0  0  0  0
   18.7189  -13.2389  -17.4351 C   0  0  2  0  0  0  0  0  0  0  0  0
   19.3548  -14.5803  -17.1842 C   0  0  0  0  0  0  0  0  0  0  0  0
   19.0580  -12.2639  -16.3081 C   0  0  2  0  0  0  0  0  0  0  0  0
   18.7006  -12.9299  -15.0785 N   0  0  0  0  0  0  0  0  0  0  0  0
   18.2132  -11.0836  -16.4912 C   0  0  0  0  0  0  0  0  0  0  0  0
   18.3680  -10.3770  -17.5392 O   0  0  0  0  0  0  0  0  0  0  0  0
   17.2160  -10.6755  -15.5527 N   0  0  0  0  0  0  0  0  0  0  0  0
   16.5032   -9.4324  -15.6626 C   0  0  1  0  0  0  0  0  0  0  0  0
   15.1476   -9.4557  -15.0577 C   0  0  0  0  0  0  0  0  0  0  0  0
   14.3254   -8.2261  -15.1530 C   0  0  0  0  0  0  0  0  0  0  0  0
   13.0457   -8.3612  -14.4156 C   0  0  0  0  0  0  0  0  0  0  0  0
   12.1842   -7.1207  -14.4680 C   0  0  0  0  0  0  0  0  0  0  0  0
   11.0484   -7.1689  -13.6169 N   0  0  0  0  0  0  0  0  0  0  0  0
   17.3274   -8.2420  -15.3622 C   0  0  0  0  0  0  0  0  0  0  0  0
   18.1451   -8.2096  -14.3836 O   0  0  0  0  0  0  0  0  0  0  0  0
   17.2844   -7.0388  -16.1317 N   0  0  0  0  0  0  0  0  0  0  0  0
   18.0990   -5.8929  -15.8071 C   0  0  1  0  0  0  0  0  0  0  0  0
   18.6973   -5.3379  -17.0871 C   0  0  0  0  0  0  0  0  0  0  0  0
   19.4302   -4.0713  -16.8861 C   0  0  0  0  0  0  0  0  0  0  0  0
   19.5924   -3.5990  -15.7426 O   0  0  0  0  0  0  0  0  0  0  0  0
   17.2598   -4.8704  -15.1579 C   0  0  0  0  0  0  0  0  0  0  0  0
   17.7743   -4.0903  -14.3334 O   0  0  0  0  0  0  0  0  0  0  0  0
   19.9618   -3.3640  -17.9511 O   0  0  0  0  0  0  0  0  0  0  0  0
   15.9226   -4.7766  -15.4585 O   0  0  0  0  0  0  0  0  0  0  0  0
  2  1  1  1
  3  2  1  0
  4  2  1  0
  4  5  1  1
  6  7  2  0
  6  4  1  0
  8  6  1  0
  9  8  1  0
  9 10  1  1
 11 10  1  0
 11 12  1  0
 13 12  1  0
 13 14  1  0
 15  9  1  0
 16 15  2  0
 17 15  1  0
 18 22  1  0
 18 17  1  0
 18 19  1  6
 20 21  2  0
 20 19  1  0
 22 25  1  0
 23 22  2  0
 24 20  1  0
M  END
$$$$
