VKD.pdb
     RDKit          3D

 25 24  0  0  1  0  0  0  0  0999 V2000
   17.2549  -13.2676  -16.3945 C   0  0  0  0  0  0  0  0  0  0  0  0
   16.5362  -12.7349  -15.1787 C   0  0  2  0  0  0  0  0  0  0  0  0
   15.1133  -13.2270  -15.1761 C   0  0  0  0  0  0  0  0  0  0  0  0
   16.5767  -11.2071  -15.1788 C   0  0  2  0  0  0  0  0  0  0  0  0
   15.7861  -10.7836  -16.3096 N   0  0  0  0  0  0  0  0  0  0  0  0
   17.9714  -10.8135  -15.3793 C   0  0  0  0  0  0  0  0  0  0  0  0
   18.8163  -11.0648  -14.4602 O   0  0  0  0  0  0  0  0  0  0  0  0
   18.4431  -10.1575  -16.5578 N   0  0  0  0  0  0  0  0  0  0  0  0
   19.7915   -9.6812  -16.6991 C   0  0  1  0  0  0  0  0  0  0  0  0
   20.4400  -10.0679  -17.9773 C   0  0  0  0  0  0  0  0  0  0  0  0
   21.8440   -9.6465  -18.1971 C   0  0  0  0  0  0  0  0  0  0  0  0
   22.3417  -10.0641  -19.5303 C   0  0  0  0  0  0  0  0  0  0  0  0
   23.7343   -9.5650  -19.8391 C   0  0  0  0  0  0  0  0  0  0  0  0
   24.1928   -9.8983  -21.1411 N   0  0  0  0  0  0  0  0  0  0  0  0
   19.9768   -8.2763  -16.2767 C   0  0  0  0  0  0  0  0  0  0  0  0
   19.1905   -7.3438  -16.6506 O   0  0  0  0  0  0  0  0  0  0  0  0
   21.0366   -7.8432  -15.4217 N   0  0  0  0  0  0  0  0  0  0  0  0
   21.2019   -6.4595  -15.0479 C   0  0  1  0  0  0  0  0  0  0  0  0
   21.7675   -6.3956  -13.6407 C   0  0  0  0  0  0  0  0  0  0  0  0
   22.1036   -5.0234  -13.2097 C   0  0  0  0  0  0  0  0  0  0  0  0
   21.2208   -4.1468  -13.1153 O   0  0  0  0  0  0  0  0  0  0  0  0
   22.1268   -5.8096  -15.9932 C   0  0  0  0  0  0  0  0  0  0  0  0
   23.0358   -6.4810  -16.5188 O   0  0  0  0  0  0  0  0  0  0  0  0
   23.4022   -4.6592  -12.8960 O   0  0  0  0  0  0  0  0  0  0  0  0
   21.9889   -4.4762  -16.2936 O   0  0  0  0  0  0  0  0  0  0  0  0
  2  1  1  6
  3  2  1  0
  4  2  1  0
  4  5  1  6
  6  7  2  0
  6  4  1  0
  8  6  1  0
  9  8  1  0
  9 10  1  6
 11 10  1  0
 11 12  1  0
 13 12  1  0
 13 14  1  0
 15  9  1  0
 16 15  2  0
 17 15  1  0
 18 22  1  0
 18 17  1  0
 18 19  1  1
 20 21  2  0
 20 19  1  0
 22 25  1  0
 23 22  2  0
 24 20  1  0
M  END
$$$$
