MQT.pdb
     RDKit          3D

 25 24  0  0  1  0  0  0  0  0999 V2000
    8.2686  -11.2792   19.9787 C   0  0  0  0  0  0  0  0  0  0  0  0
    7.0364  -12.4150   19.2800 S   0  0  0  0  0  0  0  0  0  0  0  0
    7.6452  -14.1113   19.6407 C   0  0  0  0  0  0  0  0  0  0  0  0
    7.3937  -14.4137   21.0741 C   0  0  0  0  0  0  0  0  0  0  0  0
    7.8745  -15.7423   21.5358 C   0  0  2  0  0  0  0  0  0  0  0  0
    7.2744  -16.8245   20.7345 N   0  0  0  0  0  0  0  0  0  0  0  0
    7.5593  -15.9346   22.9731 C   0  0  0  0  0  0  0  0  0  0  0  0
    7.0248  -15.0387   23.6768 O   0  0  0  0  0  0  0  0  0  0  0  0
    7.1711  -21.3157   26.1857 N   0  0  0  0  0  0  0  0  0  0  0  0
    6.2209  -20.7662   25.2868 C   0  0  0  0  0  0  0  0  0  0  0  0
    5.2796  -21.5023   24.8528 O   0  0  0  0  0  0  0  0  0  0  0  0
    6.3154  -19.3358   24.8466 C   0  0  0  0  0  0  0  0  0  0  0  0
    7.5260  -18.6899   25.5333 C   0  0  0  0  0  0  0  0  0  0  0  0
    7.6978  -17.2684   25.0591 C   0  0  2  0  0  0  0  0  0  0  0  0
    7.8462  -17.1551   23.6465 N   0  0  0  0  0  0  0  0  0  0  0  0
    8.8414  -16.6916   25.8161 C   0  0  0  0  0  0  0  0  0  0  0  0
   10.0238  -16.7703   25.4504 O   0  0  0  0  0  0  0  0  0  0  0  0
    9.2267  -13.1183   27.0264 C   0  0  0  0  0  0  0  0  0  0  0  0
    9.3044  -14.0164   28.2457 C   0  0  1  0  0  0  0  0  0  0  0  0
    8.0266  -14.0891   28.7982 O   0  0  0  0  0  0  0  0  0  0  0  0
    9.6647  -15.3967   27.7703 C   0  0  2  0  0  0  0  0  0  0  0  0
    8.5567  -16.0107   27.0294 N   0  0  0  0  0  0  0  0  0  0  0  0
    9.9379  -16.2324   28.9789 C   0  0  0  0  0  0  0  0  0  0  0  0
    9.2168  -17.3486   29.2996 O   0  0  0  0  0  0  0  0  0  0  0  0
   10.8862  -15.9188   29.7775 O   0  0  0  0  0  0  0  0  0  0  0  0
  2  1  1  0
  3  2  1  0
  4  5  1  0
  4  3  1  0
  5  7  1  0
  5  6  1  6
  7  8  2  0
 10  9  1  0
 10 12  1  0
 11 10  2  0
 13 12  1  0
 14 13  1  6
 14 15  1  0
 15  7  1  0
 16 14  1  0
 17 16  2  0
 19 18  1  6
 19 21  1  0
 20 19  1  0
 21 22  1  1
 21 23  1  0
 22 16  1  0
 23 24  1  0
 25 23  2  0
M  END
$$$$
