MQT.pdb
     RDKit          3D

 25 24  0  0  1  0  0  0  0  0999 V2000
    6.7952  -11.5430   26.3978 C   0  0  0  0  0  0  0  0  0  0  0  0
    6.9109  -12.4936   27.9405 S   0  0  0  0  0  0  0  0  0  0  0  0
    6.5070  -14.2315   27.4991 C   0  0  0  0  0  0  0  0  0  0  0  0
    7.1458  -14.5537   26.1962 C   0  0  0  0  0  0  0  0  0  0  0  0
    6.3629  -15.4564   25.3122 C   0  0  2  0  0  0  0  0  0  0  0  0
    6.2002  -16.7845   25.9311 N   0  0  0  0  0  0  0  0  0  0  0  0
    7.0244  -15.5855   23.9901 C   0  0  0  0  0  0  0  0  0  0  0  0
    7.4983  -16.6732   23.5713 O   0  0  0  0  0  0  0  0  0  0  0  0
    7.2570  -13.2098   18.0808 N   0  0  0  0  0  0  0  0  0  0  0  0
    8.1527  -14.0172   18.8281 C   0  0  0  0  0  0  0  0  0  0  0  0
    8.2635  -15.2506   18.5403 O   0  0  0  0  0  0  0  0  0  0  0  0
    8.9643  -13.4343   19.9463 C   0  0  0  0  0  0  0  0  0  0  0  0
    8.0590  -13.2652   21.1735 C   0  0  0  0  0  0  0  0  0  0  0  0
    7.9708  -14.5616   21.9393 C   0  0  2  0  0  0  0  0  0  0  0  0
    7.1631  -14.4757   23.1100 N   0  0  0  0  0  0  0  0  0  0  0  0
    9.3652  -14.9974   22.2208 C   0  0  0  0  0  0  0  0  0  0  0  0
   10.1734  -14.3402   22.8939 O   0  0  0  0  0  0  0  0  0  0  0  0
   10.7755  -18.3680   23.6265 C   0  0  0  0  0  0  0  0  0  0  0  0
   11.2424  -18.1505   22.2003 C   0  0  1  0  0  0  0  0  0  0  0  0
   10.3255  -18.7751   21.3564 O   0  0  0  0  0  0  0  0  0  0  0  0
   11.1736  -16.6746   21.9206 C   0  0  2  0  0  0  0  0  0  0  0  0
    9.7915  -16.2414   21.6845 N   0  0  0  0  0  0  0  0  0  0  0  0
   11.9631  -16.4144   20.6785 C   0  0  0  0  0  0  0  0  0  0  0  0
   13.3201  -16.5629   20.6055 O   0  0  0  0  0  0  0  0  0  0  0  0
   11.3743  -16.0317   19.6098 O   0  0  0  0  0  0  0  0  0  0  0  0
  2  1  1  0
  3  2  1  0
  4  5  1  0
  4  3  1  0
  5  7  1  0
  5  6  1  1
  7  8  2  0
 10  9  1  0
 10 12  1  0
 11 10  2  0
 13 12  1  0
 14 13  1  1
 14 15  1  0
 15  7  1  0
 16 14  1  0
 17 16  2  0
 19 18  1  1
 19 21  1  0
 20 19  1  0
 21 22  1  6
 21 23  1  0
 22 16  1  0
 23 24  1  0
 25 23  2  0
M  END
$$$$
