MQT.pdb
     RDKit          3D

 25 24  0  0  1  0  0  0  0  0999 V2000
    7.9529  -11.3681   19.0159 C   0  0  0  0  0  0  0  0  0  0  0  0
    7.8035  -12.3560   20.5320 S   0  0  0  0  0  0  0  0  0  0  0  0
    6.8413  -13.8528   20.0715 C   0  0  0  0  0  0  0  0  0  0  0  0
    6.5461  -14.6284   21.3046 C   0  0  0  0  0  0  0  0  0  0  0  0
    7.5843  -15.6177   21.6955 C   0  0  2  0  0  0  0  0  0  0  0  0
    7.4062  -16.8828   20.9599 N   0  0  0  0  0  0  0  0  0  0  0  0
    7.5374  -15.8649   23.1579 C   0  0  0  0  0  0  0  0  0  0  0  0
    7.3942  -14.9398   23.9987 O   0  0  0  0  0  0  0  0  0  0  0  0
    7.3278  -21.4350   26.3402 N   0  0  0  0  0  0  0  0  0  0  0  0
    7.2526  -20.4433   27.3519 C   0  0  0  0  0  0  0  0  0  0  0  0
    7.0916  -20.8018   28.5610 O   0  0  0  0  0  0  0  0  0  0  0  0
    7.3603  -18.9869   27.0116 C   0  0  0  0  0  0  0  0  0  0  0  0
    7.4788  -18.8462   25.4883 C   0  0  0  0  0  0  0  0  0  0  0  0
    7.6254  -17.3940   25.1083 C   0  0  2  0  0  0  0  0  0  0  0  0
    7.6533  -17.1755   23.7005 N   0  0  0  0  0  0  0  0  0  0  0  0
    8.8362  -16.8813   25.8044 C   0  0  0  0  0  0  0  0  0  0  0  0
    9.9974  -17.1546   25.4656 O   0  0  0  0  0  0  0  0  0  0  0  0
    9.4771  -13.1760   26.7973 C   0  0  0  0  0  0  0  0  0  0  0  0
    9.5661  -14.0455   28.0363 C   0  0  1  0  0  0  0  0  0  0  0  0
    8.3158  -14.0313   28.6524 O   0  0  0  0  0  0  0  0  0  0  0  0
    9.8249  -15.4558   27.5832 C   0  0  2  0  0  0  0  0  0  0  0  0
    8.6454  -16.0279   26.9234 N   0  0  0  0  0  0  0  0  0  0  0  0
   10.1215  -16.2724   28.7994 C   0  0  0  0  0  0  0  0  0  0  0  0
   11.1786  -16.0261   29.6306 O   0  0  0  0  0  0  0  0  0  0  0  0
    9.3708  -17.2597   29.1107 O   0  0  0  0  0  0  0  0  0  0  0  0
  2  1  1  0
  3  2  1  0
  4  5  1  0
  4  3  1  0
  5  7  1  0
  5  6  1  6
  7  8  2  0
 10  9  1  0
 10 12  1  0
 11 10  2  0
 13 12  1  0
 14 13  1  6
 14 15  1  0
 15  7  1  0
 16 14  1  0
 17 16  2  0
 19 18  1  6
 19 21  1  0
 20 19  1  0
 21 22  1  1
 21 23  1  0
 22 16  1  0
 23 24  1  0
 25 23  2  0
M  END
$$$$
