MQT.pdb
     RDKit          3D

 25 24  0  0  1  0  0  0  0  0999 V2000
    6.7780  -11.1496   25.8824 C   0  0  0  0  0  0  0  0  0  0  0  0
    6.7256  -12.9535   26.0824 S   0  0  0  0  0  0  0  0  0  0  0  0
    6.2579  -13.6344   24.4405 C   0  0  0  0  0  0  0  0  0  0  0  0
    7.4112  -13.4833   23.5152 C   0  0  0  0  0  0  0  0  0  0  0  0
    7.7092  -14.6719   22.6738 C   0  0  2  0  0  0  0  0  0  0  0  0
    6.4795  -15.4327   22.3868 N   0  0  0  0  0  0  0  0  0  0  0  0
    8.7051  -15.5433   23.3453 C   0  0  0  0  0  0  0  0  0  0  0  0
    8.3937  -16.6307   23.8965 O   0  0  0  0  0  0  0  0  0  0  0  0
   15.7472  -16.2285   23.1077 N   0  0  0  0  0  0  0  0  0  0  0  0
   14.6042  -17.0446   22.9065 C   0  0  0  0  0  0  0  0  0  0  0  0
   14.6000  -17.8808   21.9489 O   0  0  0  0  0  0  0  0  0  0  0  0
   13.4096  -16.9313   23.8059 C   0  0  0  0  0  0  0  0  0  0  0  0
   12.2903  -16.2073   23.0462 C   0  0  0  0  0  0  0  0  0  0  0  0
   11.0525  -16.1160   23.9034 C   0  0  2  0  0  0  0  0  0  0  0  0
   10.0841  -15.1967   23.4061 N   0  0  0  0  0  0  0  0  0  0  0  0
   11.5022  -15.8016   25.2864 C   0  0  0  0  0  0  0  0  0  0  0  0
   12.4023  -14.9917   25.5544 O   0  0  0  0  0  0  0  0  0  0  0  0
   10.3042  -14.0342   27.9764 C   0  0  0  0  0  0  0  0  0  0  0  0
   10.3238  -15.4480   28.5241 C   0  0  1  0  0  0  0  0  0  0  0  0
    9.0738  -16.0134   28.2771 O   0  0  0  0  0  0  0  0  0  0  0  0
   11.3326  -16.2290   27.7281 C   0  0  2  0  0  0  0  0  0  0  0  0
   10.8589  -16.4719   26.3605 N   0  0  0  0  0  0  0  0  0  0  0  0
   11.5120  -17.5510   28.4017 C   0  0  0  0  0  0  0  0  0  0  0  0
   12.0128  -17.6883   29.6663 O   0  0  0  0  0  0  0  0  0  0  0  0
   11.1922  -18.6308   27.7960 O   0  0  0  0  0  0  0  0  0  0  0  0
  2  1  1  0
  3  2  1  0
  4  5  1  0
  4  3  1  0
  5  7  1  0
  5  6  1  1
  7  8  2  0
 10  9  1  0
 10 12  1  0
 11 10  2  0
 13 12  1  0
 14 13  1  6
 14 15  1  0
 15  7  1  0
 16 14  1  0
 17 16  2  0
 19 18  1  6
 19 21  1  0
 20 19  1  0
 21 22  1  6
 21 23  1  0
 22 16  1  0
 23 24  1  0
 25 23  2  0
M  END
$$$$
