MQT.pdb
     RDKit          3D

 25 24  0  0  1  0  0  0  0  0999 V2000
    5.9669  -25.7534   35.6041 C   0  0  0  0  0  0  0  0  0  0  0  0
    7.6193  -25.2220   35.0709 S   0  0  0  0  0  0  0  0  0  0  0  0
    7.8071  -25.8054   33.3381 C   0  0  0  0  0  0  0  0  0  0  0  0
    9.1935  -25.5183   32.8856 C   0  0  0  0  0  0  0  0  0  0  0  0
    9.5046  -25.9329   31.4925 C   0  0  2  0  0  0  0  0  0  0  0  0
    9.0698  -27.3203   31.2489 N   0  0  0  0  0  0  0  0  0  0  0  0
   10.9581  -25.7977   31.2259 C   0  0  0  0  0  0  0  0  0  0  0  0
   11.8358  -26.1279   32.0648 O   0  0  0  0  0  0  0  0  0  0  0  0
   15.1559  -26.9237   26.2463 N   0  0  0  0  0  0  0  0  0  0  0  0
   15.1552  -25.6094   26.7805 C   0  0  0  0  0  0  0  0  0  0  0  0
   15.4717  -24.6342   26.0288 O   0  0  0  0  0  0  0  0  0  0  0  0
   14.7874  -25.3610   28.2129 C   0  0  0  0  0  0  0  0  0  0  0  0
   13.2596  -25.4154   28.3439 C   0  0  0  0  0  0  0  0  0  0  0  0
   12.8474  -25.1276   29.7660 C   0  0  2  0  0  0  0  0  0  0  0  0
   11.4493  -25.2813   29.9940 N   0  0  0  0  0  0  0  0  0  0  0  0
   13.3486  -23.7667   30.0982 C   0  0  0  0  0  0  0  0  0  0  0  0
   14.5505  -23.4735   30.1841 O   0  0  0  0  0  0  0  0  0  0  0  0
   13.1730  -20.5619   28.4689 C   0  0  0  0  0  0  0  0  0  0  0  0
   12.4022  -20.3603   29.7591 C   0  0  1  0  0  0  0  0  0  0  0  0
   11.0562  -20.6017   29.4885 O   0  0  0  0  0  0  0  0  0  0  0  0
   12.8588  -21.4141   30.7297 C   0  0  2  0  0  0  0  0  0  0  0  0
   12.3890  -22.7457   30.3297 N   0  0  0  0  0  0  0  0  0  0  0  0
   12.2622  -21.0891   32.0610 C   0  0  0  0  0  0  0  0  0  0  0  0
   12.6130  -19.9893   32.7934 O   0  0  0  0  0  0  0  0  0  0  0  0
   11.3758  -21.8550   32.5735 O   0  0  0  0  0  0  0  0  0  0  0  0
  2  1  1  0
  3  2  1  0
  4  5  1  0
  4  3  1  0
  5  7  1  0
  5  6  1  1
  7  8  2  0
 10  9  1  0
 10 12  1  0
 11 10  2  0
 13 12  1  0
 14 13  1  6
 14 15  1  0
 15  7  1  0
 16 14  1  0
 17 16  2  0
 19 18  1  6
 19 21  1  0
 20 19  1  0
 21 22  1  6
 21 23  1  0
 22 16  1  0
 23 24  1  0
 25 23  2  0
M  END
$$$$
