MQT.pdb
     RDKit          3D

 25 24  0  0  1  0  0  0  0  0999 V2000
    7.5558  -11.6597   26.8635 C   0  0  0  0  0  0  0  0  0  0  0  0
    5.9745  -12.4553   26.4589 S   0  0  0  0  0  0  0  0  0  0  0  0
    6.1743  -13.1563   24.7716 C   0  0  0  0  0  0  0  0  0  0  0  0
    7.2553  -14.1761   24.8035 C   0  0  0  0  0  0  0  0  0  0  0  0
    7.5119  -14.8687   23.5137 C   0  0  2  0  0  0  0  0  0  0  0  0
    6.3031  -15.5716   23.0464 N   0  0  0  0  0  0  0  0  0  0  0  0
    8.6372  -15.8254   23.6563 C   0  0  0  0  0  0  0  0  0  0  0  0
    8.4827  -16.9952   24.0932 O   0  0  0  0  0  0  0  0  0  0  0  0
   12.4478  -18.9290   20.9243 N   0  0  0  0  0  0  0  0  0  0  0  0
   12.6321  -18.6554   22.3042 C   0  0  0  0  0  0  0  0  0  0  0  0
   12.3008  -19.5348   23.1605 O   0  0  0  0  0  0  0  0  0  0  0  0
   13.2097  -17.3485   22.7593 C   0  0  0  0  0  0  0  0  0  0  0  0
   12.1669  -16.2459   22.5334 C   0  0  0  0  0  0  0  0  0  0  0  0
   11.0556  -16.3634   23.5463 C   0  0  2  0  0  0  0  0  0  0  0  0
    9.9702  -15.4724   23.3043 N   0  0  0  0  0  0  0  0  0  0  0  0
   11.6698  -16.1865   24.8898 C   0  0  0  0  0  0  0  0  0  0  0  0
   12.8019  -15.7162   25.0770 O   0  0  0  0  0  0  0  0  0  0  0  0
   10.7772  -14.0633   27.5816 C   0  0  0  0  0  0  0  0  0  0  0  0
   10.6403  -15.4491   28.1817 C   0  0  1  0  0  0  0  0  0  0  0  0
    9.3125  -15.8454   28.0296 O   0  0  0  0  0  0  0  0  0  0  0  0
   11.4827  -16.3848   27.3594 C   0  0  2  0  0  0  0  0  0  0  0  0
   10.9098  -16.5813   26.0227 N   0  0  0  0  0  0  0  0  0  0  0  0
   11.5014  -17.7058   28.0582 C   0  0  0  0  0  0  0  0  0  0  0  0
   12.0646  -17.8971   29.2891 O   0  0  0  0  0  0  0  0  0  0  0  0
   10.9738  -18.7326   27.5081 O   0  0  0  0  0  0  0  0  0  0  0  0
  2  1  1  0
  3  2  1  0
  4  5  1  0
  4  3  1  0
  5  7  1  0
  5  6  1  1
  7  8  2  0
 10  9  1  0
 10 12  1  0
 11 10  2  0
 13 12  1  0
 14 13  1  6
 14 15  1  0
 15  7  1  0
 16 14  1  0
 17 16  2  0
 19 18  1  6
 19 21  1  0
 20 19  1  0
 21 22  1  6
 21 23  1  0
 22 16  1  0
 23 24  1  0
 25 23  2  0
M  END
$$$$
