MQT.pdb
     RDKit          3D

 25 24  0  0  1  0  0  0  0  0999 V2000
    7.9575  -11.8440   19.9619 C   0  0  0  0  0  0  0  0  0  0  0  0
    7.5383  -13.1060   18.7255 S   0  0  0  0  0  0  0  0  0  0  0  0
    6.5981  -14.4055   19.6231 C   0  0  0  0  0  0  0  0  0  0  0  0
    7.1247  -14.5038   21.0096 C   0  0  0  0  0  0  0  0  0  0  0  0
    8.2027  -15.5076   21.2089 C   0  0  2  0  0  0  0  0  0  0  0  0
    7.6868  -16.8755   21.0193 N   0  0  0  0  0  0  0  0  0  0  0  0
    8.7953  -15.3670   22.5621 C   0  0  0  0  0  0  0  0  0  0  0  0
    9.3016  -14.2909   22.9731 O   0  0  0  0  0  0  0  0  0  0  0  0
   13.2923  -18.1296   24.6453 N   0  0  0  0  0  0  0  0  0  0  0  0
   12.6541  -18.4344   23.4154 C   0  0  0  0  0  0  0  0  0  0  0  0
   13.0950  -19.3954   22.7094 O   0  0  0  0  0  0  0  0  0  0  0  0
   11.4732  -17.6399   22.9435 C   0  0  0  0  0  0  0  0  0  0  0  0
   11.2402  -16.4797   23.9202 C   0  0  0  0  0  0  0  0  0  0  0  0
    9.8408  -16.5417   24.4796 C   0  0  2  0  0  0  0  0  0  0  0  0
    8.8265  -16.4516   23.4830 N   0  0  0  0  0  0  0  0  0  0  0  0
    9.7385  -15.4798   25.5167 C   0  0  0  0  0  0  0  0  0  0  0  0
   10.6178  -15.2489   26.3602 O   0  0  0  0  0  0  0  0  0  0  0  0
    7.1272  -12.1952   25.1081 C   0  0  0  0  0  0  0  0  0  0  0  0
    7.1202  -12.9184   26.4408 C   0  0  1  0  0  0  0  0  0  0  0  0
    6.1120  -13.8800   26.3938 O   0  0  0  0  0  0  0  0  0  0  0  0
    8.4285  -13.6487   26.5676 C   0  0  2  0  0  0  0  0  0  0  0  0
    8.5614  -14.6855   25.5375 N   0  0  0  0  0  0  0  0  0  0  0  0
    8.4447  -14.3149   27.9054 C   0  0  0  0  0  0  0  0  0  0  0  0
    8.4548  -13.6277   29.0872 O   0  0  0  0  0  0  0  0  0  0  0  0
    8.4499  -15.5909   27.9891 O   0  0  0  0  0  0  0  0  0  0  0  0
  2  1  1  0
  3  2  1  0
  4  5  1  0
  4  3  1  0
  5  7  1  0
  5  6  1  1
  7  8  2  0
 10  9  1  0
 10 12  1  0
 11 10  2  0
 13 12  1  0
 14 13  1  6
 14 15  1  0
 15  7  1  0
 16 14  1  0
 17 16  2  0
 19 18  1  6
 19 21  1  0
 20 19  1  0
 21 22  1  6
 21 23  1  0
 22 16  1  0
 23 24  1  0
 25 23  2  0
M  END
$$$$
