MQT.pdb
     RDKit          3D

 25 24  0  0  1  0  0  0  0  0999 V2000
    8.8444  -11.3524   19.6891 C   0  0  0  0  0  0  0  0  0  0  0  0
    7.7310  -12.3304   18.6399 S   0  0  0  0  0  0  0  0  0  0  0  0
    7.9835  -14.0848   19.1263 C   0  0  0  0  0  0  0  0  0  0  0  0
    8.5283  -14.1231   20.5087 C   0  0  0  0  0  0  0  0  0  0  0  0
    8.7141  -15.4828   21.0797 C   0  0  2  0  0  0  0  0  0  0  0  0
    7.4796  -16.2784   20.9517 N   0  0  0  0  0  0  0  0  0  0  0  0
    9.1202  -15.3935   22.5042 C   0  0  0  0  0  0  0  0  0  0  0  0
   10.2654  -15.0138   22.8613 O   0  0  0  0  0  0  0  0  0  0  0  0
    5.8377  -13.2676   27.0688 N   0  0  0  0  0  0  0  0  0  0  0  0
    6.5922  -12.6164   26.0591 C   0  0  0  0  0  0  0  0  0  0  0  0
    6.4106  -11.3752   25.8525 O   0  0  0  0  0  0  0  0  0  0  0  0
    7.5947  -13.3723   25.2392 C   0  0  0  0  0  0  0  0  0  0  0  0
    7.6717  -14.8123   25.7634 C   0  0  0  0  0  0  0  0  0  0  0  0
    8.6274  -15.6227   24.9238 C   0  0  2  0  0  0  0  0  0  0  0  0
    8.2296  -15.7358   23.5602 N   0  0  0  0  0  0  0  0  0  0  0  0
    8.7905  -16.9394   25.5972 C   0  0  0  0  0  0  0  0  0  0  0  0
    7.8494  -17.7017   25.8641 O   0  0  0  0  0  0  0  0  0  0  0  0
   10.1996  -19.8766   24.4457 C   0  0  0  0  0  0  0  0  0  0  0  0
   11.0746  -19.5747   25.6467 C   0  0  1  0  0  0  0  0  0  0  0  0
   12.1807  -18.8579   25.1933 O   0  0  0  0  0  0  0  0  0  0  0  0
   10.2964  -18.6662   26.5580 C   0  0  2  0  0  0  0  0  0  0  0  0
   10.1046  -17.3429   25.9534 N   0  0  0  0  0  0  0  0  0  0  0  0
   11.0927  -18.4960   27.8113 C   0  0  0  0  0  0  0  0  0  0  0  0
   11.3289  -19.5115   28.6955 O   0  0  0  0  0  0  0  0  0  0  0  0
   11.5945  -17.3571   28.1055 O   0  0  0  0  0  0  0  0  0  0  0  0
  2  1  1  0
  3  2  1  0
  4  5  1  0
  4  3  1  0
  5  7  1  0
  5  6  1  1
  7  8  2  0
 10  9  1  0
 10 12  1  0
 11 10  2  0
 13 12  1  0
 14 13  1  1
 14 15  1  0
 15  7  1  0
 16 14  1  0
 17 16  2  0
 19 18  1  6
 19 21  1  0
 20 19  1  0
 21 22  1  6
 21 23  1  0
 22 16  1  0
 23 24  1  0
 25 23  2  0
M  END
$$$$
