MQT.pdb
     RDKit          3D

 25 24  0  0  1  0  0  0  0  0999 V2000
    7.7984  -11.8351   21.4642 C   0  0  0  0  0  0  0  0  0  0  0  0
    8.0709  -12.8496   19.9832 S   0  0  0  0  0  0  0  0  0  0  0  0
    6.9118  -14.2696   20.1184 C   0  0  0  0  0  0  0  0  0  0  0  0
    7.2885  -15.0817   21.3050 C   0  0  0  0  0  0  0  0  0  0  0  0
    8.4345  -16.0065   21.1026 C   0  0  2  0  0  0  0  0  0  0  0  0
    8.0728  -17.0945   20.1759 N   0  0  0  0  0  0  0  0  0  0  0  0
    8.8806  -16.5679   22.4018 C   0  0  0  0  0  0  0  0  0  0  0  0
    8.1531  -17.3176   23.1032 O   0  0  0  0  0  0  0  0  0  0  0  0
   14.0678  -19.2859   23.5560 N   0  0  0  0  0  0  0  0  0  0  0  0
   12.9138  -19.6211   22.8018 C   0  0  0  0  0  0  0  0  0  0  0  0
   12.9722  -20.5838   21.9735 O   0  0  0  0  0  0  0  0  0  0  0  0
   11.6350  -18.8564   22.9709 C   0  0  0  0  0  0  0  0  0  0  0  0
   11.8724  -17.7183   23.9722 C   0  0  0  0  0  0  0  0  0  0  0  0
   10.6153  -16.9023   24.1421 C   0  0  2  0  0  0  0  0  0  0  0  0
   10.1697  -16.2882   22.9361 N   0  0  0  0  0  0  0  0  0  0  0  0
   10.8734  -15.9266   25.2353 C   0  0  0  0  0  0  0  0  0  0  0  0
   11.7771  -15.0777   25.2064 O   0  0  0  0  0  0  0  0  0  0  0  0
    9.3832  -13.0501   26.7798 C   0  0  0  0  0  0  0  0  0  0  0  0
    9.2886  -14.1412   27.8286 C   0  0  1  0  0  0  0  0  0  0  0  0
    8.0669  -14.7893   27.6541 O   0  0  0  0  0  0  0  0  0  0  0  0
   10.3715  -15.1436   27.5392 C   0  0  2  0  0  0  0  0  0  0  0  0
   10.0316  -15.9741   26.3780 N   0  0  0  0  0  0  0  0  0  0  0  0
   10.4899  -16.0357   28.7326 C   0  0  0  0  0  0  0  0  0  0  0  0
   10.8043  -15.5807   29.9828 O   0  0  0  0  0  0  0  0  0  0  0  0
   10.2946  -17.2942   28.6175 O   0  0  0  0  0  0  0  0  0  0  0  0
  2  1  1  0
  3  2  1  0
  4  5  1  0
  4  3  1  0
  5  7  1  0
  5  6  1  6
  7  8  2  0
 10  9  1  0
 10 12  1  0
 11 10  2  0
 13 12  1  0
 14 13  1  6
 14 15  1  0
 15  7  1  0
 16 14  1  0
 17 16  2  0
 19 18  1  6
 19 21  1  0
 20 19  1  0
 21 22  1  6
 21 23  1  0
 22 16  1  0
 23 24  1  0
 25 23  2  0
M  END
$$$$
