MQT.pdb
     RDKit          3D

 25 24  0  0  1  0  0  0  0  0999 V2000
    7.3005  -12.2661   21.0664 C   0  0  0  0  0  0  0  0  0  0  0  0
    7.7336  -11.9734   19.3275 S   0  0  0  0  0  0  0  0  0  0  0  0
    8.1224  -13.6225   18.6152 C   0  0  0  0  0  0  0  0  0  0  0  0
    8.5701  -14.5220   19.7106 C   0  0  0  0  0  0  0  0  0  0  0  0
    8.9223  -15.9042   19.2924 C   0  0  2  0  0  0  0  0  0  0  0  0
    7.8081  -16.5292   18.5566 N   0  0  0  0  0  0  0  0  0  0  0  0
    9.2798  -16.7262   20.4749 C   0  0  0  0  0  0  0  0  0  0  0  0
    8.4569  -17.4873   21.0467 O   0  0  0  0  0  0  0  0  0  0  0  0
   14.8316  -19.2588   22.1673 N   0  0  0  0  0  0  0  0  0  0  0  0
   14.0610  -19.2808   23.3583 C   0  0  0  0  0  0  0  0  0  0  0  0
   14.6176  -19.6159   24.4511 O   0  0  0  0  0  0  0  0  0  0  0  0
   12.6068  -18.9153   23.3409 C   0  0  0  0  0  0  0  0  0  0  0  0
   12.3765  -17.8703   22.2413 C   0  0  0  0  0  0  0  0  0  0  0  0
   10.9157  -17.5014   22.1698 C   0  0  2  0  0  0  0  0  0  0  0  0
   10.5868  -16.7015   21.0375 N   0  0  0  0  0  0  0  0  0  0  0  0
   10.5651  -16.8565   23.4639 C   0  0  0  0  0  0  0  0  0  0  0  0
   11.0610  -15.7925   23.8639 O   0  0  0  0  0  0  0  0  0  0  0  0
    7.3581  -15.6008   24.6832 C   0  0  0  0  0  0  0  0  0  0  0  0
    7.7489  -16.6856   25.6678 C   0  0  1  0  0  0  0  0  0  0  0  0
    7.1473  -17.8715   25.2497 O   0  0  0  0  0  0  0  0  0  0  0  0
    9.2366  -16.8785   25.5635 C   0  0  2  0  0  0  0  0  0  0  0  0
    9.6043  -17.5019   24.2868 N   0  0  0  0  0  0  0  0  0  0  0  0
    9.6503  -17.7967   26.6677 C   0  0  0  0  0  0  0  0  0  0  0  0
    9.4547  -17.5164   27.9914 O   0  0  0  0  0  0  0  0  0  0  0  0
   10.2191  -18.9103   26.4000 O   0  0  0  0  0  0  0  0  0  0  0  0
  2  1  1  0
  3  2  1  0
  4  5  1  0
  4  3  1  0
  5  7  1  0
  5  6  1  1
  7  8  2  0
 10  9  1  0
 10 12  1  0
 11 10  2  0
 13 12  1  0
 14 13  1  1
 14 15  1  0
 15  7  1  0
 16 14  1  0
 17 16  2  0
 19 18  1  6
 19 21  1  0
 20 19  1  0
 21 22  1  6
 21 23  1  0
 22 16  1  0
 23 24  1  0
 25 23  2  0
M  END
$$$$
