MQT.pdb
     RDKit          3D

 25 24  0  0  1  0  0  0  0  0999 V2000
    5.5192  -12.1282   26.4685 C   0  0  0  0  0  0  0  0  0  0  0  0
    5.4325  -13.8238   25.8248 S   0  0  0  0  0  0  0  0  0  0  0  0
    6.1688  -14.8988   27.1211 C   0  0  0  0  0  0  0  0  0  0  0  0
    6.1074  -16.3110   26.6616 C   0  0  0  0  0  0  0  0  0  0  0  0
    5.8189  -16.4953   25.2151 C   0  0  2  0  0  0  0  0  0  0  0  0
    4.8123  -17.5531   25.0119 N   0  0  0  0  0  0  0  0  0  0  0  0
    7.0639  -16.8251   24.4782 C   0  0  0  0  0  0  0  0  0  0  0  0
    7.5629  -17.9802   24.4711 O   0  0  0  0  0  0  0  0  0  0  0  0
    8.5853  -14.0216   19.5529 N   0  0  0  0  0  0  0  0  0  0  0  0
    8.9449  -13.2609   20.6953 C   0  0  0  0  0  0  0  0  0  0  0  0
    8.9895  -11.9934   20.6075 O   0  0  0  0  0  0  0  0  0  0  0  0
    9.2707  -13.9326   21.9958 C   0  0  0  0  0  0  0  0  0  0  0  0
    9.2224  -15.4522   21.7891 C   0  0  0  0  0  0  0  0  0  0  0  0
    9.0193  -16.1521   23.1096 C   0  0  2  0  0  0  0  0  0  0  0  0
    7.7737  -15.8448   23.7294 N   0  0  0  0  0  0  0  0  0  0  0  0
   10.1940  -15.8243   23.9619 C   0  0  0  0  0  0  0  0  0  0  0  0
   11.3494  -15.6979   23.5294 O   0  0  0  0  0  0  0  0  0  0  0  0
   10.4809  -13.1945   26.9275 C   0  0  0  0  0  0  0  0  0  0  0  0
   10.7678  -14.5983   27.4239 C   0  0  1  0  0  0  0  0  0  0  0  0
    9.5811  -15.1124   27.9442 O   0  0  0  0  0  0  0  0  0  0  0  0
   11.1320  -15.4363   26.2297 C   0  0  2  0  0  0  0  0  0  0  0  0
    9.9736  -15.6463   25.3535 N   0  0  0  0  0  0  0  0  0  0  0  0
   11.5829  -16.7686   26.7350 C   0  0  0  0  0  0  0  0  0  0  0  0
   12.6679  -16.9356   27.5497 O   0  0  0  0  0  0  0  0  0  0  0  0
   10.9467  -17.8293   26.4101 O   0  0  0  0  0  0  0  0  0  0  0  0
  2  1  1  0
  3  2  1  0
  4  5  1  0
  4  3  1  0
  5  7  1  0
  5  6  1  1
  7  8  2  0
 10  9  1  0
 10 12  1  0
 11 10  2  0
 13 12  1  0
 14 13  1  6
 14 15  1  0
 15  7  1  0
 16 14  1  0
 17 16  2  0
 19 18  1  6
 19 21  1  0
 20 19  1  0
 21 22  1  6
 21 23  1  0
 22 16  1  0
 23 24  1  0
 25 23  2  0
M  END
$$$$
