MQT.pdb
     RDKit          3D

 25 24  0  0  1  0  0  0  0  0999 V2000
    8.2932  -11.5320   19.4102 C   0  0  0  0  0  0  0  0  0  0  0  0
    8.2133  -12.9276   18.2514 S   0  0  0  0  0  0  0  0  0  0  0  0
    6.7913  -13.9583   18.7931 C   0  0  0  0  0  0  0  0  0  0  0  0
    7.3089  -15.1153   19.5696 C   0  0  0  0  0  0  0  0  0  0  0  0
    8.5186  -14.8396   20.3881 C   0  0  2  0  0  0  0  0  0  0  0  0
    9.7025  -15.5049   19.8145 N   0  0  0  0  0  0  0  0  0  0  0  0
    8.3081  -15.2865   21.7874 C   0  0  0  0  0  0  0  0  0  0  0  0
    7.2662  -15.0134   22.4379 O   0  0  0  0  0  0  0  0  0  0  0  0
   11.5357  -19.7824   24.7276 N   0  0  0  0  0  0  0  0  0  0  0  0
   10.6792  -19.8951   23.6022 C   0  0  0  0  0  0  0  0  0  0  0  0
   10.7264  -20.9471   22.8898 O   0  0  0  0  0  0  0  0  0  0  0  0
    9.7257  -18.7935   23.2473 C   0  0  0  0  0  0  0  0  0  0  0  0
    9.9116  -17.6429   24.2451 C   0  0  0  0  0  0  0  0  0  0  0  0
    9.0759  -16.4563   23.8348 C   0  0  2  0  0  0  0  0  0  0  0  0
    9.2819  -16.0572   22.4825 N   0  0  0  0  0  0  0  0  0  0  0  0
    9.3504  -15.3702   24.8139 C   0  0  0  0  0  0  0  0  0  0  0  0
   10.3862  -14.6882   24.8191 O   0  0  0  0  0  0  0  0  0  0  0  0
    7.4165  -12.2457   25.6842 C   0  0  0  0  0  0  0  0  0  0  0  0
    7.4477  -13.1225   26.9210 C   0  0  1  0  0  0  0  0  0  0  0  0
    6.2966  -13.9087   26.9099 O   0  0  0  0  0  0  0  0  0  0  0  0
    8.6237  -14.0504   26.7896 C   0  0  2  0  0  0  0  0  0  0  0  0
    8.3640  -15.1023   25.7998 N   0  0  0  0  0  0  0  0  0  0  0  0
    8.8342  -14.7015   28.1184 C   0  0  0  0  0  0  0  0  0  0  0  0
    9.1732  -14.0109   29.2485 O   0  0  0  0  0  0  0  0  0  0  0  0
    8.6995  -15.9670   28.2438 O   0  0  0  0  0  0  0  0  0  0  0  0
  2  1  1  0
  3  2  1  0
  4  5  1  0
  4  3  1  0
  5  7  1  0
  5  6  1  6
  7  8  2  0
 10  9  1  0
 10 12  1  0
 11 10  2  0
 13 12  1  0
 14 13  1  1
 14 15  1  0
 15  7  1  0
 16 14  1  0
 17 16  2  0
 19 18  1  6
 19 21  1  0
 20 19  1  0
 21 22  1  6
 21 23  1  0
 22 16  1  0
 23 24  1  0
 25 23  2  0
M  END
$$$$
