MQT.pdb
     RDKit          3D

 25 24  0  0  1  0  0  0  0  0999 V2000
    6.7614  -12.8796   27.5247 C   0  0  0  0  0  0  0  0  0  0  0  0
    6.1469  -14.0759   26.3048 S   0  0  0  0  0  0  0  0  0  0  0  0
    6.9916  -15.6647   26.6797 C   0  0  0  0  0  0  0  0  0  0  0  0
    6.2632  -16.7653   25.9959 C   0  0  0  0  0  0  0  0  0  0  0  0
    6.0008  -16.5493   24.5489 C   0  0  2  0  0  0  0  0  0  0  0  0
    5.2212  -17.6662   23.9850 N   0  0  0  0  0  0  0  0  0  0  0  0
    7.2783  -16.3924   23.8103 C   0  0  0  0  0  0  0  0  0  0  0  0
    8.1085  -17.3293   23.6831 O   0  0  0  0  0  0  0  0  0  0  0  0
   10.1750  -13.8832   19.3344 N   0  0  0  0  0  0  0  0  0  0  0  0
    8.7587  -13.8068   19.3704 C   0  0  0  0  0  0  0  0  0  0  0  0
    8.1062  -13.8741   18.2814 O   0  0  0  0  0  0  0  0  0  0  0  0
    8.0293  -13.6487   20.6710 C   0  0  0  0  0  0  0  0  0  0  0  0
    9.0497  -13.7012   21.8156 C   0  0  0  0  0  0  0  0  0  0  0  0
    8.9148  -14.9970   22.5758 C   0  0  2  0  0  0  0  0  0  0  0  0
    7.6430  -15.1611   23.1968 N   0  0  0  0  0  0  0  0  0  0  0  0
   10.0483  -15.0581   23.5376 C   0  0  0  0  0  0  0  0  0  0  0  0
   11.2397  -14.9480   23.2116 O   0  0  0  0  0  0  0  0  0  0  0  0
   10.0733  -13.3342   27.0837 C   0  0  0  0  0  0  0  0  0  0  0  0
   10.4089  -14.8059   27.2279 C   0  0  1  0  0  0  0  0  0  0  0  0
    9.2323  -15.4764   27.5584 O   0  0  0  0  0  0  0  0  0  0  0  0
   10.8441  -15.3062   25.8782 C   0  0  2  0  0  0  0  0  0  0  0  0
    9.7421  -15.2542   24.9105 N   0  0  0  0  0  0  0  0  0  0  0  0
   11.2575  -16.7335   26.0389 C   0  0  0  0  0  0  0  0  0  0  0  0
   10.6171  -17.7749   25.4270 O   0  0  0  0  0  0  0  0  0  0  0  0
   12.2561  -17.0351   26.7784 O   0  0  0  0  0  0  0  0  0  0  0  0
  2  1  1  0
  3  2  1  0
  4  5  1  0
  4  3  1  0
  5  7  1  0
  5  6  1  6
  7  8  2  0
 10  9  1  0
 10 12  1  0
 11 10  2  0
 13 12  1  0
 14 13  1  1
 14 15  1  0
 15  7  1  0
 16 14  1  0
 17 16  2  0
 19 18  1  6
 19 21  1  0
 20 19  1  0
 21 22  1  6
 21 23  1  0
 22 16  1  0
 23 24  1  0
 25 23  2  0
M  END
$$$$
