MQT.pdb
     RDKit          3D

 25 24  0  0  1  0  0  0  0  0999 V2000
    7.8117  -12.1170   20.6057 C   0  0  0  0  0  0  0  0  0  0  0  0
    8.0456  -13.6687   19.6922 S   0  0  0  0  0  0  0  0  0  0  0  0
    6.4625  -14.5906   19.8411 C   0  0  0  0  0  0  0  0  0  0  0  0
    6.2739  -14.9888   21.2607 C   0  0  0  0  0  0  0  0  0  0  0  0
    6.3705  -16.4477   21.5284 C   0  0  2  0  0  0  0  0  0  0  0  0
    5.1633  -17.1487   21.0544 N   0  0  0  0  0  0  0  0  0  0  0  0
    6.5697  -16.6946   22.9780 C   0  0  0  0  0  0  0  0  0  0  0  0
    5.6680  -16.4908   23.8317 O   0  0  0  0  0  0  0  0  0  0  0  0
    7.4375  -20.7660   26.5111 N   0  0  0  0  0  0  0  0  0  0  0  0
    8.0871  -19.8538   27.3821 C   0  0  0  0  0  0  0  0  0  0  0  0
    8.0699  -20.0726   28.6344 O   0  0  0  0  0  0  0  0  0  0  0  0
    8.7887  -18.6426   26.8441 C   0  0  0  0  0  0  0  0  0  0  0  0
    8.6066  -18.6060   25.3210 C   0  0  0  0  0  0  0  0  0  0  0  0
    8.0283  -17.2793   24.8965 C   0  0  2  0  0  0  0  0  0  0  0  0
    7.8043  -17.1806   23.4928 N   0  0  0  0  0  0  0  0  0  0  0  0
    8.9336  -16.2213   25.4207 C   0  0  0  0  0  0  0  0  0  0  0  0
   10.0343  -15.9425   24.9220 O   0  0  0  0  0  0  0  0  0  0  0  0
    8.0266  -12.5605   26.2809 C   0  0  0  0  0  0  0  0  0  0  0  0
    8.5704  -13.2354   27.5252 C   0  0  1  0  0  0  0  0  0  0  0  0
    7.4836  -13.7174   28.2529 O   0  0  0  0  0  0  0  0  0  0  0  0
    9.3741  -14.4261   27.0810 C   0  0  2  0  0  0  0  0  0  0  0  0
    8.5070  -15.4896   26.5606 N   0  0  0  0  0  0  0  0  0  0  0  0
   10.0945  -14.9554   28.2787 C   0  0  0  0  0  0  0  0  0  0  0  0
   10.9977  -14.2226   28.9973 O   0  0  0  0  0  0  0  0  0  0  0  0
    9.8817  -16.1501   28.6821 O   0  0  0  0  0  0  0  0  0  0  0  0
  2  1  1  0
  3  2  1  0
  4  5  1  0
  4  3  1  0
  5  7  1  0
  5  6  1  1
  7  8  2  0
 10  9  1  0
 10 12  1  0
 11 10  2  0
 13 12  1  0
 14 13  1  6
 14 15  1  0
 15  7  1  0
 16 14  1  0
 17 16  2  0
 19 18  1  6
 19 21  1  0
 20 19  1  0
 21 22  1  1
 21 23  1  0
 22 16  1  0
 23 24  1  0
 25 23  2  0
M  END
$$$$
