MQT.pdb
     RDKit          3D

 25 24  0  0  1  0  0  0  0  0999 V2000
    7.0701  -10.4336   26.2481 C   0  0  0  0  0  0  0  0  0  0  0  0
    6.3379  -12.0881   26.0949 S   0  0  0  0  0  0  0  0  0  0  0  0
    6.7990  -12.6960   24.4229 C   0  0  0  0  0  0  0  0  0  0  0  0
    7.3024  -14.0894   24.5438 C   0  0  0  0  0  0  0  0  0  0  0  0
    7.8620  -14.6720   23.2961 C   0  0  2  0  0  0  0  0  0  0  0  0
    6.8163  -14.8077   22.2658 N   0  0  0  0  0  0  0  0  0  0  0  0
    8.4804  -15.9919   23.5746 C   0  0  0  0  0  0  0  0  0  0  0  0
    7.9000  -17.0800   23.3245 O   0  0  0  0  0  0  0  0  0  0  0  0
   14.2087  -18.3486   23.1307 N   0  0  0  0  0  0  0  0  0  0  0  0
   13.3639  -17.5791   22.2898 C   0  0  0  0  0  0  0  0  0  0  0  0
   13.8429  -17.0702   21.2278 O   0  0  0  0  0  0  0  0  0  0  0  0
   11.9218  -17.3618   22.6390 C   0  0  0  0  0  0  0  0  0  0  0  0
   11.7452  -17.5718   24.1486 C   0  0  0  0  0  0  0  0  0  0  0  0
   10.3018  -17.3719   24.5378 C   0  0  2  0  0  0  0  0  0  0  0  0
    9.7785  -16.1056   24.1469 N   0  0  0  0  0  0  0  0  0  0  0  0
   10.2071  -17.6178   26.0021 C   0  0  0  0  0  0  0  0  0  0  0  0
    9.9783  -16.7321   26.8395 O   0  0  0  0  0  0  0  0  0  0  0  0
    7.7858  -18.4600   27.6828 C   0  0  0  0  0  0  0  0  0  0  0  0
    8.6419  -19.6629   28.0283 C   0  0  1  0  0  0  0  0  0  0  0  0
    8.3800  -20.6528   27.0824 O   0  0  0  0  0  0  0  0  0  0  0  0
   10.0808  -19.2578   27.8643 C   0  0  2  0  0  0  0  0  0  0  0  0
   10.3903  -18.9483   26.4636 N   0  0  0  0  0  0  0  0  0  0  0  0
   10.9257  -20.4170   28.2841 C   0  0  0  0  0  0  0  0  0  0  0  0
   11.0111  -20.8560   29.5759 O   0  0  0  0  0  0  0  0  0  0  0  0
   11.6181  -21.0555   27.4192 O   0  0  0  0  0  0  0  0  0  0  0  0
  2  1  1  0
  3  2  1  0
  4  5  1  0
  4  3  1  0
  5  7  1  0
  5  6  1  6
  7  8  2  0
 10  9  1  0
 10 12  1  0
 11 10  2  0
 13 12  1  0
 14 13  1  1
 14 15  1  0
 15  7  1  0
 16 14  1  0
 17 16  2  0
 19 18  1  6
 19 21  1  0
 20 19  1  0
 21 22  1  6
 21 23  1  0
 22 16  1  0
 23 24  1  0
 25 23  2  0
M  END
$$$$
