MQT.pdb
     RDKit          3D

 25 24  0  0  1  0  0  0  0  0999 V2000
    8.8569  -11.6402   18.8738 C   0  0  0  0  0  0  0  0  0  0  0  0
    7.3957  -12.5563   19.4417 S   0  0  0  0  0  0  0  0  0  0  0  0
    7.6307  -14.2897   18.8778 C   0  0  0  0  0  0  0  0  0  0  0  0
    9.0861  -14.5909   18.8548 C   0  0  0  0  0  0  0  0  0  0  0  0
    9.4432  -15.9611   18.4027 C   0  0  2  0  0  0  0  0  0  0  0  0
    8.6565  -16.9745   19.1291 N   0  0  0  0  0  0  0  0  0  0  0  0
   10.8943  -16.2061   18.5937 C   0  0  0  0  0  0  0  0  0  0  0  0
   11.5144  -17.1180   17.9877 O   0  0  0  0  0  0  0  0  0  0  0  0
   16.4160  -14.4771   18.4833 N   0  0  0  0  0  0  0  0  0  0  0  0
   15.2175  -13.9525   17.9344 C   0  0  0  0  0  0  0  0  0  0  0  0
   15.2851  -13.1498   16.9508 O   0  0  0  0  0  0  0  0  0  0  0  0
   13.8813  -14.3329   18.4989 C   0  0  0  0  0  0  0  0  0  0  0  0
   14.1040  -15.1853   19.7552 C   0  0  0  0  0  0  0  0  0  0  0  0
   12.8475  -15.9455   20.0992 C   0  0  2  0  0  0  0  0  0  0  0  0
   11.6770  -15.4167   19.4822 N   0  0  0  0  0  0  0  0  0  0  0  0
   12.7576  -15.9899   21.5837 C   0  0  0  0  0  0  0  0  0  0  0  0
   13.6731  -15.6399   22.3435 O   0  0  0  0  0  0  0  0  0  0  0  0
    9.6899  -14.8143   23.7005 C   0  0  0  0  0  0  0  0  0  0  0  0
   10.0262  -16.2457   24.0710 C   0  0  1  0  0  0  0  0  0  0  0  0
    9.1920  -17.0806   23.3292 O   0  0  0  0  0  0  0  0  0  0  0  0
   11.4368  -16.5110   23.6226 C   0  0  2  0  0  0  0  0  0  0  0  0
   11.5487  -16.4621   22.1602 N   0  0  0  0  0  0  0  0  0  0  0  0
   11.8009  -17.8888   24.0729 C   0  0  0  0  0  0  0  0  0  0  0  0
   12.0862  -18.9106   23.2106 O   0  0  0  0  0  0  0  0  0  0  0  0
   11.8588  -18.1642   25.3204 O   0  0  0  0  0  0  0  0  0  0  0  0
  2  1  1  0
  3  2  1  0
  4  5  1  0
  4  3  1  0
  5  7  1  0
  5  6  1  1
  7  8  2  0
 10  9  1  0
 10 12  1  0
 11 10  2  0
 13 12  1  0
 14 13  1  1
 14 15  1  0
 15  7  1  0
 16 14  1  0
 17 16  2  0
 19 18  1  6
 19 21  1  0
 20 19  1  0
 21 22  1  6
 21 23  1  0
 22 16  1  0
 23 24  1  0
 25 23  2  0
M  END
$$$$
