FIA.pdb
     RDKit          3D

 25 25  0  0  1  0  0  0  0  0999 V2000
   28.3707  -19.3477  -15.5757 N   0  0  0  0  0  0  0  0  0  0  0  0
   27.3202  -18.7915  -14.7259 C   0  0  1  0  0  0  0  0  0  0  0  0
   26.4219  -17.8858  -15.5681 C   0  0  0  0  0  0  0  0  0  0  0  0
   27.1162  -16.6021  -15.8169 C   0  0  0  0  0  0  0  0  0  0  0  0
   27.2570  -15.6663  -14.8144 C   0  0  0  0  0  0  0  0  0  0  0  0
   27.9068  -14.4576  -15.0361 C   0  0  0  0  0  0  0  0  0  0  0  0
   28.4104  -14.2231  -16.3025 C   0  0  0  0  0  0  0  0  0  0  0  0
   28.2853  -15.1357  -17.3197 C   0  0  0  0  0  0  0  0  0  0  0  0
   27.6332  -16.3232  -17.0576 C   0  0  0  0  0  0  0  0  0  0  0  0
   26.5260  -19.9308  -14.2003 C   0  0  0  0  0  0  0  0  0  0  0  0
   26.4834  -21.0548  -14.7894 O   0  0  0  0  0  0  0  0  0  0  0  0
   26.7130  -20.6907   -8.9504 C   0  0  0  0  0  0  0  0  0  0  0  0
   26.6342  -20.9941  -10.4488 C   0  0  0  0  0  0  0  0  0  0  0  0
   25.2407  -20.7138  -10.9327 C   0  0  2  0  0  0  0  0  0  0  0  0
   24.2046  -21.4807  -10.1113 C   0  0  0  0  0  0  0  0  0  0  0  0
   25.0018  -20.8629  -12.3949 C   0  0  2  0  0  0  0  0  0  0  0  0
   25.7975  -19.7758  -13.0214 N   0  0  0  0  0  0  0  0  0  0  0  0
   23.6346  -20.6837  -12.8652 C   0  0  0  0  0  0  0  0  0  0  0  0
   23.0257  -19.5628  -12.7541 O   0  0  0  0  0  0  0  0  0  0  0  0
   21.0883  -22.5729  -14.8732 C   0  0  0  0  0  0  0  0  0  0  0  0
   21.4781  -21.4839  -13.8742 C   0  0  2  0  0  0  0  0  0  0  0  0
   22.8686  -21.7030  -13.4778 N   0  0  0  0  0  0  0  0  0  0  0  0
   20.5980  -21.6609  -12.6964 C   0  0  0  0  0  0  0  0  0  0  0  0
   21.0018  -22.3769  -11.7493 O   0  0  0  0  0  0  0  0  0  0  0  0
   19.3482  -21.0694  -12.5964 O   0  0  0  0  0  0  0  0  0  0  0  0
  2  1  1  6
  2  3  1  0
  4  3  1  0
  5  4  2  0
  6  5  1  0
  7  6  2  0
  7  8  1  0
  8  9  2  0
  9  4  1  0
 10  2  1  0
 10 17  1  0
 11 10  2  0
 13 12  1  0
 14 16  1  0
 14 13  1  0
 14 15  1  1
 16 17  1  6
 18 16  1  0
 19 18  2  0
 21 20  1  6
 21 23  1  0
 21 22  1  0
 22 18  1  0
 23 25  1  0
 24 23  2  0
M  END
$$$$
