FIA.pdb
     RDKit          3D

 25 25  0  0  1  0  0  0  0  0999 V2000
   25.1733  -13.9950  -21.1243 N   0  0  0  0  0  0  0  0  0  0  0  0
   24.7718  -13.7256  -19.7456 C   0  0  1  0  0  0  0  0  0  0  0  0
   23.4139  -13.0236  -19.7475 C   0  0  0  0  0  0  0  0  0  0  0  0
   23.5554  -11.6854  -20.3647 C   0  0  0  0  0  0  0  0  0  0  0  0
   22.8945  -11.3698  -21.5326 C   0  0  0  0  0  0  0  0  0  0  0  0
   23.0197  -10.1168  -22.1215 C   0  0  0  0  0  0  0  0  0  0  0  0
   23.8336   -9.1917  -21.4937 C   0  0  0  0  0  0  0  0  0  0  0  0
   24.5037   -9.4774  -20.3306 C   0  0  0  0  0  0  0  0  0  0  0  0
   24.3521  -10.7331  -19.7790 C   0  0  0  0  0  0  0  0  0  0  0  0
   24.6546  -15.0346  -19.0544 C   0  0  0  0  0  0  0  0  0  0  0  0
   24.5419  -16.1278  -19.6903 O   0  0  0  0  0  0  0  0  0  0  0  0
   26.6540  -18.5202  -15.9275 C   0  0  0  0  0  0  0  0  0  0  0  0
   26.1618  -17.3569  -15.0625 C   0  0  0  0  0  0  0  0  0  0  0  0
   25.8501  -16.1855  -15.9485 C   0  0  2  0  0  0  0  0  0  0  0  0
   25.7513  -14.8914  -15.1410 C   0  0  0  0  0  0  0  0  0  0  0  0
   24.6969  -16.3424  -16.8774 C   0  0  2  0  0  0  0  0  0  0  0  0
   24.6671  -15.0803  -17.6607 N   0  0  0  0  0  0  0  0  0  0  0  0
   23.3757  -16.4756  -16.2779 C   0  0  0  0  0  0  0  0  0  0  0  0
   22.8803  -15.5620  -15.5300 O   0  0  0  0  0  0  0  0  0  0  0  0
   20.1973  -18.1284  -16.8310 C   0  0  0  0  0  0  0  0  0  0  0  0
   21.2352  -17.6979  -15.7951 C   0  0  2  0  0  0  0  0  0  0  0  0
   22.5326  -17.5965  -16.4621 N   0  0  0  0  0  0  0  0  0  0  0  0
   21.2875  -18.7757  -14.7809 C   0  0  0  0  0  0  0  0  0  0  0  0
   20.3196  -18.9048  -13.9938 O   0  0  0  0  0  0  0  0  0  0  0  0
   22.3595  -19.6470  -14.6646 O   0  0  0  0  0  0  0  0  0  0  0  0
  2  1  1  6
  2  3  1  0
  4  3  1  0
  5  4  2  0
  6  5  1  0
  7  6  2  0
  7  8  1  0
  8  9  2  0
  9  4  1  0
 10  2  1  0
 10 17  1  0
 11 10  2  0
 13 12  1  0
 14 16  1  0
 14 13  1  0
 14 15  1  1
 16 17  1  6
 18 16  1  0
 19 18  2  0
 21 20  1  6
 21 23  1  0
 21 22  1  0
 22 18  1  0
 23 25  1  0
 24 23  2  0
M  END
$$$$
