FIA.pdb
     RDKit          3D

 25 25  0  0  1  0  0  0  0  0999 V2000
   39.8929  -10.0314   -8.3523 N   0  0  0  0  0  0  0  0  0  0  0  0
   40.1831   -9.4301   -7.0527 C   0  0  1  0  0  0  0  0  0  0  0  0
   38.9667   -9.5952   -6.1417 C   0  0  0  0  0  0  0  0  0  0  0  0
   37.9493   -8.5793   -6.4944 C   0  0  0  0  0  0  0  0  0  0  0  0
   36.9284   -8.8735   -7.3729 C   0  0  0  0  0  0  0  0  0  0  0  0
   35.9675   -7.9278   -7.7118 C   0  0  0  0  0  0  0  0  0  0  0  0
   36.0697   -6.6749   -7.1354 C   0  0  0  0  0  0  0  0  0  0  0  0
   37.0745   -6.3534   -6.2579 C   0  0  0  0  0  0  0  0  0  0  0  0
   38.0081   -7.3212   -5.9483 C   0  0  0  0  0  0  0  0  0  0  0  0
   41.3402  -10.1599   -6.4754 C   0  0  0  0  0  0  0  0  0  0  0  0
   41.3629  -11.4259   -6.3808 O   0  0  0  0  0  0  0  0  0  0  0  0
   44.8247  -10.1156   -8.9108 C   0  0  0  0  0  0  0  0  0  0  0  0
   44.5285  -10.9063   -7.6340 C   0  0  0  0  0  0  0  0  0  0  0  0
   44.6949  -10.0012   -6.4476 C   0  0  2  0  0  0  0  0  0  0  0  0
   46.0951  -10.1267   -5.8476 C   0  0  0  0  0  0  0  0  0  0  0  0
   43.6397  -10.0773   -5.3997 C   0  0  2  0  0  0  0  0  0  0  0  0
   42.4461   -9.4442   -6.0176 N   0  0  0  0  0  0  0  0  0  0  0  0
   43.8833   -9.3527   -4.1594 C   0  0  0  0  0  0  0  0  0  0  0  0
   44.0928   -8.0896   -4.1473 O   0  0  0  0  0  0  0  0  0  0  0  0
   43.9347  -10.0908   -0.4615 C   0  0  0  0  0  0  0  0  0  0  0  0
   44.1539   -9.1791   -1.6683 C   0  0  2  0  0  0  0  0  0  0  0  0
   43.9075   -9.9581   -2.8811 N   0  0  0  0  0  0  0  0  0  0  0  0
   45.5758   -8.7670   -1.6298 C   0  0  0  0  0  0  0  0  0  0  0  0
   46.4431   -9.5680   -2.0529 O   0  0  0  0  0  0  0  0  0  0  0  0
   45.9884   -7.5349   -1.1464 O   0  0  0  0  0  0  0  0  0  0  0  0
  2  1  1  6
  2  3  1  0
  4  3  1  0
  5  4  2  0
  6  5  1  0
  7  6  2  0
  7  8  1  0
  8  9  2  0
  9  4  1  0
 10  2  1  0
 10 17  1  0
 11 10  2  0
 13 12  1  0
 14 16  1  0
 14 13  1  0
 14 15  1  1
 16 17  1  6
 18 16  1  0
 19 18  2  0
 21 20  1  1
 21 23  1  0
 21 22  1  0
 22 18  1  0
 23 25  1  0
 24 23  2  0
M  END
$$$$
