FIA.pdb
     RDKit          3D

 25 25  0  0  1  0  0  0  0  0999 V2000
   28.7481  -20.9760  -15.6591 N   0  0  0  0  0  0  0  0  0  0  0  0
   27.7415  -20.0462  -15.1522 C   0  0  1  0  0  0  0  0  0  0  0  0
   27.1205  -19.2909  -16.3272 C   0  0  0  0  0  0  0  0  0  0  0  0
   27.8603  -18.0267  -16.5424 C   0  0  0  0  0  0  0  0  0  0  0  0
   28.7272  -17.8845  -17.6048 C   0  0  0  0  0  0  0  0  0  0  0  0
   29.4273  -16.7024  -17.8170 C   0  0  0  0  0  0  0  0  0  0  0  0
   29.2246  -15.6677  -16.9222 C   0  0  0  0  0  0  0  0  0  0  0  0
   28.3683  -15.7803  -15.8558 C   0  0  0  0  0  0  0  0  0  0  0  0
   27.6927  -16.9707  -15.6813 C   0  0  0  0  0  0  0  0  0  0  0  0
   26.6971  -20.8524  -14.4708 C   0  0  0  0  0  0  0  0  0  0  0  0
   26.3434  -21.9967  -14.8922 O   0  0  0  0  0  0  0  0  0  0  0  0
   26.9029  -20.5884   -9.1486 C   0  0  0  0  0  0  0  0  0  0  0  0
   26.7310  -21.1655  -10.5561 C   0  0  0  0  0  0  0  0  0  0  0  0
   25.4015  -20.7331  -11.1038 C   0  0  2  0  0  0  0  0  0  0  0  0
   24.2623  -21.1185  -10.1604 C   0  0  0  0  0  0  0  0  0  0  0  0
   25.1041  -21.1201  -12.5106 C   0  0  2  0  0  0  0  0  0  0  0  0
   26.0751  -20.3487  -13.3288 N   0  0  0  0  0  0  0  0  0  0  0  0
   23.7843  -20.7818  -13.0266 C   0  0  0  0  0  0  0  0  0  0  0  0
   23.3718  -19.5708  -13.0792 O   0  0  0  0  0  0  0  0  0  0  0  0
   21.0451  -22.4444  -14.9552 C   0  0  0  0  0  0  0  0  0  0  0  0
   21.5514  -21.3335  -14.0358 C   0  0  2  0  0  0  0  0  0  0  0  0
   22.8562  -21.7334  -13.5105 N   0  0  0  0  0  0  0  0  0  0  0  0
   20.5815  -21.2374  -12.9208 C   0  0  0  0  0  0  0  0  0  0  0  0
   20.8227  -21.8641  -11.8616 O   0  0  0  0  0  0  0  0  0  0  0  0
   19.4196  -20.4851  -12.9980 O   0  0  0  0  0  0  0  0  0  0  0  0
  2  1  1  6
  2  3  1  0
  4  3  1  0
  5  4  2  0
  6  5  1  0
  7  6  2  0
  7  8  1  0
  8  9  2  0
  9  4  1  0
 10  2  1  0
 10 17  1  0
 11 10  2  0
 13 12  1  0
 14 16  1  0
 14 13  1  0
 14 15  1  1
 16 17  1  6
 18 16  1  0
 19 18  2  0
 21 20  1  6
 21 23  1  0
 21 22  1  0
 22 18  1  0
 23 25  1  0
 24 23  2  0
M  END
$$$$
