FIA.pdb
     RDKit          3D

 25 25  0  0  1  0  0  0  0  0999 V2000
   28.1763  -19.9211   -8.7577 N   0  0  0  0  0  0  0  0  0  0  0  0
   26.8674  -20.5392   -8.5596 C   0  0  1  0  0  0  0  0  0  0  0  0
   26.2636  -20.0255   -7.2526 C   0  0  0  0  0  0  0  0  0  0  0  0
   27.2915  -20.0690   -6.1880 C   0  0  0  0  0  0  0  0  0  0  0  0
   27.5044  -21.2166   -5.4544 C   0  0  0  0  0  0  0  0  0  0  0  0
   28.4665  -21.2693   -4.4525 C   0  0  0  0  0  0  0  0  0  0  0  0
   29.2075  -20.1263   -4.2142 C   0  0  0  0  0  0  0  0  0  0  0  0
   29.0178  -18.9698   -4.9282 C   0  0  0  0  0  0  0  0  0  0  0  0
   28.0525  -18.9598   -5.9141 C   0  0  0  0  0  0  0  0  0  0  0  0
   26.0076  -20.1311   -9.6994 C   0  0  0  0  0  0  0  0  0  0  0  0
   25.6994  -18.9182   -9.9141 O   0  0  0  0  0  0  0  0  0  0  0  0
   28.0377  -21.3880  -13.9764 C   0  0  0  0  0  0  0  0  0  0  0  0
   27.2035  -20.7238  -12.8780 C   0  0  0  0  0  0  0  0  0  0  0  0
   25.8170  -21.2996  -12.9001 C   0  0  2  0  0  0  0  0  0  0  0  0
   25.2143  -21.2383  -14.3033 C   0  0  0  0  0  0  0  0  0  0  0  0
   24.8683  -20.7889  -11.8722 C   0  0  2  0  0  0  0  0  0  0  0  0
   25.5149  -21.1013  -10.5716 N   0  0  0  0  0  0  0  0  0  0  0  0
   23.5485  -21.4040  -11.8239 C   0  0  0  0  0  0  0  0  0  0  0  0
   23.3932  -22.6439  -11.5447 O   0  0  0  0  0  0  0  0  0  0  0  0
   19.9560  -20.3275  -11.8814 C   0  0  0  0  0  0  0  0  0  0  0  0
   21.0464  -21.3862  -12.0428 C   0  0  2  0  0  0  0  0  0  0  0  0
   22.3418  -20.7083  -12.0707 N   0  0  0  0  0  0  0  0  0  0  0  0
   20.8060  -22.0399  -13.3496 C   0  0  0  0  0  0  0  0  0  0  0  0
   21.4629  -21.6499  -14.3442 O   0  0  0  0  0  0  0  0  0  0  0  0
   19.8868  -23.0636  -13.5201 O   0  0  0  0  0  0  0  0  0  0  0  0
  2  1  1  6
  2  3  1  0
  4  3  1  0
  5  4  2  0
  6  5  1  0
  7  6  2  0
  7  8  1  0
  8  9  2  0
  9  4  1  0
 10  2  1  0
 10 17  1  0
 11 10  2  0
 13 12  1  0
 14 16  1  0
 14 13  1  0
 14 15  1  6
 16 17  1  1
 18 16  1  0
 19 18  2  0
 21 20  1  6
 21 23  1  0
 21 22  1  0
 22 18  1  0
 23 25  1  0
 24 23  2  0
M  END
$$$$
