FIA.pdb
     RDKit          3D

 25 25  0  0  1  0  0  0  0  0999 V2000
   19.6025  -10.6503  -17.6398 N   0  0  0  0  0  0  0  0  0  0  0  0
   19.2412   -9.2761  -17.9799 C   0  0  1  0  0  0  0  0  0  0  0  0
   17.9827   -9.2892  -18.8475 C   0  0  0  0  0  0  0  0  0  0  0  0
   18.3311   -9.7570  -20.2082 C   0  0  0  0  0  0  0  0  0  0  0  0
   17.9968  -11.0266  -20.6288 C   0  0  0  0  0  0  0  0  0  0  0  0
   18.3187  -11.4769  -21.9040 C   0  0  0  0  0  0  0  0  0  0  0  0
   18.9890  -10.6046  -22.7418 C   0  0  0  0  0  0  0  0  0  0  0  0
   19.3347   -9.3354  -22.3508 C   0  0  0  0  0  0  0  0  0  0  0  0
   18.9965   -8.9278  -21.0767 C   0  0  0  0  0  0  0  0  0  0  0  0
   18.9612   -8.5637  -16.7074 C   0  0  0  0  0  0  0  0  0  0  0  0
   18.3130   -9.1034  -15.7583 O   0  0  0  0  0  0  0  0  0  0  0  0
   22.8388   -5.4272  -14.6078 C   0  0  0  0  0  0  0  0  0  0  0  0
   21.5861   -5.6034  -15.4699 C   0  0  0  0  0  0  0  0  0  0  0  0
   20.5472   -6.3442  -14.6785 C   0  0  2  0  0  0  0  0  0  0  0  0
   21.0727   -7.7000  -14.2072 C   0  0  0  0  0  0  0  0  0  0  0  0
   19.1987   -6.4636  -15.2987 C   0  0  2  0  0  0  0  0  0  0  0  0
   19.4192   -7.2580  -16.5347 N   0  0  0  0  0  0  0  0  0  0  0  0
   18.5524   -5.2288  -15.7235 C   0  0  0  0  0  0  0  0  0  0  0  0
   18.9395   -4.5892  -16.7629 O   0  0  0  0  0  0  0  0  0  0  0  0
   15.5484   -3.1730  -14.7645 C   0  0  0  0  0  0  0  0  0  0  0  0
   16.8705   -3.3764  -15.5039 C   0  0  2  0  0  0  0  0  0  0  0  0
   17.4606   -4.6344  -15.0484 N   0  0  0  0  0  0  0  0  0  0  0  0
   17.7487   -2.2510  -15.1099 C   0  0  0  0  0  0  0  0  0  0  0  0
   18.5073   -2.4006  -14.1225 O   0  0  0  0  0  0  0  0  0  0  0  0
   17.7679   -1.0404  -15.7853 O   0  0  0  0  0  0  0  0  0  0  0  0
  2  1  1  1
  2  3  1  0
  4  3  1  0
  5  4  2  0
  6  5  1  0
  7  6  2  0
  7  8  1  0
  8  9  2  0
  9  4  1  0
 10  2  1  0
 10 17  1  0
 11 10  2  0
 13 12  1  0
 14 16  1  0
 14 13  1  0
 14 15  1  6
 16 17  1  6
 18 16  1  0
 19 18  2  0
 21 20  1  1
 21 23  1  0
 21 22  1  0
 22 18  1  0
 23 25  1  0
 24 23  2  0
M  END
$$$$
