FIA.pdb
     RDKit          3D

 25 25  0  0  1  0  0  0  0  0999 V2000
   28.3017  -20.4215   -8.6156 N   0  0  0  0  0  0  0  0  0  0  0  0
   26.8619  -20.4479   -8.3684 C   0  0  1  0  0  0  0  0  0  0  0  0
   26.5182  -19.4111   -7.2990 C   0  0  0  0  0  0  0  0  0  0  0  0
   27.4252  -19.5826   -6.1415 C   0  0  0  0  0  0  0  0  0  0  0  0
   27.2502  -20.6206   -5.2513 C   0  0  0  0  0  0  0  0  0  0  0  0
   28.0953  -20.7917   -4.1609 C   0  0  0  0  0  0  0  0  0  0  0  0
   29.1234  -19.8814   -3.9973 C   0  0  0  0  0  0  0  0  0  0  0  0
   29.3220  -18.8386   -4.8670 C   0  0  0  0  0  0  0  0  0  0  0  0
   28.4605  -18.7047   -5.9365 C   0  0  0  0  0  0  0  0  0  0  0  0
   26.1871  -20.0916   -9.6423 C   0  0  0  0  0  0  0  0  0  0  0  0
   26.3108  -18.9462  -10.1762 O   0  0  0  0  0  0  0  0  0  0  0  0
   27.3757  -20.6164  -13.5030 C   0  0  0  0  0  0  0  0  0  0  0  0
   27.0305  -21.7881  -12.5802 C   0  0  0  0  0  0  0  0  0  0  0  0
   25.5373  -21.9024  -12.4713 C   0  0  2  0  0  0  0  0  0  0  0  0
   24.8923  -22.0608  -13.8479 C   0  0  0  0  0  0  0  0  0  0  0  0
   24.8482  -20.8624  -11.6584 C   0  0  2  0  0  0  0  0  0  0  0  0
   25.3876  -21.0362  -10.2850 N   0  0  0  0  0  0  0  0  0  0  0  0
   23.3999  -20.9662  -11.5385 C   0  0  0  0  0  0  0  0  0  0  0  0
   22.8415  -21.9671  -10.9678 O   0  0  0  0  0  0  0  0  0  0  0  0
   20.3800  -18.8534  -12.3431 C   0  0  0  0  0  0  0  0  0  0  0  0
   21.0503  -20.1298  -11.8359 C   0  0  2  0  0  0  0  0  0  0  0  0
   22.4941  -19.9946  -12.0249 N   0  0  0  0  0  0  0  0  0  0  0  0
   20.5453  -21.2339  -12.6838 C   0  0  0  0  0  0  0  0  0  0  0  0
   21.1763  -21.5238  -13.7281 O   0  0  0  0  0  0  0  0  0  0  0  0
   19.4059  -21.9599  -12.3725 O   0  0  0  0  0  0  0  0  0  0  0  0
  2  1  1  6
  2  3  1  0
  4  3  1  0
  5  4  2  0
  6  5  1  0
  7  6  2  0
  7  8  1  0
  8  9  2  0
  9  4  1  0
 10  2  1  0
 10 17  1  0
 11 10  2  0
 13 12  1  0
 14 16  1  0
 14 13  1  0
 14 15  1  6
 16 17  1  1
 18 16  1  0
 19 18  2  0
 21 20  1  6
 21 23  1  0
 21 22  1  0
 22 18  1  0
 23 25  1  0
 24 23  2  0
M  END
$$$$
