FIA.pdb
     RDKit          3D

 25 25  0  0  1  0  0  0  0  0999 V2000
   27.6911  -21.7154  -13.8407 N   0  0  0  0  0  0  0  0  0  0  0  0
   26.6078  -21.3811  -12.9191 C   0  0  1  0  0  0  0  0  0  0  0  0
   27.0107  -20.1582  -12.0952 C   0  0  0  0  0  0  0  0  0  0  0  0
   27.9822  -20.5667  -11.0554 C   0  0  0  0  0  0  0  0  0  0  0  0
   27.5694  -20.8467   -9.7703 C   0  0  0  0  0  0  0  0  0  0  0  0
   28.4722  -21.2311   -8.7856 C   0  0  0  0  0  0  0  0  0  0  0  0
   29.8058  -21.3240   -9.1394 C   0  0  0  0  0  0  0  0  0  0  0  0
   30.2459  -21.0516  -10.4103 C   0  0  0  0  0  0  0  0  0  0  0  0
   29.3170  -20.6732  -11.3579 C   0  0  0  0  0  0  0  0  0  0  0  0
   25.4127  -21.0574  -13.7389 C   0  0  0  0  0  0  0  0  0  0  0  0
   25.4758  -20.3041  -14.7590 O   0  0  0  0  0  0  0  0  0  0  0  0
   21.4269  -24.2111  -16.3416 C   0  0  0  0  0  0  0  0  0  0  0  0
   21.4211  -22.8640  -15.6145 C   0  0  0  0  0  0  0  0  0  0  0  0
   22.7040  -22.7151  -14.8487 C   0  0  2  0  0  0  0  0  0  0  0  0
   22.9058  -23.8763  -13.8754 C   0  0  0  0  0  0  0  0  0  0  0  0
   22.9368  -21.4000  -14.1902 C   0  0  2  0  0  0  0  0  0  0  0  0
   24.1730  -21.5914  -13.3887 N   0  0  0  0  0  0  0  0  0  0  0  0
   21.9190  -20.9365  -13.2564 C   0  0  0  0  0  0  0  0  0  0  0  0
   21.7771  -21.4642  -12.0985 O   0  0  0  0  0  0  0  0  0  0  0  0
   19.5186  -18.0712  -12.9385 C   0  0  0  0  0  0  0  0  0  0  0  0
   20.0026  -19.4704  -12.5589 C   0  0  2  0  0  0  0  0  0  0  0  0
   21.0150  -19.8834  -13.5300 N   0  0  0  0  0  0  0  0  0  0  0  0
   18.8266  -20.3641  -12.6654 C   0  0  0  0  0  0  0  0  0  0  0  0
   18.6669  -21.0204  -13.7220 O   0  0  0  0  0  0  0  0  0  0  0  0
   17.8958  -20.5059  -11.6477 O   0  0  0  0  0  0  0  0  0  0  0  0
  2  1  1  6
  2  3  1  0
  4  3  1  0
  5  4  2  0
  6  5  1  0
  7  6  2  0
  7  8  1  0
  8  9  2  0
  9  4  1  0
 10  2  1  0
 10 17  1  0
 11 10  2  0
 13 12  1  0
 14 16  1  0
 14 13  1  0
 14 15  1  1
 16 17  1  1
 18 16  1  0
 19 18  2  0
 21 20  1  6
 21 23  1  0
 21 22  1  0
 22 18  1  0
 23 25  1  0
 24 23  2  0
M  END
$$$$
