FIA.pdb
     RDKit          3D

 25 25  0  0  1  0  0  0  0  0999 V2000
   24.4877  -16.2521  -16.8259 N   0  0  0  0  0  0  0  0  0  0  0  0
   25.3094  -17.0897  -15.9553 C   0  0  1  0  0  0  0  0  0  0  0  0
   26.3904  -16.2266  -15.3048 C   0  0  0  0  0  0  0  0  0  0  0  0
   27.5592  -16.1416  -16.2094 C   0  0  0  0  0  0  0  0  0  0  0  0
   28.4256  -17.2046  -16.3501 C   0  0  0  0  0  0  0  0  0  0  0  0
   29.5264  -17.1366  -17.1963 C   0  0  0  0  0  0  0  0  0  0  0  0
   29.7252  -15.9607  -17.8965 C   0  0  0  0  0  0  0  0  0  0  0  0
   28.8798  -14.8864  -17.7766 C   0  0  0  0  0  0  0  0  0  0  0  0
   27.7989  -14.9954  -16.9259 C   0  0  0  0  0  0  0  0  0  0  0  0
   24.4181  -17.6461  -14.9060 C   0  0  0  0  0  0  0  0  0  0  0  0
   23.4845  -16.9648  -14.3802 O   0  0  0  0  0  0  0  0  0  0  0  0
   21.0362  -20.9537  -15.8609 C   0  0  0  0  0  0  0  0  0  0  0  0
   21.8964  -19.8747  -15.1981 C   0  0  0  0  0  0  0  0  0  0  0  0
   22.8582  -20.5294  -14.2491 C   0  0  2  0  0  0  0  0  0  0  0  0
   22.1478  -21.5432  -13.3526 C   0  0  0  0  0  0  0  0  0  0  0  0
   23.7376  -19.6216  -13.4618 C   0  0  2  0  0  0  0  0  0  0  0  0
   24.6007  -18.9592  -14.4735 N   0  0  0  0  0  0  0  0  0  0  0  0
   24.6432  -20.2419  -12.5038 C   0  0  0  0  0  0  0  0  0  0  0  0
   25.3666  -21.2510  -12.8168 O   0  0  0  0  0  0  0  0  0  0  0  0
   26.0324  -19.5930   -9.0886 C   0  0  0  0  0  0  0  0  0  0  0  0
   25.6195  -20.5462  -10.2097 C   0  0  2  0  0  0  0  0  0  0  0  0
   24.8097  -19.7986  -11.1708 N   0  0  0  0  0  0  0  0  0  0  0  0
   24.7885  -21.5983   -9.5807 C   0  0  0  0  0  0  0  0  0  0  0  0
   23.5511  -21.5854   -9.7840 O   0  0  0  0  0  0  0  0  0  0  0  0
   25.3198  -22.5957   -8.7776 O   0  0  0  0  0  0  0  0  0  0  0  0
  2  1  1  6
  2  3  1  0
  4  3  1  0
  5  4  2  0
  6  5  1  0
  7  6  2  0
  7  8  1  0
  8  9  2  0
  9  4  1  0
 10  2  1  0
 10 17  1  0
 11 10  2  0
 13 12  1  0
 14 16  1  0
 14 13  1  0
 14 15  1  1
 16 17  1  6
 18 16  1  0
 19 18  2  0
 21 20  1  1
 21 23  1  0
 21 22  1  0
 22 18  1  0
 23 25  1  0
 24 23  2  0
M  END
$$$$
