FIA.pdb
     RDKit          3D

 25 25  0  0  1  0  0  0  0  0999 V2000
   28.2937  -21.4438   -9.2612 N   0  0  0  0  0  0  0  0  0  0  0  0
   26.9675  -20.8315   -9.2275 C   0  0  1  0  0  0  0  0  0  0  0  0
   27.0521  -19.4939   -8.4923 C   0  0  0  0  0  0  0  0  0  0  0  0
   27.4949  -19.7281   -7.0991 C   0  0  0  0  0  0  0  0  0  0  0  0
   26.7244  -20.4643   -6.2246 C   0  0  0  0  0  0  0  0  0  0  0  0
   27.1296  -20.6907   -4.9143 C   0  0  0  0  0  0  0  0  0  0  0  0
   28.3381  -20.1503   -4.5143 C   0  0  0  0  0  0  0  0  0  0  0  0
   29.1261  -19.4135   -5.3625 C   0  0  0  0  0  0  0  0  0  0  0  0
   28.6870  -19.2122   -6.6550 C   0  0  0  0  0  0  0  0  0  0  0  0
   26.5500  -20.6010  -10.6337 C   0  0  0  0  0  0  0  0  0  0  0  0
   27.2700  -19.9549  -11.4561 O   0  0  0  0  0  0  0  0  0  0  0  0
   25.2250  -23.7461  -15.0962 C   0  0  0  0  0  0  0  0  0  0  0  0
   24.7261  -22.4006  -14.5631 C   0  0  0  0  0  0  0  0  0  0  0  0
   25.1544  -22.2516  -13.1317 C   0  0  2  0  0  0  0  0  0  0  0  0
   24.6926  -23.4403  -12.2890 C   0  0  0  0  0  0  0  0  0  0  0  0
   24.8347  -20.9547  -12.4734 C   0  0  2  0  0  0  0  0  0  0  0  0
   25.3290  -21.1053  -11.0804 N   0  0  0  0  0  0  0  0  0  0  0  0
   23.4270  -20.5954  -12.3647 C   0  0  0  0  0  0  0  0  0  0  0  0
   22.6704  -21.1013  -11.4641 O   0  0  0  0  0  0  0  0  0  0  0  0
   20.9735  -18.3407  -14.1364 C   0  0  0  0  0  0  0  0  0  0  0  0
   21.3326  -19.4570  -13.1562 C   0  0  2  0  0  0  0  0  0  0  0  0
   22.7775  -19.6737  -13.2189 N   0  0  0  0  0  0  0  0  0  0  0  0
   20.6327  -20.6728  -13.6305 C   0  0  0  0  0  0  0  0  0  0  0  0
   19.4781  -20.9056  -13.1996 O   0  0  0  0  0  0  0  0  0  0  0  0
   21.1987  -21.5635  -14.5295 O   0  0  0  0  0  0  0  0  0  0  0  0
  2  1  1  6
  2  3  1  0
  4  3  1  0
  5  4  2  0
  6  5  1  0
  7  6  2  0
  7  8  1  0
  8  9  2  0
  9  4  1  0
 10  2  1  0
 10 17  1  0
 11 10  2  0
 13 12  1  0
 14 16  1  0
 14 13  1  0
 14 15  1  1
 16 17  1  1
 18 16  1  0
 19 18  2  0
 21 20  1  6
 21 23  1  0
 21 22  1  0
 22 18  1  0
 23 25  1  0
 24 23  2  0
M  END
$$$$
