SWY.pdb
     RDKit          3D

 33 35  0  0  1  0  0  0  0  0999 V2000
    8.9722  -20.0507   23.2658 O   0  0  0  0  0  0  0  0  0  0  0  0
    8.3258  -19.9268   24.4841 C   0  0  0  0  0  0  0  0  0  0  0  0
    6.9124  -19.4278   24.1800 C   0  0  2  0  0  0  0  0  0  0  0  0
    6.2667  -20.4899   23.4377 N   0  0  0  0  0  0  0  0  0  0  0  0
    7.0414  -18.2450   23.3157 C   0  0  0  0  0  0  0  0  0  0  0  0
    6.6475  -18.3068   22.1220 O   0  0  0  0  0  0  0  0  0  0  0  0
    7.6074  -17.0147   23.7998 N   0  0  0  0  0  0  0  0  0  0  0  0
    7.7491  -15.8994   22.9299 C   0  0  1  0  0  0  0  0  0  0  0  0
    8.0512  -14.5858   23.6423 C   0  0  0  0  0  0  0  0  0  0  0  0
    7.2469  -14.3947   24.8672 C   0  0  0  0  0  0  0  0  0  0  0  0
    6.4322  -15.3360   25.4632 C   0  0  0  0  0  0  0  0  0  0  0  0
    5.8779  -14.8199   26.5699 N   0  0  0  0  0  0  0  0  0  0  0  0
    6.3165  -13.5546   26.7082 C   0  0  0  0  0  0  0  0  0  0  0  0
    6.0772  -12.5710   27.6387 C   0  0  0  0  0  0  0  0  0  0  0  0
    6.6561  -11.3241   27.5547 C   0  0  0  0  0  0  0  0  0  0  0  0
    7.5096  -11.0171   26.5162 C   0  0  0  0  0  0  0  0  0  0  0  0
    7.7425  -12.0168   25.5857 C   0  0  0  0  0  0  0  0  0  0  0  0
    7.1704  -13.2699   25.6574 C   0  0  0  0  0  0  0  0  0  0  0  0
    8.8218  -16.0835   21.9187 C   0  0  0  0  0  0  0  0  0  0  0  0
    8.4761  -16.1468   20.7149 O   0  0  0  0  0  0  0  0  0  0  0  0
    7.4007  -13.0592   17.1212 O   0  0  0  0  0  0  0  0  0  0  0  0
    8.3575  -13.4052   18.0717 C   0  0  0  0  0  0  0  0  0  0  0  0
    8.9857  -14.6269   17.9130 C   0  0  0  0  0  0  0  0  0  0  0  0
    9.9393  -15.0136   18.8274 C   0  0  0  0  0  0  0  0  0  0  0  0
   10.2660  -14.1804   19.9000 C   0  0  0  0  0  0  0  0  0  0  0  0
   11.2716  -14.5686   20.9085 C   0  0  0  0  0  0  0  0  0  0  0  0
   11.2578  -16.0323   21.2707 C   0  0  2  0  0  0  0  0  0  0  0  0
   10.1880  -16.1866   22.2684 N   0  0  0  0  0  0  0  0  0  0  0  0
   12.5653  -16.4010   21.8293 C   0  0  0  0  0  0  0  0  0  0  0  0
   12.6415  -16.8805   23.1196 O   0  0  0  0  0  0  0  0  0  0  0  0
    9.6221  -12.9667   20.0327 C   0  0  0  0  0  0  0  0  0  0  0  0
    8.6612  -12.5652   19.1211 C   0  0  0  0  0  0  0  0  0  0  0  0
   13.5979  -16.2826   21.1460 O   0  0  0  0  0  0  0  0  0  0  0  0
  2  1  1  0
  3  2  1  0
  3  4  1  6
  5  6  2  0
  5  3  1  0
  7  5  1  0
  8  9  1  1
  8  7  1  0
 10  9  1  0
 10 18  1  0
 11 12  1  0
 11 10  2  0
 12 13  1  0
 13 18  2  0
 13 14  1  0
 14 15  2  0
 15 16  1  0
 17 16  2  0
 18 17  1  0
 19  8  1  0
 20 19  2  0
 22 21  1  0
 22 23  2  0
 24 23  1  0
 25 24  2  0
 26 25  1  0
 27 26  1  1
 27 28  1  0
 28 19  1  0
 29 27  1  0
 29 30  1  0
 31 32  2  0
 31 25  1  0
 32 22  1  0
 33 29  2  0
M  END
$$$$
