SWY.pdb
     RDKit          3D

 33 35  0  0  1  0  0  0  0  0999 V2000
   11.0499  -19.9825   20.1594 O   0  0  0  0  0  0  0  0  0  0  0  0
    9.6842  -20.0878   19.9561 C   0  0  0  0  0  0  0  0  0  0  0  0
    9.2728  -18.8771   19.1170 C   0  0  2  0  0  0  0  0  0  0  0  0
   10.2229  -18.8074   18.0268 N   0  0  0  0  0  0  0  0  0  0  0  0
    9.4230  -17.6846   19.9644 C   0  0  0  0  0  0  0  0  0  0  0  0
   10.5188  -17.0659   19.9708 O   0  0  0  0  0  0  0  0  0  0  0  0
    8.3469  -17.2044   20.7889 N   0  0  0  0  0  0  0  0  0  0  0  0
    8.5375  -16.0745   21.6302 C   0  0  1  0  0  0  0  0  0  0  0  0
    7.2434  -15.4148   22.0931 C   0  0  0  0  0  0  0  0  0  0  0  0
    7.4703  -14.1677   22.8529 C   0  0  0  0  0  0  0  0  0  0  0  0
    8.0276  -13.0041   22.3627 C   0  0  0  0  0  0  0  0  0  0  0  0
    8.0552  -12.0734   23.3279 N   0  0  0  0  0  0  0  0  0  0  0  0
    7.5249  -12.6094   24.4432 C   0  0  0  0  0  0  0  0  0  0  0  0
    7.3089  -12.1236   25.7112 C   0  0  0  0  0  0  0  0  0  0  0  0
    6.7415  -12.8904   26.7048 C   0  0  0  0  0  0  0  0  0  0  0  0
    6.3652  -14.1930   26.4548 C   0  0  0  0  0  0  0  0  0  0  0  0
    6.5878  -14.6703   25.1733 C   0  0  0  0  0  0  0  0  0  0  0  0
    7.1543  -13.9139   24.1686 C   0  0  0  0  0  0  0  0  0  0  0  0
    9.3101  -16.3889   22.8597 C   0  0  0  0  0  0  0  0  0  0  0  0
    8.9544  -17.3905   23.5251 O   0  0  0  0  0  0  0  0  0  0  0  0
   10.9536  -15.1421   31.0324 O   0  0  0  0  0  0  0  0  0  0  0  0
   10.6518  -15.1661   29.6733 C   0  0  0  0  0  0  0  0  0  0  0  0
   10.2704  -16.3825   29.1373 C   0  0  0  0  0  0  0  0  0  0  0  0
    9.9619  -16.4570   27.7978 C   0  0  0  0  0  0  0  0  0  0  0  0
   10.0338  -15.3170   26.9935 C   0  0  0  0  0  0  0  0  0  0  0  0
    9.7259  -15.3622   25.5506 C   0  0  0  0  0  0  0  0  0  0  0  0
   10.9108  -15.6698   24.6700 C   0  0  2  0  0  0  0  0  0  0  0  0
   10.4083  -15.6084   23.2890 N   0  0  0  0  0  0  0  0  0  0  0  0
   11.4150  -17.0106   24.9949 C   0  0  0  0  0  0  0  0  0  0  0  0
   11.3363  -18.0126   24.0514 O   0  0  0  0  0  0  0  0  0  0  0  0
   10.4178  -14.1167   27.5565 C   0  0  0  0  0  0  0  0  0  0  0  0
   10.7311  -14.0271   28.9016 C   0  0  0  0  0  0  0  0  0  0  0  0
   11.9101  -17.2434   26.1120 O   0  0  0  0  0  0  0  0  0  0  0  0
  2  1  1  0
  3  2  1  0
  3  4  1  6
  5  6  2  0
  5  3  1  0
  7  5  1  0
  8  9  1  1
  8  7  1  0
 10  9  1  0
 10 18  1  0
 11 12  1  0
 11 10  2  0
 12 13  1  0
 13 18  2  0
 13 14  1  0
 14 15  2  0
 15 16  1  0
 17 16  2  0
 18 17  1  0
 19  8  1  0
 20 19  2  0
 22 21  1  0
 22 23  2  0
 24 23  1  0
 25 24  2  0
 26 25  1  0
 27 26  1  1
 27 28  1  0
 28 19  1  0
 29 27  1  0
 29 30  1  0
 31 32  2  0
 31 25  1  0
 32 22  1  0
 33 29  2  0
M  END
$$$$
