SWY.pdb
     RDKit          3D

 33 35  0  0  1  0  0  0  0  0999 V2000
    7.7340  -19.0903   22.6498 O   0  0  0  0  0  0  0  0  0  0  0  0
    6.9142  -18.6970   21.6054 C   0  0  0  0  0  0  0  0  0  0  0  0
    6.3801  -17.3104   21.9677 C   0  0  2  0  0  0  0  0  0  0  0  0
    5.6521  -16.8482   20.8047 N   0  0  0  0  0  0  0  0  0  0  0  0
    7.5420  -16.4365   22.1879 C   0  0  0  0  0  0  0  0  0  0  0  0
    8.1322  -15.9327   21.1972 O   0  0  0  0  0  0  0  0  0  0  0  0
    8.0238  -16.1406   23.5104 N   0  0  0  0  0  0  0  0  0  0  0  0
    9.2421  -15.4299   23.6872 C   0  0  1  0  0  0  0  0  0  0  0  0
    9.1520  -14.2713   24.6740 C   0  0  0  0  0  0  0  0  0  0  0  0
    7.7825  -14.0521   25.1841 C   0  0  0  0  0  0  0  0  0  0  0  0
    6.8342  -15.0268   25.4197 C   0  0  0  0  0  0  0  0  0  0  0  0
    5.7164  -14.4643   25.9021 N   0  0  0  0  0  0  0  0  0  0  0  0
    5.9175  -13.1357   25.9860 C   0  0  0  0  0  0  0  0  0  0  0  0
    5.1291  -12.0878   26.3992 C   0  0  0  0  0  0  0  0  0  0  0  0
    5.5731  -10.7841   26.3839 C   0  0  0  0  0  0  0  0  0  0  0  0
    6.8454  -10.4831   25.9459 C   0  0  0  0  0  0  0  0  0  0  0  0
    7.6296  -11.5478   25.5327 C   0  0  0  0  0  0  0  0  0  0  0  0
    7.1986  -12.8580   25.5430 C   0  0  0  0  0  0  0  0  0  0  0  0
   10.3562  -16.2936   24.1565 C   0  0  0  0  0  0  0  0  0  0  0  0
   10.1366  -17.0332   25.1451 O   0  0  0  0  0  0  0  0  0  0  0  0
    9.6922  -20.4024   28.5853 O   0  0  0  0  0  0  0  0  0  0  0  0
   10.3878  -19.9121   27.4831 C   0  0  0  0  0  0  0  0  0  0  0  0
    9.8168  -20.1160   26.2402 C   0  0  0  0  0  0  0  0  0  0  0  0
   10.4668  -19.6496   25.1199 C   0  0  0  0  0  0  0  0  0  0  0  0
   11.6865  -18.9793   25.2405 C   0  0  0  0  0  0  0  0  0  0  0  0
   12.4195  -18.4794   24.0609 C   0  0  0  0  0  0  0  0  0  0  0  0
   12.7719  -17.0144   24.1211 C   0  0  2  0  0  0  0  0  0  0  0  0
   11.6257  -16.3038   23.5339 N   0  0  0  0  0  0  0  0  0  0  0  0
   13.9973  -16.7832   23.3451 C   0  0  0  0  0  0  0  0  0  0  0  0
   13.9484  -15.9885   22.2196 O   0  0  0  0  0  0  0  0  0  0  0  0
   12.2321  -18.7908   26.4943 C   0  0  0  0  0  0  0  0  0  0  0  0
   11.5900  -19.2545   27.6293 C   0  0  0  0  0  0  0  0  0  0  0  0
   15.0728  -17.2989   23.6980 O   0  0  0  0  0  0  0  0  0  0  0  0
  2  1  1  0
  3  2  1  0
  3  4  1  6
  5  6  2  0
  5  3  1  0
  7  5  1  0
  8  9  1  1
  8  7  1  0
 10  9  1  0
 10 18  1  0
 11 12  1  0
 11 10  2  0
 12 13  1  0
 13 18  2  0
 13 14  1  0
 14 15  2  0
 15 16  1  0
 17 16  2  0
 18 17  1  0
 19  8  1  0
 20 19  2  0
 22 21  1  0
 22 23  2  0
 24 23  1  0
 25 24  2  0
 26 25  1  0
 27 26  1  6
 27 28  1  0
 28 19  1  0
 29 27  1  0
 29 30  1  0
 31 32  2  0
 31 25  1  0
 32 22  1  0
 33 29  2  0
M  END
$$$$
