SWY.pdb
     RDKit          3D

 33 35  0  0  1  0  0  0  0  0999 V2000
    8.7174  -18.0520   18.2229 O   0  0  0  0  0  0  0  0  0  0  0  0
    9.9897  -18.4280   18.6198 C   0  0  0  0  0  0  0  0  0  0  0  0
    9.9496  -18.5653   20.1425 C   0  0  2  0  0  0  0  0  0  0  0  0
    8.6711  -19.1691   20.4539 N   0  0  0  0  0  0  0  0  0  0  0  0
    9.9920  -17.2080   20.7067 C   0  0  0  0  0  0  0  0  0  0  0  0
   11.0522  -16.5357   20.6187 O   0  0  0  0  0  0  0  0  0  0  0  0
    8.8498  -16.6256   21.3584 N   0  0  0  0  0  0  0  0  0  0  0  0
    8.8889  -15.2761   21.8033 C   0  0  1  0  0  0  0  0  0  0  0  0
    7.5173  -14.6279   21.9536 C   0  0  0  0  0  0  0  0  0  0  0  0
    7.0353  -14.6131   23.3506 C   0  0  0  0  0  0  0  0  0  0  0  0
    6.6098  -15.7061   24.0781 C   0  0  0  0  0  0  0  0  0  0  0  0
    6.2677  -15.3208   25.3163 N   0  0  0  0  0  0  0  0  0  0  0  0
    6.4621  -13.9920   25.4112 C   0  0  0  0  0  0  0  0  0  0  0  0
    6.2776  -13.0831   26.4263 C   0  0  0  0  0  0  0  0  0  0  0  0
    6.5508  -11.7422   26.2700 C   0  0  0  0  0  0  0  0  0  0  0  0
    7.0268  -11.2601   25.0691 C   0  0  0  0  0  0  0  0  0  0  0  0
    7.2085  -12.1862   24.0548 C   0  0  0  0  0  0  0  0  0  0  0  0
    6.9398  -13.5315   24.1971 C   0  0  0  0  0  0  0  0  0  0  0  0
    9.5738  -15.1149   23.1118 C   0  0  0  0  0  0  0  0  0  0  0  0
    9.3312  -14.0730   23.7662 O   0  0  0  0  0  0  0  0  0  0  0  0
   11.4448  -15.7476   31.3352 O   0  0  0  0  0  0  0  0  0  0  0  0
   11.0597  -15.8019   29.9982 C   0  0  0  0  0  0  0  0  0  0  0  0
   10.9893  -17.0545   29.4166 C   0  0  0  0  0  0  0  0  0  0  0  0
   10.6132  -17.1599   28.0965 C   0  0  0  0  0  0  0  0  0  0  0  0
   10.3071  -16.0147   27.3573 C   0  0  0  0  0  0  0  0  0  0  0  0
    9.9157  -16.0877   25.9360 C   0  0  0  0  0  0  0  0  0  0  0  0
   11.0625  -15.9523   24.9662 C   0  0  2  0  0  0  0  0  0  0  0  0
   10.4694  -16.0806   23.6263 N   0  0  0  0  0  0  0  0  0  0  0  0
   12.0369  -17.0211   25.2227 C   0  0  0  0  0  0  0  0  0  0  0  0
   13.0533  -16.8097   26.1298 O   0  0  0  0  0  0  0  0  0  0  0  0
   10.3865  -14.7778   27.9647 C   0  0  0  0  0  0  0  0  0  0  0  0
   10.7634  -14.6569   29.2910 C   0  0  0  0  0  0  0  0  0  0  0  0
   11.9484  -18.1098   24.6278 O   0  0  0  0  0  0  0  0  0  0  0  0
  2  1  1  0
  3  2  1  0
  3  4  1  6
  5  6  2  0
  5  3  1  0
  7  5  1  0
  8  9  1  1
  8  7  1  0
 10  9  1  0
 10 18  1  0
 11 12  1  0
 11 10  2  0
 12 13  1  0
 13 18  2  0
 13 14  1  0
 14 15  2  0
 15 16  1  0
 17 16  2  0
 18 17  1  0
 19  8  1  0
 20 19  2  0
 22 21  1  0
 22 23  2  0
 24 23  1  0
 25 24  2  0
 26 25  1  0
 27 26  1  1
 27 28  1  0
 28 19  1  0
 29 27  1  0
 29 30  1  0
 31 32  2  0
 31 25  1  0
 32 22  1  0
 33 29  2  0
M  END
$$$$
