SWY.pdb
     RDKit          3D

 33 35  0  0  1  0  0  0  0  0999 V2000
    8.4974  -17.1190   19.6212 O   0  0  0  0  0  0  0  0  0  0  0  0
    8.1559  -15.8801   19.1054 C   0  0  0  0  0  0  0  0  0  0  0  0
    7.2768  -15.1974   20.1544 C   0  0  2  0  0  0  0  0  0  0  0  0
    6.9081  -13.9156   19.5913 N   0  0  0  0  0  0  0  0  0  0  0  0
    8.1076  -14.9787   21.3479 C   0  0  0  0  0  0  0  0  0  0  0  0
    8.9167  -14.0150   21.3687 O   0  0  0  0  0  0  0  0  0  0  0  0
    8.0199  -15.8396   22.4966 N   0  0  0  0  0  0  0  0  0  0  0  0
    8.9639  -15.7239   23.5531 C   0  0  1  0  0  0  0  0  0  0  0  0
    8.4254  -16.1323   24.9196 C   0  0  0  0  0  0  0  0  0  0  0  0
    7.3586  -15.2358   25.4117 C   0  0  0  0  0  0  0  0  0  0  0  0
    6.0155  -15.5401   25.5037 C   0  0  0  0  0  0  0  0  0  0  0  0
    5.3483  -14.4956   26.0159 N   0  0  0  0  0  0  0  0  0  0  0  0
    6.2335  -13.5112   26.2606 C   0  0  0  0  0  0  0  0  0  0  0  0
    6.1119  -12.2401   26.7706 C   0  0  0  0  0  0  0  0  0  0  0  0
    7.1947  -11.4025   26.9211 C   0  0  0  0  0  0  0  0  0  0  0  0
    8.4580  -11.8195   26.5587 C   0  0  0  0  0  0  0  0  0  0  0  0
    8.5670  -13.1022   26.0467 C   0  0  0  0  0  0  0  0  0  0  0  0
    7.4919  -13.9520   25.8909 C   0  0  0  0  0  0  0  0  0  0  0  0
   10.1902  -16.5318   23.3280 C   0  0  0  0  0  0  0  0  0  0  0  0
   10.0554  -17.6389   22.7548 O   0  0  0  0  0  0  0  0  0  0  0  0
   12.9440  -14.3688   17.6991 O   0  0  0  0  0  0  0  0  0  0  0  0
   13.1535  -14.8041   19.0050 C   0  0  0  0  0  0  0  0  0  0  0  0
   12.5759  -14.0568   20.0151 C   0  0  0  0  0  0  0  0  0  0  0  0
   12.7546  -14.4471   21.3231 C   0  0  0  0  0  0  0  0  0  0  0  0
   13.5096  -15.5837   21.6226 C   0  0  0  0  0  0  0  0  0  0  0  0
   13.7358  -16.0232   23.0134 C   0  0  0  0  0  0  0  0  0  0  0  0
   12.6678  -16.9373   23.5594 C   0  0  2  0  0  0  0  0  0  0  0  0
   11.4733  -16.0966   23.7327 N   0  0  0  0  0  0  0  0  0  0  0  0
   13.1204  -17.4918   24.8420 C   0  0  0  0  0  0  0  0  0  0  0  0
   14.1738  -18.3810   24.8634 O   0  0  0  0  0  0  0  0  0  0  0  0
   14.0741  -16.3097   20.5933 C   0  0  0  0  0  0  0  0  0  0  0  0
   13.9030  -15.9289   19.2737 C   0  0  0  0  0  0  0  0  0  0  0  0
   12.5597  -17.1637   25.9027 O   0  0  0  0  0  0  0  0  0  0  0  0
  2  1  1  0
  3  2  1  0
  3  4  1  6
  5  6  2  0
  5  3  1  0
  7  5  1  0
  8  9  1  1
  8  7  1  0
 10  9  1  0
 10 18  1  0
 11 12  1  0
 11 10  2  0
 12 13  1  0
 13 18  2  0
 13 14  1  0
 14 15  2  0
 15 16  1  0
 17 16  2  0
 18 17  1  0
 19  8  1  0
 20 19  2  0
 22 21  1  0
 22 23  2  0
 24 23  1  0
 25 24  2  0
 26 25  1  0
 27 26  1  1
 27 28  1  0
 28 19  1  0
 29 27  1  0
 29 30  1  0
 31 32  2  0
 31 25  1  0
 32 22  1  0
 33 29  2  0
M  END
$$$$
