SWY.pdb
     RDKit          3D

 33 35  0  0  1  0  0  0  0  0999 V2000
    9.2836  -20.8558   20.6066 O   0  0  0  0  0  0  0  0  0  0  0  0
   10.1207  -19.8175   20.9791 C   0  0  0  0  0  0  0  0  0  0  0  0
    9.5252  -18.5410   20.3830 C   0  0  2  0  0  0  0  0  0  0  0  0
   10.3437  -18.2197   19.2329 N   0  0  0  0  0  0  0  0  0  0  0  0
    9.6692  -17.4784   21.3893 C   0  0  0  0  0  0  0  0  0  0  0  0
   10.7881  -16.9240   21.5459 O   0  0  0  0  0  0  0  0  0  0  0  0
    8.5613  -17.0536   22.2022 N   0  0  0  0  0  0  0  0  0  0  0  0
    8.7255  -16.0032   23.1456 C   0  0  1  0  0  0  0  0  0  0  0  0
    7.4554  -15.2059   23.4202 C   0  0  0  0  0  0  0  0  0  0  0  0
    7.6744  -14.0681   24.3376 C   0  0  0  0  0  0  0  0  0  0  0  0
    8.6555  -13.1043   24.2217 C   0  0  0  0  0  0  0  0  0  0  0  0
    8.5372  -12.2153   25.2188 N   0  0  0  0  0  0  0  0  0  0  0  0
    7.4939  -12.5820   25.9867 C   0  0  0  0  0  0  0  0  0  0  0  0
    6.9284  -12.0529   27.1227 C   0  0  0  0  0  0  0  0  0  0  0  0
    5.8416  -12.6315   27.7400 C   0  0  0  0  0  0  0  0  0  0  0  0
    5.2759  -13.7804   27.2290 C   0  0  0  0  0  0  0  0  0  0  0  0
    5.8549  -14.3032   26.0840 C   0  0  0  0  0  0  0  0  0  0  0  0
    6.9427  -13.7344   25.4549 C   0  0  0  0  0  0  0  0  0  0  0  0
    9.2150  -16.4783   24.4654 C   0  0  0  0  0  0  0  0  0  0  0  0
    8.6393  -17.4705   24.9719 O   0  0  0  0  0  0  0  0  0  0  0  0
   15.4008  -18.3718   22.1872 O   0  0  0  0  0  0  0  0  0  0  0  0
   14.6446  -17.8221   23.2192 C   0  0  0  0  0  0  0  0  0  0  0  0
   14.2445  -16.5067   23.0710 C   0  0  0  0  0  0  0  0  0  0  0  0
   13.4949  -15.9187   24.0647 C   0  0  0  0  0  0  0  0  0  0  0  0
   13.1446  -16.6440   25.2061 C   0  0  0  0  0  0  0  0  0  0  0  0
   12.3558  -16.0419   26.2988 C   0  0  0  0  0  0  0  0  0  0  0  0
   10.9099  -16.4690   26.3319 C   0  0  2  0  0  0  0  0  0  0  0  0
   10.2859  -15.8572   25.1487 N   0  0  0  0  0  0  0  0  0  0  0  0
   10.2935  -15.9809   27.5725 C   0  0  0  0  0  0  0  0  0  0  0  0
    9.9803  -14.6439   27.6947 O   0  0  0  0  0  0  0  0  0  0  0  0
   13.5586  -17.9552   25.3262 C   0  0  0  0  0  0  0  0  0  0  0  0
   14.3128  -18.5592   24.3352 C   0  0  0  0  0  0  0  0  0  0  0  0
   10.0544  -16.7653   28.5078 O   0  0  0  0  0  0  0  0  0  0  0  0
  2  1  1  0
  3  2  1  0
  3  4  1  6
  5  6  2  0
  5  3  1  0
  7  5  1  0
  8  9  1  1
  8  7  1  0
 10  9  1  0
 10 18  1  0
 11 12  1  0
 11 10  2  0
 12 13  1  0
 13 18  2  0
 13 14  1  0
 14 15  2  0
 15 16  1  0
 17 16  2  0
 18 17  1  0
 19  8  1  0
 20 19  2  0
 22 21  1  0
 22 23  2  0
 24 23  1  0
 25 24  2  0
 26 25  1  0
 27 26  1  1
 27 28  1  0
 28 19  1  0
 29 27  1  0
 29 30  1  0
 31 32  2  0
 31 25  1  0
 32 22  1  0
 33 29  2  0
M  END
$$$$
