SWY.pdb
     RDKit          3D

 33 35  0  0  1  0  0  0  0  0999 V2000
   11.2354  -19.6833   22.3127 O   0  0  0  0  0  0  0  0  0  0  0  0
   11.0194  -19.5049   20.9565 C   0  0  0  0  0  0  0  0  0  0  0  0
    9.5976  -18.9612   20.8085 C   0  0  2  0  0  0  0  0  0  0  0  0
    9.4151  -18.7041   19.3955 N   0  0  0  0  0  0  0  0  0  0  0  0
    9.5361  -17.6882   21.5421 C   0  0  0  0  0  0  0  0  0  0  0  0
   10.0538  -16.6587   21.0365 O   0  0  0  0  0  0  0  0  0  0  0  0
    8.8973  -17.5877   22.8268 N   0  0  0  0  0  0  0  0  0  0  0  0
    8.9416  -16.3683   23.5560 C   0  0  1  0  0  0  0  0  0  0  0  0
    7.7722  -16.1703   24.5139 C   0  0  0  0  0  0  0  0  0  0  0  0
    7.1402  -14.8405   24.3869 C   0  0  0  0  0  0  0  0  0  0  0  0
    6.4588  -14.3631   23.2857 C   0  0  0  0  0  0  0  0  0  0  0  0
    6.0017  -13.1275   23.5363 N   0  0  0  0  0  0  0  0  0  0  0  0
    6.3733  -12.7877   24.7849 C   0  0  0  0  0  0  0  0  0  0  0  0
    6.1871  -11.6600   25.5492 C   0  0  0  0  0  0  0  0  0  0  0  0
    6.6834  -11.5502   26.8293 C   0  0  0  0  0  0  0  0  0  0  0  0
    7.3954  -12.5865   27.3953 C   0  0  0  0  0  0  0  0  0  0  0  0
    7.5756  -13.7170   26.6149 C   0  0  0  0  0  0  0  0  0  0  0  0
    7.0841  -13.8411   25.3322 C   0  0  0  0  0  0  0  0  0  0  0  0
   10.1771  -16.2211   24.3679 C   0  0  0  0  0  0  0  0  0  0  0  0
   10.0422  -16.1059   25.6093 O   0  0  0  0  0  0  0  0  0  0  0  0
    9.5867  -16.0664   30.1697 O   0  0  0  0  0  0  0  0  0  0  0  0
   10.3879  -16.2408   29.0443 C   0  0  0  0  0  0  0  0  0  0  0  0
   10.4553  -17.5163   28.5143 C   0  0  0  0  0  0  0  0  0  0  0  0
   11.2345  -17.7389   27.4015 C   0  0  0  0  0  0  0  0  0  0  0  0
   11.9461  -16.6881   26.8177 C   0  0  0  0  0  0  0  0  0  0  0  0
   12.8039  -16.8924   25.6339 C   0  0  0  0  0  0  0  0  0  0  0  0
   12.6601  -15.8333   24.5701 C   0  0  2  0  0  0  0  0  0  0  0  0
   11.4688  -16.2076   23.7927 N   0  0  0  0  0  0  0  0  0  0  0  0
   13.8653  -15.8295   23.7305 C   0  0  0  0  0  0  0  0  0  0  0  0
   13.7643  -16.1611   22.3962 O   0  0  0  0  0  0  0  0  0  0  0  0
   11.8595  -15.4256   27.3689 C   0  0  0  0  0  0  0  0  0  0  0  0
   11.0803  -15.1873   28.4877 C   0  0  0  0  0  0  0  0  0  0  0  0
   14.9704  -15.5298   24.2166 O   0  0  0  0  0  0  0  0  0  0  0  0
  2  1  1  0
  3  2  1  0
  3  4  1  6
  5  6  2  0
  5  3  1  0
  7  5  1  0
  8  9  1  1
  8  7  1  0
 10  9  1  0
 10 18  1  0
 11 12  1  0
 11 10  2  0
 12 13  1  0
 13 18  2  0
 13 14  1  0
 14 15  2  0
 15 16  1  0
 17 16  2  0
 18 17  1  0
 19  8  1  0
 20 19  2  0
 22 21  1  0
 22 23  2  0
 24 23  1  0
 25 24  2  0
 26 25  1  0
 27 26  1  1
 27 28  1  0
 28 19  1  0
 29 27  1  0
 29 30  1  0
 31 32  2  0
 31 25  1  0
 32 22  1  0
 33 29  2  0
M  END
$$$$
