SWY.pdb
     RDKit          3D

 33 35  0  0  1  0  0  0  0  0999 V2000
    8.5250  -16.5468   18.6606 O   0  0  0  0  0  0  0  0  0  0  0  0
    7.3688  -16.7774   19.3869 C   0  0  0  0  0  0  0  0  0  0  0  0
    7.0072  -15.4545   20.0640 C   0  0  2  0  0  0  0  0  0  0  0  0
    7.0096  -14.4570   19.0147 N   0  0  0  0  0  0  0  0  0  0  0  0
    8.0772  -15.1465   21.0245 C   0  0  0  0  0  0  0  0  0  0  0  0
    8.9884  -14.3428   20.6968 O   0  0  0  0  0  0  0  0  0  0  0  0
    8.1103  -15.7411   22.3337 N   0  0  0  0  0  0  0  0  0  0  0  0
    9.1691  -15.4377   23.2324 C   0  0  1  0  0  0  0  0  0  0  0  0
    8.8132  -15.6248   24.7029 C   0  0  0  0  0  0  0  0  0  0  0  0
    7.5633  -14.9362   25.0870 C   0  0  0  0  0  0  0  0  0  0  0  0
    6.3371  -15.5320   25.3027 C   0  0  0  0  0  0  0  0  0  0  0  0
    5.4383  -14.6027   25.6592 N   0  0  0  0  0  0  0  0  0  0  0  0
    6.0566  -13.4070   25.6802 C   0  0  0  0  0  0  0  0  0  0  0  0
    5.6308  -12.1312   25.9657 C   0  0  0  0  0  0  0  0  0  0  0  0
    6.4759  -11.0450   25.9090 C   0  0  0  0  0  0  0  0  0  0  0  0
    7.7996  -11.2055   25.5581 C   0  0  0  0  0  0  0  0  0  0  0  0
    8.2159  -12.4959   25.2732 C   0  0  0  0  0  0  0  0  0  0  0  0
    7.3813  -13.5927   25.3264 C   0  0  0  0  0  0  0  0  0  0  0  0
   10.3884  -16.2511   22.9900 C   0  0  0  0  0  0  0  0  0  0  0  0
   10.2430  -17.3487   22.4013 O   0  0  0  0  0  0  0  0  0  0  0  0
   11.2695  -16.5617   31.1001 O   0  0  0  0  0  0  0  0  0  0  0  0
   11.2026  -16.2248   29.7507 C   0  0  0  0  0  0  0  0  0  0  0  0
   11.3472  -17.2549   28.8395 C   0  0  0  0  0  0  0  0  0  0  0  0
   11.2884  -16.9718   27.4936 C   0  0  0  0  0  0  0  0  0  0  0  0
   11.0849  -15.6604   27.0575 C   0  0  0  0  0  0  0  0  0  0  0  0
   11.0322  -15.3170   25.6228 C   0  0  0  0  0  0  0  0  0  0  0  0
   12.1245  -15.9420   24.7920 C   0  0  2  0  0  0  0  0  0  0  0  0
   11.6764  -15.8314   23.3954 N   0  0  0  0  0  0  0  0  0  0  0  0
   12.2866  -17.3465   25.1905 C   0  0  0  0  0  0  0  0  0  0  0  0
   11.7194  -18.3402   24.4214 O   0  0  0  0  0  0  0  0  0  0  0  0
   10.9442  -14.6528   27.9902 C   0  0  0  0  0  0  0  0  0  0  0  0
   11.0013  -14.9228   29.3465 C   0  0  0  0  0  0  0  0  0  0  0  0
   12.9302  -17.6404   26.2135 O   0  0  0  0  0  0  0  0  0  0  0  0
  2  1  1  0
  3  2  1  0
  3  4  1  6
  5  6  2  0
  5  3  1  0
  7  5  1  0
  8  9  1  1
  8  7  1  0
 10  9  1  0
 10 18  1  0
 11 12  1  0
 11 10  2  0
 12 13  1  0
 13 18  2  0
 13 14  1  0
 14 15  2  0
 15 16  1  0
 17 16  2  0
 18 17  1  0
 19  8  1  0
 20 19  2  0
 22 21  1  0
 22 23  2  0
 24 23  1  0
 25 24  2  0
 26 25  1  0
 27 26  1  1
 27 28  1  0
 28 19  1  0
 29 27  1  0
 29 30  1  0
 31 32  2  0
 31 25  1  0
 32 22  1  0
 33 29  2  0
M  END
$$$$
