SWY.pdb
     RDKit          3D

 33 35  0  0  1  0  0  0  0  0999 V2000
    6.4327  -15.8133   19.2064 O   0  0  0  0  0  0  0  0  0  0  0  0
    7.5310  -15.2303   18.5970 C   0  0  0  0  0  0  0  0  0  0  0  0
    8.7671  -15.9346   19.1585 C   0  0  2  0  0  0  0  0  0  0  0  0
    8.4816  -17.3524   19.0921 N   0  0  0  0  0  0  0  0  0  0  0  0
    8.8978  -15.5346   20.5675 C   0  0  0  0  0  0  0  0  0  0  0  0
    9.2370  -14.3550   20.8454 O   0  0  0  0  0  0  0  0  0  0  0  0
    8.6472  -16.4587   21.6407 N   0  0  0  0  0  0  0  0  0  0  0  0
    8.9035  -16.0808   22.9868 C   0  0  1  0  0  0  0  0  0  0  0  0
    8.0731  -16.8377   24.0172 C   0  0  0  0  0  0  0  0  0  0  0  0
    7.3986  -15.9460   24.9836 C   0  0  0  0  0  0  0  0  0  0  0  0
    6.4733  -16.3253   25.9348 C   0  0  0  0  0  0  0  0  0  0  0  0
    6.0933  -15.2556   26.6490 N   0  0  0  0  0  0  0  0  0  0  0  0
    6.7553  -14.1811   26.1802 C   0  0  0  0  0  0  0  0  0  0  0  0
    6.7551  -12.8501   26.5250 C   0  0  0  0  0  0  0  0  0  0  0  0
    7.5367  -11.9224   25.8730 C   0  0  0  0  0  0  0  0  0  0  0  0
    8.3593  -12.3059   24.8350 C   0  0  0  0  0  0  0  0  0  0  0  0
    8.3506  -13.6496   24.4976 C   0  0  0  0  0  0  0  0  0  0  0  0
    7.5736  -14.5897   25.1420 C   0  0  0  0  0  0  0  0  0  0  0  0
   10.3247  -16.2607   23.3807 C   0  0  0  0  0  0  0  0  0  0  0  0
   11.0166  -17.0546   22.6999 O   0  0  0  0  0  0  0  0  0  0  0  0
    9.0835  -15.8162   30.4313 O   0  0  0  0  0  0  0  0  0  0  0  0
    9.9552  -15.6150   29.3643 C   0  0  0  0  0  0  0  0  0  0  0  0
    9.6741  -14.5600   28.5156 C   0  0  0  0  0  0  0  0  0  0  0  0
   10.5070  -14.3207   27.4460 C   0  0  0  0  0  0  0  0  0  0  0  0
   11.6206  -15.1344   27.2239 C   0  0  0  0  0  0  0  0  0  0  0  0
   12.5265  -14.9177   26.0788 C   0  0  0  0  0  0  0  0  0  0  0  0
   12.2843  -15.8390   24.9098 C   0  0  2  0  0  0  0  0  0  0  0  0
   10.9035  -15.5779   24.4753 N   0  0  0  0  0  0  0  0  0  0  0  0
   12.4503  -17.2298   25.3523 C   0  0  0  0  0  0  0  0  0  0  0  0
   13.7178  -17.7260   25.5708 O   0  0  0  0  0  0  0  0  0  0  0  0
   11.8757  -16.1801   28.0879 C   0  0  0  0  0  0  0  0  0  0  0  0
   11.0469  -16.4327   29.1672 C   0  0  0  0  0  0  0  0  0  0  0  0
   11.4568  -17.9569   25.5295 O   0  0  0  0  0  0  0  0  0  0  0  0
  2  1  1  0
  3  2  1  0
  3  4  1  1
  5  6  2  0
  5  3  1  0
  7  5  1  0
  8  9  1  1
  8  7  1  0
 10  9  1  0
 10 18  1  0
 11 12  1  0
 11 10  2  0
 12 13  1  0
 13 18  2  0
 13 14  1  0
 14 15  2  0
 15 16  1  0
 17 16  2  0
 18 17  1  0
 19  8  1  0
 20 19  2  0
 22 21  1  0
 22 23  2  0
 24 23  1  0
 25 24  2  0
 26 25  1  0
 27 26  1  1
 27 28  1  0
 28 19  1  0
 29 27  1  0
 29 30  1  0
 31 32  2  0
 31 25  1  0
 32 22  1  0
 33 29  2  0
M  END
$$$$
