SWY.pdb
     RDKit          3D

 33 35  0  0  1  0  0  0  0  0999 V2000
   10.4440  -14.4352   17.7322 O   0  0  0  0  0  0  0  0  0  0  0  0
    9.3310  -15.2527   17.8349 C   0  0  0  0  0  0  0  0  0  0  0  0
    8.1872  -14.3718   18.3399 C   0  0  2  0  0  0  0  0  0  0  0  0
    8.4013  -13.0661   17.7522 N   0  0  0  0  0  0  0  0  0  0  0  0
    8.3230  -14.2712   19.8006 C   0  0  0  0  0  0  0  0  0  0  0  0
    9.0039  -13.3351   20.2943 O   0  0  0  0  0  0  0  0  0  0  0  0
    7.6960  -15.2174   20.6838 N   0  0  0  0  0  0  0  0  0  0  0  0
    7.8063  -15.0653   22.0928 C   0  0  1  0  0  0  0  0  0  0  0  0
    6.6018  -15.5797   22.8730 C   0  0  0  0  0  0  0  0  0  0  0  0
    6.6629  -15.2515   24.3127 C   0  0  0  0  0  0  0  0  0  0  0  0
    6.6049  -16.1516   25.3574 C   0  0  0  0  0  0  0  0  0  0  0  0
    6.7137  -15.4991   26.5240 N   0  0  0  0  0  0  0  0  0  0  0  0
    6.8417  -14.1852   26.2598 C   0  0  0  0  0  0  0  0  0  0  0  0
    6.9811  -13.0733   27.0565 C   0  0  0  0  0  0  0  0  0  0  0  0
    7.0899  -11.8039   26.5333 C   0  0  0  0  0  0  0  0  0  0  0  0
    7.0621  -11.6042   25.1693 C   0  0  0  0  0  0  0  0  0  0  0  0
    6.9215  -12.7327   24.3778 C   0  0  0  0  0  0  0  0  0  0  0  0
    6.8121  -14.0096   24.8877 C   0  0  0  0  0  0  0  0  0  0  0  0
    8.9961  -15.7506   22.6601 C   0  0  0  0  0  0  0  0  0  0  0  0
    9.4156  -16.7698   22.0620 O   0  0  0  0  0  0  0  0  0  0  0  0
    9.9530  -16.1776   30.4766 O   0  0  0  0  0  0  0  0  0  0  0  0
   10.3374  -15.8048   29.1913 C   0  0  0  0  0  0  0  0  0  0  0  0
   10.1762  -16.7461   28.1911 C   0  0  0  0  0  0  0  0  0  0  0  0
   10.5419  -16.4245   26.9034 C   0  0  0  0  0  0  0  0  0  0  0  0
   11.0681  -15.1631   26.6144 C   0  0  0  0  0  0  0  0  0  0  0  0
   11.4858  -14.7886   25.2491 C   0  0  0  0  0  0  0  0  0  0  0  0
   11.0136  -15.7326   24.1721 C   0  0  2  0  0  0  0  0  0  0  0  0
    9.6520  -15.2958   23.8274 N   0  0  0  0  0  0  0  0  0  0  0  0
   11.0164  -17.1032   24.7001 C   0  0  0  0  0  0  0  0  0  0  0  0
    9.8185  -17.7521   24.9106 O   0  0  0  0  0  0  0  0  0  0  0  0
   11.2175  -14.2442   27.6334 C   0  0  0  0  0  0  0  0  0  0  0  0
   10.8544  -14.5538   28.9326 C   0  0  0  0  0  0  0  0  0  0  0  0
   12.0899  -17.6770   24.9564 O   0  0  0  0  0  0  0  0  0  0  0  0
  2  1  1  0
  3  2  1  0
  3  4  1  6
  5  6  2  0
  5  3  1  0
  7  5  1  0
  8  9  1  1
  8  7  1  0
 10  9  1  0
 10 18  1  0
 11 12  1  0
 11 10  2  0
 12 13  1  0
 13 18  2  0
 13 14  1  0
 14 15  2  0
 15 16  1  0
 17 16  2  0
 18 17  1  0
 19  8  1  0
 20 19  2  0
 22 21  1  0
 22 23  2  0
 24 23  1  0
 25 24  2  0
 26 25  1  0
 27 26  1  1
 27 28  1  0
 28 19  1  0
 29 27  1  0
 29 30  1  0
 31 32  2  0
 31 25  1  0
 32 22  1  0
 33 29  2  0
M  END
$$$$
