SWY.pdb
     RDKit          3D

 33 35  0  0  1  0  0  0  0  0999 V2000
   11.9181  -17.5014   20.0501 O   0  0  0  0  0  0  0  0  0  0  0  0
   11.1783  -17.4445   18.8808 C   0  0  0  0  0  0  0  0  0  0  0  0
   10.5422  -16.0544   18.8337 C   0  0  2  0  0  0  0  0  0  0  0  0
   11.5691  -15.1637   18.3355 N   0  0  0  0  0  0  0  0  0  0  0  0
   10.2065  -15.6785   20.2151 C   0  0  0  0  0  0  0  0  0  0  0  0
   11.0795  -15.1266   20.9342 O   0  0  0  0  0  0  0  0  0  0  0  0
    8.9022  -15.9253   20.7686 N   0  0  0  0  0  0  0  0  0  0  0  0
    8.6348  -15.6300   22.1331 C   0  0  1  0  0  0  0  0  0  0  0  0
    7.1603  -15.7099   22.5123 C   0  0  0  0  0  0  0  0  0  0  0  0
    6.9027  -15.3226   23.9151 C   0  0  0  0  0  0  0  0  0  0  0  0
    6.6142  -16.1796   24.9578 C   0  0  0  0  0  0  0  0  0  0  0  0
    6.4638  -15.4791   26.0915 N   0  0  0  0  0  0  0  0  0  0  0  0
    6.6489  -14.1762   25.8076 C   0  0  0  0  0  0  0  0  0  0  0  0
    6.6108  -13.0316   26.5685 C   0  0  0  0  0  0  0  0  0  0  0  0
    6.8342  -11.7838   26.0297 C   0  0  0  0  0  0  0  0  0  0  0  0
    7.1085  -11.6404   24.6861 C   0  0  0  0  0  0  0  0  0  0  0  0
    7.1443  -12.8013   23.9308 C   0  0  0  0  0  0  0  0  0  0  0  0
    6.9232  -14.0571   24.4567 C   0  0  0  0  0  0  0  0  0  0  0  0
    9.3579  -16.5239   23.0740 C   0  0  0  0  0  0  0  0  0  0  0  0
    9.3673  -17.7505   22.8134 O   0  0  0  0  0  0  0  0  0  0  0  0
    9.7945  -14.7967   30.8603 O   0  0  0  0  0  0  0  0  0  0  0  0
   10.2931  -15.0271   29.5808 C   0  0  0  0  0  0  0  0  0  0  0  0
   10.7669  -16.2983   29.3122 C   0  0  0  0  0  0  0  0  0  0  0  0
   11.2700  -16.5751   28.0611 C   0  0  0  0  0  0  0  0  0  0  0  0
   11.2997  -15.5830   27.0781 C   0  0  0  0  0  0  0  0  0  0  0  0
   11.8462  -15.8387   25.7309 C   0  0  0  0  0  0  0  0  0  0  0  0
   11.0537  -16.8285   24.9147 C   0  0  2  0  0  0  0  0  0  0  0  0
   10.0193  -16.0409   24.2267 N   0  0  0  0  0  0  0  0  0  0  0  0
   10.4559  -17.8235   25.8147 C   0  0  0  0  0  0  0  0  0  0  0  0
   11.2652  -18.7525   26.4331 O   0  0  0  0  0  0  0  0  0  0  0  0
   10.8199  -14.3234   27.3753 C   0  0  0  0  0  0  0  0  0  0  0  0
   10.3115  -14.0308   28.6289 C   0  0  0  0  0  0  0  0  0  0  0  0
    9.2290  -17.8305   26.0196 O   0  0  0  0  0  0  0  0  0  0  0  0
  2  1  1  0
  3  2  1  0
  3  4  1  1
  5  6  2  0
  5  3  1  0
  7  5  1  0
  8  9  1  6
  8  7  1  0
 10  9  1  0
 10 18  1  0
 11 12  1  0
 11 10  2  0
 12 13  1  0
 13 18  2  0
 13 14  1  0
 14 15  2  0
 15 16  1  0
 17 16  2  0
 18 17  1  0
 19  8  1  0
 20 19  2  0
 22 21  1  0
 22 23  2  0
 24 23  1  0
 25 24  2  0
 26 25  1  0
 27 26  1  1
 27 28  1  0
 28 19  1  0
 29 27  1  0
 29 30  1  0
 31 32  2  0
 31 25  1  0
 32 22  1  0
 33 29  2  0
M  END
$$$$
