SWY.pdb
     RDKit          3D

 33 35  0  0  1  0  0  0  0  0999 V2000
   10.1837  -19.9769   22.4388 O   0  0  0  0  0  0  0  0  0  0  0  0
    8.8517  -20.3302   22.3023 C   0  0  0  0  0  0  0  0  0  0  0  0
    8.3075  -19.5325   21.1163 C   0  0  2  0  0  0  0  0  0  0  0  0
    8.9206  -20.1056   19.9366 N   0  0  0  0  0  0  0  0  0  0  0  0
    8.7677  -18.1446   21.2729 C   0  0  0  0  0  0  0  0  0  0  0  0
    9.7291  -17.7305   20.5745 O   0  0  0  0  0  0  0  0  0  0  0  0
    8.1458  -17.2442   22.2062 N   0  0  0  0  0  0  0  0  0  0  0  0
    8.3881  -15.8460   22.1234 C   0  0  1  0  0  0  0  0  0  0  0  0
    7.2111  -14.9810   22.5604 C   0  0  0  0  0  0  0  0  0  0  0  0
    6.9962  -14.9937   24.0225 C   0  0  0  0  0  0  0  0  0  0  0  0
    6.6558  -16.0910   24.7873 C   0  0  0  0  0  0  0  0  0  0  0  0
    6.5683  -15.7347   26.0772 N   0  0  0  0  0  0  0  0  0  0  0  0
    6.8457  -14.4205   26.1694 C   0  0  0  0  0  0  0  0  0  0  0  0
    6.8990  -13.5407   27.2247 C   0  0  0  0  0  0  0  0  0  0  0  0
    7.2082  -12.2092   27.0559 C   0  0  0  0  0  0  0  0  0  0  0  0
    7.4791  -11.7072   25.8006 C   0  0  0  0  0  0  0  0  0  0  0  0
    7.4223  -12.6040   24.7460 C   0  0  0  0  0  0  0  0  0  0  0  0
    7.1148  -13.9397   24.9002 C   0  0  0  0  0  0  0  0  0  0  0  0
    9.5529  -15.4086   22.9352 C   0  0  0  0  0  0  0  0  0  0  0  0
    9.8867  -14.2020   22.8633 O   0  0  0  0  0  0  0  0  0  0  0  0
    9.7960  -16.5142   30.4581 O   0  0  0  0  0  0  0  0  0  0  0  0
   10.1696  -16.1165   29.1771 C   0  0  0  0  0  0  0  0  0  0  0  0
   10.1679  -14.7583   28.9169 C   0  0  0  0  0  0  0  0  0  0  0  0
   10.5298  -14.3158   27.6646 C   0  0  0  0  0  0  0  0  0  0  0  0
   10.8937  -15.2292   26.6723 C   0  0  0  0  0  0  0  0  0  0  0  0
   11.2722  -14.7925   25.3139 C   0  0  0  0  0  0  0  0  0  0  0  0
   11.5708  -15.9197   24.3578 C   0  0  2  0  0  0  0  0  0  0  0  0
   10.2773  -16.2944   23.7660 N   0  0  0  0  0  0  0  0  0  0  0  0
   12.1600  -17.0391   25.1043 C   0  0  0  0  0  0  0  0  0  0  0  0
   11.4818  -18.2370   25.1791 O   0  0  0  0  0  0  0  0  0  0  0  0
   10.8858  -16.5788   26.9612 C   0  0  0  0  0  0  0  0  0  0  0  0
   10.5240  -17.0381   28.2157 C   0  0  0  0  0  0  0  0  0  0  0  0
   13.2625  -16.9105   25.6658 O   0  0  0  0  0  0  0  0  0  0  0  0
  2  1  1  0
  3  2  1  0
  3  4  1  6
  5  6  2  0
  5  3  1  0
  7  5  1  0
  8  9  1  1
  8  7  1  0
 10  9  1  0
 10 18  1  0
 11 12  1  0
 11 10  2  0
 12 13  1  0
 13 18  2  0
 13 14  1  0
 14 15  2  0
 15 16  1  0
 17 16  2  0
 18 17  1  0
 19  8  1  0
 20 19  2  0
 22 21  1  0
 22 23  2  0
 24 23  1  0
 25 24  2  0
 26 25  1  0
 27 26  1  1
 27 28  1  0
 28 19  1  0
 29 27  1  0
 29 30  1  0
 31 32  2  0
 31 25  1  0
 32 22  1  0
 33 29  2  0
M  END
$$$$
