SWY.pdb
     RDKit          3D

 33 35  0  0  1  0  0  0  0  0999 V2000
    8.7476  -16.4144   18.9114 O   0  0  0  0  0  0  0  0  0  0  0  0
    7.4283  -16.5608   19.3057 C   0  0  0  0  0  0  0  0  0  0  0  0
    7.0581  -15.2904   20.0726 C   0  0  2  0  0  0  0  0  0  0  0  0
    7.0475  -14.2237   19.0938 N   0  0  0  0  0  0  0  0  0  0  0  0
    8.1294  -15.0390   21.0481 C   0  0  0  0  0  0  0  0  0  0  0  0
    9.1274  -14.3531   20.7059 O   0  0  0  0  0  0  0  0  0  0  0  0
    8.0668  -15.5577   22.3881 N   0  0  0  0  0  0  0  0  0  0  0  0
    9.1466  -15.3491   23.2888 C   0  0  1  0  0  0  0  0  0  0  0  0
    8.7730  -15.5043   24.7587 C   0  0  0  0  0  0  0  0  0  0  0  0
    7.5214  -14.8032   25.1138 C   0  0  0  0  0  0  0  0  0  0  0  0
    6.2938  -15.3911   25.3419 C   0  0  0  0  0  0  0  0  0  0  0  0
    5.3937  -14.4504   25.6636 N   0  0  0  0  0  0  0  0  0  0  0  0
    6.0126  -13.2549   25.6495 C   0  0  0  0  0  0  0  0  0  0  0  0
    5.5862  -11.9704   25.8917 C   0  0  0  0  0  0  0  0  0  0  0  0
    6.4322  -10.8871   25.8048 C   0  0  0  0  0  0  0  0  0  0  0  0
    7.7577  -11.0594   25.4663 C   0  0  0  0  0  0  0  0  0  0  0  0
    8.1747  -12.3584   25.2251 C   0  0  0  0  0  0  0  0  0  0  0  0
    7.3390  -13.4526   25.3089 C   0  0  0  0  0  0  0  0  0  0  0  0
   10.2898  -16.2670   23.0484 C   0  0  0  0  0  0  0  0  0  0  0  0
   10.0329  -17.3952   22.5649 O   0  0  0  0  0  0  0  0  0  0  0  0
   11.0080  -16.6855   30.9554 O   0  0  0  0  0  0  0  0  0  0  0  0
   11.0597  -16.3337   29.6092 C   0  0  0  0  0  0  0  0  0  0  0  0
   10.6179  -15.0665   29.2751 C   0  0  0  0  0  0  0  0  0  0  0  0
   10.6492  -14.6722   27.9565 C   0  0  0  0  0  0  0  0  0  0  0  0
   11.1220  -15.5428   26.9717 C   0  0  0  0  0  0  0  0  0  0  0  0
   11.1556  -15.1605   25.5463 C   0  0  0  0  0  0  0  0  0  0  0  0
   12.1500  -15.9336   24.7172 C   0  0  2  0  0  0  0  0  0  0  0  0
   11.6264  -15.9116   23.3428 N   0  0  0  0  0  0  0  0  0  0  0  0
   12.2399  -17.3063   25.2318 C   0  0  0  0  0  0  0  0  0  0  0  0
   13.2420  -17.6342   26.1200 O   0  0  0  0  0  0  0  0  0  0  0  0
   11.5563  -16.8016   27.3351 C   0  0  0  0  0  0  0  0  0  0  0  0
   11.5302  -17.2115   28.6568 C   0  0  0  0  0  0  0  0  0  0  0  0
   11.4195  -18.1689   24.8711 O   0  0  0  0  0  0  0  0  0  0  0  0
  2  1  1  0
  3  2  1  0
  3  4  1  6
  5  6  2  0
  5  3  1  0
  7  5  1  0
  8  9  1  1
  8  7  1  0
 10  9  1  0
 10 18  1  0
 11 12  1  0
 11 10  2  0
 12 13  1  0
 13 18  2  0
 13 14  1  0
 14 15  2  0
 15 16  1  0
 17 16  2  0
 18 17  1  0
 19  8  1  0
 20 19  2  0
 22 21  1  0
 22 23  2  0
 24 23  1  0
 25 24  2  0
 26 25  1  0
 27 26  1  1
 27 28  1  0
 28 19  1  0
 29 27  1  0
 29 30  1  0
 31 32  2  0
 31 25  1  0
 32 22  1  0
 33 29  2  0
M  END
$$$$
