SWY.pdb
     RDKit          3D

 33 35  0  0  1  0  0  0  0  0999 V2000
    9.1073  -15.7421   18.9832 O   0  0  0  0  0  0  0  0  0  0  0  0
    7.7613  -15.9460   19.2369 C   0  0  0  0  0  0  0  0  0  0  0  0
    7.3264  -14.8416   20.2014 C   0  0  2  0  0  0  0  0  0  0  0  0
    7.4044  -13.6054   19.4519 N   0  0  0  0  0  0  0  0  0  0  0  0
    8.3073  -14.8042   21.2964 C   0  0  0  0  0  0  0  0  0  0  0  0
    9.3863  -14.1764   21.1374 O   0  0  0  0  0  0  0  0  0  0  0  0
    8.0655  -15.4680   22.5491 N   0  0  0  0  0  0  0  0  0  0  0  0
    9.0530  -15.4519   23.5714 C   0  0  1  0  0  0  0  0  0  0  0  0
    8.5110  -15.7336   24.9682 C   0  0  0  0  0  0  0  0  0  0  0  0
    7.3413  -14.8988   25.3133 C   0  0  0  0  0  0  0  0  0  0  0  0
    6.0836  -15.3565   25.6502 C   0  0  0  0  0  0  0  0  0  0  0  0
    5.2815  -14.3172   25.9239 N   0  0  0  0  0  0  0  0  0  0  0  0
    5.9942  -13.1853   25.7712 C   0  0  0  0  0  0  0  0  0  0  0  0
    5.6873  -11.8525   25.9124 C   0  0  0  0  0  0  0  0  0  0  0  0
    6.6131  -10.8578   25.6874 C   0  0  0  0  0  0  0  0  0  0  0  0
    7.9003  -11.1728   25.3065 C   0  0  0  0  0  0  0  0  0  0  0  0
    8.1966  -12.5190   25.1680 C   0  0  0  0  0  0  0  0  0  0  0  0
    7.2802  -13.5256   25.3906 C   0  0  0  0  0  0  0  0  0  0  0  0
   10.1449  -16.4326   23.3406 C   0  0  0  0  0  0  0  0  0  0  0  0
    9.8299  -17.6451   23.2844 O   0  0  0  0  0  0  0  0  0  0  0  0
   10.9360  -16.7822   30.5135 O   0  0  0  0  0  0  0  0  0  0  0  0
   11.1316  -16.3068   29.2194 C   0  0  0  0  0  0  0  0  0  0  0  0
   11.9495  -17.0559   28.3934 C   0  0  0  0  0  0  0  0  0  0  0  0
   12.1734  -16.6267   27.1047 C   0  0  0  0  0  0  0  0  0  0  0  0
   11.5806  -15.4500   26.6406 C   0  0  0  0  0  0  0  0  0  0  0  0
   11.8106  -14.9508   25.2707 C   0  0  0  0  0  0  0  0  0  0  0  0
   12.4153  -15.9641   24.3317 C   0  0  2  0  0  0  0  0  0  0  0  0
   11.4960  -16.0452   23.1863 N   0  0  0  0  0  0  0  0  0  0  0  0
   12.5214  -17.2557   25.0229 C   0  0  0  0  0  0  0  0  0  0  0  0
   11.7049  -18.2990   24.6414 O   0  0  0  0  0  0  0  0  0  0  0  0
   10.7691  -14.7231   27.4881 C   0  0  0  0  0  0  0  0  0  0  0  0
   10.5352  -15.1424   28.7862 C   0  0  0  0  0  0  0  0  0  0  0  0
   13.3408  -17.4105   25.9459 O   0  0  0  0  0  0  0  0  0  0  0  0
  2  1  1  0
  3  2  1  0
  3  4  1  6
  5  6  2  0
  5  3  1  0
  7  5  1  0
  8  9  1  1
  8  7  1  0
 10  9  1  0
 10 18  1  0
 11 12  1  0
 11 10  2  0
 12 13  1  0
 13 18  2  0
 13 14  1  0
 14 15  2  0
 15 16  1  0
 17 16  2  0
 18 17  1  0
 19  8  1  0
 20 19  2  0
 22 21  1  0
 22 23  2  0
 24 23  1  0
 25 24  2  0
 26 25  1  0
 27 26  1  1
 27 28  1  0
 28 19  1  0
 29 27  1  0
 29 30  1  0
 31 32  2  0
 31 25  1  0
 32 22  1  0
 33 29  2  0
M  END
$$$$
