AIT.pdb
     RDKit          3D

 21 20  0  0  1  0  0  0  0  0999 V2000
   18.4883  -10.0144  -19.6688 C   0  0  0  0  0  0  0  0  0  0  0  0
   19.4549  -10.9370  -18.9830 C   0  0  2  0  0  0  0  0  0  0  0  0
   18.8893  -12.2333  -18.7805 N   0  0  0  0  0  0  0  0  0  0  0  0
   19.8769  -10.3720  -17.6454 C   0  0  0  0  0  0  0  0  0  0  0  0
   19.0026  -10.3202  -16.7167 O   0  0  0  0  0  0  0  0  0  0  0  0
   24.1031  -12.4626  -15.4549 C   0  0  0  0  0  0  0  0  0  0  0  0
   22.8030  -11.7099  -15.6930 C   0  0  0  0  0  0  0  0  0  0  0  0
   23.0411  -10.2398  -15.8787 C   0  0  2  0  0  0  0  0  0  0  0  0
   23.6812   -9.7151  -14.6110 C   0  0  0  0  0  0  0  0  0  0  0  0
   21.7917   -9.4571  -16.2314 C   0  0  2  0  0  0  0  0  0  0  0  0
   21.1995   -9.9236  -17.4564 N   0  0  0  0  0  0  0  0  0  0  0  0
   21.9797   -8.0159  -16.1825 C   0  0  0  0  0  0  0  0  0  0  0  0
   22.7235   -7.4512  -17.0270 O   0  0  0  0  0  0  0  0  0  0  0  0
   20.3158   -3.5308  -15.4161 C   0  0  0  0  0  0  0  0  0  0  0  0
   20.1815   -5.0353  -15.3656 C   0  0  1  0  0  0  0  0  0  0  0  0
   19.5166   -5.4177  -16.5263 O   0  0  0  0  0  0  0  0  0  0  0  0
   21.5058   -5.7297  -15.2226 C   0  0  2  0  0  0  0  0  0  0  0  0
   21.3546   -7.1774  -15.2065 N   0  0  0  0  0  0  0  0  0  0  0  0
   22.2287   -5.2772  -13.9843 C   0  0  0  0  0  0  0  0  0  0  0  0
   21.9634   -5.7967  -12.8592 O   0  0  0  0  0  0  0  0  0  0  0  0
   23.2005   -4.2935  -13.9971 O   0  0  0  0  0  0  0  0  0  0  0  0
  2  1  1  1
  3  2  1  0
  4  2  1  0
  5  4  2  0
  7  8  1  0
  7  6  1  0
  8 10  1  0
  8  9  1  1
 10 12  1  0
 10 11  1  6
 11  4  1  0
 12 13  2  0
 15 14  1  6
 15 16  1  0
 17 15  1  0
 17 18  1  1
 18 12  1  0
 19 21  1  0
 19 17  1  0
 20 19  2  0
M  END
$$$$
