AIT.pdb
     RDKit          3D

 21 20  0  0  1  0  0  0  0  0999 V2000
   22.1664  -12.5854  -20.9575 C   0  0  0  0  0  0  0  0  0  0  0  0
   23.2561  -12.8939  -19.9711 C   0  0  2  0  0  0  0  0  0  0  0  0
   23.3342  -14.2938  -19.6963 N   0  0  0  0  0  0  0  0  0  0  0  0
   23.0291  -12.1518  -18.6734 C   0  0  0  0  0  0  0  0  0  0  0  0
   21.9962  -12.4527  -17.9863 O   0  0  0  0  0  0  0  0  0  0  0  0
   27.3730  -11.2278  -15.5965 C   0  0  0  0  0  0  0  0  0  0  0  0
   25.9568  -11.4723  -16.0948 C   0  0  0  0  0  0  0  0  0  0  0  0
   25.2646  -10.1878  -16.4460 C   0  0  2  0  0  0  0  0  0  0  0  0
   25.2004   -9.3434  -15.1910 C   0  0  0  0  0  0  0  0  0  0  0  0
   23.8891  -10.3799  -17.0534 C   0  0  2  0  0  0  0  0  0  0  0  0
   23.9441  -11.1634  -18.2584 N   0  0  0  0  0  0  0  0  0  0  0  0
   23.1410   -9.1407  -17.1932 C   0  0  0  0  0  0  0  0  0  0  0  0
   23.5010   -8.2828  -18.0415 O   0  0  0  0  0  0  0  0  0  0  0  0
   18.9228   -6.6124  -16.7216 C   0  0  0  0  0  0  0  0  0  0  0  0
   19.7432   -7.8752  -16.5930 C   0  0  1  0  0  0  0  0  0  0  0  0
   19.3544   -8.7135  -17.6330 O   0  0  0  0  0  0  0  0  0  0  0  0
   21.2214   -7.6087  -16.6094 C   0  0  2  0  0  0  0  0  0  0  0  0
   21.9896   -8.8280  -16.4039 N   0  0  0  0  0  0  0  0  0  0  0  0
   21.6030   -6.5838  -15.5776 C   0  0  0  0  0  0  0  0  0  0  0  0
   21.6551   -5.3545  -15.8814 O   0  0  0  0  0  0  0  0  0  0  0  0
   21.9119   -6.9109  -14.2699 O   0  0  0  0  0  0  0  0  0  0  0  0
  2  1  1  6
  3  2  1  0
  4  2  1  0
  5  4  2  0
  7  8  1  0
  7  6  1  0
  8 10  1  0
  8  9  1  1
 10 12  1  0
 10 11  1  6
 11  4  1  0
 12 13  2  0
 15 14  1  6
 15 16  1  0
 17 15  1  0
 17 18  1  1
 18 12  1  0
 19 21  1  0
 19 17  1  0
 20 19  2  0
M  END
$$$$
