AIT.pdb
     RDKit          3D

 21 20  0  0  1  0  0  0  0  0999 V2000
   20.5262  -21.7329  -13.8289 C   0  0  0  0  0  0  0  0  0  0  0  0
   20.9931  -21.1016  -12.5486 C   0  0  2  0  0  0  0  0  0  0  0  0
   20.1213  -20.0481  -12.1345 N   0  0  0  0  0  0  0  0  0  0  0  0
   22.3915  -20.5477  -12.7038 C   0  0  0  0  0  0  0  0  0  0  0  0
   22.5224  -19.4013  -13.2500 O   0  0  0  0  0  0  0  0  0  0  0  0
   25.6136  -20.8186   -8.4805 C   0  0  0  0  0  0  0  0  0  0  0  0
   24.9028  -20.4982   -9.7865 C   0  0  0  0  0  0  0  0  0  0  0  0
   25.5682  -21.1632  -10.9559 C   0  0  2  0  0  0  0  0  0  0  0  0
   27.0117  -20.7073  -10.9825 C   0  0  0  0  0  0  0  0  0  0  0  0
   24.8816  -20.9006  -12.2815 C   0  0  2  0  0  0  0  0  0  0  0  0
   23.4983  -21.2938  -12.2516 N   0  0  0  0  0  0  0  0  0  0  0  0
   25.6145  -21.4206  -13.4249 C   0  0  0  0  0  0  0  0  0  0  0  0
   26.0878  -22.5869  -13.3890 O   0  0  0  0  0  0  0  0  0  0  0  0
   24.6486  -22.5423  -16.6957 C   0  0  0  0  0  0  0  0  0  0  0  0
   25.6567  -21.4421  -16.9352 C   0  0  1  0  0  0  0  0  0  0  0  0
   24.9331  -20.2987  -17.2585 O   0  0  0  0  0  0  0  0  0  0  0  0
   26.5610  -21.2196  -15.7565 C   0  0  2  0  0  0  0  0  0  0  0  0
   25.8372  -20.6676  -14.6206 N   0  0  0  0  0  0  0  0  0  0  0  0
   27.7132  -20.3222  -16.1139 C   0  0  0  0  0  0  0  0  0  0  0  0
   27.7632  -19.1346  -15.6743 O   0  0  0  0  0  0  0  0  0  0  0  0
   28.7599  -20.7266  -16.9221 O   0  0  0  0  0  0  0  0  0  0  0  0
  2  1  1  6
  3  2  1  0
  4  2  1  0
  5  4  2  0
  7  8  1  0
  7  6  1  0
  8 10  1  0
  8  9  1  6
 10 12  1  0
 10 11  1  1
 11  4  1  0
 12 13  2  0
 15 14  1  1
 15 16  1  0
 17 15  1  0
 17 18  1  1
 18 12  1  0
 19 21  1  0
 19 17  1  0
 20 19  2  0
M  END
$$$$
