AIT.pdb
     RDKit          3D

 21 20  0  0  1  0  0  0  0  0999 V2000
   18.5780  -11.5231  -19.5915 C   0  0  0  0  0  0  0  0  0  0  0  0
   19.6064  -11.9453  -18.5816 C   0  0  2  0  0  0  0  0  0  0  0  0
   19.3712  -13.2761  -18.1180 N   0  0  0  0  0  0  0  0  0  0  0  0
   19.6090  -11.0067  -17.3960 C   0  0  0  0  0  0  0  0  0  0  0  0
   18.5334  -10.8997  -16.7169 O   0  0  0  0  0  0  0  0  0  0  0  0
   23.8437  -11.1236  -14.1420 C   0  0  0  0  0  0  0  0  0  0  0  0
   22.4441  -10.9253  -14.7037 C   0  0  0  0  0  0  0  0  0  0  0  0
   22.2695   -9.5510  -15.2810 C   0  0  2  0  0  0  0  0  0  0  0  0
   22.4473   -8.5546  -14.1550 C   0  0  0  0  0  0  0  0  0  0  0  0
   20.9464   -9.3496  -15.9929 C   0  0  2  0  0  0  0  0  0  0  0  0
   20.7752  -10.2846  -17.0724 N   0  0  0  0  0  0  0  0  0  0  0  0
   20.6973   -7.9672  -16.3692 C   0  0  0  0  0  0  0  0  0  0  0  0
   21.4913   -7.3760  -17.1474 O   0  0  0  0  0  0  0  0  0  0  0  0
   16.9032   -6.5040  -16.8522 C   0  0  0  0  0  0  0  0  0  0  0  0
   18.1703   -5.8781  -17.3876 C   0  0  1  0  0  0  0  0  0  0  0  0
   17.8388   -4.5913  -17.7998 O   0  0  0  0  0  0  0  0  0  0  0  0
   19.2845   -5.8753  -16.3801 C   0  0  2  0  0  0  0  0  0  0  0  0
   19.5749   -7.2171  -15.8962 N   0  0  0  0  0  0  0  0  0  0  0  0
   18.9703   -4.9705  -15.2211 C   0  0  0  0  0  0  0  0  0  0  0  0
   18.6465   -5.4560  -14.0961 O   0  0  0  0  0  0  0  0  0  0  0  0
   19.0141   -3.5911  -15.3094 O   0  0  0  0  0  0  0  0  0  0  0  0
  2  1  1  6
  3  2  1  0
  4  2  1  0
  5  4  2  0
  7  8  1  0
  7  6  1  0
  8 10  1  0
  8  9  1  1
 10 12  1  0
 10 11  1  6
 11  4  1  0
 12 13  2  0
 15 14  1  1
 15 16  1  0
 17 15  1  0
 17 18  1  1
 18 12  1  0
 19 21  1  0
 19 17  1  0
 20 19  2  0
M  END
$$$$
