AIT.pdb
     RDKit          3D

 21 20  0  0  1  0  0  0  0  0999 V2000
   24.0316  -12.9505  -22.0420 C   0  0  0  0  0  0  0  0  0  0  0  0
   24.3445  -13.9662  -20.9808 C   0  0  2  0  0  0  0  0  0  0  0  0
   24.4310  -15.2843  -21.5252 N   0  0  0  0  0  0  0  0  0  0  0  0
   23.2890  -13.9515  -19.8981 C   0  0  0  0  0  0  0  0  0  0  0  0
   22.1950  -14.5698  -20.1225 O   0  0  0  0  0  0  0  0  0  0  0  0
   24.8595  -15.0671  -14.9940 C   0  0  0  0  0  0  0  0  0  0  0  0
   24.0049  -14.8636  -16.2358 C   0  0  0  0  0  0  0  0  0  0  0  0
   23.3791  -13.4997  -16.2590 C   0  0  2  0  0  0  0  0  0  0  0  0
   22.4506  -13.4008  -15.0671 C   0  0  0  0  0  0  0  0  0  0  0  0
   22.6544  -13.1807  -17.5515 C   0  0  2  0  0  0  0  0  0  0  0  0
   23.5306  -13.2693  -18.6888 N   0  0  0  0  0  0  0  0  0  0  0  0
   21.8894  -11.9451  -17.4953 C   0  0  0  0  0  0  0  0  0  0  0  0
   22.4823  -10.8473  -17.3258 O   0  0  0  0  0  0  0  0  0  0  0  0
   17.5926   -9.4735  -18.1571 C   0  0  0  0  0  0  0  0  0  0  0  0
   18.3841  -10.7594  -18.2227 C   0  0  1  0  0  0  0  0  0  0  0  0
   18.5008  -11.0901  -19.5689 O   0  0  0  0  0  0  0  0  0  0  0  0
   19.7244  -10.6484  -17.5535 C   0  0  2  0  0  0  0  0  0  0  0  0
   20.4655  -11.8992  -17.6240 N   0  0  0  0  0  0  0  0  0  0  0  0
   19.5849  -10.2165  -16.1201 C   0  0  0  0  0  0  0  0  0  0  0  0
   19.2134  -11.0422  -15.2333 O   0  0  0  0  0  0  0  0  0  0  0  0
   19.8464   -8.9274  -15.6934 O   0  0  0  0  0  0  0  0  0  0  0  0
  2  1  1  6
  3  2  1  0
  4  2  1  0
  5  4  2  0
  7  8  1  0
  7  6  1  0
  8 10  1  0
  8  9  1  1
 10 12  1  0
 10 11  1  6
 11  4  1  0
 12 13  2  0
 15 14  1  6
 15 16  1  0
 17 15  1  0
 17 18  1  1
 18 12  1  0
 19 21  1  0
 19 17  1  0
 20 19  2  0
M  END
$$$$
