AIT.pdb
     RDKit          3D

 21 20  0  0  1  0  0  0  0  0999 V2000
   28.3284  -19.2527  -14.5471 C   0  0  0  0  0  0  0  0  0  0  0  0
   28.6860  -20.4004  -13.6469 C   0  0  2  0  0  0  0  0  0  0  0  0
   29.3550  -21.4402  -14.3629 N   0  0  0  0  0  0  0  0  0  0  0  0
   27.4489  -20.9734  -12.9930 C   0  0  0  0  0  0  0  0  0  0  0  0
   26.8539  -21.9369  -13.5824 O   0  0  0  0  0  0  0  0  0  0  0  0
   27.0582  -19.9052   -7.5333 C   0  0  0  0  0  0  0  0  0  0  0  0
   26.9938  -20.6493   -8.8583 C   0  0  0  0  0  0  0  0  0  0  0  0
   25.7811  -20.2608   -9.6525 C   0  0  2  0  0  0  0  0  0  0  0  0
   24.5620  -20.7303   -8.8874 C   0  0  0  0  0  0  0  0  0  0  0  0
   25.7819  -20.7942  -11.0714 C   0  0  2  0  0  0  0  0  0  0  0  0
   26.9881  -20.4423  -11.7716 N   0  0  0  0  0  0  0  0  0  0  0  0
   24.5657  -20.4842  -11.8060 C   0  0  0  0  0  0  0  0  0  0  0  0
   24.3822  -19.3218  -12.2537 O   0  0  0  0  0  0  0  0  0  0  0  0
   21.0796  -21.8712  -14.9219 C   0  0  0  0  0  0  0  0  0  0  0  0
   22.2562  -22.1584  -14.0177 C   0  0  1  0  0  0  0  0  0  0  0  0
   23.3848  -22.2016  -14.8300 O   0  0  0  0  0  0  0  0  0  0  0  0
   22.3972  -21.1494  -12.9139 C   0  0  2  0  0  0  0  0  0  0  0  0
   23.5365  -21.4453  -12.0576 N   0  0  0  0  0  0  0  0  0  0  0  0
   21.1441  -21.0659  -12.0871 C   0  0  0  0  0  0  0  0  0  0  0  0
   20.9329  -21.8973  -11.1542 O   0  0  0  0  0  0  0  0  0  0  0  0
   20.1720  -20.1032  -12.2887 O   0  0  0  0  0  0  0  0  0  0  0  0
  2  1  1  6
  3  2  1  0
  4  2  1  0
  5  4  2  0
  7  8  1  0
  7  6  1  0
  8 10  1  0
  8  9  1  1
 10 12  1  0
 10 11  1  6
 11  4  1  0
 12 13  2  0
 15 14  1  6
 15 16  1  0
 17 15  1  0
 17 18  1  1
 18 12  1  0
 19 21  1  0
 19 17  1  0
 20 19  2  0
M  END
$$$$
