AIT.pdb
     RDKit          3D

 21 20  0  0  1  0  0  0  0  0999 V2000
   18.5098   -9.6703  -19.3319 C   0  0  0  0  0  0  0  0  0  0  0  0
   19.3772  -10.7188  -18.6963 C   0  0  2  0  0  0  0  0  0  0  0  0
   18.6816  -11.9583  -18.5518 N   0  0  0  0  0  0  0  0  0  0  0  0
   19.8564  -10.2644  -17.3360 C   0  0  0  0  0  0  0  0  0  0  0  0
   18.9813  -10.0842  -16.4242 O   0  0  0  0  0  0  0  0  0  0  0  0
   23.9976  -12.8121  -15.2089 C   0  0  0  0  0  0  0  0  0  0  0  0
   22.7402  -11.9781  -15.4015 C   0  0  0  0  0  0  0  0  0  0  0  0
   23.0618  -10.5202  -15.5554 C   0  0  2  0  0  0  0  0  0  0  0  0
   23.7445  -10.0644  -14.2833 C   0  0  0  0  0  0  0  0  0  0  0  0
   21.8566   -9.6580  -15.8748 C   0  0  2  0  0  0  0  0  0  0  0  0
   21.2312  -10.0535  -17.1083 N   0  0  0  0  0  0  0  0  0  0  0  0
   22.1264   -8.2318  -15.7850 C   0  0  0  0  0  0  0  0  0  0  0  0
   22.9399   -7.6957  -16.5826 O   0  0  0  0  0  0  0  0  0  0  0  0
   19.2856   -5.5418  -14.3040 C   0  0  0  0  0  0  0  0  0  0  0  0
   20.4516   -5.2031  -15.2040 C   0  0  1  0  0  0  0  0  0  0  0  0
   20.6165   -3.8230  -15.1443 O   0  0  0  0  0  0  0  0  0  0  0  0
   21.7070   -5.9354  -14.8244 C   0  0  2  0  0  0  0  0  0  0  0  0
   21.5075   -7.3772  -14.8191 N   0  0  0  0  0  0  0  0  0  0  0  0
   22.2178   -5.4848  -13.4839 C   0  0  0  0  0  0  0  0  0  0  0  0
   22.1386   -6.2490  -12.4760 O   0  0  0  0  0  0  0  0  0  0  0  0
   22.7894   -4.2431  -13.2746 O   0  0  0  0  0  0  0  0  0  0  0  0
  2  1  1  1
  3  2  1  0
  4  2  1  0
  5  4  2  0
  7  8  1  0
  7  6  1  0
  8 10  1  0
  8  9  1  1
 10 12  1  0
 10 11  1  6
 11  4  1  0
 12 13  2  0
 15 14  1  1
 15 16  1  0
 17 15  1  0
 17 18  1  1
 18 12  1  0
 19 21  1  0
 19 17  1  0
 20 19  2  0
M  END
$$$$
