AIT.pdb
     RDKit          3D

 21 20  0  0  1  0  0  0  0  0999 V2000
   27.7227  -19.0374  -15.6282 C   0  0  0  0  0  0  0  0  0  0  0  0
   28.0724  -20.2611  -14.8307 C   0  0  2  0  0  0  0  0  0  0  0  0
   28.7125  -21.2495  -15.6397 N   0  0  0  0  0  0  0  0  0  0  0  0
   26.8345  -20.8652  -14.2069 C   0  0  0  0  0  0  0  0  0  0  0  0
   26.2656  -21.8286  -14.8215 O   0  0  0  0  0  0  0  0  0  0  0  0
   26.6283  -20.6670   -8.7109 C   0  0  0  0  0  0  0  0  0  0  0  0
   26.4981  -21.0857  -10.1674 C   0  0  0  0  0  0  0  0  0  0  0  0
   25.2611  -20.5161  -10.7981 C   0  0  2  0  0  0  0  0  0  0  0  0
   24.0674  -21.0775  -10.0551 C   0  0  0  0  0  0  0  0  0  0  0  0
   25.1575  -20.7778  -12.2876 C   0  0  2  0  0  0  0  0  0  0  0  0
   26.3448  -20.3619  -12.9849 N   0  0  0  0  0  0  0  0  0  0  0  0
   23.9256  -20.2785  -12.8777 C   0  0  0  0  0  0  0  0  0  0  0  0
   23.6326  -19.0579  -12.7794 O   0  0  0  0  0  0  0  0  0  0  0  0
   22.8546  -20.1797  -16.3933 C   0  0  0  0  0  0  0  0  0  0  0  0
   21.7152  -20.8334  -15.6458 C   0  0  1  0  0  0  0  0  0  0  0  0
   21.7644  -22.1907  -15.9472 O   0  0  0  0  0  0  0  0  0  0  0  0
   21.7762  -20.5843  -14.1657 C   0  0  2  0  0  0  0  0  0  0  0  0
   23.0007  -21.1122  -13.5819 N   0  0  0  0  0  0  0  0  0  0  0  0
   20.5817  -21.1688  -13.4640 C   0  0  0  0  0  0  0  0  0  0  0  0
   19.4363  -20.6437  -13.5994 O   0  0  0  0  0  0  0  0  0  0  0  0
   20.6580  -22.2843  -12.6503 O   0  0  0  0  0  0  0  0  0  0  0  0
  2  1  1  6
  3  2  1  0
  4  2  1  0
  5  4  2  0
  7  8  1  0
  7  6  1  0
  8 10  1  0
  8  9  1  1
 10 12  1  0
 10 11  1  6
 11  4  1  0
 12 13  2  0
 15 14  1  6
 15 16  1  0
 17 15  1  0
 17 18  1  1
 18 12  1  0
 19 21  1  0
 19 17  1  0
 20 19  2  0
M  END
$$$$
