AIT.pdb
     RDKit          3D

 21 20  0  0  1  0  0  0  0  0999 V2000
   27.8958  -19.4568  -15.6816 C   0  0  0  0  0  0  0  0  0  0  0  0
   28.1720  -20.5919  -14.7377 C   0  0  2  0  0  0  0  0  0  0  0  0
   28.9025  -21.6401  -15.3771 N   0  0  0  0  0  0  0  0  0  0  0  0
   26.8816  -21.1580  -14.1892 C   0  0  0  0  0  0  0  0  0  0  0  0
   26.3510  -22.1414  -14.8065 O   0  0  0  0  0  0  0  0  0  0  0  0
   26.3500  -20.7689   -8.7099 C   0  0  0  0  0  0  0  0  0  0  0  0
   26.2822  -21.2812  -10.1405 C   0  0  0  0  0  0  0  0  0  0  0  0
   25.1281  -20.6809  -10.8889 C   0  0  2  0  0  0  0  0  0  0  0  0
   23.8549  -21.1206  -10.1978 C   0  0  0  0  0  0  0  0  0  0  0  0
   25.1057  -21.0318  -12.3634 C   0  0  2  0  0  0  0  0  0  0  0  0
   26.3036  -20.5990  -13.0318 N   0  0  0  0  0  0  0  0  0  0  0  0
   23.8808  -20.6277  -13.0350 C   0  0  0  0  0  0  0  0  0  0  0  0
   23.6338  -19.4051  -13.2075 O   0  0  0  0  0  0  0  0  0  0  0  0
   20.2012  -21.5041  -16.1831 C   0  0  0  0  0  0  0  0  0  0  0  0
   21.4711  -21.9105  -15.4714 C   0  0  1  0  0  0  0  0  0  0  0  0
   22.5102  -21.7499  -16.3824 O   0  0  0  0  0  0  0  0  0  0  0  0
   21.7036  -21.1272  -14.2109 C   0  0  2  0  0  0  0  0  0  0  0  0
   22.9123  -21.5597  -13.5247 N   0  0  0  0  0  0  0  0  0  0  0  0
   20.5252  -21.2251  -13.2821 C   0  0  0  0  0  0  0  0  0  0  0  0
   20.4263  -22.1922  -12.4690 O   0  0  0  0  0  0  0  0  0  0  0  0
   19.5054  -20.2914  -13.2589 O   0  0  0  0  0  0  0  0  0  0  0  0
  2  1  1  6
  3  2  1  0
  4  2  1  0
  5  4  2  0
  7  8  1  0
  7  6  1  0
  8 10  1  0
  8  9  1  1
 10 12  1  0
 10 11  1  6
 11  4  1  0
 12 13  2  0
 15 14  1  6
 15 16  1  0
 17 15  1  0
 17 18  1  1
 18 12  1  0
 19 21  1  0
 19 17  1  0
 20 19  2  0
M  END
$$$$
