AIT.pdb
     RDKit          3D

 21 20  0  0  1  0  0  0  0  0999 V2000
   22.3717   -7.9906  -21.0351 C   0  0  0  0  0  0  0  0  0  0  0  0
   22.5353   -9.1839  -20.1379 C   0  0  2  0  0  0  0  0  0  0  0  0
   22.1713  -10.3946  -20.8034 N   0  0  0  0  0  0  0  0  0  0  0  0
   21.6910   -9.0366  -18.8921 C   0  0  0  0  0  0  0  0  0  0  0  0
   20.4426   -9.2868  -18.9840 O   0  0  0  0  0  0  0  0  0  0  0  0
   23.8797  -10.7898  -14.2218 C   0  0  0  0  0  0  0  0  0  0  0  0
   22.9604  -10.3919  -15.3664 C   0  0  0  0  0  0  0  0  0  0  0  0
   22.5485   -8.9519  -15.2699 C   0  0  2  0  0  0  0  0  0  0  0  0
   21.8868   -8.7535  -13.9227 C   0  0  0  0  0  0  0  0  0  0  0  0
   21.6473   -8.4960  -16.4003 C   0  0  2  0  0  0  0  0  0  0  0  0
   22.2881   -8.6342  -17.6806 N   0  0  0  0  0  0  0  0  0  0  0  0
   21.0592   -7.1847  -16.1774 C   0  0  0  0  0  0  0  0  0  0  0  0
   21.8039   -6.1824  -16.0156 O   0  0  0  0  0  0  0  0  0  0  0  0
   17.1948   -6.1140  -17.5176 C   0  0  0  0  0  0  0  0  0  0  0  0
   18.3224   -5.1749  -17.1562 C   0  0  1  0  0  0  0  0  0  0  0  0
   17.7546   -3.9181  -16.9734 O   0  0  0  0  0  0  0  0  0  0  0  0
   19.0860   -5.6276  -15.9443 C   0  0  2  0  0  0  0  0  0  0  0  0
   19.6477   -6.9577  -16.1289 N   0  0  0  0  0  0  0  0  0  0  0  0
   18.2221   -5.6033  -14.7140 C   0  0  0  0  0  0  0  0  0  0  0  0
   17.8579   -6.6849  -14.1630 O   0  0  0  0  0  0  0  0  0  0  0  0
   17.7840   -4.4314  -14.1247 O   0  0  0  0  0  0  0  0  0  0  0  0
  2  1  1  6
  3  2  1  0
  4  2  1  0
  5  4  2  0
  7  8  1  0
  7  6  1  0
  8 10  1  0
  8  9  1  1
 10 12  1  0
 10 11  1  6
 11  4  1  0
 12 13  2  0
 15 14  1  1
 15 16  1  0
 17 15  1  0
 17 18  1  6
 18 12  1  0
 19 21  1  0
 19 17  1  0
 20 19  2  0
M  END
$$$$
