AIT.pdb
     RDKit          3D

 21 20  0  0  1  0  0  0  0  0999 V2000
   18.3316   -9.2979  -19.4488 C   0  0  0  0  0  0  0  0  0  0  0  0
   19.1777  -10.3749  -18.8325 C   0  0  2  0  0  0  0  0  0  0  0  0
   18.4661  -11.6099  -18.7351 N   0  0  0  0  0  0  0  0  0  0  0  0
   19.6419   -9.9668  -17.4525 C   0  0  0  0  0  0  0  0  0  0  0  0
   18.7616   -9.8572  -16.5346 O   0  0  0  0  0  0  0  0  0  0  0  0
   23.4287  -12.6688  -15.0715 C   0  0  0  0  0  0  0  0  0  0  0  0
   22.2765  -11.7472  -15.4410 C   0  0  0  0  0  0  0  0  0  0  0  0
   22.7310  -10.3242  -15.5857 C   0  0  2  0  0  0  0  0  0  0  0  0
   23.3933   -9.9199  -14.2857 C   0  0  0  0  0  0  0  0  0  0  0  0
   21.6215   -9.3625  -15.9627 C   0  0  2  0  0  0  0  0  0  0  0  0
   21.0090   -9.7208  -17.2139 N   0  0  0  0  0  0  0  0  0  0  0  0
   22.0158   -7.9651  -15.8816 C   0  0  0  0  0  0  0  0  0  0  0  0
   22.9115   -7.5205  -16.6468 O   0  0  0  0  0  0  0  0  0  0  0  0
   20.3766   -5.0075  -16.8584 C   0  0  0  0  0  0  0  0  0  0  0  0
   20.7407   -4.7365  -15.4169 C   0  0  1  0  0  0  0  0  0  0  0  0
   19.5714   -4.8727  -14.6755 O   0  0  0  0  0  0  0  0  0  0  0  0
   21.8313   -5.6400  -14.9161 C   0  0  2  0  0  0  0  0  0  0  0  0
   21.4326   -7.0392  -14.9602 N   0  0  0  0  0  0  0  0  0  0  0  0
   22.2481   -5.2706  -13.5195 C   0  0  0  0  0  0  0  0  0  0  0  0
   21.9798   -6.0355  -12.5453 O   0  0  0  0  0  0  0  0  0  0  0  0
   22.9308   -4.1057  -13.2208 O   0  0  0  0  0  0  0  0  0  0  0  0
  2  1  1  1
  3  2  1  0
  4  2  1  0
  5  4  2  0
  7  8  1  0
  7  6  1  0
  8 10  1  0
  8  9  1  1
 10 12  1  0
 10 11  1  6
 11  4  1  0
 12 13  2  0
 15 14  1  6
 15 16  1  0
 17 15  1  0
 17 18  1  1
 18 12  1  0
 19 21  1  0
 19 17  1  0
 20 19  2  0
M  END
$$$$
