AIT.pdb
     RDKit          3D

 21 20  0  0  1  0  0  0  0  0999 V2000
   28.0511  -19.4585  -15.2977 C   0  0  0  0  0  0  0  0  0  0  0  0
   28.2998  -20.6740  -14.4513 C   0  0  2  0  0  0  0  0  0  0  0  0
   28.8590  -21.7420  -15.2181 N   0  0  0  0  0  0  0  0  0  0  0  0
   27.0163  -21.1512  -13.8098 C   0  0  0  0  0  0  0  0  0  0  0  0
   26.3448  -22.0519  -14.4161 O   0  0  0  0  0  0  0  0  0  0  0  0
   26.7248  -20.5873   -8.2830 C   0  0  0  0  0  0  0  0  0  0  0  0
   26.5840  -21.1284   -9.6976 C   0  0  0  0  0  0  0  0  0  0  0  0
   25.4453  -20.4783  -10.4276 C   0  0  2  0  0  0  0  0  0  0  0  0
   24.1692  -20.8287   -9.6920 C   0  0  0  0  0  0  0  0  0  0  0  0
   25.3605  -20.8586  -11.8925 C   0  0  2  0  0  0  0  0  0  0  0  0
   26.5970  -20.6025  -12.5813 N   0  0  0  0  0  0  0  0  0  0  0  0
   24.1913  -20.3139  -12.5642 C   0  0  0  0  0  0  0  0  0  0  0  0
   24.0860  -19.0703  -12.7309 O   0  0  0  0  0  0  0  0  0  0  0  0
   23.0510  -20.8719  -15.9965 C   0  0  0  0  0  0  0  0  0  0  0  0
   21.8311  -21.1164  -15.1385 C   0  0  1  0  0  0  0  0  0  0  0  0
   21.6199  -22.4914  -15.1242 O   0  0  0  0  0  0  0  0  0  0  0  0
   21.9772  -20.5564  -13.7523 C   0  0  2  0  0  0  0  0  0  0  0  0
   23.1239  -21.1268  -13.0604 N   0  0  0  0  0  0  0  0  0  0  0  0
   20.7301  -20.7741  -12.9411 C   0  0  0  0  0  0  0  0  0  0  0  0
   20.7410  -21.5543  -11.9425 O   0  0  0  0  0  0  0  0  0  0  0  0
   19.5280  -20.1534  -13.2273 O   0  0  0  0  0  0  0  0  0  0  0  0
  2  1  1  6
  3  2  1  0
  4  2  1  0
  5  4  2  0
  7  8  1  0
  7  6  1  0
  8 10  1  0
  8  9  1  1
 10 12  1  0
 10 11  1  6
 11  4  1  0
 12 13  2  0
 15 14  1  6
 15 16  1  0
 17 15  1  0
 17 18  1  1
 18 12  1  0
 19 21  1  0
 19 17  1  0
 20 19  2  0
M  END
$$$$
