AIT.pdb
     RDKit          3D

 21 20  0  0  1  0  0  0  0  0999 V2000
   28.1861  -19.5925  -15.4129 C   0  0  0  0  0  0  0  0  0  0  0  0
   28.3995  -20.7716  -14.5074 C   0  0  2  0  0  0  0  0  0  0  0  0
   28.9618  -21.8797  -15.2125 N   0  0  0  0  0  0  0  0  0  0  0  0
   27.0957  -21.2037  -13.8752 C   0  0  0  0  0  0  0  0  0  0  0  0
   26.4160  -22.1078  -14.4669 O   0  0  0  0  0  0  0  0  0  0  0  0
   26.8444  -20.3882   -8.3799 C   0  0  0  0  0  0  0  0  0  0  0  0
   26.7032  -21.0065   -9.7624 C   0  0  0  0  0  0  0  0  0  0  0  0
   25.5364  -20.4298  -10.5097 C   0  0  2  0  0  0  0  0  0  0  0  0
   24.2799  -20.7859   -9.7438 C   0  0  0  0  0  0  0  0  0  0  0  0
   25.4500  -20.8827  -11.9537 C   0  0  2  0  0  0  0  0  0  0  0  0
   26.6672  -20.6111  -12.6704 N   0  0  0  0  0  0  0  0  0  0  0  0
   24.2522  -20.4174  -12.6345 C   0  0  0  0  0  0  0  0  0  0  0  0
   24.0588  -19.1831  -12.7907 O   0  0  0  0  0  0  0  0  0  0  0  0
   23.0636  -21.5233  -16.1107 C   0  0  0  0  0  0  0  0  0  0  0  0
   21.8901  -21.6051  -15.1618 C   0  0  1  0  0  0  0  0  0  0  0  0
   21.6829  -22.9548  -14.8958 O   0  0  0  0  0  0  0  0  0  0  0  0
   22.1066  -20.8119  -13.9046 C   0  0  2  0  0  0  0  0  0  0  0  0
   23.2525  -21.3004  -13.1516 N   0  0  0  0  0  0  0  0  0  0  0  0
   20.8805  -20.8225  -13.0343 C   0  0  0  0  0  0  0  0  0  0  0  0
   20.8656  -21.4833  -11.9530 O   0  0  0  0  0  0  0  0  0  0  0  0
   19.7259  -20.1309  -13.3520 O   0  0  0  0  0  0  0  0  0  0  0  0
  2  1  1  6
  3  2  1  0
  4  2  1  0
  5  4  2  0
  7  8  1  0
  7  6  1  0
  8 10  1  0
  8  9  1  1
 10 12  1  0
 10 11  1  6
 11  4  1  0
 12 13  2  0
 15 14  1  6
 15 16  1  0
 17 15  1  0
 17 18  1  1
 18 12  1  0
 19 21  1  0
 19 17  1  0
 20 19  2  0
M  END
$$$$
