AIT.pdb
     RDKit          3D

 21 20  0  0  1  0  0  0  0  0999 V2000
   16.8816   -9.6778  -18.7770 C   0  0  0  0  0  0  0  0  0  0  0  0
   18.2159  -10.2919  -18.4638 C   0  0  2  0  0  0  0  0  0  0  0  0
   18.1516  -11.7192  -18.4720 N   0  0  0  0  0  0  0  0  0  0  0  0
   18.7130   -9.8316  -17.1120 C   0  0  0  0  0  0  0  0  0  0  0  0
   17.9855  -10.0787  -16.0925 O   0  0  0  0  0  0  0  0  0  0  0  0
   23.5540  -10.4052  -13.8700 C   0  0  0  0  0  0  0  0  0  0  0  0
   22.4688   -9.3879  -14.1881 C   0  0  0  0  0  0  0  0  0  0  0  0
   21.7222   -9.7487  -15.4390 C   0  0  2  0  0  0  0  0  0  0  0  0
   22.7354   -9.8796  -16.5563 C   0  0  0  0  0  0  0  0  0  0  0  0
   20.6245   -8.7680  -15.8010 C   0  0  2  0  0  0  0  0  0  0  0  0
   19.9438   -9.1529  -17.0083 N   0  0  0  0  0  0  0  0  0  0  0  0
   21.0622   -7.3813  -15.7912 C   0  0  0  0  0  0  0  0  0  0  0  0
   21.7079   -6.9202  -16.7689 O   0  0  0  0  0  0  0  0  0  0  0  0
   20.5149   -2.6974  -14.6711 C   0  0  0  0  0  0  0  0  0  0  0  0
   20.0798   -4.1447  -14.6654 C   0  0  1  0  0  0  0  0  0  0  0  0
   19.2127   -4.3070  -15.7412 O   0  0  0  0  0  0  0  0  0  0  0  0
   21.2393   -5.0975  -14.7303 C   0  0  2  0  0  0  0  0  0  0  0  0
   20.7973   -6.4842  -14.7089 N   0  0  0  0  0  0  0  0  0  0  0  0
   22.2105   -4.8529  -13.6089 C   0  0  0  0  0  0  0  0  0  0  0  0
   22.0029   -5.3456  -12.4598 O   0  0  0  0  0  0  0  0  0  0  0  0
   23.3582   -4.0960  -13.7585 O   0  0  0  0  0  0  0  0  0  0  0  0
  2  1  1  1
  3  2  1  0
  4  2  1  0
  5  4  2  0
  7  8  1  0
  7  6  1  0
  8 10  1  0
  8  9  1  6
 10 12  1  0
 10 11  1  6
 11  4  1  0
 12 13  2  0
 15 14  1  6
 15 16  1  0
 17 15  1  0
 17 18  1  1
 18 12  1  0
 19 21  1  0
 19 17  1  0
 20 19  2  0
M  END
$$$$
