AIT.pdb
     RDKit          3D

 21 20  0  0  1  0  0  0  0  0999 V2000
   27.2323  -17.7300  -15.0290 C   0  0  0  0  0  0  0  0  0  0  0  0
   27.7641  -19.0655  -14.5940 C   0  0  2  0  0  0  0  0  0  0  0  0
   28.3792  -19.7638  -15.6781 N   0  0  0  0  0  0  0  0  0  0  0  0
   26.6564  -19.9230  -14.0245 C   0  0  0  0  0  0  0  0  0  0  0  0
   26.1487  -20.8200  -14.7775 O   0  0  0  0  0  0  0  0  0  0  0  0
   26.8789  -20.5801   -8.5526 C   0  0  0  0  0  0  0  0  0  0  0  0
   26.6857  -20.8353  -10.0396 C   0  0  0  0  0  0  0  0  0  0  0  0
   25.3411  -20.3641  -10.5114 C   0  0  2  0  0  0  0  0  0  0  0  0
   24.2903  -21.1916   -9.8021 C   0  0  0  0  0  0  0  0  0  0  0  0
   25.1660  -20.4211  -12.0160 C   0  0  2  0  0  0  0  0  0  0  0  0
   26.2169  -19.7176  -12.7013 N   0  0  0  0  0  0  0  0  0  0  0  0
   23.8298  -20.0531  -12.4565 C   0  0  0  0  0  0  0  0  0  0  0  0
   23.5897  -18.8687  -12.8102 O   0  0  0  0  0  0  0  0  0  0  0  0
   22.7355  -22.2049  -15.1801 C   0  0  0  0  0  0  0  0  0  0  0  0
   22.0564  -20.8927  -14.8619 C   0  0  1  0  0  0  0  0  0  0  0  0
   20.9829  -20.7738  -15.7388 O   0  0  0  0  0  0  0  0  0  0  0  0
   21.6221  -20.7994  -13.4269 C   0  0  2  0  0  0  0  0  0  0  0  0
   22.7413  -20.9795  -12.5139 N   0  0  0  0  0  0  0  0  0  0  0  0
   20.5429  -21.7994  -13.1168 C   0  0  0  0  0  0  0  0  0  0  0  0
   19.3526  -21.6013  -13.5042 O   0  0  0  0  0  0  0  0  0  0  0  0
   20.7769  -22.9644  -12.4094 O   0  0  0  0  0  0  0  0  0  0  0  0
  2  1  1  6
  3  2  1  0
  4  2  1  0
  5  4  2  0
  7  8  1  0
  7  6  1  0
  8 10  1  0
  8  9  1  1
 10 12  1  0
 10 11  1  6
 11  4  1  0
 12 13  2  0
 15 14  1  1
 15 16  1  0
 17 15  1  0
 17 18  1  1
 18 12  1  0
 19 21  1  0
 19 17  1  0
 20 19  2  0
M  END
$$$$
