YKY.pdb
     RDKit          3D

 34 35  0  0  1  0  0  0  0  0999 V2000
   22.2710  -34.0000  -11.5166 O   0  0  0  0  0  0  0  0  0  0  0  0
   21.8982  -32.8658  -10.8291 C   0  0  0  0  0  0  0  0  0  0  0  0
   20.5733  -32.6786  -10.5202 C   0  0  0  0  0  0  0  0  0  0  0  0
   20.1305  -31.5634   -9.8324 C   0  0  0  0  0  0  0  0  0  0  0  0
   21.0488  -30.6127   -9.4466 C   0  0  0  0  0  0  0  0  0  0  0  0
   20.6263  -29.3949   -8.7050 C   0  0  0  0  0  0  0  0  0  0  0  0
   19.9521  -28.3810   -9.6193 C   0  0  2  0  0  0  0  0  0  0  0  0
   20.8816  -27.8974  -10.5928 N   0  0  0  0  0  0  0  0  0  0  0  0
   19.4245  -27.3071   -8.7378 C   0  0  0  0  0  0  0  0  0  0  0  0
   20.2461  -26.4455   -8.3337 O   0  0  0  0  0  0  0  0  0  0  0  0
   22.3730  -30.7725   -9.7402 C   0  0  0  0  0  0  0  0  0  0  0  0
   22.7980  -31.9064  -10.4356 C   0  0  0  0  0  0  0  0  0  0  0  0
   18.0651  -27.2350   -8.3560 N   0  0  0  0  0  0  0  0  0  0  0  0
   17.5882  -26.1772   -7.5209 C   0  0  1  0  0  0  0  0  0  0  0  0
   16.5840  -25.2858   -8.1752 C   0  0  0  0  0  0  0  0  0  0  0  0
   17.2543  -24.3809   -9.1668 C   0  0  0  0  0  0  0  0  0  0  0  0
   16.2761  -23.5650   -9.9601 C   0  0  0  0  0  0  0  0  0  0  0  0
   16.9529  -22.6857  -10.9822 C   0  0  0  0  0  0  0  0  0  0  0  0
   15.9056  -22.0034  -11.7341 N   0  0  0  0  0  0  0  0  0  0  0  0
   17.0154  -26.7076   -6.2317 C   0  0  0  0  0  0  0  0  0  0  0  0
   16.1480  -27.6114   -6.3530 O   0  0  0  0  0  0  0  0  0  0  0  0
   20.0160  -32.1385   -4.2914 O   0  0  0  0  0  0  0  0  0  0  0  0
   19.5257  -30.8976   -3.9340 C   0  0  0  0  0  0  0  0  0  0  0  0
   18.4480  -30.8326   -3.0594 C   0  0  0  0  0  0  0  0  0  0  0  0
   17.9476  -29.5833   -2.6939 C   0  0  0  0  0  0  0  0  0  0  0  0
   18.4827  -28.4068   -3.1682 C   0  0  0  0  0  0  0  0  0  0  0  0
   17.8859  -27.1273   -2.7712 C   0  0  0  0  0  0  0  0  0  0  0  0
   16.8229  -26.7229   -3.7628 C   0  0  2  0  0  0  0  0  0  0  0  0
   17.4484  -26.1987   -4.9798 N   0  0  0  0  0  0  0  0  0  0  0  0
   15.9357  -25.7255   -3.1532 C   0  0  0  0  0  0  0  0  0  0  0  0
   15.8125  -24.5911   -3.6355 O   0  0  0  0  0  0  0  0  0  0  0  0
   19.5481  -28.4907   -4.0325 C   0  0  0  0  0  0  0  0  0  0  0  0
   20.0624  -29.7142   -4.4101 C   0  0  0  0  0  0  0  0  0  0  0  0
   15.2226  -26.0586   -2.0169 O   0  0  0  0  0  0  0  0  0  0  0  0
  2 12  2  0
  2  1  1  0
  3  2  1  0
  4  5  1  0
  4  3  2  0
  5 11  2  0
  6  5  1  0
  7  9  1  0
  7  6  1  0
  7  8  1  6
  9 13  1  0
 10  9  2  0
 11 12  1  0
 13 14  1  0
 14 20  1  0
 14 15  1  6
 16 17  1  0
 16 15  1  0
 18 17  1  0
 19 18  1  0
 20 21  2  0
 20 29  1  0
 23 22  1  0
 23 24  2  0
 24 25  1  0
 26 25  2  0
 27 26  1  0
 28 27  1  1
 28 30  1  0
 29 28  1  0
 30 31  2  0
 30 34  1  0
 32 26  1  0
 33 32  2  0
 33 23  1  0
M  END
$$$$
