YKY.pdb
     RDKit          3D

 34 35  0  0  1  0  0  0  0  0999 V2000
   30.8263  -13.8096  -17.0385 O   0  0  0  0  0  0  0  0  0  0  0  0
   29.5895  -13.2027  -17.0542 C   0  0  0  0  0  0  0  0  0  0  0  0
   29.3021  -12.3003  -18.0486 C   0  0  0  0  0  0  0  0  0  0  0  0
   28.0811  -11.6553  -18.1239 C   0  0  0  0  0  0  0  0  0  0  0  0
   27.1255  -11.9283  -17.1709 C   0  0  0  0  0  0  0  0  0  0  0  0
   25.7961  -11.2627  -17.2052 C   0  0  0  0  0  0  0  0  0  0  0  0
   24.7093  -12.1956  -17.7222 C   0  0  2  0  0  0  0  0  0  0  0  0
   25.0324  -12.6500  -19.0392 N   0  0  0  0  0  0  0  0  0  0  0  0
   23.4377  -11.4282  -17.6692 C   0  0  0  0  0  0  0  0  0  0  0  0
   23.1812  -10.6809  -18.6471 O   0  0  0  0  0  0  0  0  0  0  0  0
   27.3835  -12.8214  -16.1703 C   0  0  0  0  0  0  0  0  0  0  0  0
   28.6234  -13.4612  -16.1136 C   0  0  0  0  0  0  0  0  0  0  0  0
   22.5403  -11.5164  -16.5803 N   0  0  0  0  0  0  0  0  0  0  0  0
   21.2713  -10.8588  -16.6147 C   0  0  1  0  0  0  0  0  0  0  0  0
   20.1501  -11.6608  -16.0396 C   0  0  0  0  0  0  0  0  0  0  0  0
   20.0265  -12.9750  -16.7531 C   0  0  0  0  0  0  0  0  0  0  0  0
   18.9409  -13.8422  -16.1861 C   0  0  0  0  0  0  0  0  0  0  0  0
   18.8481  -15.1786  -16.8799 C   0  0  0  0  0  0  0  0  0  0  0  0
   17.8372  -15.9646  -16.1813 N   0  0  0  0  0  0  0  0  0  0  0  0
   21.3259   -9.5185  -15.9278 C   0  0  0  0  0  0  0  0  0  0  0  0
   22.0333   -9.4684  -14.8881 O   0  0  0  0  0  0  0  0  0  0  0  0
   21.6674   -0.9877  -14.3640 O   0  0  0  0  0  0  0  0  0  0  0  0
   21.6224   -2.2525  -14.9174 C   0  0  0  0  0  0  0  0  0  0  0  0
   22.5571   -3.1946  -14.5059 C   0  0  0  0  0  0  0  0  0  0  0  0
   22.5178   -4.4736  -15.0602 C   0  0  0  0  0  0  0  0  0  0  0  0
   21.5845   -4.8405  -16.0034 C   0  0  0  0  0  0  0  0  0  0  0  0
   21.6210   -6.1920  -16.5716 C   0  0  0  0  0  0  0  0  0  0  0  0
   20.7451   -7.1167  -15.7625 C   0  0  2  0  0  0  0  0  0  0  0  0
   20.6137   -8.4060  -16.4465 N   0  0  0  0  0  0  0  0  0  0  0  0
   19.4331   -6.4935  -15.5536 C   0  0  0  0  0  0  0  0  0  0  0  0
   18.5070   -6.6535  -16.3607 O   0  0  0  0  0  0  0  0  0  0  0  0
   20.6680   -3.8954  -16.3985 C   0  0  0  0  0  0  0  0  0  0  0  0
   20.6849   -2.6226  -15.8658 C   0  0  0  0  0  0  0  0  0  0  0  0
   19.2261   -5.7114  -14.4328 O   0  0  0  0  0  0  0  0  0  0  0  0
  2 12  2  0
  2  1  1  0
  3  2  1  0
  4  5  1  0
  4  3  2  0
  5 11  2  0
  6  5  1  0
  7  9  1  0
  7  6  1  0
  7  8  1  6
  9 13  1  0
 10  9  2  0
 11 12  1  0
 13 14  1  0
 14 20  1  0
 14 15  1  1
 16 17  1  0
 16 15  1  0
 18 17  1  0
 19 18  1  0
 20 21  2  0
 20 29  1  0
 23 22  1  0
 23 24  2  0
 24 25  1  0
 26 25  2  0
 27 26  1  0
 28 27  1  6
 28 30  1  0
 29 28  1  0
 30 31  2  0
 30 34  1  0
 32 26  1  0
 33 32  2  0
 33 23  1  0
M  END
$$$$
