YKY.pdb
     RDKit          3D

 34 35  0  0  1  0  0  0  0  0999 V2000
   21.5294   -9.2146  -23.6309 O   0  0  0  0  0  0  0  0  0  0  0  0
   21.5047  -10.5686  -23.3774 C   0  0  0  0  0  0  0  0  0  0  0  0
   20.5932  -11.3543  -24.0391 C   0  0  0  0  0  0  0  0  0  0  0  0
   20.5142  -12.7194  -23.8322 C   0  0  0  0  0  0  0  0  0  0  0  0
   21.3773  -13.3065  -22.9343 C   0  0  0  0  0  0  0  0  0  0  0  0
   21.3348  -14.7701  -22.6744 C   0  0  0  0  0  0  0  0  0  0  0  0
   22.1113  -15.5540  -23.7238 C   0  0  2  0  0  0  0  0  0  0  0  0
   21.4505  -15.4753  -24.9897 N   0  0  0  0  0  0  0  0  0  0  0  0
   22.2207  -16.9451  -23.2122 C   0  0  0  0  0  0  0  0  0  0  0  0
   21.3600  -17.7695  -23.6124 O   0  0  0  0  0  0  0  0  0  0  0  0
   22.2941  -12.5498  -22.2618 C   0  0  0  0  0  0  0  0  0  0  0  0
   22.3564  -11.1730  -22.4862 C   0  0  0  0  0  0  0  0  0  0  0  0
   23.2367  -17.3487  -22.3158 N   0  0  0  0  0  0  0  0  0  0  0  0
   23.3179  -18.6984  -21.8515 C   0  0  1  0  0  0  0  0  0  0  0  0
   24.7028  -19.1503  -21.5215 C   0  0  0  0  0  0  0  0  0  0  0  0
   24.7175  -20.6215  -21.2270 C   0  0  0  0  0  0  0  0  0  0  0  0
   26.0783  -21.1210  -20.8390 C   0  0  0  0  0  0  0  0  0  0  0  0
   26.1136  -22.6184  -20.6582 C   0  0  0  0  0  0  0  0  0  0  0  0
   27.4453  -22.9694  -20.1775 N   0  0  0  0  0  0  0  0  0  0  0  0
   22.4243  -18.9265  -20.6596 C   0  0  0  0  0  0  0  0  0  0  0  0
   22.6296  -18.1719  -19.6735 O   0  0  0  0  0  0  0  0  0  0  0  0
   15.6539  -20.7155  -15.5130 O   0  0  0  0  0  0  0  0  0  0  0  0
   16.5191  -20.6477  -16.5876 C   0  0  0  0  0  0  0  0  0  0  0  0
   16.6489  -19.4414  -17.2648 C   0  0  0  0  0  0  0  0  0  0  0  0
   17.5206  -19.3654  -18.3506 C   0  0  0  0  0  0  0  0  0  0  0  0
   18.2608  -20.4441  -18.7794 C   0  0  0  0  0  0  0  0  0  0  0  0
   19.1327  -20.3053  -19.9504 C   0  0  0  0  0  0  0  0  0  0  0  0
   20.5579  -20.0787  -19.5098 C   0  0  2  0  0  0  0  0  0  0  0  0
   21.4262  -19.9351  -20.6814 N   0  0  0  0  0  0  0  0  0  0  0  0
   20.9940  -21.1948  -18.6626 C   0  0  0  0  0  0  0  0  0  0  0  0
   21.4363  -22.2427  -19.1534 O   0  0  0  0  0  0  0  0  0  0  0  0
   18.1192  -21.6292  -18.0976 C   0  0  0  0  0  0  0  0  0  0  0  0
   17.2636  -21.7313  -17.0198 C   0  0  0  0  0  0  0  0  0  0  0  0
   20.9096  -21.0744  -17.2883 O   0  0  0  0  0  0  0  0  0  0  0  0
  2 12  2  0
  2  1  1  0
  3  2  1  0
  4  5  1  0
  4  3  2  0
  5 11  2  0
  6  5  1  0
  7  9  1  0
  7  6  1  0
  7  8  1  6
  9 13  1  0
 10  9  2  0
 11 12  1  0
 13 14  1  0
 14 20  1  0
 14 15  1  1
 16 17  1  0
 16 15  1  0
 18 17  1  0
 19 18  1  0
 20 21  2  0
 20 29  1  0
 23 22  1  0
 23 24  2  0
 24 25  1  0
 26 25  2  0
 27 26  1  0
 28 27  1  6
 28 30  1  0
 29 28  1  0
 30 31  2  0
 30 34  1  0
 32 26  1  0
 33 32  2  0
 33 23  1  0
M  END
$$$$
