YKY.pdb
     RDKit          3D

 34 35  0  0  1  0  0  0  0  0999 V2000
   28.8783  -19.8572   -3.5516 O   0  0  0  0  0  0  0  0  0  0  0  0
   28.3276  -19.8797   -4.8143 C   0  0  0  0  0  0  0  0  0  0  0  0
   28.9611  -19.2070   -5.8301 C   0  0  0  0  0  0  0  0  0  0  0  0
   28.4633  -19.1882   -7.1202 C   0  0  0  0  0  0  0  0  0  0  0  0
   27.2960  -19.8660   -7.3919 C   0  0  0  0  0  0  0  0  0  0  0  0
   26.7174  -19.8783   -8.7619 C   0  0  0  0  0  0  0  0  0  0  0  0
   27.2068  -21.0710   -9.5722 C   0  0  2  0  0  0  0  0  0  0  0  0
   28.6238  -20.9996   -9.7517 N   0  0  0  0  0  0  0  0  0  0  0  0
   26.4575  -21.0420  -10.8554 C   0  0  0  0  0  0  0  0  0  0  0  0
   26.8033  -20.1759  -11.6985 O   0  0  0  0  0  0  0  0  0  0  0  0
   26.6444  -20.5438   -6.4013 C   0  0  0  0  0  0  0  0  0  0  0  0
   27.1649  -20.5493   -5.1057 C   0  0  0  0  0  0  0  0  0  0  0  0
   25.4000  -21.9363  -11.1397 N   0  0  0  0  0  0  0  0  0  0  0  0
   24.7620  -21.9419  -12.4190 C   0  0  1  0  0  0  0  0  0  0  0  0
   24.6181  -23.2992  -13.0257 C   0  0  0  0  0  0  0  0  0  0  0  0
   24.0380  -23.1974  -14.4056 C   0  0  0  0  0  0  0  0  0  0  0  0
   23.8030  -24.5389  -15.0358 C   0  0  0  0  0  0  0  0  0  0  0  0
   23.2793  -24.4303  -16.4464 C   0  0  0  0  0  0  0  0  0  0  0  0
   24.3943  -24.0289  -17.2970 N   0  0  0  0  0  0  0  0  0  0  0  0
   23.4106  -21.2770  -12.3645 C   0  0  0  0  0  0  0  0  0  0  0  0
   22.6480  -21.6695  -11.4435 O   0  0  0  0  0  0  0  0  0  0  0  0
   16.9735  -15.4496  -13.1007 O   0  0  0  0  0  0  0  0  0  0  0  0
   18.0967  -16.2061  -13.3731 C   0  0  0  0  0  0  0  0  0  0  0  0
   19.1982  -16.0912  -12.5340 C   0  0  0  0  0  0  0  0  0  0  0  0
   20.3357  -16.8519  -12.8027 C   0  0  0  0  0  0  0  0  0  0  0  0
   20.4096  -17.7160  -13.8719 C   0  0  0  0  0  0  0  0  0  0  0  0
   21.6492  -18.4603  -14.1177 C   0  0  0  0  0  0  0  0  0  0  0  0
   21.7446  -19.6322  -13.1720 C   0  0  2  0  0  0  0  0  0  0  0  0
   23.0537  -20.2769  -13.3060 N   0  0  0  0  0  0  0  0  0  0  0  0
   20.6586  -20.5788  -13.4510 C   0  0  0  0  0  0  0  0  0  0  0  0
   19.6761  -20.6725  -12.7022 O   0  0  0  0  0  0  0  0  0  0  0  0
   19.3106  -17.8163  -14.6911 C   0  0  0  0  0  0  0  0  0  0  0  0
   18.1725  -17.0750  -14.4476 C   0  0  0  0  0  0  0  0  0  0  0  0
   20.7333  -21.3829  -14.5728 O   0  0  0  0  0  0  0  0  0  0  0  0
  2 12  2  0
  2  1  1  0
  3  2  1  0
  4  5  1  0
  4  3  2  0
  5 11  2  0
  6  5  1  0
  7  9  1  0
  7  6  1  0
  7  8  1  6
  9 13  1  0
 10  9  2  0
 11 12  1  0
 13 14  1  0
 14 20  1  0
 14 15  1  1
 16 17  1  0
 16 15  1  0
 18 17  1  0
 19 18  1  0
 20 21  2  0
 20 29  1  0
 23 22  1  0
 23 24  2  0
 24 25  1  0
 26 25  2  0
 27 26  1  0
 28 27  1  6
 28 30  1  0
 29 28  1  0
 30 31  2  0
 30 34  1  0
 32 26  1  0
 33 32  2  0
 33 23  1  0
M  END
$$$$
