YKY.pdb
     RDKit          3D

 34 35  0  0  1  0  0  0  0  0999 V2000
   24.4832  -14.5305  -21.8333 O   0  0  0  0  0  0  0  0  0  0  0  0
   23.6024  -13.7147  -21.1575 C   0  0  0  0  0  0  0  0  0  0  0  0
   24.0250  -12.4755  -20.7433 C   0  0  0  0  0  0  0  0  0  0  0  0
   23.1932  -11.6068  -20.0605 C   0  0  0  0  0  0  0  0  0  0  0  0
   21.9016  -11.9991  -19.7889 C   0  0  0  0  0  0  0  0  0  0  0  0
   20.9658  -11.1038  -19.0580 C   0  0  0  0  0  0  0  0  0  0  0  0
   21.1080  -11.2475  -17.5487 C   0  0  2  0  0  0  0  0  0  0  0  0
   20.7223  -12.5619  -17.1381 N   0  0  0  0  0  0  0  0  0  0  0  0
   20.2669  -10.1812  -16.9449 C   0  0  0  0  0  0  0  0  0  0  0  0
   19.0879  -10.4904  -16.6370 O   0  0  0  0  0  0  0  0  0  0  0  0
   21.4540  -13.2259  -20.1888 C   0  0  0  0  0  0  0  0  0  0  0  0
   22.3110  -14.0871  -20.8769 C   0  0  0  0  0  0  0  0  0  0  0  0
   20.7467   -8.8710  -16.7169 N   0  0  0  0  0  0  0  0  0  0  0  0
   19.9103   -7.8703  -16.1313 C   0  0  1  0  0  0  0  0  0  0  0  0
   19.8595   -7.9111  -14.6390 C   0  0  0  0  0  0  0  0  0  0  0  0
   18.6447   -8.6605  -14.1765 C   0  0  0  0  0  0  0  0  0  0  0  0
   18.4377   -8.5693  -12.6930 C   0  0  0  0  0  0  0  0  0  0  0  0
   17.1884   -9.2832  -12.2395 C   0  0  0  0  0  0  0  0  0  0  0  0
   16.9971   -8.9749  -10.8267 N   0  0  0  0  0  0  0  0  0  0  0  0
   20.3104   -6.4872  -16.5765 C   0  0  0  0  0  0  0  0  0  0  0  0
   21.5286   -6.2026  -16.4390 O   0  0  0  0  0  0  0  0  0  0  0  0
   20.5341    1.5677  -19.8637 O   0  0  0  0  0  0  0  0  0  0  0  0
   20.1447    0.2794  -19.5529 C   0  0  0  0  0  0  0  0  0  0  0  0
   18.9766    0.0928  -18.8240 C   0  0  0  0  0  0  0  0  0  0  0  0
   18.5771   -1.2050  -18.5066 C   0  0  0  0  0  0  0  0  0  0  0  0
   19.2986   -2.3134  -18.8893 C   0  0  0  0  0  0  0  0  0  0  0  0
   18.8406   -3.6488  -18.4921 C   0  0  0  0  0  0  0  0  0  0  0  0
   19.7898   -4.2407  -17.4795 C   0  0  2  0  0  0  0  0  0  0  0  0
   19.3504   -5.5894  -17.1116 N   0  0  0  0  0  0  0  0  0  0  0  0
   19.8591   -3.3681  -16.3016 C   0  0  0  0  0  0  0  0  0  0  0  0
   20.4855   -2.2996  -16.3262 O   0  0  0  0  0  0  0  0  0  0  0  0
   20.4514   -2.1094  -19.6094 C   0  0  0  0  0  0  0  0  0  0  0  0
   20.8690   -0.8356  -19.9368 C   0  0  0  0  0  0  0  0  0  0  0  0
   19.2119   -3.7463  -15.1403 O   0  0  0  0  0  0  0  0  0  0  0  0
  2 12  2  0
  2  1  1  0
  3  2  1  0
  4  5  1  0
  4  3  2  0
  5 11  2  0
  6  5  1  0
  7  9  1  0
  7  6  1  0
  7  8  1  1
  9 13  1  0
 10  9  2  0
 11 12  1  0
 13 14  1  0
 14 20  1  0
 14 15  1  1
 16 17  1  0
 16 15  1  0
 18 17  1  0
 19 18  1  0
 20 21  2  0
 20 29  1  0
 23 22  1  0
 23 24  2  0
 24 25  1  0
 26 25  2  0
 27 26  1  0
 28 27  1  6
 28 30  1  0
 29 28  1  0
 30 31  2  0
 30 34  1  0
 32 26  1  0
 33 32  2  0
 33 23  1  0
M  END
$$$$
