YKY.pdb
     RDKit          3D

 34 35  0  0  1  0  0  0  0  0999 V2000
   15.9717  -24.6128  -12.5035 O   0  0  0  0  0  0  0  0  0  0  0  0
   17.1178  -23.9484  -12.8818 C   0  0  0  0  0  0  0  0  0  0  0  0
   17.0125  -22.6864  -13.4129 C   0  0  0  0  0  0  0  0  0  0  0  0
   18.1216  -21.9637  -13.8131 C   0  0  0  0  0  0  0  0  0  0  0  0
   19.3692  -22.5295  -13.6736 C   0  0  0  0  0  0  0  0  0  0  0  0
   20.5946  -21.7959  -14.0880 C   0  0  0  0  0  0  0  0  0  0  0  0
   21.3892  -21.2982  -12.8881 C   0  0  2  0  0  0  0  0  0  0  0  0
   20.5822  -20.4332  -12.0844 N   0  0  0  0  0  0  0  0  0  0  0  0
   22.5955  -20.6238  -13.4345 C   0  0  0  0  0  0  0  0  0  0  0  0
   22.4685  -19.4229  -13.7845 O   0  0  0  0  0  0  0  0  0  0  0  0
   19.5042  -23.7830  -13.1485 C   0  0  0  0  0  0  0  0  0  0  0  0
   18.3706  -24.4948  -12.7510 C   0  0  0  0  0  0  0  0  0  0  0  0
   23.8409  -21.2801  -13.5653 N   0  0  0  0  0  0  0  0  0  0  0  0
   24.9674  -20.6169  -14.1440 C   0  0  1  0  0  0  0  0  0  0  0  0
   26.2884  -21.1141  -13.6553 C   0  0  0  0  0  0  0  0  0  0  0  0
   26.3725  -20.9963  -12.1618 C   0  0  0  0  0  0  0  0  0  0  0  0
   27.6361  -21.5835  -11.6046 C   0  0  0  0  0  0  0  0  0  0  0  0
   27.6623  -21.5709  -10.0963 C   0  0  0  0  0  0  0  0  0  0  0  0
   28.8764  -22.2606   -9.6743 N   0  0  0  0  0  0  0  0  0  0  0  0
   24.9363  -20.6883  -15.6491 C   0  0  0  0  0  0  0  0  0  0  0  0
   24.0455  -21.4293  -16.1402 O   0  0  0  0  0  0  0  0  0  0  0  0
   22.3162  -15.3446  -21.5578 O   0  0  0  0  0  0  0  0  0  0  0  0
   22.7970  -16.0503  -20.4721 C   0  0  0  0  0  0  0  0  0  0  0  0
   23.7493  -15.4523  -19.6560 C   0  0  0  0  0  0  0  0  0  0  0  0
   24.2392  -16.1588  -18.5580 C   0  0  0  0  0  0  0  0  0  0  0  0
   23.8138  -17.4314  -18.2501 C   0  0  0  0  0  0  0  0  0  0  0  0
   24.3961  -18.1318  -17.1007 C   0  0  0  0  0  0  0  0  0  0  0  0
   25.3609  -19.1905  -17.5750 C   0  0  2  0  0  0  0  0  0  0  0  0
   25.8658  -19.9549  -16.4313 N   0  0  0  0  0  0  0  0  0  0  0  0
   26.4597  -18.5585  -18.3145 C   0  0  0  0  0  0  0  0  0  0  0  0
   27.3251  -17.8874  -17.7353 O   0  0  0  0  0  0  0  0  0  0  0  0
   22.8717  -18.0070  -19.0687 C   0  0  0  0  0  0  0  0  0  0  0  0
   22.3704  -17.3297  -20.1615 C   0  0  0  0  0  0  0  0  0  0  0  0
   26.5307  -18.7153  -19.6859 O   0  0  0  0  0  0  0  0  0  0  0  0
  2 12  2  0
  2  1  1  0
  3  2  1  0
  4  5  1  0
  4  3  2  0
  5 11  2  0
  6  5  1  0
  7  9  1  0
  7  6  1  0
  7  8  1  6
  9 13  1  0
 10  9  2  0
 11 12  1  0
 13 14  1  0
 14 20  1  0
 14 15  1  1
 16 17  1  0
 16 15  1  0
 18 17  1  0
 19 18  1  0
 20 21  2  0
 20 29  1  0
 23 22  1  0
 23 24  2  0
 24 25  1  0
 26 25  2  0
 27 26  1  0
 28 27  1  1
 28 30  1  0
 29 28  1  0
 30 31  2  0
 30 34  1  0
 32 26  1  0
 33 32  2  0
 33 23  1  0
M  END
$$$$
