YKY.pdb
     RDKit          3D

 34 35  0  0  1  0  0  0  0  0999 V2000
   14.0871  -18.3027  -23.9236 O   0  0  0  0  0  0  0  0  0  0  0  0
   14.5927  -19.1194  -22.9358 C   0  0  0  0  0  0  0  0  0  0  0  0
   14.6910  -18.6341  -21.6549 C   0  0  0  0  0  0  0  0  0  0  0  0
   15.1890  -19.3997  -20.6164 C   0  0  0  0  0  0  0  0  0  0  0  0
   15.5983  -20.6881  -20.8775 C   0  0  0  0  0  0  0  0  0  0  0  0
   16.1414  -21.5541  -19.7974 C   0  0  0  0  0  0  0  0  0  0  0  0
   17.4150  -22.2675  -20.2305 C   0  0  2  0  0  0  0  0  0  0  0  0
   17.1197  -23.2405  -21.2361 N   0  0  0  0  0  0  0  0  0  0  0  0
   18.0007  -22.8632  -19.0014 C   0  0  0  0  0  0  0  0  0  0  0  0
   17.5888  -24.0032  -18.6678 O   0  0  0  0  0  0  0  0  0  0  0  0
   15.5121  -21.1972  -22.1419 C   0  0  0  0  0  0  0  0  0  0  0  0
   15.0061  -20.4065  -23.1756 C   0  0  0  0  0  0  0  0  0  0  0  0
   18.9778  -22.1991  -18.2248 N   0  0  0  0  0  0  0  0  0  0  0  0
   19.4856  -22.7817  -17.0220 C   0  0  1  0  0  0  0  0  0  0  0  0
   20.9126  -22.4468  -16.7344 C   0  0  0  0  0  0  0  0  0  0  0  0
   21.6095  -22.0039  -17.9873 C   0  0  0  0  0  0  0  0  0  0  0  0
   22.7508  -22.9024  -18.3640 C   0  0  0  0  0  0  0  0  0  0  0  0
   23.5187  -22.3906  -19.5574 C   0  0  0  0  0  0  0  0  0  0  0  0
   24.5699  -23.3590  -19.8490 N   0  0  0  0  0  0  0  0  0  0  0  0
   18.6396  -22.4129  -15.8306 C   0  0  0  0  0  0  0  0  0  0  0  0
   18.8290  -21.2590  -15.3651 O   0  0  0  0  0  0  0  0  0  0  0  0
   13.0871  -26.6851  -17.5807 O   0  0  0  0  0  0  0  0  0  0  0  0
   13.6602  -25.6547  -16.8612 C   0  0  0  0  0  0  0  0  0  0  0  0
   14.2838  -24.6237  -17.5531 C   0  0  0  0  0  0  0  0  0  0  0  0
   14.8644  -23.5799  -16.8334 C   0  0  0  0  0  0  0  0  0  0  0  0
   14.8435  -23.5313  -15.4577 C   0  0  0  0  0  0  0  0  0  0  0  0
   15.5040  -22.4223  -14.7616 C   0  0  0  0  0  0  0  0  0  0  0  0
   16.8303  -22.8781  -14.2048 C   0  0  2  0  0  0  0  0  0  0  0  0
   17.7002  -23.3310  -15.2937 N   0  0  0  0  0  0  0  0  0  0  0  0
   16.6105  -23.9479  -13.2246 C   0  0  0  0  0  0  0  0  0  0  0  0
   15.9519  -23.7529  -12.1936 O   0  0  0  0  0  0  0  0  0  0  0  0
   14.2225  -24.5599  -14.7902 C   0  0  0  0  0  0  0  0  0  0  0  0
   13.6400  -25.6046  -15.4783 C   0  0  0  0  0  0  0  0  0  0  0  0
   17.1496  -25.1993  -13.4564 O   0  0  0  0  0  0  0  0  0  0  0  0
  2 12  2  0
  2  1  1  0
  3  2  1  0
  4  5  1  0
  4  3  2  0
  5 11  2  0
  6  5  1  0
  7  9  1  0
  7  6  1  0
  7  8  1  6
  9 13  1  0
 10  9  2  0
 11 12  1  0
 13 14  1  0
 14 20  1  0
 14 15  1  1
 16 17  1  0
 16 15  1  0
 18 17  1  0
 19 18  1  0
 20 21  2  0
 20 29  1  0
 23 22  1  0
 23 24  2  0
 24 25  1  0
 26 25  2  0
 27 26  1  0
 28 27  1  6
 28 30  1  0
 29 28  1  0
 30 31  2  0
 30 34  1  0
 32 26  1  0
 33 32  2  0
 33 23  1  0
M  END
$$$$
