YKY.pdb
     RDKit          3D

 34 35  0  0  1  0  0  0  0  0999 V2000
   28.8702   -9.0491  -24.0558 O   0  0  0  0  0  0  0  0  0  0  0  0
   27.8244   -8.6741  -23.2411 C   0  0  0  0  0  0  0  0  0  0  0  0
   27.5714   -9.4009  -22.1038 C   0  0  0  0  0  0  0  0  0  0  0  0
   26.5383   -9.0797  -21.2423 C   0  0  0  0  0  0  0  0  0  0  0  0
   25.7401   -7.9969  -21.5364 C   0  0  0  0  0  0  0  0  0  0  0  0
   24.6159   -7.6081  -20.6440 C   0  0  0  0  0  0  0  0  0  0  0  0
   23.3448   -8.3828  -20.9647 C   0  0  2  0  0  0  0  0  0  0  0  0
   22.8706   -8.0379  -22.2691 N   0  0  0  0  0  0  0  0  0  0  0  0
   22.3723   -8.0567  -19.8892 C   0  0  0  0  0  0  0  0  0  0  0  0
   21.5142   -7.1740  -20.1443 O   0  0  0  0  0  0  0  0  0  0  0  0
   25.9685   -7.2558  -22.6606 C   0  0  0  0  0  0  0  0  0  0  0  0
   27.0172   -7.5981  -23.5166 C   0  0  0  0  0  0  0  0  0  0  0  0
   22.3899   -8.6953  -18.6279 N   0  0  0  0  0  0  0  0  0  0  0  0
   21.4140   -8.3853  -17.6302 C   0  0  1  0  0  0  0  0  0  0  0  0
   20.5155   -9.5252  -17.2773 C   0  0  0  0  0  0  0  0  0  0  0  0
   19.5389   -9.1130  -16.2153 C   0  0  0  0  0  0  0  0  0  0  0  0
   18.6757  -10.2488  -15.7498 C   0  0  0  0  0  0  0  0  0  0  0  0
   17.6219   -9.8069  -14.7648 C   0  0  0  0  0  0  0  0  0  0  0  0
   16.8953  -10.9976  -14.3383 N   0  0  0  0  0  0  0  0  0  0  0  0
   22.0577   -7.8541  -16.3753 C   0  0  0  0  0  0  0  0  0  0  0  0
   23.0653   -8.4898  -15.9697 O   0  0  0  0  0  0  0  0  0  0  0  0
   22.1701   -1.1751  -18.4563 O   0  0  0  0  0  0  0  0  0  0  0  0
   22.5102   -2.2057  -17.6019 C   0  0  0  0  0  0  0  0  0  0  0  0
   22.8086   -3.4502  -18.1430 C   0  0  0  0  0  0  0  0  0  0  0  0
   23.1530   -4.4955  -17.2866 C   0  0  0  0  0  0  0  0  0  0  0  0
   23.2089   -4.3413  -15.9197 C   0  0  0  0  0  0  0  0  0  0  0  0
   23.5440   -5.4915  -15.0737 C   0  0  0  0  0  0  0  0  0  0  0  0
   22.2820   -6.1583  -14.5844 C   0  0  2  0  0  0  0  0  0  0  0  0
   21.5358   -6.7092  -15.7189 N   0  0  0  0  0  0  0  0  0  0  0  0
   21.4706   -5.1886  -13.8394 C   0  0  0  0  0  0  0  0  0  0  0  0
   21.8902   -4.6589  -12.8011 O   0  0  0  0  0  0  0  0  0  0  0  0
   22.9103   -3.1034  -15.4024 C   0  0  0  0  0  0  0  0  0  0  0  0
   22.5667   -2.0522  -16.2277 C   0  0  0  0  0  0  0  0  0  0  0  0
   20.2119   -4.8593  -14.3059 O   0  0  0  0  0  0  0  0  0  0  0  0
  2 12  2  0
  2  1  1  0
  3  2  1  0
  4  5  1  0
  4  3  2  0
  5 11  2  0
  6  5  1  0
  7  9  1  0
  7  6  1  0
  7  8  1  6
  9 13  1  0
 10  9  2  0
 11 12  1  0
 13 14  1  0
 14 20  1  0
 14 15  1  1
 16 17  1  0
 16 15  1  0
 18 17  1  0
 19 18  1  0
 20 21  2  0
 20 29  1  0
 23 22  1  0
 23 24  2  0
 24 25  1  0
 26 25  2  0
 27 26  1  0
 28 27  1  6
 28 30  1  0
 29 28  1  0
 30 31  2  0
 30 34  1  0
 32 26  1  0
 33 32  2  0
 33 23  1  0
M  END
$$$$
