YKY.pdb
     RDKit          3D

 34 35  0  0  1  0  0  0  0  0999 V2000
   21.5089   -3.4595  -13.7595 O   0  0  0  0  0  0  0  0  0  0  0  0
   21.3554   -4.5703  -14.5600 C   0  0  0  0  0  0  0  0  0  0  0  0
   22.4733   -5.2425  -14.9892 C   0  0  0  0  0  0  0  0  0  0  0  0
   22.3913   -6.3641  -15.7941 C   0  0  0  0  0  0  0  0  0  0  0  0
   21.1489   -6.8188  -16.1756 C   0  0  0  0  0  0  0  0  0  0  0  0
   21.0041   -8.0200  -17.0403 C   0  0  0  0  0  0  0  0  0  0  0  0
   21.3254   -7.7112  -18.4964 C   0  0  2  0  0  0  0  0  0  0  0  0
   20.4236   -6.7240  -19.0037 N   0  0  0  0  0  0  0  0  0  0  0  0
   21.2423   -9.0027  -19.2272 C   0  0  0  0  0  0  0  0  0  0  0  0
   20.1303   -9.3023  -19.7314 O   0  0  0  0  0  0  0  0  0  0  0  0
   20.0197   -6.1702  -15.7638 C   0  0  0  0  0  0  0  0  0  0  0  0
   20.1259   -5.0396  -14.9513 C   0  0  0  0  0  0  0  0  0  0  0  0
   22.3484   -9.8727  -19.3634 N   0  0  0  0  0  0  0  0  0  0  0  0
   22.2561  -11.0669  -20.1438 C   0  0  1  0  0  0  0  0  0  0  0  0
   23.5727  -11.5986  -20.6077 C   0  0  0  0  0  0  0  0  0  0  0  0
   23.3709  -12.7589  -21.5373 C   0  0  0  0  0  0  0  0  0  0  0  0
   24.6640  -13.3776  -21.9809 C   0  0  0  0  0  0  0  0  0  0  0  0
   24.4615  -14.4668  -23.0049 C   0  0  0  0  0  0  0  0  0  0  0  0
   25.7481  -15.1248  -23.2036 N   0  0  0  0  0  0  0  0  0  0  0  0
   21.5149  -12.1521  -19.4061 C   0  0  0  0  0  0  0  0  0  0  0  0
   21.8970  -12.3664  -18.2262 O   0  0  0  0  0  0  0  0  0  0  0  0
   15.8789  -18.2716  -16.8918 O   0  0  0  0  0  0  0  0  0  0  0  0
   16.4983  -17.2799  -17.6271 C   0  0  0  0  0  0  0  0  0  0  0  0
   17.3306  -17.6485  -18.6770 C   0  0  0  0  0  0  0  0  0  0  0  0
   17.9592  -16.6527  -19.4238 C   0  0  0  0  0  0  0  0  0  0  0  0
   17.7862  -15.3126  -19.1600 C   0  0  0  0  0  0  0  0  0  0  0  0
   18.5051  -14.3174  -19.9624 C   0  0  0  0  0  0  0  0  0  0  0  0
   19.7805  -13.9142  -19.2644 C   0  0  2  0  0  0  0  0  0  0  0  0
   20.4598  -12.8662  -20.0310 N   0  0  0  0  0  0  0  0  0  0  0  0
   20.6428  -15.0899  -19.0978 C   0  0  0  0  0  0  0  0  0  0  0  0
   21.2610  -15.5773  -20.0543 O   0  0  0  0  0  0  0  0  0  0  0  0
   16.9597  -14.9668  -18.1177 C   0  0  0  0  0  0  0  0  0  0  0  0
   16.3255  -15.9324  -17.3630 C   0  0  0  0  0  0  0  0  0  0  0  0
   20.7678  -15.6656  -17.8474 O   0  0  0  0  0  0  0  0  0  0  0  0
  2 12  2  0
  2  1  1  0
  3  2  1  0
  4  5  1  0
  4  3  2  0
  5 11  2  0
  6  5  1  0
  7  9  1  0
  7  6  1  0
  7  8  1  6
  9 13  1  0
 10  9  2  0
 11 12  1  0
 13 14  1  0
 14 20  1  0
 14 15  1  1
 16 17  1  0
 16 15  1  0
 18 17  1  0
 19 18  1  0
 20 21  2  0
 20 29  1  0
 23 22  1  0
 23 24  2  0
 24 25  1  0
 26 25  2  0
 27 26  1  0
 28 27  1  6
 28 30  1  0
 29 28  1  0
 30 31  2  0
 30 34  1  0
 32 26  1  0
 33 32  2  0
 33 23  1  0
M  END
$$$$
