YKY.pdb
     RDKit          3D

 34 35  0  0  1  0  0  0  0  0999 V2000
   11.4458  -28.4884   -8.8903 O   0  0  0  0  0  0  0  0  0  0  0  0
   12.4786  -27.7589   -9.4373 C   0  0  0  0  0  0  0  0  0  0  0  0
   12.8622  -28.0129  -10.7312 C   0  0  0  0  0  0  0  0  0  0  0  0
   13.8906  -27.3182  -11.3415 C   0  0  0  0  0  0  0  0  0  0  0  0
   14.5485  -26.3420  -10.6274 C   0  0  0  0  0  0  0  0  0  0  0  0
   15.6612  -25.5652  -11.2359 C   0  0  0  0  0  0  0  0  0  0  0  0
   16.9408  -26.3856  -11.3263 C   0  0  2  0  0  0  0  0  0  0  0  0
   17.4286  -26.6879  -10.0164 N   0  0  0  0  0  0  0  0  0  0  0  0
   17.8982  -25.5820  -12.1304 C   0  0  0  0  0  0  0  0  0  0  0  0
   18.6123  -24.7551  -11.5083 O   0  0  0  0  0  0  0  0  0  0  0  0
   14.1884  -26.0678   -9.3388 C   0  0  0  0  0  0  0  0  0  0  0  0
   13.1471  -26.7816   -8.7423 C   0  0  0  0  0  0  0  0  0  0  0  0
   18.0199  -25.7218  -13.5320 N   0  0  0  0  0  0  0  0  0  0  0  0
   18.9627  -24.9427  -14.2722 C   0  0  1  0  0  0  0  0  0  0  0  0
   19.9714  -25.7509  -15.0209 C   0  0  0  0  0  0  0  0  0  0  0  0
   20.8893  -24.8536  -15.7979 C   0  0  0  0  0  0  0  0  0  0  0  0
   21.9002  -25.6162  -16.6030 C   0  0  0  0  0  0  0  0  0  0  0  0
   23.2680  -24.9809  -16.5633 C   0  0  0  0  0  0  0  0  0  0  0  0
   24.1534  -25.7975  -17.3860 N   0  0  0  0  0  0  0  0  0  0  0  0
   18.2728  -24.0025  -15.2268 C   0  0  0  0  0  0  0  0  0  0  0  0
   17.2704  -24.4732  -15.8248 O   0  0  0  0  0  0  0  0  0  0  0  0
   22.9362  -20.9517  -20.1911 O   0  0  0  0  0  0  0  0  0  0  0  0
   21.8871  -20.8175  -19.3027 C   0  0  0  0  0  0  0  0  0  0  0  0
   22.1180  -21.0648  -17.9550 C   0  0  0  0  0  0  0  0  0  0  0  0
   21.0637  -20.9311  -17.0522 C   0  0  0  0  0  0  0  0  0  0  0  0
   19.7973  -20.5620  -17.4463 C   0  0  0  0  0  0  0  0  0  0  0  0
   18.7249  -20.4741  -16.4497 C   0  0  0  0  0  0  0  0  0  0  0  0
   18.0174  -21.8017  -16.3334 C   0  0  2  0  0  0  0  0  0  0  0  0
   18.7487  -22.6789  -15.4153 N   0  0  0  0  0  0  0  0  0  0  0  0
   17.8954  -22.4120  -17.6624 C   0  0  0  0  0  0  0  0  0  0  0  0
   18.7254  -23.2347  -18.0731 O   0  0  0  0  0  0  0  0  0  0  0  0
   19.5875  -20.3217  -18.7833 C   0  0  0  0  0  0  0  0  0  0  0  0
   20.6135  -20.4466  -19.6975 C   0  0  0  0  0  0  0  0  0  0  0  0
   16.8320  -22.0615  -18.4729 O   0  0  0  0  0  0  0  0  0  0  0  0
  2 12  2  0
  2  1  1  0
  3  2  1  0
  4  5  1  0
  4  3  2  0
  5 11  2  0
  6  5  1  0
  7  9  1  0
  7  6  1  0
  7  8  1  1
  9 13  1  0
 10  9  2  0
 11 12  1  0
 13 14  1  0
 14 20  1  0
 14 15  1  6
 16 17  1  0
 16 15  1  0
 18 17  1  0
 19 18  1  0
 20 21  2  0
 20 29  1  0
 23 22  1  0
 23 24  2  0
 24 25  1  0
 26 25  2  0
 27 26  1  0
 28 27  1  6
 28 30  1  0
 29 28  1  0
 30 31  2  0
 30 34  1  0
 32 26  1  0
 33 32  2  0
 33 23  1  0
M  END
$$$$
