YKY.pdb
     RDKit          3D

 34 35  0  0  1  0  0  0  0  0999 V2000
   25.1521  -12.5998  -22.9770 O   0  0  0  0  0  0  0  0  0  0  0  0
   24.5615  -11.7966  -22.0261 C   0  0  0  0  0  0  0  0  0  0  0  0
   24.1069  -12.3655  -20.8619 C   0  0  0  0  0  0  0  0  0  0  0  0
   23.5046  -11.6181  -19.8663 C   0  0  0  0  0  0  0  0  0  0  0  0
   23.3575  -10.2615  -20.0506 C   0  0  0  0  0  0  0  0  0  0  0  0
   22.7171   -9.4114  -19.0120 C   0  0  0  0  0  0  0  0  0  0  0  0
   21.1978   -9.4506  -19.1063 C   0  0  2  0  0  0  0  0  0  0  0  0
   20.7626   -8.8573  -20.3326 N   0  0  0  0  0  0  0  0  0  0  0  0
   20.6846   -8.7420  -17.9050 C   0  0  0  0  0  0  0  0  0  0  0  0
   20.5819   -7.4913  -17.9809 O   0  0  0  0  0  0  0  0  0  0  0  0
   23.8003   -9.6686  -21.1986 C   0  0  0  0  0  0  0  0  0  0  0  0
   24.4054  -10.4425  -22.1908 C   0  0  0  0  0  0  0  0  0  0  0  0
   20.3216   -9.4198  -16.7186 N   0  0  0  0  0  0  0  0  0  0  0  0
   19.7699   -8.7137  -15.6046 C   0  0  1  0  0  0  0  0  0  0  0  0
   18.9880   -9.5702  -14.6631 C   0  0  0  0  0  0  0  0  0  0  0  0
   17.7566  -10.1001  -15.3368 C   0  0  0  0  0  0  0  0  0  0  0  0
   16.9265  -10.9623  -14.4316 C   0  0  0  0  0  0  0  0  0  0  0  0
   15.7114  -11.5260  -15.1257 C   0  0  0  0  0  0  0  0  0  0  0  0
   14.9662  -12.3024  -14.1410 N   0  0  0  0  0  0  0  0  0  0  0  0
   20.8360   -7.9765  -14.8358 C   0  0  0  0  0  0  0  0  0  0  0  0
   21.9105   -8.6065  -14.6554 O   0  0  0  0  0  0  0  0  0  0  0  0
   21.1736   -1.7581  -18.4262 O   0  0  0  0  0  0  0  0  0  0  0  0
   21.5956   -2.7000  -17.5083 C   0  0  0  0  0  0  0  0  0  0  0  0
   21.4299   -4.0463  -17.8093 C   0  0  0  0  0  0  0  0  0  0  0  0
   21.8538   -5.0030  -16.8874 C   0  0  0  0  0  0  0  0  0  0  0  0
   22.4326   -4.6635  -15.6853 C   0  0  0  0  0  0  0  0  0  0  0  0
   22.8238   -5.7192  -14.7456 C   0  0  0  0  0  0  0  0  0  0  0  0
   21.7263   -5.9445  -13.7350 C   0  0  2  0  0  0  0  0  0  0  0  0
   20.6100   -6.6586  -14.3606 N   0  0  0  0  0  0  0  0  0  0  0  0
   21.2885   -4.6547  -13.1888 C   0  0  0  0  0  0  0  0  0  0  0  0
   22.0635   -3.9269  -12.5531 O   0  0  0  0  0  0  0  0  0  0  0  0
   22.5882   -3.3270  -15.4045 C   0  0  0  0  0  0  0  0  0  0  0  0
   22.1775   -2.3602  -16.2994 C   0  0  0  0  0  0  0  0  0  0  0  0
   19.9840   -4.2434  -13.3877 O   0  0  0  0  0  0  0  0  0  0  0  0
  2 12  2  0
  2  1  1  0
  3  2  1  0
  4  5  1  0
  4  3  2  0
  5 11  2  0
  6  5  1  0
  7  9  1  0
  7  6  1  0
  7  8  1  6
  9 13  1  0
 10  9  2  0
 11 12  1  0
 13 14  1  0
 14 20  1  0
 14 15  1  1
 16 17  1  0
 16 15  1  0
 18 17  1  0
 19 18  1  0
 20 21  2  0
 20 29  1  0
 23 22  1  0
 23 24  2  0
 24 25  1  0
 26 25  2  0
 27 26  1  0
 28 27  1  6
 28 30  1  0
 29 28  1  0
 30 31  2  0
 30 34  1  0
 32 26  1  0
 33 32  2  0
 33 23  1  0
M  END
$$$$
