YKY.pdb
     RDKit          3D

 34 35  0  0  1  0  0  0  0  0999 V2000
   28.6288  -15.8571  -16.5717 O   0  0  0  0  0  0  0  0  0  0  0  0
   28.1419  -14.5694  -16.6263 C   0  0  0  0  0  0  0  0  0  0  0  0
   28.6748  -13.6191  -15.7903 C   0  0  0  0  0  0  0  0  0  0  0  0
   28.2330  -12.3085  -15.7931 C   0  0  0  0  0  0  0  0  0  0  0  0
   27.2275  -11.9481  -16.6620 C   0  0  0  0  0  0  0  0  0  0  0  0
   26.7155  -10.5525  -16.7058 C   0  0  0  0  0  0  0  0  0  0  0  0
   27.0021   -9.8864  -18.0447 C   0  0  2  0  0  0  0  0  0  0  0  0
   28.3831   -9.5257  -18.1326 N   0  0  0  0  0  0  0  0  0  0  0  0
   26.0902   -8.7162  -18.1346 C   0  0  0  0  0  0  0  0  0  0  0  0
   26.5093   -7.6288  -17.6628 O   0  0  0  0  0  0  0  0  0  0  0  0
   26.6789  -12.8721  -17.5048 C   0  0  0  0  0  0  0  0  0  0  0  0
   27.1402  -14.1899  -17.4852 C   0  0  0  0  0  0  0  0  0  0  0  0
   24.8053   -8.7956  -18.7190 N   0  0  0  0  0  0  0  0  0  0  0  0
   24.0103   -7.6238  -18.9156 C   0  0  1  0  0  0  0  0  0  0  0  0
   23.2370   -7.6158  -20.1935 C   0  0  0  0  0  0  0  0  0  0  0  0
   24.1683   -7.5732  -21.3692 C   0  0  0  0  0  0  0  0  0  0  0  0
   23.4428   -7.5467  -22.6824 C   0  0  0  0  0  0  0  0  0  0  0  0
   24.3831   -7.5674  -23.8619 C   0  0  0  0  0  0  0  0  0  0  0  0
   25.2769   -8.7071  -23.6886 N   0  0  0  0  0  0  0  0  0  0  0  0
   23.0662   -7.3978  -17.7629 C   0  0  0  0  0  0  0  0  0  0  0  0
   22.6108   -8.4383  -17.2207 O   0  0  0  0  0  0  0  0  0  0  0  0
   22.5460    0.1918  -14.8783 O   0  0  0  0  0  0  0  0  0  0  0  0
   22.5214   -1.1893  -14.8807 C   0  0  0  0  0  0  0  0  0  0  0  0
   23.5527   -1.8741  -15.5117 C   0  0  0  0  0  0  0  0  0  0  0  0
   23.5346   -3.2684  -15.5180 C   0  0  0  0  0  0  0  0  0  0  0  0
   22.5299   -3.9959  -14.9207 C   0  0  0  0  0  0  0  0  0  0  0  0
   22.5534   -5.4604  -14.9946 C   0  0  0  0  0  0  0  0  0  0  0  0
   21.8056   -5.9282  -16.2188 C   0  0  2  0  0  0  0  0  0  0  0  0
   22.7337   -6.0840  -17.3420 N   0  0  0  0  0  0  0  0  0  0  0  0
   20.7421   -4.9699  -16.5414 C   0  0  0  0  0  0  0  0  0  0  0  0
   20.8007   -4.2576  -17.5533 O   0  0  0  0  0  0  0  0  0  0  0  0
   21.5180   -3.3016  -14.3016 C   0  0  0  0  0  0  0  0  0  0  0  0
   21.5120   -1.9218  -14.2808 C   0  0  0  0  0  0  0  0  0  0  0  0
   19.6521   -4.8595  -15.6987 O   0  0  0  0  0  0  0  0  0  0  0  0
  2 12  2  0
  2  1  1  0
  3  2  1  0
  4  5  1  0
  4  3  2  0
  5 11  2  0
  6  5  1  0
  7  9  1  0
  7  6  1  0
  7  8  1  1
  9 13  1  0
 10  9  2  0
 11 12  1  0
 13 14  1  0
 14 20  1  0
 14 15  1  6
 16 17  1  0
 16 15  1  0
 18 17  1  0
 19 18  1  0
 20 21  2  0
 20 29  1  0
 23 22  1  0
 23 24  2  0
 24 25  1  0
 26 25  2  0
 27 26  1  0
 28 27  1  1
 28 30  1  0
 29 28  1  0
 30 31  2  0
 30 34  1  0
 32 26  1  0
 33 32  2  0
 33 23  1  0
M  END
$$$$
