YKY.pdb
     RDKit          3D

 34 35  0  0  1  0  0  0  0  0999 V2000
   32.6871  -22.4602  -11.0042 O   0  0  0  0  0  0  0  0  0  0  0  0
   31.4514  -21.9080  -11.2617 C   0  0  0  0  0  0  0  0  0  0  0  0
   30.7120  -22.3896  -12.3139 C   0  0  0  0  0  0  0  0  0  0  0  0
   29.4649  -21.8811  -12.6280 C   0  0  0  0  0  0  0  0  0  0  0  0
   28.9509  -20.8602  -11.8602 C   0  0  0  0  0  0  0  0  0  0  0  0
   27.6147  -20.2773  -12.1544 C   0  0  0  0  0  0  0  0  0  0  0  0
   26.8069  -21.1604  -13.0958 C   0  0  2  0  0  0  0  0  0  0  0  0
   27.5195  -21.3616  -14.3193 N   0  0  0  0  0  0  0  0  0  0  0  0
   25.5001  -20.4800  -13.2910 C   0  0  0  0  0  0  0  0  0  0  0  0
   24.9294  -20.0351  -12.2629 O   0  0  0  0  0  0  0  0  0  0  0  0
   29.6640  -20.3615  -10.8075 C   0  0  0  0  0  0  0  0  0  0  0  0
   30.9213  -20.8899  -10.5083 C   0  0  0  0  0  0  0  0  0  0  0  0
   24.9042  -20.3271  -14.5639 N   0  0  0  0  0  0  0  0  0  0  0  0
   23.6320  -19.6918  -14.7117 C   0  0  1  0  0  0  0  0  0  0  0  0
   23.2895  -19.3269  -16.1190 C   0  0  0  0  0  0  0  0  0  0  0  0
   23.9133  -18.0126  -16.4860 C   0  0  0  0  0  0  0  0  0  0  0  0
   25.0500  -18.1610  -17.4543 C   0  0  0  0  0  0  0  0  0  0  0  0
   25.6901  -16.8394  -17.8001 C   0  0  0  0  0  0  0  0  0  0  0  0
   26.7809  -17.1117  -18.7294 N   0  0  0  0  0  0  0  0  0  0  0  0
   22.5242  -20.5346  -14.1340 C   0  0  0  0  0  0  0  0  0  0  0  0
   22.5189  -21.7426  -14.4872 O   0  0  0  0  0  0  0  0  0  0  0  0
   15.5556  -23.4334   -9.7922 O   0  0  0  0  0  0  0  0  0  0  0  0
   16.6439  -22.6782  -10.1840 C   0  0  0  0  0  0  0  0  0  0  0  0
   16.4192  -21.4732  -10.8383 C   0  0  0  0  0  0  0  0  0  0  0  0
   17.5130  -20.7054  -11.2367 C   0  0  0  0  0  0  0  0  0  0  0  0
   18.8125  -21.0969  -11.0058 C   0  0  0  0  0  0  0  0  0  0  0  0
   19.9174  -20.2588  -11.4825 C   0  0  0  0  0  0  0  0  0  0  0  0
   20.4865  -20.8299  -12.7579 C   0  0  2  0  0  0  0  0  0  0  0  0
   21.5660  -19.9709  -13.2520 N   0  0  0  0  0  0  0  0  0  0  0  0
   19.4190  -20.9635  -13.7560 C   0  0  0  0  0  0  0  0  0  0  0  0
   18.8607  -22.0500  -13.9620 O   0  0  0  0  0  0  0  0  0  0  0  0
   19.0154  -22.2919  -10.3576 C   0  0  0  0  0  0  0  0  0  0  0  0
   17.9507  -23.0707   -9.9527 C   0  0  0  0  0  0  0  0  0  0  0  0
   19.0283  -19.8539  -14.4817 O   0  0  0  0  0  0  0  0  0  0  0  0
  2 12  2  0
  2  1  1  0
  3  2  1  0
  4  5  1  0
  4  3  2  0
  5 11  2  0
  6  5  1  0
  7  9  1  0
  7  6  1  0
  7  8  1  6
  9 13  1  0
 10  9  2  0
 11 12  1  0
 13 14  1  0
 14 20  1  0
 14 15  1  6
 16 17  1  0
 16 15  1  0
 18 17  1  0
 19 18  1  0
 20 21  2  0
 20 29  1  0
 23 22  1  0
 23 24  2  0
 24 25  1  0
 26 25  2  0
 27 26  1  0
 28 27  1  1
 28 30  1  0
 29 28  1  0
 30 31  2  0
 30 34  1  0
 32 26  1  0
 33 32  2  0
 33 23  1  0
M  END
$$$$
