FWI.pdb
     RDKit          3D

 34 36  0  0  1  0  0  0  0  0999 V2000
   26.0350  -21.6157  -12.8869 N   0  0  0  0  0  0  0  0  0  0  0  0
   25.1591  -20.7411  -12.1482 C   0  0  1  0  0  0  0  0  0  0  0  0
   23.7553  -20.9536  -12.7266 C   0  0  0  0  0  0  0  0  0  0  0  0
   23.6562  -20.2805  -14.0273 C   0  0  0  0  0  0  0  0  0  0  0  0
   23.7641  -21.0280  -15.1801 C   0  0  0  0  0  0  0  0  0  0  0  0
   23.6658  -20.3589  -16.4025 C   0  0  0  0  0  0  0  0  0  0  0  0
   23.4661  -18.9867  -16.4082 C   0  0  0  0  0  0  0  0  0  0  0  0
   23.3581  -18.2387  -15.2578 C   0  0  0  0  0  0  0  0  0  0  0  0
   23.4576  -18.9158  -14.0413 C   0  0  0  0  0  0  0  0  0  0  0  0
   25.0987  -21.2013  -10.7435 C   0  0  0  0  0  0  0  0  0  0  0  0
   25.1112  -22.4279  -10.5073 O   0  0  0  0  0  0  0  0  0  0  0  0
   25.0284  -20.2539   -9.6983 N   0  0  0  0  0  0  0  0  0  0  0  0
   25.0437  -20.6357   -8.2627 C   0  0  1  0  0  0  0  0  0  0  0  0
   25.7337  -19.5716   -7.4781 C   0  0  0  0  0  0  0  0  0  0  0  0
   27.1606  -19.8391   -7.2849 C   0  0  0  0  0  0  0  0  0  0  0  0
   28.0559  -20.2009   -8.2686 C   0  0  0  0  0  0  0  0  0  0  0  0
   29.2345  -20.3778   -7.6607 N   0  0  0  0  0  0  0  0  0  0  0  0
   29.1232  -20.1408   -6.3173 C   0  0  0  0  0  0  0  0  0  0  0  0
   30.0423  -20.1937   -5.2924 C   0  0  0  0  0  0  0  0  0  0  0  0
   29.6630  -19.9060   -4.0100 C   0  0  0  0  0  0  0  0  0  0  0  0
   28.3549  -19.5625   -3.7468 C   0  0  0  0  0  0  0  0  0  0  0  0
   27.4310  -19.5088   -4.7730 C   0  0  0  0  0  0  0  0  0  0  0  0
   27.8164  -19.7982   -6.0593 C   0  0  0  0  0  0  0  0  0  0  0  0
   23.6639  -20.8462   -7.8366 C   0  0  0  0  0  0  0  0  0  0  0  0
   22.8026  -19.9524   -8.1685 O   0  0  0  0  0  0  0  0  0  0  0  0
   19.0067  -24.5916   -7.4262 C   0  0  0  0  0  0  0  0  0  0  0  0
   19.6666  -23.2935   -6.9712 C   0  0  0  0  0  0  0  0  0  0  0  0
   21.1345  -23.3031   -7.1998 C   0  0  2  0  0  0  0  0  0  0  0  0
   21.8380  -24.4549   -6.5247 C   0  0  0  0  0  0  0  0  0  0  0  0
   21.7152  -21.9655   -6.7620 C   0  0  2  0  0  0  0  0  0  0  0  0
   23.1394  -21.9342   -7.0961 N   0  0  0  0  0  0  0  0  0  0  0  0
   21.4863  -21.6314   -5.3651 C   0  0  0  0  0  0  0  0  0  0  0  0
   20.2433  -21.1884   -4.8700 O   0  0  0  0  0  0  0  0  0  0  0  0
   22.3732  -21.7000   -4.4461 O   0  0  0  0  0  0  0  0  0  0  0  0
  2  1  1  6
  3  2  1  0
  4  3  1  0
  4  5  2  0
  6  5  1  0
  7  6  2  0
  8  9  2  0
  8  7  1  0
  9  4  1  0
 10  2  1  0
 11 10  2  0
 12 10  1  0
 13 12  1  0
 13 14  1  1
 15 23  1  0
 15 14  1  0
 16 15  2  0
 17 16  1  0
 17 18  1  0
 18 23  2  0
 19 18  1  0
 19 20  2  0
 20 21  1  0
 21 22  2  0
 23 22  1  0
 24 25  2  0
 24 13  1  0
 26 27  1  0
 27 28  1  0
 28 30  1  0
 28 29  1  1
 30 31  1  1
 31 24  1  0
 32 30  1  0
 33 32  1  0
 34 32  2  0
M  END
$$$$
