FWI.pdb
     RDKit          3D

 34 36  0  0  1  0  0  0  0  0999 V2000
   27.3115  -17.5876  -17.3323 N   0  0  0  0  0  0  0  0  0  0  0  0
   27.7122  -18.6358  -16.4275 C   0  0  1  0  0  0  0  0  0  0  0  0
   29.0935  -18.2365  -15.8954 C   0  0  0  0  0  0  0  0  0  0  0  0
   30.0896  -18.3853  -16.9632 C   0  0  0  0  0  0  0  0  0  0  0  0
   30.7343  -17.2648  -17.4408 C   0  0  0  0  0  0  0  0  0  0  0  0
   31.6770  -17.4385  -18.4571 C   0  0  0  0  0  0  0  0  0  0  0  0
   31.9239  -18.7149  -18.9394 C   0  0  0  0  0  0  0  0  0  0  0  0
   31.2809  -19.8350  -18.4634 C   0  0  0  0  0  0  0  0  0  0  0  0
   30.3409  -19.6516  -17.4481 C   0  0  0  0  0  0  0  0  0  0  0  0
   26.8046  -18.6307  -15.2593 C   0  0  0  0  0  0  0  0  0  0  0  0
   26.6989  -17.5881  -14.5793 O   0  0  0  0  0  0  0  0  0  0  0  0
   26.0765  -19.7962  -14.9327 N   0  0  0  0  0  0  0  0  0  0  0  0
   25.0252  -19.8215  -13.8834 C   0  0  1  0  0  0  0  0  0  0  0  0
   23.7896  -20.4438  -14.4402 C   0  0  0  0  0  0  0  0  0  0  0  0
   22.6947  -20.5070  -13.4695 C   0  0  0  0  0  0  0  0  0  0  0  0
   22.1890  -19.4451  -12.7509 C   0  0  0  0  0  0  0  0  0  0  0  0
   21.2291  -19.9441  -11.9638 N   0  0  0  0  0  0  0  0  0  0  0  0
   21.1033  -21.2935  -12.1551 C   0  0  0  0  0  0  0  0  0  0  0  0
   20.2703  -22.2317  -11.5861 C   0  0  0  0  0  0  0  0  0  0  0  0
   20.3517  -23.5447  -11.9614 C   0  0  0  0  0  0  0  0  0  0  0  0
   21.2724  -23.9258  -12.9129 C   0  0  0  0  0  0  0  0  0  0  0  0
   22.1091  -22.9866  -13.4853 C   0  0  0  0  0  0  0  0  0  0  0  0
   22.0236  -21.6693  -13.1056 C   0  0  0  0  0  0  0  0  0  0  0  0
   25.5531  -20.5469  -12.7325 C   0  0  0  0  0  0  0  0  0  0  0  0
   26.0755  -21.6999  -12.9526 O   0  0  0  0  0  0  0  0  0  0  0  0
   28.0221  -19.1495   -7.8817 C   0  0  0  0  0  0  0  0  0  0  0  0
   26.8707  -19.4715   -8.8295 C   0  0  0  0  0  0  0  0  0  0  0  0
   27.1079  -20.7248   -9.5911 C   0  0  2  0  0  0  0  0  0  0  0  0
   28.2785  -20.6366  -10.5393 C   0  0  0  0  0  0  0  0  0  0  0  0
   25.8300  -21.1124  -10.3224 C   0  0  2  0  0  0  0  0  0  0  0  0
   25.5713  -20.1326  -11.3778 N   0  0  0  0  0  0  0  0  0  0  0  0
   24.6696  -21.2930   -9.4643 C   0  0  0  0  0  0  0  0  0  0  0  0
   23.4831  -20.5448   -9.6014 O   0  0  0  0  0  0  0  0  0  0  0  0
   24.5985  -22.1359   -8.5051 O   0  0  0  0  0  0  0  0  0  0  0  0
  2  1  1  6
  3  2  1  0
  4  3  1  0
  4  5  2  0
  6  5  1  0
  7  6  2  0
  8  9  2  0
  8  7  1  0
  9  4  1  0
 10  2  1  0
 11 10  2  0
 12 10  1  0
 13 12  1  0
 13 14  1  6
 15 23  1  0
 15 14  1  0
 16 15  2  0
 17 16  1  0
 17 18  1  0
 18 23  2  0
 19 18  1  0
 19 20  2  0
 20 21  1  0
 21 22  2  0
 23 22  1  0
 24 25  2  0
 24 13  1  0
 26 27  1  0
 27 28  1  0
 28 30  1  0
 28 29  1  6
 30 31  1  6
 31 24  1  0
 32 30  1  0
 33 32  1  0
 34 32  2  0
M  END
$$$$
