FWI.pdb
     RDKit          3D

 34 36  0  0  1  0  0  0  0  0999 V2000
   29.6120  -20.5100  -12.9343 N   0  0  0  0  0  0  0  0  0  0  0  0
   28.4642  -19.7383  -12.5281 C   0  0  1  0  0  0  0  0  0  0  0  0
   27.6297  -19.5141  -13.7944 C   0  0  0  0  0  0  0  0  0  0  0  0
   28.1744  -18.3748  -14.5426 C   0  0  0  0  0  0  0  0  0  0  0  0
   27.9632  -17.0978  -14.0692 C   0  0  0  0  0  0  0  0  0  0  0  0
   28.4940  -16.0343  -14.8032 C   0  0  0  0  0  0  0  0  0  0  0  0
   29.2033  -16.3014  -15.9644 C   0  0  0  0  0  0  0  0  0  0  0  0
   29.4151  -17.5762  -16.4385 C   0  0  0  0  0  0  0  0  0  0  0  0
   28.8811  -18.6323  -15.6985 C   0  0  0  0  0  0  0  0  0  0  0  0
   27.6297  -20.5625  -11.6265 C   0  0  0  0  0  0  0  0  0  0  0  0
   27.7423  -21.8060  -11.6656 O   0  0  0  0  0  0  0  0  0  0  0  0
   26.7248  -19.9356  -10.7415 N   0  0  0  0  0  0  0  0  0  0  0  0
   25.6792  -20.6826   -9.9961 C   0  0  1  0  0  0  0  0  0  0  0  0
   25.3555  -19.9513   -8.7373 C   0  0  0  0  0  0  0  0  0  0  0  0
   26.5457  -19.5947   -7.9619 C   0  0  0  0  0  0  0  0  0  0  0  0
   27.3831  -18.5284   -8.2106 C   0  0  0  0  0  0  0  0  0  0  0  0
   28.3543  -18.5883   -7.2924 N   0  0  0  0  0  0  0  0  0  0  0  0
   28.1660  -19.6601   -6.4622 C   0  0  0  0  0  0  0  0  0  0  0  0
   28.8866  -20.1309   -5.3866 C   0  0  0  0  0  0  0  0  0  0  0  0
   28.4734  -21.2492   -4.7157 C   0  0  0  0  0  0  0  0  0  0  0  0
   27.3311  -21.9043   -5.1212 C   0  0  0  0  0  0  0  0  0  0  0  0
   26.6066  -21.4340   -6.1998 C   0  0  0  0  0  0  0  0  0  0  0  0
   27.0250  -20.3106   -6.8703 C   0  0  0  0  0  0  0  0  0  0  0  0
   24.5227  -20.8367  -10.8726 C   0  0  0  0  0  0  0  0  0  0  0  0
   24.2346  -19.8516  -11.6456 O   0  0  0  0  0  0  0  0  0  0  0  0
   24.1366  -24.7175  -14.1673 C   0  0  0  0  0  0  0  0  0  0  0  0
   23.9916  -23.4009  -13.4101 C   0  0  0  0  0  0  0  0  0  0  0  0
   22.6573  -23.2684  -12.7705 C   0  0  2  0  0  0  0  0  0  0  0  0
   21.5119  -23.3777  -13.7469 C   0  0  0  0  0  0  0  0  0  0  0  0
   22.6037  -21.9577  -11.9977 C   0  0  2  0  0  0  0  0  0  0  0  0
   23.6639  -21.9574  -10.9894 N   0  0  0  0  0  0  0  0  0  0  0  0
   21.3085  -21.6502  -11.4117 C   0  0  0  0  0  0  0  0  0  0  0  0
   20.2725  -21.0085  -12.1198 O   0  0  0  0  0  0  0  0  0  0  0  0
   20.9717  -21.9220  -10.2082 O   0  0  0  0  0  0  0  0  0  0  0  0
  2  1  1  6
  3  2  1  0
  4  3  1  0
  4  5  2  0
  6  5  1  0
  7  6  2  0
  8  9  2  0
  8  7  1  0
  9  4  1  0
 10  2  1  0
 11 10  2  0
 12 10  1  0
 13 12  1  0
 13 14  1  1
 15 23  1  0
 15 14  1  0
 16 15  2  0
 17 16  1  0
 17 18  1  0
 18 23  2  0
 19 18  1  0
 19 20  2  0
 20 21  1  0
 21 22  2  0
 23 22  1  0
 24 25  2  0
 24 13  1  0
 26 27  1  0
 27 28  1  0
 28 30  1  0
 28 29  1  6
 30 31  1  1
 31 24  1  0
 32 30  1  0
 33 32  1  0
 34 32  2  0
M  END
$$$$
