FWI.pdb
     RDKit          3D

 34 36  0  0  1  0  0  0  0  0999 V2000
   28.1611  -22.3128  -17.9687 N   0  0  0  0  0  0  0  0  0  0  0  0
   28.1477  -22.5889  -16.5540 C   0  0  1  0  0  0  0  0  0  0  0  0
   29.5652  -22.2972  -16.0479 C   0  0  0  0  0  0  0  0  0  0  0  0
   30.4637  -23.3822  -16.4603 C   0  0  0  0  0  0  0  0  0  0  0  0
   31.3593  -23.1598  -17.4839 C   0  0  0  0  0  0  0  0  0  0  0  0
   32.2010  -24.2116  -17.8537 C   0  0  0  0  0  0  0  0  0  0  0  0
   32.1038  -25.4226  -17.1852 C   0  0  0  0  0  0  0  0  0  0  0  0
   31.2099  -25.6463  -16.1627 C   0  0  0  0  0  0  0  0  0  0  0  0
   30.3731  -24.5897  -15.8002 C   0  0  0  0  0  0  0  0  0  0  0  0
   27.2629  -21.6102  -15.8850 C   0  0  0  0  0  0  0  0  0  0  0  0
   27.2014  -20.4453  -16.3319 O   0  0  0  0  0  0  0  0  0  0  0  0
   26.5065  -22.0045  -14.7592 N   0  0  0  0  0  0  0  0  0  0  0  0
   25.4846  -21.1297  -14.1288 C   0  0  1  0  0  0  0  0  0  0  0  0
   24.1545  -21.4048  -14.7447 C   0  0  0  0  0  0  0  0  0  0  0  0
   23.0791  -20.5965  -14.1659 C   0  0  0  0  0  0  0  0  0  0  0  0
   22.1718  -21.0178  -13.2176 C   0  0  0  0  0  0  0  0  0  0  0  0
   21.3507  -19.9852  -12.9950 N   0  0  0  0  0  0  0  0  0  0  0  0
   21.7029  -18.9144  -13.7712 C   0  0  0  0  0  0  0  0  0  0  0  0
   21.1694  -17.6503  -13.8952 C   0  0  0  0  0  0  0  0  0  0  0  0
   21.7222  -16.7504  -14.7647 C   0  0  0  0  0  0  0  0  0  0  0  0
   22.8173  -17.1144  -15.5176 C   0  0  0  0  0  0  0  0  0  0  0  0
   23.3543  -18.3817  -15.3950 C   0  0  0  0  0  0  0  0  0  0  0  0
   22.7961  -19.2820  -14.5205 C   0  0  0  0  0  0  0  0  0  0  0  0
   25.5028  -21.3775  -12.6909 C   0  0  0  0  0  0  0  0  0  0  0  0
   25.3977  -22.5977  -12.3025 O   0  0  0  0  0  0  0  0  0  0  0  0
   28.8160  -19.5539   -9.0008 C   0  0  0  0  0  0  0  0  0  0  0  0
   27.7951  -20.3993   -9.7563 C   0  0  0  0  0  0  0  0  0  0  0  0
   26.3995  -20.0674   -9.3700 C   0  0  2  0  0  0  0  0  0  0  0  0
   26.1106  -20.3041   -7.9079 C   0  0  0  0  0  0  0  0  0  0  0  0
   25.4386  -20.8458  -10.2581 C   0  0  2  0  0  0  0  0  0  0  0  0
   25.6318  -20.4282  -11.6470 N   0  0  0  0  0  0  0  0  0  0  0  0
   24.0413  -20.7600   -9.8635 C   0  0  0  0  0  0  0  0  0  0  0  0
   23.4053  -21.7251   -9.0570 O   0  0  0  0  0  0  0  0  0  0  0  0
   23.2472  -19.8157  -10.2000 O   0  0  0  0  0  0  0  0  0  0  0  0
  2  1  1  6
  3  2  1  0
  4  3  1  0
  4  5  2  0
  6  5  1  0
  7  6  2  0
  8  9  2  0
  8  7  1  0
  9  4  1  0
 10  2  1  0
 11 10  2  0
 12 10  1  0
 13 12  1  0
 13 14  1  6
 15 23  1  0
 15 14  1  0
 16 15  2  0
 17 16  1  0
 17 18  1  0
 18 23  2  0
 19 18  1  0
 19 20  2  0
 20 21  1  0
 21 22  2  0
 23 22  1  0
 24 25  2  0
 24 13  1  0
 26 27  1  0
 27 28  1  0
 28 30  1  0
 28 29  1  1
 30 31  1  6
 31 24  1  0
 32 30  1  0
 33 32  1  0
 34 32  2  0
M  END
$$$$
