FWI.pdb
     RDKit          3D

 34 36  0  0  1  0  0  0  0  0999 V2000
   27.7586  -20.3163  -14.4741 N   0  0  0  0  0  0  0  0  0  0  0  0
   28.3223  -20.8343  -13.2527 C   0  0  1  0  0  0  0  0  0  0  0  0
   29.7245  -20.2255  -13.1370 C   0  0  0  0  0  0  0  0  0  0  0  0
   30.4758  -20.9262  -12.0885 C   0  0  0  0  0  0  0  0  0  0  0  0
   31.0380  -22.1524  -12.3707 C   0  0  0  0  0  0  0  0  0  0  0  0
   31.7469  -22.7945  -11.3525 C   0  0  0  0  0  0  0  0  0  0  0  0
   31.8558  -22.1810  -10.1137 C   0  0  0  0  0  0  0  0  0  0  0  0
   31.2950  -20.9563   -9.8302 C   0  0  0  0  0  0  0  0  0  0  0  0
   30.5887  -20.3225  -10.8537 C   0  0  0  0  0  0  0  0  0  0  0  0
   27.5488  -20.3052  -12.1081 C   0  0  0  0  0  0  0  0  0  0  0  0
   27.3468  -19.0749  -12.0309 O   0  0  0  0  0  0  0  0  0  0  0  0
   27.0539  -21.1926  -11.1268 N   0  0  0  0  0  0  0  0  0  0  0  0
   26.1586  -20.7564  -10.0246 C   0  0  1  0  0  0  0  0  0  0  0  0
   24.8551  -21.4722  -10.1374 C   0  0  0  0  0  0  0  0  0  0  0  0
   23.9840  -20.9125  -11.1732 C   0  0  0  0  0  0  0  0  0  0  0  0
   24.1709  -21.0250  -12.5343 C   0  0  0  0  0  0  0  0  0  0  0  0
   23.1721  -20.3465  -13.1104 N   0  0  0  0  0  0  0  0  0  0  0  0
   22.3501  -19.8020  -12.1611 C   0  0  0  0  0  0  0  0  0  0  0  0
   21.2116  -19.0324  -12.2589 C   0  0  0  0  0  0  0  0  0  0  0  0
   20.5671  -18.6073  -11.1297 C   0  0  0  0  0  0  0  0  0  0  0  0
   21.0625  -18.9526   -9.8912 C   0  0  0  0  0  0  0  0  0  0  0  0
   22.2042  -19.7245   -9.7904 C   0  0  0  0  0  0  0  0  0  0  0  0
   22.8479  -20.1494  -10.9269 C   0  0  0  0  0  0  0  0  0  0  0  0
   26.8384  -21.0179   -8.7601 C   0  0  0  0  0  0  0  0  0  0  0  0
   27.4034  -22.1635   -8.6215 O   0  0  0  0  0  0  0  0  0  0  0  0
   29.8460  -17.7691   -5.6831 C   0  0  0  0  0  0  0  0  0  0  0  0
   29.2083  -18.9703   -6.3744 C   0  0  0  0  0  0  0  0  0  0  0  0
   28.0911  -19.5436   -5.5805 C   0  0  2  0  0  0  0  0  0  0  0  0
   28.5075  -19.9997   -4.2036 C   0  0  0  0  0  0  0  0  0  0  0  0
   27.4499  -20.6769   -6.3695 C   0  0  2  0  0  0  0  0  0  0  0  0
   26.9652  -20.1516   -7.6462 N   0  0  0  0  0  0  0  0  0  0  0  0
   26.4070  -21.3989   -5.6578 C   0  0  0  0  0  0  0  0  0  0  0  0
   26.6702  -22.2996   -4.6063 O   0  0  0  0  0  0  0  0  0  0  0  0
   25.1559  -21.2995   -5.9040 O   0  0  0  0  0  0  0  0  0  0  0  0
  2  1  1  6
  3  2  1  0
  4  3  1  0
  4  5  2  0
  6  5  1  0
  7  6  2  0
  8  9  2  0
  8  7  1  0
  9  4  1  0
 10  2  1  0
 11 10  2  0
 12 10  1  0
 13 12  1  0
 13 14  1  1
 15 23  1  0
 15 14  1  0
 16 15  2  0
 17 16  1  0
 17 18  1  0
 18 23  2  0
 19 18  1  0
 19 20  2  0
 20 21  1  0
 21 22  2  0
 23 22  1  0
 24 25  2  0
 24 13  1  0
 26 27  1  0
 27 28  1  0
 28 30  1  0
 28 29  1  1
 30 31  1  6
 31 24  1  0
 32 30  1  0
 33 32  1  0
 34 32  2  0
M  END
$$$$
