FWI.pdb
     RDKit          3D

 34 36  0  0  1  0  0  0  0  0999 V2000
   27.6877  -21.6266  -14.5446 N   0  0  0  0  0  0  0  0  0  0  0  0
   27.6881  -20.4893  -13.6589 C   0  0  1  0  0  0  0  0  0  0  0  0
   26.7067  -19.4775  -14.2617 C   0  0  0  0  0  0  0  0  0  0  0  0
   27.3446  -18.7927  -15.3925 C   0  0  0  0  0  0  0  0  0  0  0  0
   28.3937  -17.9323  -15.1512 C   0  0  0  0  0  0  0  0  0  0  0  0
   28.9801  -17.2956  -16.2477 C   0  0  0  0  0  0  0  0  0  0  0  0
   28.4900  -17.5508  -17.5195 C   0  0  0  0  0  0  0  0  0  0  0  0
   27.4423  -18.4098  -17.7622 C   0  0  0  0  0  0  0  0  0  0  0  0
   26.8628  -19.0413  -16.6606 C   0  0  0  0  0  0  0  0  0  0  0  0
   27.1118  -20.8965  -12.3588 C   0  0  0  0  0  0  0  0  0  0  0  0
   26.2092  -21.7599  -12.3405 O   0  0  0  0  0  0  0  0  0  0  0  0
   27.5872  -20.3073  -11.1663 N   0  0  0  0  0  0  0  0  0  0  0  0
   26.9885  -20.5865   -9.8357 C   0  0  1  0  0  0  0  0  0  0  0  0
   27.7876  -19.8965   -8.7824 C   0  0  0  0  0  0  0  0  0  0  0  0
   27.5427  -20.4280   -7.4398 C   0  0  0  0  0  0  0  0  0  0  0  0
   27.0541  -21.6824   -7.1435 C   0  0  0  0  0  0  0  0  0  0  0  0
   26.9533  -21.7438   -5.8109 N   0  0  0  0  0  0  0  0  0  0  0  0
   27.3619  -20.5675   -5.2428 C   0  0  0  0  0  0  0  0  0  0  0  0
   27.4387  -20.1551   -3.9306 C   0  0  0  0  0  0  0  0  0  0  0  0
   27.8905  -18.9000   -3.6272 C   0  0  0  0  0  0  0  0  0  0  0  0
   28.2693  -18.0482   -4.6418 C   0  0  0  0  0  0  0  0  0  0  0  0
   28.1933  -18.4595   -5.9588 C   0  0  0  0  0  0  0  0  0  0  0  0
   27.7392  -19.7207   -6.2588 C   0  0  0  0  0  0  0  0  0  0  0  0
   25.5968  -20.1488   -9.8656 C   0  0  0  0  0  0  0  0  0  0  0  0
   25.3751  -18.9086  -10.1182 O   0  0  0  0  0  0  0  0  0  0  0  0
   21.2554  -19.6871  -13.2057 C   0  0  0  0  0  0  0  0  0  0  0  0
   21.5570  -19.7376  -11.7110 C   0  0  0  0  0  0  0  0  0  0  0  0
   22.8605  -20.3909  -11.4259 C   0  0  2  0  0  0  0  0  0  0  0  0
   22.9583  -21.7948  -11.9705 C   0  0  0  0  0  0  0  0  0  0  0  0
   23.1154  -20.3594   -9.9252 C   0  0  2  0  0  0  0  0  0  0  0  0
   24.4348  -20.9317   -9.6557 N   0  0  0  0  0  0  0  0  0  0  0  0
   22.0832  -20.9931   -9.1199 C   0  0  0  0  0  0  0  0  0  0  0  0
   22.3469  -22.0282   -8.2005 O   0  0  0  0  0  0  0  0  0  0  0  0
   20.8418  -20.6875   -9.1571 O   0  0  0  0  0  0  0  0  0  0  0  0
  2  1  1  6
  3  2  1  0
  4  3  1  0
  4  5  2  0
  6  5  1  0
  7  6  2  0
  8  9  2  0
  8  7  1  0
  9  4  1  0
 10  2  1  0
 11 10  2  0
 12 10  1  0
 13 12  1  0
 13 14  1  1
 15 23  1  0
 15 14  1  0
 16 15  2  0
 17 16  1  0
 17 18  1  0
 18 23  2  0
 19 18  1  0
 19 20  2  0
 20 21  1  0
 21 22  2  0
 23 22  1  0
 24 25  2  0
 24 13  1  0
 26 27  1  0
 27 28  1  0
 28 30  1  0
 28 29  1  1
 30 31  1  6
 31 24  1  0
 32 30  1  0
 33 32  1  0
 34 32  2  0
M  END
$$$$
