FWI.pdb
     RDKit          3D

 34 36  0  0  1  0  0  0  0  0999 V2000
   21.1469  -10.2000  -15.7806 N   0  0  0  0  0  0  0  0  0  0  0  0
   19.8214   -9.6561  -15.9384 C   0  0  1  0  0  0  0  0  0  0  0  0
   18.9175  -10.4497  -14.9878 C   0  0  0  0  0  0  0  0  0  0  0  0
   18.4790  -11.6848  -15.6486 C   0  0  0  0  0  0  0  0  0  0  0  0
   19.0636  -12.8809  -15.2923 C   0  0  0  0  0  0  0  0  0  0  0  0
   18.6251  -14.0390  -15.9390 C   0  0  0  0  0  0  0  0  0  0  0  0
   17.6317  -13.9412  -16.9014 C   0  0  0  0  0  0  0  0  0  0  0  0
   17.0468  -12.7474  -17.2584 C   0  0  0  0  0  0  0  0  0  0  0  0
   17.4913  -11.5958  -16.6070 C   0  0  0  0  0  0  0  0  0  0  0  0
   19.8153   -8.2621  -15.4433 C   0  0  0  0  0  0  0  0  0  0  0  0
   20.5667   -7.9535  -14.4943 O   0  0  0  0  0  0  0  0  0  0  0  0
   18.9661   -7.3081  -16.0465 N   0  0  0  0  0  0  0  0  0  0  0  0
   18.9327   -5.8823  -15.6304 C   0  0  1  0  0  0  0  0  0  0  0  0
   18.8963   -5.0166  -16.8443 C   0  0  0  0  0  0  0  0  0  0  0  0
   20.1731   -4.9840  -17.5609 C   0  0  0  0  0  0  0  0  0  0  0  0
   21.3105   -4.3186  -17.1565 C   0  0  0  0  0  0  0  0  0  0  0  0
   22.2267   -4.5221  -18.1099 N   0  0  0  0  0  0  0  0  0  0  0  0
   21.7124   -5.2973  -19.1138 C   0  0  0  0  0  0  0  0  0  0  0  0
   22.2587   -5.7670  -20.2880 C   0  0  0  0  0  0  0  0  0  0  0  0
   21.5122   -6.5383  -21.1362 C   0  0  0  0  0  0  0  0  0  0  0  0
   20.2088   -6.8440  -20.8105 C   0  0  0  0  0  0  0  0  0  0  0  0
   19.6586   -6.3742  -19.6332 C   0  0  0  0  0  0  0  0  0  0  0  0
   20.4119   -5.6003  -18.7845 C   0  0  0  0  0  0  0  0  0  0  0  0
   17.7728   -5.6912  -14.7659 C   0  0  0  0  0  0  0  0  0  0  0  0
   16.6232   -6.0077  -15.2447 O   0  0  0  0  0  0  0  0  0  0  0  0
   17.1389   -7.3727   -9.8701 C   0  0  0  0  0  0  0  0  0  0  0  0
   17.0235   -6.8374  -11.2941 C   0  0  0  0  0  0  0  0  0  0  0  0
   16.5726   -5.4221  -11.3240 C   0  0  2  0  0  0  0  0  0  0  0  0
   15.2802   -5.1898  -10.5803 C   0  0  0  0  0  0  0  0  0  0  0  0
   16.4692   -4.9631  -12.7720 C   0  0  2  0  0  0  0  0  0  0  0  0
   17.7507   -5.1991  -13.4375 N   0  0  0  0  0  0  0  0  0  0  0  0
   16.0226   -3.5896  -12.9438 C   0  0  0  0  0  0  0  0  0  0  0  0
   14.6664   -3.2283  -13.0727 O   0  0  0  0  0  0  0  0  0  0  0  0
   16.7980   -2.5740  -12.9974 O   0  0  0  0  0  0  0  0  0  0  0  0
  2  1  1  1
  3  2  1  0
  4  3  1  0
  4  5  2  0
  6  5  1  0
  7  6  2  0
  8  9  2  0
  8  7  1  0
  9  4  1  0
 10  2  1  0
 11 10  2  0
 12 10  1  0
 13 12  1  0
 13 14  1  6
 15 23  1  0
 15 14  1  0
 16 15  2  0
 17 16  1  0
 17 18  1  0
 18 23  2  0
 19 18  1  0
 19 20  2  0
 20 21  1  0
 21 22  2  0
 23 22  1  0
 24 25  2  0
 24 13  1  0
 26 27  1  0
 27 28  1  0
 28 30  1  0
 28 29  1  6
 30 31  1  1
 31 24  1  0
 32 30  1  0
 33 32  1  0
 34 32  2  0
M  END
$$$$
