FWI.pdb
     RDKit          3D

 34 36  0  0  1  0  0  0  0  0999 V2000
   28.6910  -25.5499  -16.3459 N   0  0  0  0  0  0  0  0  0  0  0  0
   27.6272  -24.7264  -16.8636 C   0  0  1  0  0  0  0  0  0  0  0  0
   26.3346  -25.5288  -16.6744 C   0  0  0  0  0  0  0  0  0  0  0  0
   25.9999  -26.2176  -17.9267 C   0  0  0  0  0  0  0  0  0  0  0  0
   26.2846  -27.5603  -18.0512 C   0  0  0  0  0  0  0  0  0  0  0  0
   25.9544  -28.1878  -19.2549 C   0  0  0  0  0  0  0  0  0  0  0  0
   25.3609  -27.4449  -20.2642 C   0  0  0  0  0  0  0  0  0  0  0  0
   25.0759  -26.1039  -20.1414 C   0  0  0  0  0  0  0  0  0  0  0  0
   25.4094  -25.4856  -18.9353 C   0  0  0  0  0  0  0  0  0  0  0  0
   27.4943  -23.5258  -16.0096 C   0  0  0  0  0  0  0  0  0  0  0  0
   27.8978  -23.5753  -14.8285 O   0  0  0  0  0  0  0  0  0  0  0  0
   26.9173  -22.3501  -16.5387 N   0  0  0  0  0  0  0  0  0  0  0  0
   26.9526  -21.0456  -15.8288 C   0  0  1  0  0  0  0  0  0  0  0  0
   26.6972  -19.9475  -16.8050 C   0  0  0  0  0  0  0  0  0  0  0  0
   26.6008  -18.6308  -16.1710 C   0  0  0  0  0  0  0  0  0  0  0  0
   27.5578  -18.0480  -15.3680 C   0  0  0  0  0  0  0  0  0  0  0  0
   27.0569  -16.8709  -14.9764 N   0  0  0  0  0  0  0  0  0  0  0  0
   25.8081  -16.6803  -15.5030 C   0  0  0  0  0  0  0  0  0  0  0  0
   24.9075  -15.6440  -15.3887 C   0  0  0  0  0  0  0  0  0  0  0  0
   23.7006  -15.7049  -16.0298 C   0  0  0  0  0  0  0  0  0  0  0  0
   23.3887  -16.8095  -16.7920 C   0  0  0  0  0  0  0  0  0  0  0  0
   24.2903  -17.8503  -16.9083 C   0  0  0  0  0  0  0  0  0  0  0  0
   25.5010  -17.7847  -16.2630 C   0  0  0  0  0  0  0  0  0  0  0  0
   25.9643  -21.0883  -14.7560 C   0  0  0  0  0  0  0  0  0  0  0  0
   24.8753  -21.7308  -14.9841 O   0  0  0  0  0  0  0  0  0  0  0  0
   27.0606  -21.4083   -9.4529 C   0  0  0  0  0  0  0  0  0  0  0  0
   26.4098  -21.5638  -10.8240 C   0  0  0  0  0  0  0  0  0  0  0  0
   25.4494  -20.4681  -11.1140 C   0  0  2  0  0  0  0  0  0  0  0  0
   24.3149  -20.3883  -10.1222 C   0  0  0  0  0  0  0  0  0  0  0  0
   24.9315  -20.6238  -12.5373 C   0  0  2  0  0  0  0  0  0  0  0  0
   26.0555  -20.5078  -13.4668 N   0  0  0  0  0  0  0  0  0  0  0  0
   23.8486  -19.7201  -12.8923 C   0  0  0  0  0  0  0  0  0  0  0  0
   22.5258  -20.1503  -13.1191 O   0  0  0  0  0  0  0  0  0  0  0  0
   23.9745  -18.4556  -13.0371 O   0  0  0  0  0  0  0  0  0  0  0  0
  2  1  1  1
  3  2  1  0
  4  3  1  0
  4  5  2  0
  6  5  1  0
  7  6  2  0
  8  9  2  0
  8  7  1  0
  9  4  1  0
 10  2  1  0
 11 10  2  0
 12 10  1  0
 13 12  1  0
 13 14  1  6
 15 23  1  0
 15 14  1  0
 16 15  2  0
 17 16  1  0
 17 18  1  0
 18 23  2  0
 19 18  1  0
 19 20  2  0
 20 21  1  0
 21 22  2  0
 23 22  1  0
 24 25  2  0
 24 13  1  0
 26 27  1  0
 27 28  1  0
 28 30  1  0
 28 29  1  1
 30 31  1  6
 31 24  1  0
 32 30  1  0
 33 32  1  0
 34 32  2  0
M  END
$$$$
