FWI.pdb
     RDKit          3D

 34 36  0  0  1  0  0  0  0  0999 V2000
   21.7080  -31.7740  -13.9466 N   0  0  0  0  0  0  0  0  0  0  0  0
   21.8765  -32.9167  -13.0842 C   0  0  1  0  0  0  0  0  0  0  0  0
   23.3548  -33.3112  -13.1811 C   0  0  0  0  0  0  0  0  0  0  0  0
   23.5640  -34.1293  -14.3817 C   0  0  0  0  0  0  0  0  0  0  0  0
   24.0576  -33.5338  -15.5223 C   0  0  0  0  0  0  0  0  0  0  0  0
   24.2458  -34.3385  -16.6487 C   0  0  0  0  0  0  0  0  0  0  0  0
   23.9329  -35.6874  -16.5760 C   0  0  0  0  0  0  0  0  0  0  0  0
   23.4399  -36.2837  -15.4376 C   0  0  0  0  0  0  0  0  0  0  0  0
   23.2551  -35.4719  -14.3174 C   0  0  0  0  0  0  0  0  0  0  0  0
   21.6547  -32.4947  -11.6839 C   0  0  0  0  0  0  0  0  0  0  0  0
   21.8219  -31.2948  -11.3794 O   0  0  0  0  0  0  0  0  0  0  0  0
   21.2600  -33.4478  -10.7190 N   0  0  0  0  0  0  0  0  0  0  0  0
   21.0214  -33.1005   -9.2945 C   0  0  1  0  0  0  0  0  0  0  0  0
   19.6570  -33.5550   -8.8994 C   0  0  0  0  0  0  0  0  0  0  0  0
   18.5974  -32.6654   -9.3797 C   0  0  0  0  0  0  0  0  0  0  0  0
   18.7659  -31.5908  -10.2264 C   0  0  0  0  0  0  0  0  0  0  0  0
   17.5574  -31.0381  -10.3810 N   0  0  0  0  0  0  0  0  0  0  0  0
   16.6185  -31.7248   -9.6596 C   0  0  0  0  0  0  0  0  0  0  0  0
   15.2622  -31.5421   -9.5014 C   0  0  0  0  0  0  0  0  0  0  0  0
   14.5404  -32.3881   -8.7049 C   0  0  0  0  0  0  0  0  0  0  0  0
   15.1769  -33.4260   -8.0598 C   0  0  0  0  0  0  0  0  0  0  0  0
   16.5372  -33.6114   -8.2169 C   0  0  0  0  0  0  0  0  0  0  0  0
   17.2580  -32.7597   -9.0179 C   0  0  0  0  0  0  0  0  0  0  0  0
   22.0752  -33.7185   -8.4963 C   0  0  0  0  0  0  0  0  0  0  0  0
   22.1690  -34.9993   -8.5356 O   0  0  0  0  0  0  0  0  0  0  0  0
   26.9185  -32.2979   -9.0404 C   0  0  0  0  0  0  0  0  0  0  0  0
   25.6061  -33.0068   -8.7199 C   0  0  0  0  0  0  0  0  0  0  0  0
   25.4230  -33.2098   -7.2596 C   0  0  2  0  0  0  0  0  0  0  0  0
   26.5406  -33.9965   -6.6198 C   0  0  0  0  0  0  0  0  0  0  0  0
   24.0716  -33.8665   -7.0139 C   0  0  2  0  0  0  0  0  0  0  0  0
   23.0324  -33.0753   -7.6733 N   0  0  0  0  0  0  0  0  0  0  0  0
   23.7562  -34.1027   -5.6138 C   0  0  0  0  0  0  0  0  0  0  0  0
   24.2231  -35.2210   -4.8943 O   0  0  0  0  0  0  0  0  0  0  0  0
   23.0309  -33.3352   -4.8922 O   0  0  0  0  0  0  0  0  0  0  0  0
  2  1  1  6
  3  2  1  0
  4  3  1  0
  4  5  2  0
  6  5  1  0
  7  6  2  0
  8  9  2  0
  8  7  1  0
  9  4  1  0
 10  2  1  0
 11 10  2  0
 12 10  1  0
 13 12  1  0
 13 14  1  1
 15 23  1  0
 15 14  1  0
 16 15  2  0
 17 16  1  0
 17 18  1  0
 18 23  2  0
 19 18  1  0
 19 20  2  0
 20 21  1  0
 21 22  2  0
 23 22  1  0
 24 25  2  0
 24 13  1  0
 26 27  1  0
 27 28  1  0
 28 30  1  0
 28 29  1  6
 30 31  1  1
 31 24  1  0
 32 30  1  0
 33 32  1  0
 34 32  2  0
M  END
$$$$
