FWI.pdb
     RDKit          3D

 34 36  0  0  1  0  0  0  0  0999 V2000
   30.3329  -21.3455  -14.7855 N   0  0  0  0  0  0  0  0  0  0  0  0
   29.4129  -21.4392  -13.6797 C   0  0  1  0  0  0  0  0  0  0  0  0
   29.9522  -20.5006  -12.5941 C   0  0  0  0  0  0  0  0  0  0  0  0
   30.7804  -21.2659  -11.6545 C   0  0  0  0  0  0  0  0  0  0  0  0
   30.2778  -21.5660  -10.4069 C   0  0  0  0  0  0  0  0  0  0  0  0
   31.0898  -22.2955   -9.5350 C   0  0  0  0  0  0  0  0  0  0  0  0
   32.3534  -22.6841   -9.9535 C   0  0  0  0  0  0  0  0  0  0  0  0
   32.8569  -22.3851  -11.1992 C   0  0  0  0  0  0  0  0  0  0  0  0
   32.0385  -21.6560  -12.0633 C   0  0  0  0  0  0  0  0  0  0  0  0
   28.1081  -20.8799  -14.0956 C   0  0  0  0  0  0  0  0  0  0  0  0
   28.0789  -19.7645  -14.6573 O   0  0  0  0  0  0  0  0  0  0  0  0
   26.9235  -21.6100  -13.8530 N   0  0  0  0  0  0  0  0  0  0  0  0
   25.5721  -20.9961  -13.9151 C   0  0  1  0  0  0  0  0  0  0  0  0
   24.8240  -21.5703  -15.0705 C   0  0  0  0  0  0  0  0  0  0  0  0
   24.5483  -20.5852  -16.1186 C   0  0  0  0  0  0  0  0  0  0  0  0
   25.4050  -20.2277  -17.1377 C   0  0  0  0  0  0  0  0  0  0  0  0
   24.7772  -19.2811  -17.8447 N   0  0  0  0  0  0  0  0  0  0  0  0
   23.5444  -19.0200  -17.3108 C   0  0  0  0  0  0  0  0  0  0  0  0
   22.5475  -18.1428  -17.6780 C   0  0  0  0  0  0  0  0  0  0  0  0
   21.3869  -18.0763  -16.9569 C   0  0  0  0  0  0  0  0  0  0  0  0
   21.2187  -18.8920  -15.8593 C   0  0  0  0  0  0  0  0  0  0  0  0
   22.2170  -19.7727  -15.4889 C   0  0  0  0  0  0  0  0  0  0  0  0
   23.3806  -19.8363  -16.2160 C   0  0  0  0  0  0  0  0  0  0  0  0
   24.9081  -21.2353  -12.6378 C   0  0  0  0  0  0  0  0  0  0  0  0
   24.8532  -22.4495  -12.2213 O   0  0  0  0  0  0  0  0  0  0  0  0
   26.4153  -19.5757   -8.2188 C   0  0  0  0  0  0  0  0  0  0  0  0
   25.7044  -20.3105   -9.3512 C   0  0  0  0  0  0  0  0  0  0  0  0
   24.2430  -20.0437   -9.3595 C   0  0  2  0  0  0  0  0  0  0  0  0
   23.5530  -20.4498   -8.0804 C   0  0  0  0  0  0  0  0  0  0  0  0
   23.6188  -20.7284  -10.5676 C   0  0  2  0  0  0  0  0  0  0  0  0
   24.3111  -20.2817  -11.7768 N   0  0  0  0  0  0  0  0  0  0  0  0
   22.1786  -20.5619  -10.6839 C   0  0  0  0  0  0  0  0  0  0  0  0
   21.2489  -21.3971  -10.0322 O   0  0  0  0  0  0  0  0  0  0  0  0
   21.6050  -19.6552  -11.3800 O   0  0  0  0  0  0  0  0  0  0  0  0
  2  1  1  6
  3  2  1  0
  4  3  1  0
  4  5  2  0
  6  5  1  0
  7  6  2  0
  8  9  2  0
  8  7  1  0
  9  4  1  0
 10  2  1  0
 11 10  2  0
 12 10  1  0
 13 12  1  0
 13 14  1  6
 15 23  1  0
 15 14  1  0
 16 15  2  0
 17 16  1  0
 17 18  1  0
 18 23  2  0
 19 18  1  0
 19 20  2  0
 20 21  1  0
 21 22  2  0
 23 22  1  0
 24 25  2  0
 24 13  1  0
 26 27  1  0
 27 28  1  0
 28 30  1  0
 28 29  1  1
 30 31  1  6
 31 24  1  0
 32 30  1  0
 33 32  1  0
 34 32  2  0
M  END
$$$$
