FWI.pdb
     RDKit          3D

 34 36  0  0  1  0  0  0  0  0999 V2000
   27.0379  -18.4022  -19.2674 N   0  0  0  0  0  0  0  0  0  0  0  0
   27.4780  -18.5446  -17.9021 C   0  0  1  0  0  0  0  0  0  0  0  0
   28.1678  -17.2255  -17.5353 C   0  0  0  0  0  0  0  0  0  0  0  0
   29.5707  -17.2724  -17.9645 C   0  0  0  0  0  0  0  0  0  0  0  0
   30.2013  -18.4936  -18.0663 C   0  0  0  0  0  0  0  0  0  0  0  0
   31.5365  -18.5056  -18.4772 C   0  0  0  0  0  0  0  0  0  0  0  0
   32.1669  -17.3041  -18.7630 C   0  0  0  0  0  0  0  0  0  0  0  0
   31.5385  -16.0836  -18.6618 C   0  0  0  0  0  0  0  0  0  0  0  0
   30.2047  -16.0815  -18.2506 C   0  0  0  0  0  0  0  0  0  0  0  0
   26.2905  -18.6450  -17.0258 C   0  0  0  0  0  0  0  0  0  0  0  0
   25.3851  -17.7910  -17.1330 O   0  0  0  0  0  0  0  0  0  0  0  0
   26.1988  -19.6971  -16.0878 N   0  0  0  0  0  0  0  0  0  0  0  0
   25.0655  -19.8318  -15.1368 C   0  0  1  0  0  0  0  0  0  0  0  0
   23.9430  -20.5486  -15.8079 C   0  0  0  0  0  0  0  0  0  0  0  0
   22.6548  -20.3425  -15.1422 C   0  0  0  0  0  0  0  0  0  0  0  0
   21.7479  -19.3444  -15.4274 C   0  0  0  0  0  0  0  0  0  0  0  0
   20.7320  -19.5007  -14.5710 N   0  0  0  0  0  0  0  0  0  0  0  0
   20.9590  -20.5681  -13.7450 C   0  0  0  0  0  0  0  0  0  0  0  0
   20.2186  -21.1144  -12.7196 C   0  0  0  0  0  0  0  0  0  0  0  0
   20.6843  -22.2047  -12.0373 C   0  0  0  0  0  0  0  0  0  0  0  0
   21.8997  -22.7555  -12.3804 C   0  0  0  0  0  0  0  0  0  0  0  0
   22.6443  -22.2095  -13.4085 C   0  0  0  0  0  0  0  0  0  0  0  0
   22.1726  -21.1149  -14.0911 C   0  0  0  0  0  0  0  0  0  0  0  0
   25.5516  -20.5293  -13.9507 C   0  0  0  0  0  0  0  0  0  0  0  0
   26.0008  -21.7222  -14.1122 O   0  0  0  0  0  0  0  0  0  0  0  0
   29.7359  -20.2626  -11.7143 C   0  0  0  0  0  0  0  0  0  0  0  0
   28.3339  -20.6930  -12.1348 C   0  0  0  0  0  0  0  0  0  0  0  0
   27.3559  -20.5736  -11.0229 C   0  0  2  0  0  0  0  0  0  0  0  0
   27.7338  -21.3792   -9.8041 C   0  0  0  0  0  0  0  0  0  0  0  0
   25.9732  -20.9557  -11.5330 C   0  0  2  0  0  0  0  0  0  0  0  0
   25.6004  -20.0487  -12.6189 N   0  0  0  0  0  0  0  0  0  0  0  0
   24.9424  -21.0153  -10.5085 C   0  0  0  0  0  0  0  0  0  0  0  0
   24.0520  -19.9549  -10.2454 O   0  0  0  0  0  0  0  0  0  0  0  0
   24.7338  -22.0193   -9.7443 O   0  0  0  0  0  0  0  0  0  0  0  0
  2  1  1  6
  3  2  1  0
  4  3  1  0
  4  5  2  0
  6  5  1  0
  7  6  2  0
  8  9  2  0
  8  7  1  0
  9  4  1  0
 10  2  1  0
 11 10  2  0
 12 10  1  0
 13 12  1  0
 13 14  1  6
 15 23  1  0
 15 14  1  0
 16 15  2  0
 17 16  1  0
 17 18  1  0
 18 23  2  0
 19 18  1  0
 19 20  2  0
 20 21  1  0
 21 22  2  0
 23 22  1  0
 24 25  2  0
 24 13  1  0
 26 27  1  0
 27 28  1  0
 28 30  1  0
 28 29  1  1
 30 31  1  6
 31 24  1  0
 32 30  1  0
 33 32  1  0
 34 32  2  0
M  END
$$$$
