FWI.pdb
     RDKit          3D

 34 36  0  0  1  0  0  0  0  0999 V2000
   24.0678  -20.8430  -14.5048 N   0  0  0  0  0  0  0  0  0  0  0  0
   23.7519  -20.0132  -13.3692 C   0  0  1  0  0  0  0  0  0  0  0  0
   22.2261  -20.0499  -13.2240 C   0  0  0  0  0  0  0  0  0  0  0  0
   21.6167  -19.2088  -14.2611 C   0  0  0  0  0  0  0  0  0  0  0  0
   21.6464  -17.8385  -14.1176 C   0  0  0  0  0  0  0  0  0  0  0  0
   21.0581  -17.0649  -15.1212 C   0  0  0  0  0  0  0  0  0  0  0  0
   20.4748  -17.6978  -16.2084 C   0  0  0  0  0  0  0  0  0  0  0  0
   20.4443  -19.0663  -16.3533 C   0  0  0  0  0  0  0  0  0  0  0  0
   21.0345  -19.8308  -15.3456 C   0  0  0  0  0  0  0  0  0  0  0  0
   24.2963  -20.6473  -12.1486 C   0  0  0  0  0  0  0  0  0  0  0  0
   24.1251  -21.8724  -11.9750 O   0  0  0  0  0  0  0  0  0  0  0  0
   24.9963  -19.8637  -11.2046 N   0  0  0  0  0  0  0  0  0  0  0  0
   25.6179  -20.4380   -9.9837 C   0  0  1  0  0  0  0  0  0  0  0  0
   26.7720  -19.5874   -9.5729 C   0  0  0  0  0  0  0  0  0  0  0  0
   27.6596  -20.2523   -8.6164 C   0  0  0  0  0  0  0  0  0  0  0  0
   28.2829  -21.4678   -8.8018 C   0  0  0  0  0  0  0  0  0  0  0  0
   28.9674  -21.7167   -7.6796 N   0  0  0  0  0  0  0  0  0  0  0  0
   28.8026  -20.6987   -6.7798 C   0  0  0  0  0  0  0  0  0  0  0  0
   29.2962  -20.5027   -5.5086 C   0  0  0  0  0  0  0  0  0  0  0  0
   28.9691  -19.3744   -4.8077 C   0  0  0  0  0  0  0  0  0  0  0  0
   28.1420  -18.4325   -5.3797 C   0  0  0  0  0  0  0  0  0  0  0  0
   27.6456  -18.6266   -6.6547 C   0  0  0  0  0  0  0  0  0  0  0  0
   27.9769  -19.7610   -7.3548 C   0  0  0  0  0  0  0  0  0  0  0  0
   24.5889  -20.5291   -8.9530 C   0  0  0  0  0  0  0  0  0  0  0  0
   23.8942  -19.4736   -8.7199 O   0  0  0  0  0  0  0  0  0  0  0  0
   20.1932  -22.2803   -9.2370 C   0  0  0  0  0  0  0  0  0  0  0  0
   21.4349  -21.5665   -8.7114 C   0  0  0  0  0  0  0  0  0  0  0  0
   21.9788  -22.2170   -7.4915 C   0  0  2  0  0  0  0  0  0  0  0  0
   20.9949  -22.2628   -6.3482 C   0  0  0  0  0  0  0  0  0  0  0  0
   23.2677  -21.5154   -7.0857 C   0  0  2  0  0  0  0  0  0  0  0  0
   24.2448  -21.6556   -8.1658 N   0  0  0  0  0  0  0  0  0  0  0  0
   23.8169  -21.9438   -5.8089 C   0  0  0  0  0  0  0  0  0  0  0  0
   23.4877  -21.3332   -4.5820 O   0  0  0  0  0  0  0  0  0  0  0  0
   24.6471  -22.9052   -5.6601 O   0  0  0  0  0  0  0  0  0  0  0  0
  2  1  1  6
  3  2  1  0
  4  3  1  0
  4  5  2  0
  6  5  1  0
  7  6  2  0
  8  9  2  0
  8  7  1  0
  9  4  1  0
 10  2  1  0
 11 10  2  0
 12 10  1  0
 13 12  1  0
 13 14  1  1
 15 23  1  0
 15 14  1  0
 16 15  2  0
 17 16  1  0
 17 18  1  0
 18 23  2  0
 19 18  1  0
 19 20  2  0
 20 21  1  0
 21 22  2  0
 23 22  1  0
 24 25  2  0
 24 13  1  0
 26 27  1  0
 27 28  1  0
 28 30  1  0
 28 29  1  1
 30 31  1  6
 31 24  1  0
 32 30  1  0
 33 32  1  0
 34 32  2  0
M  END
$$$$
