FWI.pdb
     RDKit          3D

 34 36  0  0  1  0  0  0  0  0999 V2000
   24.1383  -19.4225  -17.4588 N   0  0  0  0  0  0  0  0  0  0  0  0
   23.9739  -18.6589  -16.2473 C   0  0  1  0  0  0  0  0  0  0  0  0
   22.5013  -18.2344  -16.2059 C   0  0  0  0  0  0  0  0  0  0  0  0
   22.2610  -17.2056  -17.2249 C   0  0  0  0  0  0  0  0  0  0  0  0
   21.5701  -17.5421  -18.3689 C   0  0  0  0  0  0  0  0  0  0  0  0
   21.3573  -16.5414  -19.3201 C   0  0  0  0  0  0  0  0  0  0  0  0
   21.8431  -15.2652  -19.0793 C   0  0  0  0  0  0  0  0  0  0  0  0
   22.5333  -14.9274  -17.9372 C   0  0  0  0  0  0  0  0  0  0  0  0
   22.7411  -15.9338  -16.9927 C   0  0  0  0  0  0  0  0  0  0  0  0
   24.1762  -19.5546  -15.0874 C   0  0  0  0  0  0  0  0  0  0  0  0
   23.6800  -20.7007  -15.1138 O   0  0  0  0  0  0  0  0  0  0  0  0
   24.9219  -19.1037  -13.9758 N   0  0  0  0  0  0  0  0  0  0  0  0
   25.1817  -19.9506  -12.7832 C   0  0  1  0  0  0  0  0  0  0  0  0
   26.2572  -19.3252  -11.9609 C   0  0  0  0  0  0  0  0  0  0  0  0
   26.7337  -20.1973  -10.8851 C   0  0  0  0  0  0  0  0  0  0  0  0
   27.0454  -21.5345  -11.0066 C   0  0  0  0  0  0  0  0  0  0  0  0
   27.4046  -21.9513   -9.7871 N   0  0  0  0  0  0  0  0  0  0  0  0
   27.3328  -20.9230   -8.8868 C   0  0  0  0  0  0  0  0  0  0  0  0
   27.5968  -20.8599   -7.5361 C   0  0  0  0  0  0  0  0  0  0  0  0
   27.4398  -19.6830   -6.8567 C   0  0  0  0  0  0  0  0  0  0  0  0
   27.0156  -18.5584   -7.5303 C   0  0  0  0  0  0  0  0  0  0  0  0
   26.7502  -18.6190   -8.8851 C   0  0  0  0  0  0  0  0  0  0  0  0
   26.9094  -19.8028   -9.5633 C   0  0  0  0  0  0  0  0  0  0  0  0
   23.9271  -20.0994  -12.0528 C   0  0  0  0  0  0  0  0  0  0  0  0
   23.0696  -19.1482  -12.1561 O   0  0  0  0  0  0  0  0  0  0  0  0
   18.7033  -21.8191  -12.0370 C   0  0  0  0  0  0  0  0  0  0  0  0
   19.8087  -21.5176  -11.0296 C   0  0  0  0  0  0  0  0  0  0  0  0
   21.1579  -21.5656  -11.6496 C   0  0  2  0  0  0  0  0  0  0  0  0
   21.4855  -22.9027  -12.2676 C   0  0  0  0  0  0  0  0  0  0  0  0
   22.1972  -21.1650  -10.6117 C   0  0  2  0  0  0  0  0  0  0  0  0
   23.5211  -21.1822  -11.2344 N   0  0  0  0  0  0  0  0  0  0  0  0
   22.1710  -21.9532   -9.3896 C   0  0  0  0  0  0  0  0  0  0  0  0
   21.2808  -21.7012   -8.3263 O   0  0  0  0  0  0  0  0  0  0  0  0
   22.9409  -22.9453   -9.1473 O   0  0  0  0  0  0  0  0  0  0  0  0
  2  1  1  6
  3  2  1  0
  4  3  1  0
  4  5  2  0
  6  5  1  0
  7  6  2  0
  8  9  2  0
  8  7  1  0
  9  4  1  0
 10  2  1  0
 11 10  2  0
 12 10  1  0
 13 12  1  0
 13 14  1  1
 15 23  1  0
 15 14  1  0
 16 15  2  0
 17 16  1  0
 17 18  1  0
 18 23  2  0
 19 18  1  0
 19 20  2  0
 20 21  1  0
 21 22  2  0
 23 22  1  0
 24 25  2  0
 24 13  1  0
 26 27  1  0
 27 28  1  0
 28 30  1  0
 28 29  1  1
 30 31  1  6
 31 24  1  0
 32 30  1  0
 33 32  1  0
 34 32  2  0
M  END
$$$$
