FWI.pdb
     RDKit          3D

 34 36  0  0  1  0  0  0  0  0999 V2000
   21.1754  -19.7785  -12.2150 N   0  0  0  0  0  0  0  0  0  0  0  0
   21.9637  -20.8681  -11.6961 C   0  0  1  0  0  0  0  0  0  0  0  0
   22.1227  -21.8674  -12.8479 C   0  0  0  0  0  0  0  0  0  0  0  0
   20.8514  -22.5683  -13.0650 C   0  0  0  0  0  0  0  0  0  0  0  0
   20.4973  -23.5950  -12.2166 C   0  0  0  0  0  0  0  0  0  0  0  0
   19.2816  -24.2428  -12.4489 C   0  0  0  0  0  0  0  0  0  0  0  0
   18.4889  -23.8329  -13.5102 C   0  0  0  0  0  0  0  0  0  0  0  0
   18.8411  -22.8077  -14.3585 C   0  0  0  0  0  0  0  0  0  0  0  0
   20.0574  -22.1664  -14.1185 C   0  0  0  0  0  0  0  0  0  0  0  0
   23.3235  -20.3712  -11.3925 C   0  0  0  0  0  0  0  0  0  0  0  0
   23.8169  -19.4785  -12.1136 O   0  0  0  0  0  0  0  0  0  0  0  0
   24.0385  -20.9096  -10.2997 N   0  0  0  0  0  0  0  0  0  0  0  0
   25.3506  -20.3748   -9.8535 C   0  0  1  0  0  0  0  0  0  0  0  0
   25.6188  -20.8302   -8.4590 C   0  0  0  0  0  0  0  0  0  0  0  0
   26.5121  -19.9303   -7.7261 C   0  0  0  0  0  0  0  0  0  0  0  0
   26.7234  -18.5971   -8.0052 C   0  0  0  0  0  0  0  0  0  0  0  0
   27.6302  -18.1650   -7.1215 N   0  0  0  0  0  0  0  0  0  0  0  0
   28.0073  -19.1797   -6.2841 C   0  0  0  0  0  0  0  0  0  0  0  0
   28.8976  -19.2256   -5.2337 C   0  0  0  0  0  0  0  0  0  0  0  0
   29.0955  -20.3923   -4.5475 C   0  0  0  0  0  0  0  0  0  0  0  0
   28.3991  -21.5240   -4.9120 C   0  0  0  0  0  0  0  0  0  0  0  0
   27.5056  -21.4806   -5.9651 C   0  0  0  0  0  0  0  0  0  0  0  0
   27.3099  -20.3068   -6.6512 C   0  0  0  0  0  0  0  0  0  0  0  0
   26.3669  -20.8244  -10.7993 C   0  0  0  0  0  0  0  0  0  0  0  0
   26.4425  -22.0868  -11.0261 O   0  0  0  0  0  0  0  0  0  0  0  0
   27.5015  -18.1140  -15.2132 C   0  0  0  0  0  0  0  0  0  0  0  0
   27.2794  -19.2591  -14.2298 C   0  0  0  0  0  0  0  0  0  0  0  0
   28.5429  -19.6870  -13.5760 C   0  0  2  0  0  0  0  0  0  0  0  0
   29.5501  -20.2645  -14.5400 C   0  0  0  0  0  0  0  0  0  0  0  0
   28.2176  -20.6696  -12.4594 C   0  0  2  0  0  0  0  0  0  0  0  0
   27.2943  -20.0323  -11.5202 N   0  0  0  0  0  0  0  0  0  0  0  0
   29.3781  -21.2207  -11.7775 C   0  0  0  0  0  0  0  0  0  0  0  0
   30.2453  -20.4473  -10.9799 O   0  0  0  0  0  0  0  0  0  0  0  0
   29.7356  -22.4477  -11.8262 O   0  0  0  0  0  0  0  0  0  0  0  0
  2  1  1  6
  3  2  1  0
  4  3  1  0
  4  5  2  0
  6  5  1  0
  7  6  2  0
  8  9  2  0
  8  7  1  0
  9  4  1  0
 10  2  1  0
 11 10  2  0
 12 10  1  0
 13 12  1  0
 13 14  1  1
 15 23  1  0
 15 14  1  0
 16 15  2  0
 17 16  1  0
 17 18  1  0
 18 23  2  0
 19 18  1  0
 19 20  2  0
 20 21  1  0
 21 22  2  0
 23 22  1  0
 24 25  2  0
 24 13  1  0
 26 27  1  0
 27 28  1  0
 28 30  1  0
 28 29  1  6
 30 31  1  1
 31 24  1  0
 32 30  1  0
 33 32  1  0
 34 32  2  0
M  END
$$$$
