FWI.pdb
     RDKit          3D

 34 36  0  0  1  0  0  0  0  0999 V2000
   25.3808  -14.6701  -16.7078 N   0  0  0  0  0  0  0  0  0  0  0  0
   25.9654  -15.9360  -16.3421 C   0  0  1  0  0  0  0  0  0  0  0  0
   27.2986  -15.6099  -15.6589 C   0  0  0  0  0  0  0  0  0  0  0  0
   28.3807  -15.6648  -16.6491 C   0  0  0  0  0  0  0  0  0  0  0  0
   28.8101  -14.4961  -17.2400 C   0  0  0  0  0  0  0  0  0  0  0  0
   29.8415  -14.5806  -18.1785 C   0  0  0  0  0  0  0  0  0  0  0  0
   30.3859  -15.8210  -18.4749 C   0  0  0  0  0  0  0  0  0  0  0  0
   29.9583  -16.9892  -17.8857 C   0  0  0  0  0  0  0  0  0  0  0  0
   28.9275  -16.8948  -16.9494 C   0  0  0  0  0  0  0  0  0  0  0  0
   25.1189  -16.5720  -15.3090 C   0  0  0  0  0  0  0  0  0  0  0  0
   24.8625  -15.9393  -14.2628 O   0  0  0  0  0  0  0  0  0  0  0  0
   24.6170  -17.8754  -15.5194 N   0  0  0  0  0  0  0  0  0  0  0  0
   23.8030  -18.5980  -14.5084 C   0  0  1  0  0  0  0  0  0  0  0  0
   22.6880  -19.3124  -15.1942 C   0  0  0  0  0  0  0  0  0  0  0  0
   21.8136  -20.0317  -14.2652 C   0  0  0  0  0  0  0  0  0  0  0  0
   21.1694  -19.4869  -13.1752 C   0  0  0  0  0  0  0  0  0  0  0  0
   20.5076  -20.4899  -12.5869 N   0  0  0  0  0  0  0  0  0  0  0  0
   20.7073  -21.6614  -13.2657 C   0  0  0  0  0  0  0  0  0  0  0  0
   20.2461  -22.9417  -13.0509 C   0  0  0  0  0  0  0  0  0  0  0  0
   20.6050  -23.9553  -13.8966 C   0  0  0  0  0  0  0  0  0  0  0  0
   21.4317  -23.6900  -14.9665 C   0  0  0  0  0  0  0  0  0  0  0  0
   21.8956  -22.4067  -15.1842 C   0  0  0  0  0  0  0  0  0  0  0  0
   21.5324  -21.3919  -14.3326 C   0  0  0  0  0  0  0  0  0  0  0  0
   24.6869  -19.5006  -13.7780 C   0  0  0  0  0  0  0  0  0  0  0  0
   25.6529  -20.0368  -14.4338 O   0  0  0  0  0  0  0  0  0  0  0  0
   26.3582  -18.7888   -8.6789 C   0  0  0  0  0  0  0  0  0  0  0  0
   26.2423  -19.1432  -10.1583 C   0  0  0  0  0  0  0  0  0  0  0  0
   25.7491  -20.5295  -10.3636 C   0  0  2  0  0  0  0  0  0  0  0  0
   26.6116  -21.5759   -9.7016 C   0  0  0  0  0  0  0  0  0  0  0  0
   25.6074  -20.7915  -11.8567 C   0  0  2  0  0  0  0  0  0  0  0  0
   24.6209  -19.8633  -12.4100 N   0  0  0  0  0  0  0  0  0  0  0  0
   25.2994  -22.1695  -12.2055 C   0  0  0  0  0  0  0  0  0  0  0  0
   26.2764  -23.1816  -12.2923 O   0  0  0  0  0  0  0  0  0  0  0  0
   24.1275  -22.6085  -12.4691 O   0  0  0  0  0  0  0  0  0  0  0  0
  2  1  1  1
  3  2  1  0
  4  3  1  0
  4  5  2  0
  6  5  1  0
  7  6  2  0
  8  9  2  0
  8  7  1  0
  9  4  1  0
 10  2  1  0
 11 10  2  0
 12 10  1  0
 13 12  1  0
 13 14  1  6
 15 23  1  0
 15 14  1  0
 16 15  2  0
 17 16  1  0
 17 18  1  0
 18 23  2  0
 19 18  1  0
 19 20  2  0
 20 21  1  0
 21 22  2  0
 23 22  1  0
 24 25  2  0
 24 13  1  0
 26 27  1  0
 27 28  1  0
 28 30  1  0
 28 29  1  6
 30 31  1  1
 31 24  1  0
 32 30  1  0
 33 32  1  0
 34 32  2  0
M  END
$$$$
