KSH.pdb
     RDKit          3D

 26 26  0  0  1  0  0  0  0  0999 V2000
   19.2391  -29.5122  -14.6077 N   0  0  0  0  0  0  0  0  0  0  0  0
   19.9177  -30.6809  -14.1673 C   0  0  1  0  0  0  0  0  0  0  0  0
   21.0992  -31.0099  -14.9743 C   0  0  0  0  0  0  0  0  0  0  0  0
   21.0074  -31.4612  -16.3451 C   0  0  0  0  0  0  0  0  0  0  0  0
   20.0516  -32.3680  -16.9377 C   0  0  0  0  0  0  0  0  0  0  0  0
   20.0706  -32.8310  -18.3306 C   0  0  0  0  0  0  0  0  0  0  0  0
   18.7177  -33.4925  -18.5111 N   0  0  0  0  0  0  0  0  0  0  0  0
   20.2710  -30.4824  -12.7082 C   0  0  0  0  0  0  0  0  0  0  0  0
   20.3951  -29.3184  -12.2803 O   0  0  0  0  0  0  0  0  0  0  0  0
   18.7112  -32.5970   -9.8428 O   0  0  0  0  0  0  0  0  0  0  0  0
   19.3130  -31.3605   -9.7691 C   0  0  0  0  0  0  0  0  0  0  0  0
   20.7008  -31.4366  -10.4025 C   0  0  2  0  0  0  0  0  0  0  0  0
   20.4614  -31.5631  -11.8277 N   0  0  0  0  0  0  0  0  0  0  0  0
   21.4995  -32.5420   -9.8622 C   0  0  0  0  0  0  0  0  0  0  0  0
   21.3905  -33.6883  -10.4002 O   0  0  0  0  0  0  0  0  0  0  0  0
   22.3989  -32.4433   -8.7728 N   0  0  0  0  0  0  0  0  0  0  0  0
   23.1671  -33.5729   -8.2591 C   0  0  1  0  0  0  0  0  0  0  0  0
   24.4193  -33.1300   -7.5870 C   0  0  0  0  0  0  0  0  0  0  0  0
   25.4220  -32.6168   -8.5358 C   0  0  0  0  0  0  0  0  0  0  0  0
   25.3177  -32.7861   -9.9069 C   0  0  0  0  0  0  0  0  0  0  0  0
   26.3846  -32.2040  -10.5293 N   0  0  0  0  0  0  0  0  0  0  0  0
   27.1456  -31.6761   -9.5373 C   0  0  0  0  0  0  0  0  0  0  0  0
   26.5604  -31.9308   -8.3694 N   0  0  0  0  0  0  0  0  0  0  0  0
   22.3726  -34.4115   -7.3605 C   0  0  0  0  0  0  0  0  0  0  0  0
   21.2658  -34.0112   -6.9455 O   0  0  0  0  0  0  0  0  0  0  0  0
   22.8221  -35.6542   -6.9529 O   0  0  0  0  0  0  0  0  0  0  0  0
  2  8  1  0
  2  1  1  6
  3  2  1  0
  4  3  1  0
  5  6  1  0
  5  4  1  0
  7  6  1  0
  8  9  2  0
 10 11  1  0
 12 11  1  1
 13 12  1  0
 13  8  1  0
 14 15  2  0
 14 12  1  0
 16 14  1  0
 17 24  1  0
 17 16  1  0
 17 18  1  1
 19 18  1  0
 20 19  2  0
 21 20  1  0
 22 21  1  0
 22 23  2  0
 23 19  1  0
 24 26  1  0
 25 24  2  0
M  END
$$$$
