KSH.pdb
     RDKit          3D

 26 26  0  0  1  0  0  0  0  0999 V2000
   25.4414  -17.4593  -18.9858 N   0  0  0  0  0  0  0  0  0  0  0  0
   24.1889  -18.1258  -18.9007 C   0  0  1  0  0  0  0  0  0  0  0  0
   24.2527  -19.5413  -19.2848 C   0  0  0  0  0  0  0  0  0  0  0  0
   25.5027  -20.2418  -19.4799 C   0  0  0  0  0  0  0  0  0  0  0  0
   26.3031  -20.9527  -18.5098 C   0  0  0  0  0  0  0  0  0  0  0  0
   27.5240  -21.7113  -18.8081 C   0  0  0  0  0  0  0  0  0  0  0  0
   27.9830  -22.2076  -17.4504 N   0  0  0  0  0  0  0  0  0  0  0  0
   23.6717  -17.9493  -17.4884 C   0  0  0  0  0  0  0  0  0  0  0  0
   24.4918  -17.9612  -16.5499 O   0  0  0  0  0  0  0  0  0  0  0  0
   19.6205  -17.4943  -16.9106 O   0  0  0  0  0  0  0  0  0  0  0  0
   20.4677  -16.8054  -16.0713 C   0  0  0  0  0  0  0  0  0  0  0  0
   21.7493  -17.6128  -15.8750 C   0  0  2  0  0  0  0  0  0  0  0  0
   22.3048  -17.7732  -17.2055 N   0  0  0  0  0  0  0  0  0  0  0  0
   21.5028  -18.8948  -15.2061 C   0  0  0  0  0  0  0  0  0  0  0  0
   21.3151  -19.9269  -15.9237 O   0  0  0  0  0  0  0  0  0  0  0  0
   21.4542  -19.0882  -13.8040 N   0  0  0  0  0  0  0  0  0  0  0  0
   21.2272  -20.3873  -13.1787 C   0  0  1  0  0  0  0  0  0  0  0  0
   21.9827  -20.5266  -11.9037 C   0  0  0  0  0  0  0  0  0  0  0  0
   23.4064  -20.8365  -12.1183 C   0  0  0  0  0  0  0  0  0  0  0  0
   23.9632  -20.9865  -13.3779 C   0  0  0  0  0  0  0  0  0  0  0  0
   25.2955  -21.2641  -13.2670 N   0  0  0  0  0  0  0  0  0  0  0  0
   25.5570  -21.2843  -11.9354 C   0  0  0  0  0  0  0  0  0  0  0  0
   24.4294  -21.0300  -11.2755 N   0  0  0  0  0  0  0  0  0  0  0  0
   19.8037  -20.6488  -12.9617 C   0  0  0  0  0  0  0  0  0  0  0  0
   18.9730  -19.7241  -13.0723 O   0  0  0  0  0  0  0  0  0  0  0  0
   19.3475  -21.9122  -12.6325 O   0  0  0  0  0  0  0  0  0  0  0  0
  2  8  1  0
  2  1  1  1
  3  2  1  0
  4  3  1  0
  5  6  1  0
  5  4  1  0
  7  6  1  0
  8  9  2  0
 10 11  1  0
 12 11  1  6
 13 12  1  0
 13  8  1  0
 14 15  2  0
 14 12  1  0
 16 14  1  0
 17 24  1  0
 17 16  1  0
 17 18  1  1
 19 18  1  0
 20 19  2  0
 21 20  1  0
 22 21  1  0
 22 23  2  0
 23 19  1  0
 24 26  1  0
 25 24  2  0
M  END
$$$$
