KSH.pdb
     RDKit          3D

 26 26  0  0  1  0  0  0  0  0999 V2000
   32.6242    8.5889   -0.5940 N   0  0  0  0  0  0  0  0  0  0  0  0
   31.3353    8.0582   -0.8718 C   0  0  1  0  0  0  0  0  0  0  0  0
   30.9563    8.1537   -2.2870 C   0  0  0  0  0  0  0  0  0  0  0  0
   29.7445    7.5646   -2.8122 C   0  0  0  0  0  0  0  0  0  0  0  0
   29.2154    7.6276   -4.1549 C   0  0  0  0  0  0  0  0  0  0  0  0
   27.9116    7.1035   -4.5796 C   0  0  0  0  0  0  0  0  0  0  0  0
   27.8478    7.4437   -6.0563 N   0  0  0  0  0  0  0  0  0  0  0  0
   31.3143    6.6262   -0.3796 C   0  0  0  0  0  0  0  0  0  0  0  0
   32.2776    5.8872   -0.6613 O   0  0  0  0  0  0  0  0  0  0  0  0
   30.3425    3.5959    2.9381 O   0  0  0  0  0  0  0  0  0  0  0  0
   30.3465    4.8576    2.3861 C   0  0  0  0  0  0  0  0  0  0  0  0
   30.1700    4.7465    0.8731 C   0  0  2  0  0  0  0  0  0  0  0  0
   30.2493    6.1086    0.3803 N   0  0  0  0  0  0  0  0  0  0  0  0
   28.9138    4.0839    0.5062 C   0  0  0  0  0  0  0  0  0  0  0  0
   27.8335    4.7496    0.5787 O   0  0  0  0  0  0  0  0  0  0  0  0
   28.7955    2.7418    0.0702 N   0  0  0  0  0  0  0  0  0  0  0  0
   27.5151    2.0666   -0.1166 C   0  0  1  0  0  0  0  0  0  0  0  0
   27.6932    0.6539   -0.5506 C   0  0  0  0  0  0  0  0  0  0  0  0
   26.4119   -0.0379   -0.7717 C   0  0  0  0  0  0  0  0  0  0  0  0
   25.5069    0.3464   -1.7477 C   0  0  0  0  0  0  0  0  0  0  0  0
   24.4180   -0.4770   -1.7217 N   0  0  0  0  0  0  0  0  0  0  0  0
   24.6556   -1.3692   -0.7269 C   0  0  0  0  0  0  0  0  0  0  0  0
   25.8368   -1.0926   -0.1792 N   0  0  0  0  0  0  0  0  0  0  0  0
   26.6818    2.1321    1.0847 C   0  0  0  0  0  0  0  0  0  0  0  0
   25.4978    2.5187    1.0055 O   0  0  0  0  0  0  0  0  0  0  0  0
   27.1785    1.7715    2.3240 O   0  0  0  0  0  0  0  0  0  0  0  0
  2  8  1  0
  2  1  1  6
  3  2  1  0
  4  3  1  0
  5  6  1  0
  5  4  1  0
  7  6  1  0
  8  9  2  0
 10 11  1  0
 12 11  1  1
 13 12  1  0
 13  8  1  0
 14 15  2  0
 14 12  1  0
 16 14  1  0
 17 24  1  0
 17 16  1  0
 17 18  1  1
 19 18  1  0
 20 19  2  0
 21 20  1  0
 22 21  1  0
 22 23  2  0
 23 19  1  0
 24 26  1  0
 25 24  2  0
M  END
$$$$
