KSH.pdb
     RDKit          3D

 26 26  0  0  1  0  0  0  0  0999 V2000
   20.6404  -15.2895  -16.5317 N   0  0  0  0  0  0  0  0  0  0  0  0
   20.5189  -14.1223  -17.3337 C   0  0  1  0  0  0  0  0  0  0  0  0
   19.3868  -14.1697  -18.2673 C   0  0  0  0  0  0  0  0  0  0  0  0
   18.6324  -15.3775  -18.5189 C   0  0  0  0  0  0  0  0  0  0  0  0
   17.4984  -15.9040  -17.7952 C   0  0  0  0  0  0  0  0  0  0  0  0
   16.6769  -17.0452  -18.2170 C   0  0  0  0  0  0  0  0  0  0  0  0
   15.7969  -17.3227  -17.0133 N   0  0  0  0  0  0  0  0  0  0  0  0
   20.4285  -12.9332  -16.4003 C   0  0  0  0  0  0  0  0  0  0  0  0
   19.5114  -12.9089  -15.5567 O   0  0  0  0  0  0  0  0  0  0  0  0
   23.7023  -10.8750  -15.5770 O   0  0  0  0  0  0  0  0  0  0  0  0
   22.6150  -10.8623  -14.7317 C   0  0  0  0  0  0  0  0  0  0  0  0
   21.3368  -10.7254  -15.5565 C   0  0  2  0  0  0  0  0  0  0  0  0
   21.3411  -11.8639  -16.4555 N   0  0  0  0  0  0  0  0  0  0  0  0
   21.2667   -9.4436  -16.2662 C   0  0  0  0  0  0  0  0  0  0  0  0
   21.9041   -9.3199  -17.3589 O   0  0  0  0  0  0  0  0  0  0  0  0
   20.5377   -8.3093  -15.8333 N   0  0  0  0  0  0  0  0  0  0  0  0
   20.5221   -7.0402  -16.5539 C   0  0  1  0  0  0  0  0  0  0  0  0
   19.2748   -6.2710  -16.2920 C   0  0  0  0  0  0  0  0  0  0  0  0
   18.0919   -6.8734  -16.9298 C   0  0  0  0  0  0  0  0  0  0  0  0
   18.1760   -7.9023  -17.8537 C   0  0  0  0  0  0  0  0  0  0  0  0
   16.9245   -8.2585  -18.2678 N   0  0  0  0  0  0  0  0  0  0  0  0
   16.0701   -7.4457  -17.5960 C   0  0  0  0  0  0  0  0  0  0  0  0
   16.7788   -6.6363  -16.8124 N   0  0  0  0  0  0  0  0  0  0  0  0
   21.6994   -6.2250  -16.2517 C   0  0  0  0  0  0  0  0  0  0  0  0
   22.5108   -6.5959  -15.3791 O   0  0  0  0  0  0  0  0  0  0  0  0
   21.9406   -5.0370  -16.9173 O   0  0  0  0  0  0  0  0  0  0  0  0
  2  8  1  0
  2  1  1  1
  3  2  1  0
  4  3  1  0
  5  6  1  0
  5  4  1  0
  7  6  1  0
  8  9  2  0
 10 11  1  0
 12 11  1  6
 13 12  1  0
 13  8  1  0
 14 15  2  0
 14 12  1  0
 16 14  1  0
 17 24  1  0
 17 16  1  0
 17 18  1  1
 19 18  1  0
 20 19  2  0
 21 20  1  0
 22 21  1  0
 22 23  2  0
 23 19  1  0
 24 26  1  0
 25 24  2  0
M  END
$$$$
