KSH.pdb
     RDKit          3D

 26 26  0  0  1  0  0  0  0  0999 V2000
   26.0333  -14.0358  -18.6690 N   0  0  0  0  0  0  0  0  0  0  0  0
   25.6194  -12.9345  -19.4665 C   0  0  1  0  0  0  0  0  0  0  0  0
   24.4536  -13.2283  -20.3091 C   0  0  0  0  0  0  0  0  0  0  0  0
   24.5189  -14.1130  -21.4512 C   0  0  0  0  0  0  0  0  0  0  0  0
   25.0375  -15.4593  -21.5252 C   0  0  0  0  0  0  0  0  0  0  0  0
   25.0970  -16.2812  -22.7401 C   0  0  0  0  0  0  0  0  0  0  0  0
   25.7398  -17.5729  -22.2726 N   0  0  0  0  0  0  0  0  0  0  0  0
   25.3611  -11.7676  -18.5366 C   0  0  0  0  0  0  0  0  0  0  0  0
   25.1196  -12.0062  -17.3373 O   0  0  0  0  0  0  0  0  0  0  0  0
   24.5720   -7.9329  -19.9413 O   0  0  0  0  0  0  0  0  0  0  0  0
   25.5845   -8.0757  -19.0187 C   0  0  0  0  0  0  0  0  0  0  0  0
   25.2810   -9.2715  -18.1183 C   0  0  2  0  0  0  0  0  0  0  0  0
   25.3858  -10.4330  -18.9812 N   0  0  0  0  0  0  0  0  0  0  0  0
   23.9688   -9.1630  -17.4718 C   0  0  0  0  0  0  0  0  0  0  0  0
   22.9556   -9.6405  -18.0725 O   0  0  0  0  0  0  0  0  0  0  0  0
   23.7259   -8.5611  -16.2132 N   0  0  0  0  0  0  0  0  0  0  0  0
   22.4128   -8.5297  -15.5767 C   0  0  1  0  0  0  0  0  0  0  0  0
   22.4795   -8.9515  -14.1507 C   0  0  0  0  0  0  0  0  0  0  0  0
   21.1573   -8.9726  -13.5024 C   0  0  0  0  0  0  0  0  0  0  0  0
   19.9726   -8.8100  -14.2020 C   0  0  0  0  0  0  0  0  0  0  0  0
   18.9129   -8.8797  -13.3437 N   0  0  0  0  0  0  0  0  0  0  0  0
   19.4489   -9.0858  -12.1141 C   0  0  0  0  0  0  0  0  0  0  0  0
   20.7739   -9.1373  -12.2296 N   0  0  0  0  0  0  0  0  0  0  0  0
   21.7799   -7.2153  -15.6928 C   0  0  0  0  0  0  0  0  0  0  0  0
   22.4814   -6.1843  -15.7414 O   0  0  0  0  0  0  0  0  0  0  0  0
   20.4045   -7.0830  -15.7512 O   0  0  0  0  0  0  0  0  0  0  0  0
  2  8  1  0
  2  1  1  1
  3  2  1  0
  4  3  1  0
  5  6  1  0
  5  4  1  0
  7  6  1  0
  8  9  2  0
 10 11  1  0
 12 11  1  6
 13 12  1  0
 13  8  1  0
 14 15  2  0
 14 12  1  0
 16 14  1  0
 17 24  1  0
 17 16  1  0
 17 18  1  1
 19 18  1  0
 20 19  2  0
 21 20  1  0
 22 21  1  0
 22 23  2  0
 23 19  1  0
 24 26  1  0
 25 24  2  0
M  END
$$$$
