KSH.pdb
     RDKit          3D

 26 26  0  0  1  0  0  0  0  0999 V2000
   19.8628  -13.3470  -16.6796 N   0  0  0  0  0  0  0  0  0  0  0  0
   19.0640  -12.2822  -17.1782 C   0  0  1  0  0  0  0  0  0  0  0  0
   17.6657  -12.6616  -17.4147 C   0  0  0  0  0  0  0  0  0  0  0  0
   17.2747  -13.9978  -17.8060 C   0  0  0  0  0  0  0  0  0  0  0  0
   16.5910  -15.0053  -17.0287 C   0  0  0  0  0  0  0  0  0  0  0  0
   16.1103  -16.2936  -17.5426 C   0  0  0  0  0  0  0  0  0  0  0  0
   15.6332  -17.0236  -16.3017 N   0  0  0  0  0  0  0  0  0  0  0  0
   19.1765  -11.1300  -16.2019 C   0  0  0  0  0  0  0  0  0  0  0  0
   18.9754  -11.3546  -14.9925 O   0  0  0  0  0  0  0  0  0  0  0  0
   21.4362   -8.5394  -14.0893 O   0  0  0  0  0  0  0  0  0  0  0  0
   21.2249   -8.7123  -15.4392 C   0  0  0  0  0  0  0  0  0  0  0  0
   19.7235   -8.7052  -15.7195 C   0  0  2  0  0  0  0  0  0  0  0  0
   19.4990   -9.8243  -16.6149 N   0  0  0  0  0  0  0  0  0  0  0  0
   19.2682   -7.4295  -16.2824 C   0  0  0  0  0  0  0  0  0  0  0  0
   19.4707   -7.2047  -17.5169 O   0  0  0  0  0  0  0  0  0  0  0  0
   18.6104   -6.4057  -15.5581 N   0  0  0  0  0  0  0  0  0  0  0  0
   18.2551   -5.1130  -16.1352 C   0  0  1  0  0  0  0  0  0  0  0  0
   17.2763   -4.3793  -15.2871 C   0  0  0  0  0  0  0  0  0  0  0  0
   16.8213   -3.1217  -15.9040 C   0  0  0  0  0  0  0  0  0  0  0  0
   17.6600   -2.0395  -16.1151 C   0  0  0  0  0  0  0  0  0  0  0  0
   16.9660   -1.0217  -16.7042 N   0  0  0  0  0  0  0  0  0  0  0  0
   15.6978   -1.4808  -16.8550 C   0  0  0  0  0  0  0  0  0  0  0  0
   15.6336   -2.7212  -16.3765 N   0  0  0  0  0  0  0  0  0  0  0  0
   19.4346   -4.2847  -16.3894 C   0  0  0  0  0  0  0  0  0  0  0  0
   20.3792   -4.2729  -15.5739 O   0  0  0  0  0  0  0  0  0  0  0  0
   19.5319   -3.5030  -17.5261 O   0  0  0  0  0  0  0  0  0  0  0  0
  2  8  1  0
  2  1  1  1
  3  2  1  0
  4  3  1  0
  5  6  1  0
  5  4  1  0
  7  6  1  0
  8  9  2  0
 10 11  1  0
 12 11  1  6
 13 12  1  0
 13  8  1  0
 14 15  2  0
 14 12  1  0
 16 14  1  0
 17 24  1  0
 17 16  1  0
 17 18  1  1
 19 18  1  0
 20 19  2  0
 21 20  1  0
 22 21  1  0
 22 23  2  0
 23 19  1  0
 24 26  1  0
 25 24  2  0
M  END
$$$$
