KSH.pdb
     RDKit          3D

 26 26  0  0  1  0  0  0  0  0999 V2000
   20.5173  -14.8650  -16.3696 N   0  0  0  0  0  0  0  0  0  0  0  0
   19.8335  -13.7884  -16.9971 C   0  0  1  0  0  0  0  0  0  0  0  0
   18.4331  -14.0921  -17.3165 C   0  0  0  0  0  0  0  0  0  0  0  0
   18.0091  -15.3791  -17.8218 C   0  0  0  0  0  0  0  0  0  0  0  0
   16.6769  -15.8257  -18.1575 C   0  0  0  0  0  0  0  0  0  0  0  0
   16.3364  -17.1422  -18.7106 C   0  0  0  0  0  0  0  0  0  0  0  0
   14.8198  -17.1539  -18.7110 N   0  0  0  0  0  0  0  0  0  0  0  0
   19.9543  -12.5802  -16.0921 C   0  0  0  0  0  0  0  0  0  0  0  0
   19.3290  -12.5809  -15.0140 O   0  0  0  0  0  0  0  0  0  0  0  0
   22.6655   -8.8156  -14.9621 O   0  0  0  0  0  0  0  0  0  0  0  0
   22.4132   -9.9679  -15.6729 C   0  0  0  0  0  0  0  0  0  0  0  0
   20.9237  -10.2954  -15.5902 C   0  0  2  0  0  0  0  0  0  0  0  0
   20.7450  -11.4660  -16.4282 N   0  0  0  0  0  0  0  0  0  0  0  0
   20.0819   -9.1681  -16.0052 C   0  0  0  0  0  0  0  0  0  0  0  0
   19.9629   -8.9252  -17.2471 O   0  0  0  0  0  0  0  0  0  0  0  0
   19.3763   -8.3094  -15.1276 N   0  0  0  0  0  0  0  0  0  0  0  0
   18.6059   -7.1548  -15.5789 C   0  0  1  0  0  0  0  0  0  0  0  0
   17.5933   -6.7375  -14.5707 C   0  0  0  0  0  0  0  0  0  0  0  0
   16.8101   -5.5677  -15.0033 C   0  0  0  0  0  0  0  0  0  0  0  0
   17.3701   -4.4919  -15.6728 C   0  0  0  0  0  0  0  0  0  0  0  0
   16.4070   -3.5641  -15.9488 N   0  0  0  0  0  0  0  0  0  0  0  0
   15.2528   -4.0721  -15.4473 C   0  0  0  0  0  0  0  0  0  0  0  0
   15.5124   -5.2544  -14.8937 N   0  0  0  0  0  0  0  0  0  0  0  0
   19.4682   -6.0273  -15.9356 C   0  0  0  0  0  0  0  0  0  0  0  0
   20.5025   -5.7968  -15.2764 O   0  0  0  0  0  0  0  0  0  0  0  0
   19.1631   -5.1982  -16.9995 O   0  0  0  0  0  0  0  0  0  0  0  0
  2  8  1  0
  2  1  1  1
  3  2  1  0
  4  3  1  0
  5  6  1  0
  5  4  1  0
  7  6  1  0
  8  9  2  0
 10 11  1  0
 12 11  1  6
 13 12  1  0
 13  8  1  0
 14 15  2  0
 14 12  1  0
 16 14  1  0
 17 24  1  0
 17 16  1  0
 17 18  1  1
 19 18  1  0
 20 19  2  0
 21 20  1  0
 22 21  1  0
 22 23  2  0
 23 19  1  0
 24 26  1  0
 25 24  2  0
M  END
$$$$
