KSH.pdb
     RDKit          3D

 26 26  0  0  1  0  0  0  0  0999 V2000
   14.4820  -13.0013  -16.2316 N   0  0  0  0  0  0  0  0  0  0  0  0
   15.6164  -12.6262  -15.4616 C   0  0  1  0  0  0  0  0  0  0  0  0
   16.6618  -13.6561  -15.4208 C   0  0  0  0  0  0  0  0  0  0  0  0
   16.4152  -15.0006  -14.9486 C   0  0  0  0  0  0  0  0  0  0  0  0
   17.3058  -16.1380  -14.9494 C   0  0  0  0  0  0  0  0  0  0  0  0
   16.9746  -17.4765  -14.4457 C   0  0  0  0  0  0  0  0  0  0  0  0
   18.2342  -18.2818  -14.7011 N   0  0  0  0  0  0  0  0  0  0  0  0
   16.1369  -11.3186  -16.0208 C   0  0  0  0  0  0  0  0  0  0  0  0
   16.3190  -11.2293  -17.2505 O   0  0  0  0  0  0  0  0  0  0  0  0
   16.7104   -8.1764  -13.4455 O   0  0  0  0  0  0  0  0  0  0  0  0
   16.3664   -7.8887  -14.7476 C   0  0  0  0  0  0  0  0  0  0  0  0
   16.9603   -8.9496  -15.6721 C   0  0  2  0  0  0  0  0  0  0  0  0
   16.4184  -10.2102  -15.2012 N   0  0  0  0  0  0  0  0  0  0  0  0
   18.4270   -8.9290  -15.6735 C   0  0  0  0  0  0  0  0  0  0  0  0
   19.0440   -9.6283  -14.8099 O   0  0  0  0  0  0  0  0  0  0  0  0
   19.2323   -8.1842  -16.5691 N   0  0  0  0  0  0  0  0  0  0  0  0
   20.6875   -8.1183  -16.4775 C   0  0  1  0  0  0  0  0  0  0  0  0
   21.3341   -8.3102  -17.8045 C   0  0  0  0  0  0  0  0  0  0  0  0
   22.7893   -8.0869  -17.7645 C   0  0  0  0  0  0  0  0  0  0  0  0
   23.7020   -9.1052  -17.5429 C   0  0  0  0  0  0  0  0  0  0  0  0
   24.9719   -8.6040  -17.5647 N   0  0  0  0  0  0  0  0  0  0  0  0
   24.8380   -7.2742  -17.8005 C   0  0  0  0  0  0  0  0  0  0  0  0
   23.5429   -6.9897  -17.9151 N   0  0  0  0  0  0  0  0  0  0  0  0
   21.1409   -6.8700  -15.8626 C   0  0  0  0  0  0  0  0  0  0  0  0
   22.3411   -6.7241  -15.5531 O   0  0  0  0  0  0  0  0  0  0  0  0
   20.2620   -5.8322  -15.6116 O   0  0  0  0  0  0  0  0  0  0  0  0
  2  8  1  0
  2  1  1  6
  3  2  1  0
  4  3  1  0
  5  6  1  0
  5  4  1  0
  7  6  1  0
  8  9  2  0
 10 11  1  0
 12 11  1  1
 13 12  1  0
 13  8  1  0
 14 15  2  0
 14 12  1  0
 16 14  1  0
 17 24  1  0
 17 16  1  0
 17 18  1  6
 19 18  1  0
 20 19  2  0
 21 20  1  0
 22 21  1  0
 22 23  2  0
 23 19  1  0
 24 26  1  0
 25 24  2  0
M  END
$$$$
