KSH.pdb
     RDKit          3D

 26 26  0  0  1  0  0  0  0  0999 V2000
   26.0682  -22.6411  -18.7563 N   0  0  0  0  0  0  0  0  0  0  0  0
   25.5576  -23.8612  -19.2769 C   0  0  1  0  0  0  0  0  0  0  0  0
   26.2993  -24.3546  -20.4439 C   0  0  0  0  0  0  0  0  0  0  0  0
   27.7414  -24.4598  -20.4651 C   0  0  0  0  0  0  0  0  0  0  0  0
   28.5757  -25.5561  -20.0301 C   0  0  0  0  0  0  0  0  0  0  0  0
   30.0423  -25.5828  -20.0891 C   0  0  0  0  0  0  0  0  0  0  0  0
   30.4053  -26.9214  -19.4755 N   0  0  0  0  0  0  0  0  0  0  0  0
   25.5477  -24.8715  -18.1489 C   0  0  0  0  0  0  0  0  0  0  0  0
   26.2153  -24.6256  -17.1255 O   0  0  0  0  0  0  0  0  0  0  0  0
   22.9013  -28.2034  -18.1197 O   0  0  0  0  0  0  0  0  0  0  0  0
   23.2663  -27.4214  -17.0464 C   0  0  0  0  0  0  0  0  0  0  0  0
   24.7462  -27.0624  -17.1644 C   0  0  2  0  0  0  0  0  0  0  0  0
   24.8133  -26.0695  -18.2198 N   0  0  0  0  0  0  0  0  0  0  0  0
   25.5837  -28.2355  -17.4365 C   0  0  0  0  0  0  0  0  0  0  0  0
   26.4028  -28.1838  -18.4070 O   0  0  0  0  0  0  0  0  0  0  0  0
   25.5599  -29.4445  -16.6995 N   0  0  0  0  0  0  0  0  0  0  0  0
   26.5705  -30.4889  -16.8346 C   0  0  1  0  0  0  0  0  0  0  0  0
   27.9265  -29.9969  -16.4674 C   0  0  0  0  0  0  0  0  0  0  0  0
   28.9628  -31.0346  -16.6025 C   0  0  0  0  0  0  0  0  0  0  0  0
   28.6988  -32.3039  -17.0908 C   0  0  0  0  0  0  0  0  0  0  0  0
   29.8463  -33.0438  -17.1062 N   0  0  0  0  0  0  0  0  0  0  0  0
   30.8172  -32.2261  -16.6259 C   0  0  0  0  0  0  0  0  0  0  0  0
   30.2753  -31.0459  -16.3347 N   0  0  0  0  0  0  0  0  0  0  0  0
   26.2311  -31.6823  -16.0584 C   0  0  0  0  0  0  0  0  0  0  0  0
   26.9394  -32.7063  -16.1420 O   0  0  0  0  0  0  0  0  0  0  0  0
   25.1299  -31.7060  -15.2220 O   0  0  0  0  0  0  0  0  0  0  0  0
  2  8  1  0
  2  1  1  1
  3  2  1  0
  4  3  1  0
  5  6  1  0
  5  4  1  0
  7  6  1  0
  8  9  2  0
 10 11  1  0
 12 11  1  6
 13 12  1  0
 13  8  1  0
 14 15  2  0
 14 12  1  0
 16 14  1  0
 17 24  1  0
 17 16  1  0
 17 18  1  1
 19 18  1  0
 20 19  2  0
 21 20  1  0
 22 21  1  0
 22 23  2  0
 23 19  1  0
 24 26  1  0
 25 24  2  0
M  END
$$$$
