KSH.pdb
     RDKit          3D

 26 26  0  0  1  0  0  0  0  0999 V2000
   15.7719  -13.6496  -15.3984 N   0  0  0  0  0  0  0  0  0  0  0  0
   17.1195  -13.2627  -15.6322 C   0  0  1  0  0  0  0  0  0  0  0  0
   17.8242  -14.1396  -16.5755 C   0  0  0  0  0  0  0  0  0  0  0  0
   17.9096  -15.5719  -16.3954 C   0  0  0  0  0  0  0  0  0  0  0  0
   18.7310  -16.5261  -17.1036 C   0  0  0  0  0  0  0  0  0  0  0  0
   18.6921  -17.9820  -16.9198 C   0  0  0  0  0  0  0  0  0  0  0  0
   19.7305  -18.4985  -17.8972 N   0  0  0  0  0  0  0  0  0  0  0  0
   17.1071  -11.8238  -16.1040 C   0  0  0  0  0  0  0  0  0  0  0  0
   16.2253  -11.4711  -16.9111 O   0  0  0  0  0  0  0  0  0  0  0  0
   16.6634   -9.0581  -14.1166 O   0  0  0  0  0  0  0  0  0  0  0  0
   16.6963   -8.9495  -15.4891 C   0  0  0  0  0  0  0  0  0  0  0  0
   18.0365   -9.4705  -16.0040 C   0  0  2  0  0  0  0  0  0  0  0  0
   18.0527  -10.8803  -15.6623 N   0  0  0  0  0  0  0  0  0  0  0  0
   19.1737   -8.7374  -15.4375 C   0  0  0  0  0  0  0  0  0  0  0  0
   19.5512   -9.0217  -14.2575 O   0  0  0  0  0  0  0  0  0  0  0  0
   19.9025   -7.7208  -16.1014 N   0  0  0  0  0  0  0  0  0  0  0  0
   20.9496   -6.9320  -15.4599 C   0  0  1  0  0  0  0  0  0  0  0  0
   22.2150   -6.9515  -16.2436 C   0  0  0  0  0  0  0  0  0  0  0  0
   22.6154   -8.3118  -16.6416 C   0  0  0  0  0  0  0  0  0  0  0  0
   21.8586   -9.4352  -16.3512 C   0  0  0  0  0  0  0  0  0  0  0  0
   22.4728  -10.5498  -16.8458 N   0  0  0  0  0  0  0  0  0  0  0  0
   23.6098  -10.1091  -17.4415 C   0  0  0  0  0  0  0  0  0  0  0  0
   23.6750   -8.7862  -17.3097 N   0  0  0  0  0  0  0  0  0  0  0  0
   20.5222   -5.5545  -15.2115 C   0  0  0  0  0  0  0  0  0  0  0  0
   19.4745   -5.1202  -15.7321 O   0  0  0  0  0  0  0  0  0  0  0  0
   21.2593   -4.7085  -14.4031 O   0  0  0  0  0  0  0  0  0  0  0  0
  2  8  1  0
  2  1  1  6
  3  2  1  0
  4  3  1  0
  5  6  1  0
  5  4  1  0
  7  6  1  0
  8  9  2  0
 10 11  1  0
 12 11  1  1
 13 12  1  0
 13  8  1  0
 14 15  2  0
 14 12  1  0
 16 14  1  0
 17 24  1  0
 17 16  1  0
 17 18  1  6
 19 18  1  0
 20 19  2  0
 21 20  1  0
 22 21  1  0
 22 23  2  0
 23 19  1  0
 24 26  1  0
 25 24  2  0
M  END
$$$$
