KSH.pdb
     RDKit          3D

 26 26  0  0  1  0  0  0  0  0999 V2000
   19.4714  -13.4551  -15.6182 N   0  0  0  0  0  0  0  0  0  0  0  0
   18.9614  -12.4163  -16.4434 C   0  0  1  0  0  0  0  0  0  0  0  0
   17.5527  -12.6017  -16.8132 C   0  0  0  0  0  0  0  0  0  0  0  0
   17.0612  -13.8123  -17.4330 C   0  0  0  0  0  0  0  0  0  0  0  0
   16.9120  -15.1285  -16.8565 C   0  0  0  0  0  0  0  0  0  0  0  0
   16.4044  -16.3120  -17.5613 C   0  0  0  0  0  0  0  0  0  0  0  0
   16.5439  -17.4275  -16.5431 N   0  0  0  0  0  0  0  0  0  0  0  0
   19.1845  -11.1053  -15.7190 C   0  0  0  0  0  0  0  0  0  0  0  0
   18.7061  -10.9694  -14.5761 O   0  0  0  0  0  0  0  0  0  0  0  0
   22.2271   -7.7297  -14.8296 O   0  0  0  0  0  0  0  0  0  0  0  0
   21.7945   -8.8388  -15.5220 C   0  0  0  0  0  0  0  0  0  0  0  0
   20.2693   -8.8203  -15.6014 C   0  0  2  0  0  0  0  0  0  0  0  0
   19.9100  -10.0446  -16.2917 N   0  0  0  0  0  0  0  0  0  0  0  0
   19.7614   -7.6204  -16.2751 C   0  0  0  0  0  0  0  0  0  0  0  0
   19.9528   -7.5004  -17.5258 O   0  0  0  0  0  0  0  0  0  0  0  0
   19.0631   -6.5629  -15.6430 N   0  0  0  0  0  0  0  0  0  0  0  0
   18.7024   -5.3203  -16.3184 C   0  0  1  0  0  0  0  0  0  0  0  0
   17.7127   -4.5320  -15.5342 C   0  0  0  0  0  0  0  0  0  0  0  0
   17.2445   -3.3341  -16.2517 C   0  0  0  0  0  0  0  0  0  0  0  0
   16.3344   -3.3883  -17.2948 C   0  0  0  0  0  0  0  0  0  0  0  0
   16.0858   -2.1290  -17.7605 N   0  0  0  0  0  0  0  0  0  0  0  0
   16.8454   -1.2997  -17.0008 C   0  0  0  0  0  0  0  0  0  0  0  0
   17.5212   -2.0304  -16.1171 N   0  0  0  0  0  0  0  0  0  0  0  0
   19.8775   -4.5046  -16.6275 C   0  0  0  0  0  0  0  0  0  0  0  0
   20.9021   -4.5887  -15.9199 O   0  0  0  0  0  0  0  0  0  0  0  0
   19.8832   -3.6299  -17.6987 O   0  0  0  0  0  0  0  0  0  0  0  0
  2  8  1  0
  2  1  1  1
  3  2  1  0
  4  3  1  0
  5  6  1  0
  5  4  1  0
  7  6  1  0
  8  9  2  0
 10 11  1  0
 12 11  1  6
 13 12  1  0
 13  8  1  0
 14 15  2  0
 14 12  1  0
 16 14  1  0
 17 24  1  0
 17 16  1  0
 17 18  1  1
 19 18  1  0
 20 19  2  0
 21 20  1  0
 22 21  1  0
 22 23  2  0
 23 19  1  0
 24 26  1  0
 25 24  2  0
M  END
$$$$
