KSH.pdb
     RDKit          3D

 26 26  0  0  1  0  0  0  0  0999 V2000
   20.3333  -13.1330  -17.2590 N   0  0  0  0  0  0  0  0  0  0  0  0
   20.0111  -11.8304  -17.7276 C   0  0  1  0  0  0  0  0  0  0  0  0
   18.5808  -11.5126  -17.6342 C   0  0  0  0  0  0  0  0  0  0  0  0
   17.5601  -12.5315  -17.5274 C   0  0  0  0  0  0  0  0  0  0  0  0
   16.5644  -12.7109  -16.4962 C   0  0  0  0  0  0  0  0  0  0  0  0
   15.4100  -13.6139  -16.5780 C   0  0  0  0  0  0  0  0  0  0  0  0
   14.7703  -13.5095  -15.2068 N   0  0  0  0  0  0  0  0  0  0  0  0
   20.8581  -10.8429  -16.9524 C   0  0  0  0  0  0  0  0  0  0  0  0
   21.1526  -11.1117  -15.7716 O   0  0  0  0  0  0  0  0  0  0  0  0
   23.7065   -8.5270  -18.6814 O   0  0  0  0  0  0  0  0  0  0  0  0
   22.7587   -7.8194  -17.9760 C   0  0  0  0  0  0  0  0  0  0  0  0
   22.2016   -8.6986  -16.8582 C   0  0  2  0  0  0  0  0  0  0  0  0
   21.3196   -9.6411  -17.5202 N   0  0  0  0  0  0  0  0  0  0  0  0
   21.5192   -7.9162  -15.8220 C   0  0  0  0  0  0  0  0  0  0  0  0
   20.3335   -7.5169  -16.0460 O   0  0  0  0  0  0  0  0  0  0  0  0
   22.0754   -7.5589  -14.5696 N   0  0  0  0  0  0  0  0  0  0  0  0
   21.3484   -6.8065  -13.5519 C   0  0  1  0  0  0  0  0  0  0  0  0
   21.5124   -7.4054  -12.1991 C   0  0  0  0  0  0  0  0  0  0  0  0
   20.7270   -6.7047  -11.1690 C   0  0  0  0  0  0  0  0  0  0  0  0
   19.3500   -6.5678  -11.2349 C   0  0  0  0  0  0  0  0  0  0  0  0
   18.8987   -5.8802  -10.1449 N   0  0  0  0  0  0  0  0  0  0  0  0
   20.0020   -5.5944   -9.4081 C   0  0  0  0  0  0  0  0  0  0  0  0
   21.0698   -6.0893  -10.0296 N   0  0  0  0  0  0  0  0  0  0  0  0
   21.7327   -5.3944  -13.5368 C   0  0  0  0  0  0  0  0  0  0  0  0
   22.9369   -5.0723  -13.5960 O   0  0  0  0  0  0  0  0  0  0  0  0
   20.7829   -4.3923  -13.4577 O   0  0  0  0  0  0  0  0  0  0  0  0
  2  8  1  0
  2  1  1  1
  3  2  1  0
  4  3  1  0
  5  6  1  0
  5  4  1  0
  7  6  1  0
  8  9  2  0
 10 11  1  0
 12 11  1  6
 13 12  1  0
 13  8  1  0
 14 15  2  0
 14 12  1  0
 16 14  1  0
 17 24  1  0
 17 16  1  0
 17 18  1  1
 19 18  1  0
 20 19  2  0
 21 20  1  0
 22 21  1  0
 22 23  2  0
 23 19  1  0
 24 26  1  0
 25 24  2  0
M  END
$$$$
