ACE.pdb
     RDKit          3D

 21 20  0  0  1  0  0  0  0  0999 V2000
    7.2871  -16.8542   21.4905 C   0  0  0  0  0  0  0  0  0  0  0  0
    7.2292  -15.3322   21.3347 C   0  0  2  0  0  0  0  0  0  0  0  0
    8.0791  -15.0072   20.2069 N   0  0  0  0  0  0  0  0  0  0  0  0
    7.7835  -14.6556   22.5292 C   0  0  0  0  0  0  0  0  0  0  0  0
    9.0158  -14.4760   22.6484 O   0  0  0  0  0  0  0  0  0  0  0  0
    6.9524  -14.1788   23.5933 N   0  0  0  0  0  0  0  0  0  0  0  0
    7.4604  -13.6325   24.8092 C   0  0  1  0  0  0  0  0  0  0  0  0
    6.3589  -13.0541   25.6901 C   0  0  0  0  0  0  0  0  0  0  0  0
    7.0781  -12.4667   27.2254 S   0  0  0  0  0  0  0  0  0  0  0  0
    8.1950  -14.6137   25.6358 C   0  0  0  0  0  0  0  0  0  0  0  0
    7.6394  -15.7146   25.8840 O   0  0  0  0  0  0  0  0  0  0  0  0
    9.4897  -14.3915   26.1680 N   0  0  0  0  0  0  0  0  0  0  0  0
   10.2843  -15.4513   26.8006 C   0  0  1  0  0  0  0  0  0  0  0  0
   11.6587  -15.4914   26.2130 C   0  0  0  0  0  0  0  0  0  0  0  0
   12.4855  -16.5528   26.8742 C   0  0  0  0  0  0  0  0  0  0  0  0
   13.8291  -16.6746   26.2329 C   0  0  0  0  0  0  0  0  0  0  0  0
   14.5567  -17.6267   26.5387 O   0  0  0  0  0  0  0  0  0  0  0  0
   10.3435  -15.1331   28.2341 C   0  0  0  0  0  0  0  0  0  0  0  0
    9.9500  -13.9496   28.8080 O   0  0  0  0  0  0  0  0  0  0  0  0
   14.2134  -15.7210   25.3213 O   0  0  0  0  0  0  0  0  0  0  0  0
   10.7997  -16.0145   29.0439 O   0  0  0  0  0  0  0  0  0  0  0  0
  2  1  1  1
  3  2  1  0
  4  6  1  0
  4  2  1  0
  5  4  2  0
  7  8  1  1
  7  6  1  0
  9  8  1  0
 10  7  1  0
 10 12  1  0
 11 10  2  0
 13 12  1  0
 13 14  1  6
 14 15  1  0
 16 20  1  0
 16 15  1  0
 17 16  2  0
 18 13  1  0
 19 18  1  0
 21 18  2  0
M  END
$$$$
