ACE.pdb
     RDKit          3D

 21 20  0  0  1  0  0  0  0  0999 V2000
    6.7676  -14.8484   20.0177 C   0  0  0  0  0  0  0  0  0  0  0  0
    7.0689  -13.4687   20.6090 C   0  0  2  0  0  0  0  0  0  0  0  0
    7.9030  -12.7856   19.6408 N   0  0  0  0  0  0  0  0  0  0  0  0
    7.8404  -13.5881   21.8670 C   0  0  0  0  0  0  0  0  0  0  0  0
    9.0818  -13.7404   21.8440 O   0  0  0  0  0  0  0  0  0  0  0  0
    7.2168  -13.5363   23.1550 N   0  0  0  0  0  0  0  0  0  0  0  0
    7.9308  -13.6541   24.3843 C   0  0  1  0  0  0  0  0  0  0  0  0
    7.0743  -13.2849   25.5901 C   0  0  0  0  0  0  0  0  0  0  0  0
    5.5146  -14.1673   25.4989 S   0  0  0  0  0  0  0  0  0  0  0  0
    8.4547  -15.0137   24.6349 C   0  0  0  0  0  0  0  0  0  0  0  0
    7.8356  -15.9892   24.1373 O   0  0  0  0  0  0  0  0  0  0  0  0
    9.6139  -15.2882   25.4027 N   0  0  0  0  0  0  0  0  0  0  0  0
   10.3483  -16.5560   25.3123 C   0  0  1  0  0  0  0  0  0  0  0  0
   11.6965  -16.3334   24.7052 C   0  0  0  0  0  0  0  0  0  0  0  0
   12.4689  -17.6170   24.6481 C   0  0  0  0  0  0  0  0  0  0  0  0
   13.8379  -17.4042   24.0895 C   0  0  0  0  0  0  0  0  0  0  0  0
   14.1903  -16.2591   23.7829 O   0  0  0  0  0  0  0  0  0  0  0  0
   10.4766  -17.0660   26.6846 C   0  0  0  0  0  0  0  0  0  0  0  0
   10.8346  -18.3448   27.0329 O   0  0  0  0  0  0  0  0  0  0  0  0
   14.6629  -18.4919   23.9342 O   0  0  0  0  0  0  0  0  0  0  0  0
   10.2376  -16.2739   27.6626 O   0  0  0  0  0  0  0  0  0  0  0  0
  2  1  1  6
  3  2  1  0
  4  6  1  0
  4  2  1  0
  5  4  2  0
  7  8  1  1
  7  6  1  0
  9  8  1  0
 10  7  1  0
 10 12  1  0
 11 10  2  0
 13 12  1  0
 13 14  1  1
 14 15  1  0
 16 20  1  0
 16 15  1  0
 17 16  2  0
 18 13  1  0
 19 18  1  0
 21 18  2  0
M  END
$$$$
