ACE.pdb
     RDKit          3D

 21 20  0  0  1  0  0  0  0  0999 V2000
    7.9296  -13.8957   14.9005 C   0  0  0  0  0  0  0  0  0  0  0  0
    8.1940  -15.0486   15.8726 C   0  0  2  0  0  0  0  0  0  0  0  0
    6.8940  -15.5361   16.2872 N   0  0  0  0  0  0  0  0  0  0  0  0
    8.9048  -14.5711   17.0804 C   0  0  0  0  0  0  0  0  0  0  0  0
   10.1397  -14.3728   17.0593 O   0  0  0  0  0  0  0  0  0  0  0  0
    8.2275  -14.3152   18.3159 N   0  0  0  0  0  0  0  0  0  0  0  0
    8.8982  -13.9954   19.5335 C   0  0  1  0  0  0  0  0  0  0  0  0
    7.9411  -13.4908   20.6075 C   0  0  0  0  0  0  0  0  0  0  0  0
    6.8000  -14.8043   21.0458 S   0  0  0  0  0  0  0  0  0  0  0  0
    9.6327  -15.1363   20.1204 C   0  0  0  0  0  0  0  0  0  0  0  0
    9.1193  -16.2813   20.0318 O   0  0  0  0  0  0  0  0  0  0  0  0
   10.8826  -15.0212   20.7785 N   0  0  0  0  0  0  0  0  0  0  0  0
   11.6406  -16.1827   21.2591 C   0  0  1  0  0  0  0  0  0  0  0  0
   13.0353  -16.1521   20.7208 C   0  0  0  0  0  0  0  0  0  0  0  0
   13.5327  -14.7414   20.6215 C   0  0  0  0  0  0  0  0  0  0  0  0
   14.9058  -14.6883   20.0357 C   0  0  0  0  0  0  0  0  0  0  0  0
   15.4894  -15.7472   19.7754 O   0  0  0  0  0  0  0  0  0  0  0  0
   11.6504  -16.1002   22.7263 C   0  0  0  0  0  0  0  0  0  0  0  0
   11.0643  -15.1107   23.4761 O   0  0  0  0  0  0  0  0  0  0  0  0
   15.4769  -13.4601   19.8048 O   0  0  0  0  0  0  0  0  0  0  0  0
   12.2523  -17.0142   23.3922 O   0  0  0  0  0  0  0  0  0  0  0  0
  2  1  1  6
  3  2  1  0
  4  6  1  0
  4  2  1  0
  5  4  2  0
  7  8  1  1
  7  6  1  0
  9  8  1  0
 10  7  1  0
 10 12  1  0
 11 10  2  0
 13 12  1  0
 13 14  1  6
 14 15  1  0
 16 20  1  0
 16 15  1  0
 17 16  2  0
 18 13  1  0
 19 18  1  0
 21 18  2  0
M  END
$$$$
