ACE.pdb
     RDKit          3D

 21 20  0  0  1  0  0  0  0  0999 V2000
    6.4525  -20.0275   19.7037 C   0  0  0  0  0  0  0  0  0  0  0  0
    7.0701  -18.7086   20.1761 C   0  0  2  0  0  0  0  0  0  0  0  0
    7.1549  -17.8581   19.0060 N   0  0  0  0  0  0  0  0  0  0  0  0
    8.4450  -18.9188   20.6837 C   0  0  0  0  0  0  0  0  0  0  0  0
    8.8658  -20.0702   20.9327 O   0  0  0  0  0  0  0  0  0  0  0  0
    9.3505  -17.8334   20.9124 N   0  0  0  0  0  0  0  0  0  0  0  0
   10.6882  -18.0045   21.3774 C   0  0  1  0  0  0  0  0  0  0  0  0
   11.6315  -16.9363   20.8361 C   0  0  0  0  0  0  0  0  0  0  0  0
   11.0235  -15.3162   21.3109 S   0  0  0  0  0  0  0  0  0  0  0  0
   10.8099  -17.9725   22.8505 C   0  0  0  0  0  0  0  0  0  0  0  0
   10.1720  -17.0895   23.4796 O   0  0  0  0  0  0  0  0  0  0  0  0
   11.6023  -18.8767   23.6009 N   0  0  0  0  0  0  0  0  0  0  0  0
   11.7152  -18.8140   25.0631 C   0  0  1  0  0  0  0  0  0  0  0  0
   10.8834  -19.8839   25.6949 C   0  0  0  0  0  0  0  0  0  0  0  0
   11.4555  -20.2840   27.0216 C   0  0  0  0  0  0  0  0  0  0  0  0
   10.7053  -21.4317   27.6142 C   0  0  0  0  0  0  0  0  0  0  0  0
   11.0992  -21.9211   28.6795 O   0  0  0  0  0  0  0  0  0  0  0  0
   13.1364  -19.0067   25.3834 C   0  0  0  0  0  0  0  0  0  0  0  0
   14.0827  -19.5333   24.5396 O   0  0  0  0  0  0  0  0  0  0  0  0
    9.5983  -21.9073   26.9536 O   0  0  0  0  0  0  0  0  0  0  0  0
   13.5596  -18.6661   26.5435 O   0  0  0  0  0  0  0  0  0  0  0  0
  2  1  1  6
  3  2  1  0
  4  6  1  0
  4  2  1  0
  5  4  2  0
  7  8  1  6
  7  6  1  0
  9  8  1  0
 10  7  1  0
 10 12  1  0
 11 10  2  0
 13 12  1  0
 13 14  1  1
 14 15  1  0
 16 20  1  0
 16 15  1  0
 17 16  2  0
 18 13  1  0
 19 18  1  0
 21 18  2  0
M  END
$$$$
