ACE.pdb
     RDKit          3D

 21 20  0  0  1  0  0  0  0  0999 V2000
    6.4223  -15.1201   20.4567 C   0  0  0  0  0  0  0  0  0  0  0  0
    6.9385  -13.7472   20.8957 C   0  0  2  0  0  0  0  0  0  0  0  0
    7.7220  -13.2354   19.7894 N   0  0  0  0  0  0  0  0  0  0  0  0
    7.8350  -13.8680   22.0678 C   0  0  0  0  0  0  0  0  0  0  0  0
    9.0532  -14.1103   21.9189 O   0  0  0  0  0  0  0  0  0  0  0  0
    7.3630  -13.7163   23.4112 N   0  0  0  0  0  0  0  0  0  0  0  0
    8.1936  -13.8604   24.5619 C   0  0  1  0  0  0  0  0  0  0  0  0
    7.5785  -13.2262   25.8042 C   0  0  0  0  0  0  0  0  0  0  0  0
    5.8367  -13.6498   25.8825 S   0  0  0  0  0  0  0  0  0  0  0  0
    8.4887  -15.2679   24.9046 C   0  0  0  0  0  0  0  0  0  0  0  0
    7.5811  -16.1225   24.7364 O   0  0  0  0  0  0  0  0  0  0  0  0
    9.7336  -15.7166   25.4123 N   0  0  0  0  0  0  0  0  0  0  0  0
   10.0312  -17.1331   25.6563 C   0  0  1  0  0  0  0  0  0  0  0  0
   11.3884  -17.4769   25.1313 C   0  0  0  0  0  0  0  0  0  0  0  0
   11.4346  -17.3184   23.6413 C   0  0  0  0  0  0  0  0  0  0  0  0
   12.7605  -16.7993   23.1898 C   0  0  0  0  0  0  0  0  0  0  0  0
   13.6282  -16.5514   24.0354 O   0  0  0  0  0  0  0  0  0  0  0  0
    9.9743  -17.3298   27.1115 C   0  0  0  0  0  0  0  0  0  0  0  0
   10.1888  -18.5166   27.7676 O   0  0  0  0  0  0  0  0  0  0  0  0
   12.9726  -16.6138   21.8450 O   0  0  0  0  0  0  0  0  0  0  0  0
    9.7004  -16.3270   27.8599 O   0  0  0  0  0  0  0  0  0  0  0  0
  2  1  1  6
  3  2  1  0
  4  6  1  0
  4  2  1  0
  5  4  2  0
  7  8  1  1
  7  6  1  0
  9  8  1  0
 10  7  1  0
 10 12  1  0
 11 10  2  0
 13 12  1  0
 13 14  1  1
 14 15  1  0
 16 20  1  0
 16 15  1  0
 17 16  2  0
 18 13  1  0
 19 18  1  0
 21 18  2  0
M  END
$$$$
