ACE.pdb
     RDKit          3D

 21 20  0  0  1  0  0  0  0  0999 V2000
    6.6923  -16.0853   21.1795 C   0  0  0  0  0  0  0  0  0  0  0  0
    7.2980  -14.6794   21.2012 C   0  0  2  0  0  0  0  0  0  0  0  0
    8.3864  -14.6916   20.2446 N   0  0  0  0  0  0  0  0  0  0  0  0
    7.8681  -14.3684   22.5318 C   0  0  0  0  0  0  0  0  0  0  0  0
    9.0358  -14.7098   22.8230 O   0  0  0  0  0  0  0  0  0  0  0  0
    7.1255  -13.6720   23.5388 N   0  0  0  0  0  0  0  0  0  0  0  0
    7.6273  -13.4024   24.8465 C   0  0  1  0  0  0  0  0  0  0  0  0
    6.6775  -12.5350   25.6648 C   0  0  0  0  0  0  0  0  0  0  0  0
    7.3768  -12.2704   27.2959 S   0  0  0  0  0  0  0  0  0  0  0  0
    7.8837  -14.6209   25.6435 C   0  0  0  0  0  0  0  0  0  0  0  0
    6.9819  -15.4963   25.6958 O   0  0  0  0  0  0  0  0  0  0  0  0
    9.0851  -14.8658   26.3543 N   0  0  0  0  0  0  0  0  0  0  0  0
    9.3534  -16.1269   27.0560 C   0  0  1  0  0  0  0  0  0  0  0  0
   10.2553  -16.9950   26.2382 C   0  0  0  0  0  0  0  0  0  0  0  0
   11.5971  -16.3491   26.0659 C   0  0  0  0  0  0  0  0  0  0  0  0
   12.4833  -17.1626   25.1803 C   0  0  0  0  0  0  0  0  0  0  0  0
   12.4313  -18.3963   25.2482 O   0  0  0  0  0  0  0  0  0  0  0  0
    9.9936  -15.7708   28.3300 C   0  0  0  0  0  0  0  0  0  0  0  0
   10.3735  -16.6548   29.3093 O   0  0  0  0  0  0  0  0  0  0  0  0
   13.3297  -16.5106   24.3164 O   0  0  0  0  0  0  0  0  0  0  0  0
   10.2282  -14.5364   28.5794 O   0  0  0  0  0  0  0  0  0  0  0  0
  2  1  1  1
  3  2  1  0
  4  6  1  0
  4  2  1  0
  5  4  2  0
  7  8  1  1
  7  6  1  0
  9  8  1  0
 10  7  1  0
 10 12  1  0
 11 10  2  0
 13 12  1  0
 13 14  1  6
 14 15  1  0
 16 20  1  0
 16 15  1  0
 17 16  2  0
 18 13  1  0
 19 18  1  0
 21 18  2  0
M  END
$$$$
