ACE.pdb
     RDKit          3D

 21 20  0  0  1  0  0  0  0  0999 V2000
    6.9405  -15.3770   20.0902 C   0  0  0  0  0  0  0  0  0  0  0  0
    7.1360  -13.9281   20.5445 C   0  0  2  0  0  0  0  0  0  0  0  0
    7.8440  -13.2585   19.4721 N   0  0  0  0  0  0  0  0  0  0  0  0
    7.9834  -13.8624   21.7568 C   0  0  0  0  0  0  0  0  0  0  0  0
    9.2291  -13.7968   21.6635 O   0  0  0  0  0  0  0  0  0  0  0  0
    7.4312  -13.8704   23.0779 N   0  0  0  0  0  0  0  0  0  0  0  0
    8.2213  -13.9143   24.2648 C   0  0  1  0  0  0  0  0  0  0  0  0
    7.4560  -13.4260   25.4894 C   0  0  0  0  0  0  0  0  0  0  0  0
    5.8595  -14.2426   25.5523 S   0  0  0  0  0  0  0  0  0  0  0  0
    8.7251  -15.2659   24.5891 C   0  0  0  0  0  0  0  0  0  0  0  0
    7.9698  -16.2483   24.3731 O   0  0  0  0  0  0  0  0  0  0  0  0
   10.0093  -15.5253   25.1297 N   0  0  0  0  0  0  0  0  0  0  0  0
   10.5150  -16.8827   25.3671 C   0  0  1  0  0  0  0  0  0  0  0  0
   11.9877  -16.9402   25.1148 C   0  0  0  0  0  0  0  0  0  0  0  0
   12.2885  -16.6578   23.6736 C   0  0  0  0  0  0  0  0  0  0  0  0
   13.6721  -16.1217   23.5011 C   0  0  0  0  0  0  0  0  0  0  0  0
   14.3674  -15.9197   24.5037 O   0  0  0  0  0  0  0  0  0  0  0  0
   10.2177  -17.2023   26.7704 C   0  0  0  0  0  0  0  0  0  0  0  0
   10.4107  -18.4213   27.3718 O   0  0  0  0  0  0  0  0  0  0  0  0
   14.1278  -15.8700   22.2296 O   0  0  0  0  0  0  0  0  0  0  0  0
    9.7327  -16.2861   27.5230 O   0  0  0  0  0  0  0  0  0  0  0  0
  2  1  1  6
  3  2  1  0
  4  6  1  0
  4  2  1  0
  5  4  2  0
  7  8  1  1
  7  6  1  0
  9  8  1  0
 10  7  1  0
 10 12  1  0
 11 10  2  0
 13 12  1  0
 13 14  1  1
 14 15  1  0
 16 20  1  0
 16 15  1  0
 17 16  2  0
 18 13  1  0
 19 18  1  0
 21 18  2  0
M  END
$$$$
