ACE.pdb
     RDKit          3D

 21 20  0  0  1  0  0  0  0  0999 V2000
    6.8453  -16.7182   21.5965 C   0  0  0  0  0  0  0  0  0  0  0  0
    7.1788  -15.2312   21.4491 C   0  0  2  0  0  0  0  0  0  0  0  0
    8.1579  -15.1385   20.3848 N   0  0  0  0  0  0  0  0  0  0  0  0
    7.8011  -14.7026   22.6841 C   0  0  0  0  0  0  0  0  0  0  0  0
    9.0208  -14.8679   22.9071 O   0  0  0  0  0  0  0  0  0  0  0  0
    7.0522  -13.9860   23.6721 N   0  0  0  0  0  0  0  0  0  0  0  0
    7.6226  -13.4608   24.8694 C   0  0  1  0  0  0  0  0  0  0  0  0
    6.6388  -12.5969   25.6503 C   0  0  0  0  0  0  0  0  0  0  0  0
    7.4252  -12.0213   27.1568 S   0  0  0  0  0  0  0  0  0  0  0  0
    8.1052  -14.5031   25.8001 C   0  0  0  0  0  0  0  0  0  0  0  0
    7.3024  -15.4077   26.1459 O   0  0  0  0  0  0  0  0  0  0  0  0
    9.4194  -14.5477   26.3291 N   0  0  0  0  0  0  0  0  0  0  0  0
    9.8738  -15.5984   27.2479 C   0  0  1  0  0  0  0  0  0  0  0  0
   11.1881  -16.1506   26.7969 C   0  0  0  0  0  0  0  0  0  0  0  0
   10.9885  -17.1887   25.7339 C   0  0  0  0  0  0  0  0  0  0  0  0
   12.2916  -17.6283   25.1507 C   0  0  0  0  0  0  0  0  0  0  0  0
   13.3325  -17.0698   25.5168 O   0  0  0  0  0  0  0  0  0  0  0  0
   10.0024  -14.9724   28.5713 C   0  0  0  0  0  0  0  0  0  0  0  0
   10.3299  -15.6221   29.7355 O   0  0  0  0  0  0  0  0  0  0  0  0
   12.2903  -18.6424   24.2236 O   0  0  0  0  0  0  0  0  0  0  0  0
    9.7943  -13.7132   28.6816 O   0  0  0  0  0  0  0  0  0  0  0  0
  2  1  1  1
  3  2  1  0
  4  6  1  0
  4  2  1  0
  5  4  2  0
  7  8  1  1
  7  6  1  0
  9  8  1  0
 10  7  1  0
 10 12  1  0
 11 10  2  0
 13 12  1  0
 13 14  1  6
 14 15  1  0
 16 20  1  0
 16 15  1  0
 17 16  2  0
 18 13  1  0
 19 18  1  0
 21 18  2  0
M  END
$$$$
