ACE.pdb
     RDKit          3D

 21 20  0  0  1  0  0  0  0  0999 V2000
    6.3918  -14.7183   20.6395 C   0  0  0  0  0  0  0  0  0  0  0  0
    7.1790  -13.4716   21.0516 C   0  0  2  0  0  0  0  0  0  0  0  0
    8.1727  -13.2592   20.0185 N   0  0  0  0  0  0  0  0  0  0  0  0
    7.8941  -13.6943   22.3287 C   0  0  0  0  0  0  0  0  0  0  0  0
    9.0175  -14.2444   22.3453 O   0  0  0  0  0  0  0  0  0  0  0  0
    7.3468  -13.2983   23.5914 N   0  0  0  0  0  0  0  0  0  0  0  0
    8.0078  -13.5034   24.8387 C   0  0  1  0  0  0  0  0  0  0  0  0
    7.3537  -12.7272   25.9762 C   0  0  0  0  0  0  0  0  0  0  0  0
    5.5963  -13.0881   26.0030 S   0  0  0  0  0  0  0  0  0  0  0  0
    8.0492  -14.9201   25.2592 C   0  0  0  0  0  0  0  0  0  0  0  0
    7.1140  -15.6762   24.8901 O   0  0  0  0  0  0  0  0  0  0  0  0
    9.0792  -15.4820   26.0542 N   0  0  0  0  0  0  0  0  0  0  0  0
    9.3471  -16.9242   26.1093 C   0  0  1  0  0  0  0  0  0  0  0  0
   10.1117  -17.3574   24.8996 C   0  0  0  0  0  0  0  0  0  0  0  0
   10.4279  -18.8211   24.9702 C   0  0  0  0  0  0  0  0  0  0  0  0
   11.2044  -19.2686   23.7752 C   0  0  0  0  0  0  0  0  0  0  0  0
   11.6051  -20.4374   23.7223 O   0  0  0  0  0  0  0  0  0  0  0  0
   10.1321  -17.1594   27.3292 C   0  0  0  0  0  0  0  0  0  0  0  0
   10.1985  -18.3426   28.0224 O   0  0  0  0  0  0  0  0  0  0  0  0
   11.4487  -18.3633   22.7708 O   0  0  0  0  0  0  0  0  0  0  0  0
   10.8227  -16.1958   27.8144 O   0  0  0  0  0  0  0  0  0  0  0  0
  2  1  1  6
  3  2  1  0
  4  6  1  0
  4  2  1  0
  5  4  2  0
  7  8  1  1
  7  6  1  0
  9  8  1  0
 10  7  1  0
 10 12  1  0
 11 10  2  0
 13 12  1  0
 13 14  1  6
 14 15  1  0
 16 20  1  0
 16 15  1  0
 17 16  2  0
 18 13  1  0
 19 18  1  0
 21 18  2  0
M  END
$$$$
