ACE.pdb
     RDKit          3D

 21 20  0  0  1  0  0  0  0  0999 V2000
    6.5207  -14.4686   20.3190 C   0  0  0  0  0  0  0  0  0  0  0  0
    7.0041  -13.1644   20.9588 C   0  0  2  0  0  0  0  0  0  0  0  0
    7.9726  -12.5973   20.0422 N   0  0  0  0  0  0  0  0  0  0  0  0
    7.6949  -13.4275   22.2416 C   0  0  0  0  0  0  0  0  0  0  0  0
    8.9199  -13.6793   22.2685 O   0  0  0  0  0  0  0  0  0  0  0  0
    7.0087  -13.4079   23.4983 N   0  0  0  0  0  0  0  0  0  0  0  0
    7.6458  -13.6536   24.7507 C   0  0  1  0  0  0  0  0  0  0  0  0
    6.7402  -13.3340   25.9347 C   0  0  0  0  0  0  0  0  0  0  0  0
    6.8391  -11.5794   26.2969 S   0  0  0  0  0  0  0  0  0  0  0  0
    8.0919  -15.0526   24.9219 C   0  0  0  0  0  0  0  0  0  0  0  0
    7.2340  -15.9663   24.8151 O   0  0  0  0  0  0  0  0  0  0  0  0
    9.4294  -15.4306   25.1997 N   0  0  0  0  0  0  0  0  0  0  0  0
    9.8491  -16.8298   25.3431 C   0  0  1  0  0  0  0  0  0  0  0  0
   11.2359  -17.0132   24.8150 C   0  0  0  0  0  0  0  0  0  0  0  0
   11.7352  -18.3957   25.1097 C   0  0  0  0  0  0  0  0  0  0  0  0
   13.1347  -18.5844   24.6226 C   0  0  0  0  0  0  0  0  0  0  0  0
   13.3198  -18.9832   23.4666 O   0  0  0  0  0  0  0  0  0  0  0  0
    9.7971  -17.1390   26.7789 C   0  0  0  0  0  0  0  0  0  0  0  0
    9.7429  -18.3974   27.3251 O   0  0  0  0  0  0  0  0  0  0  0  0
   14.1735  -18.3076   25.4782 O   0  0  0  0  0  0  0  0  0  0  0  0
    9.7981  -16.1721   27.6191 O   0  0  0  0  0  0  0  0  0  0  0  0
  2  1  1  6
  3  2  1  0
  4  6  1  0
  4  2  1  0
  5  4  2  0
  7  8  1  1
  7  6  1  0
  9  8  1  0
 10  7  1  0
 10 12  1  0
 11 10  2  0
 13 12  1  0
 13 14  1  1
 14 15  1  0
 16 20  1  0
 16 15  1  0
 17 16  2  0
 18 13  1  0
 19 18  1  0
 21 18  2  0
M  END
$$$$
