ACE.pdb
     RDKit          3D

 21 20  0  0  1  0  0  0  0  0999 V2000
    6.6677  -14.6966   20.2279 C   0  0  0  0  0  0  0  0  0  0  0  0
    7.0160  -13.3501   20.8680 C   0  0  2  0  0  0  0  0  0  0  0  0
    7.9709  -12.7148   19.9823 N   0  0  0  0  0  0  0  0  0  0  0  0
    7.6737  -13.5415   22.1806 C   0  0  0  0  0  0  0  0  0  0  0  0
    8.9065  -13.7400   22.2554 O   0  0  0  0  0  0  0  0  0  0  0  0
    6.9456  -13.5100   23.4132 N   0  0  0  0  0  0  0  0  0  0  0  0
    7.5346  -13.7694   24.6862 C   0  0  1  0  0  0  0  0  0  0  0  0
    6.5576  -13.5431   25.8343 C   0  0  0  0  0  0  0  0  0  0  0  0
    6.2244  -11.7868   25.9886 S   0  0  0  0  0  0  0  0  0  0  0  0
    8.0475  -15.1485   24.8296 C   0  0  0  0  0  0  0  0  0  0  0  0
    7.2910  -16.0997   24.5048 O   0  0  0  0  0  0  0  0  0  0  0  0
    9.3416  -15.4677   25.3113 N   0  0  0  0  0  0  0  0  0  0  0  0
    9.8735  -16.8358   25.3217 C   0  0  1  0  0  0  0  0  0  0  0  0
   11.2496  -16.8629   24.7375 C   0  0  0  0  0  0  0  0  0  0  0  0
   11.8100  -18.2530   24.7692 C   0  0  0  0  0  0  0  0  0  0  0  0
   13.1954  -18.2943   24.2122 C   0  0  0  0  0  0  0  0  0  0  0  0
   13.6918  -17.2563   23.7586 O   0  0  0  0  0  0  0  0  0  0  0  0
    9.8993  -17.2658   26.7268 C   0  0  0  0  0  0  0  0  0  0  0  0
   10.0150  -18.5616   27.1651 O   0  0  0  0  0  0  0  0  0  0  0  0
   13.8747  -19.4886   24.2223 O   0  0  0  0  0  0  0  0  0  0  0  0
    9.8049  -16.3785   27.6459 O   0  0  0  0  0  0  0  0  0  0  0  0
  2  1  1  6
  3  2  1  0
  4  6  1  0
  4  2  1  0
  5  4  2  0
  7  8  1  1
  7  6  1  0
  9  8  1  0
 10  7  1  0
 10 12  1  0
 11 10  2  0
 13 12  1  0
 13 14  1  1
 14 15  1  0
 16 20  1  0
 16 15  1  0
 17 16  2  0
 18 13  1  0
 19 18  1  0
 21 18  2  0
M  END
$$$$
