ACE.pdb
     RDKit          3D

 21 20  0  0  1  0  0  0  0  0999 V2000
    6.8081  -15.1391   20.3866 C   0  0  0  0  0  0  0  0  0  0  0  0
    7.2099  -13.7180   20.7902 C   0  0  2  0  0  0  0  0  0  0  0  0
    8.0844  -13.2306   19.7427 N   0  0  0  0  0  0  0  0  0  0  0  0
    7.9786  -13.7237   22.0556 C   0  0  0  0  0  0  0  0  0  0  0  0
    9.2210  -13.8696   22.0486 O   0  0  0  0  0  0  0  0  0  0  0  0
    7.3511  -13.5650   23.3329 N   0  0  0  0  0  0  0  0  0  0  0  0
    8.0437  -13.6846   24.5742 C   0  0  1  0  0  0  0  0  0  0  0  0
    7.2644  -13.0755   25.7342 C   0  0  0  0  0  0  0  0  0  0  0  0
    5.5957  -13.7351   25.7355 S   0  0  0  0  0  0  0  0  0  0  0  0
    8.3436  -15.0825   24.9507 C   0  0  0  0  0  0  0  0  0  0  0  0
    7.5249  -15.9763   24.6143 O   0  0  0  0  0  0  0  0  0  0  0  0
    9.4988  -15.4803   25.6690 N   0  0  0  0  0  0  0  0  0  0  0  0
    9.9003  -16.8842   25.8189 C   0  0  1  0  0  0  0  0  0  0  0  0
   11.2109  -17.1252   25.1408 C   0  0  0  0  0  0  0  0  0  0  0  0
   11.6155  -18.5631   25.2682 C   0  0  0  0  0  0  0  0  0  0  0  0
   12.9543  -18.8085   24.6527 C   0  0  0  0  0  0  0  0  0  0  0  0
   13.9721  -18.5728   25.3145 O   0  0  0  0  0  0  0  0  0  0  0  0
   10.0101  -17.1379   27.2622 C   0  0  0  0  0  0  0  0  0  0  0  0
   10.0833  -18.3745   27.8541 O   0  0  0  0  0  0  0  0  0  0  0  0
   13.0105  -19.2899   23.3670 O   0  0  0  0  0  0  0  0  0  0  0  0
   10.0397  -16.1395   28.0642 O   0  0  0  0  0  0  0  0  0  0  0  0
  2  1  1  6
  3  2  1  0
  4  6  1  0
  4  2  1  0
  5  4  2  0
  7  8  1  1
  7  6  1  0
  9  8  1  0
 10  7  1  0
 10 12  1  0
 11 10  2  0
 13 12  1  0
 13 14  1  6
 14 15  1  0
 16 20  1  0
 16 15  1  0
 17 16  2  0
 18 13  1  0
 19 18  1  0
 21 18  2  0
M  END
$$$$
