ACE.pdb
     RDKit          3D

 21 20  0  0  1  0  0  0  0  0999 V2000
    8.2123  -19.0719   17.3421 C   0  0  0  0  0  0  0  0  0  0  0  0
    7.5541  -17.6991   17.1799 C   0  0  2  0  0  0  0  0  0  0  0  0
    7.9211  -17.2265   15.8602 N   0  0  0  0  0  0  0  0  0  0  0  0
    8.0865  -16.7357   18.1701 C   0  0  0  0  0  0  0  0  0  0  0  0
    9.1963  -16.1858   17.9948 O   0  0  0  0  0  0  0  0  0  0  0  0
    7.3711  -16.3882   19.3609 N   0  0  0  0  0  0  0  0  0  0  0  0
    7.9180  -15.5862   20.4061 C   0  0  1  0  0  0  0  0  0  0  0  0
    6.8874  -15.2478   21.4772 C   0  0  0  0  0  0  0  0  0  0  0  0
    7.6896  -14.3443   22.8038 S   0  0  0  0  0  0  0  0  0  0  0  0
    9.0602  -16.2187   21.0996 C   0  0  0  0  0  0  0  0  0  0  0  0
    8.9710  -17.4369   21.4005 O   0  0  0  0  0  0  0  0  0  0  0  0
   10.2531  -15.5372   21.4479 N   0  0  0  0  0  0  0  0  0  0  0  0
   11.4292  -16.2199   22.0005 C   0  0  1  0  0  0  0  0  0  0  0  0
   12.6787  -15.4914   21.6216 C   0  0  0  0  0  0  0  0  0  0  0  0
   13.8837  -16.1761   22.1932 C   0  0  0  0  0  0  0  0  0  0  0  0
   15.1423  -15.4606   21.8250 C   0  0  0  0  0  0  0  0  0  0  0  0
   15.4440  -15.3517   20.6306 O   0  0  0  0  0  0  0  0  0  0  0  0
   11.2602  -16.2329   23.4602 C   0  0  0  0  0  0  0  0  0  0  0  0
   10.2944  -15.5529   24.1601 O   0  0  0  0  0  0  0  0  0  0  0  0
   15.9257  -14.9454   22.8293 O   0  0  0  0  0  0  0  0  0  0  0  0
   12.0701  -16.9270   24.1695 O   0  0  0  0  0  0  0  0  0  0  0  0
  2  1  1  1
  3  2  1  0
  4  6  1  0
  4  2  1  0
  5  4  2  0
  7  8  1  1
  7  6  1  0
  9  8  1  0
 10  7  1  0
 10 12  1  0
 11 10  2  0
 13 12  1  0
 13 14  1  1
 14 15  1  0
 16 20  1  0
 16 15  1  0
 17 16  2  0
 18 13  1  0
 19 18  1  0
 21 18  2  0
M  END
$$$$
