ACE.pdb
     RDKit          3D

 21 20  0  0  1  0  0  0  0  0999 V2000
   13.8807  -16.9575   15.2796 C   0  0  0  0  0  0  0  0  0  0  0  0
   13.8099  -15.4291   15.3347 C   0  0  2  0  0  0  0  0  0  0  0  0
   15.1363  -14.9492   15.0027 N   0  0  0  0  0  0  0  0  0  0  0  0
   13.4888  -14.9623   16.7026 C   0  0  0  0  0  0  0  0  0  0  0  0
   14.3377  -14.3455   17.3837 O   0  0  0  0  0  0  0  0  0  0  0  0
   12.2110  -15.1883   17.3081 N   0  0  0  0  0  0  0  0  0  0  0  0
   11.8320  -14.6566   18.5763 C   0  0  1  0  0  0  0  0  0  0  0  0
   10.3238  -14.4727   18.7008 C   0  0  0  0  0  0  0  0  0  0  0  0
    9.9602  -13.5891   20.2196 S   0  0  0  0  0  0  0  0  0  0  0  0
   12.2540  -15.4954   19.7182 C   0  0  0  0  0  0  0  0  0  0  0  0
   12.0442  -16.7340   19.6541 O   0  0  0  0  0  0  0  0  0  0  0  0
   12.8819  -14.9905   20.8843 N   0  0  0  0  0  0  0  0  0  0  0  0
   13.3370  -15.8527   21.9816 C   0  0  1  0  0  0  0  0  0  0  0  0
   14.6510  -15.3724   22.5092 C   0  0  0  0  0  0  0  0  0  0  0  0
   15.7398  -15.6018   21.5045 C   0  0  0  0  0  0  0  0  0  0  0  0
   17.0593  -15.1192   22.0119 C   0  0  0  0  0  0  0  0  0  0  0  0
   17.2241  -13.9081   22.2003 O   0  0  0  0  0  0  0  0  0  0  0  0
   12.3045  -15.7849   23.0251 C   0  0  0  0  0  0  0  0  0  0  0  0
   12.2435  -16.5791   24.1433 O   0  0  0  0  0  0  0  0  0  0  0  0
   18.0497  -16.0405   22.2532 O   0  0  0  0  0  0  0  0  0  0  0  0
   11.3647  -14.9222   22.9088 O   0  0  0  0  0  0  0  0  0  0  0  0
  2  1  1  1
  3  2  1  0
  4  6  1  0
  4  2  1  0
  5  4  2  0
  7  8  1  6
  7  6  1  0
  9  8  1  0
 10  7  1  0
 10 12  1  0
 11 10  2  0
 13 12  1  0
 13 14  1  1
 14 15  1  0
 16 20  1  0
 16 15  1  0
 17 16  2  0
 18 13  1  0
 19 18  1  0
 21 18  2  0
M  END
$$$$
