ACE.pdb
     RDKit          3D

 21 20  0  0  1  0  0  0  0  0999 V2000
    7.6866  -18.5916   17.3433 C   0  0  0  0  0  0  0  0  0  0  0  0
    7.9667  -18.8458   18.8268 C   0  0  2  0  0  0  0  0  0  0  0  0
    6.6842  -19.1277   19.4395 N   0  0  0  0  0  0  0  0  0  0  0  0
    8.5227  -17.6369   19.4760 C   0  0  0  0  0  0  0  0  0  0  0  0
    9.7055  -17.2863   19.2690 O   0  0  0  0  0  0  0  0  0  0  0  0
    7.7488  -16.8187   20.3604 N   0  0  0  0  0  0  0  0  0  0  0  0
    8.2539  -15.6474   20.9988 C   0  0  1  0  0  0  0  0  0  0  0  0
    7.1590  -14.6272   21.2893 C   0  0  0  0  0  0  0  0  0  0  0  0
    7.8514  -13.2728   22.2409 S   0  0  0  0  0  0  0  0  0  0  0  0
    8.9321  -15.9210   22.2837 C   0  0  0  0  0  0  0  0  0  0  0  0
    8.2303  -16.3016   23.2558 O   0  0  0  0  0  0  0  0  0  0  0  0
   10.3273  -15.7811   22.4900 N   0  0  0  0  0  0  0  0  0  0  0  0
   11.0464  -16.4682   23.5695 C   0  0  1  0  0  0  0  0  0  0  0  0
   10.9385  -17.9504   23.4048 C   0  0  0  0  0  0  0  0  0  0  0  0
   11.6637  -18.6592   24.5088 C   0  0  0  0  0  0  0  0  0  0  0  0
   11.6140  -20.1413   24.3292 C   0  0  0  0  0  0  0  0  0  0  0  0
   11.8612  -20.8723   25.2957 O   0  0  0  0  0  0  0  0  0  0  0  0
   12.4489  -16.0385   23.4800 C   0  0  0  0  0  0  0  0  0  0  0  0
   13.3406  -15.9945   24.5229 O   0  0  0  0  0  0  0  0  0  0  0  0
   11.2940  -20.6450   23.0916 O   0  0  0  0  0  0  0  0  0  0  0  0
   12.9086  -15.6638   22.3445 O   0  0  0  0  0  0  0  0  0  0  0  0
  2  1  1  6
  3  2  1  0
  4  6  1  0
  4  2  1  0
  5  4  2  0
  7  8  1  1
  7  6  1  0
  9  8  1  0
 10  7  1  0
 10 12  1  0
 11 10  2  0
 13 12  1  0
 13 14  1  6
 14 15  1  0
 16 20  1  0
 16 15  1  0
 17 16  2  0
 18 13  1  0
 19 18  1  0
 21 18  2  0
M  END
$$$$
