RTP.pdb
     RDKit          3D

 26 26  0  0  1  0  0  0  0  0999 V2000
   14.1846  -21.1680   22.8053 N   0  0  0  0  0  0  0  0  0  0  0  0
   12.9654  -21.6632   22.3008 C   0  0  0  0  0  0  0  0  0  0  0  0
   12.4109  -22.7465   22.7301 N   0  0  0  0  0  0  0  0  0  0  0  0
   12.3054  -20.9209   21.2516 N   0  0  0  0  0  0  0  0  0  0  0  0
   12.1749  -19.4847   21.4528 C   0  0  0  0  0  0  0  0  0  0  0  0
   11.2222  -19.2263   22.5856 C   0  0  0  0  0  0  0  0  0  0  0  0
   11.0372  -17.7737   22.8203 C   0  0  0  0  0  0  0  0  0  0  0  0
   10.6975  -16.9473   21.6406 C   0  0  2  0  0  0  0  0  0  0  0  0
   11.7864  -16.5518   20.7946 N   0  0  0  0  0  0  0  0  0  0  0  0
   10.0873  -15.6710   22.1697 C   0  0  0  0  0  0  0  0  0  0  0  0
   10.7890  -14.6768   22.4873 O   0  0  0  0  0  0  0  0  0  0  0  0
   11.4979  -23.0787   22.3572 C   0  0  0  0  0  0  0  0  0  0  0  0
    7.6083  -13.4684   20.7989 C   0  0  2  0  0  0  0  0  0  0  0  0
    6.9391  -14.0046   22.0786 O   0  0  0  0  0  0  0  0  0  0  0  0
    6.2635  -15.1576   21.6543 C   0  0  2  0  0  0  0  0  0  0  0  0
    8.1062  -14.3639   22.9855 N   0  0  0  0  0  0  0  0  0  0  0  0
    8.6930  -15.5491   22.3278 C   0  0  0  0  0  0  0  0  0  0  0  0
    7.7199  -14.7414   24.3411 O   0  0  0  0  0  0  0  0  0  0  0  0
    7.5222  -15.9873   24.5717 N   0  0  0  0  0  0  0  0  0  0  0  0
    7.5360  -13.8843   25.4486 C   0  0  0  0  0  0  0  0  0  0  0  0
    6.3255  -13.1151   25.7684 C   0  0  0  0  0  0  0  0  0  0  0  0
    6.8923  -11.7731   26.1034 C   0  0  0  0  0  0  0  0  0  0  0  0
    8.1623  -12.1018   26.8546 C   0  0  1  0  0  0  0  0  0  0  0  0
    8.4445  -13.5681   26.5218 C   0  0  0  0  0  0  0  0  0  0  0  0
    8.1043  -14.4187   27.6963 O   0  0  0  0  0  0  0  0  0  0  0  0
    8.9164  -14.4417   28.7947 O   0  0  0  0  0  0  0  0  0  0  0  0
  2  1  1  0
  3  2  2  0
  4  2  1  0
  5  6  1  0
  5  4  1  0
  7  6  1  0
  8  7  1  0
  8  9  1  1
 10  8  1  0
 11 10  2  0
 13 12  1  6
 13 15  1  0
 14 13  1  0
 15 17  1  0
 15 16  1  1
 16 10  1  0
 17 18  2  0
 19 20  1  0
 19 17  1  0
 21 20  1  0
 22 21  1  0
 22 23  1  0
 23 19  1  0
 23 24  1  1
 24 25  1  0
 26 24  2  0
M  END
$$$$
