RTP.pdb
     RDKit          3D

 26 26  0  0  1  0  0  0  0  0999 V2000
    7.3362  -13.0541   15.5916 N   0  0  0  0  0  0  0  0  0  0  0  0
    8.5270  -13.4129   16.2547 C   0  0  0  0  0  0  0  0  0  0  0  0
    9.4307  -14.1672   15.7256 N   0  0  0  0  0  0  0  0  0  0  0  0
    8.7451  -12.9114   17.5920 N   0  0  0  0  0  0  0  0  0  0  0  0
    8.0629  -13.6130   18.6702 C   0  0  0  0  0  0  0  0  0  0  0  0
    8.5099  -15.0474   18.6905 C   0  0  0  0  0  0  0  0  0  0  0  0
    9.3106  -15.3506   19.9014 C   0  0  0  0  0  0  0  0  0  0  0  0
    8.8497  -16.4811   20.7378 C   0  0  2  0  0  0  0  0  0  0  0  0
    7.7746  -17.2741   20.2151 N   0  0  0  0  0  0  0  0  0  0  0  0
    8.3457  -15.8835   22.0301 C   0  0  0  0  0  0  0  0  0  0  0  0
    7.4520  -14.9990   22.0532 O   0  0  0  0  0  0  0  0  0  0  0  0
   10.3243  -14.3765   16.2160 C   0  0  0  0  0  0  0  0  0  0  0  0
    6.2797  -16.7904   23.7808 C   0  0  2  0  0  0  0  0  0  0  0  0
    7.2912  -16.7979   24.9426 O   0  0  0  0  0  0  0  0  0  0  0  0
    7.8353  -18.0898   24.9144 C   0  0  2  0  0  0  0  0  0  0  0  0
    8.3304  -15.7638   24.5370 N   0  0  0  0  0  0  0  0  0  0  0  0
    8.8663  -16.3021   23.2701 C   0  0  0  0  0  0  0  0  0  0  0  0
    9.4385  -15.6250   25.4762 O   0  0  0  0  0  0  0  0  0  0  0  0
   10.5845  -16.0637   25.1040 N   0  0  0  0  0  0  0  0  0  0  0  0
    9.3993  -15.0542   26.7676 C   0  0  0  0  0  0  0  0  0  0  0  0
    8.2054  -14.5708   27.4749 C   0  0  0  0  0  0  0  0  0  0  0  0
    8.6725  -13.2531   28.0039 C   0  0  0  0  0  0  0  0  0  0  0  0
   10.1033  -13.5214   28.4112 C   0  0  1  0  0  0  0  0  0  0  0  0
   10.4744  -14.8237   27.6993 C   0  0  0  0  0  0  0  0  0  0  0  0
   10.4946  -15.9405   28.6847 O   0  0  0  0  0  0  0  0  0  0  0  0
   11.5386  -16.0790   29.5551 O   0  0  0  0  0  0  0  0  0  0  0  0
  2  1  1  0
  3  2  2  0
  4  2  1  0
  5  6  1  0
  5  4  1  0
  7  6  1  0
  8  7  1  0
  8  9  1  6
 10  8  1  0
 11 10  2  0
 13 12  1  1
 13 15  1  0
 14 13  1  0
 15 17  1  0
 15 16  1  1
 16 10  1  0
 17 18  2  0
 19 20  1  0
 19 17  1  0
 21 20  1  0
 22 21  1  0
 22 23  1  0
 23 19  1  0
 23 24  1  1
 24 25  1  0
 26 24  2  0
M  END
$$$$
