RTP.pdb
     RDKit          3D

 26 26  0  0  1  0  0  0  0  0999 V2000
    5.9839  -17.2402   13.8309 N   0  0  0  0  0  0  0  0  0  0  0  0
    7.0215  -18.1569   13.5679 C   0  0  0  0  0  0  0  0  0  0  0  0
    7.4373  -18.4310   12.3773 N   0  0  0  0  0  0  0  0  0  0  0  0
    7.6494  -18.8215   14.6866 N   0  0  0  0  0  0  0  0  0  0  0  0
    7.1193  -18.5148   16.0076 C   0  0  0  0  0  0  0  0  0  0  0  0
    7.7933  -19.3874   17.0283 C   0  0  0  0  0  0  0  0  0  0  0  0
    9.0159  -18.7461   17.5700 C   0  0  0  0  0  0  0  0  0  0  0  0
    9.2390  -18.8649   19.0282 C   0  0  2  0  0  0  0  0  0  0  0  0
    8.7873  -20.0743   19.6537 N   0  0  0  0  0  0  0  0  0  0  0  0
    8.4669  -17.7396   19.6753 C   0  0  0  0  0  0  0  0  0  0  0  0
    8.5172  -16.5598   19.2425 O   0  0  0  0  0  0  0  0  0  0  0  0
    8.1339  -19.1836   12.2009 C   0  0  0  0  0  0  0  0  0  0  0  0
    4.9537  -17.5979   20.4065 C   0  0  2  0  0  0  0  0  0  0  0  0
    5.5973  -17.4218   21.7950 O   0  0  0  0  0  0  0  0  0  0  0  0
    5.6872  -18.7273   22.2985 C   0  0  2  0  0  0  0  0  0  0  0  0
    6.9791  -16.8607   21.4954 N   0  0  0  0  0  0  0  0  0  0  0  0
    7.6535  -17.9762   20.8005 C   0  0  0  0  0  0  0  0  0  0  0  0
    7.7612  -16.5248   22.6806 O   0  0  0  0  0  0  0  0  0  0  0  0
    8.8212  -17.2120   22.9010 N   0  0  0  0  0  0  0  0  0  0  0  0
    7.4864  -15.5152   23.6293 C   0  0  0  0  0  0  0  0  0  0  0  0
    6.3987  -14.5290   23.5678 C   0  0  0  0  0  0  0  0  0  0  0  0
    7.1104  -13.2625   23.9196 C   0  0  0  0  0  0  0  0  0  0  0  0
    8.0868  -13.6902   24.9914 C   0  0  1  0  0  0  0  0  0  0  0  0
    8.1622  -15.2130   24.8659 C   0  0  0  0  0  0  0  0  0  0  0  0
    7.4063  -15.8419   25.9847 O   0  0  0  0  0  0  0  0  0  0  0  0
    7.9635  -15.9431   27.2280 O   0  0  0  0  0  0  0  0  0  0  0  0
  2  1  1  0
  3  2  2  0
  4  2  1  0
  5  6  1  0
  5  4  1  0
  7  6  1  0
  8  7  1  0
  8  9  1  1
 10  8  1  0
 11 10  2  0
 13 12  1  1
 13 15  1  0
 14 13  1  0
 15 17  1  0
 15 16  1  1
 16 10  1  0
 17 18  2  0
 19 20  1  0
 19 17  1  0
 21 20  1  0
 22 21  1  0
 22 23  1  0
 23 19  1  0
 23 24  1  1
 24 25  1  0
 26 24  2  0
M  END
$$$$
