RTP.pdb
     RDKit          3D

 26 26  0  0  1  0  0  0  0  0999 V2000
   14.5312  -20.0200   23.1208 N   0  0  0  0  0  0  0  0  0  0  0  0
   14.7324  -20.5264   21.8211 C   0  0  0  0  0  0  0  0  0  0  0  0
   15.2428  -21.6882   21.5865 N   0  0  0  0  0  0  0  0  0  0  0  0
   14.3483  -19.7033   20.6974 N   0  0  0  0  0  0  0  0  0  0  0  0
   13.5987  -18.4929   21.0026 C   0  0  0  0  0  0  0  0  0  0  0  0
   12.2452  -18.8682   21.5362 C   0  0  0  0  0  0  0  0  0  0  0  0
   11.4620  -17.6700   21.9240 C   0  0  0  0  0  0  0  0  0  0  0  0
   10.6063  -17.0673   20.8778 C   0  0  2  0  0  0  0  0  0  0  0  0
   11.2540  -16.6826   19.6570 N   0  0  0  0  0  0  0  0  0  0  0  0
   10.0301  -15.8022   21.4683 C   0  0  0  0  0  0  0  0  0  0  0  0
   10.6158  -14.6934   21.3726 O   0  0  0  0  0  0  0  0  0  0  0  0
   15.4048  -22.0289   20.6167 C   0  0  0  0  0  0  0  0  0  0  0  0
    6.8681  -14.3261   20.8340 C   0  0  2  0  0  0  0  0  0  0  0  0
    6.8079  -14.5905   22.3504 O   0  0  0  0  0  0  0  0  0  0  0  0
    6.2515  -15.8735   22.4522 C   0  0  2  0  0  0  0  0  0  0  0  0
    8.2658  -14.5966   22.7845 N   0  0  0  0  0  0  0  0  0  0  0  0
    8.8007  -15.8213   22.1553 C   0  0  0  0  0  0  0  0  0  0  0  0
    8.4629  -14.7035   24.2264 O   0  0  0  0  0  0  0  0  0  0  0  0
    9.3524  -15.5296   24.6395 N   0  0  0  0  0  0  0  0  0  0  0  0
    7.7807  -13.9927   25.2384 C   0  0  0  0  0  0  0  0  0  0  0  0
    6.6863  -13.0310   25.0466 C   0  0  0  0  0  0  0  0  0  0  0  0
    7.1039  -11.9064   25.9384 C   0  0  0  0  0  0  0  0  0  0  0  0
    7.6933  -12.6074   27.1410 C   0  0  1  0  0  0  0  0  0  0  0  0
    7.9595  -14.0376   26.6678 C   0  0  0  0  0  0  0  0  0  0  0  0
    6.9341  -14.9511   27.2448 O   0  0  0  0  0  0  0  0  0  0  0  0
    7.0514  -15.4031   28.5288 O   0  0  0  0  0  0  0  0  0  0  0  0
  2  1  1  0
  3  2  2  0
  4  2  1  0
  5  6  1  0
  5  4  1  0
  7  6  1  0
  8  7  1  0
  8  9  1  6
 10  8  1  0
 11 10  2  0
 13 12  1  1
 13 15  1  0
 14 13  1  0
 15 17  1  0
 15 16  1  1
 16 10  1  0
 17 18  2  0
 19 20  1  0
 19 17  1  0
 21 20  1  0
 22 21  1  0
 22 23  1  0
 23 19  1  0
 23 24  1  1
 24 25  1  0
 26 24  2  0
M  END
$$$$
