RTP.pdb
     RDKit          3D

 26 26  0  0  1  0  0  0  0  0999 V2000
    7.8923  -15.5083   17.2689 N   0  0  0  0  0  0  0  0  0  0  0  0
    8.0339  -14.6297   16.1761 C   0  0  0  0  0  0  0  0  0  0  0  0
    8.2590  -15.0317   14.9706 N   0  0  0  0  0  0  0  0  0  0  0  0
    7.9215  -13.2098   16.4187 N   0  0  0  0  0  0  0  0  0  0  0  0
    7.8368  -12.7915   17.8108 C   0  0  0  0  0  0  0  0  0  0  0  0
    8.8300  -13.5713   18.6251 C   0  0  0  0  0  0  0  0  0  0  0  0
    8.3029  -13.8796   19.9766 C   0  0  0  0  0  0  0  0  0  0  0  0
    9.2141  -14.5931   20.8991 C   0  0  2  0  0  0  0  0  0  0  0  0
    9.5608  -15.9405   20.5497 N   0  0  0  0  0  0  0  0  0  0  0  0
    8.5055  -14.6699   22.2308 C   0  0  0  0  0  0  0  0  0  0  0  0
    8.1769  -13.6397   22.8729 O   0  0  0  0  0  0  0  0  0  0  0  0
    8.2681  -14.3715   14.1664 C   0  0  0  0  0  0  0  0  0  0  0  0
    6.5730  -17.5690   25.6793 C   0  0  2  0  0  0  0  0  0  0  0  0
    7.2716  -17.4739   24.3096 O   0  0  0  0  0  0  0  0  0  0  0  0
    6.2881  -17.8770   23.3951 C   0  0  1  0  0  0  0  0  0  0  0  0
    7.5822  -15.9931   24.1531 N   0  0  0  0  0  0  0  0  0  0  0  0
    8.1845  -15.9145   22.8066 C   0  0  0  0  0  0  0  0  0  0  0  0
    8.5509  -15.4773   25.1148 O   0  0  0  0  0  0  0  0  0  0  0  0
    9.7852  -15.7649   24.9193 N   0  0  0  0  0  0  0  0  0  0  0  0
    8.2872  -14.6846   26.2536 C   0  0  0  0  0  0  0  0  0  0  0  0
    6.9662  -14.2617   26.7389 C   0  0  0  0  0  0  0  0  0  0  0  0
    7.1926  -12.8125   27.0267 C   0  0  0  0  0  0  0  0  0  0  0  0
    8.5889  -12.7796   27.6052 C   0  0  1  0  0  0  0  0  0  0  0  0
    9.2070  -14.1221   27.2100 C   0  0  0  0  0  0  0  0  0  0  0  0
    9.2576  -15.0157   28.4006 O   0  0  0  0  0  0  0  0  0  0  0  0
    8.4366  -16.1044   28.4864 O   0  0  0  0  0  0  0  0  0  0  0  0
  2  1  1  0
  3  2  2  0
  4  2  1  0
  5  6  1  0
  5  4  1  0
  7  6  1  0
  8  7  1  0
  8  9  1  6
 10  8  1  0
 11 10  2  0
 13 12  1  1
 13 15  1  0
 14 13  1  0
 15 17  1  0
 15 16  1  1
 16 10  1  0
 17 18  2  0
 19 20  1  0
 19 17  1  0
 21 20  1  0
 22 21  1  0
 22 23  1  0
 23 19  1  0
 23 24  1  1
 24 25  1  0
 26 24  2  0
M  END
$$$$
