RTP.pdb
     RDKit          3D

 26 26  0  0  1  0  0  0  0  0999 V2000
    9.7175  -13.4675   19.0428 N   0  0  0  0  0  0  0  0  0  0  0  0
    8.9409  -13.3930   17.8692 C   0  0  0  0  0  0  0  0  0  0  0  0
    8.7467  -12.2953   17.2189 N   0  0  0  0  0  0  0  0  0  0  0  0
    8.3328  -14.6053   17.3711 N   0  0  0  0  0  0  0  0  0  0  0  0
    7.5419  -15.3751   18.3208 C   0  0  0  0  0  0  0  0  0  0  0  0
    8.4613  -16.1750   19.1997 C   0  0  0  0  0  0  0  0  0  0  0  0
    8.1245  -16.0078   20.6343 C   0  0  0  0  0  0  0  0  0  0  0  0
    7.4572  -17.1496   21.2984 C   0  0  2  0  0  0  0  0  0  0  0  0
    6.2374  -17.6176   20.7060 N   0  0  0  0  0  0  0  0  0  0  0  0
    7.1018  -16.6896   22.6924 C   0  0  0  0  0  0  0  0  0  0  0  0
    6.0599  -16.0272   22.9318 O   0  0  0  0  0  0  0  0  0  0  0  0
    8.2095  -12.2750   16.3278 C   0  0  0  0  0  0  0  0  0  0  0  0
    5.8987  -18.1905   24.8012 C   0  0  2  0  0  0  0  0  0  0  0  0
    6.9821  -17.7402   25.7995 O   0  0  0  0  0  0  0  0  0  0  0  0
    7.8900  -18.8084   25.8243 C   0  0  2  0  0  0  0  0  0  0  0  0
    7.6043  -16.5160   25.1452 N   0  0  0  0  0  0  0  0  0  0  0  0
    7.9362  -16.9909   23.7864 C   0  0  0  0  0  0  0  0  0  0  0  0
    8.8358  -16.0564   25.7790 O   0  0  0  0  0  0  0  0  0  0  0  0
    9.9385  -16.3087   25.1752 N   0  0  0  0  0  0  0  0  0  0  0  0
    8.9601  -15.3538   26.9979 C   0  0  0  0  0  0  0  0  0  0  0  0
    7.8791  -15.0437   27.9436 C   0  0  0  0  0  0  0  0  0  0  0  0
    8.1403  -13.6041   28.2496 C   0  0  0  0  0  0  0  0  0  0  0  0
    9.6485  -13.5218   28.3080 C   0  0  1  0  0  0  0  0  0  0  0  0
   10.1363  -14.7966   27.6171 C   0  0  0  0  0  0  0  0  0  0  0  0
   10.6330  -15.7579   28.6408 O   0  0  0  0  0  0  0  0  0  0  0  0
   11.8237  -15.5422   29.2750 O   0  0  0  0  0  0  0  0  0  0  0  0
  2  1  1  0
  3  2  2  0
  4  2  1  0
  5  6  1  0
  5  4  1  0
  7  6  1  0
  8  7  1  0
  8  9  1  6
 10  8  1  0
 11 10  2  0
 13 12  1  1
 13 15  1  0
 14 13  1  0
 15 17  1  0
 15 16  1  1
 16 10  1  0
 17 18  2  0
 19 20  1  0
 19 17  1  0
 21 20  1  0
 22 21  1  0
 22 23  1  0
 23 19  1  0
 23 24  1  1
 24 25  1  0
 26 24  2  0
M  END
$$$$
