RTP.pdb
     RDKit          3D

 26 26  0  0  1  0  0  0  0  0999 V2000
    7.7338  -13.5796   15.6255 N   0  0  0  0  0  0  0  0  0  0  0  0
    8.9616  -13.9382   16.2171 C   0  0  0  0  0  0  0  0  0  0  0  0
    9.6899  -14.9168   15.7959 N   0  0  0  0  0  0  0  0  0  0  0  0
    9.4263  -13.1721   17.3506 N   0  0  0  0  0  0  0  0  0  0  0  0
    9.0264  -13.6487   18.6670 C   0  0  0  0  0  0  0  0  0  0  0  0
    7.5267  -13.6504   18.7603 C   0  0  0  0  0  0  0  0  0  0  0  0
    7.0663  -14.0411   20.1148 C   0  0  0  0  0  0  0  0  0  0  0  0
    7.2996  -15.4460   20.5171 C   0  0  2  0  0  0  0  0  0  0  0  0
    6.5699  -16.4521   19.8008 N   0  0  0  0  0  0  0  0  0  0  0  0
    6.8694  -15.5580   21.9606 C   0  0  0  0  0  0  0  0  0  0  0  0
    5.6615  -15.4929   22.3045 O   0  0  0  0  0  0  0  0  0  0  0  0
   10.5996  -15.1535   16.2424 C   0  0  0  0  0  0  0  0  0  0  0  0
    8.4832  -18.0117   24.2612 C   0  0  2  0  0  0  0  0  0  0  0  0
    7.1252  -17.3464   24.5552 O   0  0  0  0  0  0  0  0  0  0  0  0
    6.8709  -17.6659   25.8966 C   0  0  1  0  0  0  0  0  0  0  0  0
    7.3983  -15.8585   24.3955 N   0  0  0  0  0  0  0  0  0  0  0  0
    7.8191  -15.7417   22.9845 C   0  0  0  0  0  0  0  0  0  0  0  0
    8.4791  -15.3524   25.2352 O   0  0  0  0  0  0  0  0  0  0  0  0
    9.6804  -15.5604   24.8378 N   0  0  0  0  0  0  0  0  0  0  0  0
    8.3581  -14.6475   26.4531 C   0  0  0  0  0  0  0  0  0  0  0  0
    7.1176  -14.3977   27.2003 C   0  0  0  0  0  0  0  0  0  0  0  0
    7.2470  -12.9471   27.5370 C   0  0  0  0  0  0  0  0  0  0  0  0
    8.7172  -12.7852   27.8493 C   0  0  1  0  0  0  0  0  0  0  0  0
    9.3813  -14.0305   27.2589 C   0  0  0  0  0  0  0  0  0  0  0  0
    9.7475  -14.9669   28.3579 O   0  0  0  0  0  0  0  0  0  0  0  0
   10.7939  -14.6849   29.1899 O   0  0  0  0  0  0  0  0  0  0  0  0
  2  1  1  0
  3  2  2  0
  4  2  1  0
  5  6  1  0
  5  4  1  0
  7  6  1  0
  8  7  1  0
  8  9  1  6
 10  8  1  0
 11 10  2  0
 13 12  1  6
 13 15  1  0
 14 13  1  0
 15 17  1  0
 15 16  1  6
 16 10  1  0
 17 18  2  0
 19 20  1  0
 19 17  1  0
 21 20  1  0
 22 21  1  0
 22 23  1  0
 23 19  1  0
 23 24  1  1
 24 25  1  0
 26 24  2  0
M  END
$$$$
