RTP.pdb
     RDKit          3D

 26 26  0  0  1  0  0  0  0  0999 V2000
    7.9083  -12.5130   15.4581 N   0  0  0  0  0  0  0  0  0  0  0  0
    8.1325  -13.9025   15.5309 C   0  0  0  0  0  0  0  0  0  0  0  0
    8.8102  -14.5561   14.6483 N   0  0  0  0  0  0  0  0  0  0  0  0
    7.5758  -14.6293   16.6486 N   0  0  0  0  0  0  0  0  0  0  0  0
    8.5228  -15.1436   17.6278 C   0  0  0  0  0  0  0  0  0  0  0  0
    8.7036  -14.1313   18.7233 C   0  0  0  0  0  0  0  0  0  0  0  0
    7.8524  -14.4421   19.8973 C   0  0  0  0  0  0  0  0  0  0  0  0
    8.0282  -15.7769   20.5117 C   0  0  2  0  0  0  0  0  0  0  0  0
    7.4082  -16.8829   19.8405 N   0  0  0  0  0  0  0  0  0  0  0  0
    7.3984  -15.7066   21.8827 C   0  0  0  0  0  0  0  0  0  0  0  0
    6.1808  -15.4370   22.0453 O   0  0  0  0  0  0  0  0  0  0  0  0
    9.0704  -15.5540   14.7872 C   0  0  0  0  0  0  0  0  0  0  0  0
    6.1005  -17.5439   23.6999 C   0  0  2  0  0  0  0  0  0  0  0  0
    7.1435  -17.1676   24.7693 O   0  0  0  0  0  0  0  0  0  0  0  0
    8.1853  -18.0844   24.5688 C   0  0  2  0  0  0  0  0  0  0  0  0
    7.5785  -15.7615   24.3853 N   0  0  0  0  0  0  0  0  0  0  0  0
    8.1634  -15.9437   23.0412 C   0  0  0  0  0  0  0  0  0  0  0  0
    8.6037  -15.1915   25.2533 O   0  0  0  0  0  0  0  0  0  0  0  0
    9.8280  -15.3920   24.9289 N   0  0  0  0  0  0  0  0  0  0  0  0
    8.4053  -14.4313   26.4270 C   0  0  0  0  0  0  0  0  0  0  0  0
    7.1152  -13.9998   26.9827 C   0  0  0  0  0  0  0  0  0  0  0  0
    7.3829  -12.5652   27.3060 C   0  0  0  0  0  0  0  0  0  0  0  0
    8.8031  -12.5772   27.8236 C   0  0  1  0  0  0  0  0  0  0  0  0
    9.3766  -13.9174   27.3596 C   0  0  0  0  0  0  0  0  0  0  0  0
    9.4605  -14.8499   28.5180 O   0  0  0  0  0  0  0  0  0  0  0  0
   10.4744  -14.7378   29.4269 O   0  0  0  0  0  0  0  0  0  0  0  0
  2  1  1  0
  3  2  2  0
  4  2  1  0
  5  6  1  0
  5  4  1  0
  7  6  1  0
  8  7  1  0
  8  9  1  6
 10  8  1  0
 11 10  2  0
 13 12  1  1
 13 15  1  0
 14 13  1  0
 15 17  1  0
 15 16  1  1
 16 10  1  0
 17 18  2  0
 19 20  1  0
 19 17  1  0
 21 20  1  0
 22 21  1  0
 22 23  1  0
 23 19  1  0
 23 24  1  1
 24 25  1  0
 26 24  2  0
M  END
$$$$
