RTP.pdb
     RDKit          3D

 26 26  0  0  1  0  0  0  0  0999 V2000
   10.0722  -14.5038   16.4784 N   0  0  0  0  0  0  0  0  0  0  0  0
    8.9755  -13.8983   15.8327 C   0  0  0  0  0  0  0  0  0  0  0  0
    8.7945  -13.9431   14.5558 N   0  0  0  0  0  0  0  0  0  0  0  0
    8.0077  -13.1932   16.6411 N   0  0  0  0  0  0  0  0  0  0  0  0
    8.1847  -13.2700   18.0844 C   0  0  0  0  0  0  0  0  0  0  0  0
    8.0589  -14.7011   18.5247 C   0  0  0  0  0  0  0  0  0  0  0  0
    8.2002  -14.8322   19.9952 C   0  0  0  0  0  0  0  0  0  0  0  0
    7.9927  -16.1819   20.5657 C   0  0  2  0  0  0  0  0  0  0  0  0
    7.1730  -17.0834   19.8084 N   0  0  0  0  0  0  0  0  0  0  0  0
    7.2951  -15.9870   21.8910 C   0  0  0  0  0  0  0  0  0  0  0  0
    6.0625  -15.7498   21.9684 O   0  0  0  0  0  0  0  0  0  0  0  0
    7.9291  -13.5723   14.1125 C   0  0  0  0  0  0  0  0  0  0  0  0
    6.0884  -17.7732   23.8510 C   0  0  2  0  0  0  0  0  0  0  0  0
    7.0191  -17.1730   24.9218 O   0  0  0  0  0  0  0  0  0  0  0  0
    8.1511  -17.9999   24.8938 C   0  0  2  0  0  0  0  0  0  0  0  0
    7.3487  -15.7857   24.3921 N   0  0  0  0  0  0  0  0  0  0  0  0
    8.0108  -16.0652   23.1016 C   0  0  0  0  0  0  0  0  0  0  0  0
    8.2781  -15.0296   25.2250 O   0  0  0  0  0  0  0  0  0  0  0  0
    9.5241  -15.1000   24.9303 N   0  0  0  0  0  0  0  0  0  0  0  0
    7.9638  -14.2144   26.3348 C   0  0  0  0  0  0  0  0  0  0  0  0
    6.6196  -13.9099   26.8444 C   0  0  0  0  0  0  0  0  0  0  0  0
    6.6980  -12.4326   27.0583 C   0  0  0  0  0  0  0  0  0  0  0  0
    8.0987  -12.2246   27.5875 C   0  0  1  0  0  0  0  0  0  0  0  0
    8.8452  -13.5121   27.2332 C   0  0  0  0  0  0  0  0  0  0  0  0
    9.0249  -14.3363   28.4609 O   0  0  0  0  0  0  0  0  0  0  0  0
   10.0135  -14.0408   29.3564 O   0  0  0  0  0  0  0  0  0  0  0  0
  2  1  1  0
  3  2  2  0
  4  2  1  0
  5  6  1  0
  5  4  1  0
  7  6  1  0
  8  7  1  0
  8  9  1  6
 10  8  1  0
 11 10  2  0
 13 12  1  1
 13 15  1  0
 14 13  1  0
 15 17  1  0
 15 16  1  1
 16 10  1  0
 17 18  2  0
 19 20  1  0
 19 17  1  0
 21 20  1  0
 22 21  1  0
 22 23  1  0
 23 19  1  0
 23 24  1  1
 24 25  1  0
 26 24  2  0
M  END
$$$$
