RTP.pdb
     RDKit          3D

 26 26  0  0  1  0  0  0  0  0999 V2000
    9.2860  -12.5691   17.1103 N   0  0  0  0  0  0  0  0  0  0  0  0
    8.5103  -13.4286   16.3066 C   0  0  0  0  0  0  0  0  0  0  0  0
    8.6965  -13.5683   15.0373 N   0  0  0  0  0  0  0  0  0  0  0  0
    7.4555  -14.1895   16.9358 N   0  0  0  0  0  0  0  0  0  0  0  0
    7.7628  -14.7823   18.2297 C   0  0  0  0  0  0  0  0  0  0  0  0
    8.0893  -13.6921   19.2107 C   0  0  0  0  0  0  0  0  0  0  0  0
    7.6010  -14.0209   20.5720 C   0  0  0  0  0  0  0  0  0  0  0  0
    7.8006  -15.4132   21.0320 C   0  0  2  0  0  0  0  0  0  0  0  0
    7.0380  -16.4288   20.3650 N   0  0  0  0  0  0  0  0  0  0  0  0
    7.3807  -15.4523   22.4823 C   0  0  0  0  0  0  0  0  0  0  0  0
    6.3512  -14.8599   22.8957 O   0  0  0  0  0  0  0  0  0  0  0  0
    8.1117  -14.2123   14.4662 C   0  0  0  0  0  0  0  0  0  0  0  0
    6.1237  -17.7092   24.1967 C   0  0  2  0  0  0  0  0  0  0  0  0
    7.3023  -17.5108   25.1685 O   0  0  0  0  0  0  0  0  0  0  0  0
    8.2443  -18.4673   24.7639 C   0  0  2  0  0  0  0  0  0  0  0  0
    7.7971  -16.1037   24.8699 N   0  0  0  0  0  0  0  0  0  0  0  0
    8.1379  -16.1628   23.4339 C   0  0  0  0  0  0  0  0  0  0  0  0
    8.9972  -15.7198   25.6061 O   0  0  0  0  0  0  0  0  0  0  0  0
   10.1289  -15.9522   25.0497 N   0  0  0  0  0  0  0  0  0  0  0  0
    9.0622  -15.1113   26.8790 C   0  0  0  0  0  0  0  0  0  0  0  0
    7.9237  -14.7380   27.7298 C   0  0  0  0  0  0  0  0  0  0  0  0
    8.3024  -13.3588   28.1642 C   0  0  0  0  0  0  0  0  0  0  0  0
    9.7954  -13.4526   28.3816 C   0  0  1  0  0  0  0  0  0  0  0  0
   10.2165  -14.7304   27.6534 C   0  0  0  0  0  0  0  0  0  0  0  0
   10.4929  -15.8024   28.6499 O   0  0  0  0  0  0  0  0  0  0  0  0
   11.6340  -15.7742   29.4008 O   0  0  0  0  0  0  0  0  0  0  0  0
  2  1  1  0
  3  2  2  0
  4  2  1  0
  5  6  1  0
  5  4  1  0
  7  6  1  0
  8  7  1  0
  8  9  1  6
 10  8  1  0
 11 10  2  0
 13 12  1  1
 13 15  1  0
 14 13  1  0
 15 17  1  0
 15 16  1  1
 16 10  1  0
 17 18  2  0
 19 20  1  0
 19 17  1  0
 21 20  1  0
 22 21  1  0
 22 23  1  0
 23 19  1  0
 23 24  1  1
 24 25  1  0
 26 24  2  0
M  END
$$$$
