EPM.pdb
     RDKit          3D

 25 25  0  0  1  0  0  0  0  0999 V2000
   10.4724  -16.1941   17.0161 N   0  0  0  0  0  0  0  0  0  0  0  0
    9.3679  -16.1902   17.9165 C   0  0  1  0  0  0  0  0  0  0  0  0
    8.8386  -17.5968   17.9696 C   0  0  0  0  0  0  0  0  0  0  0  0
    7.7133  -17.8326   18.9231 C   0  0  0  0  0  0  0  0  0  0  0  0
    7.1797  -19.2097   18.8601 C   0  0  0  0  0  0  0  0  0  0  0  0
    7.8577  -20.2019   18.5281 O   0  0  0  0  0  0  0  0  0  0  0  0
    9.6033  -15.6826   19.2691 C   0  0  0  0  0  0  0  0  0  0  0  0
   10.4900  -16.3503   19.9322 O   0  0  0  0  0  0  0  0  0  0  0  0
    5.8358  -19.4795   19.1820 O   0  0  0  0  0  0  0  0  0  0  0  0
    8.9920  -14.5893   19.9003 N   0  0  0  0  0  0  0  0  0  0  0  0
    8.5509  -13.3408   19.2238 C   0  0  0  0  0  0  0  0  0  0  0  0
    7.0717  -13.4099   19.6126 C   0  0  0  0  0  0  0  0  0  0  0  0
    7.1170  -13.9859   21.0360 C   0  0  0  0  0  0  0  0  0  0  0  0
    8.6168  -14.2602   21.2443 C   0  0  1  0  0  0  0  0  0  0  0  0
    8.8644  -15.1698   22.3283 C   0  0  0  0  0  0  0  0  0  0  0  0
    8.2930  -16.2464   22.6299 O   0  0  0  0  0  0  0  0  0  0  0  0
   10.2012  -14.1109   29.2147 C   0  0  0  0  0  0  0  0  0  0  0  0
    8.9987  -13.6868   27.9557 S   0  0  0  0  0  0  0  0  0  0  0  0
    8.8080  -15.1208   26.8193 C   0  0  0  0  0  0  0  0  0  0  0  0
    8.8424  -14.6385   25.4007 C   0  0  0  0  0  0  0  0  0  0  0  0
    9.9439  -15.2562   24.6299 C   0  0  2  0  0  0  0  0  0  0  0  0
    9.9284  -14.8268   23.2335 N   0  0  0  0  0  0  0  0  0  0  0  0
    9.9251  -16.7247   24.7127 C   0  0  0  0  0  0  0  0  0  0  0  0
    9.8629  -17.4953   23.5228 O   0  0  0  0  0  0  0  0  0  0  0  0
    9.9589  -17.4076   25.7576 O   0  0  0  0  0  0  0  0  0  0  0  0
  2  1  1  6
  2  7  1  0
  3  2  1  0
  4  3  1  0
  5  4  1  0
  6  5  2  0
  7  8  2  0
  7 10  1  0
  9  5  1  0
 10 14  1  0
 11 10  1  0
 11 12  1  0
 12 13  1  0
 14 15  1  1
 14 13  1  0
 15 16  2  0
 18 17  1  0
 19 18  1  0
 20 19  1  0
 21 20  1  1
 22 21  1  0
 22 15  1  0
 23 24  1  0
 23 21  1  0
 25 23  2  0
M  END
$$$$
