EPM.pdb
     RDKit          3D

 25 25  0  0  1  0  0  0  0  0999 V2000
   11.0963  -18.0906   18.6616 N   0  0  0  0  0  0  0  0  0  0  0  0
   10.1347  -18.2030   19.7071 C   0  0  1  0  0  0  0  0  0  0  0  0
   10.4705  -19.4475   20.4818 C   0  0  0  0  0  0  0  0  0  0  0  0
    9.6422  -19.6991   21.6991 C   0  0  0  0  0  0  0  0  0  0  0  0
   10.0448  -20.9181   22.4318 C   0  0  0  0  0  0  0  0  0  0  0  0
    9.2370  -21.7235   22.9352 O   0  0  0  0  0  0  0  0  0  0  0  0
    9.9879  -17.0626   20.6129 C   0  0  0  0  0  0  0  0  0  0  0  0
   10.9601  -16.9344   21.4556 O   0  0  0  0  0  0  0  0  0  0  0  0
   11.4040  -21.2423   22.6040 O   0  0  0  0  0  0  0  0  0  0  0  0
    8.9433  -16.1279   20.6632 N   0  0  0  0  0  0  0  0  0  0  0  0
    8.3179  -15.4714   19.4847 C   0  0  0  0  0  0  0  0  0  0  0  0
    6.8812  -15.9410   19.7281 C   0  0  0  0  0  0  0  0  0  0  0  0
    6.7609  -15.8999   21.2591 C   0  0  0  0  0  0  0  0  0  0  0  0
    8.1795  -15.4993   21.7010 C   0  0  1  0  0  0  0  0  0  0  0  0
    8.4273  -15.7908   23.0857 C   0  0  0  0  0  0  0  0  0  0  0  0
    8.2024  -16.8338   23.7476 O   0  0  0  0  0  0  0  0  0  0  0  0
    6.5547  -11.0453   28.4042 C   0  0  0  0  0  0  0  0  0  0  0  0
    6.5119  -11.4394   26.6567 S   0  0  0  0  0  0  0  0  0  0  0  0
    6.7314  -13.2551   26.4589 C   0  0  0  0  0  0  0  0  0  0  0  0
    7.3165  -13.5406   25.1089 C   0  0  0  0  0  0  0  0  0  0  0  0
    8.5351  -14.3751   25.1962 C   0  0  2  0  0  0  0  0  0  0  0  0
    9.0275  -14.7463   23.8717 N   0  0  0  0  0  0  0  0  0  0  0  0
    8.3282  -15.5767   26.0191 C   0  0  0  0  0  0  0  0  0  0  0  0
    7.4272  -16.5820   25.5816 O   0  0  0  0  0  0  0  0  0  0  0  0
    8.8785  -15.8297   27.1112 O   0  0  0  0  0  0  0  0  0  0  0  0
  2  1  1  6
  2  7  1  0
  3  2  1  0
  4  3  1  0
  5  4  1  0
  6  5  2  0
  7  8  2  0
  7 10  1  0
  9  5  1  0
 10 14  1  0
 11 10  1  0
 11 12  1  0
 12 13  1  0
 14 15  1  1
 14 13  1  0
 15 16  2  0
 18 17  1  0
 19 18  1  0
 20 19  1  0
 21 20  1  6
 22 21  1  0
 22 15  1  0
 23 24  1  0
 23 21  1  0
 25 23  2  0
M  END
$$$$
