EPM.pdb
     RDKit          3D

 25 25  0  0  1  0  0  0  0  0999 V2000
   13.2813  -14.2443   18.7449 N   0  0  0  0  0  0  0  0  0  0  0  0
   11.9048  -14.6002   18.6500 C   0  0  1  0  0  0  0  0  0  0  0  0
   11.8432  -16.1005   18.5652 C   0  0  0  0  0  0  0  0  0  0  0  0
   12.4085  -16.8415   19.7324 C   0  0  0  0  0  0  0  0  0  0  0  0
   11.5653  -17.9776   20.1607 C   0  0  0  0  0  0  0  0  0  0  0  0
   10.9551  -18.0177   21.2472 O   0  0  0  0  0  0  0  0  0  0  0  0
   11.0088  -14.1117   19.6993 C   0  0  0  0  0  0  0  0  0  0  0  0
   11.5374  -14.1068   20.8792 O   0  0  0  0  0  0  0  0  0  0  0  0
   11.4032  -19.1081   19.3374 O   0  0  0  0  0  0  0  0  0  0  0  0
    9.6859  -13.6647   19.5668 N   0  0  0  0  0  0  0  0  0  0  0  0
    9.1321  -12.9518   18.3853 C   0  0  0  0  0  0  0  0  0  0  0  0
    8.0176  -13.9466   18.0507 C   0  0  0  0  0  0  0  0  0  0  0  0
    7.5409  -14.4076   19.4364 C   0  0  0  0  0  0  0  0  0  0  0  0
    8.5105  -13.6842   20.3876 C   0  0  1  0  0  0  0  0  0  0  0  0
    8.5310  -14.2673   21.7003 C   0  0  0  0  0  0  0  0  0  0  0  0
    8.9508  -15.3868   22.0837 O   0  0  0  0  0  0  0  0  0  0  0  0
    6.7264  -12.4691   29.2220 C   0  0  0  0  0  0  0  0  0  0  0  0
    6.4035  -12.1463   27.4893 S   0  0  0  0  0  0  0  0  0  0  0  0
    7.3503  -13.3582   26.4799 C   0  0  0  0  0  0  0  0  0  0  0  0
    7.2162  -13.0085   25.0287 C   0  0  0  0  0  0  0  0  0  0  0  0
    7.9940  -13.9217   24.1625 C   0  0  2  0  0  0  0  0  0  0  0  0
    7.9937  -13.4726   22.7722 N   0  0  0  0  0  0  0  0  0  0  0  0
    7.5184  -15.3108   24.2504 C   0  0  0  0  0  0  0  0  0  0  0  0
    8.1775  -16.2265   25.1111 O   0  0  0  0  0  0  0  0  0  0  0  0
    6.5558  -15.8046   23.6268 O   0  0  0  0  0  0  0  0  0  0  0  0
  2  1  1  1
  2  7  1  0
  3  2  1  0
  4  3  1  0
  5  4  1  0
  6  5  2  0
  7  8  2  0
  7 10  1  0
  9  5  1  0
 10 14  1  0
 11 10  1  0
 11 12  1  0
 12 13  1  0
 14 15  1  1
 14 13  1  0
 15 16  2  0
 18 17  1  0
 19 18  1  0
 20 19  1  0
 21 20  1  1
 22 21  1  0
 22 15  1  0
 23 24  1  0
 23 21  1  0
 25 23  2  0
M  END
$$$$
