EPM.pdb
     RDKit          3D

 25 25  0  0  1  0  0  0  0  0999 V2000
   11.3902  -16.8049   18.3881 N   0  0  0  0  0  0  0  0  0  0  0  0
   10.1573  -16.9268   19.0921 C   0  0  1  0  0  0  0  0  0  0  0  0
    9.9754  -18.3851   19.4115 C   0  0  0  0  0  0  0  0  0  0  0  0
   10.5209  -18.8355   20.7271 C   0  0  0  0  0  0  0  0  0  0  0  0
    9.7689  -19.9673   21.3090 C   0  0  0  0  0  0  0  0  0  0  0  0
    9.4273  -20.0308   22.5065 O   0  0  0  0  0  0  0  0  0  0  0  0
    9.9872  -16.1155   20.2985 C   0  0  0  0  0  0  0  0  0  0  0  0
   10.9751  -16.1978   21.1287 O   0  0  0  0  0  0  0  0  0  0  0  0
    9.3879  -21.0661   20.5155 O   0  0  0  0  0  0  0  0  0  0  0  0
    8.9066  -15.2884   20.6384 N   0  0  0  0  0  0  0  0  0  0  0  0
    8.1783  -14.3941   19.6999 C   0  0  0  0  0  0  0  0  0  0  0  0
    6.7829  -14.9955   19.8865 C   0  0  0  0  0  0  0  0  0  0  0  0
    6.7585  -15.3501   21.3811 C   0  0  0  0  0  0  0  0  0  0  0  0
    8.1827  -14.9898   21.8394 C   0  0  1  0  0  0  0  0  0  0  0  0
    8.5310  -15.6064   23.0892 C   0  0  0  0  0  0  0  0  0  0  0  0
    8.1809  -16.7105   23.5739 O   0  0  0  0  0  0  0  0  0  0  0  0
    5.6109  -11.7098   26.6108 C   0  0  0  0  0  0  0  0  0  0  0  0
    7.1675  -11.9162   27.4741 S   0  0  0  0  0  0  0  0  0  0  0  0
    7.8202  -13.5979   27.1135 C   0  0  0  0  0  0  0  0  0  0  0  0
    8.1362  -13.7053   25.6524 C   0  0  0  0  0  0  0  0  0  0  0  0
    9.1807  -14.7180   25.3823 C   0  0  2  0  0  0  0  0  0  0  0  0
    9.4203  -14.8729   23.9495 N   0  0  0  0  0  0  0  0  0  0  0  0
    8.8637  -16.0192   25.9906 C   0  0  0  0  0  0  0  0  0  0  0  0
    9.5185  -16.4149   27.1858 O   0  0  0  0  0  0  0  0  0  0  0  0
    8.0463  -16.8587   25.5588 O   0  0  0  0  0  0  0  0  0  0  0  0
  2  1  1  1
  2  7  1  0
  3  2  1  0
  4  3  1  0
  5  4  1  0
  6  5  2  0
  7  8  2  0
  7 10  1  0
  9  5  1  0
 10 14  1  0
 11 10  1  0
 11 12  1  0
 12 13  1  0
 14 15  1  1
 14 13  1  0
 15 16  2  0
 18 17  1  0
 19 18  1  0
 20 19  1  0
 21 20  1  6
 22 21  1  0
 22 15  1  0
 23 24  1  0
 23 21  1  0
 25 23  2  0
M  END
$$$$
