EPM.pdb
     RDKit          3D

 25 25  0  0  1  0  0  0  0  0999 V2000
   12.9173  -14.2950   18.7817 N   0  0  0  0  0  0  0  0  0  0  0  0
   11.5504  -14.6960   18.8168 C   0  0  1  0  0  0  0  0  0  0  0  0
   11.5164  -16.1694   18.5173 C   0  0  0  0  0  0  0  0  0  0  0  0
   11.7290  -17.0755   19.6857 C   0  0  0  0  0  0  0  0  0  0  0  0
   11.5935  -18.5065   19.3411 C   0  0  0  0  0  0  0  0  0  0  0  0
   11.3391  -18.9227   18.1936 O   0  0  0  0  0  0  0  0  0  0  0  0
   10.7943  -14.4060   20.0360 C   0  0  0  0  0  0  0  0  0  0  0  0
   11.3981  -14.7592   21.1234 O   0  0  0  0  0  0  0  0  0  0  0  0
   11.7496  -19.5042   20.3221 O   0  0  0  0  0  0  0  0  0  0  0  0
    9.5305  -13.8078   20.1473 N   0  0  0  0  0  0  0  0  0  0  0  0
    9.0002  -12.7432   19.2549 C   0  0  0  0  0  0  0  0  0  0  0  0
    7.7548  -13.4879   18.7667 C   0  0  0  0  0  0  0  0  0  0  0  0
    7.3068  -14.2635   20.0148 C   0  0  0  0  0  0  0  0  0  0  0  0
    8.4113  -13.9341   21.0345 C   0  0  1  0  0  0  0  0  0  0  0  0
    8.4368  -14.8568   22.1353 C   0  0  0  0  0  0  0  0  0  0  0  0
    8.5234  -16.1093   22.1415 O   0  0  0  0  0  0  0  0  0  0  0  0
    5.6803  -11.4170   27.0597 C   0  0  0  0  0  0  0  0  0  0  0  0
    6.5813  -12.9627   27.1590 S   0  0  0  0  0  0  0  0  0  0  0  0
    7.8389  -12.9963   25.8169 C   0  0  0  0  0  0  0  0  0  0  0  0
    8.5937  -14.2899   25.8757 C   0  0  0  0  0  0  0  0  0  0  0  0
    8.3802  -15.1137   24.6653 C   0  0  2  0  0  0  0  0  0  0  0  0
    8.3516  -14.2939   23.4563 N   0  0  0  0  0  0  0  0  0  0  0  0
    7.1606  -15.9309   24.7571 C   0  0  0  0  0  0  0  0  0  0  0  0
    6.1128  -15.7380   23.8198 O   0  0  0  0  0  0  0  0  0  0  0  0
    6.9262  -16.8183   25.6038 O   0  0  0  0  0  0  0  0  0  0  0  0
  2  1  1  1
  2  7  1  0
  3  2  1  0
  4  3  1  0
  5  4  1  0
  6  5  2  0
  7  8  2  0
  7 10  1  0
  9  5  1  0
 10 14  1  0
 11 10  1  0
 11 12  1  0
 12 13  1  0
 14 15  1  1
 14 13  1  0
 15 16  2  0
 18 17  1  0
 19 18  1  0
 20 19  1  0
 21 20  1  1
 22 21  1  0
 22 15  1  0
 23 24  1  0
 23 21  1  0
 25 23  2  0
M  END
$$$$
