EPM.pdb
     RDKit          3D

 25 25  0  0  1  0  0  0  0  0999 V2000
    9.7820  -16.8621   18.0273 N   0  0  0  0  0  0  0  0  0  0  0  0
    9.7506  -17.5873   19.2536 C   0  0  1  0  0  0  0  0  0  0  0  0
   11.0302  -18.3735   19.3324 C   0  0  0  0  0  0  0  0  0  0  0  0
   12.2841  -17.5673   19.4269 C   0  0  0  0  0  0  0  0  0  0  0  0
   13.4598  -18.3695   19.8257 C   0  0  0  0  0  0  0  0  0  0  0  0
   14.6067  -17.8995   19.9614 O   0  0  0  0  0  0  0  0  0  0  0  0
    9.5461  -16.8215   20.4841 C   0  0  0  0  0  0  0  0  0  0  0  0
   10.0012  -17.4037   21.5451 O   0  0  0  0  0  0  0  0  0  0  0  0
   13.3408  -19.7491   20.0806 O   0  0  0  0  0  0  0  0  0  0  0  0
    8.9314  -15.5693   20.6305 N   0  0  0  0  0  0  0  0  0  0  0  0
    8.8290  -14.5312   19.5709 C   0  0  0  0  0  0  0  0  0  0  0  0
    7.3025  -14.4195   19.5415 C   0  0  0  0  0  0  0  0  0  0  0  0
    6.9170  -14.5890   21.0190 C   0  0  0  0  0  0  0  0  0  0  0  0
    8.2712  -14.8697   21.6937 C   0  0  1  0  0  0  0  0  0  0  0  0
    8.1256  -15.4619   22.9944 C   0  0  0  0  0  0  0  0  0  0  0  0
    8.3183  -16.6433   23.3735 O   0  0  0  0  0  0  0  0  0  0  0  0
   10.2465  -14.2729   30.0919 C   0  0  0  0  0  0  0  0  0  0  0  0
    9.7612  -13.6664   28.4771 S   0  0  0  0  0  0  0  0  0  0  0  0
    9.3103  -15.1039   27.4214 C   0  0  0  0  0  0  0  0  0  0  0  0
    9.1490  -14.6474   26.0030 C   0  0  0  0  0  0  0  0  0  0  0  0
    7.8057  -14.9604   25.4675 C   0  0  2  0  0  0  0  0  0  0  0  0
    7.6917  -14.5955   24.0574 N   0  0  0  0  0  0  0  0  0  0  0  0
    6.7338  -14.3235   26.2480 C   0  0  0  0  0  0  0  0  0  0  0  0
    5.8912  -15.1201   27.0660 O   0  0  0  0  0  0  0  0  0  0  0  0
    6.4639  -13.1047   26.2777 O   0  0  0  0  0  0  0  0  0  0  0  0
  2  1  1  6
  2  7  1  0
  3  2  1  0
  4  3  1  0
  5  4  1  0
  6  5  2  0
  7  8  2  0
  7 10  1  0
  9  5  1  0
 10 14  1  0
 11 10  1  0
 11 12  1  0
 12 13  1  0
 14 15  1  1
 14 13  1  0
 15 16  2  0
 18 17  1  0
 19 18  1  0
 20 19  1  0
 21 20  1  1
 22 21  1  0
 22 15  1  0
 23 24  1  0
 23 21  1  0
 25 23  2  0
M  END
$$$$
