EPM.pdb
     RDKit          3D

 25 25  0  0  1  0  0  0  0  0999 V2000
   10.1108  -17.6251   18.0893 N   0  0  0  0  0  0  0  0  0  0  0  0
   10.3734  -17.9020   19.4622 C   0  0  1  0  0  0  0  0  0  0  0  0
   11.8090  -18.3400   19.5558 C   0  0  0  0  0  0  0  0  0  0  0  0
   12.2910  -18.7010   20.9227 C   0  0  0  0  0  0  0  0  0  0  0  0
   13.7235  -19.0643   20.9546 C   0  0  0  0  0  0  0  0  0  0  0  0
   14.3526  -19.3145   22.0016 O   0  0  0  0  0  0  0  0  0  0  0  0
   10.1014  -16.8366   20.4284 C   0  0  0  0  0  0  0  0  0  0  0  0
   11.0678  -16.6251   21.2609 O   0  0  0  0  0  0  0  0  0  0  0  0
   14.4743  -19.1491   19.7666 O   0  0  0  0  0  0  0  0  0  0  0  0
    8.9465  -16.0491   20.5439 N   0  0  0  0  0  0  0  0  0  0  0  0
    8.1671  -15.4916   19.4069 C   0  0  0  0  0  0  0  0  0  0  0  0
    6.8240  -16.1465   19.7398 C   0  0  0  0  0  0  0  0  0  0  0  0
    6.7944  -16.1090   21.2753 C   0  0  0  0  0  0  0  0  0  0  0  0
    8.1715  -15.5193   21.6276 C   0  0  1  0  0  0  0  0  0  0  0  0
    8.5413  -15.7636   22.9940 C   0  0  0  0  0  0  0  0  0  0  0  0
    8.4907  -16.8197   23.6713 O   0  0  0  0  0  0  0  0  0  0  0  0
    6.4116  -10.8668   28.2063 C   0  0  0  0  0  0  0  0  0  0  0  0
    6.7034  -11.2539   26.4812 S   0  0  0  0  0  0  0  0  0  0  0  0
    6.7686  -13.0827   26.2929 C   0  0  0  0  0  0  0  0  0  0  0  0
    7.3369  -13.4237   24.9486 C   0  0  0  0  0  0  0  0  0  0  0  0
    8.5446  -14.2720   25.0544 C   0  0  2  0  0  0  0  0  0  0  0  0
    9.0556  -14.6447   23.7374 N   0  0  0  0  0  0  0  0  0  0  0  0
    8.3102  -15.4735   25.8699 C   0  0  0  0  0  0  0  0  0  0  0  0
    8.6399  -15.4619   27.2500 O   0  0  0  0  0  0  0  0  0  0  0  0
    7.8318  -16.5563   25.4722 O   0  0  0  0  0  0  0  0  0  0  0  0
  2  1  1  6
  2  7  1  0
  3  2  1  0
  4  3  1  0
  5  4  1  0
  6  5  2  0
  7  8  2  0
  7 10  1  0
  9  5  1  0
 10 14  1  0
 11 10  1  0
 11 12  1  0
 12 13  1  0
 14 15  1  1
 14 13  1  0
 15 16  2  0
 18 17  1  0
 19 18  1  0
 20 19  1  0
 21 20  1  6
 22 21  1  0
 22 15  1  0
 23 24  1  0
 23 21  1  0
 25 23  2  0
M  END
$$$$
