EPM.pdb
     RDKit          3D

 25 25  0  0  1  0  0  0  0  0999 V2000
    8.5311  -18.1057   18.0727 N   0  0  0  0  0  0  0  0  0  0  0  0
    8.6425  -18.7676   19.3297 C   0  0  1  0  0  0  0  0  0  0  0  0
   10.1101  -18.9554   19.5993 C   0  0  0  0  0  0  0  0  0  0  0  0
   10.9061  -19.5463   18.4820 C   0  0  0  0  0  0  0  0  0  0  0  0
   12.3613  -19.5408   18.7415 C   0  0  0  0  0  0  0  0  0  0  0  0
   13.1522  -18.7176   18.2401 O   0  0  0  0  0  0  0  0  0  0  0  0
    7.9886  -18.1427   20.4805 C   0  0  0  0  0  0  0  0  0  0  0  0
    8.1960  -16.8698   20.5734 O   0  0  0  0  0  0  0  0  0  0  0  0
   12.9470  -20.4950   19.5952 O   0  0  0  0  0  0  0  0  0  0  0  0
    7.1900  -18.7544   21.4580 N   0  0  0  0  0  0  0  0  0  0  0  0
    6.2149  -19.8495   21.2115 C   0  0  0  0  0  0  0  0  0  0  0  0
    6.8250  -20.8835   22.1615 C   0  0  0  0  0  0  0  0  0  0  0  0
    7.3078  -20.0246   23.3402 C   0  0  0  0  0  0  0  0  0  0  0  0
    6.9940  -18.5935   22.8691 C   0  0  1  0  0  0  0  0  0  0  0  0
    7.7181  -17.5989   23.6108 C   0  0  0  0  0  0  0  0  0  0  0  0
    8.9515  -17.4740   23.8095 O   0  0  0  0  0  0  0  0  0  0  0  0
    6.7277  -10.5209   27.0354 C   0  0  0  0  0  0  0  0  0  0  0  0
    5.9397  -11.9183   26.2371 S   0  0  0  0  0  0  0  0  0  0  0  0
    7.1909  -13.2479   26.0119 C   0  0  0  0  0  0  0  0  0  0  0  0
    6.5751  -14.3869   25.2571 C   0  0  0  0  0  0  0  0  0  0  0  0
    7.5493  -15.4679   24.9892 C   0  0  2  0  0  0  0  0  0  0  0  0
    6.9410  -16.5651   24.2406 N   0  0  0  0  0  0  0  0  0  0  0  0
    8.1709  -15.9741   26.2225 C   0  0  0  0  0  0  0  0  0  0  0  0
    9.3495  -15.3594   26.7194 O   0  0  0  0  0  0  0  0  0  0  0  0
    7.7647  -16.9279   26.9186 O   0  0  0  0  0  0  0  0  0  0  0  0
  2  1  1  6
  2  7  1  0
  3  2  1  0
  4  3  1  0
  5  4  1  0
  6  5  2  0
  7  8  2  0
  7 10  1  0
  9  5  1  0
 10 14  1  0
 11 10  1  0
 11 12  1  0
 12 13  1  0
 14 15  1  1
 14 13  1  0
 15 16  2  0
 18 17  1  0
 19 18  1  0
 20 19  1  0
 21 20  1  1
 22 21  1  0
 22 15  1  0
 23 24  1  0
 23 21  1  0
 25 23  2  0
M  END
$$$$
