EPM.pdb
     RDKit          3D

 25 25  0  0  1  0  0  0  0  0999 V2000
   13.0584  -13.7689   18.6072 N   0  0  0  0  0  0  0  0  0  0  0  0
   11.7687  -14.3701   18.6812 C   0  0  1  0  0  0  0  0  0  0  0  0
   11.9270  -15.8044   18.2576 C   0  0  0  0  0  0  0  0  0  0  0  0
   11.5724  -16.8289   19.2852 C   0  0  0  0  0  0  0  0  0  0  0  0
   11.7329  -18.2158   18.7998 C   0  0  0  0  0  0  0  0  0  0  0  0
   11.0379  -19.1733   19.1931 O   0  0  0  0  0  0  0  0  0  0  0  0
   11.0611  -14.2913   19.9601 C   0  0  0  0  0  0  0  0  0  0  0  0
   11.7890  -14.6046   20.9817 O   0  0  0  0  0  0  0  0  0  0  0  0
   12.7099  -18.5365   17.8380 O   0  0  0  0  0  0  0  0  0  0  0  0
    9.7262  -13.9259   20.1880 N   0  0  0  0  0  0  0  0  0  0  0  0
    8.9156  -13.0369   19.3141 C   0  0  0  0  0  0  0  0  0  0  0  0
    7.7879  -14.0258   19.0071 C   0  0  0  0  0  0  0  0  0  0  0  0
    7.6259  -14.7847   20.3329 C   0  0  0  0  0  0  0  0  0  0  0  0
    8.7493  -14.1934   21.2027 C   0  0  1  0  0  0  0  0  0  0  0  0
    9.0619  -15.0207   22.3348 C   0  0  0  0  0  0  0  0  0  0  0  0
    9.4591  -16.2107   22.3843 O   0  0  0  0  0  0  0  0  0  0  0  0
    9.7822  -14.6424   30.2200 C   0  0  0  0  0  0  0  0  0  0  0  0
    9.1027  -13.8635   28.7563 S   0  0  0  0  0  0  0  0  0  0  0  0
    9.2882  -15.0188   27.3368 C   0  0  0  0  0  0  0  0  0  0  0  0
    9.0803  -14.2691   26.0557 C   0  0  0  0  0  0  0  0  0  0  0  0
    9.2040  -15.1472   24.8713 C   0  0  2  0  0  0  0  0  0  0  0  0
    8.9074  -14.4264   23.6356 N   0  0  0  0  0  0  0  0  0  0  0  0
    8.3592  -16.3467   24.9780 C   0  0  0  0  0  0  0  0  0  0  0  0
    8.8956  -17.5374   25.5330 O   0  0  0  0  0  0  0  0  0  0  0  0
    7.1669  -16.4466   24.6203 O   0  0  0  0  0  0  0  0  0  0  0  0
  2  1  1  1
  2  7  1  0
  3  2  1  0
  4  3  1  0
  5  4  1  0
  6  5  2  0
  7  8  2  0
  7 10  1  0
  9  5  1  0
 10 14  1  0
 11 10  1  0
 11 12  1  0
 12 13  1  0
 14 15  1  1
 14 13  1  0
 15 16  2  0
 18 17  1  0
 19 18  1  0
 20 19  1  0
 21 20  1  1
 22 21  1  0
 22 15  1  0
 23 24  1  0
 23 21  1  0
 25 23  2  0
M  END
$$$$
