EPM.pdb
     RDKit          3D

 25 25  0  0  1  0  0  0  0  0999 V2000
   12.0591  -13.1405   18.5635 N   0  0  0  0  0  0  0  0  0  0  0  0
   11.1156  -14.1458   18.9235 C   0  0  1  0  0  0  0  0  0  0  0  0
   11.7905  -15.4747   18.7222 C   0  0  0  0  0  0  0  0  0  0  0  0
   12.9395  -15.7648   19.6316 C   0  0  0  0  0  0  0  0  0  0  0  0
   13.5072  -17.1153   19.4347 C   0  0  0  0  0  0  0  0  0  0  0  0
   14.7161  -17.3356   19.2229 O   0  0  0  0  0  0  0  0  0  0  0  0
   10.5280  -14.0700   20.2619 C   0  0  0  0  0  0  0  0  0  0  0  0
   11.4003  -14.0092   21.2144 O   0  0  0  0  0  0  0  0  0  0  0  0
   12.6859  -18.2580   19.4775 O   0  0  0  0  0  0  0  0  0  0  0  0
    9.1692  -14.0569   20.6095 N   0  0  0  0  0  0  0  0  0  0  0  0
    8.0856  -13.4090   19.8239 C   0  0  0  0  0  0  0  0  0  0  0  0
    7.2252  -14.6549   19.5972 C   0  0  0  0  0  0  0  0  0  0  0  0
    7.3784  -15.4234   20.9185 C   0  0  0  0  0  0  0  0  0  0  0  0
    8.3852  -14.5603   21.6993 C   0  0  1  0  0  0  0  0  0  0  0  0
    8.9959  -15.2745   22.7858 C   0  0  0  0  0  0  0  0  0  0  0  0
    9.6910  -16.3201   22.7796 O   0  0  0  0  0  0  0  0  0  0  0  0
   10.5762  -14.5304   30.5230 C   0  0  0  0  0  0  0  0  0  0  0  0
    9.6314  -13.9179   29.1290 S   0  0  0  0  0  0  0  0  0  0  0  0
    9.8990  -15.0432   27.6986 C   0  0  0  0  0  0  0  0  0  0  0  0
    9.2412  -14.4654   26.4821 C   0  0  0  0  0  0  0  0  0  0  0  0
    9.4064  -15.3335   25.2954 C   0  0  2  0  0  0  0  0  0  0  0  0
    8.8029  -14.7371   24.1060 N   0  0  0  0  0  0  0  0  0  0  0  0
    8.8703  -16.6853   25.5166 C   0  0  0  0  0  0  0  0  0  0  0  0
    9.7518  -17.7445   25.8556 O   0  0  0  0  0  0  0  0  0  0  0  0
    7.6723  -17.0286   25.4377 O   0  0  0  0  0  0  0  0  0  0  0  0
  2  1  1  1
  2  7  1  0
  3  2  1  0
  4  3  1  0
  5  4  1  0
  6  5  2  0
  7  8  2  0
  7 10  1  0
  9  5  1  0
 10 14  1  0
 11 10  1  0
 11 12  1  0
 12 13  1  0
 14 15  1  1
 14 13  1  0
 15 16  2  0
 18 17  1  0
 19 18  1  0
 20 19  1  0
 21 20  1  1
 22 21  1  0
 22 15  1  0
 23 24  1  0
 23 21  1  0
 25 23  2  0
M  END
$$$$
