EPM.pdb
     RDKit          3D

 25 25  0  0  1  0  0  0  0  0999 V2000
   11.0736  -16.1808   17.1492 N   0  0  0  0  0  0  0  0  0  0  0  0
    9.8325  -15.8760   17.7796 C   0  0  1  0  0  0  0  0  0  0  0  0
    8.9880  -17.1186   17.7119 C   0  0  0  0  0  0  0  0  0  0  0  0
    9.5400  -18.3187   18.4093 C   0  0  0  0  0  0  0  0  0  0  0  0
    8.4903  -19.2158   18.9369 C   0  0  0  0  0  0  0  0  0  0  0  0
    7.6549  -18.8753   19.7976 O   0  0  0  0  0  0  0  0  0  0  0  0
    9.8806  -15.3663   19.1509 C   0  0  0  0  0  0  0  0  0  0  0  0
   10.7028  -16.0042   19.9183 O   0  0  0  0  0  0  0  0  0  0  0  0
    8.3767  -20.5426   18.4798 O   0  0  0  0  0  0  0  0  0  0  0  0
    9.1566  -14.2988   19.7018 N   0  0  0  0  0  0  0  0  0  0  0  0
    8.8623  -13.0129   19.0156 C   0  0  0  0  0  0  0  0  0  0  0  0
    7.3351  -13.0839   19.0954 C   0  0  0  0  0  0  0  0  0  0  0  0
    7.0924  -13.7308   20.4675 C   0  0  0  0  0  0  0  0  0  0  0  0
    8.5193  -14.0329   20.9583 C   0  0  1  0  0  0  0  0  0  0  0  0
    8.5425  -14.9984   22.0217 C   0  0  0  0  0  0  0  0  0  0  0  0
    7.9751  -16.1145   22.1160 O   0  0  0  0  0  0  0  0  0  0  0  0
    5.7240  -11.6021   27.6140 C   0  0  0  0  0  0  0  0  0  0  0  0
    7.2809  -12.0786   26.8656 S   0  0  0  0  0  0  0  0  0  0  0  0
    7.0549  -13.6967   26.0203 C   0  0  0  0  0  0  0  0  0  0  0  0
    7.7044  -13.6470   24.6705 C   0  0  0  0  0  0  0  0  0  0  0  0
    8.7762  -14.6576   24.5315 C   0  0  2  0  0  0  0  0  0  0  0  0
    9.3301  -14.6700   23.1797 N   0  0  0  0  0  0  0  0  0  0  0  0
    8.3224  -16.0047   24.9098 C   0  0  0  0  0  0  0  0  0  0  0  0
    7.1991  -16.5770   24.2583 O   0  0  0  0  0  0  0  0  0  0  0  0
    8.8335  -16.7410   25.7792 O   0  0  0  0  0  0  0  0  0  0  0  0
  2  1  1  1
  2  7  1  0
  3  2  1  0
  4  3  1  0
  5  4  1  0
  6  5  2  0
  7  8  2  0
  7 10  1  0
  9  5  1  0
 10 14  1  0
 11 10  1  0
 11 12  1  0
 12 13  1  0
 14 15  1  1
 14 13  1  0
 15 16  2  0
 18 17  1  0
 19 18  1  0
 20 19  1  0
 21 20  1  6
 22 21  1  0
 22 15  1  0
 23 24  1  0
 23 21  1  0
 25 23  2  0
M  END
$$$$
