EPM.pdb
     RDKit          3D

 25 25  0  0  1  0  0  0  0  0999 V2000
    7.3743  -18.6776   19.3101 N   0  0  0  0  0  0  0  0  0  0  0  0
    8.7342  -18.4891   19.6916 C   0  0  1  0  0  0  0  0  0  0  0  0
    9.5464  -18.4622   18.4261 C   0  0  0  0  0  0  0  0  0  0  0  0
    9.1198  -17.4632   17.4008 C   0  0  0  0  0  0  0  0  0  0  0  0
    9.9235  -17.5256   16.1618 C   0  0  0  0  0  0  0  0  0  0  0  0
    9.7488  -16.7733   15.1830 O   0  0  0  0  0  0  0  0  0  0  0  0
    9.0457  -17.3248   20.5222 C   0  0  0  0  0  0  0  0  0  0  0  0
    9.9232  -17.5578   21.4428 O   0  0  0  0  0  0  0  0  0  0  0  0
   10.9601  -18.4676   16.0194 O   0  0  0  0  0  0  0  0  0  0  0  0
    8.5135  -16.0303   20.4300 N   0  0  0  0  0  0  0  0  0  0  0  0
    7.7976  -15.4756   19.2508 C   0  0  0  0  0  0  0  0  0  0  0  0
    6.4796  -15.1379   19.9525 C   0  0  0  0  0  0  0  0  0  0  0  0
    6.9402  -14.6636   21.3392 C   0  0  0  0  0  0  0  0  0  0  0  0
    8.4628  -14.8799   21.2842 C   0  0  1  0  0  0  0  0  0  0  0  0
    9.0637  -14.8966   22.5889 C   0  0  0  0  0  0  0  0  0  0  0  0
   10.0575  -14.2700   23.0319 O   0  0  0  0  0  0  0  0  0  0  0  0
    5.6234  -11.4936   26.8377 C   0  0  0  0  0  0  0  0  0  0  0  0
    7.3546  -11.9526   26.7798 S   0  0  0  0  0  0  0  0  0  0  0  0
    7.4721  -13.7820   26.6266 C   0  0  0  0  0  0  0  0  0  0  0  0
    7.5883  -14.1528   25.1791 C   0  0  0  0  0  0  0  0  0  0  0  0
    8.3680  -15.3951   24.9842 C   0  0  2  0  0  0  0  0  0  0  0  0
    8.4588  -15.7557   23.5713 N   0  0  0  0  0  0  0  0  0  0  0  0
    7.8273  -16.5189   25.7642 C   0  0  0  0  0  0  0  0  0  0  0  0
    8.1331  -16.6276   27.1456 O   0  0  0  0  0  0  0  0  0  0  0  0
    7.0949  -17.4341   25.3337 O   0  0  0  0  0  0  0  0  0  0  0  0
  2  1  1  6
  2  7  1  0
  3  2  1  0
  4  3  1  0
  5  4  1  0
  6  5  2  0
  7  8  2  0
  7 10  1  0
  9  5  1  0
 10 14  1  0
 11 10  1  0
 11 12  1  0
 12 13  1  0
 14 15  1  1
 14 13  1  0
 15 16  2  0
 18 17  1  0
 19 18  1  0
 20 19  1  0
 21 20  1  6
 22 21  1  0
 22 15  1  0
 23 24  1  0
 23 21  1  0
 25 23  2  0
M  END
$$$$
