EPM.pdb
     RDKit          3D

 25 25  0  0  1  0  0  0  0  0999 V2000
   13.0777  -14.3921   18.5942 N   0  0  0  0  0  0  0  0  0  0  0  0
   11.7458  -14.8753   18.7460 C   0  0  1  0  0  0  0  0  0  0  0  0
   11.8294  -16.3741   18.8377 C   0  0  0  0  0  0  0  0  0  0  0  0
   12.2065  -16.9237   20.1745 C   0  0  0  0  0  0  0  0  0  0  0  0
   12.1254  -18.3982   20.2383 C   0  0  0  0  0  0  0  0  0  0  0  0
   11.7315  -19.1128   19.2956 O   0  0  0  0  0  0  0  0  0  0  0  0
   10.9572  -14.3397   19.8567 C   0  0  0  0  0  0  0  0  0  0  0  0
   11.5790  -14.3436   20.9904 O   0  0  0  0  0  0  0  0  0  0  0  0
   12.5006  -19.0930   21.4040 O   0  0  0  0  0  0  0  0  0  0  0  0
    9.6466  -13.8410   19.8244 N   0  0  0  0  0  0  0  0  0  0  0  0
    9.0441  -13.0756   18.7010 C   0  0  0  0  0  0  0  0  0  0  0  0
    7.8725  -14.0192   18.4166 C   0  0  0  0  0  0  0  0  0  0  0  0
    7.4707  -14.5006   19.8190 C   0  0  0  0  0  0  0  0  0  0  0  0
    8.5280  -13.8401   20.7213 C   0  0  1  0  0  0  0  0  0  0  0  0
    8.6125  -14.4598   22.0145 C   0  0  0  0  0  0  0  0  0  0  0  0
    8.9813  -15.6159   22.3370 O   0  0  0  0  0  0  0  0  0  0  0  0
    5.9505  -11.4637   27.6318 C   0  0  0  0  0  0  0  0  0  0  0  0
    7.2492  -12.6560   27.9523 S   0  0  0  0  0  0  0  0  0  0  0  0
    7.1084  -14.0208   26.7269 C   0  0  0  0  0  0  0  0  0  0  0  0
    7.1999  -13.4561   25.3416 C   0  0  0  0  0  0  0  0  0  0  0  0
    8.1764  -14.1888   24.5057 C   0  0  2  0  0  0  0  0  0  0  0  0
    8.2207  -13.6604   23.1443 N   0  0  0  0  0  0  0  0  0  0  0  0
    7.9137  -15.6359   24.4835 C   0  0  0  0  0  0  0  0  0  0  0  0
    6.9797  -16.1668   23.5564 O   0  0  0  0  0  0  0  0  0  0  0  0
    8.4412  -16.4954   25.2200 O   0  0  0  0  0  0  0  0  0  0  0  0
  2  1  1  1
  2  7  1  0
  3  2  1  0
  4  3  1  0
  5  4  1  0
  6  5  2  0
  7  8  2  0
  7 10  1  0
  9  5  1  0
 10 14  1  0
 11 10  1  0
 11 12  1  0
 12 13  1  0
 14 15  1  1
 14 13  1  0
 15 16  2  0
 18 17  1  0
 19 18  1  0
 20 19  1  0
 21 20  1  1
 22 21  1  0
 22 15  1  0
 23 24  1  0
 23 21  1  0
 25 23  2  0
M  END
$$$$
