EPM.pdb
     RDKit          3D

 25 25  0  0  1  0  0  0  0  0999 V2000
    9.8250  -17.4292   18.4321 N   0  0  0  0  0  0  0  0  0  0  0  0
    9.7600  -18.2438   19.5994 C   0  0  1  0  0  0  0  0  0  0  0  0
   11.1763  -18.5600   19.9945 C   0  0  0  0  0  0  0  0  0  0  0  0
   11.8014  -17.6249   20.9773 C   0  0  0  0  0  0  0  0  0  0  0  0
   13.1311  -18.0751   21.4402 C   0  0  0  0  0  0  0  0  0  0  0  0
   13.8661  -17.4071   22.1938 O   0  0  0  0  0  0  0  0  0  0  0  0
    9.0157  -17.7201   20.7458 C   0  0  0  0  0  0  0  0  0  0  0  0
    9.4126  -16.5544   21.1398 O   0  0  0  0  0  0  0  0  0  0  0  0
   13.6518  -19.3208   21.0409 O   0  0  0  0  0  0  0  0  0  0  0  0
    7.9565  -18.3255   21.4379 N   0  0  0  0  0  0  0  0  0  0  0  0
    7.0233  -19.3351   20.8716 C   0  0  0  0  0  0  0  0  0  0  0  0
    7.3056  -20.4581   21.8731 C   0  0  0  0  0  0  0  0  0  0  0  0
    7.5066  -19.6988   23.1933 C   0  0  0  0  0  0  0  0  0  0  0  0
    7.4050  -18.2264   22.7576 C   0  0  1  0  0  0  0  0  0  0  0  0
    7.9606  -17.3256   23.7289 C   0  0  0  0  0  0  0  0  0  0  0  0
    9.1392  -17.2094   24.1461 O   0  0  0  0  0  0  0  0  0  0  0  0
    7.1680  -10.5363   26.7431 C   0  0  0  0  0  0  0  0  0  0  0  0
    5.9995  -11.8618   26.4453 S   0  0  0  0  0  0  0  0  0  0  0  0
    6.8543  -13.4687   26.7121 C   0  0  0  0  0  0  0  0  0  0  0  0
    6.4346  -14.4373   25.6481 C   0  0  0  0  0  0  0  0  0  0  0  0
    7.4702  -15.4619   25.3890 C   0  0  2  0  0  0  0  0  0  0  0  0
    7.0537  -16.3934   24.3434 N   0  0  0  0  0  0  0  0  0  0  0  0
    7.8430  -16.1960   26.6080 C   0  0  0  0  0  0  0  0  0  0  0  0
    7.3805  -17.5240   26.7981 O   0  0  0  0  0  0  0  0  0  0  0  0
    8.5534  -15.7682   27.5416 O   0  0  0  0  0  0  0  0  0  0  0  0
  2  1  1  6
  2  7  1  0
  3  2  1  0
  4  3  1  0
  5  4  1  0
  6  5  2  0
  7  8  2  0
  7 10  1  0
  9  5  1  0
 10 14  1  0
 11 10  1  0
 11 12  1  0
 12 13  1  0
 14 15  1  1
 14 13  1  0
 15 16  2  0
 18 17  1  0
 19 18  1  0
 20 19  1  0
 21 20  1  1
 22 21  1  0
 22 15  1  0
 23 24  1  0
 23 21  1  0
 25 23  2  0
M  END
$$$$
