ALG.pdb
     RDKit          3D

 18 17  0  0  1  0  0  0  0  0999 V2000
    7.6929  -17.0875   21.4247 C   0  0  0  0  0  0  0  0  0  0  0  0
    7.4762  -15.6241   21.1011 C   0  0  2  0  0  0  0  0  0  0  0  0
    8.1777  -15.2326   19.8958 N   0  0  0  0  0  0  0  0  0  0  0  0
    8.0259  -14.8336   22.2392 C   0  0  0  0  0  0  0  0  0  0  0  0
    9.1885  -14.3922   22.2241 O   0  0  0  0  0  0  0  0  0  0  0  0
    5.7537  -11.9614   27.3260 C   0  0  0  0  0  0  0  0  0  0  0  0
    6.9769  -12.5081   26.5497 C   0  0  2  0  0  0  0  0  0  0  0  0
    7.7975  -11.2842   26.1993 C   0  0  0  0  0  0  0  0  0  0  0  0
    6.4969  -13.2220   25.3029 C   0  0  0  0  0  0  0  0  0  0  0  0
    7.6155  -13.8251   24.4919 C   0  0  2  0  0  0  0  0  0  0  0  0
    7.2291  -14.5719   23.3600 N   0  0  0  0  0  0  0  0  0  0  0  0
    8.3538  -14.7288   25.3950 C   0  0  0  0  0  0  0  0  0  0  0  0
    8.7883  -14.2880   26.4843 O   0  0  0  0  0  0  0  0  0  0  0  0
    8.5968  -16.1008   25.0759 N   0  0  0  0  0  0  0  0  0  0  0  0
    9.2533  -16.9578   26.0118 C   0  0  0  0  0  0  0  0  0  0  0  0
   10.6886  -17.1476   25.6494 C   0  0  0  0  0  0  0  0  0  0  0  0
   11.2113  -18.4158   25.4647 O   0  0  0  0  0  0  0  0  0  0  0  0
   11.4166  -16.1385   25.5141 O   0  0  0  0  0  0  0  0  0  0  0  0
  2  3  1  0
  2  1  1  1
  4  2  1  0
  5  4  2  0
  7  6  1  1
  7  8  1  0
  9  7  1  0
 10  9  1  1
 10 12  1  0
 10 11  1  0
 11  4  1  0
 12 14  1  0
 13 12  2  0
 14 15  1  0
 15 16  1  0
 16 18  2  0
 16 17  1  0
M  END
$$$$
