ALG.pdb
     RDKit          3D

 18 17  0  0  1  0  0  0  0  0999 V2000
    9.6597  -19.8969   19.0873 C   0  0  0  0  0  0  0  0  0  0  0  0
    8.6711  -18.7647   18.9030 C   0  0  2  0  0  0  0  0  0  0  0  0
    8.1476  -18.7254   17.5530 N   0  0  0  0  0  0  0  0  0  0  0  0
    9.4042  -17.4918   19.1570 C   0  0  0  0  0  0  0  0  0  0  0  0
   10.2738  -17.0734   18.3725 O   0  0  0  0  0  0  0  0  0  0  0  0
    7.9583  -13.1194   19.5676 C   0  0  0  0  0  0  0  0  0  0  0  0
    7.5507  -14.0989   20.6955 C   0  0  2  0  0  0  0  0  0  0  0  0
    6.6416  -13.2957   21.6025 C   0  0  0  0  0  0  0  0  0  0  0  0
    8.7934  -14.5567   21.4306 C   0  0  0  0  0  0  0  0  0  0  0  0
    9.6669  -15.4744   20.6134 C   0  0  2  0  0  0  0  0  0  0  0  0
    9.1205  -16.7361   20.3007 N   0  0  0  0  0  0  0  0  0  0  0  0
   10.8957  -15.6998   21.3987 C   0  0  0  0  0  0  0  0  0  0  0  0
   11.6466  -14.7304   21.6560 O   0  0  0  0  0  0  0  0  0  0  0  0
   11.2694  -16.9916   21.8836 N   0  0  0  0  0  0  0  0  0  0  0  0
   12.4442  -17.1553   22.6800 C   0  0  0  0  0  0  0  0  0  0  0  0
   12.0934  -17.5222   24.0836 C   0  0  0  0  0  0  0  0  0  0  0  0
   10.7731  -17.6898   24.4635 O   0  0  0  0  0  0  0  0  0  0  0  0
   13.0148  -17.6769   24.9164 O   0  0  0  0  0  0  0  0  0  0  0  0
  2  3  1  0
  2  1  1  6
  4  2  1  0
  5  4  2  0
  7  6  1  6
  7  8  1  0
  9  7  1  0
 10  9  1  1
 10 12  1  0
 10 11  1  0
 11  4  1  0
 12 14  1  0
 13 12  2  0
 14 15  1  0
 15 16  1  0
 16 18  2  0
 16 17  1  0
M  END
$$$$
