ALG.pdb
     RDKit          3D

 18 17  0  0  1  0  0  0  0  0999 V2000
    6.6853  -15.0872   20.0527 C   0  0  0  0  0  0  0  0  0  0  0  0
    7.2024  -15.8972   21.2229 C   0  0  2  0  0  0  0  0  0  0  0  0
    6.1388  -16.6301   21.8784 N   0  0  0  0  0  0  0  0  0  0  0  0
    7.7815  -14.9363   22.2044 C   0  0  0  0  0  0  0  0  0  0  0  0
    8.7603  -14.2241   21.9189 O   0  0  0  0  0  0  0  0  0  0  0  0
    5.8946  -12.1115   27.4374 C   0  0  0  0  0  0  0  0  0  0  0  0
    7.0476  -12.4539   26.4621 C   0  0  2  0  0  0  0  0  0  0  0  0
    7.3885  -11.1436   25.7830 C   0  0  0  0  0  0  0  0  0  0  0  0
    6.5635  -13.4813   25.4599 C   0  0  0  0  0  0  0  0  0  0  0  0
    7.6269  -13.9069   24.4796 C   0  0  2  0  0  0  0  0  0  0  0  0
    7.2234  -14.8189   23.4829 N   0  0  0  0  0  0  0  0  0  0  0  0
    8.6972  -14.5479   25.2677 C   0  0  0  0  0  0  0  0  0  0  0  0
    9.2235  -13.9186   26.2147 O   0  0  0  0  0  0  0  0  0  0  0  0
    9.1637  -15.8709   24.9931 N   0  0  0  0  0  0  0  0  0  0  0  0
   10.2358  -16.4338   25.7515 C   0  0  0  0  0  0  0  0  0  0  0  0
   11.4617  -16.5874   24.9143 C   0  0  0  0  0  0  0  0  0  0  0  0
   12.3067  -15.5142   24.6910 O   0  0  0  0  0  0  0  0  0  0  0  0
   11.7162  -17.7063   24.4143 O   0  0  0  0  0  0  0  0  0  0  0  0
  2  3  1  0
  2  1  1  6
  4  2  1  0
  5  4  2  0
  7  6  1  1
  7  8  1  0
  9  7  1  0
 10  9  1  1
 10 12  1  0
 10 11  1  0
 11  4  1  0
 12 14  1  0
 13 12  2  0
 14 15  1  0
 15 16  1  0
 16 18  2  0
 16 17  1  0
M  END
$$$$
