ALG.pdb
     RDKit          3D

 18 17  0  0  1  0  0  0  0  0999 V2000
    9.2658  -19.6453   19.5423 C   0  0  0  0  0  0  0  0  0  0  0  0
    9.1162  -18.3975   18.6974 C   0  0  2  0  0  0  0  0  0  0  0  0
    9.8732  -18.4908   17.4660 N   0  0  0  0  0  0  0  0  0  0  0  0
    9.6560  -17.2579   19.4925 C   0  0  0  0  0  0  0  0  0  0  0  0
   10.8685  -16.9811   19.4936 O   0  0  0  0  0  0  0  0  0  0  0  0
    8.4920  -12.7924   19.4863 C   0  0  0  0  0  0  0  0  0  0  0  0
    7.4689  -13.7542   20.1389 C   0  0  2  0  0  0  0  0  0  0  0  0
    6.2833  -12.8816   20.4956 C   0  0  0  0  0  0  0  0  0  0  0  0
    8.0861  -14.3732   21.3758 C   0  0  0  0  0  0  0  0  0  0  0  0
    9.1703  -15.3739   21.0656 C   0  0  2  0  0  0  0  0  0  0  0  0
    8.7926  -16.4694   20.2622 N   0  0  0  0  0  0  0  0  0  0  0  0
    9.6379  -15.9066   22.3597 C   0  0  0  0  0  0  0  0  0  0  0  0
    8.9231  -16.7273   22.9804 O   0  0  0  0  0  0  0  0  0  0  0  0
   10.8857  -15.5215   22.9413 N   0  0  0  0  0  0  0  0  0  0  0  0
   11.2468  -15.9729   24.2479 C   0  0  0  0  0  0  0  0  0  0  0  0
   12.5526  -16.6952   24.2235 C   0  0  0  0  0  0  0  0  0  0  0  0
   12.6877  -17.9359   24.8219 O   0  0  0  0  0  0  0  0  0  0  0  0
   13.5289  -16.1603   23.6513 O   0  0  0  0  0  0  0  0  0  0  0  0
  2  3  1  0
  2  1  1  1
  4  2  1  0
  5  4  2  0
  7  6  1  1
  7  8  1  0
  9  7  1  0
 10  9  1  1
 10 12  1  0
 10 11  1  0
 11  4  1  0
 12 14  1  0
 13 12  2  0
 14 15  1  0
 15 16  1  0
 16 18  2  0
 16 17  1  0
M  END
$$$$
