ALG.pdb
     RDKit          3D

 18 17  0  0  1  0  0  0  0  0999 V2000
    6.8519  -19.3753   24.6717 C   0  0  0  0  0  0  0  0  0  0  0  0
    5.9898  -18.2075   24.2405 C   0  0  2  0  0  0  0  0  0  0  0  0
    5.3818  -18.4398   22.9465 N   0  0  0  0  0  0  0  0  0  0  0  0
    6.8805  -17.0171   24.1312 C   0  0  0  0  0  0  0  0  0  0  0  0
    7.5453  -16.7931   23.1043 O   0  0  0  0  0  0  0  0  0  0  0  0
    6.7937  -12.1300   24.7640 C   0  0  0  0  0  0  0  0  0  0  0  0
    6.3477  -13.0636   25.9160 C   0  0  2  0  0  0  0  0  0  0  0  0
    5.9724  -12.1335   27.0510 C   0  0  0  0  0  0  0  0  0  0  0  0
    7.5030  -13.9633   26.3034 C   0  0  0  0  0  0  0  0  0  0  0  0
    7.8339  -14.9953   25.2553 C   0  0  2  0  0  0  0  0  0  0  0  0
    6.9838  -16.1189   25.2000 N   0  0  0  0  0  0  0  0  0  0  0  0
    9.1966  -15.4778   25.5515 C   0  0  0  0  0  0  0  0  0  0  0  0
    9.4761  -15.8530   26.7138 O   0  0  0  0  0  0  0  0  0  0  0  0
   10.2221  -15.5359   24.5574 N   0  0  0  0  0  0  0  0  0  0  0  0
   11.5452  -15.9493   24.9037 C   0  0  0  0  0  0  0  0  0  0  0  0
   12.4415  -15.9329   23.7104 C   0  0  0  0  0  0  0  0  0  0  0  0
   13.8026  -16.1457   23.8433 O   0  0  0  0  0  0  0  0  0  0  0  0
   11.9422  -15.7228   22.5820 O   0  0  0  0  0  0  0  0  0  0  0  0
  2  3  1  0
  2  1  1  6
  4  2  1  0
  5  4  2  0
  7  6  1  6
  7  8  1  0
  9  7  1  0
 10  9  1  1
 10 12  1  0
 10 11  1  0
 11  4  1  0
 12 14  1  0
 13 12  2  0
 14 15  1  0
 15 16  1  0
 16 18  2  0
 16 17  1  0
M  END
$$$$
