ALG.pdb
     RDKit          3D

 18 17  0  0  1  0  0  0  0  0999 V2000
    6.5696  -19.3497   24.8577 C   0  0  0  0  0  0  0  0  0  0  0  0
    5.8126  -18.1543   24.3184 C   0  0  2  0  0  0  0  0  0  0  0  0
    5.2433  -18.4249   23.0142 N   0  0  0  0  0  0  0  0  0  0  0  0
    6.7906  -17.0379   24.1787 C   0  0  0  0  0  0  0  0  0  0  0  0
    7.4121  -16.8454   23.1188 O   0  0  0  0  0  0  0  0  0  0  0  0
    6.9307  -12.1511   24.7968 C   0  0  0  0  0  0  0  0  0  0  0  0
    6.4981  -13.1049   25.9373 C   0  0  2  0  0  0  0  0  0  0  0  0
    6.1421  -12.1952   27.0949 C   0  0  0  0  0  0  0  0  0  0  0  0
    7.6558  -14.0153   26.2911 C   0  0  0  0  0  0  0  0  0  0  0  0
    7.9161  -15.0803   25.2563 C   0  0  2  0  0  0  0  0  0  0  0  0
    7.0281  -16.1756   25.2555 N   0  0  0  0  0  0  0  0  0  0  0  0
    9.2716  -15.6018   25.5170 C   0  0  0  0  0  0  0  0  0  0  0  0
    9.5628  -16.0081   26.6658 O   0  0  0  0  0  0  0  0  0  0  0  0
   10.2772  -15.6637   24.5029 N   0  0  0  0  0  0  0  0  0  0  0  0
   11.6044  -16.0855   24.8226 C   0  0  0  0  0  0  0  0  0  0  0  0
   12.4997  -15.9857   23.6326 C   0  0  0  0  0  0  0  0  0  0  0  0
   13.8661  -16.1685   23.7563 O   0  0  0  0  0  0  0  0  0  0  0  0
   11.9948  -15.7329   22.5155 O   0  0  0  0  0  0  0  0  0  0  0  0
  2  3  1  0
  2  1  1  6
  4  2  1  0
  5  4  2  0
  7  6  1  6
  7  8  1  0
  9  7  1  0
 10  9  1  1
 10 12  1  0
 10 11  1  0
 11  4  1  0
 12 14  1  0
 13 12  2  0
 14 15  1  0
 15 16  1  0
 16 18  2  0
 16 17  1  0
M  END
$$$$
