ALG.pdb
     RDKit          3D

 18 17  0  0  1  0  0  0  0  0999 V2000
    9.1026  -19.6931   19.2780 C   0  0  0  0  0  0  0  0  0  0  0  0
    8.9464  -18.4564   18.4182 C   0  0  2  0  0  0  0  0  0  0  0  0
    9.5680  -18.6244   17.1207 N   0  0  0  0  0  0  0  0  0  0  0  0
    9.6334  -17.3375   19.1240 C   0  0  0  0  0  0  0  0  0  0  0  0
   10.8387  -17.0931   18.9389 O   0  0  0  0  0  0  0  0  0  0  0  0
    8.7091  -12.7351   19.3391 C   0  0  0  0  0  0  0  0  0  0  0  0
    7.7204  -13.7028   20.0345 C   0  0  2  0  0  0  0  0  0  0  0  0
    6.5979  -12.8201   20.5395 C   0  0  0  0  0  0  0  0  0  0  0  0
    8.4273  -14.3995   21.1787 C   0  0  0  0  0  0  0  0  0  0  0  0
    9.4358  -15.4233   20.7231 C   0  0  2  0  0  0  0  0  0  0  0  0
    8.9210  -16.5320   20.0203 N   0  0  0  0  0  0  0  0  0  0  0  0
   10.1015  -15.9318   21.9379 C   0  0  0  0  0  0  0  0  0  0  0  0
    9.4159  -16.4884   22.8266 O   0  0  0  0  0  0  0  0  0  0  0  0
   11.5110  -15.8150   22.1454 N   0  0  0  0  0  0  0  0  0  0  0  0
   12.1111  -16.3107   23.3436 C   0  0  0  0  0  0  0  0  0  0  0  0
   13.5986  -16.2048   23.2815 C   0  0  0  0  0  0  0  0  0  0  0  0
   14.2326  -15.8014   22.1192 O   0  0  0  0  0  0  0  0  0  0  0  0
   14.2679  -16.4874   24.3007 O   0  0  0  0  0  0  0  0  0  0  0  0
  2  3  1  0
  2  1  1  1
  4  2  1  0
  5  4  2  0
  7  6  1  1
  7  8  1  0
  9  7  1  0
 10  9  1  1
 10 12  1  0
 10 11  1  0
 11  4  1  0
 12 14  1  0
 13 12  2  0
 14 15  1  0
 15 16  1  0
 16 18  2  0
 16 17  1  0
M  END
$$$$
