ALG.pdb
     RDKit          3D

 18 17  0  0  1  0  0  0  0  0999 V2000
    7.1285  -13.9024   20.4219 C   0  0  0  0  0  0  0  0  0  0  0  0
    7.5352  -15.0837   21.2775 C   0  0  2  0  0  0  0  0  0  0  0  0
    6.3834  -15.8223   21.7529 N   0  0  0  0  0  0  0  0  0  0  0  0
    8.2640  -14.5430   22.4601 C   0  0  0  0  0  0  0  0  0  0  0  0
    9.3328  -13.9189   22.3370 O   0  0  0  0  0  0  0  0  0  0  0  0
    7.6673  -11.3688   25.9032 C   0  0  0  0  0  0  0  0  0  0  0  0
    6.6376  -12.5154   25.7524 C   0  0  2  0  0  0  0  0  0  0  0  0
    5.5765  -12.2286   26.7946 C   0  0  0  0  0  0  0  0  0  0  0  0
    7.3239  -13.8392   26.0183 C   0  0  0  0  0  0  0  0  0  0  0  0
    8.3047  -14.2304   24.9422 C   0  0  2  0  0  0  0  0  0  0  0  0
    7.7484  -14.7323   23.7477 N   0  0  0  0  0  0  0  0  0  0  0  0
    9.1635  -15.2848   25.5150 C   0  0  0  0  0  0  0  0  0  0  0  0
    9.6362  -15.1343   26.6654 O   0  0  0  0  0  0  0  0  0  0  0  0
    9.4821  -16.4838   24.8047 N   0  0  0  0  0  0  0  0  0  0  0  0
   10.2885  -17.4943   25.4129 C   0  0  0  0  0  0  0  0  0  0  0  0
   11.7024  -17.4065   24.9432 C   0  0  0  0  0  0  0  0  0  0  0  0
   12.6562  -18.3022   25.3946 O   0  0  0  0  0  0  0  0  0  0  0  0
   12.0150  -16.5069   24.1310 O   0  0  0  0  0  0  0  0  0  0  0  0
  2  3  1  0
  2  1  1  6
  4  2  1  0
  5  4  2  0
  7  6  1  1
  7  8  1  0
  9  7  1  0
 10  9  1  1
 10 12  1  0
 10 11  1  0
 11  4  1  0
 12 14  1  0
 13 12  2  0
 14 15  1  0
 15 16  1  0
 16 18  2  0
 16 17  1  0
M  END
$$$$
