ALG.pdb
     RDKit          3D

 18 17  0  0  1  0  0  0  0  0999 V2000
    6.8520  -19.4104   24.7433 C   0  0  0  0  0  0  0  0  0  0  0  0
    6.1928  -18.3158   23.9308 C   0  0  2  0  0  0  0  0  0  0  0  0
    6.1909  -18.6264   22.5160 N   0  0  0  0  0  0  0  0  0  0  0  0
    6.9898  -17.0726   24.1351 C   0  0  0  0  0  0  0  0  0  0  0  0
    8.0362  -16.8578   23.4983 O   0  0  0  0  0  0  0  0  0  0  0  0
    6.2567  -11.6784   27.2919 C   0  0  0  0  0  0  0  0  0  0  0  0
    7.0685  -12.5474   26.3002 C   0  0  2  0  0  0  0  0  0  0  0  0
    7.0370  -11.7830   24.9929 C   0  0  0  0  0  0  0  0  0  0  0  0
    6.4006  -13.8997   26.1609 C   0  0  0  0  0  0  0  0  0  0  0  0
    7.1671  -14.8570   25.2839 C   0  0  2  0  0  0  0  0  0  0  0  0
    6.5656  -16.1128   25.0617 N   0  0  0  0  0  0  0  0  0  0  0  0
    8.4646  -15.0919   25.9462 C   0  0  0  0  0  0  0  0  0  0  0  0
    9.3221  -14.1785   25.9585 O   0  0  0  0  0  0  0  0  0  0  0  0
    8.7877  -16.3311   26.5814 N   0  0  0  0  0  0  0  0  0  0  0  0
   10.0393  -16.4985   27.2500 C   0  0  0  0  0  0  0  0  0  0  0  0
   10.1155  -17.8305   27.9190 C   0  0  0  0  0  0  0  0  0  0  0  0
   11.0687  -18.0823   28.8904 O   0  0  0  0  0  0  0  0  0  0  0  0
    9.3011  -18.7212   27.5873 O   0  0  0  0  0  0  0  0  0  0  0  0
  2  3  1  0
  2  1  1  1
  4  2  1  0
  5  4  2  0
  7  6  1  1
  7  8  1  0
  9  7  1  0
 10  9  1  1
 10 12  1  0
 10 11  1  0
 11  4  1  0
 12 14  1  0
 13 12  2  0
 14 15  1  0
 15 16  1  0
 16 18  2  0
 16 17  1  0
M  END
$$$$
