ALG.pdb
     RDKit          3D

 18 17  0  0  1  0  0  0  0  0999 V2000
    8.0542  -17.8460   22.2647 C   0  0  0  0  0  0  0  0  0  0  0  0
    7.5527  -16.5136   21.7488 C   0  0  2  0  0  0  0  0  0  0  0  0
    8.0340  -16.2424   20.4098 N   0  0  0  0  0  0  0  0  0  0  0  0
    8.0837  -15.4590   22.6587 C   0  0  0  0  0  0  0  0  0  0  0  0
    9.1720  -14.8980   22.4404 O   0  0  0  0  0  0  0  0  0  0  0  0
    5.8579  -12.0160   27.4109 C   0  0  0  0  0  0  0  0  0  0  0  0
    7.0695  -12.4975   26.5755 C   0  0  2  0  0  0  0  0  0  0  0  0
    7.6069  -11.2481   25.9087 C   0  0  0  0  0  0  0  0  0  0  0  0
    6.5975  -13.5070   25.5497 C   0  0  0  0  0  0  0  0  0  0  0  0
    7.7132  -14.0641   24.7025 C   0  0  2  0  0  0  0  0  0  0  0  0
    7.3537  -15.0778   23.7907 N   0  0  0  0  0  0  0  0  0  0  0  0
    8.7092  -14.6299   25.6327 C   0  0  0  0  0  0  0  0  0  0  0  0
    9.2481  -13.8844   26.4834 O   0  0  0  0  0  0  0  0  0  0  0  0
    9.0891  -16.0077   25.6038 N   0  0  0  0  0  0  0  0  0  0  0  0
   10.0893  -16.5029   26.4959 C   0  0  0  0  0  0  0  0  0  0  0  0
   10.3238  -17.9612   26.2817 C   0  0  0  0  0  0  0  0  0  0  0  0
   10.0456  -18.8781   27.2805 O   0  0  0  0  0  0  0  0  0  0  0  0
   10.7779  -18.3453   25.1804 O   0  0  0  0  0  0  0  0  0  0  0  0
  2  3  1  0
  2  1  1  1
  4  2  1  0
  5  4  2  0
  7  6  1  1
  7  8  1  0
  9  7  1  0
 10  9  1  1
 10 12  1  0
 10 11  1  0
 11  4  1  0
 12 14  1  0
 13 12  2  0
 14 15  1  0
 15 16  1  0
 16 18  2  0
 16 17  1  0
M  END
$$$$
