ALG.pdb
     RDKit          3D

 18 17  0  0  1  0  0  0  0  0999 V2000
    7.0844  -13.7912   20.2709 C   0  0  0  0  0  0  0  0  0  0  0  0
    7.2964  -14.9666   21.2017 C   0  0  2  0  0  0  0  0  0  0  0  0
    6.0393  -15.5059   21.6781 N   0  0  0  0  0  0  0  0  0  0  0  0
    8.0656  -14.4669   22.3768 C   0  0  0  0  0  0  0  0  0  0  0  0
    9.1805  -13.9315   22.2456 O   0  0  0  0  0  0  0  0  0  0  0  0
    7.4575  -11.2840   25.7298 C   0  0  0  0  0  0  0  0  0  0  0  0
    6.4674  -12.4741   25.6973 C   0  0  2  0  0  0  0  0  0  0  0  0
    5.4640  -12.1790   26.7930 C   0  0  0  0  0  0  0  0  0  0  0  0
    7.2221  -13.7575   25.9760 C   0  0  0  0  0  0  0  0  0  0  0  0
    8.1510  -14.1589   24.8584 C   0  0  2  0  0  0  0  0  0  0  0  0
    7.5364  -14.5946   23.6665 N   0  0  0  0  0  0  0  0  0  0  0  0
    8.9746  -15.2708   25.3710 C   0  0  0  0  0  0  0  0  0  0  0  0
    8.5436  -15.9683   26.3183 O   0  0  0  0  0  0  0  0  0  0  0  0
   10.2573  -15.5891   24.8262 N   0  0  0  0  0  0  0  0  0  0  0  0
   11.0651  -16.6069   25.4201 C   0  0  0  0  0  0  0  0  0  0  0  0
   12.2914  -16.8600   24.6078 C   0  0  0  0  0  0  0  0  0  0  0  0
   13.2318  -17.7904   25.0149 O   0  0  0  0  0  0  0  0  0  0  0  0
   12.4581  -16.2157   23.5478 O   0  0  0  0  0  0  0  0  0  0  0  0
  2  3  1  0
  2  1  1  6
  4  2  1  0
  5  4  2  0
  7  6  1  1
  7  8  1  0
  9  7  1  0
 10  9  1  1
 10 12  1  0
 10 11  1  0
 11  4  1  0
 12 14  1  0
 13 12  2  0
 14 15  1  0
 15 16  1  0
 16 18  2  0
 16 17  1  0
M  END
$$$$
