ALG.pdb
     RDKit          3D

 18 17  0  0  1  0  0  0  0  0999 V2000
    6.8204  -17.5401   21.6858 C   0  0  0  0  0  0  0  0  0  0  0  0
    6.4532  -16.0711   21.6688 C   0  0  2  0  0  0  0  0  0  0  0  0
    6.5060  -15.5214   20.3297 N   0  0  0  0  0  0  0  0  0  0  0  0
    7.4559  -15.3549   22.5077 C   0  0  0  0  0  0  0  0  0  0  0  0
    8.5249  -14.9360   22.0296 O   0  0  0  0  0  0  0  0  0  0  0  0
    7.5010  -11.5571   25.2085 C   0  0  0  0  0  0  0  0  0  0  0  0
    6.5973  -12.7133   25.7025 C   0  0  2  0  0  0  0  0  0  0  0  0
    5.9308  -12.1821   26.9547 C   0  0  0  0  0  0  0  0  0  0  0  0
    7.4577  -13.9215   26.0096 C   0  0  0  0  0  0  0  0  0  0  0  0
    8.0889  -14.5323   24.7843 C   0  0  2  0  0  0  0  0  0  0  0  0
    7.2057  -15.1396   23.8681 N   0  0  0  0  0  0  0  0  0  0  0  0
    9.0233  -15.5697   25.2618 C   0  0  0  0  0  0  0  0  0  0  0  0
    8.6296  -16.4109   26.1027 O   0  0  0  0  0  0  0  0  0  0  0  0
   10.3735  -15.6562   24.8002 N   0  0  0  0  0  0  0  0  0  0  0  0
   11.2389  -16.6873   25.2792 C   0  0  0  0  0  0  0  0  0  0  0  0
   12.5959  -16.5748   24.6681 C   0  0  0  0  0  0  0  0  0  0  0  0
   13.6234  -17.4132   25.0643 O   0  0  0  0  0  0  0  0  0  0  0  0
   12.7926  -15.7071   23.7877 O   0  0  0  0  0  0  0  0  0  0  0  0
  2  3  1  0
  2  1  1  6
  4  2  1  0
  5  4  2  0
  7  6  1  1
  7  8  1  0
  9  7  1  0
 10  9  1  1
 10 12  1  0
 10 11  1  0
 11  4  1  0
 12 14  1  0
 13 12  2  0
 14 15  1  0
 15 16  1  0
 16 18  2  0
 16 17  1  0
M  END
$$$$
