ALG.pdb
     RDKit          3D

 18 17  0  0  1  0  0  0  0  0999 V2000
    9.4622  -19.3063   18.3091 C   0  0  0  0  0  0  0  0  0  0  0  0
    9.2793  -18.0054   17.5560 C   0  0  2  0  0  0  0  0  0  0  0  0
    9.9412  -18.0347   16.2679 N   0  0  0  0  0  0  0  0  0  0  0  0
    9.9020  -16.9281   18.3768 C   0  0  0  0  0  0  0  0  0  0  0  0
   11.0887  -16.5916   18.2177 O   0  0  0  0  0  0  0  0  0  0  0  0
    8.9614  -12.4493   19.1285 C   0  0  0  0  0  0  0  0  0  0  0  0
    7.9370  -13.4739   19.6748 C   0  0  2  0  0  0  0  0  0  0  0  0
    6.8061  -12.6364   20.2351 C   0  0  0  0  0  0  0  0  0  0  0  0
    8.5931  -14.3047   20.7581 C   0  0  0  0  0  0  0  0  0  0  0  0
    9.6239  -15.2694   20.2293 C   0  0  2  0  0  0  0  0  0  0  0  0
    9.1485  -16.2682   19.3549 N   0  0  0  0  0  0  0  0  0  0  0  0
   10.2140  -15.9434   21.4019 C   0  0  0  0  0  0  0  0  0  0  0  0
    9.5099  -16.7293   22.0774 O   0  0  0  0  0  0  0  0  0  0  0  0
   11.5700  -15.7351   21.8037 N   0  0  0  0  0  0  0  0  0  0  0  0
   12.1183  -16.4577   22.9076 C   0  0  0  0  0  0  0  0  0  0  0  0
   13.4947  -15.9796   23.2306 C   0  0  0  0  0  0  0  0  0  0  0  0
   14.1461  -16.4132   24.3723 O   0  0  0  0  0  0  0  0  0  0  0  0
   14.0545  -15.1768   22.4504 O   0  0  0  0  0  0  0  0  0  0  0  0
  2  3  1  0
  2  1  1  1
  4  2  1  0
  5  4  2  0
  7  6  1  1
  7  8  1  0
  9  7  1  0
 10  9  1  1
 10 12  1  0
 10 11  1  0
 11  4  1  0
 12 14  1  0
 13 12  2  0
 14 15  1  0
 15 16  1  0
 16 18  2  0
 16 17  1  0
M  END
$$$$
