ALG.pdb
     RDKit          3D

 18 17  0  0  1  0  0  0  0  0999 V2000
    7.0413  -19.8419   24.7488 C   0  0  0  0  0  0  0  0  0  0  0  0
    5.9387  -18.8988   24.3154 C   0  0  2  0  0  0  0  0  0  0  0  0
    5.3504  -19.3058   23.0559 N   0  0  0  0  0  0  0  0  0  0  0  0
    6.5546  -17.5540   24.1305 C   0  0  0  0  0  0  0  0  0  0  0  0
    7.1327  -17.2420   23.0744 O   0  0  0  0  0  0  0  0  0  0  0  0
    6.7844  -12.0893   27.2145 C   0  0  0  0  0  0  0  0  0  0  0  0
    7.3033  -13.0006   26.0752 C   0  0  2  0  0  0  0  0  0  0  0  0
    6.9655  -12.2609   24.7973 C   0  0  0  0  0  0  0  0  0  0  0  0
    6.5902  -14.3353   26.1412 C   0  0  0  0  0  0  0  0  0  0  0  0
    7.1298  -15.3498   25.1653 C   0  0  2  0  0  0  0  0  0  0  0  0
    6.4905  -16.6065   25.1590 N   0  0  0  0  0  0  0  0  0  0  0  0
    8.5452  -15.5681   25.5208 C   0  0  0  0  0  0  0  0  0  0  0  0
    8.8529  -15.7759   26.7174 O   0  0  0  0  0  0  0  0  0  0  0  0
    9.5914  -15.5524   24.5467 N   0  0  0  0  0  0  0  0  0  0  0  0
   10.9583  -15.6583   24.9489 C   0  0  0  0  0  0  0  0  0  0  0  0
   11.8657  -15.6761   23.7640 C   0  0  0  0  0  0  0  0  0  0  0  0
   13.2403  -15.6477   23.9235 O   0  0  0  0  0  0  0  0  0  0  0  0
   11.3634  -15.7172   22.6183 O   0  0  0  0  0  0  0  0  0  0  0  0
  2  3  1  0
  2  1  1  6
  4  2  1  0
  5  4  2  0
  7  6  1  1
  7  8  1  0
  9  7  1  0
 10  9  1  1
 10 12  1  0
 10 11  1  0
 11  4  1  0
 12 14  1  0
 13 12  2  0
 14 15  1  0
 15 16  1  0
 16 18  2  0
 16 17  1  0
M  END
$$$$
