ALG.pdb
     RDKit          3D

 18 17  0  0  1  0  0  0  0  0999 V2000
    6.6657  -14.3639   20.6506 C   0  0  0  0  0  0  0  0  0  0  0  0
    7.2164  -15.4658   21.5313 C   0  0  2  0  0  0  0  0  0  0  0  0
    6.1586  -16.2019   22.1925 N   0  0  0  0  0  0  0  0  0  0  0  0
    8.0582  -14.8171   22.5767 C   0  0  0  0  0  0  0  0  0  0  0  0
    9.0708  -14.1582   22.2812 O   0  0  0  0  0  0  0  0  0  0  0  0
    7.5190  -11.3935   25.6208 C   0  0  0  0  0  0  0  0  0  0  0  0
    6.6153  -12.6424   25.7663 C   0  0  2  0  0  0  0  0  0  0  0  0
    5.6490  -12.2992   26.8810 C   0  0  0  0  0  0  0  0  0  0  0  0
    7.4719  -13.8370   26.1315 C   0  0  0  0  0  0  0  0  0  0  0  0
    8.3614  -14.3008   25.0060 C   0  0  2  0  0  0  0  0  0  0  0  0
    7.7162  -14.9416   23.9285 N   0  0  0  0  0  0  0  0  0  0  0  0
    9.3186  -15.2598   25.5904 C   0  0  0  0  0  0  0  0  0  0  0  0
    9.8912  -14.9764   26.6681 O   0  0  0  0  0  0  0  0  0  0  0  0
    9.6233  -16.5120   24.9718 N   0  0  0  0  0  0  0  0  0  0  0  0
   10.5207  -17.4307   25.5979 C   0  0  0  0  0  0  0  0  0  0  0  0
   11.8671  -17.3869   24.9554 C   0  0  0  0  0  0  0  0  0  0  0  0
   12.8851  -18.2202   25.3854 O   0  0  0  0  0  0  0  0  0  0  0  0
   12.0635  -16.5817   24.0174 O   0  0  0  0  0  0  0  0  0  0  0  0
  2  3  1  0
  2  1  1  6
  4  2  1  0
  5  4  2  0
  7  6  1  1
  7  8  1  0
  9  7  1  0
 10  9  1  1
 10 12  1  0
 10 11  1  0
 11  4  1  0
 12 14  1  0
 13 12  2  0
 14 15  1  0
 15 16  1  0
 16 18  2  0
 16 17  1  0
M  END
$$$$
