ALG.pdb
     RDKit          3D

 18 17  0  0  1  0  0  0  0  0999 V2000
    7.2620  -14.2889   20.4522 C   0  0  0  0  0  0  0  0  0  0  0  0
    7.4903  -15.3681   21.4896 C   0  0  2  0  0  0  0  0  0  0  0  0
    6.2411  -15.9231   21.9688 N   0  0  0  0  0  0  0  0  0  0  0  0
    8.1916  -14.7329   22.6415 C   0  0  0  0  0  0  0  0  0  0  0  0
    9.2645  -14.1214   22.4940 O   0  0  0  0  0  0  0  0  0  0  0  0
    7.5853  -11.2155   25.5110 C   0  0  0  0  0  0  0  0  0  0  0  0
    6.5014  -12.3210   25.5367 C   0  0  2  0  0  0  0  0  0  0  0  0
    5.4489  -11.8154   26.5016 C   0  0  0  0  0  0  0  0  0  0  0  0
    7.1200  -13.6135   26.0278 C   0  0  0  0  0  0  0  0  0  0  0  0
    8.1472  -14.1814   25.0816 C   0  0  2  0  0  0  0  0  0  0  0  0
    7.6444  -14.8162   23.9274 N   0  0  0  0  0  0  0  0  0  0  0  0
    8.9180  -15.1821   25.8444 C   0  0  0  0  0  0  0  0  0  0  0  0
    9.3683  -14.8800   26.9739 O   0  0  0  0  0  0  0  0  0  0  0  0
    9.1753  -16.4960   25.3434 N   0  0  0  0  0  0  0  0  0  0  0  0
    9.8490  -17.4616   26.1528 C   0  0  0  0  0  0  0  0  0  0  0  0
   11.2009  -17.7728   25.6024 C   0  0  0  0  0  0  0  0  0  0  0  0
   12.0135  -18.7149   26.2088 O   0  0  0  0  0  0  0  0  0  0  0  0
   11.5914  -17.1666   24.5793 O   0  0  0  0  0  0  0  0  0  0  0  0
  2  3  1  0
  2  1  1  6
  4  2  1  0
  5  4  2  0
  7  6  1  1
  7  8  1  0
  9  7  1  0
 10  9  1  1
 10 12  1  0
 10 11  1  0
 11  4  1  0
 12 14  1  0
 13 12  2  0
 14 15  1  0
 15 16  1  0
 16 18  2  0
 16 17  1  0
M  END
$$$$
