EFS.pdb
     RDKit          3D

 27 27  0  0  1  0  0  0  0  0999 V2000
   31.8740    0.3354    3.7501 N   0  0  0  0  0  0  0  0  0  0  0  0
   31.6387   -1.0049    4.1416 C   0  0  1  0  0  0  0  0  0  0  0  0
   32.7958   -1.7639    4.6674 C   0  0  0  0  0  0  0  0  0  0  0  0
   33.9854   -1.9274    3.8115 C   0  0  0  0  0  0  0  0  0  0  0  0
   34.8528   -0.7757    3.6050 C   0  0  0  0  0  0  0  0  0  0  0  0
   35.2273   -0.0578    4.5484 O   0  0  0  0  0  0  0  0  0  0  0  0
   30.5121   -1.1120    5.1444 C   0  0  0  0  0  0  0  0  0  0  0  0
   30.3058   -0.1288    5.9099 O   0  0  0  0  0  0  0  0  0  0  0  0
   35.2861   -0.4562    2.3042 O   0  0  0  0  0  0  0  0  0  0  0  0
   29.6837   -2.2304    5.2786 N   0  0  0  0  0  0  0  0  0  0  0  0
   28.5888   -2.3239    6.2143 C   0  0  1  0  0  0  0  0  0  0  0  0
   27.2706   -2.5720    5.5198 C   0  0  0  0  0  0  0  0  0  0  0  0
   26.8280   -1.4367    4.7018 C   0  0  0  0  0  0  0  0  0  0  0  0
   27.1410   -1.4093    3.3608 C   0  0  0  0  0  0  0  0  0  0  0  0
   26.7393   -0.3484    2.5435 C   0  0  0  0  0  0  0  0  0  0  0  0
   26.0213    0.6925    3.0645 C   0  0  0  0  0  0  0  0  0  0  0  0
   25.7010    0.6797    4.4017 C   0  0  0  0  0  0  0  0  0  0  0  0
   26.1065   -0.3837    5.2089 C   0  0  0  0  0  0  0  0  0  0  0  0
   28.8039   -3.2458    7.3242 C   0  0  0  0  0  0  0  0  0  0  0  0
   29.2126   -4.4062    7.1037 O   0  0  0  0  0  0  0  0  0  0  0  0
   29.1108   -1.8067   11.0004 O   0  0  0  0  0  0  0  0  0  0  0  0
   29.6301   -3.1095   10.8346 C   0  0  0  0  0  0  0  0  0  0  0  0
   28.7599   -3.7655    9.7718 C   0  0  2  0  0  0  0  0  0  0  0  0
   28.5548   -2.8331    8.6535 N   0  0  0  0  0  0  0  0  0  0  0  0
   27.4645   -4.0767   10.3958 C   0  0  0  0  0  0  0  0  0  0  0  0
   27.3571   -5.0040   11.4084 O   0  0  0  0  0  0  0  0  0  0  0  0
   26.4335   -3.4919   10.0041 O   0  0  0  0  0  0  0  0  0  0  0  0
  2  1  1  1
  2  3  1  0
  4  5  1  0
  4  3  1  0
  5  6  2  0
  7  2  1  0
  7 10  1  0
  8  7  2  0
  9  5  1  0
 11 10  1  0
 11 12  1  6
 12 13  1  0
 13 18  2  0
 13 14  1  0
 14 15  2  0
 15 16  1  0
 17 16  2  0
 18 17  1  0
 19 11  1  0
 20 19  2  0
 21 22  1  0
 23 22  1  1
 23 24  1  0
 24 19  1  0
 25 23  1  0
 26 25  1  0
 27 25  2  0
M  END
$$$$
