EFS.pdb
     RDKit          3D

 27 27  0  0  1  0  0  0  0  0999 V2000
   23.5867  -11.7821  -19.4263 N   0  0  0  0  0  0  0  0  0  0  0  0
   23.0745  -10.4640  -19.4996 C   0  0  1  0  0  0  0  0  0  0  0  0
   21.7078  -10.3040  -20.0454 C   0  0  0  0  0  0  0  0  0  0  0  0
   21.4314  -10.7731  -21.4158 C   0  0  0  0  0  0  0  0  0  0  0  0
   21.4833  -12.2044  -21.6809 C   0  0  0  0  0  0  0  0  0  0  0  0
   20.7428  -13.0092  -21.0898 O   0  0  0  0  0  0  0  0  0  0  0  0
   23.1318   -9.7595  -18.1630 C   0  0  0  0  0  0  0  0  0  0  0  0
   22.6748  -10.3665  -17.1541 O   0  0  0  0  0  0  0  0  0  0  0  0
   22.3942  -12.7026  -22.6317 O   0  0  0  0  0  0  0  0  0  0  0  0
   23.6586   -8.4783  -17.9724 N   0  0  0  0  0  0  0  0  0  0  0  0
   23.7842   -7.8336  -16.6872 C   0  0  1  0  0  0  0  0  0  0  0  0
   25.2286   -7.6305  -16.2948 C   0  0  0  0  0  0  0  0  0  0  0  0
   25.9985   -8.8797  -16.2657 C   0  0  0  0  0  0  0  0  0  0  0  0
   25.8230   -9.7555  -15.2173 C   0  0  0  0  0  0  0  0  0  0  0  0
   26.5344  -10.9571  -15.1489 C   0  0  0  0  0  0  0  0  0  0  0  0
   27.4266  -11.2895  -16.1306 C   0  0  0  0  0  0  0  0  0  0  0  0
   27.6130  -10.4254  -17.1840 C   0  0  0  0  0  0  0  0  0  0  0  0
   26.8982   -9.2286  -17.2431 C   0  0  0  0  0  0  0  0  0  0  0  0
   22.9985   -6.6145  -16.5302 C   0  0  0  0  0  0  0  0  0  0  0  0
   23.0183   -5.7380  -17.4209 O   0  0  0  0  0  0  0  0  0  0  0  0
   19.1494   -4.5486  -14.7227 O   0  0  0  0  0  0  0  0  0  0  0  0
   19.9601   -5.7049  -14.7235 C   0  0  0  0  0  0  0  0  0  0  0  0
   21.3067   -5.2612  -15.2775 C   0  0  2  0  0  0  0  0  0  0  0  0
   22.2092   -6.4180  -15.3734 N   0  0  0  0  0  0  0  0  0  0  0  0
   21.8662   -4.2784  -14.3367 C   0  0  0  0  0  0  0  0  0  0  0  0
   21.6613   -2.9264  -14.5010 O   0  0  0  0  0  0  0  0  0  0  0  0
   22.5442   -4.6700  -13.3643 O   0  0  0  0  0  0  0  0  0  0  0  0
  2  1  1  1
  2  3  1  0
  4  5  1  0
  4  3  1  0
  5  6  2  0
  7  2  1  0
  7 10  1  0
  8  7  2  0
  9  5  1  0
 11 10  1  0
 11 12  1  6
 12 13  1  0
 13 18  2  0
 13 14  1  0
 14 15  2  0
 15 16  1  0
 17 16  2  0
 18 17  1  0
 19 11  1  0
 20 19  2  0
 21 22  1  0
 23 22  1  1
 23 24  1  0
 24 19  1  0
 25 23  1  0
 26 25  1  0
 27 25  2  0
M  END
$$$$
