EFS.pdb
     RDKit          3D

 27 27  0  0  1  0  0  0  0  0999 V2000
   28.1028  -21.4558  -18.9683 N   0  0  0  0  0  0  0  0  0  0  0  0
   27.8561  -20.3368  -18.1363 C   0  0  1  0  0  0  0  0  0  0  0  0
   27.1771  -19.1762  -18.7556 C   0  0  0  0  0  0  0  0  0  0  0  0
   25.7030  -19.1496  -18.7856 C   0  0  0  0  0  0  0  0  0  0  0  0
   25.0190  -18.0145  -18.1813 C   0  0  0  0  0  0  0  0  0  0  0  0
   24.9122  -17.8921  -16.9487 O   0  0  0  0  0  0  0  0  0  0  0  0
   27.0917  -20.7170  -16.8884 C   0  0  0  0  0  0  0  0  0  0  0  0
   26.2909  -21.6912  -16.9588 O   0  0  0  0  0  0  0  0  0  0  0  0
   24.4585  -17.0211  -19.0064 O   0  0  0  0  0  0  0  0  0  0  0  0
   27.2147  -20.0588  -15.6609 N   0  0  0  0  0  0  0  0  0  0  0  0
   26.4934  -20.4255  -14.4657 C   0  0  1  0  0  0  0  0  0  0  0  0
   27.1550  -19.8885  -13.2185 C   0  0  0  0  0  0  0  0  0  0  0  0
   26.4780  -20.3022  -11.9838 C   0  0  0  0  0  0  0  0  0  0  0  0
   25.5604  -19.4557  -11.4020 C   0  0  0  0  0  0  0  0  0  0  0  0
   24.8912  -19.8089  -10.2262 C   0  0  0  0  0  0  0  0  0  0  0  0
   25.1369  -21.0126   -9.6255 C   0  0  0  0  0  0  0  0  0  0  0  0
   26.0504  -21.8687  -10.1942 C   0  0  0  0  0  0  0  0  0  0  0  0
   26.7130  -21.5070  -11.3677 C   0  0  0  0  0  0  0  0  0  0  0  0
   25.0642  -20.1345  -14.4949 C   0  0  0  0  0  0  0  0  0  0  0  0
   24.6594  -19.0274  -14.9102 O   0  0  0  0  0  0  0  0  0  0  0  0
   20.5643  -21.5288  -14.6800 O   0  0  0  0  0  0  0  0  0  0  0  0
   21.9193  -21.9258  -14.7080 C   0  0  0  0  0  0  0  0  0  0  0  0
   22.6921  -20.7935  -14.0463 C   0  0  2  0  0  0  0  0  0  0  0  0
   24.1298  -21.1014  -14.0573 N   0  0  0  0  0  0  0  0  0  0  0  0
   22.2215  -20.6948  -12.6560 C   0  0  0  0  0  0  0  0  0  0  0  0
   21.1699  -19.8763  -12.3080 O   0  0  0  0  0  0  0  0  0  0  0  0
   22.7830  -21.3643  -11.7644 O   0  0  0  0  0  0  0  0  0  0  0  0
  2  1  1  6
  2  3  1  0
  4  5  1  0
  4  3  1  0
  5  6  2  0
  7  2  1  0
  7 10  1  0
  8  7  2  0
  9  5  1  0
 11 10  1  0
 11 12  1  1
 12 13  1  0
 13 18  2  0
 13 14  1  0
 14 15  2  0
 15 16  1  0
 17 16  2  0
 18 17  1  0
 19 11  1  0
 20 19  2  0
 21 22  1  0
 23 22  1  6
 23 24  1  0
 24 19  1  0
 25 23  1  0
 26 25  1  0
 27 25  2  0
M  END
$$$$
