EFS.pdb
     RDKit          3D

 27 27  0  0  1  0  0  0  0  0999 V2000
   18.8718  -11.0392  -15.7392 N   0  0  0  0  0  0  0  0  0  0  0  0
   18.8118   -9.9362  -16.6250 C   0  0  1  0  0  0  0  0  0  0  0  0
   17.5456   -9.7381  -17.3659 C   0  0  0  0  0  0  0  0  0  0  0  0
   17.1098  -10.7776  -18.3168 C   0  0  0  0  0  0  0  0  0  0  0  0
   18.1139  -11.4033  -19.1662 C   0  0  0  0  0  0  0  0  0  0  0  0
   19.1341  -11.9349  -18.6949 O   0  0  0  0  0  0  0  0  0  0  0  0
   19.1602   -8.6367  -15.9350 C   0  0  0  0  0  0  0  0  0  0  0  0
   18.4505   -8.2792  -14.9533 O   0  0  0  0  0  0  0  0  0  0  0  0
   17.9352  -11.4126  -20.5626 O   0  0  0  0  0  0  0  0  0  0  0  0
   20.2183   -7.8050  -16.3145 N   0  0  0  0  0  0  0  0  0  0  0  0
   20.6091   -6.6108  -15.6043 C   0  0  1  0  0  0  0  0  0  0  0  0
   22.0788   -6.6153  -15.2560 C   0  0  0  0  0  0  0  0  0  0  0  0
   22.4905   -7.8110  -14.5112 C   0  0  0  0  0  0  0  0  0  0  0  0
   23.3238   -8.7271  -15.1140 C   0  0  0  0  0  0  0  0  0  0  0  0
   23.7420   -9.8797  -14.4421 C   0  0  0  0  0  0  0  0  0  0  0  0
   23.3280  -10.1222  -13.1614 C   0  0  0  0  0  0  0  0  0  0  0  0
   22.4959   -9.2170  -12.5458 C   0  0  0  0  0  0  0  0  0  0  0  0
   22.0841   -8.0697  -13.2249 C   0  0  0  0  0  0  0  0  0  0  0  0
   20.1998   -5.3591  -16.2318 C   0  0  0  0  0  0  0  0  0  0  0  0
   20.4100   -5.1714  -17.4494 O   0  0  0  0  0  0  0  0  0  0  0  0
   17.0571   -3.6103  -15.0423 O   0  0  0  0  0  0  0  0  0  0  0  0
   17.5671   -3.1997  -16.2936 C   0  0  0  0  0  0  0  0  0  0  0  0
   19.0771   -3.1255  -16.1165 C   0  0  2  0  0  0  0  0  0  0  0  0
   19.5617   -4.3536  -15.4693 N   0  0  0  0  0  0  0  0  0  0  0  0
   19.3615   -1.9697  -15.2521 C   0  0  0  0  0  0  0  0  0  0  0  0
   19.0759   -0.6832  -15.6526 O   0  0  0  0  0  0  0  0  0  0  0  0
   19.8740   -2.1497  -14.1281 O   0  0  0  0  0  0  0  0  0  0  0  0
  2  1  1  1
  2  3  1  0
  4  5  1  0
  4  3  1  0
  5  6  2  0
  7  2  1  0
  7 10  1  0
  8  7  2  0
  9  5  1  0
 11 10  1  0
 11 12  1  6
 12 13  1  0
 13 18  2  0
 13 14  1  0
 14 15  2  0
 15 16  1  0
 17 16  2  0
 18 17  1  0
 19 11  1  0
 20 19  2  0
 21 22  1  0
 23 22  1  1
 23 24  1  0
 24 19  1  0
 25 23  1  0
 26 25  1  0
 27 25  2  0
M  END
$$$$
