EFS.pdb
     RDKit          3D

 27 27  0  0  1  0  0  0  0  0999 V2000
   24.1089  -11.9191  -20.0049 N   0  0  0  0  0  0  0  0  0  0  0  0
   23.9305  -10.5175  -20.0990 C   0  0  1  0  0  0  0  0  0  0  0  0
   23.0656  -10.0226  -21.1938 C   0  0  0  0  0  0  0  0  0  0  0  0
   21.8950  -10.8263  -21.5918 C   0  0  0  0  0  0  0  0  0  0  0  0
   20.6861  -10.1289  -22.0086 C   0  0  0  0  0  0  0  0  0  0  0  0
   20.5710   -9.6350  -23.1437 O   0  0  0  0  0  0  0  0  0  0  0  0
   23.4323   -9.9221  -18.8015 C   0  0  0  0  0  0  0  0  0  0  0  0
   22.7536  -10.6604  -18.0337 O   0  0  0  0  0  0  0  0  0  0  0  0
   19.6104  -10.0041  -21.1091 O   0  0  0  0  0  0  0  0  0  0  0  0
   23.6750   -8.6057  -18.3971 N   0  0  0  0  0  0  0  0  0  0  0  0
   23.2347   -8.0464  -17.1415 C   0  0  1  0  0  0  0  0  0  0  0  0
   24.3842   -7.4856  -16.3379 C   0  0  0  0  0  0  0  0  0  0  0  0
   25.3797   -8.5000  -15.9716 C   0  0  0  0  0  0  0  0  0  0  0  0
   25.1253   -9.3425  -14.9121 C   0  0  0  0  0  0  0  0  0  0  0  0
   26.0445  -10.3237  -14.5285 C   0  0  0  0  0  0  0  0  0  0  0  0
   27.2250  -10.4673  -15.2039 C   0  0  0  0  0  0  0  0  0  0  0  0
   27.4936   -9.6336  -16.2640 C   0  0  0  0  0  0  0  0  0  0  0  0
   26.5697   -8.6575  -16.6390 C   0  0  0  0  0  0  0  0  0  0  0  0
   22.1265   -7.1031  -17.2422 C   0  0  0  0  0  0  0  0  0  0  0  0
   22.1537   -6.1949  -18.1004 O   0  0  0  0  0  0  0  0  0  0  0  0
   17.5947   -5.9994  -16.0981 O   0  0  0  0  0  0  0  0  0  0  0  0
   18.6712   -6.8529  -15.7709 C   0  0  0  0  0  0  0  0  0  0  0  0
   19.8807   -6.2853  -16.5002 C   0  0  2  0  0  0  0  0  0  0  0  0
   21.0160   -7.2112  -16.3736 N   0  0  0  0  0  0  0  0  0  0  0  0
   20.2180   -5.0043  -15.8604 C   0  0  0  0  0  0  0  0  0  0  0  0
   19.5065   -3.8559  -16.1286 O   0  0  0  0  0  0  0  0  0  0  0  0
   21.1700   -4.9475  -15.0548 O   0  0  0  0  0  0  0  0  0  0  0  0
  2  1  1  1
  2  3  1  0
  4  5  1  0
  4  3  1  0
  5  6  2  0
  7  2  1  0
  7 10  1  0
  8  7  2  0
  9  5  1  0
 11 10  1  0
 11 12  1  6
 12 13  1  0
 13 18  2  0
 13 14  1  0
 14 15  2  0
 15 16  1  0
 17 16  2  0
 18 17  1  0
 19 11  1  0
 20 19  2  0
 21 22  1  0
 23 22  1  1
 23 24  1  0
 24 19  1  0
 25 23  1  0
 26 25  1  0
 27 25  2  0
M  END
$$$$
