EFS.pdb
     RDKit          3D

 27 27  0  0  1  0  0  0  0  0999 V2000
   28.2745  -22.8742  -17.3101 N   0  0  0  0  0  0  0  0  0  0  0  0
   27.3376  -21.8145  -17.2444 C   0  0  1  0  0  0  0  0  0  0  0  0
   26.4791  -21.6026  -18.4317 C   0  0  0  0  0  0  0  0  0  0  0  0
   27.0496  -20.9182  -19.6067 C   0  0  0  0  0  0  0  0  0  0  0  0
   28.3605  -21.3376  -20.0831 C   0  0  0  0  0  0  0  0  0  0  0  0
   29.3667  -20.6185  -19.9561 O   0  0  0  0  0  0  0  0  0  0  0  0
   26.4419  -21.9255  -16.0313 C   0  0  0  0  0  0  0  0  0  0  0  0
   25.7443  -22.9707  -15.9045 O   0  0  0  0  0  0  0  0  0  0  0  0
   28.5050  -22.5914  -20.7070 O   0  0  0  0  0  0  0  0  0  0  0  0
   26.3365  -20.9445  -15.0405 N   0  0  0  0  0  0  0  0  0  0  0  0
   25.5242  -21.0709  -13.8541 C   0  0  1  0  0  0  0  0  0  0  0  0
   26.0970  -20.2960  -12.6910 C   0  0  0  0  0  0  0  0  0  0  0  0
   25.3224  -20.4564  -11.4547 C   0  0  0  0  0  0  0  0  0  0  0  0
   25.8165  -21.2569  -10.4487 C   0  0  0  0  0  0  0  0  0  0  0  0
   25.1131  -21.4378   -9.2540 C   0  0  0  0  0  0  0  0  0  0  0  0
   23.9098  -20.8179   -9.0592 C   0  0  0  0  0  0  0  0  0  0  0  0
   23.4032  -20.0154  -10.0543 C   0  0  0  0  0  0  0  0  0  0  0  0
   24.1128  -19.8412  -11.2430 C   0  0  0  0  0  0  0  0  0  0  0  0
   24.1045  -20.7968  -14.0475 C   0  0  0  0  0  0  0  0  0  0  0  0
   23.7399  -19.7185  -14.5636 O   0  0  0  0  0  0  0  0  0  0  0  0
   20.8078  -23.6328  -13.5954 O   0  0  0  0  0  0  0  0  0  0  0  0
   21.0855  -22.6888  -14.6084 C   0  0  0  0  0  0  0  0  0  0  0  0
   21.7058  -21.4946  -13.8970 C   0  0  2  0  0  0  0  0  0  0  0  0
   23.1340  -21.7478  -13.6558 N   0  0  0  0  0  0  0  0  0  0  0  0
   21.0101  -21.3402  -12.6101 C   0  0  0  0  0  0  0  0  0  0  0  0
   19.6769  -21.0001  -12.5483 O   0  0  0  0  0  0  0  0  0  0  0  0
   21.6350  -21.5192  -11.5442 O   0  0  0  0  0  0  0  0  0  0  0  0
  2  1  1  6
  2  3  1  0
  4  5  1  0
  4  3  1  0
  5  6  2  0
  7  2  1  0
  7 10  1  0
  8  7  2  0
  9  5  1  0
 11 10  1  0
 11 12  1  1
 12 13  1  0
 13 18  2  0
 13 14  1  0
 14 15  2  0
 15 16  1  0
 17 16  2  0
 18 17  1  0
 19 11  1  0
 20 19  2  0
 21 22  1  0
 23 22  1  1
 23 24  1  0
 24 19  1  0
 25 23  1  0
 26 25  1  0
 27 25  2  0
M  END
$$$$
