EFS.pdb
     RDKit          3D

 27 27  0  0  1  0  0  0  0  0999 V2000
   41.8452   -3.7834    0.3558 N   0  0  0  0  0  0  0  0  0  0  0  0
   40.8652   -2.7711    0.2137 C   0  0  1  0  0  0  0  0  0  0  0  0
   41.3198   -1.3705    0.3655 C   0  0  0  0  0  0  0  0  0  0  0  0
   41.9832   -0.9718    1.6207 C   0  0  0  0  0  0  0  0  0  0  0  0
   42.1734    0.4484    1.8821 C   0  0  0  0  0  0  0  0  0  0  0  0
   41.9626    1.3105    1.0115 O   0  0  0  0  0  0  0  0  0  0  0  0
   40.1213   -2.8838   -1.0978 C   0  0  0  0  0  0  0  0  0  0  0  0
   40.6333   -3.5921   -2.0096 O   0  0  0  0  0  0  0  0  0  0  0  0
   42.6081    0.8691    3.1532 O   0  0  0  0  0  0  0  0  0  0  0  0
   38.9022   -2.2536   -1.3658 N   0  0  0  0  0  0  0  0  0  0  0  0
   38.2082   -2.3290   -2.6291 C   0  0  1  0  0  0  0  0  0  0  0  0
   37.0319   -3.2749   -2.5728 C   0  0  0  0  0  0  0  0  0  0  0  0
   36.2119   -3.1030   -1.3678 C   0  0  0  0  0  0  0  0  0  0  0  0
   35.0000   -2.4557   -1.4638 C   0  0  0  0  0  0  0  0  0  0  0  0
   34.1857   -2.2702   -0.3424 C   0  0  0  0  0  0  0  0  0  0  0  0
   34.5804   -2.7321    0.8828 C   0  0  0  0  0  0  0  0  0  0  0  0
   35.7878   -3.3805    0.9949 C   0  0  0  0  0  0  0  0  0  0  0  0
   36.5932   -3.5606   -0.1302 C   0  0  0  0  0  0  0  0  0  0  0  0
   37.8468   -1.0412   -3.2113 C   0  0  0  0  0  0  0  0  0  0  0  0
   37.1729   -0.2224   -2.5499 O   0  0  0  0  0  0  0  0  0  0  0  0
   38.7061    2.3233   -6.4886 O   0  0  0  0  0  0  0  0  0  0  0  0
   39.0151    1.0013   -6.0999 C   0  0  0  0  0  0  0  0  0  0  0  0
   37.9467    0.6110   -5.0883 C   0  0  2  0  0  0  0  0  0  0  0  0
   38.2576   -0.7105   -4.5234 N   0  0  0  0  0  0  0  0  0  0  0  0
   36.6642    0.5489   -5.8062 C   0  0  0  0  0  0  0  0  0  0  0  0
   36.0171   -0.6475   -6.0225 O   0  0  0  0  0  0  0  0  0  0  0  0
   36.1433    1.6000   -6.2332 O   0  0  0  0  0  0  0  0  0  0  0  0
  2  1  1  6
  2  3  1  0
  4  5  1  0
  4  3  1  0
  5  6  2  0
  7  2  1  0
  7 10  1  0
  8  7  2  0
  9  5  1  0
 11 10  1  0
 11 12  1  1
 12 13  1  0
 13 18  2  0
 13 14  1  0
 14 15  2  0
 15 16  1  0
 17 16  2  0
 18 17  1  0
 19 11  1  0
 20 19  2  0
 21 22  1  0
 23 22  1  6
 23 24  1  0
 24 19  1  0
 25 23  1  0
 26 25  1  0
 27 25  2  0
M  END
$$$$
