EFS.pdb
     RDKit          3D

 27 27  0  0  1  0  0  0  0  0999 V2000
   42.5505  -10.6293   -7.5441 N   0  0  0  0  0  0  0  0  0  0  0  0
   42.2847   -9.2599   -7.7878 C   0  0  1  0  0  0  0  0  0  0  0  0
   43.3797   -8.4582   -8.3790 C   0  0  0  0  0  0  0  0  0  0  0  0
   44.6467   -8.3301   -7.6355 C   0  0  0  0  0  0  0  0  0  0  0  0
   45.4899   -7.1721   -7.8991 C   0  0  0  0  0  0  0  0  0  0  0  0
   45.2585   -6.0616   -7.3902 O   0  0  0  0  0  0  0  0  0  0  0  0
   41.0491   -9.0658   -8.6375 C   0  0  0  0  0  0  0  0  0  0  0  0
   40.9458   -9.7472   -9.6959 O   0  0  0  0  0  0  0  0  0  0  0  0
   46.6015   -7.3015   -8.7531 O   0  0  0  0  0  0  0  0  0  0  0  0
   40.0132   -8.1798   -8.3261 N   0  0  0  0  0  0  0  0  0  0  0  0
   38.8637   -7.9450   -9.1669 C   0  0  1  0  0  0  0  0  0  0  0  0
   37.5773   -8.3675   -8.4975 C   0  0  0  0  0  0  0  0  0  0  0  0
   37.4521   -9.8231   -8.3574 C   0  0  0  0  0  0  0  0  0  0  0  0
   37.2591  -10.5944   -9.4820 C   0  0  0  0  0  0  0  0  0  0  0  0
   37.1353  -11.9845   -9.3958 C   0  0  0  0  0  0  0  0  0  0  0  0
   37.2041  -12.6110   -8.1822 C   0  0  0  0  0  0  0  0  0  0  0  0
   37.3965  -11.8546   -7.0501 C   0  0  0  0  0  0  0  0  0  0  0  0
   37.5189  -10.4680   -7.1466 C   0  0  0  0  0  0  0  0  0  0  0  0
   38.7734   -6.6003   -9.7253 C   0  0  0  0  0  0  0  0  0  0  0  0
   38.9653   -5.6049   -8.9944 O   0  0  0  0  0  0  0  0  0  0  0  0
   38.6225   -3.8229  -13.6524 O   0  0  0  0  0  0  0  0  0  0  0  0
   38.6592   -5.1546  -13.1838 C   0  0  0  0  0  0  0  0  0  0  0  0
   38.4636   -5.0647  -11.6770 C   0  0  2  0  0  0  0  0  0  0  0  0
   38.4714   -6.4147  -11.0943 N   0  0  0  0  0  0  0  0  0  0  0  0
   37.1551   -4.4354  -11.4409 C   0  0  0  0  0  0  0  0  0  0  0  0
   37.0439   -3.0961  -11.1395 O   0  0  0  0  0  0  0  0  0  0  0  0
   36.1161   -5.1238  -11.5128 O   0  0  0  0  0  0  0  0  0  0  0  0
  2  1  1  6
  2  3  1  0
  4  5  1  0
  4  3  1  0
  5  6  2  0
  7  2  1  0
  7 10  1  0
  8  7  2  0
  9  5  1  0
 11 10  1  0
 11 12  1  1
 12 13  1  0
 13 18  2  0
 13 14  1  0
 14 15  2  0
 15 16  1  0
 17 16  2  0
 18 17  1  0
 19 11  1  0
 20 19  2  0
 21 22  1  0
 23 22  1  6
 23 24  1  0
 24 19  1  0
 25 23  1  0
 26 25  1  0
 27 25  2  0
M  END
$$$$
