EFS.pdb
     RDKit          3D

 27 27  0  0  1  0  0  0  0  0999 V2000
   21.8303  -11.4043  -17.5852 N   0  0  0  0  0  0  0  0  0  0  0  0
   21.6559  -10.0879  -18.0769 C   0  0  1  0  0  0  0  0  0  0  0  0
   20.4524   -9.8326  -18.9003 C   0  0  0  0  0  0  0  0  0  0  0  0
   20.3775  -10.4229  -20.2495 C   0  0  0  0  0  0  0  0  0  0  0  0
   21.3625  -10.0117  -21.2405 C   0  0  0  0  0  0  0  0  0  0  0  0
   22.2639   -9.1985  -20.9725 O   0  0  0  0  0  0  0  0  0  0  0  0
   21.6929   -9.0603  -16.9683 C   0  0  0  0  0  0  0  0  0  0  0  0
   21.0910   -9.3299  -15.8911 O   0  0  0  0  0  0  0  0  0  0  0  0
   21.3025  -10.5436  -22.5426 O   0  0  0  0  0  0  0  0  0  0  0  0
   22.3511   -7.8300  -17.0595 N   0  0  0  0  0  0  0  0  0  0  0  0
   22.4773   -6.8924  -15.9695 C   0  0  1  0  0  0  0  0  0  0  0  0
   23.9197   -6.6646  -15.5833 C   0  0  0  0  0  0  0  0  0  0  0  0
   24.6841   -7.9105  -15.4508 C   0  0  0  0  0  0  0  0  0  0  0  0
   25.6555   -8.2077  -16.3808 C   0  0  0  0  0  0  0  0  0  0  0  0
   26.4084   -9.3826  -16.2934 C   0  0  0  0  0  0  0  0  0  0  0  0
   26.1930  -10.2677  -15.2735 C   0  0  0  0  0  0  0  0  0  0  0  0
   25.2266   -9.9852  -14.3370 C   0  0  0  0  0  0  0  0  0  0  0  0
   24.4805   -8.8100  -14.4329 C   0  0  0  0  0  0  0  0  0  0  0  0
   21.7548   -5.6379  -16.1492 C   0  0  0  0  0  0  0  0  0  0  0  0
   22.3707   -4.6036  -16.4851 O   0  0  0  0  0  0  0  0  0  0  0  0
   17.9141   -5.7370  -16.9348 O   0  0  0  0  0  0  0  0  0  0  0  0
   18.5793   -4.5354  -17.2636 C   0  0  0  0  0  0  0  0  0  0  0  0
   19.6206   -4.3313  -16.1723 C   0  0  2  0  0  0  0  0  0  0  0  0
   20.3562   -5.5845  -15.9478 N   0  0  0  0  0  0  0  0  0  0  0  0
   18.9020   -3.9569  -14.9444 C   0  0  0  0  0  0  0  0  0  0  0  0
   18.1859   -2.7836  -14.8584 O   0  0  0  0  0  0  0  0  0  0  0  0
   18.9373   -4.7140  -13.9524 O   0  0  0  0  0  0  0  0  0  0  0  0
  2  1  1  1
  2  3  1  0
  4  5  1  0
  4  3  1  0
  5  6  2  0
  7  2  1  0
  7 10  1  0
  8  7  2  0
  9  5  1  0
 11 10  1  0
 11 12  1  6
 12 13  1  0
 13 18  2  0
 13 14  1  0
 14 15  2  0
 15 16  1  0
 17 16  2  0
 18 17  1  0
 19 11  1  0
 20 19  2  0
 21 22  1  0
 23 22  1  6
 23 24  1  0
 24 19  1  0
 25 23  1  0
 26 25  1  0
 27 25  2  0
M  END
$$$$
