EFS.pdb
     RDKit          3D

 27 27  0  0  1  0  0  0  0  0999 V2000
   21.1065  -19.4930  -13.3250 N   0  0  0  0  0  0  0  0  0  0  0  0
   21.6477  -20.6130  -12.6484 C   0  0  1  0  0  0  0  0  0  0  0  0
   21.5553  -21.9213  -13.3348 C   0  0  0  0  0  0  0  0  0  0  0  0
   21.5174  -21.9482  -14.8087 C   0  0  0  0  0  0  0  0  0  0  0  0
   22.7529  -21.6958  -15.5375 C   0  0  0  0  0  0  0  0  0  0  0  0
   22.7839  -21.6422  -16.7792 O   0  0  0  0  0  0  0  0  0  0  0  0
   23.0900  -20.3919  -12.2517 C   0  0  0  0  0  0  0  0  0  0  0  0
   23.7340  -19.4817  -12.8450 O   0  0  0  0  0  0  0  0  0  0  0  0
   23.9529  -21.5055  -14.8264 O   0  0  0  0  0  0  0  0  0  0  0  0
   23.7565  -21.1309  -11.2695 N   0  0  0  0  0  0  0  0  0  0  0  0
   25.1106  -20.8767  -10.8394 C   0  0  1  0  0  0  0  0  0  0  0  0
   25.3791  -21.4290   -9.4594 C   0  0  0  0  0  0  0  0  0  0  0  0
   26.5767  -20.8568   -8.8331 C   0  0  0  0  0  0  0  0  0  0  0  0
   27.8115  -21.3923   -9.1252 C   0  0  0  0  0  0  0  0  0  0  0  0
   28.9790  -20.8786   -8.5525 C   0  0  0  0  0  0  0  0  0  0  0  0
   28.9170  -19.8248   -7.6831 C   0  0  0  0  0  0  0  0  0  0  0  0
   27.6915  -19.2791   -7.3813 C   0  0  0  0  0  0  0  0  0  0  0  0
   26.5321  -19.7989   -7.9581 C   0  0  0  0  0  0  0  0  0  0  0  0
   26.1432  -21.2649  -11.7940 C   0  0  0  0  0  0  0  0  0  0  0  0
   26.5981  -22.4289  -11.7850 O   0  0  0  0  0  0  0  0  0  0  0  0
   26.1840  -21.2373  -15.2891 O   0  0  0  0  0  0  0  0  0  0  0  0
   27.2891  -21.7781  -14.5957 C   0  0  0  0  0  0  0  0  0  0  0  0
   27.7411  -20.6899  -13.6322 C   0  0  2  0  0  0  0  0  0  0  0  0
   26.6331  -20.3300  -12.7351 N   0  0  0  0  0  0  0  0  0  0  0  0
   28.1203  -19.5194  -14.4385 C   0  0  0  0  0  0  0  0  0  0  0  0
   29.1236  -19.5875  -15.3796 O   0  0  0  0  0  0  0  0  0  0  0  0
   27.5245  -18.4350  -14.2722 O   0  0  0  0  0  0  0  0  0  0  0  0
  2  1  1  6
  2  3  1  0
  4  5  1  0
  4  3  1  0
  5  6  2  0
  7  2  1  0
  7 10  1  0
  8  7  2  0
  9  5  1  0
 11 10  1  0
 11 12  1  1
 12 13  1  0
 13 18  2  0
 13 14  1  0
 14 15  2  0
 15 16  1  0
 17 16  2  0
 18 17  1  0
 19 11  1  0
 20 19  2  0
 21 22  1  0
 23 22  1  6
 23 24  1  0
 24 19  1  0
 25 23  1  0
 26 25  1  0
 27 25  2  0
M  END
$$$$
