EFS.pdb
     RDKit          3D

 27 27  0  0  1  0  0  0  0  0999 V2000
   28.6657  -20.3975  -15.5605 N   0  0  0  0  0  0  0  0  0  0  0  0
   28.0269  -19.6615  -14.5332 C   0  0  1  0  0  0  0  0  0  0  0  0
   27.6212  -18.2744  -14.8537 C   0  0  0  0  0  0  0  0  0  0  0  0
   27.3252  -17.9277  -16.2561 C   0  0  0  0  0  0  0  0  0  0  0  0
   28.3355  -17.2074  -17.0190 C   0  0  0  0  0  0  0  0  0  0  0  0
   28.4860  -15.9779  -16.9128 O   0  0  0  0  0  0  0  0  0  0  0  0
   26.8206  -20.3882  -13.9828 C   0  0  0  0  0  0  0  0  0  0  0  0
   25.9207  -20.7413  -14.7956 O   0  0  0  0  0  0  0  0  0  0  0  0
   29.1715  -17.9129  -17.9051 O   0  0  0  0  0  0  0  0  0  0  0  0
   26.6375  -20.6943  -12.6308 N   0  0  0  0  0  0  0  0  0  0  0  0
   25.5324  -21.4656  -12.1140 C   0  0  1  0  0  0  0  0  0  0  0  0
   25.8625  -22.1088  -10.7878 C   0  0  0  0  0  0  0  0  0  0  0  0
   26.4286  -21.1662   -9.8156 C   0  0  0  0  0  0  0  0  0  0  0  0
   27.7960  -21.0849   -9.6728 C   0  0  0  0  0  0  0  0  0  0  0  0
   28.3788  -20.2008   -8.7598 C   0  0  0  0  0  0  0  0  0  0  0  0
   27.5953  -19.3922   -7.9836 C   0  0  0  0  0  0  0  0  0  0  0  0
   26.2283  -19.4616   -8.1146 C   0  0  0  0  0  0  0  0  0  0  0  0
   25.6563  -20.3472   -9.0286 C   0  0  0  0  0  0  0  0  0  0  0  0
   24.2544  -20.7629  -12.0777 C   0  0  0  0  0  0  0  0  0  0  0  0
   24.1612  -19.6636  -11.4906 O   0  0  0  0  0  0  0  0  0  0  0  0
   20.1498  -19.7717  -14.1534 O   0  0  0  0  0  0  0  0  0  0  0  0
   21.3486  -20.5169  -14.1977 C   0  0  0  0  0  0  0  0  0  0  0  0
   21.8559  -20.5632  -12.7633 C   0  0  2  0  0  0  0  0  0  0  0  0
   23.1164  -21.3183  -12.7070 N   0  0  0  0  0  0  0  0  0  0  0  0
   20.8348  -21.2514  -11.9586 C   0  0  0  0  0  0  0  0  0  0  0  0
   19.7944  -20.5637  -11.3740 O   0  0  0  0  0  0  0  0  0  0  0  0
   20.9053  -22.4872  -11.7959 O   0  0  0  0  0  0  0  0  0  0  0  0
  2  1  1  6
  2  3  1  0
  4  5  1  0
  4  3  1  0
  5  6  2  0
  7  2  1  0
  7 10  1  0
  8  7  2  0
  9  5  1  0
 11 10  1  0
 11 12  1  1
 12 13  1  0
 13 18  2  0
 13 14  1  0
 14 15  2  0
 15 16  1  0
 17 16  2  0
 18 17  1  0
 19 11  1  0
 20 19  2  0
 21 22  1  0
 23 22  1  6
 23 24  1  0
 24 19  1  0
 25 23  1  0
 26 25  1  0
 27 25  2  0
M  END
$$$$
