EFS.pdb
     RDKit          3D

 27 27  0  0  1  0  0  0  0  0999 V2000
   28.2288  -34.7801   -4.9501 N   0  0  0  0  0  0  0  0  0  0  0  0
   26.9953  -34.9098   -4.2668 C   0  0  1  0  0  0  0  0  0  0  0  0
   26.3059  -36.2159   -4.3676 C   0  0  0  0  0  0  0  0  0  0  0  0
   25.8221  -36.6630   -5.6869 C   0  0  0  0  0  0  0  0  0  0  0  0
   26.7347  -37.4097   -6.5420 C   0  0  0  0  0  0  0  0  0  0  0  0
   27.1086  -38.5606   -6.2569 O   0  0  0  0  0  0  0  0  0  0  0  0
   27.1201  -34.5566   -2.8019 C   0  0  0  0  0  0  0  0  0  0  0  0
   28.1166  -35.0043   -2.1681 O   0  0  0  0  0  0  0  0  0  0  0  0
   27.2139  -36.8219   -7.7281 O   0  0  0  0  0  0  0  0  0  0  0  0
   26.2024  -33.7657   -2.1038 N   0  0  0  0  0  0  0  0  0  0  0  0
   26.3446  -33.3855   -0.7187 C   0  0  1  0  0  0  0  0  0  0  0  0
   25.9984  -31.9328   -0.4925 C   0  0  0  0  0  0  0  0  0  0  0  0
   25.9290  -31.5719    0.9285 C   0  0  0  0  0  0  0  0  0  0  0  0
   27.0516  -31.7092    1.7145 C   0  0  0  0  0  0  0  0  0  0  0  0
   27.0315  -31.3768    3.0725 C   0  0  0  0  0  0  0  0  0  0  0  0
   25.8864  -30.9046    3.6520 C   0  0  0  0  0  0  0  0  0  0  0  0
   24.7572  -30.7618    2.8804 C   0  0  0  0  0  0  0  0  0  0  0  0
   24.7874  -31.0963    1.5261 C   0  0  0  0  0  0  0  0  0  0  0  0
   25.6717  -34.2625    0.2331 C   0  0  0  0  0  0  0  0  0  0  0  0
   24.4618  -34.5378    0.0833 O   0  0  0  0  0  0  0  0  0  0  0  0
   27.2502  -37.3887    2.1847 O   0  0  0  0  0  0  0  0  0  0  0  0
   26.7135  -36.4593    3.1027 C   0  0  0  0  0  0  0  0  0  0  0  0
   25.6926  -35.6491    2.3164 C   0  0  2  0  0  0  0  0  0  0  0  0
   26.3825  -34.8078    1.3272 N   0  0  0  0  0  0  0  0  0  0  0  0
   24.9781  -34.7933    3.2761 C   0  0  0  0  0  0  0  0  0  0  0  0
   24.3077  -35.3252    4.3552 O   0  0  0  0  0  0  0  0  0  0  0  0
   24.9734  -33.5552    3.1160 O   0  0  0  0  0  0  0  0  0  0  0  0
  2  1  1  1
  2  3  1  0
  4  5  1  0
  4  3  1  0
  5  6  2  0
  7  2  1  0
  7 10  1  0
  8  7  2  0
  9  5  1  0
 11 10  1  0
 11 12  1  6
 12 13  1  0
 13 18  2  0
 13 14  1  0
 14 15  2  0
 15 16  1  0
 17 16  2  0
 18 17  1  0
 19 11  1  0
 20 19  2  0
 21 22  1  0
 23 22  1  1
 23 24  1  0
 24 19  1  0
 25 23  1  0
 26 25  1  0
 27 25  2  0
M  END
$$$$
