EFS.pdb
     RDKit          3D

 27 27  0  0  1  0  0  0  0  0999 V2000
   28.5332  -21.0032  -14.1635 N   0  0  0  0  0  0  0  0  0  0  0  0
   27.7533  -20.0773  -13.4288 C   0  0  1  0  0  0  0  0  0  0  0  0
   27.2199  -18.9119  -14.1695 C   0  0  0  0  0  0  0  0  0  0  0  0
   28.1439  -18.1119  -14.9946 C   0  0  0  0  0  0  0  0  0  0  0  0
   28.2348  -18.4090  -16.4176 C   0  0  0  0  0  0  0  0  0  0  0  0
   27.2231  -18.5958  -17.1156 O   0  0  0  0  0  0  0  0  0  0  0  0
   26.6009  -20.7482  -12.7160 C   0  0  0  0  0  0  0  0  0  0  0  0
   26.1400  -21.8152  -13.2102 O   0  0  0  0  0  0  0  0  0  0  0  0
   29.4992  -18.4896  -17.0315 O   0  0  0  0  0  0  0  0  0  0  0  0
   26.0126  -20.2625  -11.5441 N   0  0  0  0  0  0  0  0  0  0  0  0
   24.8098  -20.8003  -10.9548 C   0  0  1  0  0  0  0  0  0  0  0  0
   24.6643  -20.4039   -9.5046 C   0  0  0  0  0  0  0  0  0  0  0  0
   25.9399  -20.3967   -8.7787 C   0  0  0  0  0  0  0  0  0  0  0  0
   26.3726  -19.2305   -8.1875 C   0  0  0  0  0  0  0  0  0  0  0  0
   27.5806  -19.1778   -7.4855 C   0  0  0  0  0  0  0  0  0  0  0  0
   28.3633  -20.2934   -7.3712 C   0  0  0  0  0  0  0  0  0  0  0  0
   27.9449  -21.4655   -7.9560 C   0  0  0  0  0  0  0  0  0  0  0  0
   26.7377  -21.5078   -8.6544 C   0  0  0  0  0  0  0  0  0  0  0  0
   23.5886  -20.5542  -11.7139 C   0  0  0  0  0  0  0  0  0  0  0  0
   23.1024  -19.4039  -11.7616 O   0  0  0  0  0  0  0  0  0  0  0  0
   22.0351  -23.5994  -13.8479 O   0  0  0  0  0  0  0  0  0  0  0  0
   21.7995  -22.3373  -14.4360 C   0  0  0  0  0  0  0  0  0  0  0  0
   21.8068  -21.3409  -13.2853 C   0  0  2  0  0  0  0  0  0  0  0  0
   22.9501  -21.6122  -12.4013 N   0  0  0  0  0  0  0  0  0  0  0  0
   20.5534  -21.5247  -12.5375 C   0  0  0  0  0  0  0  0  0  0  0  0
   20.5540  -21.8852  -11.2082 O   0  0  0  0  0  0  0  0  0  0  0  0
   19.4591  -21.3527  -13.1133 O   0  0  0  0  0  0  0  0  0  0  0  0
  2  1  1  6
  2  3  1  0
  4  5  1  0
  4  3  1  0
  5  6  2  0
  7  2  1  0
  7 10  1  0
  8  7  2  0
  9  5  1  0
 11 10  1  0
 11 12  1  1
 12 13  1  0
 13 18  2  0
 13 14  1  0
 14 15  2  0
 15 16  1  0
 17 16  2  0
 18 17  1  0
 19 11  1  0
 20 19  2  0
 21 22  1  0
 23 22  1  6
 23 24  1  0
 24 19  1  0
 25 23  1  0
 26 25  1  0
 27 25  2  0
M  END
$$$$
