EFS.pdb
     RDKit          3D

 27 27  0  0  1  0  0  0  0  0999 V2000
   27.8754  -23.5713  -16.7721 N   0  0  0  0  0  0  0  0  0  0  0  0
   27.2505  -22.3019  -16.7157 C   0  0  1  0  0  0  0  0  0  0  0  0
   26.5396  -21.8488  -17.9326 C   0  0  0  0  0  0  0  0  0  0  0  0
   27.3280  -21.5263  -19.1363 C   0  0  0  0  0  0  0  0  0  0  0  0
   28.3725  -20.5168  -19.0295 C   0  0  0  0  0  0  0  0  0  0  0  0
   29.5281  -20.7213  -19.4401 O   0  0  0  0  0  0  0  0  0  0  0  0
   26.2975  -22.1917  -15.5469 C   0  0  0  0  0  0  0  0  0  0  0  0
   25.7788  -23.2548  -15.1041 O   0  0  0  0  0  0  0  0  0  0  0  0
   28.0772  -19.2700  -18.4465 O   0  0  0  0  0  0  0  0  0  0  0  0
   25.9537  -20.9876  -14.9248 N   0  0  0  0  0  0  0  0  0  0  0  0
   25.1395  -20.8894  -13.7371 C   0  0  1  0  0  0  0  0  0  0  0  0
   25.7352  -19.9458  -12.7192 C   0  0  0  0  0  0  0  0  0  0  0  0
   27.0260  -20.4060  -12.1935 C   0  0  0  0  0  0  0  0  0  0  0  0
   28.1855  -20.0481  -12.8450 C   0  0  0  0  0  0  0  0  0  0  0  0
   29.4369  -20.4630  -12.3794 C   0  0  0  0  0  0  0  0  0  0  0  0
   29.5349  -21.2393  -11.2579 C   0  0  0  0  0  0  0  0  0  0  0  0
   28.3863  -21.6050  -10.5963 C   0  0  0  0  0  0  0  0  0  0  0  0
   27.1421  -21.1858  -11.0688 C   0  0  0  0  0  0  0  0  0  0  0  0
   23.7279  -20.6122  -13.9791 C   0  0  0  0  0  0  0  0  0  0  0  0
   23.3886  -19.5685  -14.5771 O   0  0  0  0  0  0  0  0  0  0  0  0
   20.9228  -23.2329  -12.6268 O   0  0  0  0  0  0  0  0  0  0  0  0
   20.5603  -22.6011  -13.8367 C   0  0  0  0  0  0  0  0  0  0  0  0
   21.3198  -21.2821  -13.8540 C   0  0  2  0  0  0  0  0  0  0  0  0
   22.7368  -21.5213  -13.5423 N   0  0  0  0  0  0  0  0  0  0  0  0
   20.7278  -20.4209  -12.8186 C   0  0  0  0  0  0  0  0  0  0  0  0
   19.4020  -20.0502  -12.8618 O   0  0  0  0  0  0  0  0  0  0  0  0
   21.4362  -20.0116  -11.8758 O   0  0  0  0  0  0  0  0  0  0  0  0
  2  1  1  6
  2  3  1  0
  4  5  1  0
  4  3  1  0
  5  6  2  0
  7  2  1  0
  7 10  1  0
  8  7  2  0
  9  5  1  0
 11 10  1  0
 11 12  1  1
 12 13  1  0
 13 18  2  0
 13 14  1  0
 14 15  2  0
 15 16  1  0
 17 16  2  0
 18 17  1  0
 19 11  1  0
 20 19  2  0
 21 22  1  0
 23 22  1  1
 23 24  1  0
 24 19  1  0
 25 23  1  0
 26 25  1  0
 27 25  2  0
M  END
$$$$
