EFS.pdb
     RDKit          3D

 27 27  0  0  1  0  0  0  0  0999 V2000
   19.5248  -12.9994  -18.7710 N   0  0  0  0  0  0  0  0  0  0  0  0
   19.8100  -11.6627  -19.1412 C   0  0  1  0  0  0  0  0  0  0  0  0
   18.9638  -11.0634  -20.1978 C   0  0  0  0  0  0  0  0  0  0  0  0
   19.0470  -11.6061  -21.5664 C   0  0  0  0  0  0  0  0  0  0  0  0
   20.3187  -11.5151  -22.2708 C   0  0  0  0  0  0  0  0  0  0  0  0
   20.4273  -10.9180  -23.3558 O   0  0  0  0  0  0  0  0  0  0  0  0
   19.8028  -10.7318  -17.9497 C   0  0  0  0  0  0  0  0  0  0  0  0
   18.8832  -10.8714  -17.0952 O   0  0  0  0  0  0  0  0  0  0  0  0
   21.4646  -12.1168  -21.7170 O   0  0  0  0  0  0  0  0  0  0  0  0
   20.7496   -9.7258  -17.7334 N   0  0  0  0  0  0  0  0  0  0  0  0
   20.7221   -8.8094  -16.6187 C   0  0  1  0  0  0  0  0  0  0  0  0
   22.0845   -8.6452  -15.9875 C   0  0  0  0  0  0  0  0  0  0  0  0
   22.0730   -7.7644  -14.8136 C   0  0  0  0  0  0  0  0  0  0  0  0
   21.8292   -8.3024  -13.5694 C   0  0  0  0  0  0  0  0  0  0  0  0
   21.8096   -7.5013  -12.4237 C   0  0  0  0  0  0  0  0  0  0  0  0
   22.0342   -6.1555  -12.5169 C   0  0  0  0  0  0  0  0  0  0  0  0
   22.2792   -5.6033  -13.7522 C   0  0  0  0  0  0  0  0  0  0  0  0
   22.2966   -6.4113  -14.8896 C   0  0  0  0  0  0  0  0  0  0  0  0
   20.0883   -7.5244  -16.8931 C   0  0  0  0  0  0  0  0  0  0  0  0
   20.4712   -6.8316  -17.8603 O   0  0  0  0  0  0  0  0  0  0  0  0
   16.4667   -6.4972  -17.3134 O   0  0  0  0  0  0  0  0  0  0  0  0
   16.9255   -5.8237  -16.1600 C   0  0  0  0  0  0  0  0  0  0  0  0
   18.4376   -5.7359  -16.3107 C   0  0  2  0  0  0  0  0  0  0  0  0
   19.0376   -7.0566  -16.0704 N   0  0  0  0  0  0  0  0  0  0  0  0
   18.9249   -4.7839  -15.3005 C   0  0  0  0  0  0  0  0  0  0  0  0
   19.7459   -5.1848  -14.2699 O   0  0  0  0  0  0  0  0  0  0  0  0
   18.5910   -3.5831  -15.3710 O   0  0  0  0  0  0  0  0  0  0  0  0
  2  1  1  1
  2  3  1  0
  4  5  1  0
  4  3  1  0
  5  6  2  0
  7  2  1  0
  7 10  1  0
  8  7  2  0
  9  5  1  0
 11 10  1  0
 11 12  1  6
 12 13  1  0
 13 18  2  0
 13 14  1  0
 14 15  2  0
 15 16  1  0
 17 16  2  0
 18 17  1  0
 19 11  1  0
 20 19  2  0
 21 22  1  0
 23 22  1  1
 23 24  1  0
 24 19  1  0
 25 23  1  0
 26 25  1  0
 27 25  2  0
M  END
$$$$
