ADY.pdb
     RDKit          3D

 26 26  0  0  1  0  0  0  0  0999 V2000
    8.2300  -12.4100   19.5035 C   0  0  0  0  0  0  0  0  0  0  0  0
    7.7794  -13.7634   19.0543 C   0  0  2  0  0  0  0  0  0  0  0  0
    6.3910  -13.8844   18.7630 N   0  0  0  0  0  0  0  0  0  0  0  0
    8.2604  -14.7939   20.0598 C   0  0  0  0  0  0  0  0  0  0  0  0
    7.4454  -15.0988   20.9319 O   0  0  0  0  0  0  0  0  0  0  0  0
    9.5290  -15.3431   19.9879 N   0  0  0  0  0  0  0  0  0  0  0  0
   10.0825  -16.4076   20.7412 C   0  0  1  0  0  0  0  0  0  0  0  0
   10.9662  -17.3925   20.0409 C   0  0  0  0  0  0  0  0  0  0  0  0
   11.3200  -18.4857   20.9670 C   0  0  0  0  0  0  0  0  0  0  0  0
   10.3917  -19.2043   21.4702 O   0  0  0  0  0  0  0  0  0  0  0  0
   10.4611  -16.0600   22.1114 C   0  0  0  0  0  0  0  0  0  0  0  0
   11.5107  -15.3422   22.3031 O   0  0  0  0  0  0  0  0  0  0  0  0
   12.6200  -18.7952   21.3371 O   0  0  0  0  0  0  0  0  0  0  0  0
   10.5001  -14.6326   30.8100 O   0  0  0  0  0  0  0  0  0  0  0  0
   10.1561  -14.9048   29.5027 C   0  0  0  0  0  0  0  0  0  0  0  0
    9.8991  -13.8823   28.5972 C   0  0  0  0  0  0  0  0  0  0  0  0
    9.5568  -14.1799   27.2953 C   0  0  0  0  0  0  0  0  0  0  0  0
    9.4613  -15.4826   26.8600 C   0  0  0  0  0  0  0  0  0  0  0  0
    9.0967  -15.8137   25.4773 C   0  0  0  0  0  0  0  0  0  0  0  0
   10.2588  -16.0684   24.5733 C   0  0  2  0  0  0  0  0  0  0  0  0
    9.7509  -16.4576   23.2698 N   0  0  0  0  0  0  0  0  0  0  0  0
   11.2309  -17.0627   25.0930 C   0  0  0  0  0  0  0  0  0  0  0  0
   12.3614  -16.6501   25.7586 O   0  0  0  0  0  0  0  0  0  0  0  0
    9.7178  -16.4875   27.7651 C   0  0  0  0  0  0  0  0  0  0  0  0
   10.0610  -16.2208   29.0691 C   0  0  0  0  0  0  0  0  0  0  0  0
   11.0263  -18.2848   24.9282 O   0  0  0  0  0  0  0  0  0  0  0  0
  2  3  1  0
  2  1  1  1
  4  2  1  0
  5  4  2  0
  6  4  1  0
  7  6  1  0
  7  8  1  6
  9  8  1  0
  9 10  2  0
 11  7  1  0
 11 21  1  0
 12 11  2  0
 13  9  1  0
 15 14  1  0
 16 15  2  0
 17 16  1  0
 18 24  1  0
 18 17  2  0
 19 18  1  0
 20 19  1  1
 20 21  1  0
 20 22  1  0
 22 26  2  0
 22 23  1  0
 24 25  2  0
 25 15  1  0
M  END
$$$$
