ADY.pdb
     RDKit          3D

 26 26  0  0  1  0  0  0  0  0999 V2000
    6.7785  -13.0621   20.0795 C   0  0  0  0  0  0  0  0  0  0  0  0
    8.1952  -13.5336   19.9943 C   0  0  2  0  0  0  0  0  0  0  0  0
    8.6149  -13.9933   18.7140 N   0  0  0  0  0  0  0  0  0  0  0  0
    8.4340  -14.5545   21.0921 C   0  0  0  0  0  0  0  0  0  0  0  0
    7.9136  -14.2918   22.1774 O   0  0  0  0  0  0  0  0  0  0  0  0
    9.1863  -15.6956   20.8728 N   0  0  0  0  0  0  0  0  0  0  0  0
    9.4650  -16.7628   21.7618 C   0  0  1  0  0  0  0  0  0  0  0  0
   10.0146  -18.0359   21.1973 C   0  0  0  0  0  0  0  0  0  0  0  0
    9.4017  -18.2986   19.8808 C   0  0  0  0  0  0  0  0  0  0  0  0
    8.1652  -18.6123   19.8178 O   0  0  0  0  0  0  0  0  0  0  0  0
    9.9879  -16.3560   23.0668 C   0  0  0  0  0  0  0  0  0  0  0  0
   11.0376  -15.6147   23.1122 O   0  0  0  0  0  0  0  0  0  0  0  0
   10.0901  -18.2264   18.6792 O   0  0  0  0  0  0  0  0  0  0  0  0
    5.1434  -12.1339   25.7106 O   0  0  0  0  0  0  0  0  0  0  0  0
    6.3566  -12.7882   25.6726 C   0  0  0  0  0  0  0  0  0  0  0  0
    6.6552  -13.8056   26.5713 C   0  0  0  0  0  0  0  0  0  0  0  0
    7.8753  -14.4448   26.5133 C   0  0  0  0  0  0  0  0  0  0  0  0
    8.8213  -14.0984   25.5748 C   0  0  0  0  0  0  0  0  0  0  0  0
   10.1245  -14.7696   25.5025 C   0  0  0  0  0  0  0  0  0  0  0  0
   10.0564  -16.2619   25.5342 C   0  0  2  0  0  0  0  0  0  0  0  0
    9.4202  -16.7195   24.3118 N   0  0  0  0  0  0  0  0  0  0  0  0
    9.3823  -16.8175   26.7345 C   0  0  0  0  0  0  0  0  0  0  0  0
    8.2934  -17.6468   26.6011 O   0  0  0  0  0  0  0  0  0  0  0  0
    8.5152  -13.0895   24.6897 C   0  0  0  0  0  0  0  0  0  0  0  0
    7.3072  -12.4345   24.7239 C   0  0  0  0  0  0  0  0  0  0  0  0
    9.8025  -16.5339   27.8771 O   0  0  0  0  0  0  0  0  0  0  0  0
  2  3  1  0
  2  1  1  6
  4  2  1  0
  5  4  2  0
  6  4  1  0
  7  6  1  0
  7  8  1  6
  9  8  1  0
  9 10  2  0
 11  7  1  0
 11 21  1  0
 12 11  2  0
 13  9  1  0
 15 14  1  0
 16 15  2  0
 17 16  1  0
 18 24  1  0
 18 17  2  0
 19 18  1  0
 20 19  1  1
 20 21  1  0
 20 22  1  0
 22 26  2  0
 22 23  1  0
 24 25  2  0
 25 15  1  0
M  END
$$$$
