ADY.pdb
     RDKit          3D

 26 26  0  0  1  0  0  0  0  0999 V2000
    8.1534  -12.4418   21.0077 C   0  0  0  0  0  0  0  0  0  0  0  0
    7.9825  -13.7223   20.2544 C   0  0  2  0  0  0  0  0  0  0  0  0
    6.7389  -13.8777   19.5789 N   0  0  0  0  0  0  0  0  0  0  0  0
    8.2929  -14.8794   21.1867 C   0  0  0  0  0  0  0  0  0  0  0  0
    7.3432  -15.2816   21.8606 O   0  0  0  0  0  0  0  0  0  0  0  0
    9.5595  -15.4326   21.2626 N   0  0  0  0  0  0  0  0  0  0  0  0
   10.0360  -16.4515   22.1239 C   0  0  1  0  0  0  0  0  0  0  0  0
   11.2240  -17.2531   21.6909 C   0  0  0  0  0  0  0  0  0  0  0  0
   10.9527  -17.8706   20.3783 C   0  0  0  0  0  0  0  0  0  0  0  0
   10.0805  -18.7998   20.2925 O   0  0  0  0  0  0  0  0  0  0  0  0
    9.9526  -16.1395   23.5512 C   0  0  0  0  0  0  0  0  0  0  0  0
   10.7147  -15.2225   24.0326 O   0  0  0  0  0  0  0  0  0  0  0  0
   11.5926  -17.5037   19.2041 O   0  0  0  0  0  0  0  0  0  0  0  0
    6.2668  -10.8291   25.7512 O   0  0  0  0  0  0  0  0  0  0  0  0
    6.6505  -12.1441   25.9091 C   0  0  0  0  0  0  0  0  0  0  0  0
    6.0834  -13.1572   25.1450 C   0  0  0  0  0  0  0  0  0  0  0  0
    6.4838  -14.4646   25.3215 C   0  0  0  0  0  0  0  0  0  0  0  0
    7.4454  -14.8000   26.2481 C   0  0  0  0  0  0  0  0  0  0  0  0
    7.8801  -16.1877   26.4472 C   0  0  0  0  0  0  0  0  0  0  0  0
    9.2281  -16.5024   25.8848 C   0  0  2  0  0  0  0  0  0  0  0  0
    9.0819  -16.7784   24.4667 N   0  0  0  0  0  0  0  0  0  0  0  0
    9.9377  -17.6059   26.5794 C   0  0  0  0  0  0  0  0  0  0  0  0
   10.2729  -17.4916   27.9082 O   0  0  0  0  0  0  0  0  0  0  0  0
    8.0004  -13.7889   26.9994 C   0  0  0  0  0  0  0  0  0  0  0  0
    7.6209  -12.4768   26.8454 C   0  0  0  0  0  0  0  0  0  0  0  0
   10.2352  -18.6490   25.9580 O   0  0  0  0  0  0  0  0  0  0  0  0
  2  3  1  0
  2  1  1  1
  4  2  1  0
  5  4  2  0
  6  4  1  0
  7  6  1  0
  7  8  1  6
  9  8  1  0
  9 10  2  0
 11  7  1  0
 11 21  1  0
 12 11  2  0
 13  9  1  0
 15 14  1  0
 16 15  2  0
 17 16  1  0
 18 24  1  0
 18 17  2  0
 19 18  1  0
 20 19  1  1
 20 21  1  0
 20 22  1  0
 22 26  2  0
 22 23  1  0
 24 25  2  0
 25 15  1  0
M  END
$$$$
