ADY.pdb
     RDKit          3D

 26 26  0  0  1  0  0  0  0  0999 V2000
    8.6189  -16.1940   16.7007 C   0  0  0  0  0  0  0  0  0  0  0  0
    8.8131  -17.5928   17.1927 C   0  0  2  0  0  0  0  0  0  0  0  0
    7.9264  -18.5650   16.6492 N   0  0  0  0  0  0  0  0  0  0  0  0
    8.8098  -17.5786   18.7106 C   0  0  0  0  0  0  0  0  0  0  0  0
    8.0143  -16.7928   19.2279 O   0  0  0  0  0  0  0  0  0  0  0  0
    9.6482  -18.3973   19.4474 N   0  0  0  0  0  0  0  0  0  0  0  0
    9.7053  -18.5813   20.8510 C   0  0  1  0  0  0  0  0  0  0  0  0
   10.2540  -19.8702   21.3793 C   0  0  0  0  0  0  0  0  0  0  0  0
    9.2664  -20.9480   21.1776 C   0  0  0  0  0  0  0  0  0  0  0  0
    8.0207  -20.6664   21.1952 O   0  0  0  0  0  0  0  0  0  0  0  0
   10.0326  -17.3777   21.6165 C   0  0  0  0  0  0  0  0  0  0  0  0
   11.1185  -16.7446   21.3451 O   0  0  0  0  0  0  0  0  0  0  0  0
    9.6039  -22.2761   20.9648 O   0  0  0  0  0  0  0  0  0  0  0  0
    7.4339  -12.8309   18.0248 O   0  0  0  0  0  0  0  0  0  0  0  0
    7.7009  -13.2783   19.3015 C   0  0  0  0  0  0  0  0  0  0  0  0
    6.8820  -14.2132   19.9236 C   0  0  0  0  0  0  0  0  0  0  0  0
    7.1698  -14.6451   21.2009 C   0  0  0  0  0  0  0  0  0  0  0  0
    8.2635  -14.1687   21.8883 C   0  0  0  0  0  0  0  0  0  0  0  0
    8.5810  -14.6187   23.2488 C   0  0  0  0  0  0  0  0  0  0  0  0
    9.6763  -15.6320   23.3274 C   0  0  2  0  0  0  0  0  0  0  0  0
    9.2341  -16.8405   22.6547 N   0  0  0  0  0  0  0  0  0  0  0  0
   10.1432  -15.9215   24.7065 C   0  0  0  0  0  0  0  0  0  0  0  0
   10.0127  -17.1840   25.2359 O   0  0  0  0  0  0  0  0  0  0  0  0
    9.0678  -13.2430   21.2628 C   0  0  0  0  0  0  0  0  0  0  0  0
    8.8054  -12.7942   19.9904 C   0  0  0  0  0  0  0  0  0  0  0  0
   10.6597  -15.0160   25.3965 O   0  0  0  0  0  0  0  0  0  0  0  0
  2  3  1  0
  2  1  1  6
  4  2  1  0
  5  4  2  0
  6  4  1  0
  7  6  1  0
  7  8  1  6
  9  8  1  0
  9 10  2  0
 11  7  1  0
 11 21  1  0
 12 11  2  0
 13  9  1  0
 15 14  1  0
 16 15  2  0
 17 16  1  0
 18 24  1  0
 18 17  2  0
 19 18  1  0
 20 19  1  1
 20 21  1  0
 20 22  1  0
 22 26  2  0
 22 23  1  0
 24 25  2  0
 25 15  1  0
M  END
$$$$
