ADY.pdb
     RDKit          3D

 26 26  0  0  1  0  0  0  0  0999 V2000
    8.4950  -12.7680   19.0172 C   0  0  0  0  0  0  0  0  0  0  0  0
    8.5492  -14.1615   18.4772 C   0  0  2  0  0  0  0  0  0  0  0  0
    7.4146  -14.5736   17.7224 N   0  0  0  0  0  0  0  0  0  0  0  0
    8.8734  -15.1114   19.6160 C   0  0  0  0  0  0  0  0  0  0  0  0
    7.9257  -15.3962   20.3498 O   0  0  0  0  0  0  0  0  0  0  0  0
   10.1497  -15.6135   19.8032 N   0  0  0  0  0  0  0  0  0  0  0  0
   10.6558  -16.3797   20.8821 C   0  0  1  0  0  0  0  0  0  0  0  0
   11.9865  -17.0465   20.7205 C   0  0  0  0  0  0  0  0  0  0  0  0
   11.9767  -17.8821   19.5041 C   0  0  0  0  0  0  0  0  0  0  0  0
   11.0182  -18.7056   19.3185 O   0  0  0  0  0  0  0  0  0  0  0  0
   10.3596  -15.8423   22.2107 C   0  0  0  0  0  0  0  0  0  0  0  0
   11.1172  -14.9214   22.6917 O   0  0  0  0  0  0  0  0  0  0  0  0
   12.9579  -17.8343   18.5253 O   0  0  0  0  0  0  0  0  0  0  0  0
    6.2245  -11.2585   28.1643 O   0  0  0  0  0  0  0  0  0  0  0  0
    6.5947  -12.0928   27.1307 C   0  0  0  0  0  0  0  0  0  0  0  0
    5.9957  -13.3349   26.9572 C   0  0  0  0  0  0  0  0  0  0  0  0
    6.3832  -14.1513   25.9160 C   0  0  0  0  0  0  0  0  0  0  0  0
    7.3625  -13.7643   25.0289 C   0  0  0  0  0  0  0  0  0  0  0  0
    7.7856  -14.6238   23.9169 C   0  0  0  0  0  0  0  0  0  0  0  0
    8.9629  -15.4931   24.2180 C   0  0  2  0  0  0  0  0  0  0  0  0
    9.2830  -16.2622   23.0286 N   0  0  0  0  0  0  0  0  0  0  0  0
    8.7858  -16.3743   25.3994 C   0  0  0  0  0  0  0  0  0  0  0  0
    9.0687  -15.9113   26.6630 O   0  0  0  0  0  0  0  0  0  0  0  0
    7.9491  -12.5322   25.2101 C   0  0  0  0  0  0  0  0  0  0  0  0
    7.5832  -11.6974   26.2389 C   0  0  0  0  0  0  0  0  0  0  0  0
    8.3765  -17.5462   25.2516 O   0  0  0  0  0  0  0  0  0  0  0  0
  2  3  1  0
  2  1  1  1
  4  2  1  0
  5  4  2  0
  6  4  1  0
  7  6  1  0
  7  8  1  6
  9  8  1  0
  9 10  2  0
 11  7  1  0
 11 21  1  0
 12 11  2  0
 13  9  1  0
 15 14  1  0
 16 15  2  0
 17 16  1  0
 18 24  1  0
 18 17  2  0
 19 18  1  0
 20 19  1  6
 20 21  1  0
 20 22  1  0
 22 26  2  0
 22 23  1  0
 24 25  2  0
 25 15  1  0
M  END
$$$$
