ADY.pdb
     RDKit          3D

 26 26  0  0  1  0  0  0  0  0999 V2000
    7.1782  -13.0304   19.4965 C   0  0  0  0  0  0  0  0  0  0  0  0
    8.4729  -13.7521   19.2979 C   0  0  2  0  0  0  0  0  0  0  0  0
    8.6062  -14.4483   18.0632 N   0  0  0  0  0  0  0  0  0  0  0  0
    8.7234  -14.6406   20.5029 C   0  0  0  0  0  0  0  0  0  0  0  0
    8.5853  -14.0934   21.5981 O   0  0  0  0  0  0  0  0  0  0  0  0
    9.0813  -15.9705   20.3641 N   0  0  0  0  0  0  0  0  0  0  0  0
    9.2668  -16.9523   21.3685 C   0  0  1  0  0  0  0  0  0  0  0  0
    9.5893  -18.3520   20.9463 C   0  0  0  0  0  0  0  0  0  0  0  0
    9.8812  -19.1732   22.1372 C   0  0  0  0  0  0  0  0  0  0  0  0
    8.9319  -19.4758   22.9364 O   0  0  0  0  0  0  0  0  0  0  0  0
    9.9317  -16.4739   22.5812 C   0  0  0  0  0  0  0  0  0  0  0  0
   11.1608  -16.1026   22.5109 O   0  0  0  0  0  0  0  0  0  0  0  0
   11.1432  -19.6511   22.4565 O   0  0  0  0  0  0  0  0  0  0  0  0
    5.3565  -11.8751   26.8709 O   0  0  0  0  0  0  0  0  0  0  0  0
    6.4849  -12.4727   26.3504 C   0  0  0  0  0  0  0  0  0  0  0  0
    6.4409  -13.1750   25.1518 C   0  0  0  0  0  0  0  0  0  0  0  0
    7.5827  -13.7640   24.6519 C   0  0  0  0  0  0  0  0  0  0  0  0
    8.7848  -13.6743   25.3173 C   0  0  0  0  0  0  0  0  0  0  0  0
   10.0077  -14.2975   24.7973 C   0  0  0  0  0  0  0  0  0  0  0  0
   10.0600  -15.7830   24.9493 C   0  0  2  0  0  0  0  0  0  0  0  0
    9.3193  -16.3838   23.8544 N   0  0  0  0  0  0  0  0  0  0  0  0
    9.5800  -16.2801   26.2631 C   0  0  0  0  0  0  0  0  0  0  0  0
    8.5783  -17.2200   26.3291 O   0  0  0  0  0  0  0  0  0  0  0  0
    8.8171  -12.9765   26.5035 C   0  0  0  0  0  0  0  0  0  0  0  0
    7.6948  -12.3792   27.0260 C   0  0  0  0  0  0  0  0  0  0  0  0
   10.0858  -15.8457   27.3206 O   0  0  0  0  0  0  0  0  0  0  0  0
  2  3  1  0
  2  1  1  1
  4  2  1  0
  5  4  2  0
  6  4  1  0
  7  6  1  0
  7  8  1  6
  9  8  1  0
  9 10  2  0
 11  7  1  0
 11 21  1  0
 12 11  2  0
 13  9  1  0
 15 14  1  0
 16 15  2  0
 17 16  1  0
 18 24  1  0
 18 17  2  0
 19 18  1  0
 20 19  1  1
 20 21  1  0
 20 22  1  0
 22 26  2  0
 22 23  1  0
 24 25  2  0
 25 15  1  0
M  END
$$$$
