ADY.pdb
     RDKit          3D

 26 26  0  0  1  0  0  0  0  0999 V2000
    7.1887  -12.6782   20.6885 C   0  0  0  0  0  0  0  0  0  0  0  0
    8.2257  -13.6533   20.2298 C   0  0  2  0  0  0  0  0  0  0  0  0
    8.0381  -14.1809   18.9208 N   0  0  0  0  0  0  0  0  0  0  0  0
    8.3742  -14.7359   21.2834 C   0  0  0  0  0  0  0  0  0  0  0  0
    7.5207  -14.7263   22.1718 O   0  0  0  0  0  0  0  0  0  0  0  0
    9.4023  -15.6615   21.2352 N   0  0  0  0  0  0  0  0  0  0  0  0
    9.6925  -16.7177   22.1337 C   0  0  1  0  0  0  0  0  0  0  0  0
   10.5992  -17.8165   21.6733 C   0  0  0  0  0  0  0  0  0  0  0  0
   10.1739  -18.2827   20.3393 C   0  0  0  0  0  0  0  0  0  0  0  0
    9.0444  -18.8650   20.2108 O   0  0  0  0  0  0  0  0  0  0  0  0
    9.8250  -16.3150   23.5344 C   0  0  0  0  0  0  0  0  0  0  0  0
   10.7276  -15.4556   23.8513 O   0  0  0  0  0  0  0  0  0  0  0  0
   10.9320  -18.1287   19.1885 O   0  0  0  0  0  0  0  0  0  0  0  0
    6.8303  -10.6343   25.8898 O   0  0  0  0  0  0  0  0  0  0  0  0
    7.1427  -11.9633   26.0831 C   0  0  0  0  0  0  0  0  0  0  0  0
    6.1882  -12.9597   25.9163 C   0  0  0  0  0  0  0  0  0  0  0  0
    6.5249  -14.2817   26.1155 C   0  0  0  0  0  0  0  0  0  0  0  0
    7.8008  -14.6484   26.4806 C   0  0  0  0  0  0  0  0  0  0  0  0
    8.1727  -16.0516   26.6972 C   0  0  0  0  0  0  0  0  0  0  0  0
    9.3967  -16.4898   25.9609 C   0  0  2  0  0  0  0  0  0  0  0  0
    9.0230  -16.8044   24.5934 N   0  0  0  0  0  0  0  0  0  0  0  0
   10.1206  -17.6194   26.5964 C   0  0  0  0  0  0  0  0  0  0  0  0
   10.6841  -17.4733   27.8423 O   0  0  0  0  0  0  0  0  0  0  0  0
    8.7382  -13.6536   26.6432 C   0  0  0  0  0  0  0  0  0  0  0  0
    8.4313  -12.3275   26.4516 C   0  0  0  0  0  0  0  0  0  0  0  0
   10.2219  -18.7136   26.0005 O   0  0  0  0  0  0  0  0  0  0  0  0
  2  3  1  0
  2  1  1  1
  4  2  1  0
  5  4  2  0
  6  4  1  0
  7  6  1  0
  7  8  1  6
  9  8  1  0
  9 10  2  0
 11  7  1  0
 11 21  1  0
 12 11  2  0
 13  9  1  0
 15 14  1  0
 16 15  2  0
 17 16  1  0
 18 24  1  0
 18 17  2  0
 19 18  1  0
 20 19  1  1
 20 21  1  0
 20 22  1  0
 22 26  2  0
 22 23  1  0
 24 25  2  0
 25 15  1  0
M  END
$$$$
