ADY.pdb
     RDKit          3D

 26 26  0  0  1  0  0  0  0  0999 V2000
    7.4233  -13.3722   18.1014 C   0  0  0  0  0  0  0  0  0  0  0  0
    8.7887  -13.6336   18.6526 C   0  0  2  0  0  0  0  0  0  0  0  0
    9.7963  -13.9225   17.6892 N   0  0  0  0  0  0  0  0  0  0  0  0
    8.6822  -14.6992   19.7285 C   0  0  0  0  0  0  0  0  0  0  0  0
    7.7775  -14.5314   20.5478 O   0  0  0  0  0  0  0  0  0  0  0  0
    9.5488  -15.7777   19.7722 N   0  0  0  0  0  0  0  0  0  0  0  0
    9.6570  -16.7939   20.7533 C   0  0  1  0  0  0  0  0  0  0  0  0
   10.5527  -17.9609   20.4753 C   0  0  0  0  0  0  0  0  0  0  0  0
   10.5125  -18.8980   21.6146 C   0  0  0  0  0  0  0  0  0  0  0  0
    9.3825  -19.2962   22.0575 O   0  0  0  0  0  0  0  0  0  0  0  0
    9.6256  -16.3189   22.1372 C   0  0  0  0  0  0  0  0  0  0  0  0
   10.6324  -15.6602   22.5913 O   0  0  0  0  0  0  0  0  0  0  0  0
   11.6418  -19.3887   22.2524 O   0  0  0  0  0  0  0  0  0  0  0  0
    6.8374  -11.1345   28.3946 O   0  0  0  0  0  0  0  0  0  0  0  0
    6.9726  -12.0043   27.3332 C   0  0  0  0  0  0  0  0  0  0  0  0
    6.0647  -13.0362   27.1267 C   0  0  0  0  0  0  0  0  0  0  0  0
    6.2213  -13.8930   26.0581 C   0  0  0  0  0  0  0  0  0  0  0  0
    7.2686  -13.7527   25.1754 C   0  0  0  0  0  0  0  0  0  0  0  0
    7.4481  -14.6584   24.0344 C   0  0  0  0  0  0  0  0  0  0  0  0
    8.4784  -15.7205   24.2414 C   0  0  2  0  0  0  0  0  0  0  0  0
    8.5537  -16.5292   23.0378 N   0  0  0  0  0  0  0  0  0  0  0  0
    8.2559  -16.5616   25.4442 C   0  0  0  0  0  0  0  0  0  0  0  0
    8.7867  -16.1954   26.6588 O   0  0  0  0  0  0  0  0  0  0  0  0
    8.1619  -12.7275   25.3892 C   0  0  0  0  0  0  0  0  0  0  0  0
    8.0311  -11.8582   26.4459 C   0  0  0  0  0  0  0  0  0  0  0  0
    7.5820  -17.6111   25.3593 O   0  0  0  0  0  0  0  0  0  0  0  0
  2  3  1  0
  2  1  1  6
  4  2  1  0
  5  4  2  0
  6  4  1  0
  7  6  1  0
  7  8  1  6
  9  8  1  0
  9 10  2  0
 11  7  1  0
 11 21  1  0
 12 11  2  0
 13  9  1  0
 15 14  1  0
 16 15  2  0
 17 16  1  0
 18 24  1  0
 18 17  2  0
 19 18  1  0
 20 19  1  6
 20 21  1  0
 20 22  1  0
 22 26  2  0
 22 23  1  0
 24 25  2  0
 25 15  1  0
M  END
$$$$
