ADY.pdb
     RDKit          3D

 26 26  0  0  1  0  0  0  0  0999 V2000
   10.9665  -21.8106   22.6091 C   0  0  0  0  0  0  0  0  0  0  0  0
   10.5745  -20.7442   23.5815 C   0  0  2  0  0  0  0  0  0  0  0  0
    9.2148  -20.7654   24.0032 N   0  0  0  0  0  0  0  0  0  0  0  0
   10.9944  -19.3975   23.0207 C   0  0  0  0  0  0  0  0  0  0  0  0
   12.2056  -19.1730   23.0420 O   0  0  0  0  0  0  0  0  0  0  0  0
   10.0688  -18.4960   22.5241 N   0  0  0  0  0  0  0  0  0  0  0  0
   10.2850  -17.2041   21.9843 C   0  0  1  0  0  0  0  0  0  0  0  0
    9.5387  -16.8147   20.7462 C   0  0  0  0  0  0  0  0  0  0  0  0
    9.9531  -17.6809   19.6256 C   0  0  0  0  0  0  0  0  0  0  0  0
    9.0809  -18.4089   19.0420 O   0  0  0  0  0  0  0  0  0  0  0  0
   10.4848  -16.1479   22.9773 C   0  0  0  0  0  0  0  0  0  0  0  0
    9.6439  -15.1764   23.0291 O   0  0  0  0  0  0  0  0  0  0  0  0
   11.2533  -17.7612   19.1502 O   0  0  0  0  0  0  0  0  0  0  0  0
   10.6534  -16.1542   31.0701 O   0  0  0  0  0  0  0  0  0  0  0  0
   10.5762  -15.8350   29.7309 C   0  0  0  0  0  0  0  0  0  0  0  0
   10.7187  -14.5235   29.2932 C   0  0  0  0  0  0  0  0  0  0  0  0
   10.6374  -14.2294   27.9487 C   0  0  0  0  0  0  0  0  0  0  0  0
   10.4157  -15.2143   27.0125 C   0  0  0  0  0  0  0  0  0  0  0  0
   10.3257  -14.9152   25.5784 C   0  0  0  0  0  0  0  0  0  0  0  0
   11.6243  -14.9998   24.8442 C   0  0  2  0  0  0  0  0  0  0  0  0
   11.5516  -16.1066   23.9070 N   0  0  0  0  0  0  0  0  0  0  0  0
   12.8162  -15.1127   25.7218 C   0  0  0  0  0  0  0  0  0  0  0  0
   13.5936  -16.2468   25.6991 O   0  0  0  0  0  0  0  0  0  0  0  0
   10.2760  -16.5096   27.4569 C   0  0  0  0  0  0  0  0  0  0  0  0
   10.3523  -16.8325   28.7908 C   0  0  0  0  0  0  0  0  0  0  0  0
   13.1212  -14.1737   26.4887 O   0  0  0  0  0  0  0  0  0  0  0  0
  2  3  1  0
  2  1  1  6
  4  2  1  0
  5  4  2  0
  6  4  1  0
  7  6  1  0
  7  8  1  1
  9  8  1  0
  9 10  2  0
 11  7  1  0
 11 21  1  0
 12 11  2  0
 13  9  1  0
 15 14  1  0
 16 15  2  0
 17 16  1  0
 18 24  1  0
 18 17  2  0
 19 18  1  0
 20 19  1  1
 20 21  1  0
 20 22  1  0
 22 26  2  0
 22 23  1  0
 24 25  2  0
 25 15  1  0
M  END
$$$$
