ADY.pdb
     RDKit          3D

 26 26  0  0  1  0  0  0  0  0999 V2000
    8.3185  -12.8335   18.8637 C   0  0  0  0  0  0  0  0  0  0  0  0
    8.4141  -14.1739   18.2074 C   0  0  2  0  0  0  0  0  0  0  0  0
    7.2873  -14.5588   17.4269 N   0  0  0  0  0  0  0  0  0  0  0  0
    8.7792  -15.2050   19.2599 C   0  0  0  0  0  0  0  0  0  0  0  0
    7.8465  -15.9058   19.6560 O   0  0  0  0  0  0  0  0  0  0  0  0
   10.0741  -15.3361   19.7311 N   0  0  0  0  0  0  0  0  0  0  0  0
   10.5577  -16.1367   20.7952 C   0  0  1  0  0  0  0  0  0  0  0  0
   11.9542  -16.6694   20.7090 C   0  0  0  0  0  0  0  0  0  0  0  0
   12.1280  -17.3988   19.4379 C   0  0  0  0  0  0  0  0  0  0  0  0
   12.7247  -16.8262   18.4646 O   0  0  0  0  0  0  0  0  0  0  0  0
   10.1014  -15.7328   22.1257 C   0  0  0  0  0  0  0  0  0  0  0  0
   10.5774  -16.3371   23.1561 O   0  0  0  0  0  0  0  0  0  0  0  0
   11.6789  -18.6928   19.2214 O   0  0  0  0  0  0  0  0  0  0  0  0
    5.6337  -12.0519   28.8075 O   0  0  0  0  0  0  0  0  0  0  0  0
    6.1447  -12.3731   27.5677 C   0  0  0  0  0  0  0  0  0  0  0  0
    7.2912  -11.7579   27.0792 C   0  0  0  0  0  0  0  0  0  0  0  0
    7.7826  -12.0960   25.8363 C   0  0  0  0  0  0  0  0  0  0  0  0
    7.1597  -13.0416   25.0530 C   0  0  0  0  0  0  0  0  0  0  0  0
    7.6712  -13.4102   23.7276 C   0  0  0  0  0  0  0  0  0  0  0  0
    8.6986  -14.4951   23.7388 C   0  0  2  0  0  0  0  0  0  0  0  0
    9.1576  -14.7081   22.3778 N   0  0  0  0  0  0  0  0  0  0  0  0
    8.2409  -15.7637   24.3592 C   0  0  0  0  0  0  0  0  0  0  0  0
    8.5926  -16.0741   25.6519 O   0  0  0  0  0  0  0  0  0  0  0  0
    6.0249  -13.6446   25.5465 C   0  0  0  0  0  0  0  0  0  0  0  0
    5.5120  -13.3276   26.7817 C   0  0  0  0  0  0  0  0  0  0  0  0
    7.5304  -16.5596   23.7076 O   0  0  0  0  0  0  0  0  0  0  0  0
  2  3  1  0
  2  1  1  1
  4  2  1  0
  5  4  2  0
  6  4  1  0
  7  6  1  0
  7  8  1  1
  9  8  1  0
  9 10  2  0
 11  7  1  0
 11 21  1  0
 12 11  2  0
 13  9  1  0
 15 14  1  0
 16 15  2  0
 17 16  1  0
 18 24  1  0
 18 17  2  0
 19 18  1  0
 20 19  1  6
 20 21  1  0
 20 22  1  0
 22 26  2  0
 22 23  1  0
 24 25  2  0
 25 15  1  0
M  END
$$$$
