FRK.pdb
     RDKit          3D

 32 32  0  0  1  0  0  0  0  0999 V2000
    5.8473  -18.0105   25.8273 N   0  0  0  0  0  0  0  0  0  0  0  0
    6.0457  -16.6154   25.5357 C   0  0  1  0  0  0  0  0  0  0  0  0
    6.4610  -15.9184   26.8258 C   0  0  0  0  0  0  0  0  0  0  0  0
    6.5052  -14.4459   26.6906 C   0  0  0  0  0  0  0  0  0  0  0  0
    7.6868  -13.7225   26.7043 C   0  0  0  0  0  0  0  0  0  0  0  0
    7.6832  -12.3556   26.5831 C   0  0  0  0  0  0  0  0  0  0  0  0
    6.4962  -11.6319   26.4405 C   0  0  0  0  0  0  0  0  0  0  0  0
    5.3294  -12.3571   26.4272 C   0  0  0  0  0  0  0  0  0  0  0  0
    5.3300  -13.7089   26.5470 C   0  0  0  0  0  0  0  0  0  0  0  0
    7.1032  -16.4671   24.5069 C   0  0  0  0  0  0  0  0  0  0  0  0
    8.0501  -17.2900   24.4806 O   0  0  0  0  0  0  0  0  0  0  0  0
    8.7313  -14.9018   16.3146 N   0  0  0  0  0  0  0  0  0  0  0  0
    8.1378  -13.9075   17.1310 C   0  0  0  0  0  0  0  0  0  0  0  0
    8.0552  -12.6807   16.6930 N   0  0  0  0  0  0  0  0  0  0  0  0
    7.6365  -14.2335   18.4249 N   0  0  0  0  0  0  0  0  0  0  0  0
    8.4721  -14.9051   19.3736 C   0  0  0  0  0  0  0  0  0  0  0  0
    8.9074  -13.9769   20.5164 C   0  0  0  0  0  0  0  0  0  0  0  0
    7.8537  -14.1352   21.5771 C   0  0  0  0  0  0  0  0  0  0  0  0
    8.0421  -15.2900   22.4993 C   0  0  2  0  0  0  0  0  0  0  0  0
    7.0840  -15.4219   23.5452 N   0  0  0  0  0  0  0  0  0  0  0  0
    9.4480  -15.3831   23.0139 C   0  0  0  0  0  0  0  0  0  0  0  0
    9.9242  -14.4949   23.7754 O   0  0  0  0  0  0  0  0  0  0  0  0
    7.5659  -11.9723   17.2691 N   0  0  0  0  0  0  0  0  0  0  0  0
   10.3170  -16.4548   22.6836 C   0  0  1  0  0  0  0  0  0  0  0  0
   11.6876  -16.5579   23.1902 C   0  0  0  0  0  0  0  0  0  0  0  0
   11.9591  -17.8836   23.7996 C   0  0  0  0  0  0  0  0  0  0  0  0
   12.2847  -17.8962   25.2536 C   0  0  0  0  0  0  0  0  0  0  0  0
   12.5649  -19.3421   25.6959 C   0  0  0  0  0  0  0  0  0  0  0  0
   12.7304  -19.3971   27.2072 N   0  0  0  0  0  0  0  0  0  0  0  0
   14.0670  -19.7441   27.6149 C   0  0  0  0  0  0  0  0  0  0  0  0
   12.6605  -16.1003   22.1809 O   0  0  0  0  0  0  0  0  0  0  0  0
   12.5223  -16.3131   20.9794 O   0  0  0  0  0  0  0  0  0  0  0  0
  2  1  1  1
  2  3  1  0
  3  4  1  0
  4  5  2  0
  5  6  1  0
  7  6  2  0
  8  7  1  0
  9  4  1  0
  9  8  2  0
 10  2  1  0
 11 10  2  0
 13 15  1  0
 13 12  1  0
 14 13  2  0
 16 17  1  0
 16 15  1  0
 17 18  1  0
 19 18  1  1
 19 21  1  0
 19 20  1  0
 20 10  1  0
 21 23  1  0
 22 21  2  0
 23 24  1  0
 24 25  1  6
 24 30  1  0
 25 26  1  0
 27 26  1  0
 28 27  1  0
 29 28  1  0
 30 31  2  0
 30 32  1  0
M  END
$$$$
