FRK.pdb
     RDKit          3D

 32 32  0  0  1  0  0  0  0  0999 V2000
    5.9175  -17.6398   25.0647 N   0  0  0  0  0  0  0  0  0  0  0  0
    6.4319  -16.3051   24.9076 C   0  0  1  0  0  0  0  0  0  0  0  0
    6.9427  -15.8339   26.2639 C   0  0  0  0  0  0  0  0  0  0  0  0
    6.8928  -14.3630   26.4133 C   0  0  0  0  0  0  0  0  0  0  0  0
    8.0270  -13.5674   26.4267 C   0  0  0  0  0  0  0  0  0  0  0  0
    7.9371  -12.2061   26.5749 C   0  0  0  0  0  0  0  0  0  0  0  0
    6.7060  -11.5606   26.7181 C   0  0  0  0  0  0  0  0  0  0  0  0
    5.5864  -12.3569   26.7029 C   0  0  0  0  0  0  0  0  0  0  0  0
    5.6725  -13.7033   26.5567 C   0  0  0  0  0  0  0  0  0  0  0  0
    7.5340  -16.3096   23.9156 C   0  0  0  0  0  0  0  0  0  0  0  0
    8.3139  -17.2917   23.8728 O   0  0  0  0  0  0  0  0  0  0  0  0
    9.5525  -14.5898   17.9203 N   0  0  0  0  0  0  0  0  0  0  0  0
    8.4473  -14.0380   17.2264 C   0  0  0  0  0  0  0  0  0  0  0  0
    8.2488  -14.3562   15.9762 N   0  0  0  0  0  0  0  0  0  0  0  0
    7.5563  -13.1366   17.8785 N   0  0  0  0  0  0  0  0  0  0  0  0
    7.7084  -12.8557   19.2740 C   0  0  0  0  0  0  0  0  0  0  0  0
    7.5778  -14.1210   20.1337 C   0  0  0  0  0  0  0  0  0  0  0  0
    8.7571  -14.0888   21.0657 C   0  0  0  0  0  0  0  0  0  0  0  0
    8.8109  -15.1896   22.0681 C   0  0  2  0  0  0  0  0  0  0  0  0
    7.7407  -15.2372   23.0072 N   0  0  0  0  0  0  0  0  0  0  0  0
   10.1488  -15.2821   22.7399 C   0  0  0  0  0  0  0  0  0  0  0  0
   10.5069  -14.4298   23.6007 O   0  0  0  0  0  0  0  0  0  0  0  0
    7.4179  -13.9784   15.4864 N   0  0  0  0  0  0  0  0  0  0  0  0
   11.0808  -16.3133   22.4560 C   0  0  2  0  0  0  0  0  0  0  0  0
   12.3579  -16.4528   23.1599 C   0  0  0  0  0  0  0  0  0  0  0  0
   12.1956  -17.0935   24.4887 C   0  0  0  0  0  0  0  0  0  0  0  0
   11.7450  -18.5138   24.4947 C   0  0  0  0  0  0  0  0  0  0  0  0
   11.6197  -18.9977   25.9490 C   0  0  0  0  0  0  0  0  0  0  0  0
   10.9741  -20.3749   25.9813 N   0  0  0  0  0  0  0  0  0  0  0  0
   10.9269  -20.9437   27.3032 C   0  0  0  0  0  0  0  0  0  0  0  0
   13.3849  -17.0420   22.2807 O   0  0  0  0  0  0  0  0  0  0  0  0
   14.5611  -17.1553   22.6150 O   0  0  0  0  0  0  0  0  0  0  0  0
  2  1  1  1
  2  3  1  0
  3  4  1  0
  4  5  2  0
  5  6  1  0
  7  6  2  0
  8  7  1  0
  9  4  1  0
  9  8  2  0
 10  2  1  0
 11 10  2  0
 13 15  1  0
 13 12  1  0
 14 13  2  0
 16 17  1  0
 16 15  1  0
 17 18  1  0
 19 18  1  1
 19 21  1  0
 19 20  1  0
 20 10  1  0
 21 23  1  0
 22 21  2  0
 23 24  1  0
 24 25  1  1
 24 30  1  0
 25 26  1  0
 27 26  1  0
 28 27  1  0
 29 28  1  0
 30 31  2  0
 30 32  1  0
M  END
$$$$
