FRK.pdb
     RDKit          3D

 32 32  0  0  1  0  0  0  0  0999 V2000
    6.2320  -17.8950   25.9513 N   0  0  0  0  0  0  0  0  0  0  0  0
    6.5320  -16.5324   25.5990 C   0  0  1  0  0  0  0  0  0  0  0  0
    7.3494  -15.9217   26.7310 C   0  0  0  0  0  0  0  0  0  0  0  0
    7.1947  -14.4531   26.8190 C   0  0  0  0  0  0  0  0  0  0  0  0
    5.9606  -13.8282   26.8977 C   0  0  0  0  0  0  0  0  0  0  0  0
    5.8608  -12.4615   26.9706 C   0  0  0  0  0  0  0  0  0  0  0  0
    6.9910  -11.6394   26.9696 C   0  0  0  0  0  0  0  0  0  0  0  0
    8.2105  -12.2673   26.8921 C   0  0  0  0  0  0  0  0  0  0  0  0
    8.3120  -13.6187   26.8197 C   0  0  0  0  0  0  0  0  0  0  0  0
    7.3037  -16.5036   24.3331 C   0  0  0  0  0  0  0  0  0  0  0  0
    8.0837  -17.4509   24.0710 O   0  0  0  0  0  0  0  0  0  0  0  0
    9.6645  -14.5486   17.6418 N   0  0  0  0  0  0  0  0  0  0  0  0
    8.5439  -13.9424   17.0221 C   0  0  0  0  0  0  0  0  0  0  0  0
    8.4784  -13.8919   15.7194 N   0  0  0  0  0  0  0  0  0  0  0  0
    7.4931  -13.3841   17.8068 N   0  0  0  0  0  0  0  0  0  0  0  0
    7.7214  -13.0408   19.1777 C   0  0  0  0  0  0  0  0  0  0  0  0
    8.3306  -14.2064   19.9696 C   0  0  0  0  0  0  0  0  0  0  0  0
    7.5479  -14.2648   21.2519 C   0  0  0  0  0  0  0  0  0  0  0  0
    7.9001  -15.3871   22.1662 C   0  0  2  0  0  0  0  0  0  0  0  0
    7.1922  -15.4371   23.4014 N   0  0  0  0  0  0  0  0  0  0  0  0
    9.3814  -15.5150   22.3651 C   0  0  0  0  0  0  0  0  0  0  0  0
   10.0177  -14.6889   23.0779 O   0  0  0  0  0  0  0  0  0  0  0  0
    7.6804  -13.4042   15.2740 N   0  0  0  0  0  0  0  0  0  0  0  0
   10.1483  -16.5526   21.7753 C   0  0  2  0  0  0  0  0  0  0  0  0
   11.5688  -16.7611   22.0661 C   0  0  0  0  0  0  0  0  0  0  0  0
   11.8938  -18.1960   22.2616 C   0  0  0  0  0  0  0  0  0  0  0  0
   13.3179  -18.5245   22.5522 C   0  0  0  0  0  0  0  0  0  0  0  0
   13.4735  -20.0511   22.6528 C   0  0  0  0  0  0  0  0  0  0  0  0
   14.9218  -20.4037   22.9569 N   0  0  0  0  0  0  0  0  0  0  0  0
   15.1563  -21.8233   23.0106 C   0  0  0  0  0  0  0  0  0  0  0  0
   12.4180  -16.0323   21.1056 O   0  0  0  0  0  0  0  0  0  0  0  0
   12.1996  -16.0246   19.8972 O   0  0  0  0  0  0  0  0  0  0  0  0
  2  1  1  1
  2  3  1  0
  3  4  1  0
  4  5  2  0
  5  6  1  0
  7  6  2  0
  8  7  1  0
  9  4  1  0
  9  8  2  0
 10  2  1  0
 11 10  2  0
 13 15  1  0
 13 12  1  0
 14 13  2  0
 16 17  1  0
 16 15  1  0
 17 18  1  0
 19 18  1  1
 19 21  1  0
 19 20  1  0
 20 10  1  0
 21 23  1  0
 22 21  2  0
 23 24  1  0
 24 25  1  6
 24 30  1  0
 25 26  1  0
 27 26  1  0
 28 27  1  0
 29 28  1  0
 30 31  2  0
 30 32  1  0
M  END
$$$$
