FRK.pdb
     RDKit          3D

 32 32  0  0  1  0  0  0  0  0999 V2000
    6.2502  -16.2067   25.2257 N   0  0  0  0  0  0  0  0  0  0  0  0
    7.1048  -15.2287   24.6062 C   0  0  1  0  0  0  0  0  0  0  0  0
    7.7320  -14.3844   25.7090 C   0  0  0  0  0  0  0  0  0  0  0  0
    6.9315  -13.1836   26.0340 C   0  0  0  0  0  0  0  0  0  0  0  0
    5.9542  -13.1719   27.0161 C   0  0  0  0  0  0  0  0  0  0  0  0
    5.2286  -12.0378   27.2814 C   0  0  0  0  0  0  0  0  0  0  0  0
    5.4386  -10.8479   26.5792 C   0  0  0  0  0  0  0  0  0  0  0  0
    6.4099  -10.8681   25.6077 C   0  0  0  0  0  0  0  0  0  0  0  0
    7.1289  -11.9883   25.3433 C   0  0  0  0  0  0  0  0  0  0  0  0
    8.1588  -15.9147   23.8204 C   0  0  0  0  0  0  0  0  0  0  0  0
    8.6335  -16.9950   24.2468 O   0  0  0  0  0  0  0  0  0  0  0  0
    7.2714  -13.4713   16.4823 N   0  0  0  0  0  0  0  0  0  0  0  0
    8.4226  -13.9972   17.1190 C   0  0  0  0  0  0  0  0  0  0  0  0
    9.4316  -13.2100   17.3761 N   0  0  0  0  0  0  0  0  0  0  0  0
    8.4903  -15.3758   17.4751 N   0  0  0  0  0  0  0  0  0  0  0  0
    8.3314  -15.7764   18.8402 C   0  0  0  0  0  0  0  0  0  0  0  0
    8.8530  -14.7130   19.8170 C   0  0  0  0  0  0  0  0  0  0  0  0
   10.0090  -15.3614   20.5266 C   0  0  0  0  0  0  0  0  0  0  0  0
    9.6793  -16.0108   21.8263 C   0  0  2  0  0  0  0  0  0  0  0  0
    8.6537  -15.3907   22.5963 N   0  0  0  0  0  0  0  0  0  0  0  0
   10.9024  -16.2924   22.6477 C   0  0  0  0  0  0  0  0  0  0  0  0
   11.5447  -15.3573   23.2032 O   0  0  0  0  0  0  0  0  0  0  0  0
   10.3229  -13.6245   17.7031 N   0  0  0  0  0  0  0  0  0  0  0  0
   11.4071  -17.6029   22.8488 C   0  0  1  0  0  0  0  0  0  0  0  0
   12.6072  -17.8847   23.6401 C   0  0  0  0  0  0  0  0  0  0  0  0
   12.5272  -19.1980   24.3269 C   0  0  0  0  0  0  0  0  0  0  0  0
   11.8988  -19.2077   25.6780 C   0  0  0  0  0  0  0  0  0  0  0  0
   11.8596  -20.6514   26.2062 C   0  0  0  0  0  0  0  0  0  0  0  0
   11.3731  -20.6610   27.6476 N   0  0  0  0  0  0  0  0  0  0  0  0
   11.2563  -21.9881   28.1936 C   0  0  0  0  0  0  0  0  0  0  0  0
   13.8298  -17.6424   22.8517 O   0  0  0  0  0  0  0  0  0  0  0  0
   14.9181  -17.4046   23.3683 O   0  0  0  0  0  0  0  0  0  0  0  0
  2  1  1  1
  2  3  1  0
  3  4  1  0
  4  5  2  0
  5  6  1  0
  7  6  2  0
  8  7  1  0
  9  4  1  0
  9  8  2  0
 10  2  1  0
 11 10  2  0
 13 15  1  0
 13 12  1  0
 14 13  2  0
 16 17  1  0
 16 15  1  0
 17 18  1  0
 19 18  1  6
 19 21  1  0
 19 20  1  0
 20 10  1  0
 21 23  1  0
 22 21  2  0
 23 24  1  0
 24 25  1  1
 24 30  1  0
 25 26  1  0
 27 26  1  0
 28 27  1  0
 29 28  1  0
 30 31  2  0
 30 32  1  0
M  END
$$$$
