FRK.pdb
     RDKit          3D

 32 32  0  0  1  0  0  0  0  0999 V2000
    6.3006  -15.9894   25.9308 N   0  0  0  0  0  0  0  0  0  0  0  0
    7.1042  -15.3543   24.9200 C   0  0  1  0  0  0  0  0  0  0  0  0
    7.9681  -14.2982   25.5991 C   0  0  0  0  0  0  0  0  0  0  0  0
    7.1835  -13.1369   26.0726 C   0  0  0  0  0  0  0  0  0  0  0  0
    6.2572  -12.4788   25.2798 C   0  0  0  0  0  0  0  0  0  0  0  0
    5.5551  -11.4001   25.7557 C   0  0  0  0  0  0  0  0  0  0  0  0
    5.7386  -10.9165   27.0540 C   0  0  0  0  0  0  0  0  0  0  0  0
    6.6583  -11.5753   27.8335 C   0  0  0  0  0  0  0  0  0  0  0  0
    7.3541  -12.6423   27.3653 C   0  0  0  0  0  0  0  0  0  0  0  0
    7.9578  -16.3669   24.2533 C   0  0  0  0  0  0  0  0  0  0  0  0
    8.6517  -17.1403   24.9568 O   0  0  0  0  0  0  0  0  0  0  0  0
    9.7969  -13.5909   18.4239 N   0  0  0  0  0  0  0  0  0  0  0  0
    8.5326  -13.7497   17.8045 C   0  0  0  0  0  0  0  0  0  0  0  0
    7.9733  -12.7293   17.2132 N   0  0  0  0  0  0  0  0  0  0  0  0
    7.8657  -15.0093   17.8265 N   0  0  0  0  0  0  0  0  0  0  0  0
    8.4295  -16.1112   18.5456 C   0  0  0  0  0  0  0  0  0  0  0  0
    8.4229  -15.8729   20.0623 C   0  0  0  0  0  0  0  0  0  0  0  0
    9.0099  -17.1209   20.6609 C   0  0  0  0  0  0  0  0  0  0  0  0
    9.0822  -17.1443   22.1487 C   0  0  2  0  0  0  0  0  0  0  0  0
    8.0196  -16.4943   22.8399 N   0  0  0  0  0  0  0  0  0  0  0  0
   10.4260  -16.7160   22.6595 C   0  0  0  0  0  0  0  0  0  0  0  0
   10.6115  -15.5507   23.1101 O   0  0  0  0  0  0  0  0  0  0  0  0
    7.0284  -12.8407   16.8035 N   0  0  0  0  0  0  0  0  0  0  0  0
   11.5539  -17.5765   22.6681 C   0  0  1  0  0  0  0  0  0  0  0  0
   12.4671  -17.6861   23.8082 C   0  0  0  0  0  0  0  0  0  0  0  0
   11.9275  -18.5683   24.8727 C   0  0  0  0  0  0  0  0  0  0  0  0
   12.8233  -18.8409   26.0319 C   0  0  0  0  0  0  0  0  0  0  0  0
   12.1301  -19.8295   26.9842 C   0  0  0  0  0  0  0  0  0  0  0  0
   13.0521  -20.1572   28.1491 N   0  0  0  0  0  0  0  0  0  0  0  0
   12.4475  -21.0371   29.1153 C   0  0  0  0  0  0  0  0  0  0  0  0
   13.8404  -17.9822   23.3595 O   0  0  0  0  0  0  0  0  0  0  0  0
   14.8215  -17.8443   24.0850 O   0  0  0  0  0  0  0  0  0  0  0  0
  2  1  1  1
  2  3  1  0
  3  4  1  0
  4  5  2  0
  5  6  1  0
  7  6  2  0
  8  7  1  0
  9  4  1  0
  9  8  2  0
 10  2  1  0
 11 10  2  0
 13 15  1  0
 13 12  1  0
 14 13  2  0
 16 17  1  0
 16 15  1  0
 17 18  1  0
 19 18  1  6
 19 21  1  0
 19 20  1  0
 20 10  1  0
 21 23  1  0
 22 21  2  0
 23 24  1  0
 24 25  1  1
 24 30  1  0
 25 26  1  0
 27 26  1  0
 28 27  1  0
 29 28  1  0
 30 31  2  0
 30 32  1  0
M  END
$$$$
