FRK.pdb
     RDKit          3D

 32 32  0  0  1  0  0  0  0  0999 V2000
    6.2509  -17.7633   25.8572 N   0  0  0  0  0  0  0  0  0  0  0  0
    6.4854  -16.4064   25.4396 C   0  0  1  0  0  0  0  0  0  0  0  0
    7.1696  -15.6716   26.5861 C   0  0  0  0  0  0  0  0  0  0  0  0
    6.8635  -14.2244   26.6003 C   0  0  0  0  0  0  0  0  0  0  0  0
    5.5802  -13.7266   26.7583 C   0  0  0  0  0  0  0  0  0  0  0  0
    5.3382  -12.3758   26.7583 C   0  0  0  0  0  0  0  0  0  0  0  0
    6.3671  -11.4433   26.6007 C   0  0  0  0  0  0  0  0  0  0  0  0
    7.6364  -11.9455   26.4454 C   0  0  0  0  0  0  0  0  0  0  0  0
    7.8785  -13.2808   26.4448 C   0  0  0  0  0  0  0  0  0  0  0  0
    7.3493  -16.3984   24.2345 C   0  0  0  0  0  0  0  0  0  0  0  0
    8.2733  -17.2420   24.1391 O   0  0  0  0  0  0  0  0  0  0  0  0
    7.8641  -13.8539   15.5246 N   0  0  0  0  0  0  0  0  0  0  0  0
    8.5549  -14.0815   16.7405 C   0  0  0  0  0  0  0  0  0  0  0  0
    9.0682  -15.2578   16.9782 N   0  0  0  0  0  0  0  0  0  0  0  0
    8.6889  -13.0414   17.7059 N   0  0  0  0  0  0  0  0  0  0  0  0
    8.0219  -13.1396   18.9687 C   0  0  0  0  0  0  0  0  0  0  0  0
    8.5463  -14.3140   19.8072 C   0  0  0  0  0  0  0  0  0  0  0  0
    7.6934  -14.3274   21.0453 C   0  0  0  0  0  0  0  0  0  0  0  0
    7.9773  -15.4300   22.0061 C   0  0  2  0  0  0  0  0  0  0  0  0
    7.1687  -15.4657   23.1784 N   0  0  0  0  0  0  0  0  0  0  0  0
    9.4377  -15.5395   22.3306 C   0  0  0  0  0  0  0  0  0  0  0  0
    9.9873  -14.7425   23.1420 O   0  0  0  0  0  0  0  0  0  0  0  0
    9.5706  -15.4170   17.8700 N   0  0  0  0  0  0  0  0  0  0  0  0
   10.2797  -16.5266   21.7568 C   0  0  2  0  0  0  0  0  0  0  0  0
   11.6882  -16.6883   22.1251 C   0  0  0  0  0  0  0  0  0  0  0  0
   11.9271  -17.9432   22.8806 C   0  0  0  0  0  0  0  0  0  0  0  0
   13.3334  -18.2199   23.2881 C   0  0  0  0  0  0  0  0  0  0  0  0
   13.3803  -19.5391   24.0770 C   0  0  0  0  0  0  0  0  0  0  0  0
   14.8008  -19.8074   24.5507 N   0  0  0  0  0  0  0  0  0  0  0  0
   14.8999  -20.9590   25.4094 C   0  0  0  0  0  0  0  0  0  0  0  0
   12.5684  -16.4564   20.9647 O   0  0  0  0  0  0  0  0  0  0  0  0
   12.1635  -16.4882   19.8059 O   0  0  0  0  0  0  0  0  0  0  0  0
  2  1  1  1
  2  3  1  0
  3  4  1  0
  4  5  2  0
  5  6  1  0
  7  6  2  0
  8  7  1  0
  9  4  1  0
  9  8  2  0
 10  2  1  0
 11 10  2  0
 13 15  1  0
 13 12  1  0
 14 13  2  0
 16 17  1  0
 16 15  1  0
 17 18  1  0
 19 18  1  1
 19 21  1  0
 19 20  1  0
 20 10  1  0
 21 23  1  0
 22 21  2  0
 23 24  1  0
 24 25  1  6
 24 30  1  0
 25 26  1  0
 27 26  1  0
 28 27  1  0
 29 28  1  0
 30 31  2  0
 30 32  1  0
M  END
$$$$
