FRK.pdb
     RDKit          3D

 32 32  0  0  1  0  0  0  0  0999 V2000
    8.2745  -15.6346   26.0009 N   0  0  0  0  0  0  0  0  0  0  0  0
    7.0725  -16.2569   25.5124 C   0  0  1  0  0  0  0  0  0  0  0  0
    5.8850  -15.4332   25.9962 C   0  0  0  0  0  0  0  0  0  0  0  0
    6.2741  -14.0770   26.4409 C   0  0  0  0  0  0  0  0  0  0  0  0
    5.8225  -13.5125   27.6229 C   0  0  0  0  0  0  0  0  0  0  0  0
    6.2021  -12.2475   27.9954 C   0  0  0  0  0  0  0  0  0  0  0  0
    7.0569  -11.4727   27.2066 C   0  0  0  0  0  0  0  0  0  0  0  0
    7.5004  -12.0405   26.0367 C   0  0  0  0  0  0  0  0  0  0  0  0
    7.1265  -13.2912   25.6659 C   0  0  0  0  0  0  0  0  0  0  0  0
    7.1003  -16.2990   24.0304 C   0  0  0  0  0  0  0  0  0  0  0  0
    6.7985  -17.3661   23.4435 O   0  0  0  0  0  0  0  0  0  0  0  0
   10.1030  -14.1457   17.4427 N   0  0  0  0  0  0  0  0  0  0  0  0
    8.8928  -13.7988   16.7926 C   0  0  0  0  0  0  0  0  0  0  0  0
    8.7744  -13.9935   15.5074 N   0  0  0  0  0  0  0  0  0  0  0  0
    7.8088  -13.2357   17.5271 N   0  0  0  0  0  0  0  0  0  0  0  0
    7.9463  -12.9728   18.9275 C   0  0  0  0  0  0  0  0  0  0  0  0
    8.4676  -14.1962   19.6948 C   0  0  0  0  0  0  0  0  0  0  0  0
    7.9169  -14.0539   21.0865 C   0  0  0  0  0  0  0  0  0  0  0  0
    8.0493  -15.2582   21.9535 C   0  0  2  0  0  0  0  0  0  0  0  0
    7.4582  -15.1697   23.2466 N   0  0  0  0  0  0  0  0  0  0  0  0
    9.4613  -15.7604   22.0173 C   0  0  0  0  0  0  0  0  0  0  0  0
   10.1974  -15.5126   23.0134 O   0  0  0  0  0  0  0  0  0  0  0  0
    7.8458  -13.8752   15.0638 N   0  0  0  0  0  0  0  0  0  0  0  0
   10.0496  -16.5309   20.9815 C   0  0  2  0  0  0  0  0  0  0  0  0
   11.2670  -17.3241   21.1680 C   0  0  0  0  0  0  0  0  0  0  0  0
   11.1652  -18.2369   22.3338 C   0  0  0  0  0  0  0  0  0  0  0  0
   12.2828  -19.2038   22.5244 C   0  0  0  0  0  0  0  0  0  0  0  0
   12.0111  -20.0486   23.7804 C   0  0  0  0  0  0  0  0  0  0  0  0
   13.1107  -21.0855   23.9532 N   0  0  0  0  0  0  0  0  0  0  0  0
   12.9299  -21.9086   25.1207 C   0  0  0  0  0  0  0  0  0  0  0  0
   11.6948  -17.9428   19.8996 O   0  0  0  0  0  0  0  0  0  0  0  0
   10.8999  -18.3385   19.0512 O   0  0  0  0  0  0  0  0  0  0  0  0
  2  1  1  6
  2  3  1  0
  3  4  1  0
  4  5  2  0
  5  6  1  0
  7  6  2  0
  8  7  1  0
  9  4  1  0
  9  8  2  0
 10  2  1  0
 11 10  2  0
 13 15  1  0
 13 12  1  0
 14 13  2  0
 16 17  1  0
 16 15  1  0
 17 18  1  0
 19 18  1  1
 19 21  1  0
 19 20  1  0
 20 10  1  0
 21 23  1  0
 22 21  2  0
 23 24  1  0
 24 25  1  1
 24 30  1  0
 25 26  1  0
 27 26  1  0
 28 27  1  0
 29 28  1  0
 30 31  2  0
 30 32  1  0
M  END
$$$$
