FRK.pdb
     RDKit          3D

 32 32  0  0  1  0  0  0  0  0999 V2000
    6.1327  -17.8726   26.7266 N   0  0  0  0  0  0  0  0  0  0  0  0
    6.4205  -16.6017   26.1161 C   0  0  1  0  0  0  0  0  0  0  0  0
    6.9136  -15.6564   27.2050 C   0  0  0  0  0  0  0  0  0  0  0  0
    6.8487  -14.2351   26.7997 C   0  0  0  0  0  0  0  0  0  0  0  0
    5.6544  -13.5618   26.5999 C   0  0  0  0  0  0  0  0  0  0  0  0
    5.6383  -12.2442   26.2167 C   0  0  0  0  0  0  0  0  0  0  0  0
    6.8172  -11.5224   26.0114 C   0  0  0  0  0  0  0  0  0  0  0  0
    7.9968  -12.1975   26.2125 C   0  0  0  0  0  0  0  0  0  0  0  0
    8.0156  -13.5006   26.5912 C   0  0  0  0  0  0  0  0  0  0  0  0
    7.4611  -16.7740   25.0739 C   0  0  0  0  0  0  0  0  0  0  0  0
    8.4472  -17.5130   25.3109 O   0  0  0  0  0  0  0  0  0  0  0  0
    7.2674  -13.7468   16.9929 N   0  0  0  0  0  0  0  0  0  0  0  0
    7.9234  -13.0299   18.0239 C   0  0  0  0  0  0  0  0  0  0  0  0
    7.9854  -11.7276   17.9627 N   0  0  0  0  0  0  0  0  0  0  0  0
    8.5193  -13.7172   19.1213 N   0  0  0  0  0  0  0  0  0  0  0  0
    8.4926  -15.1474   19.1765 C   0  0  0  0  0  0  0  0  0  0  0  0
    9.1503  -15.6868   20.4547 C   0  0  0  0  0  0  0  0  0  0  0  0
    8.1260  -15.4932   21.5380 C   0  0  0  0  0  0  0  0  0  0  0  0
    8.3851  -16.2351   22.8037 C   0  0  2  0  0  0  0  0  0  0  0  0
    7.3826  -16.1297   23.8104 N   0  0  0  0  0  0  0  0  0  0  0  0
    9.7562  -15.9667   23.3498 C   0  0  0  0  0  0  0  0  0  0  0  0
   10.0677  -14.8284   23.8000 O   0  0  0  0  0  0  0  0  0  0  0  0
    8.5136  -11.2140   18.6910 N   0  0  0  0  0  0  0  0  0  0  0  0
   10.7722  -16.9559   23.3937 C   0  0  2  0  0  0  0  0  0  0  0  0
   12.1175  -16.6975   23.9124 C   0  0  0  0  0  0  0  0  0  0  0  0
   12.4247  -17.5265   25.1046 C   0  0  0  0  0  0  0  0  0  0  0  0
   12.3453  -19.0041   24.9289 C   0  0  0  0  0  0  0  0  0  0  0  0
   12.8104  -19.6921   26.2232 C   0  0  0  0  0  0  0  0  0  0  0  0
   12.5849  -21.1931   26.1199 N   0  0  0  0  0  0  0  0  0  0  0  0
   13.0183  -21.9094   27.2913 C   0  0  0  0  0  0  0  0  0  0  0  0
   13.1175  -16.7301   22.8290 O   0  0  0  0  0  0  0  0  0  0  0  0
   14.3000  -16.4506   23.0066 O   0  0  0  0  0  0  0  0  0  0  0  0
  2  1  1  1
  2  3  1  0
  3  4  1  0
  4  5  2  0
  5  6  1  0
  7  6  2  0
  8  7  1  0
  9  4  1  0
  9  8  2  0
 10  2  1  0
 11 10  2  0
 13 15  1  0
 13 12  1  0
 14 13  2  0
 16 17  1  0
 16 15  1  0
 17 18  1  0
 19 18  1  6
 19 21  1  0
 19 20  1  0
 20 10  1  0
 21 23  1  0
 22 21  2  0
 23 24  1  0
 24 25  1  6
 24 30  1  0
 25 26  1  0
 27 26  1  0
 28 27  1  0
 29 28  1  0
 30 31  2  0
 30 32  1  0
M  END
$$$$
