FRK.pdb
     RDKit          3D

 32 32  0  0  1  0  0  0  0  0999 V2000
    5.6115  -17.8079   25.1201 N   0  0  0  0  0  0  0  0  0  0  0  0
    6.0697  -16.4502   24.9890 C   0  0  1  0  0  0  0  0  0  0  0  0
    6.5029  -15.9636   26.3667 C   0  0  0  0  0  0  0  0  0  0  0  0
    6.7246  -14.5017   26.4123 C   0  0  0  0  0  0  0  0  0  0  0  0
    7.9866  -13.9313   26.4548 C   0  0  0  0  0  0  0  0  0  0  0  0
    8.1484  -12.5695   26.5037 C   0  0  0  0  0  0  0  0  0  0  0  0
    7.0560  -11.6979   26.5125 C   0  0  0  0  0  0  0  0  0  0  0  0
    5.8085  -12.2718   26.4694 C   0  0  0  0  0  0  0  0  0  0  0  0
    5.6457  -13.6182   26.4212 C   0  0  0  0  0  0  0  0  0  0  0  0
    7.2101  -16.3986   24.0427 C   0  0  0  0  0  0  0  0  0  0  0  0
    8.0781  -17.3039   24.0815 O   0  0  0  0  0  0  0  0  0  0  0  0
    9.3161  -14.8779   17.3035 N   0  0  0  0  0  0  0  0  0  0  0  0
    8.3978  -13.8633   16.9366 C   0  0  0  0  0  0  0  0  0  0  0  0
    8.0964  -13.6931   15.6781 N   0  0  0  0  0  0  0  0  0  0  0  0
    7.8063  -13.0257   17.9267 N   0  0  0  0  0  0  0  0  0  0  0  0
    7.2361  -13.5983   19.1083 C   0  0  0  0  0  0  0  0  0  0  0  0
    8.1617  -14.6441   19.7461 C   0  0  0  0  0  0  0  0  0  0  0  0
    8.3671  -14.1795   21.1610 C   0  0  0  0  0  0  0  0  0  0  0  0
    8.4527  -15.2598   22.1834 C   0  0  2  0  0  0  0  0  0  0  0  0
    7.3572  -15.3562   23.0889 N   0  0  0  0  0  0  0  0  0  0  0  0
    9.7712  -15.2627   22.8986 C   0  0  0  0  0  0  0  0  0  0  0  0
    9.9335  -14.6139   23.9702 O   0  0  0  0  0  0  0  0  0  0  0  0
    7.4299  -12.9443   15.4169 N   0  0  0  0  0  0  0  0  0  0  0  0
   10.8997  -15.9804   22.4253 C   0  0  2  0  0  0  0  0  0  0  0  0
   12.0858  -16.2366   23.2458 C   0  0  0  0  0  0  0  0  0  0  0  0
   11.8795  -17.3643   24.1884 C   0  0  0  0  0  0  0  0  0  0  0  0
   13.0524  -17.7672   25.0146 C   0  0  0  0  0  0  0  0  0  0  0  0
   12.6686  -18.9800   25.8787 C   0  0  0  0  0  0  0  0  0  0  0  0
   13.8512  -19.3944   26.7413 N   0  0  0  0  0  0  0  0  0  0  0  0
   13.5680  -20.5337   27.5750 C   0  0  0  0  0  0  0  0  0  0  0  0
   13.3005  -16.3065   22.4124 O   0  0  0  0  0  0  0  0  0  0  0  0
   14.2691  -15.5717   22.5855 O   0  0  0  0  0  0  0  0  0  0  0  0
  2  1  1  1
  2  3  1  0
  3  4  1  0
  4  5  2  0
  5  6  1  0
  7  6  2  0
  8  7  1  0
  9  4  1  0
  9  8  2  0
 10  2  1  0
 11 10  2  0
 13 15  1  0
 13 12  1  0
 14 13  2  0
 16 17  1  0
 16 15  1  0
 17 18  1  0
 19 18  1  1
 19 21  1  0
 19 20  1  0
 20 10  1  0
 21 23  1  0
 22 21  2  0
 23 24  1  0
 24 25  1  1
 24 30  1  0
 25 26  1  0
 27 26  1  0
 28 27  1  0
 29 28  1  0
 30 31  2  0
 30 32  1  0
M  END
$$$$
