FRK.pdb
     RDKit          3D

 32 32  0  0  1  0  0  0  0  0999 V2000
    7.3692  -16.7545   26.7984 N   0  0  0  0  0  0  0  0  0  0  0  0
    7.1295  -15.7832   25.7642 C   0  0  1  0  0  0  0  0  0  0  0  0
    7.8466  -14.4954   26.1514 C   0  0  0  0  0  0  0  0  0  0  0  0
    6.9268  -13.4694   26.6896 C   0  0  0  0  0  0  0  0  0  0  0  0
    7.1916  -12.7503   27.8440 C   0  0  0  0  0  0  0  0  0  0  0  0
    6.3076  -11.8117   28.3137 C   0  0  0  0  0  0  0  0  0  0  0  0
    5.1060  -11.5370   27.6550 C   0  0  0  0  0  0  0  0  0  0  0  0
    4.8518  -12.2540   26.5109 C   0  0  0  0  0  0  0  0  0  0  0  0
    5.7242  -13.1829   26.0444 C   0  0  0  0  0  0  0  0  0  0  0  0
    7.6484  -16.2930   24.4721 C   0  0  0  0  0  0  0  0  0  0  0  0
    8.4107  -17.2897   24.4700 O   0  0  0  0  0  0  0  0  0  0  0  0
    9.8781  -14.0211   17.4219 N   0  0  0  0  0  0  0  0  0  0  0  0
    8.9579  -13.0891   17.9624 C   0  0  0  0  0  0  0  0  0  0  0  0
    9.2899  -11.8292   18.0411 N   0  0  0  0  0  0  0  0  0  0  0  0
    7.6787  -13.5153   18.4247 N   0  0  0  0  0  0  0  0  0  0  0  0
    7.3332  -14.9044   18.4107 C   0  0  0  0  0  0  0  0  0  0  0  0
    8.0855  -15.6960   19.4900 C   0  0  0  0  0  0  0  0  0  0  0  0
    7.4421  -15.3010   20.7901 C   0  0  0  0  0  0  0  0  0  0  0  0
    7.9588  -16.0021   21.9989 C   0  0  2  0  0  0  0  0  0  0  0  0
    7.3128  -15.6912   23.2299 N   0  0  0  0  0  0  0  0  0  0  0  0
    9.4519  -15.9134   22.1129 C   0  0  0  0  0  0  0  0  0  0  0  0
   10.0039  -14.9516   22.7177 O   0  0  0  0  0  0  0  0  0  0  0  0
    8.6014  -11.1494   18.4112 N   0  0  0  0  0  0  0  0  0  0  0  0
   10.3233  -16.8858   21.5582 C   0  0  2  0  0  0  0  0  0  0  0  0
   11.7460  -16.9702   21.8965 C   0  0  0  0  0  0  0  0  0  0  0  0
   12.1069  -18.2927   22.4651 C   0  0  0  0  0  0  0  0  0  0  0  0
   13.5521  -18.5291   22.7408 C   0  0  0  0  0  0  0  0  0  0  0  0
   13.7356  -19.9556   23.2852 C   0  0  0  0  0  0  0  0  0  0  0  0
   15.2062  -20.2110   23.5793 N   0  0  0  0  0  0  0  0  0  0  0  0
   15.4672  -21.5578   24.0165 C   0  0  0  0  0  0  0  0  0  0  0  0
   12.5845  -16.4978   20.7790 O   0  0  0  0  0  0  0  0  0  0  0  0
   12.3335  -16.7541   19.6046 O   0  0  0  0  0  0  0  0  0  0  0  0
  2  1  1  1
  2  3  1  0
  3  4  1  0
  4  5  2  0
  5  6  1  0
  7  6  2  0
  8  7  1  0
  9  4  1  0
  9  8  2  0
 10  2  1  0
 11 10  2  0
 13 15  1  0
 13 12  1  0
 14 13  2  0
 16 17  1  0
 16 15  1  0
 17 18  1  0
 19 18  1  6
 19 21  1  0
 19 20  1  0
 20 10  1  0
 21 23  1  0
 22 21  2  0
 23 24  1  0
 24 25  1  6
 24 30  1  0
 25 26  1  0
 27 26  1  0
 28 27  1  0
 29 28  1  0
 30 31  2  0
 30 32  1  0
M  END
$$$$
