FRK.pdb
     RDKit          3D

 32 32  0  0  1  0  0  0  0  0999 V2000
    6.4871  -18.2076   26.8126 N   0  0  0  0  0  0  0  0  0  0  0  0
    6.6225  -16.8518   26.3499 C   0  0  1  0  0  0  0  0  0  0  0  0
    7.3209  -16.0488   27.4408 C   0  0  0  0  0  0  0  0  0  0  0  0
    7.3159  -14.5943   27.1710 C   0  0  0  0  0  0  0  0  0  0  0  0
    6.1781  -13.8111   27.2794 C   0  0  0  0  0  0  0  0  0  0  0  0
    6.2150  -12.4654   27.0128 C   0  0  0  0  0  0  0  0  0  0  0  0
    7.3936  -11.8241   26.6223 C   0  0  0  0  0  0  0  0  0  0  0  0
    8.5171  -12.6079   26.5180 C   0  0  0  0  0  0  0  0  0  0  0  0
    8.4833  -13.9389   26.7809 C   0  0  0  0  0  0  0  0  0  0  0  0
    7.4226  -16.8290   25.1017 C   0  0  0  0  0  0  0  0  0  0  0  0
    8.4024  -17.6048   24.9894 O   0  0  0  0  0  0  0  0  0  0  0  0
    9.3700  -13.7851   17.9116 N   0  0  0  0  0  0  0  0  0  0  0  0
    8.4861  -12.7928   18.4029 C   0  0  0  0  0  0  0  0  0  0  0  0
    8.7649  -11.5319   18.2125 N   0  0  0  0  0  0  0  0  0  0  0  0
    7.3013  -13.1586   19.1059 N   0  0  0  0  0  0  0  0  0  0  0  0
    7.0209  -14.5356   19.3786 C   0  0  0  0  0  0  0  0  0  0  0  0
    8.0001  -15.1316   20.3999 C   0  0  0  0  0  0  0  0  0  0  0  0
    7.2821  -15.0679   21.7193 C   0  0  0  0  0  0  0  0  0  0  0  0
    7.8405  -15.9350   22.7944 C   0  0  2  0  0  0  0  0  0  0  0  0
    7.1193  -15.9564   24.0226 N   0  0  0  0  0  0  0  0  0  0  0  0
    9.3062  -15.7001   23.0106 C   0  0  0  0  0  0  0  0  0  0  0  0
    9.7170  -14.7030   23.6684 O   0  0  0  0  0  0  0  0  0  0  0  0
    8.1262  -10.8118   18.5955 N   0  0  0  0  0  0  0  0  0  0  0  0
   10.3063  -16.5663   22.4987 C   0  0  2  0  0  0  0  0  0  0  0  0
   11.7302  -16.4137   22.8068 C   0  0  0  0  0  0  0  0  0  0  0  0
   12.2660  -17.5754   23.5592 C   0  0  0  0  0  0  0  0  0  0  0  0
   13.7226  -17.5536   23.8728 C   0  0  0  0  0  0  0  0  0  0  0  0
   14.0837  -18.8100   24.6826 C   0  0  0  0  0  0  0  0  0  0  0  0
   15.5541  -18.7695   25.0706 N   0  0  0  0  0  0  0  0  0  0  0  0
   15.9766  -19.9376   25.7987 C   0  0  0  0  0  0  0  0  0  0  0  0
   12.4911  -16.0150   21.6080 O   0  0  0  0  0  0  0  0  0  0  0  0
   12.1921  -16.3866   20.4764 O   0  0  0  0  0  0  0  0  0  0  0  0
  2  1  1  1
  2  3  1  0
  3  4  1  0
  4  5  2  0
  5  6  1  0
  7  6  2  0
  8  7  1  0
  9  4  1  0
  9  8  2  0
 10  2  1  0
 11 10  2  0
 13 15  1  0
 13 12  1  0
 14 13  2  0
 16 17  1  0
 16 15  1  0
 17 18  1  0
 19 18  1  6
 19 21  1  0
 19 20  1  0
 20 10  1  0
 21 23  1  0
 22 21  2  0
 23 24  1  0
 24 25  1  6
 24 30  1  0
 25 26  1  0
 27 26  1  0
 28 27  1  0
 29 28  1  0
 30 31  2  0
 30 32  1  0
M  END
$$$$
