FRK.pdb
     RDKit          3D

 32 32  0  0  1  0  0  0  0  0999 V2000
    5.7237  -17.7808   24.0301 N   0  0  0  0  0  0  0  0  0  0  0  0
    6.5988  -16.6657   24.2781 C   0  0  1  0  0  0  0  0  0  0  0  0
    6.2699  -16.1056   25.6568 C   0  0  0  0  0  0  0  0  0  0  0  0
    6.9698  -14.8330   25.9380 C   0  0  0  0  0  0  0  0  0  0  0  0
    6.5313  -13.6093   25.4585 C   0  0  0  0  0  0  0  0  0  0  0  0
    7.2146  -12.4522   25.7367 C   0  0  0  0  0  0  0  0  0  0  0  0
    8.3773  -12.4517   26.5120 C   0  0  0  0  0  0  0  0  0  0  0  0
    8.8046  -13.6692   26.9840 C   0  0  0  0  0  0  0  0  0  0  0  0
    8.1309  -14.8150   26.7102 C   0  0  0  0  0  0  0  0  0  0  0  0
    8.0097  -17.1194   24.2298 C   0  0  0  0  0  0  0  0  0  0  0  0
    8.3473  -18.1368   24.8821 O   0  0  0  0  0  0  0  0  0  0  0  0
   10.2004  -15.4372   18.3826 N   0  0  0  0  0  0  0  0  0  0  0  0
   10.2630  -16.8320   18.1414 C   0  0  0  0  0  0  0  0  0  0  0  0
    9.4416  -17.3739   17.2839 N   0  0  0  0  0  0  0  0  0  0  0  0
   11.2090  -17.6467   18.8291 N   0  0  0  0  0  0  0  0  0  0  0  0
   11.6405  -17.2939   20.1477 C   0  0  0  0  0  0  0  0  0  0  0  0
   10.6200  -16.4014   20.8682 C   0  0  0  0  0  0  0  0  0  0  0  0
   11.1514  -16.2421   22.2655 C   0  0  0  0  0  0  0  0  0  0  0  0
   10.3433  -16.8916   23.3354 C   0  0  2  0  0  0  0  0  0  0  0  0
    8.9986  -16.4408   23.4686 N   0  0  0  0  0  0  0  0  0  0  0  0
   11.0586  -16.9142   24.6538 C   0  0  0  0  0  0  0  0  0  0  0  0
   11.4918  -15.8503   25.1792 O   0  0  0  0  0  0  0  0  0  0  0  0
    9.5483  -18.3774   17.0496 N   0  0  0  0  0  0  0  0  0  0  0  0
   11.2908  -18.1100   25.3808 C   0  0  2  0  0  0  0  0  0  0  0  0
   12.0186  -18.1445   26.6516 C   0  0  0  0  0  0  0  0  0  0  0  0
   11.5024  -19.1968   27.5620 C   0  0  0  0  0  0  0  0  0  0  0  0
   12.2044  -19.3540   28.8670 C   0  0  0  0  0  0  0  0  0  0  0  0
   11.5984  -20.5463   29.6260 C   0  0  0  0  0  0  0  0  0  0  0  0
   12.2101  -20.6386   31.0158 N   0  0  0  0  0  0  0  0  0  0  0  0
   11.6088  -21.6637   31.8286 C   0  0  0  0  0  0  0  0  0  0  0  0
   13.4761  -18.1441   26.4268 O   0  0  0  0  0  0  0  0  0  0  0  0
   14.2551  -17.4902   27.1149 O   0  0  0  0  0  0  0  0  0  0  0  0
  2  1  1  1
  2  3  1  0
  3  4  1  0
  4  5  2  0
  5  6  1  0
  7  6  2  0
  8  7  1  0
  9  4  1  0
  9  8  2  0
 10  2  1  0
 11 10  2  0
 13 15  1  0
 13 12  1  0
 14 13  2  0
 16 17  1  0
 16 15  1  0
 17 18  1  0
 19 18  1  6
 19 21  1  0
 19 20  1  0
 20 10  1  0
 21 23  1  0
 22 21  2  0
 23 24  1  0
 24 25  1  1
 24 30  1  0
 25 26  1  0
 27 26  1  0
 28 27  1  0
 29 28  1  0
 30 31  2  0
 30 32  1  0
M  END
$$$$
