FRK.pdb
     RDKit          3D

 32 32  0  0  1  0  0  0  0  0999 V2000
    6.0802  -17.9674   25.5942 N   0  0  0  0  0  0  0  0  0  0  0  0
    6.3190  -16.5638   25.3857 C   0  0  1  0  0  0  0  0  0  0  0  0
    7.0157  -16.0148   26.6250 C   0  0  0  0  0  0  0  0  0  0  0  0
    6.9902  -14.5370   26.6868 C   0  0  0  0  0  0  0  0  0  0  0  0
    8.1344  -13.7592   26.6118 C   0  0  0  0  0  0  0  0  0  0  0  0
    8.0675  -12.3903   26.6805 C   0  0  0  0  0  0  0  0  0  0  0  0
    6.8508  -11.7188   26.8279 C   0  0  0  0  0  0  0  0  0  0  0  0
    5.7212  -12.4976   26.9006 C   0  0  0  0  0  0  0  0  0  0  0  0
    5.7846  -13.8515   26.8331 C   0  0  0  0  0  0  0  0  0  0  0  0
    7.1741  -16.3765   24.1889 C   0  0  0  0  0  0  0  0  0  0  0  0
    8.1681  -17.1245   24.0246 O   0  0  0  0  0  0  0  0  0  0  0  0
    7.5673  -12.8103   16.7729 N   0  0  0  0  0  0  0  0  0  0  0  0
    8.1809  -14.0855   16.7049 C   0  0  0  0  0  0  0  0  0  0  0  0
    8.3285  -14.6672   15.5457 N   0  0  0  0  0  0  0  0  0  0  0  0
    8.6320  -14.7390   17.8885 N   0  0  0  0  0  0  0  0  0  0  0  0
    7.8219  -14.7329   19.0688 C   0  0  0  0  0  0  0  0  0  0  0  0
    8.2928  -13.6829   20.0851 C   0  0  0  0  0  0  0  0  0  0  0  0
    7.4377  -13.9000   21.3025 C   0  0  0  0  0  0  0  0  0  0  0  0
    7.7349  -15.1346   22.0815 C   0  0  2  0  0  0  0  0  0  0  0  0
    6.9083  -15.3758   23.2164 N   0  0  0  0  0  0  0  0  0  0  0  0
    9.1921  -15.2600   22.4144 C   0  0  0  0  0  0  0  0  0  0  0  0
    9.7539  -14.4470   23.2011 O   0  0  0  0  0  0  0  0  0  0  0  0
    8.7919  -15.5928   15.5024 N   0  0  0  0  0  0  0  0  0  0  0  0
   10.0175  -16.2806   21.8760 C   0  0  2  0  0  0  0  0  0  0  0  0
   11.4222  -16.4548   22.2531 C   0  0  0  0  0  0  0  0  0  0  0  0
   11.6649  -17.7617   22.9133 C   0  0  0  0  0  0  0  0  0  0  0  0
   13.0831  -18.1027   23.2181 C   0  0  0  0  0  0  0  0  0  0  0  0
   13.1432  -19.5123   23.8298 C   0  0  0  0  0  0  0  0  0  0  0  0
   14.5889  -19.8903   24.1151 N   0  0  0  0  0  0  0  0  0  0  0  0
   14.7275  -21.2168   24.6577 C   0  0  0  0  0  0  0  0  0  0  0  0
   12.3169  -16.1242   21.1283 O   0  0  0  0  0  0  0  0  0  0  0  0
   13.2133  -15.2894   21.2146 O   0  0  0  0  0  0  0  0  0  0  0  0
  2  1  1  1
  2  3  1  0
  3  4  1  0
  4  5  2  0
  5  6  1  0
  7  6  2  0
  8  7  1  0
  9  4  1  0
  9  8  2  0
 10  2  1  0
 11 10  2  0
 13 15  1  0
 13 12  1  0
 14 13  2  0
 16 17  1  0
 16 15  1  0
 17 18  1  0
 19 18  1  1
 19 21  1  0
 19 20  1  0
 20 10  1  0
 21 23  1  0
 22 21  2  0
 23 24  1  0
 24 25  1  1
 24 30  1  0
 25 26  1  0
 27 26  1  0
 28 27  1  0
 29 28  1  0
 30 31  2  0
 30 32  1  0
M  END
$$$$
