KTL.pdb
     RDKit          3D

 25 24  0  0  1  0  0  0  0  0999 V2000
   22.1533  -20.6730  -14.4072 N   0  0  0  0  0  0  0  0  0  0  0  0
   22.2399  -19.7640  -13.3181 C   0  0  1  0  0  0  0  0  0  0  0  0
   20.9487  -19.2169  -12.7982 C   0  0  0  0  0  0  0  0  0  0  0  0
   19.8708  -19.2052  -13.8181 C   0  0  0  0  0  0  0  0  0  0  0  0
   19.6046  -17.8578  -14.3853 C   0  0  0  0  0  0  0  0  0  0  0  0
   18.5331  -18.0590  -15.4713 C   0  0  0  0  0  0  0  0  0  0  0  0
   18.3380  -16.7955  -16.1218 N   0  0  0  0  0  0  0  0  0  0  0  0
   22.8731  -20.4917  -12.1603 C   0  0  0  0  0  0  0  0  0  0  0  0
   22.1935  -21.3246  -11.5185 O   0  0  0  0  0  0  0  0  0  0  0  0
   24.8139  -22.9905  -12.5565 C   0  0  0  0  0  0  0  0  0  0  0  0
   25.7686  -22.0672  -11.8238 C   0  0  1  0  0  0  0  0  0  0  0  0
   26.4516  -21.3317  -12.7820 O   0  0  0  0  0  0  0  0  0  0  0  0
   24.9474  -21.0947  -10.9824 C   0  0  2  0  0  0  0  0  0  0  0  0
   24.2215  -20.1826  -11.8659 N   0  0  0  0  0  0  0  0  0  0  0  0
   25.9056  -20.2791  -10.1725 C   0  0  0  0  0  0  0  0  0  0  0  0
   26.1569  -19.0690  -10.4918 O   0  0  0  0  0  0  0  0  0  0  0  0
   27.9711  -20.4427   -4.7473 C   0  0  0  0  0  0  0  0  0  0  0  0
   27.6208  -19.6905   -6.0801 C   0  0  1  0  0  0  0  0  0  0  0  0
   28.3350  -18.3879   -5.9564 C   0  0  0  0  0  0  0  0  0  0  0  0
   27.9946  -20.5904   -7.1814 C   0  0  0  0  0  0  0  0  0  0  0  0
   27.8747  -20.1889   -8.5941 C   0  0  2  0  0  0  0  0  0  0  0  0
   26.5725  -20.7868   -9.0326 N   0  0  0  0  0  0  0  0  0  0  0  0
   28.9337  -20.6779   -9.4780 C   0  0  0  0  0  0  0  0  0  0  0  0
   28.8897  -21.7851  -10.0095 O   0  0  0  0  0  0  0  0  0  0  0  0
   30.0595  -19.8777   -9.7522 O   0  0  0  0  0  0  0  0  0  0  0  0
  2  1  1  6
  2  3  1  0
  3  4  1  0
  5  6  1  0
  5  4  1  0
  6  7  1  0
  8  2  1  0
  9  8  2  0
 11 10  1  6
 11 12  1  0
 11 13  1  0
 13 14  1  6
 14  8  1  0
 15 13  1  0
 15 22  1  0
 16 15  2  0
 18 17  1  1
 18 20  1  0
 19 18  1  0
 21 20  1  1
 21 22  1  0
 21 23  1  0
 23 25  1  0
 24 23  2  0
M  END
$$$$
