KTL.pdb
     RDKit          3D

 25 24  0  0  1  0  0  0  0  0999 V2000
   24.7512  -22.9550  -16.6448 N   0  0  0  0  0  0  0  0  0  0  0  0
   25.8398  -23.1542  -15.7530 C   0  0  1  0  0  0  0  0  0  0  0  0
   27.1870  -23.3470  -16.3734 C   0  0  0  0  0  0  0  0  0  0  0  0
   27.3060  -24.6260  -17.1166 C   0  0  0  0  0  0  0  0  0  0  0  0
   27.4273  -25.8160  -16.2350 C   0  0  0  0  0  0  0  0  0  0  0  0
   27.6115  -27.0217  -17.1733 C   0  0  0  0  0  0  0  0  0  0  0  0
   27.7675  -28.1865  -16.3506 N   0  0  0  0  0  0  0  0  0  0  0  0
   25.9579  -21.9252  -14.8889 C   0  0  0  0  0  0  0  0  0  0  0  0
   26.4264  -20.8748  -15.3836 O   0  0  0  0  0  0  0  0  0  0  0  0
   23.9227  -19.6396  -14.2432 C   0  0  0  0  0  0  0  0  0  0  0  0
   24.1034  -20.1857  -12.8397 C   0  0  1  0  0  0  0  0  0  0  0  0
   23.1633  -21.1906  -12.6614 O   0  0  0  0  0  0  0  0  0  0  0  0
   25.4894  -20.8164  -12.7431 C   0  0  2  0  0  0  0  0  0  0  0  0
   25.5236  -22.0375  -13.5477 N   0  0  0  0  0  0  0  0  0  0  0  0
   25.7093  -21.2050  -11.3148 C   0  0  0  0  0  0  0  0  0  0  0  0
   25.4411  -22.3877  -10.9167 O   0  0  0  0  0  0  0  0  0  0  0  0
   28.6189  -20.6941   -6.5742 C   0  0  0  0  0  0  0  0  0  0  0  0
   27.4315  -19.7020   -6.8398 C   0  0  1  0  0  0  0  0  0  0  0  0
   27.8875  -18.4224   -6.2258 C   0  0  0  0  0  0  0  0  0  0  0  0
   27.1761  -19.7301   -8.2877 C   0  0  0  0  0  0  0  0  0  0  0  0
   26.2579  -20.7061   -8.9009 C   0  0  2  0  0  0  0  0  0  0  0  0
   26.2158  -20.3080  -10.3449 N   0  0  0  0  0  0  0  0  0  0  0  0
   24.8921  -20.6996   -8.3752 C   0  0  0  0  0  0  0  0  0  0  0  0
   24.0286  -19.9313   -8.7930 O   0  0  0  0  0  0  0  0  0  0  0  0
   24.5176  -21.5924   -7.3527 O   0  0  0  0  0  0  0  0  0  0  0  0
  2  1  1  6
  2  3  1  0
  3  4  1  0
  5  6  1  0
  5  4  1  0
  6  7  1  0
  8  2  1  0
  9  8  2  0
 11 10  1  6
 11 12  1  0
 11 13  1  0
 13 14  1  6
 14  8  1  0
 15 13  1  0
 15 22  1  0
 16 15  2  0
 18 17  1  6
 18 20  1  0
 19 18  1  0
 21 20  1  1
 21 22  1  0
 21 23  1  0
 23 25  1  0
 24 23  2  0
M  END
$$$$
