KTL.pdb
     RDKit          3D

 25 24  0  0  1  0  0  0  0  0999 V2000
   12.3758  -21.9899   -6.6972 N   0  0  0  0  0  0  0  0  0  0  0  0
   12.5063  -21.4857   -5.3748 C   0  0  1  0  0  0  0  0  0  0  0  0
   11.3028  -20.8162   -4.7916 C   0  0  0  0  0  0  0  0  0  0  0  0
   11.0181  -19.4959   -5.4063 C   0  0  0  0  0  0  0  0  0  0  0  0
   10.9472  -19.5346   -6.8900 C   0  0  0  0  0  0  0  0  0  0  0  0
   10.5223  -18.1230   -7.3311 C   0  0  0  0  0  0  0  0  0  0  0  0
   10.5391  -18.0976   -8.7653 N   0  0  0  0  0  0  0  0  0  0  0  0
   12.8094  -22.6492   -4.4663 C   0  0  0  0  0  0  0  0  0  0  0  0
   12.0292  -23.6282   -4.4484 O   0  0  0  0  0  0  0  0  0  0  0  0
   15.0316  -25.0576   -4.8110 C   0  0  0  0  0  0  0  0  0  0  0  0
   15.5046  -24.4554   -3.5017 C   0  0  1  0  0  0  0  0  0  0  0  0
   16.4812  -23.5176   -3.8054 O   0  0  0  0  0  0  0  0  0  0  0  0
   14.3322  -23.7211   -2.8581 C   0  0  2  0  0  0  0  0  0  0  0  0
   13.9789  -22.5609   -3.6759 N   0  0  0  0  0  0  0  0  0  0  0  0
   14.7921  -23.2173   -1.5262 C   0  0  0  0  0  0  0  0  0  0  0  0
   14.9266  -21.9650   -1.3186 O   0  0  0  0  0  0  0  0  0  0  0  0
   15.7312  -20.6356    2.3189 C   0  0  0  0  0  0  0  0  0  0  0  0
   14.7594  -21.8447    2.5612 C   0  0  1  0  0  0  0  0  0  0  0  0
   13.5357  -21.2137    3.1329 C   0  0  0  0  0  0  0  0  0  0  0  0
   14.6449  -22.5554    1.2790 C   0  0  0  0  0  0  0  0  0  0  0  0
   15.6648  -23.5171    0.8244 C   0  0  2  0  0  0  0  0  0  0  0  0
   15.0967  -24.0766   -0.4443 N   0  0  0  0  0  0  0  0  0  0  0  0
   15.9370  -24.6243    1.7418 C   0  0  0  0  0  0  0  0  0  0  0  0
   16.6477  -24.4967    2.7363 O   0  0  0  0  0  0  0  0  0  0  0  0
   15.3812  -25.8969    1.5081 O   0  0  0  0  0  0  0  0  0  0  0  0
  2  1  1  6
  2  3  1  0
  3  4  1  0
  5  6  1  0
  5  4  1  0
  6  7  1  0
  8  2  1  0
  9  8  2  0
 11 10  1  6
 11 12  1  0
 11 13  1  0
 13 14  1  6
 14  8  1  0
 15 13  1  0
 15 22  1  0
 16 15  2  0
 18 17  1  6
 18 20  1  0
 19 18  1  0
 21 20  1  1
 21 22  1  0
 21 23  1  0
 23 25  1  0
 24 23  2  0
M  END
$$$$
