KTL.pdb
     RDKit          3D

 25 24  0  0  1  0  0  0  0  0999 V2000
   19.8251  -13.9908  -15.8424 N   0  0  0  0  0  0  0  0  0  0  0  0
   19.4281  -12.8603  -16.6068 C   0  0  1  0  0  0  0  0  0  0  0  0
   17.9764  -12.7623  -16.9530 C   0  0  0  0  0  0  0  0  0  0  0  0
   17.4918  -13.9134  -17.7543 C   0  0  0  0  0  0  0  0  0  0  0  0
   16.5914  -14.8243  -17.0009 C   0  0  0  0  0  0  0  0  0  0  0  0
   16.1475  -15.9052  -18.0022 C   0  0  0  0  0  0  0  0  0  0  0  0
   15.3569  -16.8605  -17.2809 N   0  0  0  0  0  0  0  0  0  0  0  0
   19.7422  -11.6263  -15.8009 C   0  0  0  0  0  0  0  0  0  0  0  0
   19.3929  -11.5773  -14.5996 O   0  0  0  0  0  0  0  0  0  0  0  0
   22.7052  -10.7142  -14.6785 C   0  0  0  0  0  0  0  0  0  0  0  0
   22.3558   -9.4695  -15.4718 C   0  0  1  0  0  0  0  0  0  0  0  0
   22.9423   -9.5969  -16.7229 O   0  0  0  0  0  0  0  0  0  0  0  0
   20.8427   -9.4299  -15.6642 C   0  0  2  0  0  0  0  0  0  0  0  0
   20.4254  -10.5809  -16.4647 N   0  0  0  0  0  0  0  0  0  0  0  0
   20.5192   -8.1926  -16.4411 C   0  0  0  0  0  0  0  0  0  0  0  0
   20.0960   -8.2744  -17.6426 O   0  0  0  0  0  0  0  0  0  0  0  0
   18.2964   -4.8815  -19.0262 C   0  0  0  0  0  0  0  0  0  0  0  0
   17.9538   -4.8208  -17.4953 C   0  0  1  0  0  0  0  0  0  0  0  0
   16.4720   -4.9773  -17.4517 C   0  0  0  0  0  0  0  0  0  0  0  0
   18.7838   -5.8413  -16.8380 C   0  0  0  0  0  0  0  0  0  0  0  0
   20.2446   -5.6967  -16.7088 C   0  0  2  0  0  0  0  0  0  0  0  0
   20.6583   -6.8911  -15.9041 N   0  0  0  0  0  0  0  0  0  0  0  0
   20.6973   -4.4888  -16.0175 C   0  0  0  0  0  0  0  0  0  0  0  0
   20.8112   -4.4324  -14.7952 O   0  0  0  0  0  0  0  0  0  0  0  0
   21.0233   -3.3295  -16.7475 O   0  0  0  0  0  0  0  0  0  0  0  0
  2  1  1  1
  2  3  1  0
  3  4  1  0
  5  6  1  0
  5  4  1  0
  6  7  1  0
  8  2  1  0
  9  8  2  0
 11 10  1  1
 11 12  1  0
 11 13  1  0
 13 14  1  6
 14  8  1  0
 15 13  1  0
 15 22  1  0
 16 15  2  0
 18 17  1  6
 18 20  1  0
 19 18  1  0
 21 20  1  1
 21 22  1  0
 21 23  1  0
 23 25  1  0
 24 23  2  0
M  END
$$$$
