KTL.pdb
     RDKit          3D

 25 24  0  0  1  0  0  0  0  0999 V2000
   21.8338  -24.7493  -16.7996 N   0  0  0  0  0  0  0  0  0  0  0  0
   21.5335  -23.9335  -15.6753 C   0  0  1  0  0  0  0  0  0  0  0  0
   20.2732  -24.2508  -14.9351 C   0  0  0  0  0  0  0  0  0  0  0  0
   19.0625  -23.6873  -15.5822 C   0  0  0  0  0  0  0  0  0  0  0  0
   19.0586  -22.2026  -15.6437 C   0  0  0  0  0  0  0  0  0  0  0  0
   17.7363  -21.8100  -16.3259 C   0  0  0  0  0  0  0  0  0  0  0  0
   17.6906  -20.3774  -16.3824 N   0  0  0  0  0  0  0  0  0  0  0  0
   22.6492  -24.0983  -14.6758 C   0  0  0  0  0  0  0  0  0  0  0  0
   23.2488  -25.1952  -14.6067 O   0  0  0  0  0  0  0  0  0  0  0  0
   25.1939  -23.8473  -15.3170 C   0  0  0  0  0  0  0  0  0  0  0  0
   25.3508  -22.7660  -14.2649 C   0  0  1  0  0  0  0  0  0  0  0  0
   25.1305  -21.5459  -14.8880 O   0  0  0  0  0  0  0  0  0  0  0  0
   24.2643  -22.9582  -13.2110 C   0  0  2  0  0  0  0  0  0  0  0  0
   22.9552  -22.9820  -13.8631 N   0  0  0  0  0  0  0  0  0  0  0  0
   24.3006  -21.7687  -12.3039 C   0  0  0  0  0  0  0  0  0  0  0  0
   23.5613  -20.7543  -12.5361 O   0  0  0  0  0  0  0  0  0  0  0  0
   26.2355  -20.9401   -6.6366 C   0  0  0  0  0  0  0  0  0  0  0  0
   25.6294  -20.0845   -7.8052 C   0  0  1  0  0  0  0  0  0  0  0  0
   26.4928  -18.8700   -7.8472 C   0  0  0  0  0  0  0  0  0  0  0  0
   25.5921  -20.9564   -8.9888 C   0  0  0  0  0  0  0  0  0  0  0  0
   25.1309  -20.4725  -10.3020 C   0  0  2  0  0  0  0  0  0  0  0  0
   25.1344  -21.6990  -11.1630 N   0  0  0  0  0  0  0  0  0  0  0  0
   25.9786  -19.4587  -10.9308 C   0  0  0  0  0  0  0  0  0  0  0  0
   25.6755  -18.2679  -10.9537 O   0  0  0  0  0  0  0  0  0  0  0  0
   27.1935  -19.8244  -11.5418 O   0  0  0  0  0  0  0  0  0  0  0  0
  2  1  1  6
  2  3  1  0
  3  4  1  0
  5  6  1  0
  5  4  1  0
  6  7  1  0
  8  2  1  0
  9  8  2  0
 11 10  1  6
 11 12  1  0
 11 13  1  0
 13 14  1  6
 14  8  1  0
 15 13  1  0
 15 22  1  0
 16 15  2  0
 18 17  1  1
 18 20  1  0
 19 18  1  0
 21 20  1  1
 21 22  1  0
 21 23  1  0
 23 25  1  0
 24 23  2  0
M  END
$$$$
