KTL.pdb
     RDKit          3D

 25 24  0  0  1  0  0  0  0  0999 V2000
   25.8999  -23.5347  -17.2645 N   0  0  0  0  0  0  0  0  0  0  0  0
   25.3353  -23.4010  -15.9671 C   0  0  1  0  0  0  0  0  0  0  0  0
   24.9754  -24.6685  -15.2594 C   0  0  0  0  0  0  0  0  0  0  0  0
   23.6234  -25.1671  -15.6137 C   0  0  0  0  0  0  0  0  0  0  0  0
   23.6322  -26.5170  -16.2348 C   0  0  0  0  0  0  0  0  0  0  0  0
   22.1831  -26.7912  -16.6740 C   0  0  0  0  0  0  0  0  0  0  0  0
   22.1540  -28.0958  -17.2696 N   0  0  0  0  0  0  0  0  0  0  0  0
   26.3523  -22.7162  -15.0908 C   0  0  0  0  0  0  0  0  0  0  0  0
   27.4492  -22.3704  -15.5855 O   0  0  0  0  0  0  0  0  0  0  0  0
   27.1566  -20.1919  -15.0467 C   0  0  0  0  0  0  0  0  0  0  0  0
   26.5664  -20.1330  -13.6506 C   0  0  1  0  0  0  0  0  0  0  0  0
   25.2043  -19.9050  -13.7855 O   0  0  0  0  0  0  0  0  0  0  0  0
   26.7515  -21.4965  -12.9916 C   0  0  2  0  0  0  0  0  0  0  0  0
   25.9969  -22.5026  -13.7387 N   0  0  0  0  0  0  0  0  0  0  0  0
   26.1666  -21.4158  -11.6165 C   0  0  0  0  0  0  0  0  0  0  0  0
   24.9601  -21.7743  -11.4038 O   0  0  0  0  0  0  0  0  0  0  0  0
   26.9229  -20.8278   -6.0729 C   0  0  0  0  0  0  0  0  0  0  0  0
   26.8722  -19.5649   -7.0043 C   0  0  1  0  0  0  0  0  0  0  0  0
   27.8032  -18.5998   -6.3530 C   0  0  0  0  0  0  0  0  0  0  0  0
   27.1874  -20.0315   -8.3626 C   0  0  0  0  0  0  0  0  0  0  0  0
   26.2244  -20.8039   -9.1672 C   0  0  2  0  0  0  0  0  0  0  0  0
   26.8973  -20.9502  -10.4980 N   0  0  0  0  0  0  0  0  0  0  0  0
   24.9224  -20.1673   -9.3702 C   0  0  0  0  0  0  0  0  0  0  0  0
   24.7660  -19.2145  -10.1306 O   0  0  0  0  0  0  0  0  0  0  0  0
   23.7848  -20.6369   -8.6860 O   0  0  0  0  0  0  0  0  0  0  0  0
  2  1  1  6
  2  3  1  0
  3  4  1  0
  5  6  1  0
  5  4  1  0
  6  7  1  0
  8  2  1  0
  9  8  2  0
 11 10  1  6
 11 12  1  0
 11 13  1  0
 13 14  1  6
 14  8  1  0
 15 13  1  0
 15 22  1  0
 16 15  2  0
 18 17  1  1
 18 20  1  0
 19 18  1  0
 21 20  1  1
 21 22  1  0
 21 23  1  0
 23 25  1  0
 24 23  2  0
M  END
$$$$
