KTL.pdb
     RDKit          3D

 25 24  0  0  1  0  0  0  0  0999 V2000
   14.6901  -12.7993  -14.3716 N   0  0  0  0  0  0  0  0  0  0  0  0
   14.2892  -11.4969  -13.9676 C   0  0  1  0  0  0  0  0  0  0  0  0
   12.9101  -11.3653  -13.4041 C   0  0  0  0  0  0  0  0  0  0  0  0
   11.8651  -11.2416  -14.4505 C   0  0  0  0  0  0  0  0  0  0  0  0
   10.8640  -12.3393  -14.4226 C   0  0  0  0  0  0  0  0  0  0  0  0
    9.8815  -12.0463  -15.5702 C   0  0  0  0  0  0  0  0  0  0  0  0
    8.9419  -13.1291  -15.6185 N   0  0  0  0  0  0  0  0  0  0  0  0
   15.2238  -11.0459  -12.8749 C   0  0  0  0  0  0  0  0  0  0  0  0
   15.7199  -11.9001  -12.1056 O   0  0  0  0  0  0  0  0  0  0  0  0
   18.3901   -9.8667  -13.1115 C   0  0  0  0  0  0  0  0  0  0  0  0
   17.7011   -8.6996  -12.4304 C   0  0  1  0  0  0  0  0  0  0  0  0
   17.3274   -7.8029  -13.4213 O   0  0  0  0  0  0  0  0  0  0  0  0
   16.4311   -9.2147  -11.7598 C   0  0  2  0  0  0  0  0  0  0  0  0
   15.4874   -9.6592  -12.7852 N   0  0  0  0  0  0  0  0  0  0  0  0
   15.8069   -8.0652  -11.0330 C   0  0  0  0  0  0  0  0  0  0  0  0
   15.1348   -7.1854  -11.6682 O   0  0  0  0  0  0  0  0  0  0  0  0
   12.3250   -7.6565   -7.0465 C   0  0  0  0  0  0  0  0  0  0  0  0
   13.0763   -7.2823   -8.3734 C   0  0  1  0  0  0  0  0  0  0  0  0
   12.2731   -6.1602   -8.9374 C   0  0  0  0  0  0  0  0  0  0  0  0
   14.4761   -7.0234   -8.0052 C   0  0  0  0  0  0  0  0  0  0  0  0
   15.4813   -6.6054   -8.9983 C   0  0  2  0  0  0  0  0  0  0  0  0
   15.9204   -7.8895   -9.6337 N   0  0  0  0  0  0  0  0  0  0  0  0
   16.6587   -5.9280   -8.4535 C   0  0  0  0  0  0  0  0  0  0  0  0
   17.6721   -6.5362   -8.1168 O   0  0  0  0  0  0  0  0  0  0  0  0
   16.6664   -4.5289   -8.2949 O   0  0  0  0  0  0  0  0  0  0  0  0
  2  1  1  1
  2  3  1  0
  3  4  1  0
  5  6  1  0
  5  4  1  0
  6  7  1  0
  8  2  1  0
  9  8  2  0
 11 10  1  6
 11 12  1  0
 11 13  1  0
 13 14  1  6
 14  8  1  0
 15 13  1  0
 15 22  1  0
 16 15  2  0
 18 17  1  1
 18 20  1  0
 19 18  1  0
 21 20  1  1
 21 22  1  0
 21 23  1  0
 23 25  1  0
 24 23  2  0
M  END
$$$$
