KTL.pdb
     RDKit          3D

 25 24  0  0  1  0  0  0  0  0999 V2000
   17.5198  -14.0648  -17.6132 N   0  0  0  0  0  0  0  0  0  0  0  0
   18.2066  -13.4263  -16.5452 C   0  0  1  0  0  0  0  0  0  0  0  0
   19.4452  -14.1007  -16.0473 C   0  0  0  0  0  0  0  0  0  0  0  0
   19.2814  -15.5662  -15.8815 C   0  0  0  0  0  0  0  0  0  0  0  0
   20.5263  -16.2587  -15.4587 C   0  0  0  0  0  0  0  0  0  0  0  0
   20.1771  -17.7560  -15.3929 C   0  0  0  0  0  0  0  0  0  0  0  0
   21.3505  -18.4519  -14.9495 N   0  0  0  0  0  0  0  0  0  0  0  0
   18.6444  -12.0672  -17.0267 C   0  0  0  0  0  0  0  0  0  0  0  0
   19.3390  -11.9827  -18.0649 O   0  0  0  0  0  0  0  0  0  0  0  0
   16.9065   -9.8787  -18.7241 C   0  0  0  0  0  0  0  0  0  0  0  0
   17.1682   -9.1053  -17.4458 C   0  0  1  0  0  0  0  0  0  0  0  0
   16.1322   -9.3916  -16.5683 O   0  0  0  0  0  0  0  0  0  0  0  0
   18.4639   -9.6214  -16.8273 C   0  0  2  0  0  0  0  0  0  0  0  0
   18.2351  -10.9506  -16.2612 N   0  0  0  0  0  0  0  0  0  0  0  0
   18.8241   -8.7024  -15.7026 C   0  0  0  0  0  0  0  0  0  0  0  0
   18.4998   -8.9900  -14.5020 O   0  0  0  0  0  0  0  0  0  0  0  0
   22.4950   -5.5609  -13.2108 C   0  0  0  0  0  0  0  0  0  0  0  0
   21.6581   -4.8260  -14.3174 C   0  0  1  0  0  0  0  0  0  0  0  0
   22.6364   -3.8961  -14.9502 C   0  0  0  0  0  0  0  0  0  0  0  0
   21.0508   -5.8743  -15.1507 C   0  0  0  0  0  0  0  0  0  0  0  0
   19.8445   -6.6079  -14.7286 C   0  0  2  0  0  0  0  0  0  0  0  0
   19.5285   -7.4909  -15.8973 N   0  0  0  0  0  0  0  0  0  0  0  0
   18.6737   -5.7784  -14.4406 C   0  0  0  0  0  0  0  0  0  0  0  0
   17.9473   -5.3333  -15.3263 O   0  0  0  0  0  0  0  0  0  0  0  0
   18.3366   -5.4581  -13.1115 O   0  0  0  0  0  0  0  0  0  0  0  0
  2  1  1  6
  2  3  1  0
  3  4  1  0
  5  6  1  0
  5  4  1  0
  6  7  1  0
  8  2  1  0
  9  8  2  0
 11 10  1  6
 11 12  1  0
 11 13  1  0
 13 14  1  1
 14  8  1  0
 15 13  1  0
 15 22  1  0
 16 15  2  0
 18 17  1  1
 18 20  1  0
 19 18  1  0
 21 20  1  6
 21 22  1  0
 21 23  1  0
 23 25  1  0
 24 23  2  0
M  END
$$$$
