KTL.pdb
     RDKit          3D

 25 24  0  0  1  0  0  0  0  0999 V2000
   25.4030  -20.9763   -9.3653 N   0  0  0  0  0  0  0  0  0  0  0  0
   25.1987  -20.9465  -10.7715 C   0  0  1  0  0  0  0  0  0  0  0  0
   23.8366  -20.5462  -11.2419 C   0  0  0  0  0  0  0  0  0  0  0  0
   22.7485  -21.3217  -10.5963 C   0  0  0  0  0  0  0  0  0  0  0  0
   21.3955  -20.9899  -11.1132 C   0  0  0  0  0  0  0  0  0  0  0  0
   21.3334  -21.5655  -12.5390 C   0  0  0  0  0  0  0  0  0  0  0  0
   20.0081  -21.3360  -13.0377 N   0  0  0  0  0  0  0  0  0  0  0  0
   26.1486  -19.9315  -11.3533 C   0  0  0  0  0  0  0  0  0  0  0  0
   27.0156  -19.4135  -10.6134 O   0  0  0  0  0  0  0  0  0  0  0  0
   28.4444  -21.1522  -12.1334 C   0  0  0  0  0  0  0  0  0  0  0  0
   27.9181  -20.8916  -13.5320 C   0  0  1  0  0  0  0  0  0  0  0  0
   26.9714  -21.8679  -13.8075 O   0  0  0  0  0  0  0  0  0  0  0  0
   27.2127  -19.5387  -13.5367 C   0  0  2  0  0  0  0  0  0  0  0  0
   25.9986  -19.6221  -12.7251 N   0  0  0  0  0  0  0  0  0  0  0  0
   26.8004  -19.2501  -14.9460 C   0  0  0  0  0  0  0  0  0  0  0  0
   27.6774  -19.1294  -15.8656 O   0  0  0  0  0  0  0  0  0  0  0  0
   24.5516  -16.0018  -18.3776 C   0  0  0  0  0  0  0  0  0  0  0  0
   25.7113  -17.0553  -18.4787 C   0  0  1  0  0  0  0  0  0  0  0  0
   26.8631  -16.2726  -19.0107 C   0  0  0  0  0  0  0  0  0  0  0  0
   25.8386  -17.6693  -17.1486 C   0  0  0  0  0  0  0  0  0  0  0  0
   25.0981  -18.8875  -16.7757 C   0  0  2  0  0  0  0  0  0  0  0  0
   25.4483  -19.0987  -15.3340 N   0  0  0  0  0  0  0  0  0  0  0  0
   25.4555  -20.0934  -17.5240 C   0  0  0  0  0  0  0  0  0  0  0  0
   26.5114  -20.6946  -17.3399 O   0  0  0  0  0  0  0  0  0  0  0  0
   24.5818  -20.6126  -18.4986 O   0  0  0  0  0  0  0  0  0  0  0  0
  2  1  1  1
  2  3  1  0
  3  4  1  0
  5  6  1  0
  5  4  1  0
  6  7  1  0
  8  2  1  0
  9  8  2  0
 11 10  1  1
 11 12  1  0
 11 13  1  0
 13 14  1  1
 14  8  1  0
 15 13  1  0
 15 22  1  0
 16 15  2  0
 18 17  1  1
 18 20  1  0
 19 18  1  0
 21 20  1  6
 21 22  1  0
 21 23  1  0
 23 25  1  0
 24 23  2  0
M  END
$$$$
