KTL.pdb
     RDKit          3D

 25 24  0  0  1  0  0  0  0  0999 V2000
   29.3096  -21.6554  -17.7909 N   0  0  0  0  0  0  0  0  0  0  0  0
   28.2268  -22.2057  -17.0528 C   0  0  1  0  0  0  0  0  0  0  0  0
   28.5141  -23.4442  -16.2652 C   0  0  0  0  0  0  0  0  0  0  0  0
   29.5441  -24.3068  -16.8953 C   0  0  0  0  0  0  0  0  0  0  0  0
   30.7728  -24.4612  -16.0740 C   0  0  0  0  0  0  0  0  0  0  0  0
   31.7319  -25.3313  -16.9052 C   0  0  0  0  0  0  0  0  0  0  0  0
   32.9514  -25.4584  -16.1606 N   0  0  0  0  0  0  0  0  0  0  0  0
   27.7831  -21.1739  -16.0481 C   0  0  0  0  0  0  0  0  0  0  0  0
   28.3119  -20.0392  -16.0653 O   0  0  0  0  0  0  0  0  0  0  0  0
   24.0094  -19.2503  -14.0827 C   0  0  0  0  0  0  0  0  0  0  0  0
   24.7733  -20.1752  -15.0109 C   0  0  1  0  0  0  0  0  0  0  0  0
   25.0201  -19.4751  -16.1832 O   0  0  0  0  0  0  0  0  0  0  0  0
   26.1175  -20.5013  -14.3667 C   0  0  2  0  0  0  0  0  0  0  0  0
   26.7776  -21.5593  -15.1312 N   0  0  0  0  0  0  0  0  0  0  0  0
   25.8429  -21.0330  -12.9951 C   0  0  0  0  0  0  0  0  0  0  0  0
   25.3196  -22.1870  -12.8406 O   0  0  0  0  0  0  0  0  0  0  0  0
   27.4157  -21.3285   -7.6694 C   0  0  0  0  0  0  0  0  0  0  0  0
   26.4121  -20.1894   -8.0695 C   0  0  1  0  0  0  0  0  0  0  0  0
   26.7937  -19.0482   -7.1894 C   0  0  0  0  0  0  0  0  0  0  0  0
   26.5290  -20.0184   -9.5253 C   0  0  0  0  0  0  0  0  0  0  0  0
   25.8058  -20.8828  -10.4746 C   0  0  2  0  0  0  0  0  0  0  0  0
   26.1402  -20.3077  -11.8173 N   0  0  0  0  0  0  0  0  0  0  0  0
   24.3501  -20.9007  -10.3242 C   0  0  0  0  0  0  0  0  0  0  0  0
   23.6380  -19.9692  -10.6922 O   0  0  0  0  0  0  0  0  0  0  0  0
   23.7074  -22.0095   -9.7407 O   0  0  0  0  0  0  0  0  0  0  0  0
  2  1  1  1
  2  3  1  0
  3  4  1  0
  5  6  1  0
  5  4  1  0
  6  7  1  0
  8  2  1  0
  9  8  2  0
 11 10  1  1
 11 12  1  0
 11 13  1  0
 13 14  1  6
 14  8  1  0
 15 13  1  0
 15 22  1  0
 16 15  2  0
 18 17  1  1
 18 20  1  0
 19 18  1  0
 21 20  1  1
 21 22  1  0
 21 23  1  0
 23 25  1  0
 24 23  2  0
M  END
$$$$
