KTL.pdb
     RDKit          3D

 25 24  0  0  1  0  0  0  0  0999 V2000
   25.3498  -21.8577   -9.7564 N   0  0  0  0  0  0  0  0  0  0  0  0
   24.6819  -21.1455  -10.7892 C   0  0  1  0  0  0  0  0  0  0  0  0
   23.6738  -20.1285  -10.3575 C   0  0  0  0  0  0  0  0  0  0  0  0
   22.3151  -20.6978  -10.1785 C   0  0  0  0  0  0  0  0  0  0  0  0
   21.7988  -21.3931  -11.3860 C   0  0  0  0  0  0  0  0  0  0  0  0
   20.3804  -21.8696  -11.0268 C   0  0  0  0  0  0  0  0  0  0  0  0
   19.8720  -22.5947  -12.1553 N   0  0  0  0  0  0  0  0  0  0  0  0
   25.7220  -20.3860  -11.5716 C   0  0  0  0  0  0  0  0  0  0  0  0
   26.7110  -19.9099  -10.9692 O   0  0  0  0  0  0  0  0  0  0  0  0
   28.3245  -19.9452  -15.4420 C   0  0  0  0  0  0  0  0  0  0  0  0
   27.2362  -20.6398  -14.6458 C   0  0  1  0  0  0  0  0  0  0  0  0
   27.8535  -21.5762  -13.8288 O   0  0  0  0  0  0  0  0  0  0  0  0
   26.5613  -19.6062  -13.7491 C   0  0  2  0  0  0  0  0  0  0  0  0
   25.5121  -20.2564  -12.9643 N   0  0  0  0  0  0  0  0  0  0  0  0
   25.9063  -18.5967  -14.6385 C   0  0  0  0  0  0  0  0  0  0  0  0
   24.6685  -18.6993  -14.9331 O   0  0  0  0  0  0  0  0  0  0  0  0
   26.2594  -13.4806  -16.9152 C   0  0  0  0  0  0  0  0  0  0  0  0
   25.4959  -13.9266  -15.6179 C   0  0  1  0  0  0  0  0  0  0  0  0
   24.0601  -13.8983  -16.0177 C   0  0  0  0  0  0  0  0  0  0  0  0
   26.0813  -15.2113  -15.2064 C   0  0  0  0  0  0  0  0  0  0  0  0
   25.8603  -16.4518  -15.9705 C   0  0  2  0  0  0  0  0  0  0  0  0
   26.6014  -17.4954  -15.1915 N   0  0  0  0  0  0  0  0  0  0  0  0
   26.3702  -16.4437  -17.3422 C   0  0  0  0  0  0  0  0  0  0  0  0
   27.5572  -16.6226  -17.6052 O   0  0  0  0  0  0  0  0  0  0  0  0
   25.4976  -16.2259  -18.4258 O   0  0  0  0  0  0  0  0  0  0  0  0
  2  1  1  1
  2  3  1  0
  3  4  1  0
  5  6  1  0
  5  4  1  0
  6  7  1  0
  8  2  1  0
  9  8  2  0
 11 10  1  6
 11 12  1  0
 11 13  1  0
 13 14  1  6
 14  8  1  0
 15 13  1  0
 15 22  1  0
 16 15  2  0
 18 17  1  6
 18 20  1  0
 19 18  1  0
 21 20  1  1
 21 22  1  0
 21 23  1  0
 23 25  1  0
 24 23  2  0
M  END
$$$$
