KTL.pdb
     RDKit          3D

 25 24  0  0  1  0  0  0  0  0999 V2000
   18.7466  -13.1802  -15.4001 N   0  0  0  0  0  0  0  0  0  0  0  0
   18.6758  -12.1589  -16.3860 C   0  0  1  0  0  0  0  0  0  0  0  0
   17.4465  -12.1342  -17.2376 C   0  0  0  0  0  0  0  0  0  0  0  0
   17.3154  -13.3330  -18.1023 C   0  0  0  0  0  0  0  0  0  0  0  0
   16.1207  -14.1605  -17.7930 C   0  0  0  0  0  0  0  0  0  0  0  0
   16.1001  -15.2848  -18.8435 C   0  0  0  0  0  0  0  0  0  0  0  0
   15.0744  -16.2118  -18.4609 N   0  0  0  0  0  0  0  0  0  0  0  0
   18.7099  -10.8303  -15.6757 C   0  0  0  0  0  0  0  0  0  0  0  0
   17.9376  -10.6353  -14.7097 O   0  0  0  0  0  0  0  0  0  0  0  0
   21.5180   -7.1554  -14.3621 C   0  0  0  0  0  0  0  0  0  0  0  0
   21.3265   -8.4597  -15.1124 C   0  0  1  0  0  0  0  0  0  0  0  0
   21.7752   -9.4820  -14.2884 O   0  0  0  0  0  0  0  0  0  0  0  0
   19.8328   -8.6660  -15.3459 C   0  0  2  0  0  0  0  0  0  0  0  0
   19.6300   -9.8684  -16.1538 N   0  0  0  0  0  0  0  0  0  0  0  0
   19.3342   -7.4966  -16.1353 C   0  0  0  0  0  0  0  0  0  0  0  0
   19.6961   -7.3323  -17.3483 O   0  0  0  0  0  0  0  0  0  0  0  0
   15.3355   -4.2401  -17.7799 C   0  0  0  0  0  0  0  0  0  0  0  0
   16.0441   -3.7721  -16.4594 C   0  0  1  0  0  0  0  0  0  0  0  0
   14.9392   -3.1914  -15.6445 C   0  0  0  0  0  0  0  0  0  0  0  0
   16.7622   -4.9413  -15.9306 C   0  0  0  0  0  0  0  0  0  0  0  0
   18.1177   -5.2978  -16.3855 C   0  0  2  0  0  0  0  0  0  0  0  0
   18.4533   -6.5282  -15.5987 N   0  0  0  0  0  0  0  0  0  0  0  0
   19.1490   -4.2896  -16.1372 C   0  0  0  0  0  0  0  0  0  0  0  0
   19.4872   -3.4693  -16.9876 O   0  0  0  0  0  0  0  0  0  0  0  0
   19.7992   -4.2272  -14.8897 O   0  0  0  0  0  0  0  0  0  0  0  0
  2  1  1  1
  2  3  1  0
  3  4  1  0
  5  6  1  0
  5  4  1  0
  6  7  1  0
  8  2  1  0
  9  8  2  0
 11 10  1  1
 11 12  1  0
 11 13  1  0
 13 14  1  6
 14  8  1  0
 15 13  1  0
 15 22  1  0
 16 15  2  0
 18 17  1  6
 18 20  1  0
 19 18  1  0
 21 20  1  1
 21 22  1  0
 21 23  1  0
 23 25  1  0
 24 23  2  0
M  END
$$$$
