KTL.pdb
     RDKit          3D

 25 24  0  0  1  0  0  0  0  0999 V2000
   25.4098  -22.8408  -13.7140 N   0  0  0  0  0  0  0  0  0  0  0  0
   24.9396  -21.5185  -13.4892 C   0  0  1  0  0  0  0  0  0  0  0  0
   25.3828  -20.8563  -12.2236 C   0  0  0  0  0  0  0  0  0  0  0  0
   25.2012  -21.7132  -11.0257 C   0  0  0  0  0  0  0  0  0  0  0  0
   25.6660  -21.0782   -9.7653 C   0  0  0  0  0  0  0  0  0  0  0  0
   24.4129  -20.9092   -8.8884 C   0  0  0  0  0  0  0  0  0  0  0  0
   24.8223  -20.2665   -7.6730 N   0  0  0  0  0  0  0  0  0  0  0  0
   25.4539  -20.6505  -14.6086 C   0  0  0  0  0  0  0  0  0  0  0  0
   26.6201  -20.8252  -15.0291 O   0  0  0  0  0  0  0  0  0  0  0  0
   24.5089  -18.5248  -18.7045 C   0  0  0  0  0  0  0  0  0  0  0  0
   24.0759  -19.3165  -17.4853 C   0  0  1  0  0  0  0  0  0  0  0  0
   24.2725  -20.6599  -17.7717 O   0  0  0  0  0  0  0  0  0  0  0  0
   24.9897  -18.9458  -16.3210 C   0  0  2  0  0  0  0  0  0  0  0  0
   24.5698  -19.6743  -15.1241 N   0  0  0  0  0  0  0  0  0  0  0  0
   24.8082  -17.4848  -16.0528 C   0  0  0  0  0  0  0  0  0  0  0  0
   23.8064  -17.0694  -15.3795 O   0  0  0  0  0  0  0  0  0  0  0  0
   28.4040  -12.6953  -15.7916 C   0  0  0  0  0  0  0  0  0  0  0  0
   26.8629  -12.9743  -15.9015 C   0  0  1  0  0  0  0  0  0  0  0  0
   26.4092  -12.0637  -16.9911 C   0  0  0  0  0  0  0  0  0  0  0  0
   26.7109  -14.4242  -16.0941 C   0  0  0  0  0  0  0  0  0  0  0  0
   25.3985  -15.0466  -16.3425 C   0  0  2  0  0  0  0  0  0  0  0  0
   25.7134  -16.5013  -16.5167 N   0  0  0  0  0  0  0  0  0  0  0  0
   24.6958  -14.5751  -17.5365 C   0  0  0  0  0  0  0  0  0  0  0  0
   25.0216  -14.9169  -18.6711 O   0  0  0  0  0  0  0  0  0  0  0  0
   23.6015  -13.6967  -17.4192 O   0  0  0  0  0  0  0  0  0  0  0  0
  2  1  1  6
  2  3  1  0
  3  4  1  0
  5  6  1  0
  5  4  1  0
  6  7  1  0
  8  2  1  0
  9  8  2  0
 11 10  1  6
 11 12  1  0
 11 13  1  0
 13 14  1  1
 14  8  1  0
 15 13  1  0
 15 22  1  0
 16 15  2  0
 18 17  1  6
 18 20  1  0
 19 18  1  0
 21 20  1  6
 21 22  1  0
 21 23  1  0
 23 25  1  0
 24 23  2  0
M  END
$$$$
