KTL.pdb
     RDKit          3D

 25 24  0  0  1  0  0  0  0  0999 V2000
   25.8306  -22.0320  -17.1994 N   0  0  0  0  0  0  0  0  0  0  0  0
   26.2809  -22.6650  -16.0092 C   0  0  1  0  0  0  0  0  0  0  0  0
   27.4545  -23.5826  -16.1416 C   0  0  0  0  0  0  0  0  0  0  0  0
   27.0925  -24.9122  -16.6922 C   0  0  0  0  0  0  0  0  0  0  0  0
   25.7345  -25.3685  -16.2978 C   0  0  0  0  0  0  0  0  0  0  0  0
   25.5363  -26.7391  -16.9686 C   0  0  0  0  0  0  0  0  0  0  0  0
   24.2822  -27.2642  -16.5112 N   0  0  0  0  0  0  0  0  0  0  0  0
   26.7094  -21.5865  -15.0480 C   0  0  0  0  0  0  0  0  0  0  0  0
   27.3267  -20.5892  -15.4861 O   0  0  0  0  0  0  0  0  0  0  0  0
   25.8550  -19.1243  -14.7389 C   0  0  0  0  0  0  0  0  0  0  0  0
   25.3816  -19.5697  -13.3684 C   0  0  1  0  0  0  0  0  0  0  0  0
   24.1628  -20.2108  -13.5388 O   0  0  0  0  0  0  0  0  0  0  0  0
   26.3767  -20.5897  -12.8232 C   0  0  2  0  0  0  0  0  0  0  0  0
   26.3808  -21.7716  -13.6849 N   0  0  0  0  0  0  0  0  0  0  0  0
   25.8940  -21.0124  -11.4713 C   0  0  0  0  0  0  0  0  0  0  0  0
   25.3560  -22.1579  -11.3047 O   0  0  0  0  0  0  0  0  0  0  0  0
   28.0801  -19.0595   -6.6487 C   0  0  0  0  0  0  0  0  0  0  0  0
   27.6208  -20.1748   -7.6537 C   0  0  1  0  0  0  0  0  0  0  0  0
   27.8987  -21.4481   -6.9298 C   0  0  0  0  0  0  0  0  0  0  0  0
   26.2295  -19.8667   -8.0164 C   0  0  0  0  0  0  0  0  0  0  0  0
   25.4834  -20.6667   -9.0038 C   0  0  2  0  0  0  0  0  0  0  0  0
   26.0030  -20.1893  -10.3257 N   0  0  0  0  0  0  0  0  0  0  0  0
   24.0304  -20.4934   -8.9835 C   0  0  0  0  0  0  0  0  0  0  0  0
   23.4411  -19.7737   -9.7868 O   0  0  0  0  0  0  0  0  0  0  0  0
   23.2463  -21.1601   -8.0224 O   0  0  0  0  0  0  0  0  0  0  0  0
  2  1  1  6
  2  3  1  0
  3  4  1  0
  5  6  1  0
  5  4  1  0
  6  7  1  0
  8  2  1  0
  9  8  2  0
 11 10  1  6
 11 12  1  0
 11 13  1  0
 13 14  1  6
 14  8  1  0
 15 13  1  0
 15 22  1  0
 16 15  2  0
 18 17  1  1
 18 20  1  0
 19 18  1  0
 21 20  1  1
 21 22  1  0
 21 23  1  0
 23 25  1  0
 24 23  2  0
M  END
$$$$
