KTL.pdb
     RDKit          3D

 25 24  0  0  1  0  0  0  0  0999 V2000
   26.3063  -19.4185  -16.6194 N   0  0  0  0  0  0  0  0  0  0  0  0
   26.7230  -18.4508  -15.6655 C   0  0  1  0  0  0  0  0  0  0  0  0
   26.7114  -17.0231  -16.1110 C   0  0  0  0  0  0  0  0  0  0  0  0
   27.2332  -16.8405  -17.4881 C   0  0  0  0  0  0  0  0  0  0  0  0
   28.6778  -17.1611  -17.6231 C   0  0  0  0  0  0  0  0  0  0  0  0
   29.0404  -16.8743  -19.0908 C   0  0  0  0  0  0  0  0  0  0  0  0
   30.3856  -17.3276  -19.2976 N   0  0  0  0  0  0  0  0  0  0  0  0
   25.7783  -18.5229  -14.4937 C   0  0  0  0  0  0  0  0  0  0  0  0
   24.8569  -17.6804  -14.4006 O   0  0  0  0  0  0  0  0  0  0  0  0
   23.0200  -20.8250  -11.6362 C   0  0  0  0  0  0  0  0  0  0  0  0
   23.9483  -20.6638  -12.8249 C   0  0  1  0  0  0  0  0  0  0  0  0
   23.2079  -20.1042  -13.8564 O   0  0  0  0  0  0  0  0  0  0  0  0
   25.0481  -19.6762  -12.4466 C   0  0  2  0  0  0  0  0  0  0  0  0
   25.9956  -19.5580  -13.5546 N   0  0  0  0  0  0  0  0  0  0  0  0
   25.7843  -20.2480  -11.2760 C   0  0  0  0  0  0  0  0  0  0  0  0
   27.0403  -20.4651  -11.3440 O   0  0  0  0  0  0  0  0  0  0  0  0
   27.5015  -18.4366   -6.6984 C   0  0  0  0  0  0  0  0  0  0  0  0
   27.7852  -19.7564   -7.5000 C   0  0  1  0  0  0  0  0  0  0  0  0
   27.7187  -20.8272   -6.4650 C   0  0  0  0  0  0  0  0  0  0  0  0
   26.8169  -19.7927   -8.6060 C   0  0  0  0  0  0  0  0  0  0  0  0
   25.9666  -20.9686   -8.8626 C   0  0  2  0  0  0  0  0  0  0  0  0
   25.1489  -20.5729  -10.0543 N   0  0  0  0  0  0  0  0  0  0  0  0
   25.0589  -21.3365   -7.7752 C   0  0  0  0  0  0  0  0  0  0  0  0
   23.9881  -20.7631   -7.5880 O   0  0  0  0  0  0  0  0  0  0  0  0
   25.3917  -22.3810   -6.8913 O   0  0  0  0  0  0  0  0  0  0  0  0
  2  1  1  6
  2  3  1  0
  3  4  1  0
  5  6  1  0
  5  4  1  0
  6  7  1  0
  8  2  1  0
  9  8  2  0
 11 10  1  1
 11 12  1  0
 11 13  1  0
 13 14  1  6
 14  8  1  0
 15 13  1  0
 15 22  1  0
 16 15  2  0
 18 17  1  1
 18 20  1  0
 19 18  1  0
 21 20  1  1
 21 22  1  0
 21 23  1  0
 23 25  1  0
 24 23  2  0
M  END
$$$$
