VIV.pdb
     RDKit          3D

 23 22  0  0  1  0  0  0  0  0999 V2000
   23.3768  -20.4590  -14.1048 C   0  0  0  0  0  0  0  0  0  0  0  0
   21.9445  -20.6848  -14.5347 C   0  0  2  0  0  0  0  0  0  0  0  0
   21.6601  -19.8185  -15.7205 C   0  0  0  0  0  0  0  0  0  0  0  0
   20.9830  -20.3998  -13.3922 C   0  0  2  0  0  0  0  0  0  0  0  0
   21.0361  -19.0072  -13.0041 N   0  0  0  0  0  0  0  0  0  0  0  0
   21.2980  -21.2196  -12.2047 C   0  0  0  0  0  0  0  0  0  0  0  0
   21.2576  -22.4675  -12.2993 O   0  0  0  0  0  0  0  0  0  0  0  0
   25.2029  -20.0631   -8.6528 C   0  0  0  0  0  0  0  0  0  0  0  0
   24.2915  -20.9390   -9.4894 C   0  0  0  0  0  0  0  0  0  0  0  0
   22.9177  -20.8909   -8.8618 C   0  0  2  0  0  0  0  0  0  0  0  0
   22.9440  -21.7297   -7.5948 C   0  0  0  0  0  0  0  0  0  0  0  0
   21.8694  -21.5084   -9.7687 C   0  0  2  0  0  0  0  0  0  0  0  0
   21.6518  -20.6788  -10.9335 N   0  0  0  0  0  0  0  0  0  0  0  0
   20.5837  -21.7094   -9.0150 C   0  0  0  0  0  0  0  0  0  0  0  0
   19.8022  -20.7455   -8.8118 O   0  0  0  0  0  0  0  0  0  0  0  0
   17.7683  -23.7279   -9.9706 C   0  0  0  0  0  0  0  0  0  0  0  0
   18.1422  -24.2804   -8.6251 C   0  0  2  0  0  0  0  0  0  0  0  0
   16.8744  -24.6447   -7.8833 C   0  0  0  0  0  0  0  0  0  0  0  0
   18.9286  -23.2234   -7.8806 C   0  0  2  0  0  0  0  0  0  0  0  0
   20.2106  -22.9783   -8.5122 N   0  0  0  0  0  0  0  0  0  0  0  0
   19.1696  -23.6012   -6.4728 C   0  0  0  0  0  0  0  0  0  0  0  0
   18.2499  -23.4593   -5.6344 O   0  0  0  0  0  0  0  0  0  0  0  0
   20.3812  -24.1109   -6.0351 O   0  0  0  0  0  0  0  0  0  0  0  0
  2  1  1  1
  2  3  1  0
  4  2  1  0
  4  5  1  1
  6 13  1  0
  6  4  1  0
  7  6  2  0
  8  9  1  0
  9 10  1  0
 10 12  1  0
 10 11  1  1
 12 13  1  6
 12 14  1  0
 14 20  1  0
 15 14  2  0
 17 18  1  1
 17 16  1  0
 19 21  1  0
 19 17  1  0
 19 20  1  6
 21 23  1  0
 22 21  2  0
M  END
$$$$
