VIV.pdb
     RDKit          3D

 23 22  0  0  1  0  0  0  0  0999 V2000
   26.1741  -19.3725  -16.9410 C   0  0  0  0  0  0  0  0  0  0  0  0
   27.4263  -19.0800  -16.1450 C   0  0  2  0  0  0  0  0  0  0  0  0
   28.4393  -18.4654  -17.0580 C   0  0  0  0  0  0  0  0  0  0  0  0
   27.9604  -20.3430  -15.4888 C   0  0  2  0  0  0  0  0  0  0  0  0
   28.3042  -21.3380  -16.4810 N   0  0  0  0  0  0  0  0  0  0  0  0
   26.9670  -20.9350  -14.5700 C   0  0  0  0  0  0  0  0  0  0  0  0
   26.3323  -21.9513  -14.9335 O   0  0  0  0  0  0  0  0  0  0  0  0
   25.3211  -21.1073   -8.6389 C   0  0  0  0  0  0  0  0  0  0  0  0
   24.9261  -21.4043  -10.0719 C   0  0  0  0  0  0  0  0  0  0  0  0
   25.9636  -20.7682  -10.9676 C   0  0  2  0  0  0  0  0  0  0  0  0
   25.9491  -19.2685  -10.7216 C   0  0  0  0  0  0  0  0  0  0  0  0
   25.6316  -20.9699  -12.4346 C   0  0  2  0  0  0  0  0  0  0  0  0
   26.6746  -20.4201  -13.2726 N   0  0  0  0  0  0  0  0  0  0  0  0
   24.3054  -20.3393  -12.7586 C   0  0  0  0  0  0  0  0  0  0  0  0
   24.1770  -19.0886  -12.7743 O   0  0  0  0  0  0  0  0  0  0  0  0
   21.4106  -22.4143  -14.9164 C   0  0  0  0  0  0  0  0  0  0  0  0
   21.5013  -20.9173  -14.8368 C   0  0  2  0  0  0  0  0  0  0  0  0
   22.5353  -20.4424  -15.8346 C   0  0  0  0  0  0  0  0  0  0  0  0
   21.8897  -20.5406  -13.4236 C   0  0  2  0  0  0  0  0  0  0  0  0
   23.1653  -21.1232  -13.0548 N   0  0  0  0  0  0  0  0  0  0  0  0
   20.8790  -20.9744  -12.4371 C   0  0  0  0  0  0  0  0  0  0  0  0
   21.0507  -22.0486  -11.8161 O   0  0  0  0  0  0  0  0  0  0  0  0
   19.7377  -20.2371  -12.1663 O   0  0  0  0  0  0  0  0  0  0  0  0
  2  1  1  6
  2  3  1  0
  4  2  1  0
  4  5  1  6
  6 13  1  0
  6  4  1  0
  7  6  2  0
  8  9  1  0
  9 10  1  0
 10 12  1  0
 10 11  1  1
 12 13  1  6
 12 14  1  0
 14 20  1  0
 15 14  2  0
 17 18  1  6
 17 16  1  0
 19 21  1  0
 19 17  1  0
 19 20  1  1
 21 23  1  0
 22 21  2  0
M  END
$$$$
