VIV.pdb
     RDKit          3D

 23 22  0  0  1  0  0  0  0  0999 V2000
   17.7629  -12.6610  -21.4749 C   0  0  0  0  0  0  0  0  0  0  0  0
   18.1528  -12.0741  -20.1367 C   0  0  2  0  0  0  0  0  0  0  0  0
   18.8380  -10.7653  -20.3713 C   0  0  0  0  0  0  0  0  0  0  0  0
   19.0372  -13.0351  -19.3588 C   0  0  2  0  0  0  0  0  0  0  0  0
   18.3378  -14.2688  -19.0733 N   0  0  0  0  0  0  0  0  0  0  0  0
   19.4743  -12.4478  -18.0760 C   0  0  0  0  0  0  0  0  0  0  0  0
   18.7134  -12.5186  -17.0842 O   0  0  0  0  0  0  0  0  0  0  0  0
   24.1164  -12.0030  -14.3881 C   0  0  0  0  0  0  0  0  0  0  0  0
   22.8672  -11.2603  -14.8189 C   0  0  0  0  0  0  0  0  0  0  0  0
   22.3681  -11.9133  -16.0870 C   0  0  2  0  0  0  0  0  0  0  0  0
   23.4362  -11.7537  -17.1562 C   0  0  0  0  0  0  0  0  0  0  0  0
   21.1217  -11.2263  -16.6137 C   0  0  2  0  0  0  0  0  0  0  0  0
   20.7267  -11.7931  -17.8845 N   0  0  0  0  0  0  0  0  0  0  0  0
   21.3599   -9.7474  -16.7454 C   0  0  0  0  0  0  0  0  0  0  0  0
   22.1579   -9.3009  -17.6085 O   0  0  0  0  0  0  0  0  0  0  0  0
   18.4090   -7.0825  -15.7020 C   0  0  0  0  0  0  0  0  0  0  0  0
   19.5168   -6.8159  -16.6804 C   0  0  2  0  0  0  0  0  0  0  0  0
   19.1663   -7.4734  -17.9977 C   0  0  0  0  0  0  0  0  0  0  0  0
   20.7992   -7.3809  -16.1097 C   0  0  2  0  0  0  0  0  0  0  0  0
   20.7009   -8.8139  -15.9109 N   0  0  0  0  0  0  0  0  0  0  0  0
   21.1533   -6.7565  -14.8184 C   0  0  0  0  0  0  0  0  0  0  0  0
   21.5902   -5.5827  -14.8049 O   0  0  0  0  0  0  0  0  0  0  0  0
   21.0217   -7.4198  -13.6092 O   0  0  0  0  0  0  0  0  0  0  0  0
  2  1  1  6
  2  3  1  0
  4  2  1  0
  4  5  1  1
  6 13  1  0
  6  4  1  0
  7  6  2  0
  8  9  1  0
  9 10  1  0
 10 12  1  0
 10 11  1  6
 12 13  1  6
 12 14  1  0
 14 20  1  0
 15 14  2  0
 17 18  1  6
 17 16  1  0
 19 21  1  0
 19 17  1  0
 19 20  1  1
 21 23  1  0
 22 21  2  0
M  END
$$$$
