VIV.pdb
     RDKit          3D

 23 22  0  0  1  0  0  0  0  0999 V2000
   20.6360  -13.3240  -19.3683 C   0  0  0  0  0  0  0  0  0  0  0  0
   21.9454  -13.8286  -19.9321 C   0  0  2  0  0  0  0  0  0  0  0  0
   21.6496  -14.7647  -21.0607 C   0  0  0  0  0  0  0  0  0  0  0  0
   22.7783  -14.5015  -18.8530 C   0  0  2  0  0  0  0  0  0  0  0  0
   22.1216  -15.6911  -18.3566 N   0  0  0  0  0  0  0  0  0  0  0  0
   23.0134  -13.5961  -17.7100 C   0  0  0  0  0  0  0  0  0  0  0  0
   22.2500  -13.6566  -16.7193 O   0  0  0  0  0  0  0  0  0  0  0  0
   27.9072  -12.4819  -15.8471 C   0  0  0  0  0  0  0  0  0  0  0  0
   26.4272  -12.7940  -15.9461 C   0  0  0  0  0  0  0  0  0  0  0  0
   25.7127  -11.5003  -16.2613 C   0  0  2  0  0  0  0  0  0  0  0  0
   25.7861  -10.6056  -15.0350 C   0  0  0  0  0  0  0  0  0  0  0  0
   24.2394  -11.7319  -16.5413 C   0  0  2  0  0  0  0  0  0  0  0  0
   24.0695  -12.6394  -17.6548 N   0  0  0  0  0  0  0  0  0  0  0  0
   23.5507  -10.4234  -16.8155 C   0  0  0  0  0  0  0  0  0  0  0  0
   23.8010   -9.7745  -17.8631 O   0  0  0  0  0  0  0  0  0  0  0  0
   20.2642   -9.5670  -17.6534 C   0  0  0  0  0  0  0  0  0  0  0  0
   20.4527   -8.8110  -16.3695 C   0  0  2  0  0  0  0  0  0  0  0  0
   19.7355   -7.4830  -16.4813 C   0  0  0  0  0  0  0  0  0  0  0  0
   21.9368   -8.6156  -16.1482 C   0  0  2  0  0  0  0  0  0  0  0  0
   22.6054   -9.8807  -15.9135 N   0  0  0  0  0  0  0  0  0  0  0  0
   22.2134   -7.7251  -15.0022 C   0  0  0  0  0  0  0  0  0  0  0  0
   22.2848   -8.2127  -13.8507 O   0  0  0  0  0  0  0  0  0  0  0  0
   22.3992   -6.3598  -15.1474 O   0  0  0  0  0  0  0  0  0  0  0  0
  2  1  1  1
  2  3  1  0
  4  2  1  0
  4  5  1  1
  6 13  1  0
  6  4  1  0
  7  6  2  0
  8  9  1  0
  9 10  1  0
 10 12  1  0
 10 11  1  1
 12 13  1  6
 12 14  1  0
 14 20  1  0
 15 14  2  0
 17 18  1  6
 17 16  1  0
 19 21  1  0
 19 17  1  0
 19 20  1  1
 21 23  1  0
 22 21  2  0
M  END
$$$$
