VIV.pdb
     RDKit          3D

 23 22  0  0  1  0  0  0  0  0999 V2000
   17.8813  -11.4202  -19.5314 C   0  0  0  0  0  0  0  0  0  0  0  0
   18.9624  -12.3008  -20.1170 C   0  0  2  0  0  0  0  0  0  0  0  0
   18.4002  -13.0238  -21.2997 C   0  0  0  0  0  0  0  0  0  0  0  0
   19.4986  -13.2689  -19.0747 C   0  0  2  0  0  0  0  0  0  0  0  0
   18.4689  -14.1879  -18.6414 N   0  0  0  0  0  0  0  0  0  0  0  0
   20.0064  -12.5546  -17.8858 C   0  0  0  0  0  0  0  0  0  0  0  0
   19.2390  -12.3695  -16.9139 O   0  0  0  0  0  0  0  0  0  0  0  0
   24.9255  -13.2378  -15.7190 C   0  0  0  0  0  0  0  0  0  0  0  0
   23.4416  -13.0368  -15.9540 C   0  0  0  0  0  0  0  0  0  0  0  0
   23.2333  -11.5831  -16.3098 C   0  0  2  0  0  0  0  0  0  0  0  0
   23.5996  -10.7400  -15.0996 C   0  0  0  0  0  0  0  0  0  0  0  0
   21.7769  -11.2885  -16.6183 C   0  0  2  0  0  0  0  0  0  0  0  0
   21.3353  -12.0515  -17.7652 N   0  0  0  0  0  0  0  0  0  0  0  0
   21.5837   -9.8162  -16.8563 C   0  0  0  0  0  0  0  0  0  0  0  0
   22.1054   -9.2540  -17.8527 O   0  0  0  0  0  0  0  0  0  0  0  0
   18.7812   -7.8167  -17.7268 C   0  0  0  0  0  0  0  0  0  0  0  0
   19.1923   -7.2379  -16.4033 C   0  0  2  0  0  0  0  0  0  0  0  0
   18.9926   -5.7385  -16.4490 C   0  0  0  0  0  0  0  0  0  0  0  0
   20.6440   -7.5906  -16.1623 C   0  0  2  0  0  0  0  0  0  0  0  0
   20.8152   -9.0184  -15.9760 N   0  0  0  0  0  0  0  0  0  0  0  0
   21.1926   -6.8991  -14.9776 C   0  0  0  0  0  0  0  0  0  0  0  0
   21.0936   -7.4399  -13.8521 O   0  0  0  0  0  0  0  0  0  0  0  0
   21.8183   -5.6656  -15.0582 O   0  0  0  0  0  0  0  0  0  0  0  0
  2  1  1  1
  2  3  1  0
  4  2  1  0
  4  5  1  1
  6 13  1  0
  6  4  1  0
  7  6  2  0
  8  9  1  0
  9 10  1  0
 10 12  1  0
 10 11  1  1
 12 13  1  6
 12 14  1  0
 14 20  1  0
 15 14  2  0
 17 18  1  6
 17 16  1  0
 19 21  1  0
 19 17  1  0
 19 20  1  1
 21 23  1  0
 22 21  2  0
M  END
$$$$
