VIV.pdb
     RDKit          3D

 23 22  0  0  1  0  0  0  0  0999 V2000
   28.9324  -18.6337  -16.7358 C   0  0  0  0  0  0  0  0  0  0  0  0
   27.7091  -19.2344  -16.0803 C   0  0  2  0  0  0  0  0  0  0  0  0
   26.8654  -18.1249  -15.5374 C   0  0  0  0  0  0  0  0  0  0  0  0
   28.1042  -20.2188  -14.9913 C   0  0  2  0  0  0  0  0  0  0  0  0
   28.7954  -21.3605  -15.5494 N   0  0  0  0  0  0  0  0  0  0  0  0
   26.9224  -20.7123  -14.2555 C   0  0  0  0  0  0  0  0  0  0  0  0
   26.2529  -21.6525  -14.7409 O   0  0  0  0  0  0  0  0  0  0  0  0
   26.8271  -20.2808   -8.7969 C   0  0  0  0  0  0  0  0  0  0  0  0
   26.6640  -20.9606  -10.1419 C   0  0  0  0  0  0  0  0  0  0  0  0
   25.4476  -20.3596  -10.8073 C   0  0  2  0  0  0  0  0  0  0  0  0
   24.2084  -20.9342  -10.1410 C   0  0  0  0  0  0  0  0  0  0  0  0
   25.3685  -20.7431  -12.2734 C   0  0  2  0  0  0  0  0  0  0  0  0
   26.4822  -20.1825  -13.0068 N   0  0  0  0  0  0  0  0  0  0  0  0
   24.0630  -20.2829  -12.8612 C   0  0  0  0  0  0  0  0  0  0  0  0
   23.7742  -19.0598  -12.9024 O   0  0  0  0  0  0  0  0  0  0  0  0
   22.8197  -21.2817  -16.2360 C   0  0  0  0  0  0  0  0  0  0  0  0
   21.6612  -21.5431  -15.3169 C   0  0  2  0  0  0  0  0  0  0  0  0
   20.3899  -21.0892  -16.0011 C   0  0  0  0  0  0  0  0  0  0  0  0
   21.8946  -20.7797  -14.0314 C   0  0  2  0  0  0  0  0  0  0  0  0
   23.1218  -21.2009  -13.3840 N   0  0  0  0  0  0  0  0  0  0  0  0
   20.7822  -20.9528  -13.0746 C   0  0  0  0  0  0  0  0  0  0  0  0
   20.7293  -21.9927  -12.3783 O   0  0  0  0  0  0  0  0  0  0  0  0
   19.7847  -20.0051  -12.9123 O   0  0  0  0  0  0  0  0  0  0  0  0
  2  1  1  1
  2  3  1  0
  4  2  1  0
  4  5  1  6
  6 13  1  0
  6  4  1  0
  7  6  2  0
  8  9  1  0
  9 10  1  0
 10 12  1  0
 10 11  1  1
 12 13  1  6
 12 14  1  0
 14 20  1  0
 15 14  2  0
 17 18  1  6
 17 16  1  0
 19 21  1  0
 19 17  1  0
 19 20  1  1
 21 23  1  0
 22 21  2  0
M  END
$$$$
