VIV.pdb
     RDKit          3D

 23 22  0  0  1  0  0  0  0  0999 V2000
   19.9249  -15.3476  -16.7264 C   0  0  0  0  0  0  0  0  0  0  0  0
   18.5929  -14.7709  -17.1510 C   0  0  2  0  0  0  0  0  0  0  0  0
   17.9980  -15.6623  -18.1946 C   0  0  0  0  0  0  0  0  0  0  0  0
   18.7544  -13.3474  -17.6595 C   0  0  2  0  0  0  0  0  0  0  0  0
   19.5378  -13.3161  -18.8752 N   0  0  0  0  0  0  0  0  0  0  0  0
   19.4235  -12.4902  -16.6600 C   0  0  0  0  0  0  0  0  0  0  0  0
   18.9176  -12.3767  -15.5202 O   0  0  0  0  0  0  0  0  0  0  0  0
   24.5406  -12.6014  -15.3229 C   0  0  0  0  0  0  0  0  0  0  0  0
   23.0305  -12.4710  -15.3436 C   0  0  0  0  0  0  0  0  0  0  0  0
   22.7040  -11.0787  -15.8316 C   0  0  2  0  0  0  0  0  0  0  0  0
   23.2137  -10.0825  -14.8033 C   0  0  0  0  0  0  0  0  0  0  0  0
   21.2056  -10.8632  -15.9381 C   0  0  2  0  0  0  0  0  0  0  0  0
   20.6287  -11.7691  -16.9071 N   0  0  0  0  0  0  0  0  0  0  0  0
   20.9109   -9.4356  -16.3078 C   0  0  0  0  0  0  0  0  0  0  0  0
   21.2778   -8.9720  -17.4176 O   0  0  0  0  0  0  0  0  0  0  0  0
   17.8720   -7.5721  -16.9092 C   0  0  0  0  0  0  0  0  0  0  0  0
   18.4959   -6.8604  -15.7432 C   0  0  2  0  0  0  0  0  0  0  0  0
   18.2511   -5.3749  -15.8968 C   0  0  0  0  0  0  0  0  0  0  0  0
   19.9762   -7.1740  -15.7336 C   0  0  2  0  0  0  0  0  0  0  0  0
   20.2168   -8.5711  -15.4288 N   0  0  0  0  0  0  0  0  0  0  0  0
   20.7103   -6.3515  -14.7501 C   0  0  0  0  0  0  0  0  0  0  0  0
   21.0518   -5.1866  -15.0590 O   0  0  0  0  0  0  0  0  0  0  0  0
   21.0410   -6.8174  -13.4879 O   0  0  0  0  0  0  0  0  0  0  0  0
  2  1  1  6
  2  3  1  0
  4  2  1  0
  4  5  1  6
  6 13  1  0
  6  4  1  0
  7  6  2  0
  8  9  1  0
  9 10  1  0
 10 12  1  0
 10 11  1  1
 12 13  1  6
 12 14  1  0
 14 20  1  0
 15 14  2  0
 17 18  1  6
 17 16  1  0
 19 21  1  0
 19 17  1  0
 19 20  1  1
 21 23  1  0
 22 21  2  0
M  END
$$$$
