VIV.pdb
     RDKit          3D

 23 22  0  0  1  0  0  0  0  0999 V2000
   19.1363  -22.5131  -14.6605 C   0  0  0  0  0  0  0  0  0  0  0  0
   20.5224  -21.9092  -14.6949 C   0  0  2  0  0  0  0  0  0  0  0  0
   21.4988  -22.9774  -15.0731 C   0  0  0  0  0  0  0  0  0  0  0  0
   20.8744  -21.2803  -13.3564 C   0  0  2  0  0  0  0  0  0  0  0  0
   19.9998  -20.1668  -13.0601 N   0  0  0  0  0  0  0  0  0  0  0  0
   22.2666  -20.7871  -13.3417 C   0  0  0  0  0  0  0  0  0  0  0  0
   22.5202  -19.6670  -13.8404 O   0  0  0  0  0  0  0  0  0  0  0  0
   25.6062  -20.9466   -9.1487 C   0  0  0  0  0  0  0  0  0  0  0  0
   24.8279  -20.5764  -10.3958 C   0  0  0  0  0  0  0  0  0  0  0  0
   25.4564  -21.3132  -11.5558 C   0  0  2  0  0  0  0  0  0  0  0  0
   26.8748  -20.7975  -11.7344 C   0  0  0  0  0  0  0  0  0  0  0  0
   24.7260  -21.0313  -12.8558 C   0  0  2  0  0  0  0  0  0  0  0  0
   23.3632  -21.5116  -12.7882 N   0  0  0  0  0  0  0  0  0  0  0  0
   25.4537  -21.6656  -14.0088 C   0  0  0  0  0  0  0  0  0  0  0  0
   25.6363  -22.9092  -14.0456 O   0  0  0  0  0  0  0  0  0  0  0  0
   25.2709  -20.1765  -17.7927 C   0  0  0  0  0  0  0  0  0  0  0  0
   26.6774  -20.5159  -17.3903 C   0  0  2  0  0  0  0  0  0  0  0  0
   27.3856  -21.1281  -18.5794 C   0  0  0  0  0  0  0  0  0  0  0  0
   26.6174  -21.4848  -16.2295 C   0  0  2  0  0  0  0  0  0  0  0  0
   25.9543  -20.8934  -15.0835 N   0  0  0  0  0  0  0  0  0  0  0  0
   27.9621  -21.9293  -15.8090 C   0  0  0  0  0  0  0  0  0  0  0  0
   28.3879  -23.0423  -16.1950 O   0  0  0  0  0  0  0  0  0  0  0  0
   28.7812  -21.1608  -14.9977 O   0  0  0  0  0  0  0  0  0  0  0  0
  2  1  1  1
  2  3  1  0
  4  2  1  0
  4  5  1  6
  6 13  1  0
  6  4  1  0
  7  6  2  0
  8  9  1  0
  9 10  1  0
 10 12  1  0
 10 11  1  6
 12 13  1  1
 12 14  1  0
 14 20  1  0
 15 14  2  0
 17 18  1  6
 17 16  1  0
 19 21  1  0
 19 17  1  0
 19 20  1  1
 21 23  1  0
 22 21  2  0
M  END
$$$$
