VIV.pdb
     RDKit          3D

 23 22  0  0  1  0  0  0  0  0999 V2000
   26.5432  -21.1380  -11.6280 C   0  0  0  0  0  0  0  0  0  0  0  0
   25.3846  -20.3058  -11.1256 C   0  0  2  0  0  0  0  0  0  0  0  0
   25.3969  -20.3249   -9.6299 C   0  0  0  0  0  0  0  0  0  0  0  0
   24.0656  -20.8204  -11.6792 C   0  0  2  0  0  0  0  0  0  0  0  0
   23.8036  -22.1692  -11.2266 N   0  0  0  0  0  0  0  0  0  0  0  0
   24.0650  -20.8235  -13.1562 C   0  0  0  0  0  0  0  0  0  0  0  0
   24.5749  -21.7932  -13.7624 O   0  0  0  0  0  0  0  0  0  0  0  0
   19.8531  -20.4876  -16.1490 C   0  0  0  0  0  0  0  0  0  0  0  0
   21.2304  -20.7896  -15.5926 C   0  0  0  0  0  0  0  0  0  0  0  0
   22.1283  -19.6294  -15.9549 C   0  0  2  0  0  0  0  0  0  0  0  0
   22.2620  -19.5861  -17.4682 C   0  0  0  0  0  0  0  0  0  0  0  0
   23.5289  -19.8155  -15.4013 C   0  0  2  0  0  0  0  0  0  0  0  0
   23.5137  -19.7790  -13.9554 N   0  0  0  0  0  0  0  0  0  0  0  0
   24.4482  -18.7579  -15.9473 C   0  0  0  0  0  0  0  0  0  0  0  0
   24.2845  -17.5483  -15.6455 O   0  0  0  0  0  0  0  0  0  0  0  0
   28.1492  -18.8077  -15.5999 C   0  0  0  0  0  0  0  0  0  0  0  0
   27.9072  -18.6120  -17.0691 C   0  0  2  0  0  0  0  0  0  0  0  0
   28.9202  -17.6196  -17.5975 C   0  0  0  0  0  0  0  0  0  0  0  0
   26.4940  -18.1033  -17.2529 C   0  0  2  0  0  0  0  0  0  0  0  0
   25.5200  -19.0828  -16.8119 N   0  0  0  0  0  0  0  0  0  0  0  0
   26.2060  -17.7644  -18.6618 C   0  0  0  0  0  0  0  0  0  0  0  0
   25.8526  -18.6714  -19.4500 O   0  0  0  0  0  0  0  0  0  0  0  0
   26.3112  -16.4737  -19.1542 O   0  0  0  0  0  0  0  0  0  0  0  0
  2  1  1  6
  2  3  1  0
  4  2  1  0
  4  5  1  1
  6 13  1  0
  6  4  1  0
  7  6  2  0
  8  9  1  0
  9 10  1  0
 10 12  1  0
 10 11  1  6
 12 13  1  1
 12 14  1  0
 14 20  1  0
 15 14  2  0
 17 18  1  1
 17 16  1  0
 19 21  1  0
 19 17  1  0
 19 20  1  6
 21 23  1  0
 22 21  2  0
M  END
$$$$
