VIV.pdb
     RDKit          3D

 23 22  0  0  1  0  0  0  0  0999 V2000
   14.3599  -12.9773  -17.2458 C   0  0  0  0  0  0  0  0  0  0  0  0
   15.2139  -14.0952  -16.6906 C   0  0  2  0  0  0  0  0  0  0  0  0
   14.3177  -15.1072  -16.0503 C   0  0  0  0  0  0  0  0  0  0  0  0
   16.2405  -13.5573  -15.7067 C   0  0  2  0  0  0  0  0  0  0  0  0
   15.6011  -13.0691  -14.5044 N   0  0  0  0  0  0  0  0  0  0  0  0
   17.0214  -12.4496  -16.2936 C   0  0  0  0  0  0  0  0  0  0  0  0
   17.7068  -12.6653  -17.3191 O   0  0  0  0  0  0  0  0  0  0  0  0
   15.4110   -7.7916  -18.0278 C   0  0  0  0  0  0  0  0  0  0  0  0
   16.2210   -9.0579  -17.8323 C   0  0  0  0  0  0  0  0  0  0  0  0
   17.1053   -8.8468  -16.6253 C   0  0  2  0  0  0  0  0  0  0  0  0
   18.1106   -7.7565  -16.9572 C   0  0  0  0  0  0  0  0  0  0  0  0
   17.9086  -10.0922  -16.2990 C   0  0  2  0  0  0  0  0  0  0  0  0
   17.0500  -11.1259  -15.7637 N   0  0  0  0  0  0  0  0  0  0  0  0
   19.0077   -9.7618  -15.3272 C   0  0  0  0  0  0  0  0  0  0  0  0
   18.7392   -9.4296  -14.1446 O   0  0  0  0  0  0  0  0  0  0  0  0
   22.2591  -11.8191  -14.9276 C   0  0  0  0  0  0  0  0  0  0  0  0
   22.6623  -10.3788  -15.0629 C   0  0  2  0  0  0  0  0  0  0  0  0
   23.7760  -10.0945  -14.0784 C   0  0  0  0  0  0  0  0  0  0  0  0
   21.4494   -9.5187  -14.7821 C   0  0  2  0  0  0  0  0  0  0  0  0
   20.3703   -9.8125  -15.7050 N   0  0  0  0  0  0  0  0  0  0  0  0
   21.7592   -8.0771  -14.8742 C   0  0  0  0  0  0  0  0  0  0  0  0
   21.8151   -7.5334  -16.0012 O   0  0  0  0  0  0  0  0  0  0  0  0
   21.9931   -7.2924  -13.7567 O   0  0  0  0  0  0  0  0  0  0  0  0
  2  1  1  1
  2  3  1  0
  4  2  1  0
  4  5  1  1
  6 13  1  0
  6  4  1  0
  7  6  2  0
  8  9  1  0
  9 10  1  0
 10 12  1  0
 10 11  1  6
 12 13  1  1
 12 14  1  0
 14 20  1  0
 15 14  2  0
 17 18  1  1
 17 16  1  0
 19 21  1  0
 19 17  1  0
 19 20  1  6
 21 23  1  0
 22 21  2  0
M  END
$$$$
