VIV.pdb
     RDKit          3D

 23 22  0  0  1  0  0  0  0  0999 V2000
   26.3610  -18.9526  -15.7266 C   0  0  0  0  0  0  0  0  0  0  0  0
   27.4777  -18.6043  -14.7681 C   0  0  2  0  0  0  0  0  0  0  0  0
   28.5423  -17.8720  -15.5217 C   0  0  0  0  0  0  0  0  0  0  0  0
   28.0276  -19.8529  -14.0976 C   0  0  2  0  0  0  0  0  0  0  0  0
   28.5462  -20.7826  -15.0772 N   0  0  0  0  0  0  0  0  0  0  0  0
   26.9865  -20.5465  -13.3125 C   0  0  0  0  0  0  0  0  0  0  0  0
   26.3932  -21.5255  -13.8201 O   0  0  0  0  0  0  0  0  0  0  0  0
   26.8361  -20.1332   -7.8092 C   0  0  0  0  0  0  0  0  0  0  0  0
   26.7868  -20.8234   -9.1579 C   0  0  0  0  0  0  0  0  0  0  0  0
   25.4990  -20.4086   -9.8309 C   0  0  2  0  0  0  0  0  0  0  0  0
   24.3557  -21.1691   -9.1798 C   0  0  0  0  0  0  0  0  0  0  0  0
   25.4911  -20.7886  -11.3001 C   0  0  2  0  0  0  0  0  0  0  0  0
   26.6023  -20.1721  -11.9911 N   0  0  0  0  0  0  0  0  0  0  0  0
   24.1870  -20.3887  -11.9332 C   0  0  0  0  0  0  0  0  0  0  0  0
   23.8923  -19.1754  -12.0824 O   0  0  0  0  0  0  0  0  0  0  0  0
   23.0939  -21.4373  -15.2480 C   0  0  0  0  0  0  0  0  0  0  0  0
   21.9127  -21.7718  -14.3829 C   0  0  2  0  0  0  0  0  0  0  0  0
   20.6486  -21.3951  -15.1248 C   0  0  0  0  0  0  0  0  0  0  0  0
   22.0395  -20.9989  -13.0882 C   0  0  2  0  0  0  0  0  0  0  0  0
   23.2538  -21.3539  -12.3796 N   0  0  0  0  0  0  0  0  0  0  0  0
   20.8916  -21.2337  -12.1882 C   0  0  0  0  0  0  0  0  0  0  0  0
   20.8285  -22.3052  -11.5426 O   0  0  0  0  0  0  0  0  0  0  0  0
   19.8714  -20.3106  -12.0256 O   0  0  0  0  0  0  0  0  0  0  0  0
  2  1  1  6
  2  3  1  0
  4  2  1  0
  4  5  1  6
  6 13  1  0
  6  4  1  0
  7  6  2  0
  8  9  1  0
  9 10  1  0
 10 12  1  0
 10 11  1  1
 12 13  1  6
 12 14  1  0
 14 20  1  0
 15 14  2  0
 17 18  1  6
 17 16  1  0
 19 21  1  0
 19 17  1  0
 19 20  1  1
 21 23  1  0
 22 21  2  0
M  END
$$$$
