VIV.pdb
     RDKit          3D

 23 22  0  0  1  0  0  0  0  0999 V2000
   13.7296  -21.4787   -1.9164 C   0  0  0  0  0  0  0  0  0  0  0  0
   14.5373  -22.7109   -2.2574 C   0  0  2  0  0  0  0  0  0  0  0  0
   14.5244  -22.8940   -3.7419 C   0  0  0  0  0  0  0  0  0  0  0  0
   13.9908  -23.9346   -1.5397 C   0  0  2  0  0  0  0  0  0  0  0  0
   12.6094  -24.1725   -1.8976 N   0  0  0  0  0  0  0  0  0  0  0  0
   14.0646  -23.7775   -0.0730 C   0  0  0  0  0  0  0  0  0  0  0  0
   13.0107  -23.8461    0.5997 O   0  0  0  0  0  0  0  0  0  0  0  0
   15.9222  -27.1332    3.0233 C   0  0  0  0  0  0  0  0  0  0  0  0
   15.1583  -25.9604    2.4413 C   0  0  0  0  0  0  0  0  0  0  0  0
   15.9995  -24.7231    2.6536 C   0  0  2  0  0  0  0  0  0  0  0  0
   16.1409  -24.4952    4.1495 C   0  0  0  0  0  0  0  0  0  0  0  0
   15.3242  -23.4871    2.0888 C   0  0  2  0  0  0  0  0  0  0  0  0
   15.2757  -23.5488    0.6444 N   0  0  0  0  0  0  0  0  0  0  0  0
   16.0462  -22.2480    2.5412 C   0  0  0  0  0  0  0  0  0  0  0  0
   17.2352  -22.0352    2.1918 O   0  0  0  0  0  0  0  0  0  0  0  0
   13.9375  -18.9482    4.2237 C   0  0  0  0  0  0  0  0  0  0  0  0
   15.2087  -18.8492    3.4300 C   0  0  2  0  0  0  0  0  0  0  0  0
   14.8577  -18.8144    1.9583 C   0  0  0  0  0  0  0  0  0  0  0  0
   16.0683  -20.0499    3.7604 C   0  0  2  0  0  0  0  0  0  0  0  0
   15.4196  -21.2861    3.3683 N   0  0  0  0  0  0  0  0  0  0  0  0
   16.3813  -20.1272    5.2022 C   0  0  0  0  0  0  0  0  0  0  0  0
   15.7937  -20.9757    5.9119 O   0  0  0  0  0  0  0  0  0  0  0  0
   17.3060  -19.2933    5.8096 O   0  0  0  0  0  0  0  0  0  0  0  0
  2  1  1  6
  2  3  1  0
  4  2  1  0
  4  5  1  1
  6 13  1  0
  6  4  1  0
  7  6  2  0
  8  9  1  0
  9 10  1  0
 10 12  1  0
 10 11  1  1
 12 13  1  6
 12 14  1  0
 14 20  1  0
 15 14  2  0
 17 18  1  6
 17 16  1  0
 19 21  1  0
 19 17  1  0
 19 20  1  1
 21 23  1  0
 22 21  2  0
M  END
$$$$
