VIV.pdb
     RDKit          3D

 23 22  0  0  1  0  0  0  0  0999 V2000
   25.3070  -19.5767  -15.7920 C   0  0  0  0  0  0  0  0  0  0  0  0
   26.7212  -19.1020  -16.0408 C   0  0  2  0  0  0  0  0  0  0  0  0
   26.7675  -18.4166  -17.3696 C   0  0  0  0  0  0  0  0  0  0  0  0
   27.7027  -20.2612  -15.9766 C   0  0  2  0  0  0  0  0  0  0  0  0
   27.4031  -21.2516  -16.9876 N   0  0  0  0  0  0  0  0  0  0  0  0
   27.6671  -20.9257  -14.6580 C   0  0  0  0  0  0  0  0  0  0  0  0
   26.8591  -21.8639  -14.4716 O   0  0  0  0  0  0  0  0  0  0  0  0
   31.9824  -21.5573  -11.2853 C   0  0  0  0  0  0  0  0  0  0  0  0
   30.7097  -21.8400  -12.0586 C   0  0  0  0  0  0  0  0  0  0  0  0
   29.6092  -21.0133  -11.4351 C   0  0  2  0  0  0  0  0  0  0  0  0
   29.3095  -21.5817  -10.0579 C   0  0  0  0  0  0  0  0  0  0  0  0
   28.3216  -21.1082  -12.2326 C   0  0  2  0  0  0  0  0  0  0  0  0
   28.5049  -20.5666  -13.5613 N   0  0  0  0  0  0  0  0  0  0  0  0
   27.2125  -20.3882  -11.5164 C   0  0  0  0  0  0  0  0  0  0  0  0
   27.2028  -19.1327  -11.4474 O   0  0  0  0  0  0  0  0  0  0  0  0
   23.6729  -20.4341  -12.1982 C   0  0  0  0  0  0  0  0  0  0  0  0
   23.7229  -20.8225  -10.7483 C   0  0  2  0  0  0  0  0  0  0  0  0
   22.6008  -20.1149  -10.0198 C   0  0  0  0  0  0  0  0  0  0  0  0
   25.0735  -20.4213  -10.1965 C   0  0  2  0  0  0  0  0  0  0  0  0
   26.1501  -21.0909  -10.9004 N   0  0  0  0  0  0  0  0  0  0  0  0
   25.1978  -20.7301   -8.7571 C   0  0  0  0  0  0  0  0  0  0  0  0
   24.9017  -19.8518   -7.9144 O   0  0  0  0  0  0  0  0  0  0  0  0
   25.6321  -21.9614   -8.2939 O   0  0  0  0  0  0  0  0  0  0  0  0
  2  1  1  6
  2  3  1  0
  4  2  1  0
  4  5  1  6
  6 13  1  0
  6  4  1  0
  7  6  2  0
  8  9  1  0
  9 10  1  0
 10 12  1  0
 10 11  1  1
 12 13  1  6
 12 14  1  0
 14 20  1  0
 15 14  2  0
 17 18  1  1
 17 16  1  0
 19 21  1  0
 19 17  1  0
 19 20  1  6
 21 23  1  0
 22 21  2  0
M  END
$$$$
