MSI.pdb
     RDKit          3D

 23 22  0  0  1  0  0  0  0  0999 V2000
    7.7886  -12.0011   19.4172 C   0  0  0  0  0  0  0  0  0  0  0  0
    8.6557  -13.1349   18.2967 S   0  0  0  0  0  0  0  0  0  0  0  0
    7.6235  -14.6131   18.0680 C   0  0  0  0  0  0  0  0  0  0  0  0
    7.0090  -14.9532   19.3898 C   0  0  0  0  0  0  0  0  0  0  0  0
    7.4506  -16.3452   19.8371 C   0  0  2  0  0  0  0  0  0  0  0  0
    6.7887  -17.3038   19.0107 N   0  0  0  0  0  0  0  0  0  0  0  0
    7.0712  -16.4538   21.2715 C   0  0  0  0  0  0  0  0  0  0  0  0
    5.9393  -16.0241   21.6035 O   0  0  0  0  0  0  0  0  0  0  0  0
    9.2723  -18.6104   24.2914 O   0  0  0  0  0  0  0  0  0  0  0  0
    7.9651  -18.2178   24.4058 C   0  0  0  0  0  0  0  0  0  0  0  0
    7.6405  -16.9307   23.6876 C   0  0  2  0  0  0  0  0  0  0  0  0
    7.9018  -17.0068   22.2726 N   0  0  0  0  0  0  0  0  0  0  0  0
    8.3817  -15.8432   24.3506 C   0  0  0  0  0  0  0  0  0  0  0  0
    9.4863  -15.4516   23.9066 O   0  0  0  0  0  0  0  0  0  0  0  0
    5.9057  -11.8701   27.5757 C   0  0  0  0  0  0  0  0  0  0  0  0
    6.4273  -13.1959   27.0783 C   0  0  0  0  0  0  0  0  0  0  0  0
    7.7410  -13.0075   26.3947 C   0  0  2  0  0  0  0  0  0  0  0  0
    7.5721  -12.4140   24.9993 C   0  0  0  0  0  0  0  0  0  0  0  0
    8.5710  -14.2853   26.3205 C   0  0  2  0  0  0  0  0  0  0  0  0
    7.8178  -15.2434   25.5089 N   0  0  0  0  0  0  0  0  0  0  0  0
    8.8533  -14.8486   27.6638 C   0  0  0  0  0  0  0  0  0  0  0  0
    9.7558  -14.2588   28.5302 O   0  0  0  0  0  0  0  0  0  0  0  0
    8.2753  -15.8927   28.0649 O   0  0  0  0  0  0  0  0  0  0  0  0
  2  1  1  0
  2  3  1  0
  4  5  1  0
  4  3  1  0
  5  6  1  6
  7  5  1  0
  7  8  2  0
  9 10  1  0
 11 10  1  1
 11 13  1  0
 11 12  1  0
 12  7  1  0
 13 20  1  0
 14 13  2  0
 16 15  1  0
 17 18  1  6
 17 16  1  0
 19 17  1  0
 19 20  1  6
 21 22  1  0
 21 19  1  0
 23 21  2  0
M  END
$$$$
