MSI.pdb
     RDKit          3D

 23 22  0  0  1  0  0  0  0  0999 V2000
    7.5709  -12.1432   18.6550 C   0  0  0  0  0  0  0  0  0  0  0  0
    8.1268  -12.2954   20.3756 S   0  0  0  0  0  0  0  0  0  0  0  0
    8.4606  -14.0492   20.7155 C   0  0  0  0  0  0  0  0  0  0  0  0
    7.3655  -14.8549   20.0893 C   0  0  0  0  0  0  0  0  0  0  0  0
    7.6088  -16.3457   20.3150 C   0  0  2  0  0  0  0  0  0  0  0  0
    6.5463  -17.0652   19.6878 N   0  0  0  0  0  0  0  0  0  0  0  0
    7.6480  -16.5354   21.7900 C   0  0  0  0  0  0  0  0  0  0  0  0
    6.5738  -16.3798   22.4209 O   0  0  0  0  0  0  0  0  0  0  0  0
   10.8728  -18.4534   23.8524 O   0  0  0  0  0  0  0  0  0  0  0  0
    9.5687  -18.4173   24.2695 C   0  0  0  0  0  0  0  0  0  0  0  0
    8.8466  -17.1355   23.9329 C   0  0  2  0  0  0  0  0  0  0  0  0
    8.8117  -16.8771   22.5158 N   0  0  0  0  0  0  0  0  0  0  0  0
    9.4768  -16.0464   24.6998 C   0  0  0  0  0  0  0  0  0  0  0  0
   10.4623  -15.4218   24.2421 O   0  0  0  0  0  0  0  0  0  0  0  0
    6.3555  -12.5350   26.7811 C   0  0  0  0  0  0  0  0  0  0  0  0
    7.5708  -13.2231   26.2095 C   0  0  0  0  0  0  0  0  0  0  0  0
    8.4074  -13.7867   27.3100 C   0  0  2  0  0  0  0  0  0  0  0  0
    8.9608  -12.6917   28.2168 C   0  0  0  0  0  0  0  0  0  0  0  0
    9.5438  -14.6733   26.8102 C   0  0  2  0  0  0  0  0  0  0  0  0
    8.9435  -15.7153   25.9747 N   0  0  0  0  0  0  0  0  0  0  0  0
   10.3140  -15.2782   27.9247 C   0  0  0  0  0  0  0  0  0  0  0  0
   11.4269  -14.6601   28.4658 O   0  0  0  0  0  0  0  0  0  0  0  0
    9.9778  -16.3853   28.4210 O   0  0  0  0  0  0  0  0  0  0  0  0
  2  1  1  0
  2  3  1  0
  4  5  1  0
  4  3  1  0
  5  6  1  1
  7  5  1  0
  7  8  2  0
  9 10  1  0
 11 10  1  6
 11 13  1  0
 11 12  1  0
 12  7  1  0
 13 20  1  0
 14 13  2  0
 16 15  1  0
 17 18  1  6
 17 16  1  0
 19 17  1  0
 19 20  1  6
 21 22  1  0
 21 19  1  0
 23 21  2  0
M  END
$$$$
