MSI.pdb
     RDKit          3D

 23 22  0  0  1  0  0  0  0  0999 V2000
   13.1461  -19.3436   22.6502 C   0  0  0  0  0  0  0  0  0  0  0  0
   13.4998  -19.5434   20.8816 S   0  0  0  0  0  0  0  0  0  0  0  0
   12.0232  -19.0498   19.9441 C   0  0  0  0  0  0  0  0  0  0  0  0
   11.0376  -18.4712   20.9108 C   0  0  0  0  0  0  0  0  0  0  0  0
    9.7604  -18.0583   20.1820 C   0  0  2  0  0  0  0  0  0  0  0  0
   10.1369  -17.4216   18.9602 N   0  0  0  0  0  0  0  0  0  0  0  0
    9.0343  -17.1507   21.1106 C   0  0  0  0  0  0  0  0  0  0  0  0
    9.1841  -15.9153   20.9453 O   0  0  0  0  0  0  0  0  0  0  0  0
    6.5704  -18.5692   24.3216 O   0  0  0  0  0  0  0  0  0  0  0  0
    6.2363  -17.4362   23.6284 C   0  0  0  0  0  0  0  0  0  0  0  0
    7.4107  -16.7259   23.0007 C   0  0  2  0  0  0  0  0  0  0  0  0
    8.1941  -17.5930   22.1576 N   0  0  0  0  0  0  0  0  0  0  0  0
    8.1995  -16.1118   24.0833 C   0  0  0  0  0  0  0  0  0  0  0  0
    9.2644  -16.6377   24.4834 O   0  0  0  0  0  0  0  0  0  0  0  0
    5.9869  -11.6361   27.0854 C   0  0  0  0  0  0  0  0  0  0  0  0
    6.3955  -12.9679   26.5053 C   0  0  0  0  0  0  0  0  0  0  0  0
    7.7952  -12.8967   25.9910 C   0  0  2  0  0  0  0  0  0  0  0  0
    7.8842  -12.0799   24.7055 C   0  0  0  0  0  0  0  0  0  0  0  0
    8.4316  -14.2674   25.7827 C   0  0  2  0  0  0  0  0  0  0  0  0
    7.7280  -14.9057   24.6684 N   0  0  0  0  0  0  0  0  0  0  0  0
    8.3542  -15.1118   27.0002 C   0  0  0  0  0  0  0  0  0  0  0  0
    9.2459  -14.9693   28.0480 O   0  0  0  0  0  0  0  0  0  0  0  0
    7.4657  -15.9954   27.1226 O   0  0  0  0  0  0  0  0  0  0  0  0
  2  1  1  0
  2  3  1  0
  4  5  1  0
  4  3  1  0
  5  6  1  6
  7  5  1  0
  7  8  2  0
  9 10  1  0
 11 10  1  1
 11 13  1  0
 11 12  1  0
 12  7  1  0
 13 20  1  0
 14 13  2  0
 16 15  1  0
 17 18  1  6
 17 16  1  0
 19 17  1  0
 19 20  1  6
 21 22  1  0
 21 19  1  0
 23 21  2  0
M  END
$$$$
