MSI.pdb
     RDKit          3D

 23 22  0  0  1  0  0  0  0  0999 V2000
    8.8549  -11.9843   19.4117 C   0  0  0  0  0  0  0  0  0  0  0  0
    8.4293  -12.8769   17.8901 S   0  0  0  0  0  0  0  0  0  0  0  0
    8.5360  -14.6600   18.2246 C   0  0  0  0  0  0  0  0  0  0  0  0
    7.5999  -14.9730   19.3499 C   0  0  0  0  0  0  0  0  0  0  0  0
    7.7272  -16.4409   19.7523 C   0  0  2  0  0  0  0  0  0  0  0  0
    6.9938  -17.2216   18.8075 N   0  0  0  0  0  0  0  0  0  0  0  0
    7.1814  -16.5357   21.1330 C   0  0  0  0  0  0  0  0  0  0  0  0
    5.9655  -16.2673   21.2929 O   0  0  0  0  0  0  0  0  0  0  0  0
    8.6865  -18.6903   24.4223 O   0  0  0  0  0  0  0  0  0  0  0  0
    7.4933  -18.0181   24.4047 C   0  0  0  0  0  0  0  0  0  0  0  0
    7.5239  -16.7231   23.6303 C   0  0  2  0  0  0  0  0  0  0  0  0
    7.9436  -16.9064   22.2641 N   0  0  0  0  0  0  0  0  0  0  0  0
    8.3744  -15.7737   24.3697 C   0  0  0  0  0  0  0  0  0  0  0  0
    9.5489  -15.5383   24.0015 O   0  0  0  0  0  0  0  0  0  0  0  0
    5.8213  -12.1751   27.9880 C   0  0  0  0  0  0  0  0  0  0  0  0
    6.5639  -13.4051   27.5267 C   0  0  0  0  0  0  0  0  0  0  0  0
    7.7172  -13.0152   26.6627 C   0  0  2  0  0  0  0  0  0  0  0  0
    7.2572  -12.3097   25.3906 C   0  0  0  0  0  0  0  0  0  0  0  0
    8.6284  -14.1863   26.3087 C   0  0  2  0  0  0  0  0  0  0  0  0
    7.8352  -15.1264   25.5141 N   0  0  0  0  0  0  0  0  0  0  0  0
    9.1751  -14.8553   27.5149 C   0  0  0  0  0  0  0  0  0  0  0  0
   10.1492  -14.2663   28.3006 O   0  0  0  0  0  0  0  0  0  0  0  0
    8.7671  -15.9928   27.8680 O   0  0  0  0  0  0  0  0  0  0  0  0
  2  1  1  0
  2  3  1  0
  4  5  1  0
  4  3  1  0
  5  6  1  6
  7  5  1  0
  7  8  2  0
  9 10  1  0
 11 10  1  1
 11 13  1  0
 11 12  1  0
 12  7  1  0
 13 20  1  0
 14 13  2  0
 16 15  1  0
 17 18  1  6
 17 16  1  0
 19 17  1  0
 19 20  1  1
 21 22  1  0
 21 19  1  0
 23 21  2  0
M  END
$$$$
