MSI.pdb
     RDKit          3D

 23 22  0  0  1  0  0  0  0  0999 V2000
    7.4360  -11.7690   20.1097 C   0  0  0  0  0  0  0  0  0  0  0  0
    8.2406  -12.4887   18.6512 S   0  0  0  0  0  0  0  0  0  0  0  0
    8.0873  -14.2970   18.7476 C   0  0  0  0  0  0  0  0  0  0  0  0
    7.9469  -14.6696   20.1905 C   0  0  0  0  0  0  0  0  0  0  0  0
    7.8158  -16.1844   20.3363 C   0  0  2  0  0  0  0  0  0  0  0  0
    6.6026  -16.5848   19.6976 N   0  0  0  0  0  0  0  0  0  0  0  0
    7.8201  -16.4569   21.7988 C   0  0  0  0  0  0  0  0  0  0  0  0
    6.7933  -16.1404   22.4481 O   0  0  0  0  0  0  0  0  0  0  0  0
    9.8624  -18.6789   25.6469 O   0  0  0  0  0  0  0  0  0  0  0  0
    9.8022  -18.4407   24.2995 C   0  0  0  0  0  0  0  0  0  0  0  0
    8.9382  -17.2637   23.9172 C   0  0  2  0  0  0  0  0  0  0  0  0
    8.9014  -17.0452   22.4934 N   0  0  0  0  0  0  0  0  0  0  0  0
    9.4173  -16.0885   24.6662 C   0  0  0  0  0  0  0  0  0  0  0  0
   10.4048  -15.4281   24.2671 O   0  0  0  0  0  0  0  0  0  0  0  0
    6.3531  -12.2638   26.2744 C   0  0  0  0  0  0  0  0  0  0  0  0
    7.5383  -13.1114   25.8819 C   0  0  0  0  0  0  0  0  0  0  0  0
    8.1456  -13.7381   27.0932 C   0  0  2  0  0  0  0  0  0  0  0  0
    8.6276  -12.6892   28.0907 C   0  0  0  0  0  0  0  0  0  0  0  0
    9.2781  -14.7068   26.7675 C   0  0  2  0  0  0  0  0  0  0  0  0
    8.7350  -15.7158   25.8558 N   0  0  0  0  0  0  0  0  0  0  0  0
    9.8334  -15.3489   27.9843 C   0  0  0  0  0  0  0  0  0  0  0  0
    9.4938  -16.6384   28.3516 O   0  0  0  0  0  0  0  0  0  0  0  0
   10.6407  -14.7361   28.7313 O   0  0  0  0  0  0  0  0  0  0  0  0
  2  1  1  0
  2  3  1  0
  4  5  1  0
  4  3  1  0
  5  6  1  1
  7  5  1  0
  7  8  2  0
  9 10  1  0
 11 10  1  6
 11 13  1  0
 11 12  1  0
 12  7  1  0
 13 20  1  0
 14 13  2  0
 16 15  1  0
 17 18  1  1
 17 16  1  0
 19 17  1  0
 19 20  1  6
 21 22  1  0
 21 19  1  0
 23 21  2  0
M  END
$$$$
