MSI.pdb
     RDKit          3D

 23 22  0  0  1  0  0  0  0  0999 V2000
    8.6373  -11.8785   19.7827 C   0  0  0  0  0  0  0  0  0  0  0  0
    8.0230  -12.7553   18.3176 S   0  0  0  0  0  0  0  0  0  0  0  0
    8.2356  -14.5397   18.5884 C   0  0  0  0  0  0  0  0  0  0  0  0
    7.3770  -14.9335   19.7496 C   0  0  0  0  0  0  0  0  0  0  0  0
    7.5487  -16.4201   20.0555 C   0  0  2  0  0  0  0  0  0  0  0  0
    6.8657  -17.1598   19.0425 N   0  0  0  0  0  0  0  0  0  0  0  0
    6.9759  -16.6275   21.4127 C   0  0  0  0  0  0  0  0  0  0  0  0
    5.7768  -16.3004   21.5895 O   0  0  0  0  0  0  0  0  0  0  0  0
    8.4389  -19.0401   24.6020 O   0  0  0  0  0  0  0  0  0  0  0  0
    7.2589  -18.3448   24.6113 C   0  0  0  0  0  0  0  0  0  0  0  0
    7.3143  -17.0223   23.8863 C   0  0  2  0  0  0  0  0  0  0  0  0
    7.6950  -17.1658   22.5040 N   0  0  0  0  0  0  0  0  0  0  0  0
    8.2133  -16.1305   24.6398 C   0  0  0  0  0  0  0  0  0  0  0  0
    9.3616  -15.8634   24.2146 O   0  0  0  0  0  0  0  0  0  0  0  0
    6.0670  -11.8758   26.8806 C   0  0  0  0  0  0  0  0  0  0  0  0
    7.0433  -12.8283   26.2351 C   0  0  0  0  0  0  0  0  0  0  0  0
    7.7462  -13.6302   27.2799 C   0  0  2  0  0  0  0  0  0  0  0  0
    8.5763  -12.7472   28.2066 C   0  0  0  0  0  0  0  0  0  0  0  0
    8.6159  -14.7427   26.7027 C   0  0  2  0  0  0  0  0  0  0  0  0
    7.7518  -15.5757   25.8640 N   0  0  0  0  0  0  0  0  0  0  0  0
    9.2575  -15.5591   27.7625 C   0  0  0  0  0  0  0  0  0  0  0  0
    8.7322  -16.7715   28.1715 O   0  0  0  0  0  0  0  0  0  0  0  0
   10.3122  -15.1726   28.3311 O   0  0  0  0  0  0  0  0  0  0  0  0
  2  1  1  0
  2  3  1  0
  4  5  1  0
  4  3  1  0
  5  6  1  6
  7  5  1  0
  7  8  2  0
  9 10  1  0
 11 10  1  1
 11 13  1  0
 11 12  1  0
 12  7  1  0
 13 20  1  0
 14 13  2  0
 16 15  1  0
 17 18  1  6
 17 16  1  0
 19 17  1  0
 19 20  1  1
 21 22  1  0
 21 19  1  0
 23 21  2  0
M  END
$$$$
