MSI.pdb
     RDKit          3D

 23 22  0  0  1  0  0  0  0  0999 V2000
    7.7144  -11.5730   20.1377 C   0  0  0  0  0  0  0  0  0  0  0  0
    8.3503  -12.5939   18.7790 S   0  0  0  0  0  0  0  0  0  0  0  0
    7.4981  -14.1984   18.8224 C   0  0  0  0  0  0  0  0  0  0  0  0
    7.3373  -14.5944   20.2569 C   0  0  0  0  0  0  0  0  0  0  0  0
    8.0109  -15.9410   20.5136 C   0  0  2  0  0  0  0  0  0  0  0  0
    7.3484  -16.9237   19.7165 N   0  0  0  0  0  0  0  0  0  0  0  0
    7.8799  -16.1925   21.9740 C   0  0  0  0  0  0  0  0  0  0  0  0
    6.9575  -15.5963   22.5821 O   0  0  0  0  0  0  0  0  0  0  0  0
   10.5919  -18.6933   24.2288 O   0  0  0  0  0  0  0  0  0  0  0  0
    9.2746  -18.5503   24.5756 C   0  0  0  0  0  0  0  0  0  0  0  0
    8.6574  -17.2449   24.1366 C   0  0  2  0  0  0  0  0  0  0  0  0
    8.7243  -17.0546   22.7099 N   0  0  0  0  0  0  0  0  0  0  0  0
    9.3086  -16.1599   24.8917 C   0  0  0  0  0  0  0  0  0  0  0  0
   10.3534  -15.6146   24.4656 O   0  0  0  0  0  0  0  0  0  0  0  0
    6.7569  -12.0223   26.4937 C   0  0  0  0  0  0  0  0  0  0  0  0
    7.8263  -13.0118   26.1007 C   0  0  0  0  0  0  0  0  0  0  0  0
    8.3770  -13.6828   27.3153 C   0  0  2  0  0  0  0  0  0  0  0  0
    8.9827  -12.6778   28.2904 C   0  0  0  0  0  0  0  0  0  0  0  0
    9.3934  -14.7738   26.9930 C   0  0  2  0  0  0  0  0  0  0  0  0
    8.7267  -15.7408   26.1186 N   0  0  0  0  0  0  0  0  0  0  0  0
    9.9045  -15.4420   28.2151 C   0  0  0  0  0  0  0  0  0  0  0  0
   11.0462  -15.0077   28.8640 O   0  0  0  0  0  0  0  0  0  0  0  0
    9.3106  -16.4366   28.7083 O   0  0  0  0  0  0  0  0  0  0  0  0
  2  1  1  0
  2  3  1  0
  4  5  1  0
  4  3  1  0
  5  6  1  6
  7  5  1  0
  7  8  2  0
  9 10  1  0
 11 10  1  6
 11 13  1  0
 11 12  1  0
 12  7  1  0
 13 20  1  0
 14 13  2  0
 16 15  1  0
 17 18  1  1
 17 16  1  0
 19 17  1  0
 19 20  1  6
 21 22  1  0
 21 19  1  0
 23 21  2  0
M  END
$$$$
