MSI.pdb
     RDKit          3D

 23 22  0  0  1  0  0  0  0  0999 V2000
    8.4063  -12.1050   19.8303 C   0  0  0  0  0  0  0  0  0  0  0  0
    7.9599  -13.0128   18.3238 S   0  0  0  0  0  0  0  0  0  0  0  0
    7.3505  -14.6557   18.8059 C   0  0  0  0  0  0  0  0  0  0  0  0
    8.5384  -15.5360   19.0390 C   0  0  0  0  0  0  0  0  0  0  0  0
    8.0898  -16.9172   19.5120 C   0  0  2  0  0  0  0  0  0  0  0  0
    7.1119  -17.4020   18.5908 N   0  0  0  0  0  0  0  0  0  0  0  0
    7.5499  -16.7245   20.8848 C   0  0  0  0  0  0  0  0  0  0  0  0
    6.4202  -16.1874   20.9908 O   0  0  0  0  0  0  0  0  0  0  0  0
    9.0840  -18.5906   24.4393 O   0  0  0  0  0  0  0  0  0  0  0  0
    7.8180  -18.0951   24.2733 C   0  0  0  0  0  0  0  0  0  0  0  0
    7.7441  -16.8657   23.4010 C   0  0  2  0  0  0  0  0  0  0  0  0
    8.2272  -17.1067   22.0650 N   0  0  0  0  0  0  0  0  0  0  0  0
    8.4681  -15.7805   24.0863 C   0  0  0  0  0  0  0  0  0  0  0  0
    9.5961  -15.4063   23.6887 O   0  0  0  0  0  0  0  0  0  0  0  0
    5.9409  -11.9323   27.4848 C   0  0  0  0  0  0  0  0  0  0  0  0
    6.3644  -13.1534   26.7058 C   0  0  0  0  0  0  0  0  0  0  0  0
    7.6897  -12.9172   26.0606 C   0  0  2  0  0  0  0  0  0  0  0  0
    7.5399  -12.3330   24.6592 C   0  0  0  0  0  0  0  0  0  0  0  0
    8.5687  -14.1632   26.0145 C   0  0  2  0  0  0  0  0  0  0  0  0
    7.8601  -15.1625   25.2124 N   0  0  0  0  0  0  0  0  0  0  0  0
    8.8601  -14.6935   27.3692 C   0  0  0  0  0  0  0  0  0  0  0  0
    8.3514  -15.9029   27.8070 O   0  0  0  0  0  0  0  0  0  0  0  0
    9.5875  -14.0548   28.1742 O   0  0  0  0  0  0  0  0  0  0  0  0
  2  1  1  0
  2  3  1  0
  4  5  1  0
  4  3  1  0
  5  6  1  6
  7  5  1  0
  7  8  2  0
  9 10  1  0
 11 10  1  1
 11 13  1  0
 11 12  1  0
 12  7  1  0
 13 20  1  0
 14 13  2  0
 16 15  1  0
 17 18  1  6
 17 16  1  0
 19 17  1  0
 19 20  1  6
 21 22  1  0
 21 19  1  0
 23 21  2  0
M  END
$$$$
