MSI.pdb
     RDKit          3D

 23 22  0  0  1  0  0  0  0  0999 V2000
    7.1840  -12.0409   18.9517 C   0  0  0  0  0  0  0  0  0  0  0  0
    7.5908  -13.2099   17.6247 S   0  0  0  0  0  0  0  0  0  0  0  0
    8.3790  -14.6682   18.3695 C   0  0  0  0  0  0  0  0  0  0  0  0
    8.2278  -14.5637   19.8550 C   0  0  0  0  0  0  0  0  0  0  0  0
    8.9486  -15.7208   20.5438 C   0  0  2  0  0  0  0  0  0  0  0  0
    8.6342  -16.9200   19.8345 N   0  0  0  0  0  0  0  0  0  0  0  0
    8.4583  -15.7306   21.9483 C   0  0  0  0  0  0  0  0  0  0  0  0
    8.5688  -14.6669   22.6058 O   0  0  0  0  0  0  0  0  0  0  0  0
    8.1290  -19.1690   24.4298 O   0  0  0  0  0  0  0  0  0  0  0  0
    7.0829  -18.2852   24.4073 C   0  0  0  0  0  0  0  0  0  0  0  0
    7.4573  -16.8945   23.9564 C   0  0  2  0  0  0  0  0  0  0  0  0
    7.8811  -16.8557   22.5797 N   0  0  0  0  0  0  0  0  0  0  0  0
    8.4770  -16.3766   24.8857 C   0  0  0  0  0  0  0  0  0  0  0  0
    9.6990  -16.5089   24.6412 O   0  0  0  0  0  0  0  0  0  0  0  0
    6.5080  -12.1553   27.5082 C   0  0  0  0  0  0  0  0  0  0  0  0
    7.4341  -13.0556   26.7277 C   0  0  0  0  0  0  0  0  0  0  0  0
    8.2151  -13.9217   27.6597 C   0  0  2  0  0  0  0  0  0  0  0  0
    9.1588  -13.1028   28.5351 C   0  0  0  0  0  0  0  0  0  0  0  0
    8.9906  -15.0266   26.9491 C   0  0  2  0  0  0  0  0  0  0  0  0
    8.0467  -15.7207   26.0707 N   0  0  0  0  0  0  0  0  0  0  0  0
    9.6110  -15.9783   27.9033 C   0  0  0  0  0  0  0  0  0  0  0  0
    9.0038  -17.1732   28.2447 O   0  0  0  0  0  0  0  0  0  0  0  0
   10.7222  -15.7285   28.4400 O   0  0  0  0  0  0  0  0  0  0  0  0
  2  1  1  0
  2  3  1  0
  4  5  1  0
  4  3  1  0
  5  6  1  6
  7  5  1  0
  7  8  2  0
  9 10  1  0
 11 10  1  1
 11 13  1  0
 11 12  1  0
 12  7  1  0
 13 20  1  0
 14 13  2  0
 16 15  1  0
 17 18  1  6
 17 16  1  0
 19 17  1  0
 19 20  1  6
 21 22  1  0
 21 19  1  0
 23 21  2  0
M  END
$$$$
