MSI.pdb
     RDKit          3D

 23 22  0  0  1  0  0  0  0  0999 V2000
    6.5618  -19.0207   28.4972 C   0  0  0  0  0  0  0  0  0  0  0  0
    8.1383  -19.8013   28.0522 S   0  0  0  0  0  0  0  0  0  0  0  0
    8.0493  -20.3179   26.3121 C   0  0  0  0  0  0  0  0  0  0  0  0
    7.2864  -19.2718   25.5609 C   0  0  0  0  0  0  0  0  0  0  0  0
    7.3181  -19.5664   24.0625 C   0  0  2  0  0  0  0  0  0  0  0  0
    8.0272  -20.7910   23.8694 N   0  0  0  0  0  0  0  0  0  0  0  0
    7.9902  -18.3996   23.4300 C   0  0  0  0  0  0  0  0  0  0  0  0
    9.2455  -18.3963   23.4119 O   0  0  0  0  0  0  0  0  0  0  0  0
    5.7763  -15.1547   21.9052 O   0  0  0  0  0  0  0  0  0  0  0  0
    7.0109  -15.3829   21.3579 C   0  0  0  0  0  0  0  0  0  0  0  0
    7.9462  -16.1668   22.2460 C   0  0  2  0  0  0  0  0  0  0  0  0
    7.3056  -17.3054   22.8540 N   0  0  0  0  0  0  0  0  0  0  0  0
    8.5195  -15.2354   23.2335 C   0  0  0  0  0  0  0  0  0  0  0  0
    9.2026  -14.2497   22.8694 O   0  0  0  0  0  0  0  0  0  0  0  0
    5.4323  -12.7045   25.9762 C   0  0  0  0  0  0  0  0  0  0  0  0
    6.6640  -13.2406   25.2886 C   0  0  0  0  0  0  0  0  0  0  0  0
    7.5614  -13.9004   26.2827 C   0  0  2  0  0  0  0  0  0  0  0  0
    8.0074  -12.9305   27.3726 C   0  0  0  0  0  0  0  0  0  0  0  0
    8.7782  -14.5664   25.6478 C   0  0  2  0  0  0  0  0  0  0  0  0
    8.2822  -15.4767   24.6137 N   0  0  0  0  0  0  0  0  0  0  0  0
    9.5959  -15.3035   26.6424 C   0  0  0  0  0  0  0  0  0  0  0  0
   10.7296  -14.7519   27.2114 O   0  0  0  0  0  0  0  0  0  0  0  0
    9.2829  -16.4675   27.0062 O   0  0  0  0  0  0  0  0  0  0  0  0
  2  1  1  0
  2  3  1  0
  4  5  1  0
  4  3  1  0
  5  6  1  1
  7  5  1  0
  7  8  2  0
  9 10  1  0
 11 10  1  1
 11 13  1  0
 11 12  1  0
 12  7  1  0
 13 20  1  0
 14 13  2  0
 16 15  1  0
 17 18  1  1
 17 16  1  0
 19 17  1  0
 19 20  1  6
 21 22  1  0
 21 19  1  0
 23 21  2  0
M  END
$$$$
