KCY.pdb
     RDKit          3D

 28 28  0  0  1  0  0  0  0  0999 V2000
   21.2008  -17.3236  -14.4277 N   0  0  0  0  0  0  0  0  0  0  0  0
   21.2241  -18.3932  -15.4009 C   0  0  1  0  0  0  0  0  0  0  0  0
   20.3421  -18.0358  -16.5602 C   0  0  0  0  0  0  0  0  0  0  0  0
   19.1734  -17.2302  -16.0570 C   0  0  0  0  0  0  0  0  0  0  0  0
   19.4471  -15.7653  -16.2146 C   0  0  0  0  0  0  0  0  0  0  0  0
   18.2615  -14.9224  -15.7724 C   0  0  0  0  0  0  0  0  0  0  0  0
   18.6286  -13.5324  -15.9725 N   0  0  0  0  0  0  0  0  0  0  0  0
   22.6242  -18.5407  -15.9439 C   0  0  0  0  0  0  0  0  0  0  0  0
   22.9034  -19.3509  -16.8552 O   0  0  0  0  0  0  0  0  0  0  0  0
   23.6640  -17.7359  -15.4067 N   0  0  0  0  0  0  0  0  0  0  0  0
   24.9946  -17.8500  -15.9731 C   0  0  1  0  0  0  0  0  0  0  0  0
   25.8073  -16.5908  -15.6763 C   0  0  0  0  0  0  0  0  0  0  0  0
   25.5334  -15.3367  -16.9493 S   0  0  0  0  0  0  0  0  0  0  0  0
   25.6925  -18.9582  -15.2259 C   0  0  0  0  0  0  0  0  0  0  0  0
   26.0442  -18.8223  -14.0232 O   0  0  0  0  0  0  0  0  0  0  0  0
   23.0442  -20.4640  -10.0436 O   0  0  0  0  0  0  0  0  0  0  0  0
   23.7396  -20.9302  -11.1742 C   0  0  0  0  0  0  0  0  0  0  0  0
   23.0598  -20.8787  -12.3661 C   0  0  0  0  0  0  0  0  0  0  0  0
   23.6901  -21.3261  -13.5323 C   0  0  0  0  0  0  0  0  0  0  0  0
   24.9662  -21.8023  -13.4522 C   0  0  0  0  0  0  0  0  0  0  0  0
   25.6654  -22.2811  -14.6572 C   0  0  0  0  0  0  0  0  0  0  0  0
   26.6654  -21.2307  -15.0845 C   0  0  2  0  0  0  0  0  0  0  0  0
   25.9830  -20.1969  -15.8404 N   0  0  0  0  0  0  0  0  0  0  0  0
   27.7328  -21.7693  -15.9636 C   0  0  0  0  0  0  0  0  0  0  0  0
   27.6785  -21.5547  -17.2016 O   0  0  0  0  0  0  0  0  0  0  0  0
   25.6248  -21.8425  -12.2416 C   0  0  0  0  0  0  0  0  0  0  0  0
   25.0298  -21.4071  -11.0666 C   0  0  0  0  0  0  0  0  0  0  0  0
   28.8131  -22.5110  -15.5054 O   0  0  0  0  0  0  0  0  0  0  0  0
  2  1  1  1
  3  2  1  0
  4  5  1  0
  4  3  1  0
  5  6  1  0
  7  6  1  0
  8 10  1  0
  8  2  1  0
  9  8  2  0
 11 10  1  0
 11 12  1  1
 13 12  1  0
 14 11  1  0
 15 14  2  0
 16 17  1  0
 17 27  2  0
 17 18  1  0
 18 19  2  0
 19 20  1  0
 20 21  1  0
 22 21  1  6
 22 24  1  0
 22 23  1  0
 23 14  1  0
 24 28  1  0
 25 24  2  0
 26 20  2  0
 27 26  1  0
M  END
$$$$
