KCY.pdb
     RDKit          3D

 28 28  0  0  1  0  0  0  0  0999 V2000
   30.5366  -30.7680  -17.2372 N   0  0  0  0  0  0  0  0  0  0  0  0
   29.1728  -30.5777  -16.7953 C   0  0  1  0  0  0  0  0  0  0  0  0
   28.3614  -29.9892  -17.9111 C   0  0  0  0  0  0  0  0  0  0  0  0
   28.6517  -28.5144  -18.0033 C   0  0  0  0  0  0  0  0  0  0  0  0
   27.7513  -27.7500  -17.0810 C   0  0  0  0  0  0  0  0  0  0  0  0
   27.9428  -26.2487  -17.2267 C   0  0  0  0  0  0  0  0  0  0  0  0
   26.9793  -25.6091  -16.3497 N   0  0  0  0  0  0  0  0  0  0  0  0
   28.5638  -31.9196  -16.4704 C   0  0  0  0  0  0  0  0  0  0  0  0
   28.7362  -32.9230  -17.1972 O   0  0  0  0  0  0  0  0  0  0  0  0
   27.7673  -32.0543  -15.3020 N   0  0  0  0  0  0  0  0  0  0  0  0
   27.1957  -33.3520  -14.9963 C   0  0  1  0  0  0  0  0  0  0  0  0
   26.8953  -33.4608  -13.5023 C   0  0  0  0  0  0  0  0  0  0  0  0
   26.1813  -35.0743  -13.1082 S   0  0  0  0  0  0  0  0  0  0  0  0
   25.8511  -33.4069  -15.6765 C   0  0  0  0  0  0  0  0  0  0  0  0
   25.0665  -32.4206  -15.6658 O   0  0  0  0  0  0  0  0  0  0  0  0
   25.3941  -29.8439  -20.7643 O   0  0  0  0  0  0  0  0  0  0  0  0
   25.0472  -31.0678  -20.1635 C   0  0  0  0  0  0  0  0  0  0  0  0
   25.9794  -32.0719  -20.2545 C   0  0  0  0  0  0  0  0  0  0  0  0
   25.7015  -33.3166  -19.6794 C   0  0  0  0  0  0  0  0  0  0  0  0
   24.5087  -33.4983  -19.0424 C   0  0  0  0  0  0  0  0  0  0  0  0
   24.1787  -34.7933  -18.4225 C   0  0  0  0  0  0  0  0  0  0  0  0
   24.0779  -34.6004  -16.9263 C   0  0  2  0  0  0  0  0  0  0  0  0
   25.4115  -34.5655  -16.3554 N   0  0  0  0  0  0  0  0  0  0  0  0
   23.3507  -35.7014  -16.2470 C   0  0  0  0  0  0  0  0  0  0  0  0
   22.1458  -35.9153  -16.5369 O   0  0  0  0  0  0  0  0  0  0  0  0
   23.5910  -32.4721  -18.9664 C   0  0  0  0  0  0  0  0  0  0  0  0
   23.8342  -31.2260  -19.5253 C   0  0  0  0  0  0  0  0  0  0  0  0
   23.9197  -36.5319  -15.2912 O   0  0  0  0  0  0  0  0  0  0  0  0
  2  1  1  6
  3  2  1  0
  4  5  1  0
  4  3  1  0
  5  6  1  0
  7  6  1  0
  8 10  1  0
  8  2  1  0
  9  8  2  0
 11 10  1  0
 11 12  1  1
 13 12  1  0
 14 11  1  0
 15 14  2  0
 16 17  1  0
 17 27  2  0
 17 18  1  0
 18 19  2  0
 19 20  1  0
 20 21  1  0
 22 21  1  6
 22 24  1  0
 22 23  1  0
 23 14  1  0
 24 28  1  0
 25 24  2  0
 26 20  2  0
 27 26  1  0
M  END
$$$$
