KCY.pdb
     RDKit          3D

 28 28  0  0  1  0  0  0  0  0999 V2000
   27.9240  -19.9482  -18.0752 N   0  0  0  0  0  0  0  0  0  0  0  0
   28.2343  -19.1259  -16.9267 C   0  0  1  0  0  0  0  0  0  0  0  0
   27.2906  -17.9612  -16.8741 C   0  0  0  0  0  0  0  0  0  0  0  0
   25.8766  -18.4715  -16.9643 C   0  0  0  0  0  0  0  0  0  0  0  0
   25.1036  -17.6813  -17.9761 C   0  0  0  0  0  0  0  0  0  0  0  0
   23.6497  -18.1213  -18.0399 C   0  0  0  0  0  0  0  0  0  0  0  0
   22.9955  -17.6044  -16.8518 N   0  0  0  0  0  0  0  0  0  0  0  0
   28.0130  -19.9271  -15.6673 C   0  0  0  0  0  0  0  0  0  0  0  0
   27.1444  -20.8241  -15.5924 O   0  0  0  0  0  0  0  0  0  0  0  0
   28.8144  -19.6588  -14.5257 N   0  0  0  0  0  0  0  0  0  0  0  0
   28.6217  -20.4659  -13.3359 C   0  0  1  0  0  0  0  0  0  0  0  0
   29.7589  -20.2283  -12.3437 C   0  0  0  0  0  0  0  0  0  0  0  0
   29.4281  -21.0678  -10.7771 S   0  0  0  0  0  0  0  0  0  0  0  0
   27.3829  -19.9450  -12.6520 C   0  0  0  0  0  0  0  0  0  0  0  0
   27.1077  -18.7152  -12.6346 O   0  0  0  0  0  0  0  0  0  0  0  0
   19.2759  -21.3927  -10.2246 O   0  0  0  0  0  0  0  0  0  0  0  0
   20.5272  -20.9767  -10.7149 C   0  0  0  0  0  0  0  0  0  0  0  0
   21.0882  -21.7662  -11.6883 C   0  0  0  0  0  0  0  0  0  0  0  0
   22.3322  -21.4127  -12.2222 C   0  0  0  0  0  0  0  0  0  0  0  0
   22.9546  -20.2902  -11.7594 C   0  0  0  0  0  0  0  0  0  0  0  0
   24.2643  -19.8828  -12.2969 C   0  0  0  0  0  0  0  0  0  0  0  0
   25.3344  -20.2590  -11.2972 C   0  0  2  0  0  0  0  0  0  0  0  0
   26.4765  -20.8118  -12.0012 N   0  0  0  0  0  0  0  0  0  0  0  0
   24.8875  -21.2918  -10.3298 C   0  0  0  0  0  0  0  0  0  0  0  0
   24.3968  -20.9338   -9.2286 O   0  0  0  0  0  0  0  0  0  0  0  0
   22.3678  -19.5160  -10.7811 C   0  0  0  0  0  0  0  0  0  0  0  0
   21.1359  -19.8373  -10.2301 C   0  0  0  0  0  0  0  0  0  0  0  0
   24.9747  -22.6581  -10.5596 O   0  0  0  0  0  0  0  0  0  0  0  0
  2  1  1  6
  3  2  1  0
  4  5  1  0
  4  3  1  0
  5  6  1  0
  7  6  1  0
  8 10  1  0
  8  2  1  0
  9  8  2  0
 11 10  1  0
 11 12  1  1
 13 12  1  0
 14 11  1  0
 15 14  2  0
 16 17  1  0
 17 27  2  0
 17 18  1  0
 18 19  2  0
 19 20  1  0
 20 21  1  0
 22 21  1  6
 22 24  1  0
 22 23  1  0
 23 14  1  0
 24 28  1  0
 25 24  2  0
 26 20  2  0
 27 26  1  0
M  END
$$$$
