KCY.pdb
     RDKit          3D

 28 28  0  0  1  0  0  0  0  0999 V2000
   34.5176  -31.8577  -18.5391 N   0  0  0  0  0  0  0  0  0  0  0  0
   34.8661  -30.8092  -17.6060 C   0  0  1  0  0  0  0  0  0  0  0  0
   34.3446  -29.4960  -18.1094 C   0  0  0  0  0  0  0  0  0  0  0  0
   34.9953  -29.1843  -19.4313 C   0  0  0  0  0  0  0  0  0  0  0  0
   34.5165  -27.8607  -19.9456 C   0  0  0  0  0  0  0  0  0  0  0  0
   35.1827  -27.4966  -21.2630 C   0  0  0  0  0  0  0  0  0  0  0  0
   34.6118  -26.2337  -21.6943 N   0  0  0  0  0  0  0  0  0  0  0  0
   34.1867  -31.0736  -16.2848 C   0  0  0  0  0  0  0  0  0  0  0  0
   33.0875  -30.5570  -15.9857 O   0  0  0  0  0  0  0  0  0  0  0  0
   34.8110  -31.9370  -15.3454 N   0  0  0  0  0  0  0  0  0  0  0  0
   33.9742  -32.6936  -14.4335 C   0  0  1  0  0  0  0  0  0  0  0  0
   33.1404  -33.7164  -15.2034 C   0  0  0  0  0  0  0  0  0  0  0  0
   31.6618  -34.1720  -14.2682 S   0  0  0  0  0  0  0  0  0  0  0  0
   34.9004  -33.5084  -13.5665 C   0  0  0  0  0  0  0  0  0  0  0  0
   36.1389  -33.5623  -13.7944 O   0  0  0  0  0  0  0  0  0  0  0  0
   41.3579  -35.2965  -13.3755 O   0  0  0  0  0  0  0  0  0  0  0  0
   40.1067  -34.9444  -12.8374 C   0  0  0  0  0  0  0  0  0  0  0  0
   39.7360  -35.6000  -11.6892 C   0  0  0  0  0  0  0  0  0  0  0  0
   38.5038  -35.3001  -11.0984 C   0  0  0  0  0  0  0  0  0  0  0  0
   37.7028  -34.3618  -11.6813 C   0  0  0  0  0  0  0  0  0  0  0  0
   36.3988  -34.0163  -11.0895 C   0  0  0  0  0  0  0  0  0  0  0  0
   35.3574  -34.9735  -11.6236 C   0  0  2  0  0  0  0  0  0  0  0  0
   34.4215  -34.2470  -12.4612 N   0  0  0  0  0  0  0  0  0  0  0  0
   34.5597  -35.6199  -10.5521 C   0  0  0  0  0  0  0  0  0  0  0  0
   35.1482  -36.2831   -9.6602 O   0  0  0  0  0  0  0  0  0  0  0  0
   38.1006  -33.7191  -12.8344 C   0  0  0  0  0  0  0  0  0  0  0  0
   39.3152  -33.9922  -13.4463 C   0  0  0  0  0  0  0  0  0  0  0  0
   33.1765  -35.5426  -10.4622 O   0  0  0  0  0  0  0  0  0  0  0  0
  2  1  1  6
  3  2  1  0
  4  5  1  0
  4  3  1  0
  5  6  1  0
  7  6  1  0
  8 10  1  0
  8  2  1  0
  9  8  2  0
 11 10  1  0
 11 12  1  6
 13 12  1  0
 14 11  1  0
 15 14  2  0
 16 17  1  0
 17 27  2  0
 17 18  1  0
 18 19  2  0
 19 20  1  0
 20 21  1  0
 22 21  1  1
 22 24  1  0
 22 23  1  0
 23 14  1  0
 24 28  1  0
 25 24  2  0
 26 20  2  0
 27 26  1  0
M  END
$$$$
