KCY.pdb
     RDKit          3D

 28 28  0  0  1  0  0  0  0  0999 V2000
   22.0594  -20.0143  -15.9718 N   0  0  0  0  0  0  0  0  0  0  0  0
   22.8575  -19.3224  -14.9840 C   0  0  1  0  0  0  0  0  0  0  0  0
   22.0074  -18.3147  -14.2687 C   0  0  0  0  0  0  0  0  0  0  0  0
   20.7513  -18.0792  -15.0654 C   0  0  0  0  0  0  0  0  0  0  0  0
   19.5730  -18.6883  -14.3679 C   0  0  0  0  0  0  0  0  0  0  0  0
   18.2639  -18.3051  -15.0396 C   0  0  0  0  0  0  0  0  0  0  0  0
   17.2063  -19.0240  -14.3530 N   0  0  0  0  0  0  0  0  0  0  0  0
   23.3321  -20.3110  -13.9474 C   0  0  0  0  0  0  0  0  0  0  0  0
   22.5452  -21.0755  -13.3465 O   0  0  0  0  0  0  0  0  0  0  0  0
   24.7169  -20.3805  -13.6392 N   0  0  0  0  0  0  0  0  0  0  0  0
   25.1700  -21.3875  -12.6985 C   0  0  1  0  0  0  0  0  0  0  0  0
   26.2143  -22.2917  -13.3511 C   0  0  0  0  0  0  0  0  0  0  0  0
   27.5684  -21.3125  -14.0408 S   0  0  0  0  0  0  0  0  0  0  0  0
   25.9052  -20.6595  -11.6016 C   0  0  0  0  0  0  0  0  0  0  0  0
   26.3658  -19.4991  -11.7747 O   0  0  0  0  0  0  0  0  0  0  0  0
   29.5853  -18.1530   -4.2227 O   0  0  0  0  0  0  0  0  0  0  0  0
   28.7995  -18.8476   -5.1604 C   0  0  0  0  0  0  0  0  0  0  0  0
   27.7024  -18.1783   -5.6442 C   0  0  0  0  0  0  0  0  0  0  0  0
   26.8754  -18.8084   -6.5803 C   0  0  0  0  0  0  0  0  0  0  0  0
   27.1831  -20.0738   -6.9874 C   0  0  0  0  0  0  0  0  0  0  0  0
   26.3387  -20.7711   -7.9727 C   0  0  0  0  0  0  0  0  0  0  0  0
   26.9280  -20.5599   -9.3490 C   0  0  2  0  0  0  0  0  0  0  0  0
   26.1101  -21.2453  -10.3322 N   0  0  0  0  0  0  0  0  0  0  0  0
   28.3022  -21.1044   -9.4815 C   0  0  0  0  0  0  0  0  0  0  0  0
   28.4592  -22.3194   -9.7655 O   0  0  0  0  0  0  0  0  0  0  0  0
   28.2912  -20.7220   -6.4847 C   0  0  0  0  0  0  0  0  0  0  0  0
   29.1322  -20.1269   -5.5557 C   0  0  0  0  0  0  0  0  0  0  0  0
   29.4545  -20.3494   -9.3100 O   0  0  0  0  0  0  0  0  0  0  0  0
  2  1  1  6
  3  2  1  0
  4  5  1  0
  4  3  1  0
  5  6  1  0
  7  6  1  0
  8 10  1  0
  8  2  1  0
  9  8  2  0
 11 10  1  0
 11 12  1  6
 13 12  1  0
 14 11  1  0
 15 14  2  0
 16 17  1  0
 17 27  2  0
 17 18  1  0
 18 19  2  0
 19 20  1  0
 20 21  1  0
 22 21  1  1
 22 24  1  0
 22 23  1  0
 23 14  1  0
 24 28  1  0
 25 24  2  0
 26 20  2  0
 27 26  1  0
M  END
$$$$
