KCY.pdb
     RDKit          3D

 28 28  0  0  1  0  0  0  0  0999 V2000
   22.3088  -19.1926  -14.0684 N   0  0  0  0  0  0  0  0  0  0  0  0
   21.6807  -20.2885  -13.3640 C   0  0  1  0  0  0  0  0  0  0  0  0
   21.0213  -21.2063  -14.3502 C   0  0  0  0  0  0  0  0  0  0  0  0
   20.0980  -20.4021  -15.2270 C   0  0  0  0  0  0  0  0  0  0  0  0
   20.7897  -20.0278  -16.5026 C   0  0  0  0  0  0  0  0  0  0  0  0
   19.8682  -19.2578  -17.4353 C   0  0  0  0  0  0  0  0  0  0  0  0
   20.6122  -19.0043  -18.6555 N   0  0  0  0  0  0  0  0  0  0  0  0
   22.7401  -21.0953  -12.6541 C   0  0  0  0  0  0  0  0  0  0  0  0
   22.4545  -22.0399  -11.8855 O   0  0  0  0  0  0  0  0  0  0  0  0
   24.1086  -20.7765  -12.8614 N   0  0  0  0  0  0  0  0  0  0  0  0
   25.1167  -21.5573  -12.1699 C   0  0  1  0  0  0  0  0  0  0  0  0
   26.4056  -21.6043  -12.9888 C   0  0  0  0  0  0  0  0  0  0  0  0
   26.1397  -22.4710  -14.5529 S   0  0  0  0  0  0  0  0  0  0  0  0
   25.4707  -20.7989  -10.9157 C   0  0  0  0  0  0  0  0  0  0  0  0
   25.3702  -19.5440  -10.8540 O   0  0  0  0  0  0  0  0  0  0  0  0
   29.4067  -18.6061   -3.5341 O   0  0  0  0  0  0  0  0  0  0  0  0
   28.8245  -19.3601   -4.5693 C   0  0  0  0  0  0  0  0  0  0  0  0
   27.5377  -19.7889   -4.3552 C   0  0  0  0  0  0  0  0  0  0  0  0
   26.8957  -20.5440   -5.3426 C   0  0  0  0  0  0  0  0  0  0  0  0
   27.5680  -20.8338   -6.4939 C   0  0  0  0  0  0  0  0  0  0  0  0
   26.9268  -21.6247   -7.5585 C   0  0  0  0  0  0  0  0  0  0  0  0
   26.5280  -20.6916   -8.6794 C   0  0  2  0  0  0  0  0  0  0  0  0
   25.9305  -21.4607   -9.7550 N   0  0  0  0  0  0  0  0  0  0  0  0
   27.6801  -19.9617   -9.2643 C   0  0  0  0  0  0  0  0  0  0  0  0
   27.8858  -18.7664   -8.9316 O   0  0  0  0  0  0  0  0  0  0  0  0
   28.8598  -20.3901   -6.6820 C   0  0  0  0  0  0  0  0  0  0  0  0
   29.5259  -19.6397   -5.7241 C   0  0  0  0  0  0  0  0  0  0  0  0
   28.5684  -20.5180  -10.1746 O   0  0  0  0  0  0  0  0  0  0  0  0
  2  1  1  6
  3  2  1  0
  4  5  1  0
  4  3  1  0
  5  6  1  0
  7  6  1  0
  8 10  1  0
  8  2  1  0
  9  8  2  0
 11 10  1  0
 11 12  1  6
 13 12  1  0
 14 11  1  0
 15 14  2  0
 16 17  1  0
 17 27  2  0
 17 18  1  0
 18 19  2  0
 19 20  1  0
 20 21  1  0
 22 21  1  1
 22 24  1  0
 22 23  1  0
 23 14  1  0
 24 28  1  0
 25 24  2  0
 26 20  2  0
 27 26  1  0
M  END
$$$$
