KCY.pdb
     RDKit          3D

 28 28  0  0  1  0  0  0  0  0999 V2000
   22.8171  -15.9326  -16.9812 N   0  0  0  0  0  0  0  0  0  0  0  0
   22.4513  -14.6996  -17.6427 C   0  0  1  0  0  0  0  0  0  0  0  0
   20.9777  -14.6984  -17.9222 C   0  0  0  0  0  0  0  0  0  0  0  0
   20.6796  -15.7219  -18.9860 C   0  0  0  0  0  0  0  0  0  0  0  0
   20.1753  -16.9873  -18.3613 C   0  0  0  0  0  0  0  0  0  0  0  0
   19.7302  -17.9927  -19.4115 C   0  0  0  0  0  0  0  0  0  0  0  0
   19.3466  -19.2026  -18.7074 N   0  0  0  0  0  0  0  0  0  0  0  0
   22.7233  -13.5394  -16.7170 C   0  0  0  0  0  0  0  0  0  0  0  0
   22.5170  -13.6074  -15.4852 O   0  0  0  0  0  0  0  0  0  0  0  0
   23.2306  -12.3271  -17.2562 N   0  0  0  0  0  0  0  0  0  0  0  0
   23.5014  -11.2245  -16.3534 C   0  0  1  0  0  0  0  0  0  0  0  0
   24.7999  -10.5226  -16.7477 C   0  0  0  0  0  0  0  0  0  0  0  0
   24.7854  -10.0871  -18.5023 S   0  0  0  0  0  0  0  0  0  0  0  0
   22.4148  -10.2029  -16.5752 C   0  0  0  0  0  0  0  0  0  0  0  0
   21.8870  -10.0377  -17.7078 O   0  0  0  0  0  0  0  0  0  0  0  0
   15.8953   -4.6755  -16.0188 O   0  0  0  0  0  0  0  0  0  0  0  0
   16.8426   -5.6814  -15.7543 C   0  0  0  0  0  0  0  0  0  0  0  0
   17.0385   -6.6049  -16.7514 C   0  0  0  0  0  0  0  0  0  0  0  0
   17.9662   -7.6340  -16.5572 C   0  0  0  0  0  0  0  0  0  0  0  0
   18.6521   -7.6912  -15.3791 C   0  0  0  0  0  0  0  0  0  0  0  0
   19.6386   -8.7579  -15.1363 C   0  0  0  0  0  0  0  0  0  0  0  0
   20.9412   -8.3707  -15.7991 C   0  0  2  0  0  0  0  0  0  0  0  0
   21.9406   -9.3862  -15.5242 N   0  0  0  0  0  0  0  0  0  0  0  0
   21.4881   -7.0856  -15.2973 C   0  0  0  0  0  0  0  0  0  0  0  0
   22.4253   -7.0999  -14.4587 O   0  0  0  0  0  0  0  0  0  0  0  0
   18.4350   -6.7502  -14.3951 C   0  0  0  0  0  0  0  0  0  0  0  0
   17.5231   -5.7171  -14.5545 C   0  0  0  0  0  0  0  0  0  0  0  0
   21.0274   -5.8387  -15.6974 O   0  0  0  0  0  0  0  0  0  0  0  0
  2  1  1  1
  3  2  1  0
  4  5  1  0
  4  3  1  0
  5  6  1  0
  7  6  1  0
  8 10  1  0
  8  2  1  0
  9  8  2  0
 11 10  1  0
 11 12  1  6
 13 12  1  0
 14 11  1  0
 15 14  2  0
 16 17  1  0
 17 27  2  0
 17 18  1  0
 18 19  2  0
 19 20  1  0
 20 21  1  0
 22 21  1  1
 22 24  1  0
 22 23  1  0
 23 14  1  0
 24 28  1  0
 25 24  2  0
 26 20  2  0
 27 26  1  0
M  END
$$$$
