KCY.pdb
     RDKit          3D

 28 28  0  0  1  0  0  0  0  0999 V2000
   16.4007  -12.3622  -13.9633 N   0  0  0  0  0  0  0  0  0  0  0  0
   15.5771  -11.2599  -13.5178 C   0  0  1  0  0  0  0  0  0  0  0  0
   14.4246  -11.7871  -12.7157 C   0  0  0  0  0  0  0  0  0  0  0  0
   13.4270  -12.4210  -13.6491 C   0  0  0  0  0  0  0  0  0  0  0  0
   12.3678  -11.4304  -14.0264 C   0  0  0  0  0  0  0  0  0  0  0  0
   11.2684  -12.0735  -14.8568 C   0  0  0  0  0  0  0  0  0  0  0  0
   10.2638  -11.0538  -15.0967 N   0  0  0  0  0  0  0  0  0  0  0  0
   16.3840  -10.3765  -12.5983 C   0  0  0  0  0  0  0  0  0  0  0  0
   17.0851  -10.8422  -11.6729 O   0  0  0  0  0  0  0  0  0  0  0  0
   16.3506   -8.9688  -12.7845 N   0  0  0  0  0  0  0  0  0  0  0  0
   17.1849   -8.1358  -11.9393 C   0  0  1  0  0  0  0  0  0  0  0  0
   18.1351   -7.2976  -12.7928 C   0  0  0  0  0  0  0  0  0  0  0  0
   18.8836   -8.3041  -14.0948 S   0  0  0  0  0  0  0  0  0  0  0  0
   16.2708   -7.1411  -11.2696 C   0  0  0  0  0  0  0  0  0  0  0  0
   15.2941   -6.6290  -11.8799 O   0  0  0  0  0  0  0  0  0  0  0  0
   10.9859  -10.1678   -8.4880 O   0  0  0  0  0  0  0  0  0  0  0  0
   11.9993   -9.2041   -8.3354 C   0  0  0  0  0  0  0  0  0  0  0  0
   13.2868   -9.6467   -8.5148 C   0  0  0  0  0  0  0  0  0  0  0  0
   14.3456   -8.7425   -8.3783 C   0  0  0  0  0  0  0  0  0  0  0  0
   14.0684   -7.4425   -8.0701 C   0  0  0  0  0  0  0  0  0  0  0  0
   15.1548   -6.4591   -7.9194 C   0  0  0  0  0  0  0  0  0  0  0  0
   15.4848   -5.8919   -9.2816 C   0  0  2  0  0  0  0  0  0  0  0  0
   16.4685   -6.7393   -9.9294 N   0  0  0  0  0  0  0  0  0  0  0  0
   16.0702   -4.5297   -9.2166 C   0  0  0  0  0  0  0  0  0  0  0  0
   17.3184   -4.3913   -9.2844 O   0  0  0  0  0  0  0  0  0  0  0  0
   12.7658   -7.0258   -7.8955 C   0  0  0  0  0  0  0  0  0  0  0  0
   11.6927   -7.8955   -8.0233 C   0  0  0  0  0  0  0  0  0  0  0  0
   15.3197   -3.3695   -9.0832 O   0  0  0  0  0  0  0  0  0  0  0  0
  2  1  1  1
  3  2  1  0
  4  5  1  0
  4  3  1  0
  5  6  1  0
  7  6  1  0
  8 10  1  0
  8  2  1  0
  9  8  2  0
 11 10  1  0
 11 12  1  6
 13 12  1  0
 14 11  1  0
 15 14  2  0
 16 17  1  0
 17 27  2  0
 17 18  1  0
 18 19  2  0
 19 20  1  0
 20 21  1  0
 22 21  1  1
 22 24  1  0
 22 23  1  0
 23 14  1  0
 24 28  1  0
 25 24  2  0
 26 20  2  0
 27 26  1  0
M  END
$$$$
