KCY.pdb
     RDKit          3D

 28 28  0  0  1  0  0  0  0  0999 V2000
   24.5642  -18.4482  -18.3734 N   0  0  0  0  0  0  0  0  0  0  0  0
   24.2188  -19.7141  -17.7653 C   0  0  1  0  0  0  0  0  0  0  0  0
   23.9624  -20.7319  -18.8368 C   0  0  0  0  0  0  0  0  0  0  0  0
   22.8024  -20.2737  -19.6807 C   0  0  0  0  0  0  0  0  0  0  0  0
   21.7004  -21.2885  -19.6423 C   0  0  0  0  0  0  0  0  0  0  0  0
   20.5067  -20.8523  -20.4769 C   0  0  0  0  0  0  0  0  0  0  0  0
   19.4977  -21.8880  -20.3513 N   0  0  0  0  0  0  0  0  0  0  0  0
   25.3912  -20.2136  -16.9571 C   0  0  0  0  0  0  0  0  0  0  0  0
   25.5458  -21.4249  -16.6862 O   0  0  0  0  0  0  0  0  0  0  0  0
   26.3546  -19.2824  -16.4855 N   0  0  0  0  0  0  0  0  0  0  0  0
   27.4005  -19.7537  -15.5978 C   0  0  1  0  0  0  0  0  0  0  0  0
   28.6944  -18.9798  -15.8445 C   0  0  0  0  0  0  0  0  0  0  0  0
   28.3475  -17.3786  -16.6088 S   0  0  0  0  0  0  0  0  0  0  0  0
   26.9803  -19.3882  -14.1967 C   0  0  0  0  0  0  0  0  0  0  0  0
   26.2059  -18.4192  -13.9727 O   0  0  0  0  0  0  0  0  0  0  0  0
   21.8128  -20.6964   -7.8953 O   0  0  0  0  0  0  0  0  0  0  0  0
   22.7290  -20.8020   -8.9576 C   0  0  0  0  0  0  0  0  0  0  0  0
   22.3884  -20.1498  -10.1171 C   0  0  0  0  0  0  0  0  0  0  0  0
   23.2530  -20.2117  -11.2152 C   0  0  0  0  0  0  0  0  0  0  0  0
   24.4136  -20.9203  -11.1030 C   0  0  0  0  0  0  0  0  0  0  0  0
   25.3514  -21.0084  -12.2356 C   0  0  0  0  0  0  0  0  0  0  0  0
   26.5943  -20.2174  -11.8958 C   0  0  2  0  0  0  0  0  0  0  0  0
   27.4355  -20.1148  -13.0737 N   0  0  0  0  0  0  0  0  0  0  0  0
   27.4164  -20.8547  -10.8373 C   0  0  0  0  0  0  0  0  0  0  0  0
   28.1528  -21.8305  -11.1325 O   0  0  0  0  0  0  0  0  0  0  0  0
   24.7301  -21.5655   -9.9263 C   0  0  0  0  0  0  0  0  0  0  0  0
   23.8960  -21.5249   -8.8186 C   0  0  0  0  0  0  0  0  0  0  0  0
   27.4306  -20.4401   -9.5125 O   0  0  0  0  0  0  0  0  0  0  0  0
  2  1  1  6
  3  2  1  0
  4  5  1  0
  4  3  1  0
  5  6  1  0
  7  6  1  0
  8 10  1  0
  8  2  1  0
  9  8  2  0
 11 10  1  0
 11 12  1  6
 13 12  1  0
 14 11  1  0
 15 14  2  0
 16 17  1  0
 17 27  2  0
 17 18  1  0
 18 19  2  0
 19 20  1  0
 20 21  1  0
 22 21  1  6
 22 24  1  0
 22 23  1  0
 23 14  1  0
 24 28  1  0
 25 24  2  0
 26 20  2  0
 27 26  1  0
M  END
$$$$
