KCY.pdb
     RDKit          3D

 28 28  0  0  1  0  0  0  0  0999 V2000
   25.9303  -19.4709  -16.7343 N   0  0  0  0  0  0  0  0  0  0  0  0
   26.4158  -20.3401  -15.6853 C   0  0  1  0  0  0  0  0  0  0  0  0
   27.8799  -20.0965  -15.4696 C   0  0  0  0  0  0  0  0  0  0  0  0
   28.4524  -19.4337  -16.6948 C   0  0  0  0  0  0  0  0  0  0  0  0
   28.7306  -20.4556  -17.7550 C   0  0  0  0  0  0  0  0  0  0  0  0
   29.3982  -19.8342  -18.9716 C   0  0  0  0  0  0  0  0  0  0  0  0
   29.5167  -20.8787  -19.9725 N   0  0  0  0  0  0  0  0  0  0  0  0
   25.7185  -19.9958  -14.3921 C   0  0  0  0  0  0  0  0  0  0  0  0
   25.1198  -18.9100  -14.2266 O   0  0  0  0  0  0  0  0  0  0  0  0
   25.7391  -20.9314  -13.3236 N   0  0  0  0  0  0  0  0  0  0  0  0
   24.8682  -20.7062  -12.1856 C   0  0  1  0  0  0  0  0  0  0  0  0
   23.7469  -21.7435  -12.1620 C   0  0  0  0  0  0  0  0  0  0  0  0
   24.3246  -23.3264  -12.8171 S   0  0  0  0  0  0  0  0  0  0  0  0
   25.6874  -20.9789  -10.9494 C   0  0  0  0  0  0  0  0  0  0  0  0
   26.2017  -22.1097  -10.7361 O   0  0  0  0  0  0  0  0  0  0  0  0
   29.6405  -20.2990   -3.2687 O   0  0  0  0  0  0  0  0  0  0  0  0
   29.0419  -19.9644   -4.4971 C   0  0  0  0  0  0  0  0  0  0  0  0
   29.4682  -20.6759   -5.5914 C   0  0  0  0  0  0  0  0  0  0  0  0
   28.9158  -20.3963   -6.8460 C   0  0  0  0  0  0  0  0  0  0  0  0
   27.9662  -19.4218   -6.9472 C   0  0  0  0  0  0  0  0  0  0  0  0
   27.3588  -19.0984   -8.2497 C   0  0  0  0  0  0  0  0  0  0  0  0
   26.6180  -20.3167   -8.7526 C   0  0  2  0  0  0  0  0  0  0  0  0
   25.9145  -19.9800   -9.9763 N   0  0  0  0  0  0  0  0  0  0  0  0
   25.5978  -20.8116   -7.7952 C   0  0  0  0  0  0  0  0  0  0  0  0
   24.4099  -20.4119   -7.8988 O   0  0  0  0  0  0  0  0  0  0  0  0
   27.5570  -18.7230   -5.8313 C   0  0  0  0  0  0  0  0  0  0  0  0
   28.0837  -18.9745   -4.5728 C   0  0  0  0  0  0  0  0  0  0  0  0
   25.8682  -21.7061   -6.7685 O   0  0  0  0  0  0  0  0  0  0  0  0
  2  1  1  6
  3  2  1  0
  4  5  1  0
  4  3  1  0
  5  6  1  0
  7  6  1  0
  8 10  1  0
  8  2  1  0
  9  8  2  0
 11 10  1  0
 11 12  1  6
 13 12  1  0
 14 11  1  0
 15 14  2  0
 16 17  1  0
 17 27  2  0
 17 18  1  0
 18 19  2  0
 19 20  1  0
 20 21  1  0
 22 21  1  1
 22 24  1  0
 22 23  1  0
 23 14  1  0
 24 28  1  0
 25 24  2  0
 26 20  2  0
 27 26  1  0
M  END
$$$$
