KCY.pdb
     RDKit          3D

 28 28  0  0  1  0  0  0  0  0999 V2000
   27.8002  -16.2900  -17.2133 N   0  0  0  0  0  0  0  0  0  0  0  0
   27.8813  -16.4465  -15.7779 C   0  0  1  0  0  0  0  0  0  0  0  0
   26.9351  -15.4902  -15.1148 C   0  0  0  0  0  0  0  0  0  0  0  0
   26.2677  -14.6493  -16.1710 C   0  0  0  0  0  0  0  0  0  0  0  0
   25.1354  -15.4054  -16.7969 C   0  0  0  0  0  0  0  0  0  0  0  0
   24.3489  -14.5371  -17.7661 C   0  0  0  0  0  0  0  0  0  0  0  0
   23.2648  -15.3514  -18.2843 N   0  0  0  0  0  0  0  0  0  0  0  0
   27.4330  -17.8379  -15.4035 C   0  0  0  0  0  0  0  0  0  0  0  0
   26.7055  -18.5273  -16.1519 O   0  0  0  0  0  0  0  0  0  0  0  0
   27.8473  -18.3886  -14.1614 N   0  0  0  0  0  0  0  0  0  0  0  0
   27.4645  -19.7510  -13.8428 C   0  0  1  0  0  0  0  0  0  0  0  0
   28.6723  -20.5366  -13.3349 C   0  0  0  0  0  0  0  0  0  0  0  0
   29.5498  -19.6069  -12.0566 S   0  0  0  0  0  0  0  0  0  0  0  0
   26.5190  -19.6750  -12.6707 C   0  0  0  0  0  0  0  0  0  0  0  0
   26.6220  -18.7708  -11.7987 O   0  0  0  0  0  0  0  0  0  0  0  0
   20.3252  -21.3198   -6.8395 O   0  0  0  0  0  0  0  0  0  0  0  0
   21.0429  -21.2967   -8.0493 C   0  0  0  0  0  0  0  0  0  0  0  0
   21.9628  -20.2866   -8.1875 C   0  0  0  0  0  0  0  0  0  0  0  0
   22.7131  -20.2021   -9.3653 C   0  0  0  0  0  0  0  0  0  0  0  0
   22.5092  -21.1283  -10.3462 C   0  0  0  0  0  0  0  0  0  0  0  0
   23.2800  -21.0751  -11.6005 C   0  0  0  0  0  0  0  0  0  0  0  0
   24.6746  -20.5808  -11.2893 C   0  0  2  0  0  0  0  0  0  0  0  0
   25.4767  -20.6132  -12.4981 N   0  0  0  0  0  0  0  0  0  0  0  0
   25.3775  -21.4198  -10.2871 C   0  0  0  0  0  0  0  0  0  0  0  0
   25.8964  -22.5069  -10.6483 O   0  0  0  0  0  0  0  0  0  0  0  0
   21.5785  -22.1320  -10.1802 C   0  0  0  0  0  0  0  0  0  0  0  0
   20.8178  -22.2451   -9.0257 C   0  0  0  0  0  0  0  0  0  0  0  0
   25.5059  -21.0816   -8.9469 O   0  0  0  0  0  0  0  0  0  0  0  0
  2  1  1  6
  3  2  1  0
  4  5  1  0
  4  3  1  0
  5  6  1  0
  7  6  1  0
  8 10  1  0
  8  2  1  0
  9  8  2  0
 11 10  1  0
 11 12  1  1
 13 12  1  0
 14 11  1  0
 15 14  2  0
 16 17  1  0
 17 27  2  0
 17 18  1  0
 18 19  2  0
 19 20  1  0
 20 21  1  0
 22 21  1  6
 22 24  1  0
 22 23  1  0
 23 14  1  0
 24 28  1  0
 25 24  2  0
 26 20  2  0
 27 26  1  0
M  END
$$$$
