KCY.pdb
     RDKit          3D

 28 28  0  0  1  0  0  0  0  0999 V2000
   30.9107  -25.3034  -17.0142 N   0  0  0  0  0  0  0  0  0  0  0  0
   31.1605  -23.9466  -17.4480 C   0  0  1  0  0  0  0  0  0  0  0  0
   31.8100  -23.9637  -18.7999 C   0  0  0  0  0  0  0  0  0  0  0  0
   32.9216  -24.9797  -18.7968 C   0  0  0  0  0  0  0  0  0  0  0  0
   32.3590  -26.3636  -18.6788 C   0  0  0  0  0  0  0  0  0  0  0  0
   33.4494  -27.4206  -18.7517 C   0  0  0  0  0  0  0  0  0  0  0  0
   32.8231  -28.6991  -18.4688 N   0  0  0  0  0  0  0  0  0  0  0  0
   29.8448  -23.2240  -17.6025 C   0  0  0  0  0  0  0  0  0  0  0  0
   29.7602  -22.1050  -18.1552 O   0  0  0  0  0  0  0  0  0  0  0  0
   28.6596  -23.8291  -17.1059 N   0  0  0  0  0  0  0  0  0  0  0  0
   27.3977  -23.1366  -17.2856 C   0  0  1  0  0  0  0  0  0  0  0  0
   26.4502  -23.9740  -18.1429 C   0  0  0  0  0  0  0  0  0  0  0  0
   26.2585  -25.6335  -17.4517 S   0  0  0  0  0  0  0  0  0  0  0  0
   26.7443  -23.0625  -15.9286 C   0  0  0  0  0  0  0  0  0  0  0  0
   26.7059  -24.0611  -15.1605 O   0  0  0  0  0  0  0  0  0  0  0  0
   23.3560  -20.4995   -8.4391 O   0  0  0  0  0  0  0  0  0  0  0  0
   23.9819  -20.5143   -9.6989 C   0  0  0  0  0  0  0  0  0  0  0  0
   25.2453  -21.0507   -9.7402 C   0  0  0  0  0  0  0  0  0  0  0  0
   25.9281  -21.0980  -10.9604 C   0  0  0  0  0  0  0  0  0  0  0  0
   25.3178  -20.6086  -12.0782 C   0  0  0  0  0  0  0  0  0  0  0  0
   26.0022  -20.6417  -13.3823 C   0  0  0  0  0  0  0  0  0  0  0  0
   25.5193  -21.8511  -14.1504 C   0  0  2  0  0  0  0  0  0  0  0  0
   26.1469  -21.8715  -15.4585 N   0  0  0  0  0  0  0  0  0  0  0  0
   24.0531  -21.8455  -14.3795 C   0  0  0  0  0  0  0  0  0  0  0  0
   23.5804  -21.1725  -15.3309 O   0  0  0  0  0  0  0  0  0  0  0  0
   24.0482  -20.0755  -12.0073 C   0  0  0  0  0  0  0  0  0  0  0  0
   23.3431  -20.0129  -10.8143 C   0  0  0  0  0  0  0  0  0  0  0  0
   23.1443  -22.5474  -13.5993 O   0  0  0  0  0  0  0  0  0  0  0  0
  2  1  1  6
  3  2  1  0
  4  5  1  0
  4  3  1  0
  5  6  1  0
  7  6  1  0
  8 10  1  0
  8  2  1  0
  9  8  2  0
 11 10  1  0
 11 12  1  6
 13 12  1  0
 14 11  1  0
 15 14  2  0
 16 17  1  0
 17 27  2  0
 17 18  1  0
 18 19  2  0
 19 20  1  0
 20 21  1  0
 22 21  1  6
 22 24  1  0
 22 23  1  0
 23 14  1  0
 24 28  1  0
 25 24  2  0
 26 20  2  0
 27 26  1  0
M  END
$$$$
