KCY.pdb
     RDKit          3D

 28 28  0  0  1  0  0  0  0  0999 V2000
   18.4679  -26.0207  -12.5940 N   0  0  0  0  0  0  0  0  0  0  0  0
   18.2112  -24.6359  -12.2651 C   0  0  1  0  0  0  0  0  0  0  0  0
   18.8101  -24.3189  -10.9270 C   0  0  0  0  0  0  0  0  0  0  0  0
   18.0711  -25.0887   -9.8644 C   0  0  0  0  0  0  0  0  0  0  0  0
   18.5418  -24.6756   -8.5029 C   0  0  0  0  0  0  0  0  0  0  0  0
   17.7717  -25.3887   -7.4028 C   0  0  0  0  0  0  0  0  0  0  0  0
   18.2587  -24.8707   -6.1374 N   0  0  0  0  0  0  0  0  0  0  0  0
   18.8985  -23.7496  -13.2746 C   0  0  0  0  0  0  0  0  0  0  0  0
   19.8809  -24.1393  -13.9437 O   0  0  0  0  0  0  0  0  0  0  0  0
   18.4187  -22.4279  -13.4764 N   0  0  0  0  0  0  0  0  0  0  0  0
   18.9568  -21.6539  -14.5790 C   0  0  1  0  0  0  0  0  0  0  0  0
   17.9359  -21.5637  -15.7119 C   0  0  0  0  0  0  0  0  0  0  0  0
   16.2880  -21.2022  -15.0621 S   0  0  0  0  0  0  0  0  0  0  0  0
   19.1215  -20.2407  -14.0797 C   0  0  0  0  0  0  0  0  0  0  0  0
   18.3809  -19.7713  -13.1743 O   0  0  0  0  0  0  0  0  0  0  0  0
   23.1879  -17.9465  -19.6128 O   0  0  0  0  0  0  0  0  0  0  0  0
   22.7911  -17.8054  -18.2705 C   0  0  0  0  0  0  0  0  0  0  0  0
   22.9615  -18.9083  -17.4703 C   0  0  0  0  0  0  0  0  0  0  0  0
   22.5884  -18.8399  -16.1237 C   0  0  0  0  0  0  0  0  0  0  0  0
   22.0645  -17.6759  -15.6418 C   0  0  0  0  0  0  0  0  0  0  0  0
   21.6610  -17.5626  -14.2296 C   0  0  0  0  0  0  0  0  0  0  0  0
   20.2278  -18.0257  -14.0984 C   0  0  2  0  0  0  0  0  0  0  0  0
   20.1126  -19.3809  -14.6041 N   0  0  0  0  0  0  0  0  0  0  0  0
   19.2762  -17.1959  -14.8784 C   0  0  0  0  0  0  0  0  0  0  0  0
   18.7876  -17.6542  -15.9428 O   0  0  0  0  0  0  0  0  0  0  0  0
   21.9047  -16.5839  -16.4683 C   0  0  0  0  0  0  0  0  0  0  0  0
   22.2638  -16.6173  -17.8078 C   0  0  0  0  0  0  0  0  0  0  0  0
   18.8775  -15.9189  -14.5076 O   0  0  0  0  0  0  0  0  0  0  0  0
  2  1  1  6
  3  2  1  0
  4  5  1  0
  4  3  1  0
  5  6  1  0
  7  6  1  0
  8 10  1  0
  8  2  1  0
  9  8  2  0
 11 10  1  0
 11 12  1  6
 13 12  1  0
 14 11  1  0
 15 14  2  0
 16 17  1  0
 17 27  2  0
 17 18  1  0
 18 19  2  0
 19 20  1  0
 20 21  1  0
 22 21  1  6
 22 24  1  0
 22 23  1  0
 23 14  1  0
 24 28  1  0
 25 24  2  0
 26 20  2  0
 27 26  1  0
M  END
$$$$
