KCY.pdb
     RDKit          3D

 28 28  0  0  1  0  0  0  0  0999 V2000
   19.2246  -18.9734  -15.9096 N   0  0  0  0  0  0  0  0  0  0  0  0
   19.6403  -17.5996  -15.7328 C   0  0  1  0  0  0  0  0  0  0  0  0
   20.8781  -17.3422  -16.5398 C   0  0  0  0  0  0  0  0  0  0  0  0
   21.8116  -18.5148  -16.3930 C   0  0  0  0  0  0  0  0  0  0  0  0
   22.9875  -18.3593  -17.3089 C   0  0  0  0  0  0  0  0  0  0  0  0
   24.0408  -19.4261  -17.0557 C   0  0  0  0  0  0  0  0  0  0  0  0
   25.0693  -19.2577  -18.0659 N   0  0  0  0  0  0  0  0  0  0  0  0
   18.5683  -16.6830  -16.2692 C   0  0  0  0  0  0  0  0  0  0  0  0
   18.2189  -16.6977  -17.4702 O   0  0  0  0  0  0  0  0  0  0  0  0
   17.9310  -15.7710  -15.3861 N   0  0  0  0  0  0  0  0  0  0  0  0
   16.7917  -15.0151  -15.8708 C   0  0  1  0  0  0  0  0  0  0  0  0
   15.6257  -15.1253  -14.8899 C   0  0  0  0  0  0  0  0  0  0  0  0
   14.9790  -16.8131  -14.8505 S   0  0  0  0  0  0  0  0  0  0  0  0
   17.1924  -13.5616  -15.8495 C   0  0  0  0  0  0  0  0  0  0  0  0
   17.9307  -13.0950  -14.9408 O   0  0  0  0  0  0  0  0  0  0  0  0
   18.4931   -5.2620  -17.9309 O   0  0  0  0  0  0  0  0  0  0  0  0
   18.1463   -6.6238  -17.9961 C   0  0  0  0  0  0  0  0  0  0  0  0
   19.1877   -7.5069  -18.1415 C   0  0  0  0  0  0  0  0  0  0  0  0
   18.9166   -8.8775  -18.2135 C   0  0  0  0  0  0  0  0  0  0  0  0
   17.6214   -9.2995  -18.1368 C   0  0  0  0  0  0  0  0  0  0  0  0
   17.2942  -10.7341  -18.2068 C   0  0  0  0  0  0  0  0  0  0  0  0
   17.1905  -11.2748  -16.7987 C   0  0  2  0  0  0  0  0  0  0  0  0
   16.7582  -12.6592  -16.8463 N   0  0  0  0  0  0  0  0  0  0  0  0
   16.1996  -10.5457  -15.9687 C   0  0  0  0  0  0  0  0  0  0  0  0
   14.9958  -10.9096  -15.9840 O   0  0  0  0  0  0  0  0  0  0  0  0
   16.5953   -8.3902  -17.9909 C   0  0  0  0  0  0  0  0  0  0  0  0
   16.8285   -7.0248  -17.9163 C   0  0  0  0  0  0  0  0  0  0  0  0
   16.5146   -9.4644  -15.1571 O   0  0  0  0  0  0  0  0  0  0  0  0
  2  1  1  6
  3  2  1  0
  4  5  1  0
  4  3  1  0
  5  6  1  0
  7  6  1  0
  8 10  1  0
  8  2  1  0
  9  8  2  0
 11 10  1  0
 11 12  1  1
 13 12  1  0
 14 11  1  0
 15 14  2  0
 16 17  1  0
 17 27  2  0
 17 18  1  0
 18 19  2  0
 19 20  1  0
 20 21  1  0
 22 21  1  6
 22 24  1  0
 22 23  1  0
 23 14  1  0
 24 28  1  0
 25 24  2  0
 26 20  2  0
 27 26  1  0
M  END
$$$$
