KCY.pdb
     RDKit          3D

 28 28  0  0  1  0  0  0  0  0999 V2000
   21.3118  -19.4380  -14.2951 N   0  0  0  0  0  0  0  0  0  0  0  0
   21.0897  -20.5108  -13.3509 C   0  0  1  0  0  0  0  0  0  0  0  0
   20.2062  -21.5512  -13.9727 C   0  0  0  0  0  0  0  0  0  0  0  0
   18.9096  -20.9081  -14.3890 C   0  0  0  0  0  0  0  0  0  0  0  0
   18.3057  -20.1651  -13.2362 C   0  0  0  0  0  0  0  0  0  0  0  0
   16.9460  -20.7291  -12.8556 C   0  0  0  0  0  0  0  0  0  0  0  0
   16.4727  -19.9670  -11.7147 N   0  0  0  0  0  0  0  0  0  0  0  0
   22.4058  -21.1809  -13.0413 C   0  0  0  0  0  0  0  0  0  0  0  0
   22.4863  -22.1725  -12.2832 O   0  0  0  0  0  0  0  0  0  0  0  0
   23.5962  -20.6736  -13.6271 N   0  0  0  0  0  0  0  0  0  0  0  0
   24.8535  -21.3324  -13.3281 C   0  0  1  0  0  0  0  0  0  0  0  0
   25.8746  -21.0517  -14.4293 C   0  0  0  0  0  0  0  0  0  0  0  0
   27.5012  -21.6963  -13.9742 S   0  0  0  0  0  0  0  0  0  0  0  0
   25.4095  -20.6700  -12.0929 C   0  0  0  0  0  0  0  0  0  0  0  0
   25.3254  -19.4245  -11.9187 O   0  0  0  0  0  0  0  0  0  0  0  0
   29.3482  -18.2980   -4.8807 O   0  0  0  0  0  0  0  0  0  0  0  0
   28.5892  -19.0040   -5.8319 C   0  0  0  0  0  0  0  0  0  0  0  0
   29.2297  -20.0372   -6.4706 C   0  0  0  0  0  0  0  0  0  0  0  0
   28.5356  -20.7832   -7.4292 C   0  0  0  0  0  0  0  0  0  0  0  0
   27.2380  -20.4624   -7.7032 C   0  0  0  0  0  0  0  0  0  0  0  0
   26.4720  -21.2245   -8.7045 C   0  0  0  0  0  0  0  0  0  0  0  0
   26.8526  -20.7304  -10.0819 C   0  0  2  0  0  0  0  0  0  0  0  0
   26.0489  -21.4154  -11.0771 N   0  0  0  0  0  0  0  0  0  0  0  0
   28.2724  -20.9963  -10.4219 C   0  0  0  0  0  0  0  0  0  0  0  0
   29.0138  -20.0400  -10.7646 O   0  0  0  0  0  0  0  0  0  0  0  0
   26.6199  -19.4196   -7.0464 C   0  0  0  0  0  0  0  0  0  0  0  0
   27.2785  -18.6596   -6.0908 C   0  0  0  0  0  0  0  0  0  0  0  0
   28.8544  -22.2562  -10.3879 O   0  0  0  0  0  0  0  0  0  0  0  0
  2  1  1  6
  3  2  1  0
  4  5  1  0
  4  3  1  0
  5  6  1  0
  7  6  1  0
  8 10  1  0
  8  2  1  0
  9  8  2  0
 11 10  1  0
 11 12  1  6
 13 12  1  0
 14 11  1  0
 15 14  2  0
 16 17  1  0
 17 27  2  0
 17 18  1  0
 18 19  2  0
 19 20  1  0
 20 21  1  0
 22 21  1  1
 22 24  1  0
 22 23  1  0
 23 14  1  0
 24 28  1  0
 25 24  2  0
 26 20  2  0
 27 26  1  0
M  END
$$$$
