VHE.pdb
     RDKit          3D

 27 27  0  0  1  0  0  0  0  0999 V2000
    7.5924  -13.4781   22.2457 C   0  0  0  0  0  0  0  0  0  0  0  0
    7.4838  -13.3832   20.7521 C   0  0  1  0  0  0  0  0  0  0  0  0
    8.8178  -13.0843   20.1012 C   0  0  0  0  0  0  0  0  0  0  0  0
    7.0371  -14.7488   20.2364 C   0  0  2  0  0  0  0  0  0  0  0  0
    5.7437  -15.1086   20.7739 N   0  0  0  0  0  0  0  0  0  0  0  0
    8.0254  -15.7598   20.6777 C   0  0  0  0  0  0  0  0  0  0  0  0
    7.9393  -16.3516   21.7897 O   0  0  0  0  0  0  0  0  0  0  0  0
    9.1033  -16.0786   19.8331 N   0  0  0  0  0  0  0  0  0  0  0  0
   10.0829  -17.1433   20.1744 C   0  0  1  0  0  0  0  0  0  0  0  0
   10.8438  -17.3793   18.9190 C   0  0  0  0  0  0  0  0  0  0  0  0
   11.8402  -18.4563   18.9412 C   0  0  0  0  0  0  0  0  0  0  0  0
   12.2380  -19.2123   20.0160 C   0  0  0  0  0  0  0  0  0  0  0  0
   13.1958  -20.0919   19.6628 N   0  0  0  0  0  0  0  0  0  0  0  0
   13.4176  -19.8999   18.3437 C   0  0  0  0  0  0  0  0  0  0  0  0
   12.6059  -18.9196   17.9086 N   0  0  0  0  0  0  0  0  0  0  0  0
   10.8310  -16.6366   21.3229 C   0  0  0  0  0  0  0  0  0  0  0  0
   11.2078  -15.4442   21.3927 O   0  0  0  0  0  0  0  0  0  0  0  0
   11.1494  -17.4945   22.4049 N   0  0  0  0  0  0  0  0  0  0  0  0
   11.8537  -17.0282   23.5826 C   0  0  1  0  0  0  0  0  0  0  0  0
   11.0600  -17.4920   24.7913 C   0  0  0  0  0  0  0  0  0  0  0  0
   11.6903  -17.0265   26.0810 C   0  0  0  0  0  0  0  0  0  0  0  0
   10.9161  -17.4997   27.2602 C   0  0  0  0  0  0  0  0  0  0  0  0
   11.3259  -17.2237   28.4133 O   0  0  0  0  0  0  0  0  0  0  0  0
   13.2608  -17.3906   23.6570 C   0  0  0  0  0  0  0  0  0  0  0  0
   14.2181  -16.7123   24.0583 O   0  0  0  0  0  0  0  0  0  0  0  0
    9.7487  -18.2407   27.1346 O   0  0  0  0  0  0  0  0  0  0  0  0
   13.5901  -18.6891   23.2144 O   0  0  0  0  0  0  0  0  0  0  0  0
  2  1  1  1
  2  4  1  0
  2  3  1  0
  4  5  1  1
  6  4  1  0
  6  7  2  0
  8  6  1  0
  9  8  1  0
  9 10  1  6
 11 10  1  0
 11 15  1  0
 12 13  1  0
 12 11  2  0
 13 14  1  0
 14 15  2  0
 16  9  1  0
 17 16  2  0
 18 16  1  0
 19 18  1  0
 19 24  1  0
 19 20  1  1
 21 20  1  0
 22 21  1  0
 22 26  1  0
 23 22  2  0
 24 27  1  0
 25 24  2  0
M  END
$$$$
