VHE.pdb
     RDKit          3D

 27 27  0  0  1  0  0  0  0  0999 V2000
   16.2681  -16.6097   16.2379 C   0  0  0  0  0  0  0  0  0  0  0  0
   15.2918  -16.2444   17.3172 C   0  0  1  0  0  0  0  0  0  0  0  0
   15.9385  -16.2174   18.6860 C   0  0  0  0  0  0  0  0  0  0  0  0
   14.8018  -14.8268   17.0325 C   0  0  2  0  0  0  0  0  0  0  0  0
   15.8961  -13.8822   17.0707 N   0  0  0  0  0  0  0  0  0  0  0  0
   13.8235  -14.4528   18.0797 C   0  0  0  0  0  0  0  0  0  0  0  0
   14.1647  -13.8831   19.1536 O   0  0  0  0  0  0  0  0  0  0  0  0
   12.4616  -14.7390   17.8788 N   0  0  0  0  0  0  0  0  0  0  0  0
   11.4245  -14.3745   18.8795 C   0  0  1  0  0  0  0  0  0  0  0  0
   10.1810  -14.1810   18.0879 C   0  0  0  0  0  0  0  0  0  0  0  0
    8.9659  -13.8395   18.8365 C   0  0  0  0  0  0  0  0  0  0  0  0
    8.8046  -13.7856   20.1989 C   0  0  0  0  0  0  0  0  0  0  0  0
    7.5380  -13.4612   20.5251 N   0  0  0  0  0  0  0  0  0  0  0  0
    6.8753  -13.3042   19.3579 C   0  0  0  0  0  0  0  0  0  0  0  0
    7.7295  -13.5306   18.3438 N   0  0  0  0  0  0  0  0  0  0  0  0
   11.4285  -15.4559   19.8623 C   0  0  0  0  0  0  0  0  0  0  0  0
   11.4727  -16.6600   19.5204 O   0  0  0  0  0  0  0  0  0  0  0  0
   11.3864  -15.1638   21.2484 N   0  0  0  0  0  0  0  0  0  0  0  0
   11.2753  -16.1997   22.2559 C   0  0  1  0  0  0  0  0  0  0  0  0
   12.5296  -16.1302   23.1090 C   0  0  0  0  0  0  0  0  0  0  0  0
   13.4454  -17.3004   22.8458 C   0  0  0  0  0  0  0  0  0  0  0  0
   14.1738  -17.7021   24.0793 C   0  0  0  0  0  0  0  0  0  0  0  0
   14.7406  -16.8219   24.7705 O   0  0  0  0  0  0  0  0  0  0  0  0
   10.0530  -16.1795   23.0447 C   0  0  0  0  0  0  0  0  0  0  0  0
    9.1917  -15.2908   23.1212 O   0  0  0  0  0  0  0  0  0  0  0  0
   14.2520  -19.0231   24.4998 O   0  0  0  0  0  0  0  0  0  0  0  0
    9.8058  -17.3231   23.8332 O   0  0  0  0  0  0  0  0  0  0  0  0
  2  1  1  6
  2  4  1  0
  2  3  1  0
  4  5  1  1
  6  4  1  0
  6  7  2  0
  8  6  1  0
  9  8  1  0
  9 10  1  6
 11 10  1  0
 11 15  1  0
 12 13  1  0
 12 11  2  0
 13 14  1  0
 14 15  2  0
 16  9  1  0
 17 16  2  0
 18 16  1  0
 19 18  1  0
 19 24  1  0
 19 20  1  1
 21 20  1  0
 22 21  1  0
 22 26  1  0
 23 22  2  0
 24 27  1  0
 25 24  2  0
M  END
$$$$
