VHE.pdb
     RDKit          3D

 27 27  0  0  1  0  0  0  0  0999 V2000
    3.0657  -18.8245   22.1392 C   0  0  0  0  0  0  0  0  0  0  0  0
    4.4312  -18.2895   22.4565 C   0  0  1  0  0  0  0  0  0  0  0  0
    5.3226  -19.3389   23.0864 C   0  0  0  0  0  0  0  0  0  0  0  0
    5.0856  -17.8889   21.1367 C   0  0  2  0  0  0  0  0  0  0  0  0
    5.2409  -19.0333   20.2664 N   0  0  0  0  0  0  0  0  0  0  0  0
    6.4288  -17.3384   21.4307 C   0  0  0  0  0  0  0  0  0  0  0  0
    7.4866  -18.0077   21.2657 O   0  0  0  0  0  0  0  0  0  0  0  0
    6.5394  -16.0219   21.9119 N   0  0  0  0  0  0  0  0  0  0  0  0
    7.8572  -15.3962   22.1977 C   0  0  1  0  0  0  0  0  0  0  0  0
    7.6827  -13.9615   21.8488 C   0  0  0  0  0  0  0  0  0  0  0  0
    7.8797  -13.5935   20.4420 C   0  0  0  0  0  0  0  0  0  0  0  0
    8.2737  -14.4054   19.4074 C   0  0  0  0  0  0  0  0  0  0  0  0
    8.3731  -13.7114   18.2566 N   0  0  0  0  0  0  0  0  0  0  0  0
    8.0388  -12.4363   18.5540 C   0  0  0  0  0  0  0  0  0  0  0  0
    7.7425  -12.3630   19.8640 N   0  0  0  0  0  0  0  0  0  0  0  0
    8.1488  -15.7128   23.5941 C   0  0  0  0  0  0  0  0  0  0  0  0
    7.2437  -15.7993   24.4555 O   0  0  0  0  0  0  0  0  0  0  0  0
    9.4837  -15.9376   24.0136 N   0  0  0  0  0  0  0  0  0  0  0  0
    9.8288  -16.9497   24.9918 C   0  0  1  0  0  0  0  0  0  0  0  0
    9.3283  -18.2793   24.4553 C   0  0  0  0  0  0  0  0  0  0  0  0
    9.5516  -19.3965   25.4448 C   0  0  0  0  0  0  0  0  0  0  0  0
    9.1102  -20.7042   24.8891 C   0  0  0  0  0  0  0  0  0  0  0  0
    9.2377  -20.9223   23.6602 O   0  0  0  0  0  0  0  0  0  0  0  0
   11.2286  -16.9900   25.3862 C   0  0  0  0  0  0  0  0  0  0  0  0
   12.2395  -16.9671   24.6685 O   0  0  0  0  0  0  0  0  0  0  0  0
    8.5582  -21.7011   25.6824 O   0  0  0  0  0  0  0  0  0  0  0  0
   11.4795  -17.0653   26.7726 O   0  0  0  0  0  0  0  0  0  0  0  0
  2  1  1  6
  2  4  1  0
  2  3  1  0
  4  5  1  6
  6  4  1  0
  6  7  2  0
  8  6  1  0
  9  8  1  0
  9 10  1  1
 11 10  1  0
 11 15  1  0
 12 13  1  0
 12 11  2  0
 13 14  1  0
 14 15  2  0
 16  9  1  0
 17 16  2  0
 18 16  1  0
 19 18  1  0
 19 24  1  0
 19 20  1  6
 21 20  1  0
 22 21  1  0
 22 26  1  0
 23 22  2  0
 24 27  1  0
 25 24  2  0
M  END
$$$$
