VHE.pdb
     RDKit          3D

 27 27  0  0  1  0  0  0  0  0999 V2000
    8.1177  -18.3205   19.0160 C   0  0  0  0  0  0  0  0  0  0  0  0
    8.5098  -17.6838   20.3169 C   0  0  1  0  0  0  0  0  0  0  0  0
    9.7037  -18.3674   20.9494 C   0  0  0  0  0  0  0  0  0  0  0  0
    8.9312  -16.2476   20.0168 C   0  0  2  0  0  0  0  0  0  0  0  0
   10.1383  -16.2167   19.2210 N   0  0  0  0  0  0  0  0  0  0  0  0
    9.1998  -15.5624   21.3021 C   0  0  0  0  0  0  0  0  0  0  0  0
   10.3577  -15.4844   21.7995 O   0  0  0  0  0  0  0  0  0  0  0  0
    8.1313  -14.9740   22.0014 N   0  0  0  0  0  0  0  0  0  0  0  0
    8.2885  -14.4494   23.3833 C   0  0  1  0  0  0  0  0  0  0  0  0
    7.0467  -13.6736   23.6411 C   0  0  0  0  0  0  0  0  0  0  0  0
    6.8988  -13.0855   24.9774 C   0  0  0  0  0  0  0  0  0  0  0  0
    7.5930  -12.0289   25.5130 C   0  0  0  0  0  0  0  0  0  0  0  0
    7.2044  -11.7853   26.7801 N   0  0  0  0  0  0  0  0  0  0  0  0
    6.2477  -12.6965   27.0640 C   0  0  0  0  0  0  0  0  0  0  0  0
    6.0627  -13.4774   25.9845 N   0  0  0  0  0  0  0  0  0  0  0  0
    8.5306  -15.6201   24.2237 C   0  0  0  0  0  0  0  0  0  0  0  0
    8.0550  -16.7445   23.9441 O   0  0  0  0  0  0  0  0  0  0  0  0
    9.3257  -15.5109   25.3916 N   0  0  0  0  0  0  0  0  0  0  0  0
    9.7194  -16.6669   26.1722 C   0  0  1  0  0  0  0  0  0  0  0  0
   10.5798  -17.5399   25.2758 C   0  0  0  0  0  0  0  0  0  0  0  0
   11.0504  -18.7801   25.9953 C   0  0  0  0  0  0  0  0  0  0  0  0
   11.8851  -19.6337   25.1073 C   0  0  0  0  0  0  0  0  0  0  0  0
   12.4103  -19.1268   24.0870 O   0  0  0  0  0  0  0  0  0  0  0  0
   10.3491  -16.3758   27.4511 C   0  0  0  0  0  0  0  0  0  0  0  0
   10.7506  -15.2879   27.8902 O   0  0  0  0  0  0  0  0  0  0  0  0
   12.1078  -20.9797   25.3647 O   0  0  0  0  0  0  0  0  0  0  0  0
   10.5317  -17.4754   28.3160 O   0  0  0  0  0  0  0  0  0  0  0  0
  2  1  1  6
  2  4  1  0
  2  3  1  0
  4  5  1  6
  6  4  1  0
  6  7  2  0
  8  6  1  0
  9  8  1  0
  9 10  1  1
 11 10  1  0
 11 15  1  0
 12 13  1  0
 12 11  2  0
 13 14  1  0
 14 15  2  0
 16  9  1  0
 17 16  2  0
 18 16  1  0
 19 18  1  0
 19 24  1  0
 19 20  1  6
 21 20  1  0
 22 21  1  0
 22 26  1  0
 23 22  2  0
 24 27  1  0
 25 24  2  0
M  END
$$$$
