VHE.pdb
     RDKit          3D

 27 27  0  0  1  0  0  0  0  0999 V2000
    8.9460  -12.0463   19.0672 C   0  0  0  0  0  0  0  0  0  0  0  0
    8.8270  -13.1448   20.0824 C   0  0  1  0  0  0  0  0  0  0  0  0
    7.5316  -13.0628   20.8621 C   0  0  0  0  0  0  0  0  0  0  0  0
    8.8029  -14.4698   19.3246 C   0  0  2  0  0  0  0  0  0  0  0  0
    7.6721  -14.5327   18.4254 N   0  0  0  0  0  0  0  0  0  0  0  0
    8.6792  -15.5683   20.3102 C   0  0  0  0  0  0  0  0  0  0  0  0
    7.5612  -16.0192   20.6859 O   0  0  0  0  0  0  0  0  0  0  0  0
    9.8452  -16.1363   20.8533 N   0  0  0  0  0  0  0  0  0  0  0  0
    9.7948  -17.1544   21.9352 C   0  0  1  0  0  0  0  0  0  0  0  0
    9.3313  -18.3992   21.2672 C   0  0  0  0  0  0  0  0  0  0  0  0
    9.6195  -18.5284   19.8341 C   0  0  0  0  0  0  0  0  0  0  0  0
   10.2057  -17.6023   19.0072 C   0  0  0  0  0  0  0  0  0  0  0  0
   10.2845  -18.0617   17.7428 N   0  0  0  0  0  0  0  0  0  0  0  0
    9.7422  -19.2994   17.7558 C   0  0  0  0  0  0  0  0  0  0  0  0
    9.3427  -19.5815   19.0088 N   0  0  0  0  0  0  0  0  0  0  0  0
   11.1325  -17.1709   22.5229 C   0  0  0  0  0  0  0  0  0  0  0  0
   12.1659  -17.1550   21.8154 O   0  0  0  0  0  0  0  0  0  0  0  0
   11.2959  -17.2010   23.9303 N   0  0  0  0  0  0  0  0  0  0  0  0
   12.0728  -18.2257   24.5988 C   0  0  1  0  0  0  0  0  0  0  0  0
   11.1972  -18.8069   25.6950 C   0  0  0  0  0  0  0  0  0  0  0  0
   11.8987  -19.9201   26.4339 C   0  0  0  0  0  0  0  0  0  0  0  0
   11.7742  -19.7508   27.9068 C   0  0  0  0  0  0  0  0  0  0  0  0
   11.5430  -20.7554   28.6218 O   0  0  0  0  0  0  0  0  0  0  0  0
   12.6451  -19.2447   23.7323 C   0  0  0  0  0  0  0  0  0  0  0  0
   12.0692  -20.0017   22.9369 O   0  0  0  0  0  0  0  0  0  0  0  0
   11.9048  -18.5155   28.5270 O   0  0  0  0  0  0  0  0  0  0  0  0
   14.0459  -19.3995   23.7998 O   0  0  0  0  0  0  0  0  0  0  0  0
  2  1  1  6
  2  4  1  0
  2  3  1  0
  4  5  1  6
  6  4  1  0
  6  7  2  0
  8  6  1  0
  9  8  1  0
  9 10  1  6
 11 10  1  0
 11 15  1  0
 12 13  1  0
 12 11  2  0
 13 14  1  0
 14 15  2  0
 16  9  1  0
 17 16  2  0
 18 16  1  0
 19 18  1  0
 19 24  1  0
 19 20  1  1
 21 20  1  0
 22 21  1  0
 22 26  1  0
 23 22  2  0
 24 27  1  0
 25 24  2  0
M  END
$$$$
