VHE.pdb
     RDKit          3D

 27 27  0  0  1  0  0  0  0  0999 V2000
   10.3892  -21.1064   17.6313 C   0  0  0  0  0  0  0  0  0  0  0  0
   10.7177  -20.1759   18.7617 C   0  0  1  0  0  0  0  0  0  0  0  0
   12.1929  -20.1913   19.1028 C   0  0  0  0  0  0  0  0  0  0  0  0
   10.3859  -18.7587   18.3012 C   0  0  2  0  0  0  0  0  0  0  0  0
   11.1643  -18.3957   17.1377 N   0  0  0  0  0  0  0  0  0  0  0  0
   10.7194  -17.8219   19.3988 C   0  0  0  0  0  0  0  0  0  0  0  0
   11.8694  -17.3184   19.5342 O   0  0  0  0  0  0  0  0  0  0  0  0
    9.7243  -17.4747   20.3294 N   0  0  0  0  0  0  0  0  0  0  0  0
    9.9675  -16.4817   21.4086 C   0  0  1  0  0  0  0  0  0  0  0  0
    8.6459  -15.8432   21.6454 C   0  0  0  0  0  0  0  0  0  0  0  0
    8.2277  -14.8122   20.6884 C   0  0  0  0  0  0  0  0  0  0  0  0
    8.9329  -14.3242   19.6162 C   0  0  0  0  0  0  0  0  0  0  0  0
    8.2396  -13.3614   18.9771 N   0  0  0  0  0  0  0  0  0  0  0  0
    7.0732  -13.2279   19.6464 C   0  0  0  0  0  0  0  0  0  0  0  0
    7.0638  -14.0968   20.6730 N   0  0  0  0  0  0  0  0  0  0  0  0
   10.5513  -17.2375   22.5147 C   0  0  0  0  0  0  0  0  0  0  0  0
   10.1719  -18.3975   22.7959 O   0  0  0  0  0  0  0  0  0  0  0  0
   11.5804  -16.6689   23.3059 N   0  0  0  0  0  0  0  0  0  0  0  0
   12.2142  -17.3926   24.3899 C   0  0  1  0  0  0  0  0  0  0  0  0
   13.6125  -16.8226   24.5508 C   0  0  0  0  0  0  0  0  0  0  0  0
   14.4361  -17.0118   23.3005 C   0  0  0  0  0  0  0  0  0  0  0  0
   15.7973  -16.4325   23.4596 C   0  0  0  0  0  0  0  0  0  0  0  0
   16.7997  -17.1692   23.2970 O   0  0  0  0  0  0  0  0  0  0  0  0
   11.4708  -17.4282   25.6400 C   0  0  0  0  0  0  0  0  0  0  0  0
   11.6866  -18.1088   26.6538 O   0  0  0  0  0  0  0  0  0  0  0  0
   16.0044  -15.0984   23.7835 O   0  0  0  0  0  0  0  0  0  0  0  0
   10.3498  -16.5750   25.7184 O   0  0  0  0  0  0  0  0  0  0  0  0
  2  1  1  6
  2  4  1  0
  2  3  1  0
  4  5  1  6
  6  4  1  0
  6  7  2  0
  8  6  1  0
  9  8  1  0
  9 10  1  1
 11 10  1  0
 11 15  1  0
 12 13  1  0
 12 11  2  0
 13 14  1  0
 14 15  2  0
 16  9  1  0
 17 16  2  0
 18 16  1  0
 19 18  1  0
 19 24  1  0
 19 20  1  1
 21 20  1  0
 22 21  1  0
 22 26  1  0
 23 22  2  0
 24 27  1  0
 25 24  2  0
M  END
$$$$
