VHE.pdb
     RDKit          3D

 27 27  0  0  1  0  0  0  0  0999 V2000
    7.1931  -14.5130   18.4795 C   0  0  0  0  0  0  0  0  0  0  0  0
    7.9179  -14.2550   19.7678 C   0  0  1  0  0  0  0  0  0  0  0  0
    8.2324  -12.7865   19.9610 C   0  0  0  0  0  0  0  0  0  0  0  0
    6.9870  -14.6607   20.9077 C   0  0  2  0  0  0  0  0  0  0  0  0
    5.7685  -13.8822   20.8845 N   0  0  0  0  0  0  0  0  0  0  0  0
    7.6819  -14.4050   22.1904 C   0  0  0  0  0  0  0  0  0  0  0  0
    7.9162  -13.2387   22.6135 O   0  0  0  0  0  0  0  0  0  0  0  0
    8.0998  -15.4960   22.9727 N   0  0  0  0  0  0  0  0  0  0  0  0
    8.7507  -15.3121   24.2964 C   0  0  1  0  0  0  0  0  0  0  0  0
    7.6380  -15.3706   25.2809 C   0  0  0  0  0  0  0  0  0  0  0  0
    7.0516  -14.0904   25.6941 C   0  0  0  0  0  0  0  0  0  0  0  0
    7.4258  -12.8286   25.3031 C   0  0  0  0  0  0  0  0  0  0  0  0
    6.6747  -11.8894   25.9111 N   0  0  0  0  0  0  0  0  0  0  0  0
    5.8058  -12.5550   26.7038 C   0  0  0  0  0  0  0  0  0  0  0  0
    6.0299  -13.8750   26.5753 N   0  0  0  0  0  0  0  0  0  0  0  0
    9.7720  -16.3538   24.3810 C   0  0  0  0  0  0  0  0  0  0  0  0
    9.4975  -17.5642   24.2127 O   0  0  0  0  0  0  0  0  0  0  0  0
   11.1202  -16.0141   24.6554 N   0  0  0  0  0  0  0  0  0  0  0  0
   12.1688  -17.0109   24.7410 C   0  0  1  0  0  0  0  0  0  0  0  0
   13.4848  -16.2990   24.4815 C   0  0  0  0  0  0  0  0  0  0  0  0
   14.6525  -17.2532   24.5388 C   0  0  0  0  0  0  0  0  0  0  0  0
   15.9431  -16.5364   24.3529 C   0  0  0  0  0  0  0  0  0  0  0  0
   16.2111  -16.0372   23.2337 O   0  0  0  0  0  0  0  0  0  0  0  0
   12.1848  -17.8017   25.9621 C   0  0  0  0  0  0  0  0  0  0  0  0
   11.7428  -17.5097   27.0833 O   0  0  0  0  0  0  0  0  0  0  0  0
   16.8703  -16.3968   25.3769 O   0  0  0  0  0  0  0  0  0  0  0  0
   12.7828  -19.0760   25.8669 O   0  0  0  0  0  0  0  0  0  0  0  0
  2  1  1  6
  2  4  1  0
  2  3  1  0
  4  5  1  1
  6  4  1  0
  6  7  2  0
  8  6  1  0
  9  8  1  0
  9 10  1  1
 11 10  1  0
 11 15  1  0
 12 13  1  0
 12 11  2  0
 13 14  1  0
 14 15  2  0
 16  9  1  0
 17 16  2  0
 18 16  1  0
 19 18  1  0
 19 24  1  0
 19 20  1  1
 21 20  1  0
 22 21  1  0
 22 26  1  0
 23 22  2  0
 24 27  1  0
 25 24  2  0
M  END
$$$$
