VHE.pdb
     RDKit          3D

 27 27  0  0  1  0  0  0  0  0999 V2000
    7.8408  -15.9788   19.5150 C   0  0  0  0  0  0  0  0  0  0  0  0
    8.3738  -14.8119   18.7366 C   0  0  1  0  0  0  0  0  0  0  0  0
    7.8642  -14.7969   17.3108 C   0  0  0  0  0  0  0  0  0  0  0  0
    7.8562  -13.5400   19.4037 C   0  0  2  0  0  0  0  0  0  0  0  0
    8.3459  -12.3614   18.7236 N   0  0  0  0  0  0  0  0  0  0  0  0
    8.3481  -13.5130   20.8005 C   0  0  0  0  0  0  0  0  0  0  0  0
    9.5670  -13.3508   21.0868 O   0  0  0  0  0  0  0  0  0  0  0  0
    7.4301  -13.6733   21.8534 N   0  0  0  0  0  0  0  0  0  0  0  0
    7.8652  -13.7477   23.2728 C   0  0  1  0  0  0  0  0  0  0  0  0
    6.7196  -13.2089   24.0524 C   0  0  0  0  0  0  0  0  0  0  0  0
    6.8479  -13.2241   25.5142 C   0  0  0  0  0  0  0  0  0  0  0  0
    7.3496  -12.2361   26.3248 C   0  0  0  0  0  0  0  0  0  0  0  0
    7.3351  -12.6153   27.6179 N   0  0  0  0  0  0  0  0  0  0  0  0
    6.8173  -13.8634   27.6401 C   0  0  0  0  0  0  0  0  0  0  0  0
    6.5244  -14.2306   26.3797 N   0  0  0  0  0  0  0  0  0  0  0  0
    8.2293  -15.1444   23.5003 C   0  0  0  0  0  0  0  0  0  0  0  0
    8.0667  -16.0217   22.6214 O   0  0  0  0  0  0  0  0  0  0  0  0
    8.7882  -15.5460   24.7392 N   0  0  0  0  0  0  0  0  0  0  0  0
    9.6317  -16.7178   24.8655 C   0  0  1  0  0  0  0  0  0  0  0  0
   10.7548  -16.5715   23.8540 C   0  0  0  0  0  0  0  0  0  0  0  0
   11.7459  -17.7048   23.9575 C   0  0  0  0  0  0  0  0  0  0  0  0
   12.8609  -17.5354   22.9870 C   0  0  0  0  0  0  0  0  0  0  0  0
   13.7166  -16.6401   23.1869 O   0  0  0  0  0  0  0  0  0  0  0  0
   10.1136  -17.0023   26.2085 C   0  0  0  0  0  0  0  0  0  0  0  0
   10.6680  -18.0263   26.6347 O   0  0  0  0  0  0  0  0  0  0  0  0
   12.9933  -18.3350   21.8597 O   0  0  0  0  0  0  0  0  0  0  0  0
    9.9290  -15.9793   27.1624 O   0  0  0  0  0  0  0  0  0  0  0  0
  2  1  1  1
  2  4  1  0
  2  3  1  0
  4  5  1  6
  6  4  1  0
  6  7  2  0
  8  6  1  0
  9  8  1  0
  9 10  1  1
 11 10  1  0
 11 15  1  0
 12 13  1  0
 12 11  2  0
 13 14  1  0
 14 15  2  0
 16  9  1  0
 17 16  2  0
 18 16  1  0
 19 18  1  0
 19 24  1  0
 19 20  1  6
 21 20  1  0
 22 21  1  0
 22 26  1  0
 23 22  2  0
 24 27  1  0
 25 24  2  0
M  END
$$$$
