VHE.pdb
     RDKit          3D

 27 27  0  0  1  0  0  0  0  0999 V2000
    9.9797  -19.9363   20.2330 C   0  0  0  0  0  0  0  0  0  0  0  0
   10.5601  -19.4368   18.9426 C   0  0  1  0  0  0  0  0  0  0  0  0
   10.4320  -20.4539   17.8281 C   0  0  0  0  0  0  0  0  0  0  0  0
    9.7517  -18.2132   18.5185 C   0  0  2  0  0  0  0  0  0  0  0  0
   10.2013  -17.7126   17.2385 N   0  0  0  0  0  0  0  0  0  0  0  0
    9.9477  -17.1511   19.5319 C   0  0  0  0  0  0  0  0  0  0  0  0
   10.9901  -16.4400   19.5756 O   0  0  0  0  0  0  0  0  0  0  0  0
    8.9403  -16.9189   20.4849 N   0  0  0  0  0  0  0  0  0  0  0  0
    9.0906  -15.9006   21.5574 C   0  0  1  0  0  0  0  0  0  0  0  0
    7.8763  -15.0495   21.4492 C   0  0  0  0  0  0  0  0  0  0  0  0
    7.7336  -14.2522   20.2255 C   0  0  0  0  0  0  0  0  0  0  0  0
    8.1816  -12.9746   19.9970 C   0  0  0  0  0  0  0  0  0  0  0  0
    7.8435  -12.5555   18.7617 N   0  0  0  0  0  0  0  0  0  0  0  0
    7.1692  -13.5762   18.1875 C   0  0  0  0  0  0  0  0  0  0  0  0
    7.1020  -14.5948   19.0634 N   0  0  0  0  0  0  0  0  0  0  0  0
    9.2678  -16.6561   22.7956 C   0  0  0  0  0  0  0  0  0  0  0  0
    8.6351  -17.7131   23.0216 O   0  0  0  0  0  0  0  0  0  0  0  0
   10.1777  -16.2065   23.7847 N   0  0  0  0  0  0  0  0  0  0  0  0
   10.8606  -17.1177   24.6813 C   0  0  1  0  0  0  0  0  0  0  0  0
   11.4994  -18.1951   23.8228 C   0  0  0  0  0  0  0  0  0  0  0  0
   12.1838  -19.2432   24.6657 C   0  0  0  0  0  0  0  0  0  0  0  0
   12.7718  -20.3157   23.8186 C   0  0  0  0  0  0  0  0  0  0  0  0
   13.8126  -20.0755   23.1606 O   0  0  0  0  0  0  0  0  0  0  0  0
   11.7990  -16.5018   25.6069 C   0  0  0  0  0  0  0  0  0  0  0  0
   12.1240  -16.8712   26.7451 O   0  0  0  0  0  0  0  0  0  0  0  0
   12.2104  -21.5822   23.7264 O   0  0  0  0  0  0  0  0  0  0  0  0
   12.4300  -15.3231   25.1564 O   0  0  0  0  0  0  0  0  0  0  0  0
  2  1  1  1
  2  4  1  0
  2  3  1  0
  4  5  1  6
  6  4  1  0
  6  7  2  0
  8  6  1  0
  9  8  1  0
  9 10  1  1
 11 10  1  0
 11 15  1  0
 12 13  1  0
 12 11  2  0
 13 14  1  0
 14 15  2  0
 16  9  1  0
 17 16  2  0
 18 16  1  0
 19 18  1  0
 19 24  1  0
 19 20  1  6
 21 20  1  0
 22 21  1  0
 22 26  1  0
 23 22  2  0
 24 27  1  0
 25 24  2  0
M  END
$$$$
