VHE.pdb
     RDKit          3D

 27 27  0  0  1  0  0  0  0  0999 V2000
   13.6652  -18.4997   13.9875 C   0  0  0  0  0  0  0  0  0  0  0  0
   13.3596  -17.7620   15.2579 C   0  0  1  0  0  0  0  0  0  0  0  0
   14.5246  -17.7847   16.2249 C   0  0  0  0  0  0  0  0  0  0  0  0
   13.1174  -16.2996   14.8930 C   0  0  2  0  0  0  0  0  0  0  0  0
   14.3182  -15.6910   14.3648 N   0  0  0  0  0  0  0  0  0  0  0  0
   12.7246  -15.5715   16.1215 C   0  0  0  0  0  0  0  0  0  0  0  0
   13.5688  -15.0221   16.8829 O   0  0  0  0  0  0  0  0  0  0  0  0
   11.3628  -15.4839   16.4603 N   0  0  0  0  0  0  0  0  0  0  0  0
   10.8911  -14.6931   17.6273 C   0  0  1  0  0  0  0  0  0  0  0  0
    9.4491  -14.4453   17.3633 C   0  0  0  0  0  0  0  0  0  0  0  0
    8.6954  -13.7440   18.4090 C   0  0  0  0  0  0  0  0  0  0  0  0
    9.1682  -13.2535   19.6010 C   0  0  0  0  0  0  0  0  0  0  0  0
    8.1775  -12.6922   20.3219 N   0  0  0  0  0  0  0  0  0  0  0  0
    7.0526  -12.8231   19.5846 C   0  0  0  0  0  0  0  0  0  0  0  0
    7.3606  -13.4536   18.4370 N   0  0  0  0  0  0  0  0  0  0  0  0
   11.2266  -15.4907   18.8048 C   0  0  0  0  0  0  0  0  0  0  0  0
   10.9633  -16.7133   18.8723 O   0  0  0  0  0  0  0  0  0  0  0  0
   11.8723  -14.8917   19.9150 N   0  0  0  0  0  0  0  0  0  0  0  0
   12.1915  -15.6330   21.1188 C   0  0  1  0  0  0  0  0  0  0  0  0
   13.5052  -15.0841   21.6469 C   0  0  0  0  0  0  0  0  0  0  0  0
   14.6648  -15.4740   20.7634 C   0  0  0  0  0  0  0  0  0  0  0  0
   15.9502  -14.9510   21.3000 C   0  0  0  0  0  0  0  0  0  0  0  0
   15.9424  -14.2679   22.3522 O   0  0  0  0  0  0  0  0  0  0  0  0
   11.1461  -15.6682   22.1299 C   0  0  0  0  0  0  0  0  0  0  0  0
   10.0818  -15.0333   22.1702 O   0  0  0  0  0  0  0  0  0  0  0  0
   17.1681  -15.1905   20.6777 O   0  0  0  0  0  0  0  0  0  0  0  0
   11.3646  -16.5412   23.2166 O   0  0  0  0  0  0  0  0  0  0  0  0
  2  1  1  6
  2  4  1  0
  2  3  1  0
  4  5  1  1
  6  4  1  0
  6  7  2  0
  8  6  1  0
  9  8  1  0
  9 10  1  6
 11 10  1  0
 11 15  1  0
 12 13  1  0
 12 11  2  0
 13 14  1  0
 14 15  2  0
 16  9  1  0
 17 16  2  0
 18 16  1  0
 19 18  1  0
 19 24  1  0
 19 20  1  1
 21 20  1  0
 22 21  1  0
 22 26  1  0
 23 22  2  0
 24 27  1  0
 25 24  2  0
M  END
$$$$
