VHE.pdb
     RDKit          3D

 27 27  0  0  1  0  0  0  0  0999 V2000
    8.6586  -12.9473   21.1350 C   0  0  0  0  0  0  0  0  0  0  0  0
    7.8789  -13.3489   19.9174 C   0  0  1  0  0  0  0  0  0  0  0  0
    7.9886  -12.3256   18.8068 C   0  0  0  0  0  0  0  0  0  0  0  0
    8.4903  -14.6433   19.3869 C   0  0  2  0  0  0  0  0  0  0  0  0
    7.8207  -15.0770   18.1807 N   0  0  0  0  0  0  0  0  0  0  0  0
    8.3251  -15.6936   20.4179 C   0  0  0  0  0  0  0  0  0  0  0  0
    7.2051  -16.2127   20.6833 O   0  0  0  0  0  0  0  0  0  0  0  0
    9.4524  -16.1354   21.1328 N   0  0  0  0  0  0  0  0  0  0  0  0
    9.3742  -17.2449   22.1190 C   0  0  1  0  0  0  0  0  0  0  0  0
    9.7451  -18.4640   21.3529 C   0  0  0  0  0  0  0  0  0  0  0  0
    8.6452  -19.2332   20.7595 C   0  0  0  0  0  0  0  0  0  0  0  0
    7.2991  -18.9761   20.8412 C   0  0  0  0  0  0  0  0  0  0  0  0
    6.5851  -19.9167   20.1919 N   0  0  0  0  0  0  0  0  0  0  0  0
    7.4831  -20.7906   19.6857 C   0  0  0  0  0  0  0  0  0  0  0  0
    8.7192  -20.3828   20.0248 N   0  0  0  0  0  0  0  0  0  0  0  0
   10.2526  -16.8557   23.2200 C   0  0  0  0  0  0  0  0  0  0  0  0
   11.4105  -16.4219   23.0205 O   0  0  0  0  0  0  0  0  0  0  0  0
    9.8070  -16.9569   24.5615 N   0  0  0  0  0  0  0  0  0  0  0  0
   10.6466  -16.5963   25.6864 C   0  0  1  0  0  0  0  0  0  0  0  0
    9.8447  -15.6438   26.5557 C   0  0  0  0  0  0  0  0  0  0  0  0
   10.6390  -15.1833   27.7533 C   0  0  0  0  0  0  0  0  0  0  0  0
    9.8254  -14.3002   28.6319 C   0  0  0  0  0  0  0  0  0  0  0  0
   10.2522  -14.0128   29.7761 O   0  0  0  0  0  0  0  0  0  0  0  0
   11.2052  -17.7114   26.4356 C   0  0  0  0  0  0  0  0  0  0  0  0
   10.7285  -18.8413   26.6190 O   0  0  0  0  0  0  0  0  0  0  0  0
    8.6026  -13.7772   28.2331 O   0  0  0  0  0  0  0  0  0  0  0  0
   12.4602  -17.4852   27.0392 O   0  0  0  0  0  0  0  0  0  0  0  0
  2  1  1  1
  2  4  1  0
  2  3  1  0
  4  5  1  6
  6  4  1  0
  6  7  2  0
  8  6  1  0
  9  8  1  0
  9 10  1  6
 11 10  1  0
 11 15  1  0
 12 13  1  0
 12 11  2  0
 13 14  1  0
 14 15  2  0
 16  9  1  0
 17 16  2  0
 18 16  1  0
 19 18  1  0
 19 24  1  0
 19 20  1  1
 21 20  1  0
 22 21  1  0
 22 26  1  0
 23 22  2  0
 24 27  1  0
 25 24  2  0
M  END
$$$$
