QTV.pdb
     RDKit          3D

 24 23  0  0  1  0  0  0  0  0999 V2000
   22.7960  -20.4808  -11.5020 N   0  0  0  0  0  0  0  0  0  0  0  0
   22.7929  -20.7533  -10.1151 C   0  0  0  0  0  0  0  0  0  0  0  0
   21.7563  -21.2352   -9.6092 O   0  0  0  0  0  0  0  0  0  0  0  0
   24.0227  -20.4501   -9.3436 C   0  0  0  0  0  0  0  0  0  0  0  0
   25.0706  -19.7744  -10.2037 C   0  0  0  0  0  0  0  0  0  0  0  0
   25.7592  -20.8337  -11.0034 C   0  0  2  0  0  0  0  0  0  0  0  0
   26.6708  -21.5404  -10.1388 N   0  0  0  0  0  0  0  0  0  0  0  0
   26.5079  -20.2980  -12.1638 C   0  0  0  0  0  0  0  0  0  0  0  0
   27.5603  -19.6133  -11.9962 O   0  0  0  0  0  0  0  0  0  0  0  0
   27.3775  -20.0934  -16.9495 C   0  0  0  0  0  0  0  0  0  0  0  0
   26.7515  -20.8254  -15.7796 C   0  0  1  0  0  0  0  0  0  0  0  0
   27.6974  -21.7767  -15.3605 O   0  0  0  0  0  0  0  0  0  0  0  0
   26.6626  -19.8054  -14.6383 C   0  0  2  0  0  0  0  0  0  0  0  0
   26.1059  -20.5106  -13.5084 N   0  0  0  0  0  0  0  0  0  0  0  0
   25.7852  -18.7183  -15.1202 C   0  0  0  0  0  0  0  0  0  0  0  0
   24.5458  -18.9368  -15.1171 O   0  0  0  0  0  0  0  0  0  0  0  0
   25.0809  -13.9033  -15.7371 C   0  0  0  0  0  0  0  0  0  0  0  0
   25.8509  -15.1245  -15.3135 C   0  0  2  0  0  0  0  0  0  0  0  0
   27.3193  -15.0194  -15.6692 C   0  0  0  0  0  0  0  0  0  0  0  0
   25.3254  -16.3922  -15.9326 C   0  0  2  0  0  0  0  0  0  0  0  0
   26.2360  -17.4635  -15.5795 N   0  0  0  0  0  0  0  0  0  0  0  0
   25.1569  -16.3006  -17.3834 C   0  0  0  0  0  0  0  0  0  0  0  0
   26.0718  -16.8150  -18.2842 O   0  0  0  0  0  0  0  0  0  0  0  0
   24.1362  -15.7297  -17.8455 O   0  0  0  0  0  0  0  0  0  0  0  0
  2  1  1  0
  2  3  2  0
  4  2  1  0
  5  4  1  0
  6  5  1  0
  6  7  1  1
  8  6  1  0
  8 14  1  0
  9  8  2  0
 11 10  1  6
 12 11  1  0
 13 14  1  1
 13 11  1  0
 15 13  1  0
 16 15  2  0
 18 20  1  0
 18 17  1  6
 19 18  1  0
 20 21  1  6
 21 15  1  0
 22 23  1  0
 22 20  1  0
 24 22  2  0
M  END
$$$$
