QTV.pdb
     RDKit          3D

 24 23  0  0  1  0  0  0  0  0999 V2000
   28.8725  -22.1401  -15.9613 N   0  0  0  0  0  0  0  0  0  0  0  0
   29.3136  -21.6969  -17.2289 C   0  0  0  0  0  0  0  0  0  0  0  0
   29.9102  -22.5117  -17.9659 O   0  0  0  0  0  0  0  0  0  0  0  0
   29.0409  -20.2891  -17.6075 C   0  0  0  0  0  0  0  0  0  0  0  0
   28.3384  -19.5368  -16.4962 C   0  0  0  0  0  0  0  0  0  0  0  0
   26.8831  -19.8733  -16.5642 C   0  0  2  0  0  0  0  0  0  0  0  0
   26.3260  -19.2611  -17.7444 N   0  0  0  0  0  0  0  0  0  0  0  0
   26.1211  -19.4211  -15.3773 C   0  0  0  0  0  0  0  0  0  0  0  0
   25.9703  -18.1868  -15.1353 O   0  0  0  0  0  0  0  0  0  0  0  0
   22.8086  -19.5684  -14.6440 C   0  0  0  0  0  0  0  0  0  0  0  0
   23.3514  -20.3687  -13.4773 C   0  0  1  0  0  0  0  0  0  0  0  0
   23.4441  -21.6984  -13.9230 O   0  0  0  0  0  0  0  0  0  0  0  0
   24.7980  -19.9014  -13.2777 C   0  0  2  0  0  0  0  0  0  0  0  0
   25.5234  -20.3184  -14.4541 N   0  0  0  0  0  0  0  0  0  0  0  0
   25.2813  -20.5607  -12.0466 C   0  0  0  0  0  0  0  0  0  0  0  0
   25.7857  -21.7071  -12.1694 O   0  0  0  0  0  0  0  0  0  0  0  0
   27.2073  -20.4073   -7.6027 C   0  0  0  0  0  0  0  0  0  0  0  0
   26.6382  -19.7879   -8.8501 C   0  0  2  0  0  0  0  0  0  0  0  0
   25.8943  -18.5020   -8.5549 C   0  0  0  0  0  0  0  0  0  0  0  0
   25.6890  -20.7024   -9.5777 C   0  0  2  0  0  0  0  0  0  0  0  0
   25.2174  -19.9994  -10.7545 N   0  0  0  0  0  0  0  0  0  0  0  0
   24.5700  -21.1524   -8.7488 C   0  0  0  0  0  0  0  0  0  0  0  0
   24.6960  -22.1235   -7.7721 O   0  0  0  0  0  0  0  0  0  0  0  0
   23.4351  -20.6396   -8.9232 O   0  0  0  0  0  0  0  0  0  0  0  0
  2  1  1  0
  2  3  2  0
  4  2  1  0
  5  4  1  0
  6  5  1  0
  6  7  1  6
  8  6  1  0
  8 14  1  0
  9  8  2  0
 11 10  1  6
 12 11  1  0
 13 14  1  6
 13 11  1  0
 15 13  1  0
 16 15  2  0
 18 20  1  0
 18 17  1  1
 19 18  1  0
 20 21  1  6
 21 15  1  0
 22 23  1  0
 22 20  1  0
 24 22  2  0
M  END
$$$$
