QTV.pdb
     RDKit          3D

 24 23  0  0  1  0  0  0  0  0999 V2000
   20.6362  -20.2207  -12.4576 N   0  0  0  0  0  0  0  0  0  0  0  0
   20.9619  -21.5906  -12.5807 C   0  0  0  0  0  0  0  0  0  0  0  0
   20.3556  -22.4102  -11.8572 O   0  0  0  0  0  0  0  0  0  0  0  0
   22.0054  -21.9722  -13.5631 C   0  0  0  0  0  0  0  0  0  0  0  0
   22.4543  -20.7864  -14.3918 C   0  0  0  0  0  0  0  0  0  0  0  0
   23.9312  -20.9026  -14.5951 C   0  0  2  0  0  0  0  0  0  0  0  0
   24.4997  -21.5708  -13.4513 N   0  0  0  0  0  0  0  0  0  0  0  0
   24.6024  -19.5947  -14.7761 C   0  0  0  0  0  0  0  0  0  0  0  0
   24.6880  -18.7717  -13.8170 O   0  0  0  0  0  0  0  0  0  0  0  0
   27.8373  -19.0329  -16.8393 C   0  0  0  0  0  0  0  0  0  0  0  0
   26.7903  -18.0701  -17.3619 C   0  0  1  0  0  0  0  0  0  0  0  0
   26.1006  -18.7539  -18.3778 O   0  0  0  0  0  0  0  0  0  0  0  0
   25.7751  -17.8891  -16.2272 C   0  0  2  0  0  0  0  0  0  0  0  0
   25.1804  -19.1859  -16.0064 N   0  0  0  0  0  0  0  0  0  0  0  0
   24.7975  -16.8870  -16.7003 C   0  0  0  0  0  0  0  0  0  0  0  0
   23.7592  -17.3196  -17.2646 O   0  0  0  0  0  0  0  0  0  0  0  0
   22.3025  -12.8825  -16.0692 C   0  0  0  0  0  0  0  0  0  0  0  0
   23.2812  -13.9829  -15.7616 C   0  0  2  0  0  0  0  0  0  0  0  0
   24.3918  -13.5129  -14.8452 C   0  0  0  0  0  0  0  0  0  0  0  0
   23.9256  -14.5558  -16.9957 C   0  0  2  0  0  0  0  0  0  0  0  0
   24.9457  -15.4912  -16.5646 N   0  0  0  0  0  0  0  0  0  0  0  0
   24.4869  -13.5353  -17.8818 C   0  0  0  0  0  0  0  0  0  0  0  0
   23.7769  -12.9656  -18.9231 O   0  0  0  0  0  0  0  0  0  0  0  0
   25.6696  -13.1497  -17.6981 O   0  0  0  0  0  0  0  0  0  0  0  0
  2  1  1  0
  2  3  2  0
  4  2  1  0
  5  4  1  0
  6  5  1  0
  6  7  1  1
  8  6  1  0
  8 14  1  0
  9  8  2  0
 11 10  1  1
 12 11  1  0
 13 14  1  6
 13 11  1  0
 15 13  1  0
 16 15  2  0
 18 20  1  0
 18 17  1  6
 19 18  1  0
 20 21  1  1
 21 15  1  0
 22 23  1  0
 22 20  1  0
 24 22  2  0
M  END
$$$$
