QTV.pdb
     RDKit          3D

 24 23  0  0  1  0  0  0  0  0999 V2000
   14.1571   -8.4564  -16.3787 N   0  0  0  0  0  0  0  0  0  0  0  0
   13.8896   -9.5976  -17.1685 C   0  0  0  0  0  0  0  0  0  0  0  0
   13.4260   -9.4268  -18.3169 O   0  0  0  0  0  0  0  0  0  0  0  0
   14.1762  -10.9306  -16.5849 C   0  0  0  0  0  0  0  0  0  0  0  0
   14.6808  -10.8213  -15.1609 C   0  0  0  0  0  0  0  0  0  0  0  0
   16.1642  -10.6406  -15.2133 C   0  0  2  0  0  0  0  0  0  0  0  0
   16.7630  -11.8859  -15.6241 N   0  0  0  0  0  0  0  0  0  0  0  0
   16.7499  -10.2247  -13.9179 C   0  0  0  0  0  0  0  0  0  0  0  0
   17.0849  -11.0859  -13.0515 O   0  0  0  0  0  0  0  0  0  0  0  0
   19.7497   -8.9810  -13.0574 C   0  0  0  0  0  0  0  0  0  0  0  0
   18.8790   -7.8321  -12.5903 C   0  0  1  0  0  0  0  0  0  0  0  0
   18.6956   -6.9993  -13.7075 O   0  0  0  0  0  0  0  0  0  0  0  0
   17.5001   -8.4354  -12.2977 C   0  0  2  0  0  0  0  0  0  0  0  0
   16.9696   -8.8664  -13.5692 N   0  0  0  0  0  0  0  0  0  0  0  0
   16.6979   -7.3584  -11.6810 C   0  0  0  0  0  0  0  0  0  0  0  0
   16.2134   -6.4900  -12.4522 O   0  0  0  0  0  0  0  0  0  0  0  0
   14.7873   -7.6729   -7.9961 C   0  0  0  0  0  0  0  0  0  0  0  0
   14.4694   -6.6763   -9.0775 C   0  0  2  0  0  0  0  0  0  0  0  0
   13.5978   -7.2758  -10.1614 C   0  0  0  0  0  0  0  0  0  0  0  0
   15.7005   -6.1212   -9.7429 C   0  0  2  0  0  0  0  0  0  0  0  0
   16.4395   -7.2369  -10.3000 N   0  0  0  0  0  0  0  0  0  0  0  0
   16.5394   -5.3316   -8.8404 C   0  0  0  0  0  0  0  0  0  0  0  0
   17.7715   -5.7628   -8.3834 O   0  0  0  0  0  0  0  0  0  0  0  0
   16.1319   -4.2061   -8.4550 O   0  0  0  0  0  0  0  0  0  0  0  0
  2  1  1  0
  2  3  2  0
  4  2  1  0
  5  4  1  0
  6  5  1  0
  6  7  1  1
  8  6  1  0
  8 14  1  0
  9  8  2  0
 11 10  1  6
 12 11  1  0
 13 14  1  6
 13 11  1  0
 15 13  1  0
 16 15  2  0
 18 20  1  0
 18 17  1  1
 19 18  1  0
 20 21  1  1
 21 15  1  0
 22 23  1  0
 22 20  1  0
 24 22  2  0
M  END
$$$$
