QTV.pdb
     RDKit          3D

 24 23  0  0  1  0  0  0  0  0999 V2000
   20.0333  -22.6195  -11.2291 N   0  0  0  0  0  0  0  0  0  0  0  0
   20.1528  -21.6678  -10.1909 C   0  0  0  0  0  0  0  0  0  0  0  0
   19.2042  -21.5488   -9.3854 O   0  0  0  0  0  0  0  0  0  0  0  0
   21.3992  -20.8671  -10.1209 C   0  0  0  0  0  0  0  0  0  0  0  0
   22.3241  -21.1687  -11.2820 C   0  0  0  0  0  0  0  0  0  0  0  0
   23.7195  -21.2400  -10.7494 C   0  0  2  0  0  0  0  0  0  0  0  0
   23.7165  -20.7569   -9.3912 N   0  0  0  0  0  0  0  0  0  0  0  0
   24.6904  -20.4516  -11.5428 C   0  0  0  0  0  0  0  0  0  0  0  0
   25.0293  -19.2862  -11.1802 O   0  0  0  0  0  0  0  0  0  0  0  0
   28.0553  -21.0974  -12.4746 C   0  0  0  0  0  0  0  0  0  0  0  0
   27.4039  -20.9449  -13.8342 C   0  0  1  0  0  0  0  0  0  0  0  0
   26.9766  -22.2298  -14.2108 O   0  0  0  0  0  0  0  0  0  0  0  0
   26.1211  -20.1376  -13.6029 C   0  0  2  0  0  0  0  0  0  0  0  0
   25.2915  -20.9373  -12.7334 N   0  0  0  0  0  0  0  0  0  0  0  0
   25.5158  -19.9289  -14.9347 C   0  0  0  0  0  0  0  0  0  0  0  0
   24.6447  -20.7579  -15.3057 O   0  0  0  0  0  0  0  0  0  0  0  0
   23.1626  -17.2726  -16.9963 C   0  0  0  0  0  0  0  0  0  0  0  0
   24.6558  -17.3183  -17.1751 C   0  0  2  0  0  0  0  0  0  0  0  0
   25.0859  -16.7221  -18.4993 C   0  0  0  0  0  0  0  0  0  0  0  0
   25.2115  -18.7158  -17.1068 C   0  0  2  0  0  0  0  0  0  0  0  0
   25.8434  -18.8743  -15.8118 N   0  0  0  0  0  0  0  0  0  0  0  0
   26.1469  -19.0197  -18.1904 C   0  0  0  0  0  0  0  0  0  0  0  0
   27.5109  -19.1446  -17.9981 O   0  0  0  0  0  0  0  0  0  0  0  0
   25.7021  -19.1771  -19.3560 O   0  0  0  0  0  0  0  0  0  0  0  0
  2  1  1  0
  2  3  2  0
  4  2  1  0
  5  4  1  0
  6  5  1  0
  6  7  1  1
  8  6  1  0
  8 14  1  0
  9  8  2  0
 11 10  1  1
 12 11  1  0
 13 14  1  1
 13 11  1  0
 15 13  1  0
 16 15  2  0
 18 20  1  0
 18 17  1  6
 19 18  1  0
 20 21  1  1
 21 15  1  0
 22 23  1  0
 22 20  1  0
 24 22  2  0
M  END
$$$$
