QTV.pdb
     RDKit          3D

 24 23  0  0  1  0  0  0  0  0999 V2000
   15.8830  -11.7617  -14.0149 N   0  0  0  0  0  0  0  0  0  0  0  0
   15.7202  -12.8641  -14.8844 C   0  0  0  0  0  0  0  0  0  0  0  0
   14.8349  -13.7045  -14.6149 O   0  0  0  0  0  0  0  0  0  0  0  0
   16.6119  -12.9561  -16.0660 C   0  0  0  0  0  0  0  0  0  0  0  0
   17.5929  -11.8030  -16.1178 C   0  0  0  0  0  0  0  0  0  0  0  0
   16.9671  -10.7048  -16.9166 C   0  0  2  0  0  0  0  0  0  0  0  0
   16.6510  -11.2148  -18.2273 N   0  0  0  0  0  0  0  0  0  0  0  0
   17.8360   -9.5134  -17.0560 C   0  0  0  0  0  0  0  0  0  0  0  0
   18.6628   -9.4222  -18.0113 O   0  0  0  0  0  0  0  0  0  0  0  0
   16.9443   -6.0913  -17.5681 C   0  0  0  0  0  0  0  0  0  0  0  0
   17.6998   -6.0432  -16.2554 C   0  0  1  0  0  0  0  0  0  0  0  0
   16.7553   -6.3087  -15.2491 O   0  0  0  0  0  0  0  0  0  0  0  0
   18.6421   -7.2527  -16.2628 C   0  0  2  0  0  0  0  0  0  0  0  0
   17.8013   -8.4208  -16.1506 N   0  0  0  0  0  0  0  0  0  0  0  0
   19.5423   -7.0850  -15.1029 C   0  0  0  0  0  0  0  0  0  0  0  0
   19.0611   -7.3199  -13.9641 O   0  0  0  0  0  0  0  0  0  0  0  0
   23.6926   -7.1100  -15.4018 C   0  0  0  0  0  0  0  0  0  0  0  0
   22.9263   -7.3478  -14.1291 C   0  0  2  0  0  0  0  0  0  0  0  0
   22.4640   -8.7850  -14.0067 C   0  0  0  0  0  0  0  0  0  0  0  0
   21.7098   -6.4696  -14.0050 C   0  0  2  0  0  0  0  0  0  0  0  0
   20.8918   -6.6835  -15.1826 N   0  0  0  0  0  0  0  0  0  0  0  0
   22.0342   -5.0523  -13.8391 C   0  0  0  0  0  0  0  0  0  0  0  0
   22.4644   -4.5110  -12.6412 O   0  0  0  0  0  0  0  0  0  0  0  0
   21.9207   -4.2797  -14.8247 O   0  0  0  0  0  0  0  0  0  0  0  0
  2  1  1  0
  2  3  2  0
  4  2  1  0
  5  4  1  0
  6  5  1  0
  6  7  1  6
  8  6  1  0
  8 14  1  0
  9  8  2  0
 11 10  1  6
 12 11  1  0
 13 14  1  1
 13 11  1  0
 15 13  1  0
 16 15  2  0
 18 20  1  0
 18 17  1  6
 19 18  1  0
 20 21  1  6
 21 15  1  0
 22 23  1  0
 22 20  1  0
 24 22  2  0
M  END
$$$$
