QTV.pdb
     RDKit          3D

 24 23  0  0  1  0  0  0  0  0999 V2000
   17.2656  -16.0105  -19.0828 N   0  0  0  0  0  0  0  0  0  0  0  0
   17.2048  -15.4675  -20.3864 C   0  0  0  0  0  0  0  0  0  0  0  0
   16.5059  -16.0552  -21.2401 O   0  0  0  0  0  0  0  0  0  0  0  0
   17.9758  -14.2307  -20.6617 C   0  0  0  0  0  0  0  0  0  0  0  0
   18.6482  -13.7006  -19.4122 C   0  0  0  0  0  0  0  0  0  0  0  0
   20.0453  -13.3101  -19.7746 C   0  0  2  0  0  0  0  0  0  0  0  0
   20.7797  -14.5022  -20.1174 N   0  0  0  0  0  0  0  0  0  0  0  0
   20.7556  -12.5986  -18.6869 C   0  0  0  0  0  0  0  0  0  0  0  0
   21.1724  -13.2239  -17.6671 O   0  0  0  0  0  0  0  0  0  0  0  0
   23.8737  -11.0667  -18.7098 C   0  0  0  0  0  0  0  0  0  0  0  0
   22.9729   -9.8965  -18.3699 C   0  0  1  0  0  0  0  0  0  0  0  0
   22.5135   -9.3859  -19.5961 O   0  0  0  0  0  0  0  0  0  0  0  0
   21.7378  -10.4951  -17.6865 C   0  0  2  0  0  0  0  0  0  0  0  0
   21.0107  -11.2025  -18.7136 N   0  0  0  0  0  0  0  0  0  0  0  0
   20.9773   -9.3563  -17.1314 C   0  0  0  0  0  0  0  0  0  0  0  0
   20.3388   -8.6406  -17.9462 O   0  0  0  0  0  0  0  0  0  0  0  0
   19.7001   -9.0150  -13.1261 C   0  0  0  0  0  0  0  0  0  0  0  0
   19.1455   -8.3085  -14.3331 C   0  0  2  0  0  0  0  0  0  0  0  0
   18.1934   -9.1884  -15.1162 C   0  0  0  0  0  0  0  0  0  0  0  0
   20.2166   -7.8436  -15.2834 C   0  0  2  0  0  0  0  0  0  0  0  0
   20.9175   -9.0182  -15.7636 N   0  0  0  0  0  0  0  0  0  0  0  0
   21.1450   -6.8844  -14.6837 C   0  0  0  0  0  0  0  0  0  0  0  0
   22.4616   -7.1898  -14.3899 O   0  0  0  0  0  0  0  0  0  0  0  0
   20.7387   -5.7244  -14.4182 O   0  0  0  0  0  0  0  0  0  0  0  0
  2  1  1  0
  2  3  2  0
  4  2  1  0
  5  4  1  0
  6  5  1  0
  6  7  1  1
  8  6  1  0
  8 14  1  0
  9  8  2  0
 11 10  1  6
 12 11  1  0
 13 14  1  6
 13 11  1  0
 15 13  1  0
 16 15  2  0
 18 20  1  0
 18 17  1  1
 19 18  1  0
 20 21  1  1
 21 15  1  0
 22 23  1  0
 22 20  1  0
 24 22  2  0
M  END
$$$$
