QTV.pdb
     RDKit          3D

 24 23  0  0  1  0  0  0  0  0999 V2000
   17.3645  -13.6377  -15.9893 N   0  0  0  0  0  0  0  0  0  0  0  0
   17.5838  -14.0929  -17.3092 C   0  0  0  0  0  0  0  0  0  0  0  0
   16.8097  -14.9581  -17.7730 O   0  0  0  0  0  0  0  0  0  0  0  0
   18.7217  -13.5148  -18.0648 C   0  0  0  0  0  0  0  0  0  0  0  0
   19.4474  -12.4562  -17.2603 C   0  0  0  0  0  0  0  0  0  0  0  0
   20.7140  -12.1215  -17.9810 C   0  0  2  0  0  0  0  0  0  0  0  0
   21.4298  -13.3454  -18.2414 N   0  0  0  0  0  0  0  0  0  0  0  0
   21.5913  -11.1976  -17.2257 C   0  0  0  0  0  0  0  0  0  0  0  0
   22.2135  -11.5915  -16.1950 O   0  0  0  0  0  0  0  0  0  0  0  0
   24.3883   -9.1847  -18.5501 C   0  0  0  0  0  0  0  0  0  0  0  0
   23.4486   -8.1672  -17.9354 C   0  0  1  0  0  0  0  0  0  0  0  0
   22.5279   -7.8257  -18.9409 O   0  0  0  0  0  0  0  0  0  0  0  0
   22.6375   -8.9231  -16.8763 C   0  0  2  0  0  0  0  0  0  0  0  0
   21.7887   -9.8419  -17.5970 N   0  0  0  0  0  0  0  0  0  0  0  0
   21.8703   -7.9017  -16.1334 C   0  0  0  0  0  0  0  0  0  0  0  0
   20.8368   -7.4446  -16.6872 O   0  0  0  0  0  0  0  0  0  0  0  0
   20.0464   -8.2295  -13.0629 C   0  0  0  0  0  0  0  0  0  0  0  0
   20.9540   -7.0462  -12.8640 C   0  0  2  0  0  0  0  0  0  0  0  0
   20.2927   -5.9569  -12.0454 C   0  0  0  0  0  0  0  0  0  0  0  0
   21.4029   -6.4276  -14.1610 C   0  0  2  0  0  0  0  0  0  0  0  0
   22.2127   -7.4075  -14.8578 N   0  0  0  0  0  0  0  0  0  0  0  0
   22.1335   -5.1725  -13.9807 C   0  0  0  0  0  0  0  0  0  0  0  0
   21.5345   -3.9294  -14.0749 O   0  0  0  0  0  0  0  0  0  0  0  0
   23.3646   -5.2126  -13.7277 O   0  0  0  0  0  0  0  0  0  0  0  0
  2  1  1  0
  2  3  2  0
  4  2  1  0
  5  4  1  0
  6  5  1  0
  6  7  1  1
  8  6  1  0
  8 14  1  0
  9  8  2  0
 11 10  1  6
 12 11  1  0
 13 14  1  6
 13 11  1  0
 15 13  1  0
 16 15  2  0
 18 20  1  0
 18 17  1  6
 19 18  1  0
 20 21  1  1
 21 15  1  0
 22 23  1  0
 22 20  1  0
 24 22  2  0
M  END
$$$$
