QTV.pdb
     RDKit          3D

 24 23  0  0  1  0  0  0  0  0999 V2000
   17.5142  -15.2873  -15.6765 N   0  0  0  0  0  0  0  0  0  0  0  0
   16.2161  -14.9116  -16.0907 C   0  0  0  0  0  0  0  0  0  0  0  0
   15.2604  -15.6609  -15.7940 O   0  0  0  0  0  0  0  0  0  0  0  0
   16.0674  -13.6485  -16.8537 C   0  0  0  0  0  0  0  0  0  0  0  0
   17.3884  -12.9206  -16.9939 C   0  0  0  0  0  0  0  0  0  0  0  0
   17.2396  -11.5752  -16.3587 C   0  0  2  0  0  0  0  0  0  0  0  0
   16.0287  -10.9677  -16.8512 N   0  0  0  0  0  0  0  0  0  0  0  0
   18.3809  -10.6704  -16.6286 C   0  0  0  0  0  0  0  0  0  0  0  0
   19.5738  -11.0865  -16.5368 O   0  0  0  0  0  0  0  0  0  0  0  0
   19.8574   -6.1941  -18.1019 C   0  0  0  0  0  0  0  0  0  0  0  0
   18.7495   -7.2248  -18.0210 C   0  0  1  0  0  0  0  0  0  0  0  0
   18.5822   -7.7242  -19.3241 O   0  0  0  0  0  0  0  0  0  0  0  0
   19.3141   -8.3927  -17.2037 C   0  0  2  0  0  0  0  0  0  0  0  0
   18.2183   -9.3099  -16.9992 N   0  0  0  0  0  0  0  0  0  0  0  0
   19.8146   -7.8120  -15.9403 C   0  0  0  0  0  0  0  0  0  0  0  0
   18.9638   -7.3001  -15.1671 O   0  0  0  0  0  0  0  0  0  0  0  0
   23.6009   -8.8026  -14.3913 C   0  0  0  0  0  0  0  0  0  0  0  0
   22.3907   -8.4058  -13.5903 C   0  0  2  0  0  0  0  0  0  0  0  0
   21.4574   -9.5758  -13.3576 C   0  0  0  0  0  0  0  0  0  0  0  0
   21.5893   -7.3112  -14.2429 C   0  0  2  0  0  0  0  0  0  0  0  0
   21.1678   -7.7915  -15.5440 N   0  0  0  0  0  0  0  0  0  0  0  0
   22.3212   -6.0492  -14.3588 C   0  0  0  0  0  0  0  0  0  0  0  0
   22.6912   -5.4992  -15.5727 O   0  0  0  0  0  0  0  0  0  0  0  0
   22.6344   -5.4258  -13.3126 O   0  0  0  0  0  0  0  0  0  0  0  0
  2  1  1  0
  2  3  2  0
  4  2  1  0
  5  4  1  0
  6  5  1  0
  6  7  1  6
  8  6  1  0
  8 14  1  0
  9  8  2  0
 11 10  1  6
 12 11  1  0
 13 14  1  1
 13 11  1  0
 15 13  1  0
 16 15  2  0
 18 20  1  0
 18 17  1  6
 19 18  1  0
 20 21  1  6
 21 15  1  0
 22 23  1  0
 22 20  1  0
 24 22  2  0
M  END
$$$$
