QTV.pdb
     RDKit          3D

 24 23  0  0  1  0  0  0  0  0999 V2000
   16.3716  -12.1813  -20.7590 N   0  0  0  0  0  0  0  0  0  0  0  0
   16.0790  -12.5315  -19.4213 C   0  0  0  0  0  0  0  0  0  0  0  0
   15.0645  -12.0328  -18.8875 O   0  0  0  0  0  0  0  0  0  0  0  0
   16.9959  -13.4712  -18.7315 C   0  0  0  0  0  0  0  0  0  0  0  0
   17.9568  -12.7434  -17.8141 C   0  0  0  0  0  0  0  0  0  0  0  0
   19.2676  -12.6261  -18.5240 C   0  0  2  0  0  0  0  0  0  0  0  0
   19.8041  -13.9501  -18.7167 N   0  0  0  0  0  0  0  0  0  0  0  0
   20.2582  -11.8028  -17.7928 C   0  0  0  0  0  0  0  0  0  0  0  0
   21.0618  -12.3340  -16.9702 O   0  0  0  0  0  0  0  0  0  0  0  0
   22.8470   -9.6449  -19.1196 C   0  0  0  0  0  0  0  0  0  0  0  0
   22.0101   -8.6997  -18.2815 C   0  0  1  0  0  0  0  0  0  0  0  0
   20.9904   -8.2259  -19.1248 O   0  0  0  0  0  0  0  0  0  0  0  0
   21.3050   -9.5706  -17.2350 C   0  0  2  0  0  0  0  0  0  0  0  0
   20.3707  -10.3979  -17.9607 N   0  0  0  0  0  0  0  0  0  0  0  0
   20.6366   -8.6397  -16.3021 C   0  0  0  0  0  0  0  0  0  0  0  0
   19.4528   -8.3084  -16.5714 O   0  0  0  0  0  0  0  0  0  0  0  0
   19.5816   -7.0649  -11.9350 C   0  0  0  0  0  0  0  0  0  0  0  0
   20.3366   -7.8947  -12.9376 C   0  0  2  0  0  0  0  0  0  0  0  0
   21.7110   -8.2812  -12.4322 C   0  0  0  0  0  0  0  0  0  0  0  0
   20.5208   -7.1945  -14.2575 C   0  0  2  0  0  0  0  0  0  0  0  0
   21.2278   -8.1010  -15.1406 N   0  0  0  0  0  0  0  0  0  0  0  0
   21.2244   -5.9166  -14.1410 C   0  0  0  0  0  0  0  0  0  0  0  0
   20.5775   -4.7166  -13.9076 O   0  0  0  0  0  0  0  0  0  0  0  0
   22.4763   -5.8952  -14.2566 O   0  0  0  0  0  0  0  0  0  0  0  0
  2  1  1  0
  2  3  2  0
  4  2  1  0
  5  4  1  0
  6  5  1  0
  6  7  1  1
  8  6  1  0
  8 14  1  0
  9  8  2  0
 11 10  1  6
 12 11  1  0
 13 14  1  6
 13 11  1  0
 15 13  1  0
 16 15  2  0
 18 20  1  0
 18 17  1  1
 19 18  1  0
 20 21  1  6
 21 15  1  0
 22 23  1  0
 22 20  1  0
 24 22  2  0
M  END
$$$$
