QTV.pdb
     RDKit          3D

 24 23  0  0  1  0  0  0  0  0999 V2000
   20.8104  -22.8742  -10.6457 N   0  0  0  0  0  0  0  0  0  0  0  0
   21.1487  -21.5177  -10.8540 C   0  0  0  0  0  0  0  0  0  0  0  0
   20.9184  -21.0160  -11.9757 O   0  0  0  0  0  0  0  0  0  0  0  0
   21.7575  -20.7713   -9.7262 C   0  0  0  0  0  0  0  0  0  0  0  0
   22.9361  -19.9349  -10.1801 C   0  0  0  0  0  0  0  0  0  0  0  0
   24.1056  -20.8497  -10.3568 C   0  0  2  0  0  0  0  0  0  0  0  0
   24.6619  -21.1379   -9.0586 N   0  0  0  0  0  0  0  0  0  0  0  0
   25.1652  -20.2851  -11.2243 C   0  0  0  0  0  0  0  0  0  0  0  0
   26.1049  -19.5925  -10.7326 O   0  0  0  0  0  0  0  0  0  0  0  0
   25.7025  -21.5573  -15.2292 C   0  0  0  0  0  0  0  0  0  0  0  0
   26.7948  -21.0955  -14.2860 C   0  0  1  0  0  0  0  0  0  0  0  0
   27.8023  -20.5408  -15.0940 O   0  0  0  0  0  0  0  0  0  0  0  0
   26.2069  -19.9188  -13.4982 C   0  0  2  0  0  0  0  0  0  0  0  0
   25.1977  -20.4776  -12.6302 N   0  0  0  0  0  0  0  0  0  0  0  0
   25.6457  -18.9877  -14.4991 C   0  0  0  0  0  0  0  0  0  0  0  0
   24.4975  -19.2470  -14.9441 O   0  0  0  0  0  0  0  0  0  0  0  0
   25.6701  -14.4617  -16.4888 C   0  0  0  0  0  0  0  0  0  0  0  0
   26.2873  -15.5470  -15.6493 C   0  0  2  0  0  0  0  0  0  0  0  0
   27.7723  -15.6896  -15.9109 C   0  0  0  0  0  0  0  0  0  0  0  0
   25.6566  -16.8947  -15.8779 C   0  0  2  0  0  0  0  0  0  0  0  0
   26.3017  -17.8384  -14.9864 N   0  0  0  0  0  0  0  0  0  0  0  0
   25.7385  -17.3430  -17.2686 C   0  0  0  0  0  0  0  0  0  0  0  0
   24.7394  -17.1123  -18.1968 O   0  0  0  0  0  0  0  0  0  0  0  0
   26.7604  -17.9687  -17.6501 O   0  0  0  0  0  0  0  0  0  0  0  0
  2  1  1  0
  2  3  2  0
  4  2  1  0
  5  4  1  0
  6  5  1  0
  6  7  1  1
  8  6  1  0
  8 14  1  0
  9  8  2  0
 11 10  1  6
 12 11  1  0
 13 14  1  1
 13 11  1  0
 15 13  1  0
 16 15  2  0
 18 20  1  0
 18 17  1  6
 19 18  1  0
 20 21  1  1
 21 15  1  0
 22 23  1  0
 22 20  1  0
 24 22  2  0
M  END
$$$$
