AWM.pdb
     RDKit          3D

 28 29  0  0  1  0  0  0  0  0999 V2000
    9.7535  -21.0319   20.7988 C   0  0  0  0  0  0  0  0  0  0  0  0
    9.1881  -19.8784   19.9976 C   0  0  2  0  0  0  0  0  0  0  0  0
    9.8912  -19.7971   18.7493 N   0  0  0  0  0  0  0  0  0  0  0  0
    9.3417  -18.6520   20.8304 C   0  0  0  0  0  0  0  0  0  0  0  0
   10.3850  -17.9852   20.6692 O   0  0  0  0  0  0  0  0  0  0  0  0
    8.3846  -18.2258   21.7662 N   0  0  0  0  0  0  0  0  0  0  0  0
    8.5228  -16.9378   22.4124 C   0  0  1  0  0  0  0  0  0  0  0  0
    7.1852  -16.2713   22.6315 C   0  0  0  0  0  0  0  0  0  0  0  0
    7.3885  -14.8564   23.0409 C   0  0  0  0  0  0  0  0  0  0  0  0
    8.1192  -13.8801   22.3630 C   0  0  0  0  0  0  0  0  0  0  0  0
    8.0442  -12.7481   23.0770 N   0  0  0  0  0  0  0  0  0  0  0  0
    7.3028  -12.9659   24.1691 C   0  0  0  0  0  0  0  0  0  0  0  0
    6.9484  -12.1105   25.1927 C   0  0  0  0  0  0  0  0  0  0  0  0
    6.1552  -12.5515   26.2520 C   0  0  0  0  0  0  0  0  0  0  0  0
    5.7270  -13.8598   26.2644 C   0  0  0  0  0  0  0  0  0  0  0  0
    6.0833  -14.7020   25.2447 C   0  0  0  0  0  0  0  0  0  0  0  0
    6.8707  -14.2868   24.1811 C   0  0  0  0  0  0  0  0  0  0  0  0
    9.2961  -17.0768   23.6730 C   0  0  0  0  0  0  0  0  0  0  0  0
    8.8897  -17.8632   24.5747 O   0  0  0  0  0  0  0  0  0  0  0  0
   10.5668  -12.8391   29.3939 C   0  0  0  0  0  0  0  0  0  0  0  0
    9.5582  -13.9765   28.3906 S   0  0  0  0  0  0  0  0  0  0  0  0
   10.5903  -15.1118   27.4496 C   0  0  0  0  0  0  0  0  0  0  0  0
   10.0766  -15.2801   26.0381 C   0  0  0  0  0  0  0  0  0  0  0  0
   10.9777  -16.2174   25.2698 C   0  0  2  0  0  0  0  0  0  0  0  0
   10.4857  -16.3644   23.9273 N   0  0  0  0  0  0  0  0  0  0  0  0
   11.0993  -17.5286   25.9615 C   0  0  0  0  0  0  0  0  0  0  0  0
   10.2221  -18.4220   25.7486 O   0  0  0  0  0  0  0  0  0  0  0  0
   12.1114  -17.8441   26.8287 O   0  0  0  0  0  0  0  0  0  0  0  0
  2  1  1  1
  2  3  1  0
  4  2  1  0
  5  4  2  0
  6  4  1  0
  7  6  1  0
  7  8  1  1
  9  8  1  0
  9 17  1  0
 10 11  1  0
 10  9  2  0
 11 12  1  0
 12 17  2  0
 12 13  1  0
 13 14  2  0
 14 15  1  0
 16 15  2  0
 17 16  1  0
 18  7  1  0
 18 19  2  0
 21 20  1  0
 22 21  1  0
 23 22  1  0
 24 23  1  1
 24 25  1  0
 25 18  1  0
 26 24  1  0
 27 26  2  0
 28 26  1  0
M  END
$$$$
