AWM.pdb
     RDKit          3D

 28 29  0  0  1  0  0  0  0  0999 V2000
   11.7045  -16.5522   18.9039 C   0  0  0  0  0  0  0  0  0  0  0  0
   11.6869  -17.5733   20.0216 C   0  0  2  0  0  0  0  0  0  0  0  0
   10.8509  -18.6713   19.6284 N   0  0  0  0  0  0  0  0  0  0  0  0
   11.1918  -16.8757   21.2420 C   0  0  0  0  0  0  0  0  0  0  0  0
   11.9445  -16.0175   21.7481 O   0  0  0  0  0  0  0  0  0  0  0  0
    9.9441  -17.1374   21.8319 N   0  0  0  0  0  0  0  0  0  0  0  0
    9.5170  -16.3862   22.9933 C   0  0  1  0  0  0  0  0  0  0  0  0
    8.0118  -16.3248   23.1020 C   0  0  0  0  0  0  0  0  0  0  0  0
    7.5723  -14.9090   23.2167 C   0  0  0  0  0  0  0  0  0  0  0  0
    7.4796  -13.9700   22.1889 C   0  0  0  0  0  0  0  0  0  0  0  0
    7.0432  -12.8220   22.7261 N   0  0  0  0  0  0  0  0  0  0  0  0
    6.8577  -12.9943   24.0397 C   0  0  0  0  0  0  0  0  0  0  0  0
    6.4218  -12.1077   25.0036 C   0  0  0  0  0  0  0  0  0  0  0  0
    6.2985  -12.5021   26.3358 C   0  0  0  0  0  0  0  0  0  0  0  0
    6.6193  -13.7958   26.6804 C   0  0  0  0  0  0  0  0  0  0  0  0
    7.0511  -14.6692   25.7176 C   0  0  0  0  0  0  0  0  0  0  0  0
    7.1816  -14.3004   24.3870 C   0  0  0  0  0  0  0  0  0  0  0  0
   10.1483  -16.9359   24.2204 C   0  0  0  0  0  0  0  0  0  0  0  0
   10.4398  -18.1640   24.2795 O   0  0  0  0  0  0  0  0  0  0  0  0
   11.4356  -14.2789   30.4006 C   0  0  0  0  0  0  0  0  0  0  0  0
   10.2156  -13.7541   29.1541 S   0  0  0  0  0  0  0  0  0  0  0  0
   10.0204  -14.9947   27.8647 C   0  0  0  0  0  0  0  0  0  0  0  0
   11.3395  -15.6531   27.5314 C   0  0  0  0  0  0  0  0  0  0  0  0
   11.1337  -16.7156   26.4779 C   0  0  2  0  0  0  0  0  0  0  0  0
   10.4480  -16.1473   25.3497 N   0  0  0  0  0  0  0  0  0  0  0  0
   10.4061  -17.8870   27.0354 C   0  0  0  0  0  0  0  0  0  0  0  0
   10.9979  -18.6416   27.8681 O   0  0  0  0  0  0  0  0  0  0  0  0
    9.1174  -18.2137   26.7059 O   0  0  0  0  0  0  0  0  0  0  0  0
  2  1  1  6
  2  3  1  0
  4  2  1  0
  5  4  2  0
  6  4  1  0
  7  6  1  0
  7  8  1  1
  9  8  1  0
  9 17  1  0
 10 11  1  0
 10  9  2  0
 11 12  1  0
 12 17  2  0
 12 13  1  0
 13 14  2  0
 14 15  1  0
 16 15  2  0
 17 16  1  0
 18  7  1  0
 18 19  2  0
 21 20  1  0
 22 21  1  0
 23 22  1  0
 24 23  1  1
 24 25  1  0
 25 18  1  0
 26 24  1  0
 27 26  2  0
 28 26  1  0
M  END
$$$$
