AWM.pdb
     RDKit          3D

 28 29  0  0  1  0  0  0  0  0999 V2000
   12.0965  -17.9049   20.6657 C   0  0  0  0  0  0  0  0  0  0  0  0
   10.7534  -17.2103   20.5901 C   0  0  2  0  0  0  0  0  0  0  0  0
   10.8381  -16.1488   19.6281 N   0  0  0  0  0  0  0  0  0  0  0  0
   10.4354  -16.7248   21.9628 C   0  0  0  0  0  0  0  0  0  0  0  0
   10.8080  -15.5694   22.2550 O   0  0  0  0  0  0  0  0  0  0  0  0
    9.7507  -17.4944   22.9178 N   0  0  0  0  0  0  0  0  0  0  0  0
    9.4548  -16.9399   24.2219 C   0  0  1  0  0  0  0  0  0  0  0  0
    8.0244  -17.1986   24.6325 C   0  0  0  0  0  0  0  0  0  0  0  0
    7.1863  -16.0128   24.3126 C   0  0  0  0  0  0  0  0  0  0  0  0
    6.1674  -15.9331   23.3627 C   0  0  0  0  0  0  0  0  0  0  0  0
    5.6741  -14.6871   23.4003 N   0  0  0  0  0  0  0  0  0  0  0  0
    6.3330  -13.9816   24.3264 C   0  0  0  0  0  0  0  0  0  0  0  0
    6.1823  -12.6680   24.7224 C   0  0  0  0  0  0  0  0  0  0  0  0
    6.9879  -12.1250   25.7233 C   0  0  0  0  0  0  0  0  0  0  0  0
    7.9422  -12.9208   26.3158 C   0  0  0  0  0  0  0  0  0  0  0  0
    8.0852  -14.2233   25.9169 C   0  0  0  0  0  0  0  0  0  0  0  0
    7.2963  -14.7854   24.9243 C   0  0  0  0  0  0  0  0  0  0  0  0
   10.4283  -17.4417   25.2254 C   0  0  0  0  0  0  0  0  0  0  0  0
   11.1651  -18.4292   24.9453 O   0  0  0  0  0  0  0  0  0  0  0  0
   10.7481  -13.8251   30.9825 C   0  0  0  0  0  0  0  0  0  0  0  0
    9.9325  -14.4978   29.4993 S   0  0  0  0  0  0  0  0  0  0  0  0
   11.1371  -15.0884   28.2995 C   0  0  0  0  0  0  0  0  0  0  0  0
   11.6171  -16.4802   28.6421 C   0  0  0  0  0  0  0  0  0  0  0  0
   11.5807  -17.3555   27.4119 C   0  0  2  0  0  0  0  0  0  0  0  0
   10.5807  -16.8656   26.5029 N   0  0  0  0  0  0  0  0  0  0  0  0
   11.3484  -18.7789   27.7756 C   0  0  0  0  0  0  0  0  0  0  0  0
   10.2473  -19.3254   27.4563 O   0  0  0  0  0  0  0  0  0  0  0  0
   12.2578  -19.5551   28.4438 O   0  0  0  0  0  0  0  0  0  0  0  0
  2  1  1  1
  2  3  1  0
  4  2  1  0
  5  4  2  0
  6  4  1  0
  7  6  1  0
  7  8  1  1
  9  8  1  0
  9 17  1  0
 10 11  1  0
 10  9  2  0
 11 12  1  0
 12 17  2  0
 12 13  1  0
 13 14  2  0
 14 15  1  0
 16 15  2  0
 17 16  1  0
 18  7  1  0
 18 19  2  0
 21 20  1  0
 22 21  1  0
 23 22  1  0
 24 23  1  1
 24 25  1  0
 25 18  1  0
 26 24  1  0
 27 26  2  0
 28 26  1  0
M  END
$$$$
