AWM.pdb
     RDKit          3D

 28 29  0  0  1  0  0  0  0  0999 V2000
   10.6455  -20.3531   20.3242 C   0  0  0  0  0  0  0  0  0  0  0  0
   10.2423  -19.1376   19.5168 C   0  0  2  0  0  0  0  0  0  0  0  0
   11.2015  -18.9438   18.4672 N   0  0  0  0  0  0  0  0  0  0  0  0
   10.1774  -17.9875   20.4624 C   0  0  0  0  0  0  0  0  0  0  0  0
   11.2132  -17.3024   20.5924 O   0  0  0  0  0  0  0  0  0  0  0  0
    9.0273  -17.6508   21.1954 N   0  0  0  0  0  0  0  0  0  0  0  0
    9.0086  -16.4540   22.0096 C   0  0  1  0  0  0  0  0  0  0  0  0
    7.6543  -15.7854   21.9968 C   0  0  0  0  0  0  0  0  0  0  0  0
    7.7339  -14.4727   22.6907 C   0  0  0  0  0  0  0  0  0  0  0  0
    8.3730  -13.3181   22.2378 C   0  0  0  0  0  0  0  0  0  0  0  0
    8.2017  -12.3680   23.1679 N   0  0  0  0  0  0  0  0  0  0  0  0
    7.4870  -12.8695   24.1815 C   0  0  0  0  0  0  0  0  0  0  0  0
    7.0630  -12.2770   25.3539 C   0  0  0  0  0  0  0  0  0  0  0  0
    6.3164  -12.9937   26.2890 C   0  0  0  0  0  0  0  0  0  0  0  0
    6.0050  -14.3088   26.0267 C   0  0  0  0  0  0  0  0  0  0  0  0
    6.4296  -14.8890   24.8608 C   0  0  0  0  0  0  0  0  0  0  0  0
    7.1729  -14.1970   23.9162 C   0  0  0  0  0  0  0  0  0  0  0  0
    9.4709  -16.7634   23.3869 C   0  0  0  0  0  0  0  0  0  0  0  0
    9.4988  -17.9623   23.7847 O   0  0  0  0  0  0  0  0  0  0  0  0
   11.2255  -14.2066   30.6055 C   0  0  0  0  0  0  0  0  0  0  0  0
   11.2876  -13.7934   28.8326 S   0  0  0  0  0  0  0  0  0  0  0  0
   11.0607  -15.2570   27.8099 C   0  0  0  0  0  0  0  0  0  0  0  0
   10.6542  -14.8860   26.4021 C   0  0  0  0  0  0  0  0  0  0  0  0
   10.3869  -16.1353   25.5966 C   0  0  2  0  0  0  0  0  0  0  0  0
    9.8903  -15.7723   24.2975 N   0  0  0  0  0  0  0  0  0  0  0  0
    9.4516  -17.0432   26.3130 C   0  0  0  0  0  0  0  0  0  0  0  0
    9.8665  -17.6765   27.3327 O   0  0  0  0  0  0  0  0  0  0  0  0
    8.1492  -17.2468   25.9411 O   0  0  0  0  0  0  0  0  0  0  0  0
  2  1  1  1
  2  3  1  0
  4  2  1  0
  5  4  2  0
  6  4  1  0
  7  6  1  0
  7  8  1  1
  9  8  1  0
  9 17  1  0
 10 11  1  0
 10  9  2  0
 11 12  1  0
 12 17  2  0
 12 13  1  0
 13 14  2  0
 14 15  1  0
 16 15  2  0
 17 16  1  0
 18  7  1  0
 18 19  2  0
 21 20  1  0
 22 21  1  0
 23 22  1  0
 24 23  1  1
 24 25  1  0
 25 18  1  0
 26 24  1  0
 27 26  2  0
 28 26  1  0
M  END
$$$$
