AWM.pdb
     RDKit          3D

 28 29  0  0  1  0  0  0  0  0999 V2000
    8.5677  -15.4367   17.8902 C   0  0  0  0  0  0  0  0  0  0  0  0
    7.6298  -14.4292   18.5206 C   0  0  2  0  0  0  0  0  0  0  0  0
    7.8347  -13.1549   17.8932 N   0  0  0  0  0  0  0  0  0  0  0  0
    7.9268  -14.4108   19.9810 C   0  0  0  0  0  0  0  0  0  0  0  0
    8.7964  -13.6045   20.3717 O   0  0  0  0  0  0  0  0  0  0  0  0
    7.2845  -15.2427   20.9129 N   0  0  0  0  0  0  0  0  0  0  0  0
    7.6235  -15.1583   22.3178 C   0  0  1  0  0  0  0  0  0  0  0  0
    6.4530  -15.5178   23.2021 C   0  0  0  0  0  0  0  0  0  0  0  0
    6.8317  -15.3535   24.6306 C   0  0  0  0  0  0  0  0  0  0  0  0
    7.1755  -16.3614   25.5321 C   0  0  0  0  0  0  0  0  0  0  0  0
    7.4454  -15.7787   26.7088 N   0  0  0  0  0  0  0  0  0  0  0  0
    7.2879  -14.4555   26.5900 C   0  0  0  0  0  0  0  0  0  0  0  0
    7.4503  -13.4500   27.5215 C   0  0  0  0  0  0  0  0  0  0  0  0
    7.2304  -12.1155   27.1803 C   0  0  0  0  0  0  0  0  0  0  0  0
    6.8466  -11.8111   25.8938 C   0  0  0  0  0  0  0  0  0  0  0  0
    6.6877  -12.8149   24.9756 C   0  0  0  0  0  0  0  0  0  0  0  0
    6.9004  -14.1487   25.2911 C   0  0  0  0  0  0  0  0  0  0  0  0
    8.8226  -15.9859   22.6067 C   0  0  0  0  0  0  0  0  0  0  0  0
    8.8177  -17.2174   22.3239 O   0  0  0  0  0  0  0  0  0  0  0  0
   11.7520  -13.3791   19.4687 C   0  0  0  0  0  0  0  0  0  0  0  0
   12.9026  -14.5792   20.2127 S   0  0  0  0  0  0  0  0  0  0  0  0
   12.0203  -15.8506   21.1317 C   0  0  0  0  0  0  0  0  0  0  0  0
   12.3119  -15.7607   22.6121 C   0  0  0  0  0  0  0  0  0  0  0  0
   11.1432  -16.3011   23.4015 C   0  0  2  0  0  0  0  0  0  0  0  0
    9.9938  -15.4638   23.1923 N   0  0  0  0  0  0  0  0  0  0  0  0
   11.4837  -16.4235   24.8442 C   0  0  0  0  0  0  0  0  0  0  0  0
   12.5200  -17.0764   25.1802 O   0  0  0  0  0  0  0  0  0  0  0  0
   10.7423  -15.8698   25.8541 O   0  0  0  0  0  0  0  0  0  0  0  0
  2  1  1  6
  2  3  1  0
  4  2  1  0
  5  4  2  0
  6  4  1  0
  7  6  1  0
  7  8  1  1
  9  8  1  0
  9 17  1  0
 10 11  1  0
 10  9  2  0
 11 12  1  0
 12 17  2  0
 12 13  1  0
 13 14  2  0
 14 15  1  0
 16 15  2  0
 17 16  1  0
 18  7  1  0
 18 19  2  0
 21 20  1  0
 22 21  1  0
 23 22  1  0
 24 23  1  6
 24 25  1  0
 25 18  1  0
 26 24  1  0
 27 26  2  0
 28 26  1  0
M  END
$$$$
