AWM.pdb
     RDKit          3D

 28 29  0  0  1  0  0  0  0  0999 V2000
    8.9524  -21.8069   22.4573 C   0  0  0  0  0  0  0  0  0  0  0  0
    8.1203  -20.8480   21.6326 C   0  0  2  0  0  0  0  0  0  0  0  0
    8.4228  -21.0529   20.2448 N   0  0  0  0  0  0  0  0  0  0  0  0
    8.4488  -19.4717   22.1005 C   0  0  0  0  0  0  0  0  0  0  0  0
    9.4794  -18.9453   21.6317 O   0  0  0  0  0  0  0  0  0  0  0  0
    7.6659  -18.7597   23.0244 N   0  0  0  0  0  0  0  0  0  0  0  0
    8.0405  -17.4162   23.4120 C   0  0  1  0  0  0  0  0  0  0  0  0
    6.8342  -16.5653   23.7315 C   0  0  0  0  0  0  0  0  0  0  0  0
    7.2355  -15.1365   23.8229 C   0  0  0  0  0  0  0  0  0  0  0  0
    7.9827  -14.4105   22.8948 C   0  0  0  0  0  0  0  0  0  0  0  0
    8.1146  -13.1628   23.3668 N   0  0  0  0  0  0  0  0  0  0  0  0
    7.4871  -13.0702   24.5447 C   0  0  0  0  0  0  0  0  0  0  0  0
    7.3495  -11.9963   25.4009 C   0  0  0  0  0  0  0  0  0  0  0  0
    6.6432  -12.1205   26.5972 C   0  0  0  0  0  0  0  0  0  0  0  0
    6.0807  -13.3358   26.9162 C   0  0  0  0  0  0  0  0  0  0  0  0
    6.2220  -14.3963   26.0609 C   0  0  0  0  0  0  0  0  0  0  0  0
    6.9195  -14.2973   24.8662 C   0  0  0  0  0  0  0  0  0  0  0  0
    9.0130  -17.4584   24.5339 C   0  0  0  0  0  0  0  0  0  0  0  0
    8.6337  -17.8346   25.6790 O   0  0  0  0  0  0  0  0  0  0  0  0
   10.6746  -13.0148   29.6891 C   0  0  0  0  0  0  0  0  0  0  0  0
    9.7712  -13.8740   28.3611 S   0  0  0  0  0  0  0  0  0  0  0  0
   10.8649  -14.9376   27.4060 C   0  0  0  0  0  0  0  0  0  0  0  0
   10.1329  -15.5839   26.2522 C   0  0  0  0  0  0  0  0  0  0  0  0
   11.0761  -16.4722   25.4761 C   0  0  2  0  0  0  0  0  0  0  0  0
   10.3673  -17.0939   24.3911 N   0  0  0  0  0  0  0  0  0  0  0  0
   11.7177  -17.4767   26.3658 C   0  0  0  0  0  0  0  0  0  0  0  0
   11.0072  -18.4061   26.8603 O   0  0  0  0  0  0  0  0  0  0  0  0
   13.0474  -17.4678   26.6946 O   0  0  0  0  0  0  0  0  0  0  0  0
  2  1  1  1
  2  3  1  0
  4  2  1  0
  5  4  2  0
  6  4  1  0
  7  6  1  0
  7  8  1  1
  9  8  1  0
  9 17  1  0
 10 11  1  0
 10  9  2  0
 11 12  1  0
 12 17  2  0
 12 13  1  0
 13 14  2  0
 14 15  1  0
 16 15  2  0
 17 16  1  0
 18  7  1  0
 18 19  2  0
 21 20  1  0
 22 21  1  0
 23 22  1  0
 24 23  1  1
 24 25  1  0
 25 18  1  0
 26 24  1  0
 27 26  2  0
 28 26  1  0
M  END
$$$$
