AWM.pdb
     RDKit          3D

 28 29  0  0  1  0  0  0  0  0999 V2000
    7.1458  -18.9797   20.5009 C   0  0  0  0  0  0  0  0  0  0  0  0
    6.5528  -17.6913   21.0306 C   0  0  2  0  0  0  0  0  0  0  0  0
    6.0356  -16.9349   19.9263 N   0  0  0  0  0  0  0  0  0  0  0  0
    7.6387  -16.9799   21.7627 C   0  0  0  0  0  0  0  0  0  0  0  0
    8.3709  -16.2221   21.0927 O   0  0  0  0  0  0  0  0  0  0  0  0
    7.8666  -17.1230   23.1414 N   0  0  0  0  0  0  0  0  0  0  0  0
    8.9273  -16.3764   23.7843 C   0  0  1  0  0  0  0  0  0  0  0  0
    8.7144  -16.2664   25.2756 C   0  0  0  0  0  0  0  0  0  0  0  0
    7.5698  -15.3595   25.5555 C   0  0  0  0  0  0  0  0  0  0  0  0
    6.2272  -15.7145   25.6897 C   0  0  0  0  0  0  0  0  0  0  0  0
    5.5339  -14.5943   25.9373 N   0  0  0  0  0  0  0  0  0  0  0  0
    6.3750  -13.5543   25.9652 C   0  0  0  0  0  0  0  0  0  0  0  0
    6.1299  -12.2135   26.1822 C   0  0  0  0  0  0  0  0  0  0  0  0
    7.1698  -11.2840   26.1679 C   0  0  0  0  0  0  0  0  0  0  0  0
    8.4532  -11.7233   25.9330 C   0  0  0  0  0  0  0  0  0  0  0  0
    8.6877  -13.0557   25.7187 C   0  0  0  0  0  0  0  0  0  0  0  0
    7.6704  -13.9984   25.7281 C   0  0  0  0  0  0  0  0  0  0  0  0
   10.2478  -16.9665   23.4460 C   0  0  0  0  0  0  0  0  0  0  0  0
   10.3939  -18.2215   23.4513 O   0  0  0  0  0  0  0  0  0  0  0  0
   13.9950  -13.4395   19.8930 C   0  0  0  0  0  0  0  0  0  0  0  0
   13.2954  -14.9750   19.2071 S   0  0  0  0  0  0  0  0  0  0  0  0
   12.5027  -15.9629   20.4858 C   0  0  0  0  0  0  0  0  0  0  0  0
   13.3458  -16.0182   21.7392 C   0  0  0  0  0  0  0  0  0  0  0  0
   12.6318  -16.8136   22.8061 C   0  0  2  0  0  0  0  0  0  0  0  0
   11.3743  -16.1878   23.1114 N   0  0  0  0  0  0  0  0  0  0  0  0
   13.4820  -16.9673   24.0169 C   0  0  0  0  0  0  0  0  0  0  0  0
   14.5625  -17.6293   23.9319 O   0  0  0  0  0  0  0  0  0  0  0  0
   13.1734  -16.4337   25.2401 O   0  0  0  0  0  0  0  0  0  0  0  0
  2  1  1  6
  2  3  1  0
  4  2  1  0
  5  4  2  0
  6  4  1  0
  7  6  1  0
  7  8  1  1
  9  8  1  0
  9 17  1  0
 10 11  1  0
 10  9  2  0
 11 12  1  0
 12 17  2  0
 12 13  1  0
 13 14  2  0
 14 15  1  0
 16 15  2  0
 17 16  1  0
 18  7  1  0
 18 19  2  0
 21 20  1  0
 22 21  1  0
 23 22  1  0
 24 23  1  6
 24 25  1  0
 25 18  1  0
 26 24  1  0
 27 26  2  0
 28 26  1  0
M  END
$$$$
