AWM.pdb
     RDKit          3D

 28 29  0  0  1  0  0  0  0  0999 V2000
   12.2554  -17.8760   19.9127 C   0  0  0  0  0  0  0  0  0  0  0  0
   11.4636  -16.6005   19.7170 C   0  0  2  0  0  0  0  0  0  0  0  0
   12.3438  -15.5855   19.2127 N   0  0  0  0  0  0  0  0  0  0  0  0
   10.8695  -16.2488   21.0378 C   0  0  0  0  0  0  0  0  0  0  0  0
   11.5303  -15.4830   21.7698 O   0  0  0  0  0  0  0  0  0  0  0  0
    9.6273  -16.7314   21.4821 N   0  0  0  0  0  0  0  0  0  0  0  0
    9.0655  -16.2545   22.7281 C   0  0  1  0  0  0  0  0  0  0  0  0
    7.5560  -16.3054   22.7212 C   0  0  0  0  0  0  0  0  0  0  0  0
    7.0300  -15.8305   24.0284 C   0  0  0  0  0  0  0  0  0  0  0  0
    6.4960  -16.6102   25.0549 C   0  0  0  0  0  0  0  0  0  0  0  0
    6.1440  -15.7846   26.0506 N   0  0  0  0  0  0  0  0  0  0  0  0
    6.4307  -14.5259   25.6996 C   0  0  0  0  0  0  0  0  0  0  0  0
    6.2511  -13.3438   26.3892 C   0  0  0  0  0  0  0  0  0  0  0  0
    6.6266  -12.1233   25.8280 C   0  0  0  0  0  0  0  0  0  0  0  0
    7.1825  -12.1117   24.5686 C   0  0  0  0  0  0  0  0  0  0  0  0
    7.3572  -13.2892   23.8911 C   0  0  0  0  0  0  0  0  0  0  0  0
    6.9919  -14.5147   24.4282 C   0  0  0  0  0  0  0  0  0  0  0  0
    9.6490  -17.0004   23.8725 C   0  0  0  0  0  0  0  0  0  0  0  0
    9.9296  -18.2257   23.7448 O   0  0  0  0  0  0  0  0  0  0  0  0
   11.6399  -12.0907   27.9400 C   0  0  0  0  0  0  0  0  0  0  0  0
   11.2844  -13.8075   28.4338 S   0  0  0  0  0  0  0  0  0  0  0  0
   11.2422  -14.9046   27.0075 C   0  0  0  0  0  0  0  0  0  0  0  0
   10.7308  -16.2762   27.3842 C   0  0  0  0  0  0  0  0  0  0  0  0
   10.6048  -17.1365   26.1493 C   0  0  2  0  0  0  0  0  0  0  0  0
    9.9137  -16.4054   25.1227 N   0  0  0  0  0  0  0  0  0  0  0  0
    9.9294  -18.4243   26.4619 C   0  0  0  0  0  0  0  0  0  0  0  0
   10.5028  -19.2488   27.2394 O   0  0  0  0  0  0  0  0  0  0  0  0
    8.7085  -18.7887   25.9592 O   0  0  0  0  0  0  0  0  0  0  0  0
  2  1  1  1
  2  3  1  0
  4  2  1  0
  5  4  2  0
  6  4  1  0
  7  6  1  0
  7  8  1  6
  9  8  1  0
  9 17  1  0
 10 11  1  0
 10  9  2  0
 11 12  1  0
 12 17  2  0
 12 13  1  0
 13 14  2  0
 14 15  1  0
 16 15  2  0
 17 16  1  0
 18  7  1  0
 18 19  2  0
 21 20  1  0
 22 21  1  0
 23 22  1  0
 24 23  1  1
 24 25  1  0
 25 18  1  0
 26 24  1  0
 27 26  2  0
 28 26  1  0
M  END
$$$$
