AWM.pdb
     RDKit          3D

 28 29  0  0  1  0  0  0  0  0999 V2000
   10.8211  -18.1621   19.9844 C   0  0  0  0  0  0  0  0  0  0  0  0
    9.4912  -17.4974   20.2700 C   0  0  2  0  0  0  0  0  0  0  0  0
    9.2228  -16.5415   19.2340 N   0  0  0  0  0  0  0  0  0  0  0  0
    9.5955  -16.8751   21.6202 C   0  0  0  0  0  0  0  0  0  0  0  0
   10.2070  -15.7892   21.6973 O   0  0  0  0  0  0  0  0  0  0  0  0
    9.0477  -17.4458   22.7810 N   0  0  0  0  0  0  0  0  0  0  0  0
    9.1560  -16.7578   24.0502 C   0  0  1  0  0  0  0  0  0  0  0  0
    8.0094  -17.0958   24.9735 C   0  0  0  0  0  0  0  0  0  0  0  0
    7.0123  -15.9929   24.9630 C   0  0  0  0  0  0  0  0  0  0  0  0
    5.6558  -16.0867   24.6500 C   0  0  0  0  0  0  0  0  0  0  0  0
    5.1270  -14.8603   24.7647 N   0  0  0  0  0  0  0  0  0  0  0  0
    6.0844  -14.0019   25.1340 C   0  0  0  0  0  0  0  0  0  0  0  0
    6.0217  -12.6443   25.3749 C   0  0  0  0  0  0  0  0  0  0  0  0
    7.1585  -11.9316   25.7561 C   0  0  0  0  0  0  0  0  0  0  0  0
    8.3526  -12.6034   25.8902 C   0  0  0  0  0  0  0  0  0  0  0  0
    8.4060  -13.9507   25.6493 C   0  0  0  0  0  0  0  0  0  0  0  0
    7.2896  -14.6807   25.2693 C   0  0  0  0  0  0  0  0  0  0  0  0
   10.4778  -17.0307   24.6704 C   0  0  0  0  0  0  0  0  0  0  0  0
   11.0804  -18.1110   24.4128 O   0  0  0  0  0  0  0  0  0  0  0  0
    9.7984  -15.1369   29.8982 C   0  0  0  0  0  0  0  0  0  0  0  0
   11.3988  -14.4592   29.3531 S   0  0  0  0  0  0  0  0  0  0  0  0
   11.5671  -14.5344   27.5627 C   0  0  0  0  0  0  0  0  0  0  0  0
   12.7465  -15.3884   27.1570 C   0  0  0  0  0  0  0  0  0  0  0  0
   12.2799  -16.5331   26.2893 C   0  0  2  0  0  0  0  0  0  0  0  0
   11.1135  -16.1322   25.5511 N   0  0  0  0  0  0  0  0  0  0  0  0
   12.0280  -17.7523   27.1032 C   0  0  0  0  0  0  0  0  0  0  0  0
   10.8356  -18.1685   27.2379 O   0  0  0  0  0  0  0  0  0  0  0  0
   13.0123  -18.4703   27.7290 O   0  0  0  0  0  0  0  0  0  0  0  0
  2  1  1  6
  2  3  1  0
  4  2  1  0
  5  4  2  0
  6  4  1  0
  7  6  1  0
  7  8  1  1
  9  8  1  0
  9 17  1  0
 10 11  1  0
 10  9  2  0
 11 12  1  0
 12 17  2  0
 12 13  1  0
 13 14  2  0
 14 15  1  0
 16 15  2  0
 17 16  1  0
 18  7  1  0
 18 19  2  0
 21 20  1  0
 22 21  1  0
 23 22  1  0
 24 23  1  1
 24 25  1  0
 25 18  1  0
 26 24  1  0
 27 26  2  0
 28 26  1  0
M  END
$$$$
