AWM.pdb
     RDKit          3D

 28 29  0  0  1  0  0  0  0  0999 V2000
   10.9173  -20.7338   20.8930 C   0  0  0  0  0  0  0  0  0  0  0  0
   10.3025  -19.6208   20.0711 C   0  0  2  0  0  0  0  0  0  0  0  0
   11.1432  -19.3692   18.9356 N   0  0  0  0  0  0  0  0  0  0  0  0
   10.1704  -18.4379   20.9681 C   0  0  0  0  0  0  0  0  0  0  0  0
   11.1377  -17.6496   21.0115 O   0  0  0  0  0  0  0  0  0  0  0  0
    9.0305  -18.1798   21.7474 N   0  0  0  0  0  0  0  0  0  0  0  0
    8.9556  -16.9774   22.5500 C   0  0  1  0  0  0  0  0  0  0  0  0
    7.5733  -16.3690   22.5253 C   0  0  0  0  0  0  0  0  0  0  0  0
    7.6263  -14.9769   23.0450 C   0  0  0  0  0  0  0  0  0  0  0  0
    8.3129  -13.8964   22.4903 C   0  0  0  0  0  0  0  0  0  0  0  0
    8.0936  -12.8308   23.2737 N   0  0  0  0  0  0  0  0  0  0  0  0
    7.3037  -13.1895   24.2920 C   0  0  0  0  0  0  0  0  0  0  0  0
    6.8102  -12.4448   25.3442 C   0  0  0  0  0  0  0  0  0  0  0  0
    5.9903  -13.0269   26.3108 C   0  0  0  0  0  0  0  0  0  0  0  0
    5.6768  -14.3630   26.2021 C   0  0  0  0  0  0  0  0  0  0  0  0
    6.1706  -15.0947   25.1548 C   0  0  0  0  0  0  0  0  0  0  0  0
    6.9874  -14.5383   24.1817 C   0  0  0  0  0  0  0  0  0  0  0  0
    9.4249  -17.2533   23.9321 C   0  0  0  0  0  0  0  0  0  0  0  0
    9.1910  -18.3765   24.4614 O   0  0  0  0  0  0  0  0  0  0  0  0
   11.2213  -12.7654   28.3067 C   0  0  0  0  0  0  0  0  0  0  0  0
   11.4902  -14.3034   29.2448 S   0  0  0  0  0  0  0  0  0  0  0  0
   11.4135  -15.7472   28.1729 C   0  0  0  0  0  0  0  0  0  0  0  0
   10.8194  -15.4013   26.8268 C   0  0  0  0  0  0  0  0  0  0  0  0
   10.6240  -16.6574   26.0114 C   0  0  2  0  0  0  0  0  0  0  0  0
   10.1330  -16.3112   24.7055 N   0  0  0  0  0  0  0  0  0  0  0  0
    9.7197  -17.6113   26.7077 C   0  0  0  0  0  0  0  0  0  0  0  0
    8.4717  -17.5573   26.4786 O   0  0  0  0  0  0  0  0  0  0  0  0
   10.1491  -18.5616   27.5958 O   0  0  0  0  0  0  0  0  0  0  0  0
  2  1  1  1
  2  3  1  0
  4  2  1  0
  5  4  2  0
  6  4  1  0
  7  6  1  0
  7  8  1  1
  9  8  1  0
  9 17  1  0
 10 11  1  0
 10  9  2  0
 11 12  1  0
 12 17  2  0
 12 13  1  0
 13 14  2  0
 14 15  1  0
 16 15  2  0
 17 16  1  0
 18  7  1  0
 18 19  2  0
 21 20  1  0
 22 21  1  0
 23 22  1  0
 24 23  1  1
 24 25  1  0
 25 18  1  0
 26 24  1  0
 27 26  2  0
 28 26  1  0
M  END
$$$$
