AWM.pdb
     RDKit          3D

 28 29  0  0  1  0  0  0  0  0999 V2000
    7.3983  -14.2769   19.5788 C   0  0  0  0  0  0  0  0  0  0  0  0
    8.1308  -15.5290   20.0120 C   0  0  2  0  0  0  0  0  0  0  0  0
    7.1822  -16.5994   20.1295 N   0  0  0  0  0  0  0  0  0  0  0  0
    8.8109  -15.2131   21.3000 C   0  0  0  0  0  0  0  0  0  0  0  0
    9.7318  -14.3707   21.2621 O   0  0  0  0  0  0  0  0  0  0  0  0
    8.4669  -15.8091   22.5246 N   0  0  0  0  0  0  0  0  0  0  0  0
    9.2353  -15.5175   23.7163 C   0  0  1  0  0  0  0  0  0  0  0  0
    8.5488  -16.0175   24.9653 C   0  0  0  0  0  0  0  0  0  0  0  0
    7.3511  -15.1836   25.2500 C   0  0  0  0  0  0  0  0  0  0  0  0
    6.0226  -15.6071   25.3003 C   0  0  0  0  0  0  0  0  0  0  0  0
    5.2664  -14.5380   25.5869 N   0  0  0  0  0  0  0  0  0  0  0  0
    6.0546  -13.4651   25.7188 C   0  0  0  0  0  0  0  0  0  0  0  0
    5.7363  -12.1538   26.0092 C   0  0  0  0  0  0  0  0  0  0  0  0
    6.7301  -11.1794   26.1011 C   0  0  0  0  0  0  0  0  0  0  0  0
    8.0419  -11.5438   25.8973 C   0  0  0  0  0  0  0  0  0  0  0  0
    8.3491  -12.8473   25.6096 C   0  0  0  0  0  0  0  0  0  0  0  0
    7.3788  -13.8336   25.5130 C   0  0  0  0  0  0  0  0  0  0  0  0
   10.6150  -16.0506   23.5802 C   0  0  0  0  0  0  0  0  0  0  0  0
   11.4396  -15.4699   22.8191 O   0  0  0  0  0  0  0  0  0  0  0  0
   10.6914  -13.3960   28.1433 C   0  0  0  0  0  0  0  0  0  0  0  0
   11.3741  -14.9195   28.8717 S   0  0  0  0  0  0  0  0  0  0  0  0
   12.1549  -15.9516   27.6208 C   0  0  0  0  0  0  0  0  0  0  0  0
   11.2253  -16.2006   26.4553 C   0  0  0  0  0  0  0  0  0  0  0  0
   11.9103  -17.0672   25.4254 C   0  0  2  0  0  0  0  0  0  0  0  0
   11.0680  -17.1949   24.2678 N   0  0  0  0  0  0  0  0  0  0  0  0
   12.2707  -18.3924   25.9967 C   0  0  0  0  0  0  0  0  0  0  0  0
   11.3455  -19.2176   26.2722 O   0  0  0  0  0  0  0  0  0  0  0  0
   13.5563  -18.7910   26.2507 O   0  0  0  0  0  0  0  0  0  0  0  0
  2  1  1  1
  2  3  1  0
  4  2  1  0
  5  4  2  0
  6  4  1  0
  7  6  1  0
  7  8  1  1
  9  8  1  0
  9 17  1  0
 10 11  1  0
 10  9  2  0
 11 12  1  0
 12 17  2  0
 12 13  1  0
 13 14  2  0
 14 15  1  0
 16 15  2  0
 17 16  1  0
 18  7  1  0
 18 19  2  0
 21 20  1  0
 22 21  1  0
 23 22  1  0
 24 23  1  1
 24 25  1  0
 25 18  1  0
 26 24  1  0
 27 26  2  0
 28 26  1  0
M  END
$$$$
