AWM.pdb
     RDKit          3D

 28 29  0  0  1  0  0  0  0  0999 V2000
    8.4617  -18.9481   20.5772 C   0  0  0  0  0  0  0  0  0  0  0  0
    7.6482  -17.7592   21.0428 C   0  0  2  0  0  0  0  0  0  0  0  0
    7.1904  -17.0357   19.8911 N   0  0  0  0  0  0  0  0  0  0  0  0
    8.5310  -16.9452   21.9256 C   0  0  0  0  0  0  0  0  0  0  0  0
    9.2671  -16.1038   21.3693 O   0  0  0  0  0  0  0  0  0  0  0  0
    8.5681  -17.0822   23.3231 N   0  0  0  0  0  0  0  0  0  0  0  0
    9.5099  -16.3089   24.1047 C   0  0  1  0  0  0  0  0  0  0  0  0
    9.1105  -16.2390   25.5597 C   0  0  0  0  0  0  0  0  0  0  0  0
    7.8608  -15.4460   25.7014 C   0  0  0  0  0  0  0  0  0  0  0  0
    6.5511  -15.9263   25.6762 C   0  0  0  0  0  0  0  0  0  0  0  0
    5.7312  -14.8783   25.8392 N   0  0  0  0  0  0  0  0  0  0  0  0
    6.4616  -13.7647   25.9653 C   0  0  0  0  0  0  0  0  0  0  0  0
    6.0676  -12.4549   26.1506 C   0  0  0  0  0  0  0  0  0  0  0  0
    7.0100  -11.4322   26.2585 C   0  0  0  0  0  0  0  0  0  0  0  0
    8.3477  -11.7472   26.1775 C   0  0  0  0  0  0  0  0  0  0  0  0
    8.7301  -13.0495   25.9935 C   0  0  0  0  0  0  0  0  0  0  0  0
    7.8119  -14.0832   25.8835 C   0  0  0  0  0  0  0  0  0  0  0  0
   10.8851  -16.8401   23.9231 C   0  0  0  0  0  0  0  0  0  0  0  0
   11.0639  -18.0829   23.7815 O   0  0  0  0  0  0  0  0  0  0  0  0
   18.4281  -15.5214   21.9969 C   0  0  0  0  0  0  0  0  0  0  0  0
   16.7599  -14.8368   22.2540 S   0  0  0  0  0  0  0  0  0  0  0  0
   15.6312  -16.0835   22.8952 C   0  0  0  0  0  0  0  0  0  0  0  0
   14.2433  -15.5185   23.0934 C   0  0  0  0  0  0  0  0  0  0  0  0
   13.3303  -16.5803   23.6590 C   0  0  2  0  0  0  0  0  0  0  0  0
   12.0296  -16.0175   23.8991 N   0  0  0  0  0  0  0  0  0  0  0  0
   13.9088  -17.1821   24.8900 C   0  0  0  0  0  0  0  0  0  0  0  0
   13.5091  -16.7721   26.0237 O   0  0  0  0  0  0  0  0  0  0  0  0
   14.8610  -18.1667   24.8845 O   0  0  0  0  0  0  0  0  0  0  0  0
  2  1  1  6
  2  3  1  0
  4  2  1  0
  5  4  2  0
  6  4  1  0
  7  6  1  0
  7  8  1  1
  9  8  1  0
  9 17  1  0
 10 11  1  0
 10  9  2  0
 11 12  1  0
 12 17  2  0
 12 13  1  0
 13 14  2  0
 14 15  1  0
 16 15  2  0
 17 16  1  0
 18  7  1  0
 18 19  2  0
 21 20  1  0
 22 21  1  0
 23 22  1  0
 24 23  1  1
 24 25  1  0
 25 18  1  0
 26 24  1  0
 27 26  2  0
 28 26  1  0
M  END
$$$$
