AWM.pdb
     RDKit          3D

 28 29  0  0  1  0  0  0  0  0999 V2000
   10.5955  -20.5992   20.4870 C   0  0  0  0  0  0  0  0  0  0  0  0
    9.9516  -19.3833   19.8555 C   0  0  2  0  0  0  0  0  0  0  0  0
   10.6410  -19.0799   18.6341 N   0  0  0  0  0  0  0  0  0  0  0  0
   10.0292  -18.2801   20.8545 C   0  0  0  0  0  0  0  0  0  0  0  0
   11.0870  -17.6173   20.8848 O   0  0  0  0  0  0  0  0  0  0  0  0
    8.9871  -17.9630   21.7415 N   0  0  0  0  0  0  0  0  0  0  0  0
    9.1028  -16.8177   22.6194 C   0  0  1  0  0  0  0  0  0  0  0  0
    7.7618  -16.1768   22.8884 C   0  0  0  0  0  0  0  0  0  0  0  0
    7.9578  -14.7964   23.4050 C   0  0  0  0  0  0  0  0  0  0  0  0
    8.8076  -13.8170   22.8898 C   0  0  0  0  0  0  0  0  0  0  0  0
    8.6768  -12.7234   23.6539 N   0  0  0  0  0  0  0  0  0  0  0  0
    7.7873  -12.9682   24.6227 C   0  0  0  0  0  0  0  0  0  0  0  0
    7.3282  -12.1553   25.6393 C   0  0  0  0  0  0  0  0  0  0  0  0
    6.3840  -12.6187   26.5555 C   0  0  0  0  0  0  0  0  0  0  0  0
    5.9120  -13.9060   26.4327 C   0  0  0  0  0  0  0  0  0  0  0  0
    6.3728  -14.7060   25.4209 C   0  0  0  0  0  0  0  0  0  0  0  0
    7.3111  -14.2678   24.4982 C   0  0  0  0  0  0  0  0  0  0  0  0
    9.8056  -17.1997   23.8709 C   0  0  0  0  0  0  0  0  0  0  0  0
    9.5109  -18.2832   24.4501 O   0  0  0  0  0  0  0  0  0  0  0  0
    9.5303  -12.9503   29.0655 C   0  0  0  0  0  0  0  0  0  0  0  0
   11.0072  -13.6341   28.2477 S   0  0  0  0  0  0  0  0  0  0  0  0
   10.5983  -15.0815   27.2590 C   0  0  0  0  0  0  0  0  0  0  0  0
   11.8030  -15.5850   26.4974 C   0  0  0  0  0  0  0  0  0  0  0  0
   11.4305  -16.8082   25.6938 C   0  0  2  0  0  0  0  0  0  0  0  0
   10.8065  -16.4034   24.4638 N   0  0  0  0  0  0  0  0  0  0  0  0
   10.5598  -17.7208   26.4821 C   0  0  0  0  0  0  0  0  0  0  0  0
   11.0774  -18.4222   27.4058 O   0  0  0  0  0  0  0  0  0  0  0  0
    9.2127  -17.8590   26.2761 O   0  0  0  0  0  0  0  0  0  0  0  0
  2  1  1  1
  2  3  1  0
  4  2  1  0
  5  4  2  0
  6  4  1  0
  7  6  1  0
  7  8  1  1
  9  8  1  0
  9 17  1  0
 10 11  1  0
 10  9  2  0
 11 12  1  0
 12 17  2  0
 12 13  1  0
 13 14  2  0
 14 15  1  0
 16 15  2  0
 17 16  1  0
 18  7  1  0
 18 19  2  0
 21 20  1  0
 22 21  1  0
 23 22  1  0
 24 23  1  1
 24 25  1  0
 25 18  1  0
 26 24  1  0
 27 26  2  0
 28 26  1  0
M  END
$$$$
