AWM.pdb
     RDKit          3D

 28 29  0  0  1  0  0  0  0  0999 V2000
    7.4882  -14.5021   19.2971 C   0  0  0  0  0  0  0  0  0  0  0  0
    8.1792  -15.7387   19.8314 C   0  0  2  0  0  0  0  0  0  0  0  0
    7.2011  -16.7750   20.0011 N   0  0  0  0  0  0  0  0  0  0  0  0
    8.8409  -15.3510   21.1093 C   0  0  0  0  0  0  0  0  0  0  0  0
    9.7795  -14.5310   21.0347 O   0  0  0  0  0  0  0  0  0  0  0  0
    8.4614  -15.8577   22.3633 N   0  0  0  0  0  0  0  0  0  0  0  0
    9.2206  -15.5131   23.5467 C   0  0  1  0  0  0  0  0  0  0  0  0
    8.6206  -16.1145   24.7956 C   0  0  0  0  0  0  0  0  0  0  0  0
    7.3903  -15.3694   25.1725 C   0  0  0  0  0  0  0  0  0  0  0  0
    6.1090  -15.8931   25.3477 C   0  0  0  0  0  0  0  0  0  0  0  0
    5.2986  -14.8794   25.6834 N   0  0  0  0  0  0  0  0  0  0  0  0
    6.0081  -13.7460   25.7275 C   0  0  0  0  0  0  0  0  0  0  0  0
    5.6138  -12.4570   26.0241 C   0  0  0  0  0  0  0  0  0  0  0  0
    6.5316  -11.4068   26.0117 C   0  0  0  0  0  0  0  0  0  0  0  0
    7.8452  -11.6732   25.6977 C   0  0  0  0  0  0  0  0  0  0  0  0
    8.2281  -12.9553   25.4046 C   0  0  0  0  0  0  0  0  0  0  0  0
    7.3341  -14.0156   25.4105 C   0  0  0  0  0  0  0  0  0  0  0  0
   10.6464  -15.8900   23.3691 C   0  0  0  0  0  0  0  0  0  0  0  0
   11.4029  -15.1665   22.6615 O   0  0  0  0  0  0  0  0  0  0  0  0
   11.0349  -13.5281   29.3967 C   0  0  0  0  0  0  0  0  0  0  0  0
   10.6696  -15.1485   28.6493 S   0  0  0  0  0  0  0  0  0  0  0  0
   11.3109  -15.2560   26.9710 C   0  0  0  0  0  0  0  0  0  0  0  0
   10.8139  -16.5003   26.2715 C   0  0  0  0  0  0  0  0  0  0  0  0
   11.8319  -16.9624   25.2561 C   0  0  2  0  0  0  0  0  0  0  0  0
   11.2174  -17.0361   23.9588 N   0  0  0  0  0  0  0  0  0  0  0  0
   12.4353  -18.2613   25.6574 C   0  0  0  0  0  0  0  0  0  0  0  0
   13.7001  -18.3761   25.6707 O   0  0  0  0  0  0  0  0  0  0  0  0
   11.7065  -19.3628   26.0204 O   0  0  0  0  0  0  0  0  0  0  0  0
  2  1  1  1
  2  3  1  0
  4  2  1  0
  5  4  2  0
  6  4  1  0
  7  6  1  0
  7  8  1  1
  9  8  1  0
  9 17  1  0
 10 11  1  0
 10  9  2  0
 11 12  1  0
 12 17  2  0
 12 13  1  0
 13 14  2  0
 14 15  1  0
 16 15  2  0
 17 16  1  0
 18  7  1  0
 18 19  2  0
 21 20  1  0
 22 21  1  0
 23 22  1  0
 24 23  1  1
 24 25  1  0
 25 18  1  0
 26 24  1  0
 27 26  2  0
 28 26  1  0
M  END
$$$$
