MIE.pdb
     RDKit          3D

 26 25  0  0  1  0  0  0  0  0999 V2000
   32.1713   -7.6705  -18.0002 C   0  0  0  0  0  0  0  0  0  0  0  0
   30.3649   -7.6272  -18.0327 S   0  0  0  0  0  0  0  0  0  0  0  0
   29.7424   -9.3075  -17.8370 C   0  0  0  0  0  0  0  0  0  0  0  0
   28.2465   -9.2819  -17.8872 C   0  0  0  0  0  0  0  0  0  0  0  0
   27.7046  -10.6431  -17.5045 C   0  0  2  0  0  0  0  0  0  0  0  0
   28.1498  -11.6535  -18.4284 N   0  0  0  0  0  0  0  0  0  0  0  0
   26.2283  -10.6403  -17.4753 C   0  0  0  0  0  0  0  0  0  0  0  0
   25.6426  -11.1443  -18.4843 O   0  0  0  0  0  0  0  0  0  0  0  0
   21.7802  -12.2077  -13.9837 C   0  0  0  0  0  0  0  0  0  0  0  0
   22.1613  -11.1525  -15.0229 C   0  0  0  0  0  0  0  0  0  0  0  0
   23.6404  -11.1464  -15.2630 C   0  0  2  0  0  0  0  0  0  0  0  0
   24.2820  -10.7912  -13.9137 C   0  0  0  0  0  0  0  0  0  0  0  0
   24.0669  -10.1788  -16.3052 C   0  0  2  0  0  0  0  0  0  0  0  0
   25.5323  -10.1049  -16.3822 N   0  0  0  0  0  0  0  0  0  0  0  0
   23.5269   -8.8111  -16.0432 C   0  0  0  0  0  0  0  0  0  0  0  0
   24.0880   -7.9794  -15.2966 O   0  0  0  0  0  0  0  0  0  0  0  0
   22.3102   -8.3756  -16.6495 N   0  0  0  0  0  0  0  0  0  0  0  0
   21.7897   -7.0314  -16.4966 C   0  0  1  0  0  0  0  0  0  0  0  0
   21.4285   -6.4229  -17.7987 C   0  0  0  0  0  0  0  0  0  0  0  0
   20.9147   -5.0498  -17.8455 C   0  0  0  0  0  0  0  0  0  0  0  0
   20.6019   -4.4607  -19.1457 C   0  0  0  0  0  0  0  0  0  0  0  0
   20.7243   -5.0161  -20.2475 O   0  0  0  0  0  0  0  0  0  0  0  0
   20.8407   -6.9829  -15.4047 C   0  0  0  0  0  0  0  0  0  0  0  0
   20.8041   -5.9291  -14.4994 O   0  0  0  0  0  0  0  0  0  0  0  0
   20.1151   -3.1442  -19.1891 O   0  0  0  0  0  0  0  0  0  0  0  0
   20.0104   -7.9055  -15.2323 O   0  0  0  0  0  0  0  0  0  0  0  0
  2  1  1  0
  3  2  1  0
  3  4  1  0
  4  5  1  0
  5  6  1  6
  7  5  1  0
  7  8  2  0
 10  9  1  0
 11 10  1  0
 11 13  1  0
 11 12  1  1
 13 14  1  1
 14  7  1  0
 15 13  1  0
 16 15  2  0
 17 15  1  0
 18 19  1  6
 18 17  1  0
 19 20  1  0
 21 20  1  0
 21 22  2  0
 23 18  1  0
 24 23  1  0
 25 21  1  0
 26 23  2  0
M  END
$$$$
