MIE.pdb
     RDKit          3D

 26 25  0  0  1  0  0  0  0  0999 V2000
   26.3020  -17.9918  -17.9236 C   0  0  0  0  0  0  0  0  0  0  0  0
   27.5119  -19.0870  -18.7002 S   0  0  0  0  0  0  0  0  0  0  0  0
   28.0211  -20.3307  -17.4989 C   0  0  0  0  0  0  0  0  0  0  0  0
   26.8679  -20.6355  -16.5944 C   0  0  0  0  0  0  0  0  0  0  0  0
   27.3500  -21.4644  -15.4225 C   0  0  2  0  0  0  0  0  0  0  0  0
   27.7883  -22.7651  -15.8569 N   0  0  0  0  0  0  0  0  0  0  0  0
   26.2847  -21.6321  -14.4138 C   0  0  0  0  0  0  0  0  0  0  0  0
   25.5450  -22.6578  -14.5391 O   0  0  0  0  0  0  0  0  0  0  0  0
   27.3144  -20.5836   -9.2716 C   0  0  0  0  0  0  0  0  0  0  0  0
   26.7341  -21.2107  -10.5400 C   0  0  0  0  0  0  0  0  0  0  0  0
   25.5532  -20.4304  -11.0318 C   0  0  2  0  0  0  0  0  0  0  0  0
   24.4531  -20.6275   -9.9785 C   0  0  0  0  0  0  0  0  0  0  0  0
   25.0703  -20.8657  -12.3666 C   0  0  2  0  0  0  0  0  0  0  0  0
   26.1180  -20.6967  -13.3827 N   0  0  0  0  0  0  0  0  0  0  0  0
   23.8578  -20.1036  -12.7908 C   0  0  0  0  0  0  0  0  0  0  0  0
   23.9062  -18.9849  -13.3478 O   0  0  0  0  0  0  0  0  0  0  0  0
   22.5488  -20.6304  -12.5744 N   0  0  0  0  0  0  0  0  0  0  0  0
   21.3594  -20.0585  -13.1740 C   0  0  1  0  0  0  0  0  0  0  0  0
   21.5138  -19.8573  -14.6340 C   0  0  0  0  0  0  0  0  0  0  0  0
   21.5640  -21.0177  -15.5298 C   0  0  0  0  0  0  0  0  0  0  0  0
   21.5581  -20.7916  -16.9735 C   0  0  0  0  0  0  0  0  0  0  0  0
   21.4436  -19.6948  -17.5404 O   0  0  0  0  0  0  0  0  0  0  0  0
   20.1760  -20.7240  -12.6720 C   0  0  0  0  0  0  0  0  0  0  0  0
   18.9143  -20.1451  -12.7389 O   0  0  0  0  0  0  0  0  0  0  0  0
   21.6927  -21.8970  -17.8290 O   0  0  0  0  0  0  0  0  0  0  0  0
   20.2500  -21.8597  -12.1475 O   0  0  0  0  0  0  0  0  0  0  0  0
  2  1  1  0
  3  2  1  0
  3  4  1  0
  4  5  1  0
  5  6  1  6
  7  5  1  0
  7  8  2  0
 10  9  1  0
 11 10  1  0
 11 13  1  0
 11 12  1  1
 13 14  1  6
 14  7  1  0
 15 13  1  0
 16 15  2  0
 17 15  1  0
 18 19  1  6
 18 17  1  0
 19 20  1  0
 21 20  1  0
 21 22  2  0
 23 18  1  0
 24 23  1  0
 25 21  1  0
 26 23  2  0
M  END
$$$$
