MIE.pdb
     RDKit          3D

 26 25  0  0  1  0  0  0  0  0999 V2000
   28.1493  -20.4474  -18.9207 C   0  0  0  0  0  0  0  0  0  0  0  0
   29.1386  -19.0819  -18.2705 S   0  0  0  0  0  0  0  0  0  0  0  0
   28.3653  -18.4756  -16.7594 C   0  0  0  0  0  0  0  0  0  0  0  0
   27.7864  -19.6348  -16.0094 C   0  0  0  0  0  0  0  0  0  0  0  0
   26.9372  -19.1229  -14.8650 C   0  0  2  0  0  0  0  0  0  0  0  0
   27.6700  -18.1799  -14.0610 N   0  0  0  0  0  0  0  0  0  0  0  0
   26.4803  -20.2312  -14.0028 C   0  0  0  0  0  0  0  0  0  0  0  0
   26.2745  -21.3458  -14.5776 O   0  0  0  0  0  0  0  0  0  0  0  0
   26.9790  -20.5936   -8.4990 C   0  0  0  0  0  0  0  0  0  0  0  0
   26.6970  -21.1275   -9.9040 C   0  0  0  0  0  0  0  0  0  0  0  0
   25.4009  -20.5912  -10.4312 C   0  0  2  0  0  0  0  0  0  0  0  0
   24.2973  -21.3532   -9.6828 C   0  0  0  0  0  0  0  0  0  0  0  0
   25.2411  -20.7640  -11.8971 C   0  0  2  0  0  0  0  0  0  0  0  0
   26.2908  -20.0398  -12.6268 N   0  0  0  0  0  0  0  0  0  0  0  0
   23.9069  -20.2852  -12.3675 C   0  0  0  0  0  0  0  0  0  0  0  0
   23.5257  -19.0983  -12.2679 O   0  0  0  0  0  0  0  0  0  0  0  0
   22.9767  -21.1848  -12.9701 N   0  0  0  0  0  0  0  0  0  0  0  0
   21.6745  -20.7676  -13.4511 C   0  0  1  0  0  0  0  0  0  0  0  0
   21.5777  -20.8387  -14.9282 C   0  0  0  0  0  0  0  0  0  0  0  0
   22.1231  -21.9990  -15.6407 C   0  0  0  0  0  0  0  0  0  0  0  0
   21.4293  -22.4812  -16.8330 C   0  0  0  0  0  0  0  0  0  0  0  0
   20.3504  -22.0561  -17.2720 O   0  0  0  0  0  0  0  0  0  0  0  0
   20.6290  -21.3595  -12.6436 C   0  0  0  0  0  0  0  0  0  0  0  0
   20.8745  -22.4053  -11.7619 O   0  0  0  0  0  0  0  0  0  0  0  0
   22.0097  -23.5224  -17.5752 O   0  0  0  0  0  0  0  0  0  0  0  0
   19.4481  -20.9467  -12.7166 O   0  0  0  0  0  0  0  0  0  0  0  0
  2  1  1  0
  3  2  1  0
  3  4  1  0
  4  5  1  0
  5  6  1  1
  7  5  1  0
  7  8  2  0
 10  9  1  0
 11 10  1  0
 11 13  1  0
 11 12  1  1
 13 14  1  6
 14  7  1  0
 15 13  1  0
 16 15  2  0
 17 15  1  0
 18 19  1  6
 18 17  1  0
 19 20  1  0
 21 20  1  0
 21 22  2  0
 23 18  1  0
 24 23  1  0
 25 21  1  0
 26 23  2  0
M  END
$$$$
