MIE.pdb
     RDKit          3D

 26 25  0  0  1  0  0  0  0  0999 V2000
   27.6040  -14.3593  -15.0513 C   0  0  0  0  0  0  0  0  0  0  0  0
   26.0701  -13.5491  -15.5581 S   0  0  0  0  0  0  0  0  0  0  0  0
   25.7720  -13.9121  -17.2984 C   0  0  0  0  0  0  0  0  0  0  0  0
   24.5266  -13.2065  -17.7369 C   0  0  0  0  0  0  0  0  0  0  0  0
   23.3205  -14.0643  -17.4169 C   0  0  2  0  0  0  0  0  0  0  0  0
   23.3509  -15.2953  -18.1629 N   0  0  0  0  0  0  0  0  0  0  0  0
   22.0635  -13.3522  -17.7226 C   0  0  0  0  0  0  0  0  0  0  0  0
   21.6798  -13.3784  -18.9338 O   0  0  0  0  0  0  0  0  0  0  0  0
   16.4697  -12.8537  -16.0649 C   0  0  0  0  0  0  0  0  0  0  0  0
   17.6225  -12.0315  -16.6425 C   0  0  0  0  0  0  0  0  0  0  0  0
   18.9323  -12.7323  -16.4454 C   0  0  2  0  0  0  0  0  0  0  0  0
   19.0941  -12.8977  -14.9271 C   0  0  0  0  0  0  0  0  0  0  0  0
   20.0901  -11.9925  -17.0079 C   0  0  2  0  0  0  0  0  0  0  0  0
   21.3495  -12.6900  -16.7138 N   0  0  0  0  0  0  0  0  0  0  0  0
   20.1708  -10.6015  -16.4701 C   0  0  0  0  0  0  0  0  0  0  0  0
   20.7210  -10.3124  -15.3848 O   0  0  0  0  0  0  0  0  0  0  0  0
   19.6077   -9.5045  -17.1893 N   0  0  0  0  0  0  0  0  0  0  0  0
   19.7693   -8.1244  -16.7763 C   0  0  1  0  0  0  0  0  0  0  0  0
   19.7841   -7.1959  -17.9312 C   0  0  0  0  0  0  0  0  0  0  0  0
   19.8623   -5.7489  -17.7038 C   0  0  0  0  0  0  0  0  0  0  0  0
   19.8183   -4.8530  -18.8575 C   0  0  0  0  0  0  0  0  0  0  0  0
   19.7409   -5.1967  -20.0463 O   0  0  0  0  0  0  0  0  0  0  0  0
   18.9114   -7.8359  -15.6467 C   0  0  0  0  0  0  0  0  0  0  0  0
   19.3412   -7.0804  -14.5622 O   0  0  0  0  0  0  0  0  0  0  0  0
   19.8662   -3.4672  -18.6363 O   0  0  0  0  0  0  0  0  0  0  0  0
   17.7359   -8.2680  -15.6045 O   0  0  0  0  0  0  0  0  0  0  0  0
  2  1  1  0
  3  2  1  0
  3  4  1  0
  4  5  1  0
  5  6  1  6
  7  5  1  0
  7  8  2  0
 10  9  1  0
 11 10  1  0
 11 13  1  0
 11 12  1  1
 13 14  1  1
 14  7  1  0
 15 13  1  0
 16 15  2  0
 17 15  1  0
 18 19  1  6
 18 17  1  0
 19 20  1  0
 21 20  1  0
 21 22  2  0
 23 18  1  0
 24 23  1  0
 25 21  1  0
 26 23  2  0
M  END
$$$$
