MIE.pdb
     RDKit          3D

 26 25  0  0  1  0  0  0  0  0999 V2000
   24.4886   -7.4098  -21.7683 C   0  0  0  0  0  0  0  0  0  0  0  0
   25.4429   -8.8130  -22.3899 S   0  0  0  0  0  0  0  0  0  0  0  0
   25.0424  -10.2673  -21.4031 C   0  0  0  0  0  0  0  0  0  0  0  0
   24.0717   -9.8774  -20.3323 C   0  0  0  0  0  0  0  0  0  0  0  0
   23.7241  -11.0925  -19.4984 C   0  0  2  0  0  0  0  0  0  0  0  0
   23.0076  -12.0663  -20.2801 N   0  0  0  0  0  0  0  0  0  0  0  0
   22.9017  -10.7199  -18.3299 C   0  0  0  0  0  0  0  0  0  0  0  0
   21.6431  -10.7092  -18.5056 O   0  0  0  0  0  0  0  0  0  0  0  0
   22.5735  -13.3192  -13.9904 C   0  0  0  0  0  0  0  0  0  0  0  0
   22.3300  -12.3538  -15.1512 C   0  0  0  0  0  0  0  0  0  0  0  0
   22.8575  -10.9881  -14.8322 C   0  0  2  0  0  0  0  0  0  0  0  0
   22.0838  -10.5199  -13.5909 C   0  0  0  0  0  0  0  0  0  0  0  0
   22.6886  -10.0144  -15.9403 C   0  0  2  0  0  0  0  0  0  0  0  0
   23.5001  -10.3992  -17.1031 N   0  0  0  0  0  0  0  0  0  0  0  0
   23.0674   -8.6313  -15.5227 C   0  0  0  0  0  0  0  0  0  0  0  0
   24.2117   -8.3195  -15.1263 O   0  0  0  0  0  0  0  0  0  0  0  0
   22.1142   -7.5691  -15.5570 N   0  0  0  0  0  0  0  0  0  0  0  0
   22.4443   -6.2017  -15.2073 C   0  0  1  0  0  0  0  0  0  0  0  0
   21.9474   -5.2343  -16.2141 C   0  0  0  0  0  0  0  0  0  0  0  0
   20.5058   -5.1010  -16.4493 C   0  0  0  0  0  0  0  0  0  0  0  0
   20.0459   -4.1897  -17.4951 C   0  0  0  0  0  0  0  0  0  0  0  0
   20.7608   -3.4406  -18.1770 O   0  0  0  0  0  0  0  0  0  0  0  0
   22.1762   -5.9646  -13.8047 C   0  0  0  0  0  0  0  0  0  0  0  0
   21.3451   -6.7912  -13.0580 O   0  0  0  0  0  0  0  0  0  0  0  0
   18.6723   -4.1308  -17.7810 O   0  0  0  0  0  0  0  0  0  0  0  0
   22.6876   -4.9886  -13.2078 O   0  0  0  0  0  0  0  0  0  0  0  0
  2  1  1  0
  3  2  1  0
  3  4  1  0
  4  5  1  0
  5  6  1  6
  7  5  1  0
  7  8  2  0
 10  9  1  0
 11 10  1  0
 11 13  1  0
 11 12  1  1
 13 14  1  6
 14  7  1  0
 15 13  1  0
 16 15  2  0
 17 15  1  0
 18 19  1  6
 18 17  1  0
 19 20  1  0
 21 20  1  0
 21 22  2  0
 23 18  1  0
 24 23  1  0
 25 21  1  0
 26 23  2  0
M  END
$$$$
