MIE.pdb
     RDKit          3D

 26 25  0  0  1  0  0  0  0  0999 V2000
   18.6198  -24.8716   -5.0545 C   0  0  0  0  0  0  0  0  0  0  0  0
   17.2970  -25.8479   -5.8049 S   0  0  0  0  0  0  0  0  0  0  0  0
   17.4318  -25.7230   -7.5981 C   0  0  0  0  0  0  0  0  0  0  0  0
   17.7748  -24.3124   -7.9638 C   0  0  0  0  0  0  0  0  0  0  0  0
   18.0549  -24.2294   -9.4496 C   0  0  2  0  0  0  0  0  0  0  0  0
   19.0828  -25.1616   -9.8332 N   0  0  0  0  0  0  0  0  0  0  0  0
   18.4762  -22.8683   -9.8375 C   0  0  0  0  0  0  0  0  0  0  0  0
   17.6822  -21.9235   -9.5343 O   0  0  0  0  0  0  0  0  0  0  0  0
   23.2493  -20.9071   -8.8759 C   0  0  0  0  0  0  0  0  0  0  0  0
   21.7503  -21.0122   -9.1602 C   0  0  0  0  0  0  0  0  0  0  0  0
   21.4833  -21.0154  -10.6347 C   0  0  2  0  0  0  0  0  0  0  0  0
   21.8631  -19.6128  -11.1318 C   0  0  0  0  0  0  0  0  0  0  0  0
   20.0714  -21.3180  -10.9800 C   0  0  2  0  0  0  0  0  0  0  0  0
   19.6913  -22.6550  -10.5039 N   0  0  0  0  0  0  0  0  0  0  0  0
   19.8351  -21.2439  -12.4529 C   0  0  0  0  0  0  0  0  0  0  0  0
   20.0157  -22.2072  -13.2297 O   0  0  0  0  0  0  0  0  0  0  0  0
   19.3789  -20.0359  -13.0616 N   0  0  0  0  0  0  0  0  0  0  0  0
   18.5463  -20.0161  -14.2480 C   0  0  1  0  0  0  0  0  0  0  0  0
   17.4633  -21.0257  -14.1850 C   0  0  0  0  0  0  0  0  0  0  0  0
   16.4914  -21.1233  -15.2792 C   0  0  0  0  0  0  0  0  0  0  0  0
   15.3477  -22.0199  -15.1253 C   0  0  0  0  0  0  0  0  0  0  0  0
   15.1323  -22.7697  -14.1615 O   0  0  0  0  0  0  0  0  0  0  0  0
   18.2230  -18.6525  -14.6103 C   0  0  0  0  0  0  0  0  0  0  0  0
   18.4454  -18.1512  -15.8874 O   0  0  0  0  0  0  0  0  0  0  0  0
   14.3830  -22.0622  -16.1447 O   0  0  0  0  0  0  0  0  0  0  0  0
   17.7288  -17.8636  -13.7713 O   0  0  0  0  0  0  0  0  0  0  0  0
  2  1  1  0
  3  2  1  0
  3  4  1  0
  4  5  1  0
  5  6  1  1
  7  5  1  0
  7  8  2  0
 10  9  1  0
 11 10  1  0
 11 13  1  0
 11 12  1  1
 13 14  1  6
 14  7  1  0
 15 13  1  0
 16 15  2  0
 17 15  1  0
 18 19  1  1
 18 17  1  0
 19 20  1  0
 21 20  1  0
 21 22  2  0
 23 18  1  0
 24 23  1  0
 25 21  1  0
 26 23  2  0
M  END
$$$$
