MIE.pdb
     RDKit          3D

 26 25  0  0  1  0  0  0  0  0999 V2000
   26.6187  -15.9942  -15.7301 C   0  0  0  0  0  0  0  0  0  0  0  0
   27.9048  -16.7334  -16.7624 S   0  0  0  0  0  0  0  0  0  0  0  0
   28.4805  -18.2482  -15.9731 C   0  0  0  0  0  0  0  0  0  0  0  0
   27.3062  -18.9697  -15.3886 C   0  0  0  0  0  0  0  0  0  0  0  0
   27.7879  -20.1903  -14.6331 C   0  0  2  0  0  0  0  0  0  0  0  0
   28.3342  -21.1717  -15.5338 N   0  0  0  0  0  0  0  0  0  0  0  0
   26.6900  -20.8084  -13.8629 C   0  0  0  0  0  0  0  0  0  0  0  0
   26.0550  -21.7467  -14.4384 O   0  0  0  0  0  0  0  0  0  0  0  0
   26.7078  -20.7027   -8.3505 C   0  0  0  0  0  0  0  0  0  0  0  0
   26.4527  -21.2741   -9.7459 C   0  0  0  0  0  0  0  0  0  0  0  0
   25.2954  -20.5861  -10.4036 C   0  0  2  0  0  0  0  0  0  0  0  0
   24.0400  -21.0941   -9.6794 C   0  0  0  0  0  0  0  0  0  0  0  0
   25.1942  -20.8588  -11.8595 C   0  0  2  0  0  0  0  0  0  0  0  0
   26.3835  -20.3666  -12.5679 N   0  0  0  0  0  0  0  0  0  0  0  0
   23.9797  -20.2269  -12.4566 C   0  0  0  0  0  0  0  0  0  0  0  0
   23.8268  -18.9902  -12.5622 O   0  0  0  0  0  0  0  0  0  0  0  0
   22.9049  -21.0270  -12.9491 N   0  0  0  0  0  0  0  0  0  0  0  0
   21.7503  -20.4679  -13.6239 C   0  0  1  0  0  0  0  0  0  0  0  0
   22.0283  -20.1706  -15.0489 C   0  0  0  0  0  0  0  0  0  0  0  0
   20.9739  -19.6022  -15.8954 C   0  0  0  0  0  0  0  0  0  0  0  0
   21.2630  -19.3541  -17.3062 C   0  0  0  0  0  0  0  0  0  0  0  0
   21.6064  -18.2705  -17.8016 O   0  0  0  0  0  0  0  0  0  0  0  0
   20.5578  -21.2106  -13.2750 C   0  0  0  0  0  0  0  0  0  0  0  0
   20.5669  -22.5893  -13.0999 O   0  0  0  0  0  0  0  0  0  0  0  0
   21.1515  -20.4195  -18.2142 O   0  0  0  0  0  0  0  0  0  0  0  0
   19.4589  -20.6282  -13.1215 O   0  0  0  0  0  0  0  0  0  0  0  0
  2  1  1  0
  3  2  1  0
  3  4  1  0
  4  5  1  0
  5  6  1  6
  7  5  1  0
  7  8  2  0
 10  9  1  0
 11 10  1  0
 11 13  1  0
 11 12  1  1
 13 14  1  6
 14  7  1  0
 15 13  1  0
 16 15  2  0
 17 15  1  0
 18 19  1  6
 18 17  1  0
 19 20  1  0
 21 20  1  0
 21 22  2  0
 23 18  1  0
 24 23  1  0
 25 21  1  0
 26 23  2  0
M  END
$$$$
