MIE.pdb
     RDKit          3D

 26 25  0  0  1  0  0  0  0  0999 V2000
   15.7660  -14.6796  -15.7160 C   0  0  0  0  0  0  0  0  0  0  0  0
   14.5993  -13.4174  -16.2743 S   0  0  0  0  0  0  0  0  0  0  0  0
   15.5290  -12.0281  -16.9485 C   0  0  0  0  0  0  0  0  0  0  0  0
   16.5577  -11.5992  -15.9490 C   0  0  0  0  0  0  0  0  0  0  0  0
   17.3938  -10.4799  -16.5329 C   0  0  2  0  0  0  0  0  0  0  0  0
   17.9686  -10.8698  -17.7939 N   0  0  0  0  0  0  0  0  0  0  0  0
   18.4813  -10.0909  -15.6127 C   0  0  0  0  0  0  0  0  0  0  0  0
   18.1385   -9.8014  -14.4238 O   0  0  0  0  0  0  0  0  0  0  0  0
   24.3835  -11.1098  -14.5525 C   0  0  0  0  0  0  0  0  0  0  0  0
   23.2132  -10.1392  -14.3881 C   0  0  0  0  0  0  0  0  0  0  0  0
   22.0803  -10.5066  -15.2975 C   0  0  2  0  0  0  0  0  0  0  0  0
   22.6411  -10.4119  -16.7241 C   0  0  0  0  0  0  0  0  0  0  0  0
   20.8946   -9.6249  -15.1521 C   0  0  2  0  0  0  0  0  0  0  0  0
   19.8127  -10.0507  -16.0505 N   0  0  0  0  0  0  0  0  0  0  0  0
   21.2289   -8.1980  -15.4402 C   0  0  0  0  0  0  0  0  0  0  0  0
   21.3186   -7.7305  -16.5966 O   0  0  0  0  0  0  0  0  0  0  0  0
   21.4688   -7.2735  -14.3792 N   0  0  0  0  0  0  0  0  0  0  0  0
   21.5377   -5.8400  -14.5827 C   0  0  1  0  0  0  0  0  0  0  0  0
   20.2547   -5.2853  -15.0752 C   0  0  0  0  0  0  0  0  0  0  0  0
   20.0767   -3.8327  -15.1727 C   0  0  0  0  0  0  0  0  0  0  0  0
   18.7583   -3.3083  -15.5226 C   0  0  0  0  0  0  0  0  0  0  0  0
   17.7463   -3.9814  -15.7677 O   0  0  0  0  0  0  0  0  0  0  0  0
   22.1995   -5.2062  -13.4621 C   0  0  0  0  0  0  0  0  0  0  0  0
   22.8085   -3.9614  -13.5671 O   0  0  0  0  0  0  0  0  0  0  0  0
   18.5851   -1.9168  -15.5974 O   0  0  0  0  0  0  0  0  0  0  0  0
   22.2514   -5.7686  -12.3435 O   0  0  0  0  0  0  0  0  0  0  0  0
  2  1  1  0
  3  2  1  0
  3  4  1  0
  4  5  1  0
  5  6  1  6
  7  5  1  0
  7  8  2  0
 10  9  1  0
 11 10  1  0
 11 13  1  0
 11 12  1  6
 13 14  1  6
 14  7  1  0
 15 13  1  0
 16 15  2  0
 17 15  1  0
 18 19  1  1
 18 17  1  0
 19 20  1  0
 21 20  1  0
 21 22  2  0
 23 18  1  0
 24 23  1  0
 25 21  1  0
 26 23  2  0
M  END
$$$$
