MIE.pdb
     RDKit          3D

 26 25  0  0  1  0  0  0  0  0999 V2000
   22.7325  -23.9647    0.3019 C   0  0  0  0  0  0  0  0  0  0  0  0
   22.7661  -25.5254   -0.6086 S   0  0  0  0  0  0  0  0  0  0  0  0
   21.1291  -26.2759   -0.5305 C   0  0  0  0  0  0  0  0  0  0  0  0
   20.5559  -26.0539    0.8345 C   0  0  0  0  0  0  0  0  0  0  0  0
   19.2141  -26.7479    0.9382 C   0  0  2  0  0  0  0  0  0  0  0  0
   18.3856  -26.4406   -0.1983 N   0  0  0  0  0  0  0  0  0  0  0  0
   18.5020  -26.3506    2.1693 C   0  0  0  0  0  0  0  0  0  0  0  0
   17.4378  -25.6739    2.0125 O   0  0  0  0  0  0  0  0  0  0  0  0
   19.5369  -29.0844    6.9168 C   0  0  0  0  0  0  0  0  0  0  0  0
   18.6570  -28.3911    5.8758 C   0  0  0  0  0  0  0  0  0  0  0  0
   18.9137  -26.9149    5.8545 C   0  0  2  0  0  0  0  0  0  0  0  0
   18.2746  -26.3604    7.1362 C   0  0  0  0  0  0  0  0  0  0  0  0
   18.3492  -26.2330    4.6625 C   0  0  2  0  0  0  0  0  0  0  0  0
   18.9931  -26.7122    3.4318 N   0  0  0  0  0  0  0  0  0  0  0  0
   18.5098  -24.7505    4.7467 C   0  0  0  0  0  0  0  0  0  0  0  0
   19.2762  -24.0966    4.0056 O   0  0  0  0  0  0  0  0  0  0  0  0
   17.7757  -23.9875    5.7041 N   0  0  0  0  0  0  0  0  0  0  0  0
   17.6188  -22.5493    5.6137 C   0  0  1  0  0  0  0  0  0  0  0  0
   17.2147  -22.1179    4.2547 C   0  0  0  0  0  0  0  0  0  0  0  0
   16.9233  -20.7041    3.9940 C   0  0  0  0  0  0  0  0  0  0  0  0
   16.4357  -20.3197    2.6711 C   0  0  0  0  0  0  0  0  0  0  0  0
   16.1582  -21.0926    1.7421 O   0  0  0  0  0  0  0  0  0  0  0  0
   16.8894  -22.0519    6.7608 C   0  0  0  0  0  0  0  0  0  0  0  0
   15.9661  -22.8308    7.4480 O   0  0  0  0  0  0  0  0  0  0  0  0
   16.2526  -18.9559    2.3908 O   0  0  0  0  0  0  0  0  0  0  0  0
   17.0642  -20.8829    7.1769 O   0  0  0  0  0  0  0  0  0  0  0  0
  2  1  1  0
  3  2  1  0
  3  4  1  0
  4  5  1  0
  5  6  1  6
  7  5  1  0
  7  8  2  0
 10  9  1  0
 11 10  1  0
 11 13  1  0
 11 12  1  1
 13 14  1  6
 14  7  1  0
 15 13  1  0
 16 15  2  0
 17 15  1  0
 18 19  1  6
 18 17  1  0
 19 20  1  0
 21 20  1  0
 21 22  2  0
 23 18  1  0
 24 23  1  0
 25 21  1  0
 26 23  2  0
M  END
$$$$
