MIE.pdb
     RDKit          3D

 26 25  0  0  1  0  0  0  0  0999 V2000
   28.3860  -18.9650   -6.0883 C   0  0  0  0  0  0  0  0  0  0  0  0
   26.8660  -19.6888   -5.4312 S   0  0  0  0  0  0  0  0  0  0  0  0
   25.9924  -20.5166   -6.7732 C   0  0  0  0  0  0  0  0  0  0  0  0
   26.3803  -19.8813   -8.0721 C   0  0  0  0  0  0  0  0  0  0  0  0
   25.5992  -20.5209   -9.2006 C   0  0  2  0  0  0  0  0  0  0  0  0
   25.7663  -21.9509   -9.1975 N   0  0  0  0  0  0  0  0  0  0  0  0
   26.0277  -19.9933  -10.5116 C   0  0  0  0  0  0  0  0  0  0  0  0
   25.9304  -18.7367  -10.6737 O   0  0  0  0  0  0  0  0  0  0  0  0
   30.2512  -21.3710  -11.5112 C   0  0  0  0  0  0  0  0  0  0  0  0
   29.3592  -20.2402  -12.0255 C   0  0  0  0  0  0  0  0  0  0  0  0
   28.3902  -20.7459  -13.0505 C   0  0  2  0  0  0  0  0  0  0  0  0
   28.8747  -20.1868  -14.3963 C   0  0  0  0  0  0  0  0  0  0  0  0
   26.9881  -20.3292  -12.7960 C   0  0  2  0  0  0  0  0  0  0  0  0
   26.5123  -20.8524  -11.5081 N   0  0  0  0  0  0  0  0  0  0  0  0
   26.0685  -20.7952  -13.8767 C   0  0  0  0  0  0  0  0  0  0  0  0
   25.8984  -22.0001  -14.1656 O   0  0  0  0  0  0  0  0  0  0  0  0
   25.3188  -19.8614  -14.6536 N   0  0  0  0  0  0  0  0  0  0  0  0
   24.0257  -20.1731  -15.2296 C   0  0  1  0  0  0  0  0  0  0  0  0
   23.1317  -20.8471  -14.2587 C   0  0  0  0  0  0  0  0  0  0  0  0
   21.9212  -20.1666  -13.7864 C   0  0  0  0  0  0  0  0  0  0  0  0
   21.0198  -20.8812  -12.8850 C   0  0  0  0  0  0  0  0  0  0  0  0
   20.8374  -22.1073  -12.8557 O   0  0  0  0  0  0  0  0  0  0  0  0
   23.5277  -19.0426  -15.9842 C   0  0  0  0  0  0  0  0  0  0  0  0
   22.5792  -19.1817  -16.9904 O   0  0  0  0  0  0  0  0  0  0  0  0
   20.2749  -20.1421  -11.9519 O   0  0  0  0  0  0  0  0  0  0  0  0
   23.9446  -17.8830  -15.7564 O   0  0  0  0  0  0  0  0  0  0  0  0
  2  1  1  0
  3  2  1  0
  3  4  1  0
  4  5  1  0
  5  6  1  6
  7  5  1  0
  7  8  2  0
 10  9  1  0
 11 10  1  0
 11 13  1  0
 11 12  1  6
 13 14  1  1
 14  7  1  0
 15 13  1  0
 16 15  2  0
 17 15  1  0
 18 19  1  1
 18 17  1  0
 19 20  1  0
 21 20  1  0
 21 22  2  0
 23 18  1  0
 24 23  1  0
 25 21  1  0
 26 23  2  0
M  END
$$$$
