MIE.pdb
     RDKit          3D

 26 25  0  0  1  0  0  0  0  0999 V2000
   26.8446  -16.4306  -15.8123 C   0  0  0  0  0  0  0  0  0  0  0  0
   28.3492  -16.9819  -16.6480 S   0  0  0  0  0  0  0  0  0  0  0  0
   28.7874  -18.6177  -16.0306 C   0  0  0  0  0  0  0  0  0  0  0  0
   27.5786  -19.2432  -15.4072 C   0  0  0  0  0  0  0  0  0  0  0  0
   27.9874  -20.4906  -14.6524 C   0  0  2  0  0  0  0  0  0  0  0  0
   28.4186  -21.5232  -15.5583 N   0  0  0  0  0  0  0  0  0  0  0  0
   26.8723  -21.0085  -13.8347 C   0  0  0  0  0  0  0  0  0  0  0  0
   26.2204  -21.9845  -14.3221 O   0  0  0  0  0  0  0  0  0  0  0  0
   26.9707  -20.1451   -8.4127 C   0  0  0  0  0  0  0  0  0  0  0  0
   26.6656  -20.9786   -9.6581 C   0  0  0  0  0  0  0  0  0  0  0  0
   25.4965  -20.4151  -10.4071 C   0  0  2  0  0  0  0  0  0  0  0  0
   24.2492  -20.8450   -9.6210 C   0  0  0  0  0  0  0  0  0  0  0  0
   25.4080  -20.8903  -11.8109 C   0  0  2  0  0  0  0  0  0  0  0  0
   26.5683  -20.4378  -12.5905 N   0  0  0  0  0  0  0  0  0  0  0  0
   24.1605  -20.4117  -12.4784 C   0  0  0  0  0  0  0  0  0  0  0  0
   23.9059  -19.2040  -12.6799 O   0  0  0  0  0  0  0  0  0  0  0  0
   23.1712  -21.3360  -12.9309 N   0  0  0  0  0  0  0  0  0  0  0  0
   21.9554  -20.9235  -13.6037 C   0  0  1  0  0  0  0  0  0  0  0  0
   21.6122  -21.8201  -14.7326 C   0  0  0  0  0  0  0  0  0  0  0  0
   20.3480  -21.6357  -15.4532 C   0  0  0  0  0  0  0  0  0  0  0  0
   20.0499  -22.5117  -16.5843 C   0  0  0  0  0  0  0  0  0  0  0  0
   19.0052  -22.5119  -17.2521 O   0  0  0  0  0  0  0  0  0  0  0  0
   20.9361  -20.5848  -12.6332 C   0  0  0  0  0  0  0  0  0  0  0  0
   20.0088  -19.5732  -12.8532 O   0  0  0  0  0  0  0  0  0  0  0  0
   21.0138  -23.4533  -16.9794 O   0  0  0  0  0  0  0  0  0  0  0  0
   20.8567  -21.1975  -11.5430 O   0  0  0  0  0  0  0  0  0  0  0  0
  2  1  1  0
  3  2  1  0
  3  4  1  0
  4  5  1  0
  5  6  1  6
  7  5  1  0
  7  8  2  0
 10  9  1  0
 11 10  1  0
 11 13  1  0
 11 12  1  1
 13 14  1  6
 14  7  1  0
 15 13  1  0
 16 15  2  0
 17 15  1  0
 18 19  1  6
 18 17  1  0
 19 20  1  0
 21 20  1  0
 21 22  2  0
 23 18  1  0
 24 23  1  0
 25 21  1  0
 26 23  2  0
M  END
$$$$
