MIE.pdb
     RDKit          3D

 26 25  0  0  1  0  0  0  0  0999 V2000
   28.1618  -18.9193   -7.5443 C   0  0  0  0  0  0  0  0  0  0  0  0
   26.4135  -19.3073   -7.3010 S   0  0  0  0  0  0  0  0  0  0  0  0
   25.9893  -20.7303   -8.3229 C   0  0  0  0  0  0  0  0  0  0  0  0
   25.9539  -20.3063   -9.7582 C   0  0  0  0  0  0  0  0  0  0  0  0
   25.6166  -21.4982  -10.6291 C   0  0  2  0  0  0  0  0  0  0  0  0
   26.7331  -22.4027  -10.7198 N   0  0  0  0  0  0  0  0  0  0  0  0
   25.2354  -21.0728  -11.9908 C   0  0  0  0  0  0  0  0  0  0  0  0
   26.1301  -21.1795  -12.8869 O   0  0  0  0  0  0  0  0  0  0  0  0
   20.3397  -22.7637  -13.3915 C   0  0  0  0  0  0  0  0  0  0  0  0
   21.8249  -22.3993  -13.4101 C   0  0  0  0  0  0  0  0  0  0  0  0
   22.0151  -20.9390  -13.6867 C   0  0  2  0  0  0  0  0  0  0  0  0
   21.4428  -20.7011  -15.0919 C   0  0  0  0  0  0  0  0  0  0  0  0
   23.4340  -20.5056  -13.6299 C   0  0  2  0  0  0  0  0  0  0  0  0
   23.9495  -20.5809  -12.2561 N   0  0  0  0  0  0  0  0  0  0  0  0
   23.6060  -19.1106  -14.1351 C   0  0  0  0  0  0  0  0  0  0  0  0
   23.0613  -18.1148  -13.6101 O   0  0  0  0  0  0  0  0  0  0  0  0
   24.4235  -18.8396  -15.2736 N   0  0  0  0  0  0  0  0  0  0  0  0
   24.5861  -17.5109  -15.8296 C   0  0  1  0  0  0  0  0  0  0  0  0
   25.9972  -17.2223  -16.1785 C   0  0  0  0  0  0  0  0  0  0  0  0
   26.5920  -17.8278  -17.3748 C   0  0  0  0  0  0  0  0  0  0  0  0
   27.9556  -17.4560  -17.7464 C   0  0  0  0  0  0  0  0  0  0  0  0
   28.9197  -18.2283  -17.8527 O   0  0  0  0  0  0  0  0  0  0  0  0
   23.5474  -17.2441  -16.8018 C   0  0  0  0  0  0  0  0  0  0  0  0
   22.8704  -18.2621  -17.4628 O   0  0  0  0  0  0  0  0  0  0  0  0
   28.2362  -16.1066  -18.0153 O   0  0  0  0  0  0  0  0  0  0  0  0
   23.2213  -16.0687  -17.0890 O   0  0  0  0  0  0  0  0  0  0  0  0
  2  1  1  0
  3  2  1  0
  3  4  1  0
  4  5  1  0
  5  6  1  6
  7  5  1  0
  7  8  2  0
 10  9  1  0
 11 10  1  0
 11 13  1  0
 11 12  1  6
 13 14  1  1
 14  7  1  0
 15 13  1  0
 16 15  2  0
 17 15  1  0
 18 19  1  6
 18 17  1  0
 19 20  1  0
 21 20  1  0
 21 22  2  0
 23 18  1  0
 24 23  1  0
 25 21  1  0
 26 23  2  0
M  END
$$$$
