MIE.pdb
     RDKit          3D

 26 25  0  0  1  0  0  0  0  0999 V2000
   19.1005  -13.0914  -20.2902 C   0  0  0  0  0  0  0  0  0  0  0  0
   19.8764  -14.5833  -20.9523 S   0  0  0  0  0  0  0  0  0  0  0  0
   21.3673  -14.9308  -20.0007 C   0  0  0  0  0  0  0  0  0  0  0  0
   21.4157  -14.0135  -18.8186 C   0  0  0  0  0  0  0  0  0  0  0  0
   22.6464  -14.3199  -17.9913 C   0  0  2  0  0  0  0  0  0  0  0  0
   22.5054  -15.5768  -17.3036 N   0  0  0  0  0  0  0  0  0  0  0  0
   22.8985  -13.2576  -16.9970 C   0  0  0  0  0  0  0  0  0  0  0  0
   22.2766  -13.3581  -15.8934 O   0  0  0  0  0  0  0  0  0  0  0  0
   27.8689  -11.6619  -16.0037 C   0  0  0  0  0  0  0  0  0  0  0  0
   26.3867  -12.0259  -15.9063 C   0  0  0  0  0  0  0  0  0  0  0  0
   25.5225  -10.8518  -16.2526 C   0  0  2  0  0  0  0  0  0  0  0  0
   25.8149   -9.7874  -15.1848 C   0  0  0  0  0  0  0  0  0  0  0  0
   24.0726  -11.1705  -16.2767 C   0  0  2  0  0  0  0  0  0  0  0  0
   23.7809  -12.2050  -17.2785 N   0  0  0  0  0  0  0  0  0  0  0  0
   23.2465   -9.9624  -16.5745 C   0  0  0  0  0  0  0  0  0  0  0  0
   23.2985   -9.3413  -17.6587 O   0  0  0  0  0  0  0  0  0  0  0  0
   22.3322   -9.4441  -15.6084 N   0  0  0  0  0  0  0  0  0  0  0  0
   21.5338   -8.2559  -15.8360 C   0  0  1  0  0  0  0  0  0  0  0  0
   20.0961   -8.5747  -16.0021 C   0  0  0  0  0  0  0  0  0  0  0  0
   19.6545   -9.3830  -17.1436 C   0  0  0  0  0  0  0  0  0  0  0  0
   18.2337   -9.7000  -17.2723 C   0  0  0  0  0  0  0  0  0  0  0  0
   17.3254   -9.2957  -16.5314 O   0  0  0  0  0  0  0  0  0  0  0  0
   21.9251   -7.2063  -14.9193 C   0  0  0  0  0  0  0  0  0  0  0  0
   22.8216   -7.4247  -13.8800 O   0  0  0  0  0  0  0  0  0  0  0  0
   17.8229  -10.5379  -18.3216 O   0  0  0  0  0  0  0  0  0  0  0  0
   21.4582   -6.0486  -15.0294 O   0  0  0  0  0  0  0  0  0  0  0  0
  2  1  1  0
  3  2  1  0
  3  4  1  0
  4  5  1  0
  5  6  1  1
  7  5  1  0
  7  8  2  0
 10  9  1  0
 11 10  1  0
 11 13  1  0
 11 12  1  1
 13 14  1  6
 14  7  1  0
 15 13  1  0
 16 15  2  0
 17 15  1  0
 18 19  1  1
 18 17  1  0
 19 20  1  0
 21 20  1  0
 21 22  2  0
 23 18  1  0
 24 23  1  0
 25 21  1  0
 26 23  2  0
M  END
$$$$
