DDR.pdb
     RDKit          3D

 28 27  0  0  1  0  0  0  0  0999 V2000
   27.1017  -18.7597  -16.5764 N   0  0  0  0  0  0  0  0  0  0  0  0
   26.0944  -19.5645  -15.9658 C   0  0  1  0  0  0  0  0  0  0  0  0
   26.4876  -20.1344  -14.6414 C   0  0  0  0  0  0  0  0  0  0  0  0
   25.7433  -21.3603  -14.2725 C   0  0  0  0  0  0  0  0  0  0  0  0
   26.0857  -21.9881  -13.2485 O   0  0  0  0  0  0  0  0  0  0  0  0
   24.8240  -18.7934  -15.7382 C   0  0  0  0  0  0  0  0  0  0  0  0
   24.8594  -17.8292  -14.9418 O   0  0  0  0  0  0  0  0  0  0  0  0
   24.6826  -21.8340  -15.0213 O   0  0  0  0  0  0  0  0  0  0  0  0
   23.6012  -19.1006  -16.3730 N   0  0  0  0  0  0  0  0  0  0  0  0
   22.3679  -18.3966  -16.1742 C   0  0  1  0  0  0  0  0  0  0  0  0
   22.0781  -17.4698  -17.3045 C   0  0  0  0  0  0  0  0  0  0  0  0
   20.8637  -16.6636  -17.1515 C   0  0  0  0  0  0  0  0  0  0  0  0
   20.5129  -16.3654  -15.9770 O   0  0  0  0  0  0  0  0  0  0  0  0
   21.2416  -19.3163  -15.8555 C   0  0  0  0  0  0  0  0  0  0  0  0
   21.0064  -20.2633  -16.6426 O   0  0  0  0  0  0  0  0  0  0  0  0
   20.0615  -16.1970  -18.1817 O   0  0  0  0  0  0  0  0  0  0  0  0
   16.9986  -23.7856  -10.8003 N   0  0  0  0  0  0  0  0  0  0  0  0
   18.1129  -24.6123  -11.1378 C   0  0  0  0  0  0  0  0  0  0  0  0
   18.0085  -25.9010  -11.1346 N   0  0  0  0  0  0  0  0  0  0  0  0
   19.3795  -24.0745  -11.4894 N   0  0  0  0  0  0  0  0  0  0  0  0
   19.5222  -22.6754  -11.6775 C   0  0  0  0  0  0  0  0  0  0  0  0
   19.1937  -22.1997  -13.0826 C   0  0  0  0  0  0  0  0  0  0  0  0
   19.5309  -20.7299  -13.1117 C   0  0  0  0  0  0  0  0  0  0  0  0
   19.2899  -20.0730  -14.4557 C   0  0  2  0  0  0  0  0  0  0  0  0
   20.4205  -19.1806  -14.7104 N   0  0  0  0  0  0  0  0  0  0  0  0
   18.0113  -19.3690  -14.5615 C   0  0  0  0  0  0  0  0  0  0  0  0
   17.9789  -18.1196  -14.5046 O   0  0  0  0  0  0  0  0  0  0  0  0
   16.7953  -20.0364  -14.7267 O   0  0  0  0  0  0  0  0  0  0  0  0
  2  1  1  1
  2  3  1  0
  3  4  1  0
  4  8  1  0
  5  4  2  0
  6  2  1  0
  7  6  2  0
  9  6  1  0
 10 14  1  0
 10  9  1  0
 10 11  1  6
 12 11  1  0
 12 16  1  0
 13 12  2  0
 14 15  2  0
 18 20  1  0
 18 17  1  0
 19 18  2  0
 21 20  1  0
 22 21  1  0
 23 22  1  0
 24 23  1  1
 25 24  1  0
 25 14  1  0
 26 28  1  0
 26 24  1  0
 27 26  2  0
M  END
$$$$
