DDR.pdb
     RDKit          3D

 28 27  0  0  1  0  0  0  0  0999 V2000
   17.6779  -13.6880  -16.7695 N   0  0  0  0  0  0  0  0  0  0  0  0
   17.8965  -13.4424  -15.3813 C   0  0  1  0  0  0  0  0  0  0  0  0
   18.8381  -14.4042  -14.7318 C   0  0  0  0  0  0  0  0  0  0  0  0
   18.3206  -15.7896  -14.6559 C   0  0  0  0  0  0  0  0  0  0  0  0
   17.1698  -16.0272  -15.0792 O   0  0  0  0  0  0  0  0  0  0  0  0
   18.4552  -12.0681  -15.1376 C   0  0  0  0  0  0  0  0  0  0  0  0
   18.7782  -11.7669  -13.9671 O   0  0  0  0  0  0  0  0  0  0  0  0
   19.0663  -16.8293  -14.1332 O   0  0  0  0  0  0  0  0  0  0  0  0
   18.6320  -11.1065  -16.1559 N   0  0  0  0  0  0  0  0  0  0  0  0
   19.0724   -9.7575  -15.9501 C   0  0  1  0  0  0  0  0  0  0  0  0
   19.6059   -9.1582  -17.2057 C   0  0  0  0  0  0  0  0  0  0  0  0
   20.1631   -7.8101  -17.0631 C   0  0  0  0  0  0  0  0  0  0  0  0
   19.9906   -7.0095  -18.0226 O   0  0  0  0  0  0  0  0  0  0  0  0
   18.0332   -8.9227  -15.2874 C   0  0  0  0  0  0  0  0  0  0  0  0
   16.8285   -9.1639  -15.5371 O   0  0  0  0  0  0  0  0  0  0  0  0
   20.8654   -7.3315  -15.9674 O   0  0  0  0  0  0  0  0  0  0  0  0
   13.8059  -10.0587   -8.9239 N   0  0  0  0  0  0  0  0  0  0  0  0
   13.1726   -8.8644   -9.3840 C   0  0  0  0  0  0  0  0  0  0  0  0
   11.9721   -8.5634   -9.0103 N   0  0  0  0  0  0  0  0  0  0  0  0
   13.8149   -7.9545  -10.2653 N   0  0  0  0  0  0  0  0  0  0  0  0
   14.8943   -8.3993  -11.0716 C   0  0  0  0  0  0  0  0  0  0  0  0
   15.4605   -7.3347  -11.9960 C   0  0  0  0  0  0  0  0  0  0  0  0
   16.5566   -8.0093  -12.7824 C   0  0  0  0  0  0  0  0  0  0  0  0
   17.2819   -7.0846  -13.7388 C   0  0  2  0  0  0  0  0  0  0  0  0
   18.3307   -7.8701  -14.3888 N   0  0  0  0  0  0  0  0  0  0  0  0
   17.8206   -5.8751  -13.1153 C   0  0  0  0  0  0  0  0  0  0  0  0
   17.0479   -5.0538  -12.5734 O   0  0  0  0  0  0  0  0  0  0  0  0
   19.1865   -5.5832  -13.0936 O   0  0  0  0  0  0  0  0  0  0  0  0
  2  1  1  6
  2  3  1  0
  3  4  1  0
  4  8  1  0
  5  4  2  0
  6  2  1  0
  7  6  2  0
  9  6  1  0
 10 14  1  0
 10  9  1  0
 10 11  1  6
 12 11  1  0
 12 16  1  0
 13 12  2  0
 14 15  2  0
 18 20  1  0
 18 17  1  0
 19 18  2  0
 21 20  1  0
 22 21  1  0
 23 22  1  0
 24 23  1  1
 25 24  1  0
 25 14  1  0
 26 28  1  0
 26 24  1  0
 27 26  2  0
M  END
$$$$
