DDR.pdb
     RDKit          3D

 28 27  0  0  1  0  0  0  0  0999 V2000
   27.4003  -21.0748  -17.2631 N   0  0  0  0  0  0  0  0  0  0  0  0
   26.8206  -19.7907  -17.0390 C   0  0  1  0  0  0  0  0  0  0  0  0
   27.3761  -18.7097  -17.9088 C   0  0  0  0  0  0  0  0  0  0  0  0
   28.4648  -19.1623  -18.8047 C   0  0  0  0  0  0  0  0  0  0  0  0
   28.8110  -20.3620  -18.7740 O   0  0  0  0  0  0  0  0  0  0  0  0
   25.3346  -19.8002  -17.2670 C   0  0  0  0  0  0  0  0  0  0  0  0
   24.6898  -18.7713  -16.9660 O   0  0  0  0  0  0  0  0  0  0  0  0
   29.1111  -18.3040  -19.6740 O   0  0  0  0  0  0  0  0  0  0  0  0
   24.6346  -20.9046  -17.7994 N   0  0  0  0  0  0  0  0  0  0  0  0
   23.2071  -21.0267  -17.8585 C   0  0  1  0  0  0  0  0  0  0  0  0
   22.7712  -21.7710  -19.0736 C   0  0  0  0  0  0  0  0  0  0  0  0
   22.6732  -20.9654  -20.2941 C   0  0  0  0  0  0  0  0  0  0  0  0
   22.7964  -19.7158  -20.1726 O   0  0  0  0  0  0  0  0  0  0  0  0
   22.6371  -21.5667  -16.5939 C   0  0  0  0  0  0  0  0  0  0  0  0
   23.2285  -22.5202  -16.0346 O   0  0  0  0  0  0  0  0  0  0  0  0
   22.4563  -21.4511  -21.5746 O   0  0  0  0  0  0  0  0  0  0  0  0
   26.5705  -21.2707  -11.0501 N   0  0  0  0  0  0  0  0  0  0  0  0
   25.3514  -21.2160  -10.3087 C   0  0  0  0  0  0  0  0  0  0  0  0
   25.3422  -21.4117   -9.0307 N   0  0  0  0  0  0  0  0  0  0  0  0
   24.0992  -20.9490  -10.9235 N   0  0  0  0  0  0  0  0  0  0  0  0
   24.0539  -20.2202  -12.1400 C   0  0  0  0  0  0  0  0  0  0  0  0
   22.6499  -19.8735  -12.6059 C   0  0  0  0  0  0  0  0  0  0  0  0
   22.6183  -20.1720  -14.0840 C   0  0  0  0  0  0  0  0  0  0  0  0
   21.3554  -20.8742  -14.5399 C   0  0  2  0  0  0  0  0  0  0  0  0
   21.4624  -21.0616  -15.9866 N   0  0  0  0  0  0  0  0  0  0  0  0
   20.1174  -20.1847  -14.1744 C   0  0  0  0  0  0  0  0  0  0  0  0
   19.6560  -20.2996  -13.0171 O   0  0  0  0  0  0  0  0  0  0  0  0
   19.4068  -19.3854  -15.0730 O   0  0  0  0  0  0  0  0  0  0  0  0
  2  1  1  6
  2  3  1  0
  3  4  1  0
  4  8  1  0
  5  4  2  0
  6  2  1  0
  7  6  2  0
  9  6  1  0
 10 14  1  0
 10  9  1  0
 10 11  1  6
 12 11  1  0
 12 16  1  0
 13 12  2  0
 14 15  2  0
 18 20  1  0
 18 17  1  0
 19 18  2  0
 21 20  1  0
 22 21  1  0
 23 22  1  0
 24 23  1  6
 25 24  1  0
 25 14  1  0
 26 28  1  0
 26 24  1  0
 27 26  2  0
M  END
$$$$
