DDR.pdb
     RDKit          3D

 28 27  0  0  1  0  0  0  0  0999 V2000
   19.6116   -7.3021  -13.0366 N   0  0  0  0  0  0  0  0  0  0  0  0
   20.5037   -7.2061  -14.1457 C   0  0  1  0  0  0  0  0  0  0  0  0
   21.7566   -6.4443  -13.8575 C   0  0  0  0  0  0  0  0  0  0  0  0
   21.5693   -4.9758  -13.8212 C   0  0  0  0  0  0  0  0  0  0  0  0
   20.4370   -4.5065  -14.0611 O   0  0  0  0  0  0  0  0  0  0  0  0
   20.9317   -8.5606  -14.6382 C   0  0  0  0  0  0  0  0  0  0  0  0
   20.9863   -9.4948  -13.8080 O   0  0  0  0  0  0  0  0  0  0  0  0
   22.6035   -4.1061  -13.5307 O   0  0  0  0  0  0  0  0  0  0  0  0
   21.2734   -8.8296  -15.9813 N   0  0  0  0  0  0  0  0  0  0  0  0
   21.5888  -10.1249  -16.5094 C   0  0  1  0  0  0  0  0  0  0  0  0
   20.7130  -10.4738  -17.6633 C   0  0  0  0  0  0  0  0  0  0  0  0
   20.9811  -11.7785  -18.2749 C   0  0  0  0  0  0  0  0  0  0  0  0
   21.2918  -12.7257  -17.5018 O   0  0  0  0  0  0  0  0  0  0  0  0
   23.0414  -10.2746  -16.7987 C   0  0  0  0  0  0  0  0  0  0  0  0
   23.6162   -9.3652  -17.4425 O   0  0  0  0  0  0  0  0  0  0  0  0
   20.9251  -12.0692  -19.6295 O   0  0  0  0  0  0  0  0  0  0  0  0
   24.4097  -17.3157  -15.8059 N   0  0  0  0  0  0  0  0  0  0  0  0
   25.8163  -17.2648  -16.0462 C   0  0  0  0  0  0  0  0  0  0  0  0
   26.4366  -18.2695  -16.5728 N   0  0  0  0  0  0  0  0  0  0  0  0
   26.6017  -16.1260  -15.7243 N   0  0  0  0  0  0  0  0  0  0  0  0
   25.9729  -14.9556  -15.2265 C   0  0  0  0  0  0  0  0  0  0  0  0
   25.3810  -14.0614  -16.3028 C   0  0  0  0  0  0  0  0  0  0  0  0
   25.7987  -12.6558  -15.9496 C   0  0  0  0  0  0  0  0  0  0  0  0
   25.1863  -11.5932  -16.8394 C   0  0  2  0  0  0  0  0  0  0  0  0
   23.8109  -11.3887  -16.3857 N   0  0  0  0  0  0  0  0  0  0  0  0
   25.2437  -11.8986  -18.2695 C   0  0  0  0  0  0  0  0  0  0  0  0
   24.2194  -12.3009  -18.8646 O   0  0  0  0  0  0  0  0  0  0  0  0
   26.4120  -11.7608  -19.0228 O   0  0  0  0  0  0  0  0  0  0  0  0
  2  1  1  1
  2  3  1  0
  3  4  1  0
  4  8  1  0
  5  4  2  0
  6  2  1  0
  7  6  2  0
  9  6  1  0
 10 14  1  0
 10  9  1  0
 10 11  1  6
 12 11  1  0
 12 16  1  0
 13 12  2  0
 14 15  2  0
 18 20  1  0
 18 17  1  0
 19 18  2  0
 21 20  1  0
 22 21  1  0
 23 22  1  0
 24 23  1  1
 25 24  1  0
 25 14  1  0
 26 28  1  0
 26 24  1  0
 27 26  2  0
M  END
$$$$
