DDR.pdb
     RDKit          3D

 28 27  0  0  1  0  0  0  0  0999 V2000
   15.1253   -7.2154   -8.4933 N   0  0  0  0  0  0  0  0  0  0  0  0
   15.8386   -6.7816   -9.6501 C   0  0  1  0  0  0  0  0  0  0  0  0
   16.5639   -5.4873   -9.4706 C   0  0  0  0  0  0  0  0  0  0  0  0
   15.6931   -4.3669   -9.0470 C   0  0  0  0  0  0  0  0  0  0  0  0
   14.4667   -4.5694   -8.9256 O   0  0  0  0  0  0  0  0  0  0  0  0
   16.8660   -7.7896  -10.0844 C   0  0  0  0  0  0  0  0  0  0  0  0
   16.8200   -8.9300   -9.5722 O   0  0  0  0  0  0  0  0  0  0  0  0
   16.1899   -3.1049   -8.7809 O   0  0  0  0  0  0  0  0  0  0  0  0
   17.8737   -7.5159  -11.0344 N   0  0  0  0  0  0  0  0  0  0  0  0
   18.1544   -8.3127  -12.1931 C   0  0  1  0  0  0  0  0  0  0  0  0
   16.9369   -8.5115  -13.0289 C   0  0  0  0  0  0  0  0  0  0  0  0
   17.1042   -9.4241  -14.1635 C   0  0  0  0  0  0  0  0  0  0  0  0
   16.1585   -9.4899  -14.9959 O   0  0  0  0  0  0  0  0  0  0  0  0
   19.3235   -7.7986  -12.9580 C   0  0  0  0  0  0  0  0  0  0  0  0
   19.1804   -6.7488  -13.6283 O   0  0  0  0  0  0  0  0  0  0  0  0
   18.2093  -10.2253  -14.4075 O   0  0  0  0  0  0  0  0  0  0  0  0
   27.2046  -12.1375  -15.4825 N   0  0  0  0  0  0  0  0  0  0  0  0
   25.9963  -11.6471  -16.0643 C   0  0  0  0  0  0  0  0  0  0  0  0
   25.3917  -12.3092  -16.9958 N   0  0  0  0  0  0  0  0  0  0  0  0
   25.4001  -10.4231  -15.6601 N   0  0  0  0  0  0  0  0  0  0  0  0
   24.0047  -10.2303  -15.8298 C   0  0  0  0  0  0  0  0  0  0  0  0
   23.4971   -8.8869  -15.3338 C   0  0  0  0  0  0  0  0  0  0  0  0
   22.3785   -9.1965  -14.3707 C   0  0  0  0  0  0  0  0  0  0  0  0
   21.6813   -7.9664  -13.8261 C   0  0  2  0  0  0  0  0  0  0  0  0
   20.5902   -8.4305  -12.9698 N   0  0  0  0  0  0  0  0  0  0  0  0
   21.2049   -7.0395  -14.8536 C   0  0  0  0  0  0  0  0  0  0  0  0
   20.2465   -7.3618  -15.5905 O   0  0  0  0  0  0  0  0  0  0  0  0
   21.7793   -5.7828  -15.0592 O   0  0  0  0  0  0  0  0  0  0  0  0
  2  1  1  1
  2  3  1  0
  3  4  1  0
  4  8  1  0
  5  4  2  0
  6  2  1  0
  7  6  2  0
  9  6  1  0
 10 14  1  0
 10  9  1  0
 10 11  1  6
 12 11  1  0
 12 16  1  0
 13 12  2  0
 14 15  2  0
 18 20  1  0
 18 17  1  0
 19 18  2  0
 21 20  1  0
 22 21  1  0
 23 22  1  0
 24 23  1  6
 25 24  1  0
 25 14  1  0
 26 28  1  0
 26 24  1  0
 27 26  2  0
M  END
$$$$
