DDR.pdb
     RDKit          3D

 28 27  0  0  1  0  0  0  0  0999 V2000
   46.0125  -13.9131   -9.2105 N   0  0  0  0  0  0  0  0  0  0  0  0
   44.8277  -13.7295   -8.4374 C   0  0  1  0  0  0  0  0  0  0  0  0
   44.7340  -14.6214   -7.2419 C   0  0  0  0  0  0  0  0  0  0  0  0
   44.8167  -16.0644   -7.5638 C   0  0  0  0  0  0  0  0  0  0  0  0
   45.6860  -16.7595   -6.9971 O   0  0  0  0  0  0  0  0  0  0  0  0
   44.7044  -12.3200   -7.9289 C   0  0  0  0  0  0  0  0  0  0  0  0
   43.7135  -12.0386   -7.2190 O   0  0  0  0  0  0  0  0  0  0  0  0
   43.9654  -16.6694   -8.4691 O   0  0  0  0  0  0  0  0  0  0  0  0
   45.6438  -11.3046   -8.2105 N   0  0  0  0  0  0  0  0  0  0  0  0
   45.5058   -9.9263   -7.8400 C   0  0  1  0  0  0  0  0  0  0  0  0
   46.8287   -9.2445   -7.7647 C   0  0  0  0  0  0  0  0  0  0  0  0
   46.7830   -7.8456   -7.3298 C   0  0  0  0  0  0  0  0  0  0  0  0
   46.7122   -7.6287   -6.0891 O   0  0  0  0  0  0  0  0  0  0  0  0
   44.5164   -9.2123   -8.6928 C   0  0  0  0  0  0  0  0  0  0  0  0
   44.2627   -9.6800   -9.8280 O   0  0  0  0  0  0  0  0  0  0  0  0
   46.8099   -6.7343   -8.1587 O   0  0  0  0  0  0  0  0  0  0  0  0
   38.4095  -11.7605   -7.7438 N   0  0  0  0  0  0  0  0  0  0  0  0
   38.2263  -10.4701   -7.1604 C   0  0  0  0  0  0  0  0  0  0  0  0
   37.8883  -10.3448   -5.9188 N   0  0  0  0  0  0  0  0  0  0  0  0
   38.4009   -9.2699   -7.8997 N   0  0  0  0  0  0  0  0  0  0  0  0
   39.4798   -9.1577   -8.8143 C   0  0  0  0  0  0  0  0  0  0  0  0
   40.5311   -8.1363   -8.4142 C   0  0  0  0  0  0  0  0  0  0  0  0
   41.7090   -8.3756   -9.3255 C   0  0  0  0  0  0  0  0  0  0  0  0
   42.8405   -7.3858   -9.1361 C   0  0  2  0  0  0  0  0  0  0  0  0
   43.8446   -8.0325   -8.2917 N   0  0  0  0  0  0  0  0  0  0  0  0
   42.4253   -6.0936   -8.5886 C   0  0  0  0  0  0  0  0  0  0  0  0
   42.6436   -5.8247   -7.3864 O   0  0  0  0  0  0  0  0  0  0  0  0
   41.7818   -5.1213   -9.3580 O   0  0  0  0  0  0  0  0  0  0  0  0
  2  1  1  1
  2  3  1  0
  3  4  1  0
  4  8  1  0
  5  4  2  0
  6  2  1  0
  7  6  2  0
  9  6  1  0
 10 14  1  0
 10  9  1  0
 10 11  1  6
 12 11  1  0
 12 16  1  0
 13 12  2  0
 14 15  2  0
 18 20  1  0
 18 17  1  0
 19 18  2  0
 21 20  1  0
 22 21  1  0
 23 22  1  0
 24 23  1  1
 25 24  1  0
 25 14  1  0
 26 28  1  0
 26 24  1  0
 27 26  2  0
M  END
$$$$
