DDR.pdb
     RDKit          3D

 28 27  0  0  1  0  0  0  0  0999 V2000
   21.5798  -10.7258  -16.6987 N   0  0  0  0  0  0  0  0  0  0  0  0
   20.2587  -10.8371  -16.1720 C   0  0  1  0  0  0  0  0  0  0  0  0
   19.9784  -12.1402  -15.4961 C   0  0  0  0  0  0  0  0  0  0  0  0
   20.0721  -13.3132  -16.3952 C   0  0  0  0  0  0  0  0  0  0  0  0
   20.4372  -13.1392  -17.5769 O   0  0  0  0  0  0  0  0  0  0  0  0
   19.9662   -9.7617  -15.1630 C   0  0  0  0  0  0  0  0  0  0  0  0
   19.6213  -10.1157  -14.0137 O   0  0  0  0  0  0  0  0  0  0  0  0
   19.7700  -14.5939  -15.9726 O   0  0  0  0  0  0  0  0  0  0  0  0
   20.0600   -8.3816  -15.4451 N   0  0  0  0  0  0  0  0  0  0  0  0
   19.7415   -7.3276  -14.5265 C   0  0  1  0  0  0  0  0  0  0  0  0
   20.3434   -6.0319  -14.9499 C   0  0  0  0  0  0  0  0  0  0  0  0
   21.7929   -5.9280  -14.7589 C   0  0  0  0  0  0  0  0  0  0  0  0
   22.5294   -6.3146  -15.7074 O   0  0  0  0  0  0  0  0  0  0  0  0
   18.2807   -7.2436  -14.2532 C   0  0  0  0  0  0  0  0  0  0  0  0
   17.4883   -7.3414  -15.2198 O   0  0  0  0  0  0  0  0  0  0  0  0
   22.4321   -5.4429  -13.6281 O   0  0  0  0  0  0  0  0  0  0  0  0
   14.2890   -7.4390   -6.4455 N   0  0  0  0  0  0  0  0  0  0  0  0
   13.1737   -7.4987   -7.3351 C   0  0  0  0  0  0  0  0  0  0  0  0
   11.9732   -7.6638   -6.8845 N   0  0  0  0  0  0  0  0  0  0  0  0
   13.3177   -7.3833   -8.7434 N   0  0  0  0  0  0  0  0  0  0  0  0
   14.6146   -7.3110   -9.3144 C   0  0  0  0  0  0  0  0  0  0  0  0
   14.6221   -7.1973  -10.8295 C   0  0  0  0  0  0  0  0  0  0  0  0
   16.0736   -7.2142  -11.2390 C   0  0  0  0  0  0  0  0  0  0  0  0
   16.2929   -7.0122  -12.7246 C   0  0  2  0  0  0  0  0  0  0  0  0
   17.7358   -7.0597  -12.9596 N   0  0  0  0  0  0  0  0  0  0  0  0
   15.6982   -5.7870  -13.2602 C   0  0  0  0  0  0  0  0  0  0  0  0
   16.3499   -4.7191  -13.2492 O   0  0  0  0  0  0  0  0  0  0  0  0
   14.4089   -5.7474  -13.7964 O   0  0  0  0  0  0  0  0  0  0  0  0
  2  1  1  1
  2  3  1  0
  3  4  1  0
  4  8  1  0
  5  4  2  0
  6  2  1  0
  7  6  2  0
  9  6  1  0
 10 14  1  0
 10  9  1  0
 10 11  1  6
 12 11  1  0
 12 16  1  0
 13 12  2  0
 14 15  2  0
 18 20  1  0
 18 17  1  0
 19 18  2  0
 21 20  1  0
 22 21  1  0
 23 22  1  0
 24 23  1  1
 25 24  1  0
 25 14  1  0
 26 28  1  0
 26 24  1  0
 27 26  2  0
M  END
$$$$
