IHL.pdb
     RDKit          3D

 27 27  0  0  1  0  0  0  0  0999 V2000
   24.4052  -15.4575  -18.2108 C   0  0  0  0  0  0  0  0  0  0  0  0
   24.6814  -14.3830  -17.2011 C   0  0  0  0  0  0  0  0  0  0  0  0
   23.9031  -13.1287  -17.4876 C   0  0  2  0  0  0  0  0  0  0  0  0
   24.0338  -12.7678  -18.9687 C   0  0  0  0  0  0  0  0  0  0  0  0
   24.2074  -11.9649  -16.6066 C   0  0  2  0  0  0  0  0  0  0  0  0
   23.9575  -12.4340  -15.2231 N   0  0  0  0  0  0  0  0  0  0  0  0
   23.2663  -10.8120  -16.7855 C   0  0  0  0  0  0  0  0  0  0  0  0
   23.1313  -10.2746  -17.9150 O   0  0  0  0  0  0  0  0  0  0  0  0
   22.5038  -10.2840  -15.7350 N   0  0  0  0  0  0  0  0  0  0  0  0
   21.4851   -9.3216  -15.6631 C   0  0  1  0  0  0  0  0  0  0  0  0
   20.1756   -9.6744  -15.0349 C   0  0  0  0  0  0  0  0  0  0  0  0
   19.3683  -10.6659  -15.7697 C   0  0  0  0  0  0  0  0  0  0  0  0
   19.7623  -11.1617  -17.0187 C   0  0  0  0  0  0  0  0  0  0  0  0
   18.8760  -12.0351  -17.4742 N   0  0  0  0  0  0  0  0  0  0  0  0
   17.9110  -12.1122  -16.5355 C   0  0  0  0  0  0  0  0  0  0  0  0
   18.2136  -11.2886  -15.5173 N   0  0  0  0  0  0  0  0  0  0  0  0
   21.9588   -8.0273  -15.2180 C   0  0  0  0  0  0  0  0  0  0  0  0
   22.7065   -7.9761  -14.1909 O   0  0  0  0  0  0  0  0  0  0  0  0
   23.2972   -4.1861  -18.8019 C   0  0  0  0  0  0  0  0  0  0  0  0
   23.1656   -5.1314  -17.6594 C   0  0  1  0  0  0  0  0  0  0  0  0
   24.5659   -5.4142  -17.1320 C   0  0  0  0  0  0  0  0  0  0  0  0
   22.3181   -4.6357  -16.5446 C   0  0  0  0  0  0  0  0  0  0  0  0
   22.1425   -5.5612  -15.3905 C   0  0  2  0  0  0  0  0  0  0  0  0
   21.6357   -6.8287  -15.8631 N   0  0  0  0  0  0  0  0  0  0  0  0
   21.3847   -5.0131  -14.2599 C   0  0  0  0  0  0  0  0  0  0  0  0
   20.2057   -5.3788  -14.0728 O   0  0  0  0  0  0  0  0  0  0  0  0
   21.9217   -4.0789  -13.3561 O   0  0  0  0  0  0  0  0  0  0  0  0
  2  1  1  0
  3  2  1  0
  3  5  1  0
  3  4  1  6
  5  6  1  1
  7  5  1  0
  7  8  2  0
  9  7  1  0
 10  9  1  0
 10 11  1  1
 12 11  1  0
 12 16  1  0
 13 14  1  0
 13 12  2  0
 14 15  1  0
 15 16  2  0
 17 10  1  0
 18 17  2  0
 20 22  1  0
 20 19  1  6
 21 20  1  0
 23 24  1  0
 23 22  1  6
 24 17  1  0
 25 23  1  0
 26 25  2  0
 27 25  1  0
M  END
$$$$
