IHL.pdb
     RDKit          3D

 27 27  0  0  1  0  0  0  0  0999 V2000
   29.6467  -18.2065  -17.1611 C   0  0  0  0  0  0  0  0  0  0  0  0
   28.3794  -19.0086  -17.1289 C   0  0  0  0  0  0  0  0  0  0  0  0
   27.6450  -18.8476  -15.8268 C   0  0  2  0  0  0  0  0  0  0  0  0
   28.6188  -19.0253  -14.6602 C   0  0  0  0  0  0  0  0  0  0  0  0
   26.4275  -19.6928  -15.6637 C   0  0  2  0  0  0  0  0  0  0  0  0
   25.5282  -19.3192  -16.7810 N   0  0  0  0  0  0  0  0  0  0  0  0
   25.6381  -19.3796  -14.4285 C   0  0  0  0  0  0  0  0  0  0  0  0
   25.1309  -18.2386  -14.2739 O   0  0  0  0  0  0  0  0  0  0  0  0
   25.4249  -20.3140  -13.4061 N   0  0  0  0  0  0  0  0  0  0  0  0
   24.7052  -20.2880  -12.2018 C   0  0  1  0  0  0  0  0  0  0  0  0
   23.2877  -20.7613  -12.1755 C   0  0  0  0  0  0  0  0  0  0  0  0
   22.4142  -20.2009  -13.2232 C   0  0  0  0  0  0  0  0  0  0  0  0
   22.8839  -19.2713  -14.1593 C   0  0  0  0  0  0  0  0  0  0  0  0
   21.9156  -18.9186  -14.9922 N   0  0  0  0  0  0  0  0  0  0  0  0
   20.8226  -19.6085  -14.6079 C   0  0  0  0  0  0  0  0  0  0  0  0
   21.1297  -20.3745  -13.5472 N   0  0  0  0  0  0  0  0  0  0  0  0
   25.4608  -20.8038  -11.0790 C   0  0  0  0  0  0  0  0  0  0  0  0
   26.0600  -21.9172  -11.2120 O   0  0  0  0  0  0  0  0  0  0  0  0
   28.3960  -18.4796   -7.1465 C   0  0  0  0  0  0  0  0  0  0  0  0
   27.7463  -19.4009   -8.1188 C   0  0  1  0  0  0  0  0  0  0  0  0
   28.7374  -20.5139   -8.4316 C   0  0  0  0  0  0  0  0  0  0  0  0
   26.4751  -20.0032   -7.6413 C   0  0  0  0  0  0  0  0  0  0  0  0
   25.7468  -20.8614   -8.6172 C   0  0  2  0  0  0  0  0  0  0  0  0
   25.5658  -20.1367   -9.8538 N   0  0  0  0  0  0  0  0  0  0  0  0
   24.5128  -21.4734   -8.1119 C   0  0  0  0  0  0  0  0  0  0  0  0
   23.4088  -21.0829   -8.5449 O   0  0  0  0  0  0  0  0  0  0  0  0
   24.5021  -22.4960   -7.1464 O   0  0  0  0  0  0  0  0  0  0  0  0
  2  1  1  0
  3  2  1  0
  3  5  1  0
  3  4  1  1
  5  6  1  6
  7  5  1  0
  7  8  2  0
  9  7  1  0
 10  9  1  0
 10 11  1  6
 12 11  1  0
 12 16  1  0
 13 14  1  0
 13 12  2  0
 14 15  1  0
 15 16  2  0
 17 10  1  0
 18 17  2  0
 20 22  1  0
 20 19  1  1
 21 20  1  0
 23 24  1  0
 23 22  1  1
 24 17  1  0
 25 23  1  0
 26 25  2  0
 27 25  1  0
M  END
$$$$
