IHL.pdb
     RDKit          3D

 27 27  0  0  1  0  0  0  0  0999 V2000
   23.5356  -17.1784  -22.0698 C   0  0  0  0  0  0  0  0  0  0  0  0
   24.5336  -17.0525  -20.9569 C   0  0  0  0  0  0  0  0  0  0  0  0
   24.2116  -17.9660  -19.8069 C   0  0  2  0  0  0  0  0  0  0  0  0
   22.7912  -17.6888  -19.3103 C   0  0  0  0  0  0  0  0  0  0  0  0
   25.1973  -17.9675  -18.6882 C   0  0  2  0  0  0  0  0  0  0  0  0
   26.4787  -18.4141  -19.2843 N   0  0  0  0  0  0  0  0  0  0  0  0
   24.9038  -18.9861  -17.6283 C   0  0  0  0  0  0  0  0  0  0  0  0
   24.7273  -20.1919  -17.9409 O   0  0  0  0  0  0  0  0  0  0  0  0
   24.8138  -18.6622  -16.2679 N   0  0  0  0  0  0  0  0  0  0  0  0
   24.4294  -19.3769  -15.1231 C   0  0  1  0  0  0  0  0  0  0  0  0
   25.1423  -19.1442  -13.8303 C   0  0  0  0  0  0  0  0  0  0  0  0
   24.6914  -19.9778  -12.7005 C   0  0  0  0  0  0  0  0  0  0  0  0
   25.2506  -21.2348  -12.4388 C   0  0  0  0  0  0  0  0  0  0  0  0
   24.6811  -21.7864  -11.3771 N   0  0  0  0  0  0  0  0  0  0  0  0
   23.7587  -20.9023  -10.9463 C   0  0  0  0  0  0  0  0  0  0  0  0
   23.7711  -19.8212  -11.7446 N   0  0  0  0  0  0  0  0  0  0  0  0
   22.9934  -19.4232  -14.9397 C   0  0  0  0  0  0  0  0  0  0  0  0
   22.3686  -18.3289  -14.7703 O   0  0  0  0  0  0  0  0  0  0  0  0
   19.2899  -21.8139  -17.9055 C   0  0  0  0  0  0  0  0  0  0  0  0
   19.9964  -20.9225  -16.9449 C   0  0  1  0  0  0  0  0  0  0  0  0
   19.2372  -19.6033  -16.8969 C   0  0  0  0  0  0  0  0  0  0  0  0
   20.1093  -21.4678  -15.5677 C   0  0  0  0  0  0  0  0  0  0  0  0
   20.8570  -20.6305  -14.5883 C   0  0  2  0  0  0  0  0  0  0  0  0
   22.2579  -20.6132  -14.9410 N   0  0  0  0  0  0  0  0  0  0  0  0
   20.6130  -20.9512  -13.1776 C   0  0  0  0  0  0  0  0  0  0  0  0
   21.3063  -21.8238  -12.6148 O   0  0  0  0  0  0  0  0  0  0  0  0
   19.6210  -20.3190  -12.4067 O   0  0  0  0  0  0  0  0  0  0  0  0
  2  1  1  0
  3  2  1  0
  3  5  1  0
  3  4  1  1
  5  6  1  6
  7  5  1  0
  7  8  2  0
  9  7  1  0
 10  9  1  0
 10 11  1  1
 12 11  1  0
 12 16  1  0
 13 14  1  0
 13 12  2  0
 14 15  1  0
 15 16  2  0
 17 10  1  0
 18 17  2  0
 20 22  1  0
 20 19  1  6
 21 20  1  0
 23 24  1  0
 23 22  1  6
 24 17  1  0
 25 23  1  0
 26 25  2  0
 27 25  1  0
M  END
$$$$
