IHL.pdb
     RDKit          3D

 27 27  0  0  1  0  0  0  0  0999 V2000
   14.6456  -16.6045  -17.4495 C   0  0  0  0  0  0  0  0  0  0  0  0
   15.5265  -16.0737  -16.3574 C   0  0  0  0  0  0  0  0  0  0  0  0
   15.8921  -14.6324  -16.5806 C   0  0  2  0  0  0  0  0  0  0  0  0
   16.5132  -14.4670  -17.9691 C   0  0  0  0  0  0  0  0  0  0  0  0
   16.7352  -14.0088  -15.5206 C   0  0  2  0  0  0  0  0  0  0  0  0
   15.9672  -14.1538  -14.2613 N   0  0  0  0  0  0  0  0  0  0  0  0
   16.9096  -12.5288  -15.6830 C   0  0  0  0  0  0  0  0  0  0  0  0
   17.5491  -12.0709  -16.6650 O   0  0  0  0  0  0  0  0  0  0  0  0
   16.3834  -11.5982  -14.7770 N   0  0  0  0  0  0  0  0  0  0  0  0
   16.4548  -10.2009  -14.6694 C   0  0  1  0  0  0  0  0  0  0  0  0
   15.3135   -9.4448  -14.0696 C   0  0  0  0  0  0  0  0  0  0  0  0
   14.0651   -9.4562  -14.8546 C   0  0  0  0  0  0  0  0  0  0  0  0
   13.9774  -10.0982  -16.0960 C   0  0  0  0  0  0  0  0  0  0  0  0
   12.7600   -9.9685  -16.6028 N   0  0  0  0  0  0  0  0  0  0  0  0
   12.0561   -9.2498  -15.7049 C   0  0  0  0  0  0  0  0  0  0  0  0
   12.8454   -8.9467  -14.6602 N   0  0  0  0  0  0  0  0  0  0  0  0
   17.7287   -9.7361  -14.1606 C   0  0  0  0  0  0  0  0  0  0  0  0
   18.2466  -10.3478  -13.1737 O   0  0  0  0  0  0  0  0  0  0  0  0
   22.9103  -10.4764  -14.0569 C   0  0  0  0  0  0  0  0  0  0  0  0
   22.0937   -9.2350  -14.1491 C   0  0  1  0  0  0  0  0  0  0  0  0
   22.7043   -8.3619  -15.2371 C   0  0  0  0  0  0  0  0  0  0  0  0
   20.6589   -9.4636  -14.4587 C   0  0  0  0  0  0  0  0  0  0  0  0
   19.7488   -8.3022  -14.2528 C   0  0  2  0  0  0  0  0  0  0  0  0
   18.4198   -8.6470  -14.7021 N   0  0  0  0  0  0  0  0  0  0  0  0
   20.2343   -7.0254  -14.7881 C   0  0  0  0  0  0  0  0  0  0  0  0
   19.8582   -6.6472  -15.9170 O   0  0  0  0  0  0  0  0  0  0  0  0
   21.1188   -6.1856  -14.0877 O   0  0  0  0  0  0  0  0  0  0  0  0
  2  1  1  0
  3  2  1  0
  3  5  1  0
  3  4  1  6
  5  6  1  1
  7  5  1  0
  7  8  2  0
  9  7  1  0
 10  9  1  0
 10 11  1  1
 12 11  1  0
 12 16  1  0
 13 14  1  0
 13 12  2  0
 14 15  1  0
 15 16  2  0
 17 10  1  0
 18 17  2  0
 20 22  1  0
 20 19  1  6
 21 20  1  0
 23 24  1  0
 23 22  1  6
 24 17  1  0
 25 23  1  0
 26 25  2  0
 27 25  1  0
M  END
$$$$
