IHL.pdb
     RDKit          3D

 27 27  0  0  1  0  0  0  0  0999 V2000
   26.2872  -14.1133  -18.3247 C   0  0  0  0  0  0  0  0  0  0  0  0
   27.1517  -15.0994  -17.5963 C   0  0  0  0  0  0  0  0  0  0  0  0
   26.4047  -15.7937  -16.4915 C   0  0  2  0  0  0  0  0  0  0  0  0
   25.6754  -14.7587  -15.6325 C   0  0  0  0  0  0  0  0  0  0  0  0
   27.2095  -16.7336  -15.6595 C   0  0  2  0  0  0  0  0  0  0  0  0
   27.8670  -17.6536  -16.6175 N   0  0  0  0  0  0  0  0  0  0  0  0
   26.3799  -17.6301  -14.7906 C   0  0  0  0  0  0  0  0  0  0  0  0
   25.6770  -17.1432  -13.8676 O   0  0  0  0  0  0  0  0  0  0  0  0
   26.3400  -19.0213  -14.9539 N   0  0  0  0  0  0  0  0  0  0  0  0
   25.6226  -20.0521  -14.3278 C   0  0  1  0  0  0  0  0  0  0  0  0
   25.3167  -21.3058  -15.0818 C   0  0  0  0  0  0  0  0  0  0  0  0
   24.4394  -22.2648  -14.3851 C   0  0  0  0  0  0  0  0  0  0  0  0
   24.9488  -23.3922  -13.7292 C   0  0  0  0  0  0  0  0  0  0  0  0
   23.9683  -24.0965  -13.1830 N   0  0  0  0  0  0  0  0  0  0  0  0
   22.8280  -23.4394  -13.4766 C   0  0  0  0  0  0  0  0  0  0  0  0
   23.1190  -22.3428  -14.1972 N   0  0  0  0  0  0  0  0  0  0  0  0
   26.0928  -20.3367  -12.9878 C   0  0  0  0  0  0  0  0  0  0  0  0
   27.3461  -20.3451  -12.7744 O   0  0  0  0  0  0  0  0  0  0  0  0
   28.4506  -18.8781   -8.7367 C   0  0  0  0  0  0  0  0  0  0  0  0
   27.9302  -19.8438   -9.7432 C   0  0  1  0  0  0  0  0  0  0  0  0
   28.0347  -21.2383   -9.1405 C   0  0  0  0  0  0  0  0  0  0  0  0
   26.5258  -19.6000  -10.1615 C   0  0  0  0  0  0  0  0  0  0  0  0
   25.7460  -20.7994  -10.5772 C   0  0  2  0  0  0  0  0  0  0  0  0
   25.2359  -20.6019  -11.9143 N   0  0  0  0  0  0  0  0  0  0  0  0
   24.7251  -21.2431   -9.6213 C   0  0  0  0  0  0  0  0  0  0  0  0
   25.0735  -21.8251   -8.5731 O   0  0  0  0  0  0  0  0  0  0  0  0
   23.3472  -21.0467   -9.8229 O   0  0  0  0  0  0  0  0  0  0  0  0
  2  1  1  0
  3  2  1  0
  3  5  1  0
  3  4  1  1
  5  6  1  6
  7  5  1  0
  7  8  2  0
  9  7  1  0
 10  9  1  0
 10 11  1  6
 12 11  1  0
 12 16  1  0
 13 14  1  0
 13 12  2  0
 14 15  1  0
 15 16  2  0
 17 10  1  0
 18 17  2  0
 20 22  1  0
 20 19  1  1
 21 20  1  0
 23 24  1  0
 23 22  1  1
 24 17  1  0
 25 23  1  0
 26 25  2  0
 27 25  1  0
M  END
$$$$
