IHL.pdb
     RDKit          3D

 27 27  0  0  1  0  0  0  0  0999 V2000
   20.3543  -17.6931  -14.5674 C   0  0  0  0  0  0  0  0  0  0  0  0
   21.3756  -17.4931  -15.6479 C   0  0  0  0  0  0  0  0  0  0  0  0
   21.4944  -16.0488  -16.0489 C   0  0  2  0  0  0  0  0  0  0  0  0
   21.9096  -15.2101  -14.8385 C   0  0  0  0  0  0  0  0  0  0  0  0
   20.3062  -15.4709  -16.7399 C   0  0  2  0  0  0  0  0  0  0  0  0
   20.1377  -16.2663  -17.9791 N   0  0  0  0  0  0  0  0  0  0  0  0
   20.5141  -14.0672  -17.2227 C   0  0  0  0  0  0  0  0  0  0  0  0
   21.4841  -13.7941  -17.9759 O   0  0  0  0  0  0  0  0  0  0  0  0
   19.6627  -13.0101  -16.8740 N   0  0  0  0  0  0  0  0  0  0  0  0
   19.6808  -11.6282  -17.1171 C   0  0  1  0  0  0  0  0  0  0  0  0
   18.4306  -10.9366  -17.5559 C   0  0  0  0  0  0  0  0  0  0  0  0
   18.5846   -9.5117  -17.9031 C   0  0  0  0  0  0  0  0  0  0  0  0
   19.5298   -9.0763  -18.8402 C   0  0  0  0  0  0  0  0  0  0  0  0
   19.4764   -7.7596  -18.9789 N   0  0  0  0  0  0  0  0  0  0  0  0
   18.5075   -7.3349  -18.1428 C   0  0  0  0  0  0  0  0  0  0  0  0
   17.9780   -8.3910  -17.5019 N   0  0  0  0  0  0  0  0  0  0  0  0
   20.3702  -10.8805  -16.0859 C   0  0  0  0  0  0  0  0  0  0  0  0
   19.9838  -11.0112  -14.8817 O   0  0  0  0  0  0  0  0  0  0  0  0
   25.5627  -10.7705  -15.1038 C   0  0  0  0  0  0  0  0  0  0  0  0
   24.0762  -10.6955  -15.0706 C   0  0  1  0  0  0  0  0  0  0  0  0
   23.6242  -11.1281  -13.6822 C   0  0  0  0  0  0  0  0  0  0  0  0
   23.5210   -9.3493  -15.3641 C   0  0  0  0  0  0  0  0  0  0  0  0
   22.0379   -9.2220  -15.3025 C   0  0  2  0  0  0  0  0  0  0  0  0
   21.4427  -10.0214  -16.3483 N   0  0  0  0  0  0  0  0  0  0  0  0
   21.5302   -7.8462  -15.2572 C   0  0  0  0  0  0  0  0  0  0  0  0
   21.2212   -7.2678  -16.3197 O   0  0  0  0  0  0  0  0  0  0  0  0
   21.3691   -7.1260  -14.0600 O   0  0  0  0  0  0  0  0  0  0  0  0
  2  1  1  0
  3  2  1  0
  3  5  1  0
  3  4  1  1
  5  6  1  6
  7  5  1  0
  7  8  2  0
  9  7  1  0
 10  9  1  0
 10 11  1  1
 12 11  1  0
 12 16  1  0
 13 14  1  0
 13 12  2  0
 14 15  1  0
 15 16  2  0
 17 10  1  0
 18 17  2  0
 20 22  1  0
 20 19  1  1
 21 20  1  0
 23 24  1  0
 23 22  1  6
 24 17  1  0
 25 23  1  0
 26 25  2  0
 27 25  1  0
M  END
$$$$
