IHL.pdb
     RDKit          3D

 27 27  0  0  1  0  0  0  0  0999 V2000
   27.3274  -18.8369  -17.4504 C   0  0  0  0  0  0  0  0  0  0  0  0
   27.6098  -19.9065  -16.4373 C   0  0  0  0  0  0  0  0  0  0  0  0
   27.3538  -19.4329  -15.0333 C   0  0  2  0  0  0  0  0  0  0  0  0
   28.1336  -18.1423  -14.7743 C   0  0  0  0  0  0  0  0  0  0  0  0
   27.5835  -20.4419  -13.9598 C   0  0  2  0  0  0  0  0  0  0  0  0
   26.7485  -21.6110  -14.3239 N   0  0  0  0  0  0  0  0  0  0  0  0
   27.0692  -20.0197  -12.6166 C   0  0  0  0  0  0  0  0  0  0  0  0
   27.4348  -18.9258  -12.1141 O   0  0  0  0  0  0  0  0  0  0  0  0
   26.1758  -20.7967  -11.8669 N   0  0  0  0  0  0  0  0  0  0  0  0
   25.4910  -20.5947  -10.6589 C   0  0  1  0  0  0  0  0  0  0  0  0
   24.0820  -21.0726  -10.5171 C   0  0  0  0  0  0  0  0  0  0  0  0
   23.1496  -20.6117  -11.5625 C   0  0  0  0  0  0  0  0  0  0  0  0
   23.0838  -19.2693  -11.9559 C   0  0  0  0  0  0  0  0  0  0  0  0
   22.1737  -19.1058  -12.9050 N   0  0  0  0  0  0  0  0  0  0  0  0
   21.6478  -20.3264  -13.1326 C   0  0  0  0  0  0  0  0  0  0  0  0
   22.2380  -21.2233  -12.3240 N   0  0  0  0  0  0  0  0  0  0  0  0
   26.2864  -20.9258   -9.4946 C   0  0  0  0  0  0  0  0  0  0  0  0
   26.8795  -22.0500   -9.4656 O   0  0  0  0  0  0  0  0  0  0  0  0
   29.5797  -20.5456   -5.1642 C   0  0  0  0  0  0  0  0  0  0  0  0
   28.2980  -19.7884   -5.1411 C   0  0  1  0  0  0  0  0  0  0  0  0
   28.5444  -18.4891   -4.3860 C   0  0  0  0  0  0  0  0  0  0  0  0
   27.7454  -19.4724   -6.4833 C   0  0  0  0  0  0  0  0  0  0  0  0
   26.9467  -20.5477   -7.1353 C   0  0  2  0  0  0  0  0  0  0  0  0
   26.4363  -20.0688   -8.3990 N   0  0  0  0  0  0  0  0  0  0  0  0
   25.9216  -21.1661   -6.2870 C   0  0  0  0  0  0  0  0  0  0  0  0
   24.7519  -20.7305   -6.3165 O   0  0  0  0  0  0  0  0  0  0  0  0
   26.1871  -22.2441   -5.4236 O   0  0  0  0  0  0  0  0  0  0  0  0
  2  1  1  0
  3  2  1  0
  3  5  1  0
  3  4  1  1
  5  6  1  6
  7  5  1  0
  7  8  2  0
  9  7  1  0
 10  9  1  0
 10 11  1  6
 12 11  1  0
 12 16  1  0
 13 14  1  0
 13 12  2  0
 14 15  1  0
 15 16  2  0
 17 10  1  0
 18 17  2  0
 20 22  1  0
 20 19  1  6
 21 20  1  0
 23 24  1  0
 23 22  1  1
 24 17  1  0
 25 23  1  0
 26 25  2  0
 27 25  1  0
M  END
$$$$
