IHL.pdb
     RDKit          3D

 27 27  0  0  1  0  0  0  0  0999 V2000
   14.8185  -12.2949  -18.4861 C   0  0  0  0  0  0  0  0  0  0  0  0
   14.7309  -12.2898  -16.9885 C   0  0  0  0  0  0  0  0  0  0  0  0
   15.3417  -11.0513  -16.3938 C   0  0  2  0  0  0  0  0  0  0  0  0
   14.7631   -9.8112  -17.0782 C   0  0  0  0  0  0  0  0  0  0  0  0
   16.8320  -11.0188  -16.3603 C   0  0  2  0  0  0  0  0  0  0  0  0
   17.2422  -12.2325  -15.6151 N   0  0  0  0  0  0  0  0  0  0  0  0
   17.3916   -9.8821  -15.5591 C   0  0  0  0  0  0  0  0  0  0  0  0
   16.9355   -9.6300  -14.4140 O   0  0  0  0  0  0  0  0  0  0  0  0
   18.4264   -9.0607  -16.0264 N   0  0  0  0  0  0  0  0  0  0  0  0
   19.0965   -7.9473  -15.4967 C   0  0  1  0  0  0  0  0  0  0  0  0
   20.5907   -7.9233  -15.4747 C   0  0  0  0  0  0  0  0  0  0  0  0
   21.1950   -6.7357  -14.8431 C   0  0  0  0  0  0  0  0  0  0  0  0
   21.4557   -6.6806  -13.4683 C   0  0  0  0  0  0  0  0  0  0  0  0
   21.9967   -5.5156  -13.1428 N   0  0  0  0  0  0  0  0  0  0  0  0
   22.0903   -4.8136  -14.2902 C   0  0  0  0  0  0  0  0  0  0  0  0
   21.6078   -5.5517  -15.3044 N   0  0  0  0  0  0  0  0  0  0  0  0
   18.5494   -6.6866  -15.9537 C   0  0  0  0  0  0  0  0  0  0  0  0
   18.4377   -6.4925  -17.2052 O   0  0  0  0  0  0  0  0  0  0  0  0
   13.9076   -4.4156  -14.9829 C   0  0  0  0  0  0  0  0  0  0  0  0
   15.2134   -4.7298  -15.6252 C   0  0  1  0  0  0  0  0  0  0  0  0
   15.1120   -4.3343  -17.0922 C   0  0  0  0  0  0  0  0  0  0  0  0
   16.3804   -4.0411  -15.0165 C   0  0  0  0  0  0  0  0  0  0  0  0
   17.7147   -4.3816  -15.5849 C   0  0  2  0  0  0  0  0  0  0  0  0
   18.1355   -5.6703  -15.0858 N   0  0  0  0  0  0  0  0  0  0  0  0
   18.7373   -3.3386  -15.4468 C   0  0  0  0  0  0  0  0  0  0  0  0
   19.5776   -3.4170  -14.5267 O   0  0  0  0  0  0  0  0  0  0  0  0
   18.8264   -2.2314  -16.3094 O   0  0  0  0  0  0  0  0  0  0  0  0
  2  1  1  0
  3  2  1  0
  3  5  1  0
  3  4  1  6
  5  6  1  1
  7  5  1  0
  7  8  2  0
  9  7  1  0
 10  9  1  0
 10 11  1  6
 12 11  1  0
 12 16  1  0
 13 14  1  0
 13 12  2  0
 14 15  1  0
 15 16  2  0
 17 10  1  0
 18 17  2  0
 20 22  1  0
 20 19  1  1
 21 20  1  0
 23 24  1  0
 23 22  1  1
 24 17  1  0
 25 23  1  0
 26 25  2  0
 27 25  1  0
M  END
$$$$
