IHL.pdb
     RDKit          3D

 27 27  0  0  1  0  0  0  0  0999 V2000
   26.2768  -13.5508  -15.4784 C   0  0  0  0  0  0  0  0  0  0  0  0
   26.8131  -14.6562  -16.3391 C   0  0  0  0  0  0  0  0  0  0  0  0
   26.2698  -15.9984  -15.9339 C   0  0  2  0  0  0  0  0  0  0  0  0
   26.6672  -16.3003  -14.4876 C   0  0  0  0  0  0  0  0  0  0  0  0
   26.6011  -17.1308  -16.8456 C   0  0  2  0  0  0  0  0  0  0  0  0
   26.1500  -16.7059  -18.1919 N   0  0  0  0  0  0  0  0  0  0  0  0
   25.8179  -18.3779  -16.5659 C   0  0  0  0  0  0  0  0  0  0  0  0
   24.5618  -18.3365  -16.5065 O   0  0  0  0  0  0  0  0  0  0  0  0
   26.4232  -19.6253  -16.3624 N   0  0  0  0  0  0  0  0  0  0  0  0
   25.9315  -20.9074  -16.0735 C   0  0  1  0  0  0  0  0  0  0  0  0
   26.6896  -22.1119  -16.5301 C   0  0  0  0  0  0  0  0  0  0  0  0
   25.9740  -23.3950  -16.4035 C   0  0  0  0  0  0  0  0  0  0  0  0
   25.6603  -23.9474  -15.1555 C   0  0  0  0  0  0  0  0  0  0  0  0
   25.0206  -25.0985  -15.3027 N   0  0  0  0  0  0  0  0  0  0  0  0
   24.9153  -25.3000  -16.6318 C   0  0  0  0  0  0  0  0  0  0  0  0
   25.4891  -24.2747  -17.2844 N   0  0  0  0  0  0  0  0  0  0  0  0
   25.4834  -21.0469  -14.7033 C   0  0  0  0  0  0  0  0  0  0  0  0
   26.3268  -21.4100  -13.8239 O   0  0  0  0  0  0  0  0  0  0  0  0
   26.2826  -19.7149  -10.4388 C   0  0  0  0  0  0  0  0  0  0  0  0
   25.6720  -20.6528  -11.4206 C   0  0  1  0  0  0  0  0  0  0  0  0
   25.4579  -21.9845  -10.7136 C   0  0  0  0  0  0  0  0  0  0  0  0
   24.3795  -20.1925  -11.9901 C   0  0  0  0  0  0  0  0  0  0  0  0
   23.7229  -21.1137  -12.9594 C   0  0  2  0  0  0  0  0  0  0  0  0
   24.1674  -20.8004  -14.2977 N   0  0  0  0  0  0  0  0  0  0  0  0
   22.2643  -21.2142  -12.8360 C   0  0  0  0  0  0  0  0  0  0  0  0
   21.7557  -21.4698  -11.7248 O   0  0  0  0  0  0  0  0  0  0  0  0
   21.3877  -21.0360  -13.9213 O   0  0  0  0  0  0  0  0  0  0  0  0
  2  1  1  0
  3  2  1  0
  3  5  1  0
  3  4  1  1
  5  6  1  6
  7  5  1  0
  7  8  2  0
  9  7  1  0
 10  9  1  0
 10 11  1  1
 12 11  1  0
 12 16  1  0
 13 14  1  0
 13 12  2  0
 14 15  1  0
 15 16  2  0
 17 10  1  0
 18 17  2  0
 20 22  1  0
 20 19  1  1
 21 20  1  0
 23 24  1  0
 23 22  1  1
 24 17  1  0
 25 23  1  0
 26 25  2  0
 27 25  1  0
M  END
$$$$
