IHL.pdb
     RDKit          3D

 27 27  0  0  1  0  0  0  0  0999 V2000
   21.7537  -19.3349  -16.8748 C   0  0  0  0  0  0  0  0  0  0  0  0
   22.2417  -18.8338  -15.5477 C   0  0  0  0  0  0  0  0  0  0  0  0
   23.1276  -19.8352  -14.8598 C   0  0  2  0  0  0  0  0  0  0  0  0
   22.4357  -21.1994  -14.8275 C   0  0  0  0  0  0  0  0  0  0  0  0
   23.6267  -19.4370  -13.5123 C   0  0  2  0  0  0  0  0  0  0  0  0
   24.3411  -18.1541  -13.7130 N   0  0  0  0  0  0  0  0  0  0  0  0
   24.6686  -20.3617  -12.9587 C   0  0  0  0  0  0  0  0  0  0  0  0
   24.3604  -21.5349  -12.6247 O   0  0  0  0  0  0  0  0  0  0  0  0
   26.0070  -19.9830  -12.7887 N   0  0  0  0  0  0  0  0  0  0  0  0
   27.1424  -20.6319  -12.2799 C   0  0  1  0  0  0  0  0  0  0  0  0
   28.4980  -20.0495  -12.5190 C   0  0  0  0  0  0  0  0  0  0  0  0
   29.6245  -20.8181  -11.9576 C   0  0  0  0  0  0  0  0  0  0  0  0
   29.4437  -22.0803  -11.3787 C   0  0  0  0  0  0  0  0  0  0  0  0
   30.5992  -22.5655  -10.9483 N   0  0  0  0  0  0  0  0  0  0  0  0
   31.5282  -21.6331  -11.2410 C   0  0  0  0  0  0  0  0  0  0  0  0
   30.9360  -20.5890  -11.8457 N   0  0  0  0  0  0  0  0  0  0  0  0
   26.9813  -21.0622  -10.9064 C   0  0  0  0  0  0  0  0  0  0  0  0
   27.8390  -21.8636  -10.4179 O   0  0  0  0  0  0  0  0  0  0  0  0
   26.2441  -19.2420   -5.9886 C   0  0  0  0  0  0  0  0  0  0  0  0
   26.8050  -19.3472   -7.3636 C   0  0  1  0  0  0  0  0  0  0  0  0
   28.2038  -18.7459   -7.3376 C   0  0  0  0  0  0  0  0  0  0  0  0
   26.8824  -20.7331   -7.8926 C   0  0  0  0  0  0  0  0  0  0  0  0
   25.7508  -21.1710   -8.7571 C   0  0  2  0  0  0  0  0  0  0  0  0
   25.9285  -20.6386  -10.0883 N   0  0  0  0  0  0  0  0  0  0  0  0
   24.4131  -20.9303   -8.2047 C   0  0  0  0  0  0  0  0  0  0  0  0
   23.6176  -20.1878   -8.8169 O   0  0  0  0  0  0  0  0  0  0  0  0
   23.9663  -21.4996   -6.9987 O   0  0  0  0  0  0  0  0  0  0  0  0
  2  1  1  0
  3  2  1  0
  3  5  1  0
  3  4  1  1
  5  6  1  6
  7  5  1  0
  7  8  2  0
  9  7  1  0
 10  9  1  0
 10 11  1  1
 12 11  1  0
 12 16  1  0
 13 14  1  0
 13 12  2  0
 14 15  1  0
 15 16  2  0
 17 10  1  0
 18 17  2  0
 20 22  1  0
 20 19  1  1
 21 20  1  0
 23 24  1  0
 23 22  1  1
 24 17  1  0
 25 23  1  0
 26 25  2  0
 27 25  1  0
M  END
$$$$
