IHL.pdb
     RDKit          3D

 27 27  0  0  1  0  0  0  0  0999 V2000
   28.9125  -18.1973  -17.4744 C   0  0  0  0  0  0  0  0  0  0  0  0
   27.4249  -18.3065  -17.3147 C   0  0  0  0  0  0  0  0  0  0  0  0
   27.0032  -18.1824  -15.8768 C   0  0  2  0  0  0  0  0  0  0  0  0
   27.4692  -16.8369  -15.3171 C   0  0  0  0  0  0  0  0  0  0  0  0
   27.3942  -19.3150  -14.9894 C   0  0  2  0  0  0  0  0  0  0  0  0
   26.8654  -20.5361  -15.6422 N   0  0  0  0  0  0  0  0  0  0  0  0
   26.7242  -19.2887  -13.6488 C   0  0  0  0  0  0  0  0  0  0  0  0
   26.9557  -18.3498  -12.8439 O   0  0  0  0  0  0  0  0  0  0  0  0
   25.8260  -20.2791  -13.2290 N   0  0  0  0  0  0  0  0  0  0  0  0
   25.0263  -20.4438  -12.0878 C   0  0  1  0  0  0  0  0  0  0  0  0
   23.7741  -21.2555  -12.1715 C   0  0  0  0  0  0  0  0  0  0  0  0
   22.7669  -20.7674  -13.1317 C   0  0  0  0  0  0  0  0  0  0  0  0
   22.6513  -19.4103  -13.4573 C   0  0  0  0  0  0  0  0  0  0  0  0
   21.6781  -19.2232  -14.3368 N   0  0  0  0  0  0  0  0  0  0  0  0
   21.1604  -20.4430  -14.5863 C   0  0  0  0  0  0  0  0  0  0  0  0
   21.8184  -21.3629  -13.8602 N   0  0  0  0  0  0  0  0  0  0  0  0
   25.7918  -20.7648  -10.9009 C   0  0  0  0  0  0  0  0  0  0  0  0
   26.5142  -21.8109  -10.9104 O   0  0  0  0  0  0  0  0  0  0  0  0
   29.1145  -20.5153   -6.6531 C   0  0  0  0  0  0  0  0  0  0  0  0
   27.8351  -19.7557   -6.6015 C   0  0  1  0  0  0  0  0  0  0  0  0
   28.1023  -18.4538   -5.8580 C   0  0  0  0  0  0  0  0  0  0  0  0
   27.2501  -19.4440   -7.9309 C   0  0  0  0  0  0  0  0  0  0  0  0
   26.3269  -20.4661   -8.4989 C   0  0  2  0  0  0  0  0  0  0  0  0
   25.7775  -19.9795   -9.7432 N   0  0  0  0  0  0  0  0  0  0  0  0
   25.3114  -20.9754   -7.5705 C   0  0  0  0  0  0  0  0  0  0  0  0
   24.1505  -20.5179   -7.6150 O   0  0  0  0  0  0  0  0  0  0  0  0
   25.5766  -21.9701   -6.6123 O   0  0  0  0  0  0  0  0  0  0  0  0
  2  1  1  0
  3  2  1  0
  3  5  1  0
  3  4  1  1
  5  6  1  6
  7  5  1  0
  7  8  2  0
  9  7  1  0
 10  9  1  0
 10 11  1  6
 12 11  1  0
 12 16  1  0
 13 14  1  0
 13 12  2  0
 14 15  1  0
 15 16  2  0
 17 10  1  0
 18 17  2  0
 20 22  1  0
 20 19  1  6
 21 20  1  0
 23 24  1  0
 23 22  1  1
 24 17  1  0
 25 23  1  0
 26 25  2  0
 27 25  1  0
M  END
$$$$
