IHL.pdb
     RDKit          3D

 27 27  0  0  1  0  0  0  0  0999 V2000
   28.9531  -12.9594  -16.0230 C   0  0  0  0  0  0  0  0  0  0  0  0
   27.6551  -13.5528  -15.5611 C   0  0  0  0  0  0  0  0  0  0  0  0
   26.4902  -12.6442  -15.8412 C   0  0  2  0  0  0  0  0  0  0  0  0
   26.6911  -11.3106  -15.1186 C   0  0  0  0  0  0  0  0  0  0  0  0
   25.1421  -13.2212  -15.5710 C   0  0  2  0  0  0  0  0  0  0  0  0
   25.1004  -14.5048  -16.3108 N   0  0  0  0  0  0  0  0  0  0  0  0
   24.0166  -12.4192  -16.1515 C   0  0  0  0  0  0  0  0  0  0  0  0
   23.8928  -12.3129  -17.3990 O   0  0  0  0  0  0  0  0  0  0  0  0
   23.0646  -11.7628  -15.3598 N   0  0  0  0  0  0  0  0  0  0  0  0
   21.9542  -10.9543  -15.6470 C   0  0  1  0  0  0  0  0  0  0  0  0
   20.5769  -11.4573  -15.3574 C   0  0  0  0  0  0  0  0  0  0  0  0
   19.4805  -10.5334  -15.7024 C   0  0  0  0  0  0  0  0  0  0  0  0
   18.5567  -10.0916  -14.7471 C   0  0  0  0  0  0  0  0  0  0  0  0
   17.6719   -9.2734  -15.2979 N   0  0  0  0  0  0  0  0  0  0  0  0
   18.0103   -9.1786  -16.5997 C   0  0  0  0  0  0  0  0  0  0  0  0
   19.0952   -9.9366  -16.8340 N   0  0  0  0  0  0  0  0  0  0  0  0
   22.1238   -9.5833  -15.2121 C   0  0  0  0  0  0  0  0  0  0  0  0
   22.4740   -9.3682  -14.0089 O   0  0  0  0  0  0  0  0  0  0  0  0
   23.8743   -4.5183  -15.4622 C   0  0  0  0  0  0  0  0  0  0  0  0
   22.7035   -4.8115  -16.3338 C   0  0  1  0  0  0  0  0  0  0  0  0
   22.8780   -4.0179  -17.6217 C   0  0  0  0  0  0  0  0  0  0  0  0
   22.5300   -6.2483  -16.6689 C   0  0  0  0  0  0  0  0  0  0  0  0
   22.0640   -7.1299  -15.5621 C   0  0  2  0  0  0  0  0  0  0  0  0
   21.9228   -8.4819  -16.0510 N   0  0  0  0  0  0  0  0  0  0  0  0
   20.8873   -6.6462  -14.8313 C   0  0  0  0  0  0  0  0  0  0  0  0
   19.7657   -6.6771  -15.3792 O   0  0  0  0  0  0  0  0  0  0  0  0
   20.9518   -6.1383  -13.5215 O   0  0  0  0  0  0  0  0  0  0  0  0
  2  1  1  0
  3  2  1  0
  3  5  1  0
  3  4  1  1
  5  6  1  6
  7  5  1  0
  7  8  2  0
  9  7  1  0
 10  9  1  0
 10 11  1  1
 12 11  1  0
 12 16  1  0
 13 14  1  0
 13 12  2  0
 14 15  1  0
 15 16  2  0
 17 10  1  0
 18 17  2  0
 20 22  1  0
 20 19  1  1
 21 20  1  0
 23 24  1  0
 23 22  1  6
 24 17  1  0
 25 23  1  0
 26 25  2  0
 27 25  1  0
M  END
$$$$
