IHL.pdb
     RDKit          3D

 27 27  0  0  1  0  0  0  0  0999 V2000
   24.5556  -14.1832  -19.8086 C   0  0  0  0  0  0  0  0  0  0  0  0
   25.5066  -15.0230  -19.0083 C   0  0  0  0  0  0  0  0  0  0  0  0
   24.8957  -16.3370  -18.6072 C   0  0  2  0  0  0  0  0  0  0  0  0
   23.5232  -16.0960  -17.9753 C   0  0  0  0  0  0  0  0  0  0  0  0
   25.7501  -17.2126  -17.7549 C   0  0  2  0  0  0  0  0  0  0  0  0
   26.9550  -17.5079  -18.5658 N   0  0  0  0  0  0  0  0  0  0  0  0
   25.1475  -18.5571  -17.4787 C   0  0  0  0  0  0  0  0  0  0  0  0
   24.7317  -19.2713  -18.4274 O   0  0  0  0  0  0  0  0  0  0  0  0
   25.0187  -19.0804  -16.1851 N   0  0  0  0  0  0  0  0  0  0  0  0
   24.4617  -20.2590  -15.6656 C   0  0  1  0  0  0  0  0  0  0  0  0
   25.3079  -21.1806  -14.8481 C   0  0  0  0  0  0  0  0  0  0  0  0
   26.4852  -21.7384  -15.5391 C   0  0  0  0  0  0  0  0  0  0  0  0
   26.6538  -21.6227  -16.9245 C   0  0  0  0  0  0  0  0  0  0  0  0
   27.7830  -22.2013  -17.3066 N   0  0  0  0  0  0  0  0  0  0  0  0
   28.3496  -22.6914  -16.1854 C   0  0  0  0  0  0  0  0  0  0  0  0
   27.5656  -22.4098  -15.1307 N   0  0  0  0  0  0  0  0  0  0  0  0
   23.1611  -20.0531  -15.0626 C   0  0  0  0  0  0  0  0  0  0  0  0
   23.0815  -19.3138  -14.0313 O   0  0  0  0  0  0  0  0  0  0  0  0
   18.7608  -19.1434  -18.0700 C   0  0  0  0  0  0  0  0  0  0  0  0
   19.8072  -19.1677  -17.0112 C   0  0  1  0  0  0  0  0  0  0  0  0
   19.7482  -17.8360  -16.2749 C   0  0  0  0  0  0  0  0  0  0  0  0
   19.6632  -20.2723  -16.0285 C   0  0  0  0  0  0  0  0  0  0  0  0
   20.7012  -20.3431  -14.9622 C   0  0  2  0  0  0  0  0  0  0  0  0
   21.9857  -20.6265  -15.5594 N   0  0  0  0  0  0  0  0  0  0  0  0
   20.3760  -21.2191  -13.8310 C   0  0  0  0  0  0  0  0  0  0  0  0
   20.8700  -22.3645  -13.7763 O   0  0  0  0  0  0  0  0  0  0  0  0
   19.5208  -20.8345  -12.7828 O   0  0  0  0  0  0  0  0  0  0  0  0
  2  1  1  0
  3  2  1  0
  3  5  1  0
  3  4  1  1
  5  6  1  6
  7  5  1  0
  7  8  2  0
  9  7  1  0
 10  9  1  0
 10 11  1  1
 12 11  1  0
 12 16  1  0
 13 14  1  0
 13 12  2  0
 14 15  1  0
 15 16  2  0
 17 10  1  0
 18 17  2  0
 20 22  1  0
 20 19  1  6
 21 20  1  0
 23 24  1  0
 23 22  1  6
 24 17  1  0
 25 23  1  0
 26 25  2  0
 27 25  1  0
M  END
$$$$
