DSL.pdb
     RDKit          3D

 23 22  0  0  1  0  0  0  0  0999 V2000
   19.9050  -13.1822  -17.6810 N   0  0  0  0  0  0  0  0  0  0  0  0
   19.7187  -11.7487  -17.9470 C   0  0  1  0  0  0  0  0  0  0  0  0
   18.3743  -11.4379  -17.2821 C   0  0  0  0  0  0  0  0  0  0  0  0
   17.2926  -12.1002  -18.0211 C   0  0  0  0  0  0  0  0  0  0  0  0
   16.2408  -12.3731  -17.3470 O   0  0  0  0  0  0  0  0  0  0  0  0
   20.7802  -10.9866  -17.2567 C   0  0  0  0  0  0  0  0  0  0  0  0
   20.4936  -10.4479  -16.1638 O   0  0  0  0  0  0  0  0  0  0  0  0
   17.3287  -12.4415  -19.3597 O   0  0  0  0  0  0  0  0  0  0  0  0
   25.4165   -9.6400  -17.0230 O   0  0  0  0  0  0  0  0  0  0  0  0
   24.4359  -10.3046  -17.7486 C   0  0  0  0  0  0  0  0  0  0  0  0
   23.0464  -10.0747  -17.0953 C   0  0  2  0  0  0  0  0  0  0  0  0
   22.0876  -10.8696  -17.8090 N   0  0  0  0  0  0  0  0  0  0  0  0
   22.7994   -8.6280  -17.1141 C   0  0  0  0  0  0  0  0  0  0  0  0
   22.3872   -8.1059  -18.1925 O   0  0  0  0  0  0  0  0  0  0  0  0
   21.9340   -3.8811  -13.2245 C   0  0  0  0  0  0  0  0  0  0  0  0
   21.9786   -4.4346  -14.6400 C   0  0  2  0  0  0  0  0  0  0  0  0
   20.5661   -4.2092  -15.1948 C   0  0  0  0  0  0  0  0  0  0  0  0
   22.3373   -5.8988  -14.6424 C   0  0  0  0  0  0  0  0  0  0  0  0
   22.8563   -6.4001  -15.9406 C   0  0  2  0  0  0  0  0  0  0  0  0
   23.0097   -7.8405  -15.9689 N   0  0  0  0  0  0  0  0  0  0  0  0
   24.0756   -5.7127  -16.4403 C   0  0  0  0  0  0  0  0  0  0  0  0
   24.0774   -4.6707  -17.3489 O   0  0  0  0  0  0  0  0  0  0  0  0
   25.2397   -6.0661  -16.0393 O   0  0  0  0  0  0  0  0  0  0  0  0
  2  1  1  1
  2  3  1  0
  3  4  1  0
  4  5  2  0
  6 12  1  0
  6  2  1  0
  7  6  2  0
  8  4  1  0
  9 10  1  0
 11 10  1  6
 11 12  1  0
 11 13  1  0
 13 20  1  0
 14 13  2  0
 16 18  1  0
 16 15  1  1
 17 16  1  0
 19 18  1  1
 19 21  1  0
 20 19  1  0
 21 22  1  0
 23 21  2  0
M  END
$$$$
