DSL.pdb
     RDKit          3D

 23 22  0  0  1  0  0  0  0  0999 V2000
   16.4062  -13.5275  -17.6152 N   0  0  0  0  0  0  0  0  0  0  0  0
   16.3073  -12.2204  -16.9504 C   0  0  1  0  0  0  0  0  0  0  0  0
   16.1752  -12.5866  -15.4690 C   0  0  0  0  0  0  0  0  0  0  0  0
   14.8494  -13.1654  -15.2193 C   0  0  0  0  0  0  0  0  0  0  0  0
   14.8381  -14.3166  -14.6630 O   0  0  0  0  0  0  0  0  0  0  0  0
   17.5710  -11.4802  -17.1484 C   0  0  0  0  0  0  0  0  0  0  0  0
   18.6297  -12.1441  -17.2212 O   0  0  0  0  0  0  0  0  0  0  0  0
   13.6429  -12.5700  -15.5346 O   0  0  0  0  0  0  0  0  0  0  0  0
   17.8894   -7.3113  -16.9007 O   0  0  0  0  0  0  0  0  0  0  0  0
   18.5571   -7.9531  -17.9360 C   0  0  0  0  0  0  0  0  0  0  0  0
   18.8453   -9.4281  -17.5465 C   0  0  2  0  0  0  0  0  0  0  0  0
   17.5893  -10.0604  -17.2576 N   0  0  0  0  0  0  0  0  0  0  0  0
   19.8020   -9.3971  -16.4338 C   0  0  0  0  0  0  0  0  0  0  0  0
   19.3471   -9.4527  -15.2525 O   0  0  0  0  0  0  0  0  0  0  0  0
   25.9399   -9.9038  -15.4724 C   0  0  0  0  0  0  0  0  0  0  0  0
   24.5460   -9.6512  -14.9199 C   0  0  2  0  0  0  0  0  0  0  0  0
   24.3260  -10.7623  -13.8851 C   0  0  0  0  0  0  0  0  0  0  0  0
   23.5074   -9.7099  -16.0111 C   0  0  0  0  0  0  0  0  0  0  0  0
   22.1752   -9.1842  -15.6175 C   0  0  2  0  0  0  0  0  0  0  0  0
   21.1854   -9.3117  -16.6678 N   0  0  0  0  0  0  0  0  0  0  0  0
   22.1830   -7.8149  -15.0398 C   0  0  0  0  0  0  0  0  0  0  0  0
   22.1959   -7.5295  -13.6871 O   0  0  0  0  0  0  0  0  0  0  0  0
   22.1758   -6.7822  -15.7977 O   0  0  0  0  0  0  0  0  0  0  0  0
  2  1  1  6
  2  3  1  0
  3  4  1  0
  4  5  2  0
  6 12  1  0
  6  2  1  0
  7  6  2  0
  8  4  1  0
  9 10  1  0
 11 10  1  1
 11 12  1  0
 11 13  1  0
 13 20  1  0
 14 13  2  0
 16 18  1  0
 16 15  1  6
 17 16  1  0
 19 18  1  6
 19 21  1  0
 20 19  1  0
 21 22  1  0
 23 21  2  0
M  END
$$$$
