DSL.pdb
     RDKit          3D

 23 22  0  0  1  0  0  0  0  0999 V2000
   19.5448  -15.5382  -17.8506 N   0  0  0  0  0  0  0  0  0  0  0  0
   19.0522  -14.4588  -16.9831 C   0  0  1  0  0  0  0  0  0  0  0  0
   19.2803  -15.0082  -15.5716 C   0  0  0  0  0  0  0  0  0  0  0  0
   18.1894  -15.9236  -15.2153 C   0  0  0  0  0  0  0  0  0  0  0  0
   17.1112  -15.7977  -15.8909 O   0  0  0  0  0  0  0  0  0  0  0  0
   19.8985  -13.2620  -17.1720 C   0  0  0  0  0  0  0  0  0  0  0  0
   21.1201  -13.4394  -17.3798 O   0  0  0  0  0  0  0  0  0  0  0  0
   18.2431  -16.8875  -14.2266 O   0  0  0  0  0  0  0  0  0  0  0  0
   18.3238   -9.3839  -17.1494 O   0  0  0  0  0  0  0  0  0  0  0  0
   19.3673   -9.7014  -18.0096 C   0  0  0  0  0  0  0  0  0  0  0  0
   20.2230  -10.8467  -17.4042 C   0  0  2  0  0  0  0  0  0  0  0  0
   19.3478  -11.9496  -17.1249 N   0  0  0  0  0  0  0  0  0  0  0  0
   20.9203  -10.2891  -16.2391 C   0  0  0  0  0  0  0  0  0  0  0  0
   20.3434  -10.3480  -15.1125 O   0  0  0  0  0  0  0  0  0  0  0  0
   25.1651  -11.0402  -14.6482 C   0  0  0  0  0  0  0  0  0  0  0  0
   25.0779  -10.1349  -15.8667 C   0  0  2  0  0  0  0  0  0  0  0  0
   26.5360   -9.8485  -16.2487 C   0  0  0  0  0  0  0  0  0  0  0  0
   24.3381   -8.8607  -15.5482 C   0  0  0  0  0  0  0  0  0  0  0  0
   22.8888   -9.0445  -15.2803 C   0  0  2  0  0  0  0  0  0  0  0  0
   22.1941   -9.7081  -16.3647 N   0  0  0  0  0  0  0  0  0  0  0  0
   22.1686   -7.8213  -14.8399 C   0  0  0  0  0  0  0  0  0  0  0  0
   22.0708   -7.3923  -13.5293 O   0  0  0  0  0  0  0  0  0  0  0  0
   21.5731   -7.0685  -15.6881 O   0  0  0  0  0  0  0  0  0  0  0  0
  2  1  1  6
  2  3  1  0
  3  4  1  0
  4  5  2  0
  6 12  1  0
  6  2  1  0
  7  6  2  0
  8  4  1  0
  9 10  1  0
 11 10  1  1
 11 12  1  0
 11 13  1  0
 13 20  1  0
 14 13  2  0
 16 18  1  0
 16 15  1  1
 17 16  1  0
 19 18  1  6
 19 21  1  0
 20 19  1  0
 21 22  1  0
 23 21  2  0
M  END
$$$$
