DSL.pdb
     RDKit          3D

 23 22  0  0  1  0  0  0  0  0999 V2000
   16.8040  -13.0679  -17.1379 N   0  0  0  0  0  0  0  0  0  0  0  0
   16.8376  -12.2782  -15.8987 C   0  0  1  0  0  0  0  0  0  0  0  0
   17.5628  -13.1990  -14.9127 C   0  0  0  0  0  0  0  0  0  0  0  0
   16.6783  -14.3057  -14.5278 C   0  0  0  0  0  0  0  0  0  0  0  0
   15.4980  -13.9765  -14.1627 O   0  0  0  0  0  0  0  0  0  0  0  0
   17.6604  -11.0701  -16.1172 C   0  0  0  0  0  0  0  0  0  0  0  0
   18.6850  -11.1837  -16.8272 O   0  0  0  0  0  0  0  0  0  0  0  0
   17.0216  -15.6442  -14.5318 O   0  0  0  0  0  0  0  0  0  0  0  0
   16.5342   -7.3612  -14.6085 O   0  0  0  0  0  0  0  0  0  0  0  0
   17.1913   -7.4193  -15.8309 C   0  0  0  0  0  0  0  0  0  0  0  0
   18.1042   -8.6740  -15.8825 C   0  0  2  0  0  0  0  0  0  0  0  0
   17.3022   -9.8159  -15.5456 N   0  0  0  0  0  0  0  0  0  0  0  0
   19.2362   -8.4161  -14.9845 C   0  0  0  0  0  0  0  0  0  0  0  0
   19.0961   -8.6837  -13.7540 O   0  0  0  0  0  0  0  0  0  0  0  0
   22.9940  -10.1888  -13.8062 C   0  0  0  0  0  0  0  0  0  0  0  0
   22.9382   -9.5957  -15.2052 C   0  0  2  0  0  0  0  0  0  0  0  0
   24.2329  -10.0638  -15.8824 C   0  0  0  0  0  0  0  0  0  0  0  0
   22.8620   -8.0909  -15.1574 C   0  0  0  0  0  0  0  0  0  0  0  0
   21.5783   -7.5590  -14.6329 C   0  0  2  0  0  0  0  0  0  0  0  0
   20.4449   -7.8902  -15.4725 N   0  0  0  0  0  0  0  0  0  0  0  0
   21.5909   -6.1154  -14.2796 C   0  0  0  0  0  0  0  0  0  0  0  0
   22.2889   -5.5690  -13.2187 O   0  0  0  0  0  0  0  0  0  0  0  0
   20.9252   -5.2649  -14.9683 O   0  0  0  0  0  0  0  0  0  0  0  0
  2  1  1  6
  2  3  1  0
  3  4  1  0
  4  5  2  0
  6 12  1  0
  6  2  1  0
  7  6  2  0
  8  4  1  0
  9 10  1  0
 11 10  1  1
 11 12  1  0
 11 13  1  0
 13 20  1  0
 14 13  2  0
 16 18  1  0
 16 15  1  1
 17 16  1  0
 19 18  1  6
 19 21  1  0
 20 19  1  0
 21 22  1  0
 23 21  2  0
M  END
$$$$
