DSL.pdb
     RDKit          3D

 23 22  0  0  1  0  0  0  0  0999 V2000
   15.6918  -12.2667  -14.7085 N   0  0  0  0  0  0  0  0  0  0  0  0
   17.0491  -11.9197  -15.1530 C   0  0  1  0  0  0  0  0  0  0  0  0
   17.0438  -12.3026  -16.6360 C   0  0  0  0  0  0  0  0  0  0  0  0
   17.0168  -13.7643  -16.7689 C   0  0  0  0  0  0  0  0  0  0  0  0
   18.1087  -14.3706  -16.4946 O   0  0  0  0  0  0  0  0  0  0  0  0
   17.2370  -10.4583  -15.0379 C   0  0  0  0  0  0  0  0  0  0  0  0
   16.2303   -9.7285  -15.1824 O   0  0  0  0  0  0  0  0  0  0  0  0
   15.9232  -14.5132  -17.1598 O   0  0  0  0  0  0  0  0  0  0  0  0
   18.1106   -8.6170  -12.2994 O   0  0  0  0  0  0  0  0  0  0  0  0
   17.6894   -8.0229  -13.4823 C   0  0  0  0  0  0  0  0  0  0  0  0
   18.6070   -8.4662  -14.6536 C   0  0  2  0  0  0  0  0  0  0  0  0
   18.5163   -9.8943  -14.7676 N   0  0  0  0  0  0  0  0  0  0  0  0
   19.9486   -7.9443  -14.3666 C   0  0  0  0  0  0  0  0  0  0  0  0
   20.7188   -8.6416  -13.6414 O   0  0  0  0  0  0  0  0  0  0  0  0
   23.3009   -8.0255  -16.4999 C   0  0  0  0  0  0  0  0  0  0  0  0
   22.4256   -6.8736  -16.9679 C   0  0  2  0  0  0  0  0  0  0  0  0
   23.0809   -6.3843  -18.2660 C   0  0  0  0  0  0  0  0  0  0  0  0
   22.3723   -5.7748  -15.9371 C   0  0  0  0  0  0  0  0  0  0  0  0
   21.6948   -6.1550  -14.6712 C   0  0  2  0  0  0  0  0  0  0  0  0
   20.3722   -6.7073  -14.8826 N   0  0  0  0  0  0  0  0  0  0  0  0
   21.6843   -5.1034  -13.6209 C   0  0  0  0  0  0  0  0  0  0  0  0
   22.8081   -4.6212  -12.9762 O   0  0  0  0  0  0  0  0  0  0  0  0
   20.5854   -4.5666  -13.2400 O   0  0  0  0  0  0  0  0  0  0  0  0
  2  1  1  6
  2  3  1  0
  3  4  1  0
  4  5  2  0
  6 12  1  0
  6  2  1  0
  7  6  2  0
  8  4  1  0
  9 10  1  0
 11 10  1  1
 11 12  1  0
 11 13  1  0
 13 20  1  0
 14 13  2  0
 16 18  1  0
 16 15  1  1
 17 16  1  0
 19 18  1  6
 19 21  1  0
 20 19  1  0
 21 22  1  0
 23 21  2  0
M  END
$$$$
