DSL.pdb
     RDKit          3D

 23 22  0  0  1  0  0  0  0  0999 V2000
   16.2978  -12.6948  -12.6612 N   0  0  0  0  0  0  0  0  0  0  0  0
   16.0567  -11.3101  -13.0909 C   0  0  1  0  0  0  0  0  0  0  0  0
   14.5458  -11.2755  -13.3397 C   0  0  0  0  0  0  0  0  0  0  0  0
   14.2320  -11.9993  -14.5777 C   0  0  0  0  0  0  0  0  0  0  0  0
   13.0371  -12.4434  -14.6778 O   0  0  0  0  0  0  0  0  0  0  0  0
   16.3781  -10.3947  -11.9761 C   0  0  0  0  0  0  0  0  0  0  0  0
   15.9622  -10.6980  -10.8351 O   0  0  0  0  0  0  0  0  0  0  0  0
   15.1136  -12.2296  -15.6166 O   0  0  0  0  0  0  0  0  0  0  0  0
   18.1222   -6.6307  -12.5552 O   0  0  0  0  0  0  0  0  0  0  0  0
   18.5109   -7.3651  -11.4420 C   0  0  0  0  0  0  0  0  0  0  0  0
   17.3913   -8.3671  -11.0511 C   0  0  2  0  0  0  0  0  0  0  0  0
   17.1383   -9.2090  -12.1860 N   0  0  0  0  0  0  0  0  0  0  0  0
   16.2462   -7.5712  -10.5934 C   0  0  0  0  0  0  0  0  0  0  0  0
   15.2699   -7.4174  -11.3863 O   0  0  0  0  0  0  0  0  0  0  0  0
   13.5818   -5.6169   -5.3862 C   0  0  0  0  0  0  0  0  0  0  0  0
   13.6683   -5.5413   -6.9024 C   0  0  2  0  0  0  0  0  0  0  0  0
   12.2966   -6.0172   -7.3985 C   0  0  0  0  0  0  0  0  0  0  0  0
   14.7733   -6.4203   -7.4306 C   0  0  0  0  0  0  0  0  0  0  0  0
   15.1723   -6.1275   -8.8310 C   0  0  2  0  0  0  0  0  0  0  0  0
   16.2275   -6.9967   -9.3107 N   0  0  0  0  0  0  0  0  0  0  0  0
   15.4709   -4.6998   -9.1164 C   0  0  0  0  0  0  0  0  0  0  0  0
   14.5341   -3.7606   -9.5059 O   0  0  0  0  0  0  0  0  0  0  0  0
   16.6640   -4.2451   -9.0141 O   0  0  0  0  0  0  0  0  0  0  0  0
  2  1  1  1
  2  3  1  0
  3  4  1  0
  4  5  2  0
  6 12  1  0
  6  2  1  0
  7  6  2  0
  8  4  1  0
  9 10  1  0
 11 10  1  6
 11 12  1  0
 11 13  1  0
 13 20  1  0
 14 13  2  0
 16 18  1  0
 16 15  1  1
 17 16  1  0
 19 18  1  1
 19 21  1  0
 20 19  1  0
 21 22  1  0
 23 21  2  0
M  END
$$$$
