DSL.pdb
     RDKit          3D

 23 22  0  0  1  0  0  0  0  0999 V2000
   15.0897  -11.2575  -16.7803 N   0  0  0  0  0  0  0  0  0  0  0  0
   15.2464   -9.9723  -16.0846 C   0  0  1  0  0  0  0  0  0  0  0  0
   15.1062  -10.3510  -14.6071 C   0  0  0  0  0  0  0  0  0  0  0  0
   13.7033  -10.6630  -14.3078 C   0  0  0  0  0  0  0  0  0  0  0  0
   12.8425   -9.8075  -14.7102 O   0  0  0  0  0  0  0  0  0  0  0  0
   16.6125   -9.4591  -16.3183 C   0  0  0  0  0  0  0  0  0  0  0  0
   17.5311  -10.2959  -16.4695 O   0  0  0  0  0  0  0  0  0  0  0  0
   13.2576  -11.7870  -13.6389 O   0  0  0  0  0  0  0  0  0  0  0  0
   17.3289   -5.4430  -17.1114 O   0  0  0  0  0  0  0  0  0  0  0  0
   18.1105   -6.4415  -17.6785 C   0  0  0  0  0  0  0  0  0  0  0  0
   18.2138   -7.6488  -16.7078 C   0  0  2  0  0  0  0  0  0  0  0  0
   16.8798   -8.0615  -16.3751 N   0  0  0  0  0  0  0  0  0  0  0  0
   19.0373   -7.2152  -15.5728 C   0  0  0  0  0  0  0  0  0  0  0  0
   18.4528   -6.7083  -14.5693 O   0  0  0  0  0  0  0  0  0  0  0  0
   21.7999   -9.5797  -12.8805 C   0  0  0  0  0  0  0  0  0  0  0  0
   22.3458   -9.2685  -14.2652 C   0  0  2  0  0  0  0  0  0  0  0  0
   23.6757  -10.0295  -14.3435 C   0  0  0  0  0  0  0  0  0  0  0  0
   22.5546   -7.7869  -14.4493 C   0  0  0  0  0  0  0  0  0  0  0  0
   21.3006   -6.9921  -14.4905 C   0  0  2  0  0  0  0  0  0  0  0  0
   20.4353   -7.3596  -15.5929 N   0  0  0  0  0  0  0  0  0  0  0  0
   21.4841   -5.5195  -14.4097 C   0  0  0  0  0  0  0  0  0  0  0  0
   21.9682   -4.8442  -13.3047 O   0  0  0  0  0  0  0  0  0  0  0  0
   21.1888   -4.7654  -15.4022 O   0  0  0  0  0  0  0  0  0  0  0  0
  2  1  1  6
  2  3  1  0
  3  4  1  0
  4  5  2  0
  6 12  1  0
  6  2  1  0
  7  6  2  0
  8  4  1  0
  9 10  1  0
 11 10  1  6
 11 12  1  0
 11 13  1  0
 13 20  1  0
 14 13  2  0
 16 18  1  0
 16 15  1  1
 17 16  1  0
 19 18  1  6
 19 21  1  0
 20 19  1  0
 21 22  1  0
 23 21  2  0
M  END
$$$$
