DSL.pdb
     RDKit          3D

 23 22  0  0  1  0  0  0  0  0999 V2000
   18.8350  -15.3937  -17.0507 N   0  0  0  0  0  0  0  0  0  0  0  0
   18.1857  -14.0922  -16.8389 C   0  0  1  0  0  0  0  0  0  0  0  0
   17.7614  -14.1444  -15.3681 C   0  0  0  0  0  0  0  0  0  0  0  0
   16.7444  -15.1869  -15.1838 C   0  0  0  0  0  0  0  0  0  0  0  0
   15.7557  -15.1525  -15.9939 O   0  0  0  0  0  0  0  0  0  0  0  0
   19.1871  -13.0186  -17.0090 C   0  0  0  0  0  0  0  0  0  0  0  0
   20.3936  -13.3491  -17.0527 O   0  0  0  0  0  0  0  0  0  0  0  0
   16.7782  -16.1779  -14.2213 O   0  0  0  0  0  0  0  0  0  0  0  0
   18.0911   -9.0165  -17.5732 O   0  0  0  0  0  0  0  0  0  0  0  0
   19.1726   -9.5539  -18.2597 C   0  0  0  0  0  0  0  0  0  0  0  0
   19.8197  -10.6901  -17.4226 C   0  0  2  0  0  0  0  0  0  0  0  0
   18.7982  -11.6535  -17.1244 N   0  0  0  0  0  0  0  0  0  0  0  0
   20.4449  -10.0576  -16.2549 C   0  0  0  0  0  0  0  0  0  0  0  0
   19.8057  -10.0581  -15.1609 O   0  0  0  0  0  0  0  0  0  0  0  0
   24.2400  -10.8230  -13.9524 C   0  0  0  0  0  0  0  0  0  0  0  0
   24.4587  -10.1632  -15.3047 C   0  0  2  0  0  0  0  0  0  0  0  0
   25.9828  -10.0958  -15.4673 C   0  0  0  0  0  0  0  0  0  0  0  0
   23.8453   -8.7868  -15.3462 C   0  0  0  0  0  0  0  0  0  0  0  0
   22.3633   -8.7734  -15.2478 C   0  0  2  0  0  0  0  0  0  0  0  0
   21.7187   -9.4697  -16.3426 N   0  0  0  0  0  0  0  0  0  0  0  0
   21.7582   -7.4349  -15.0221 C   0  0  0  0  0  0  0  0  0  0  0  0
   21.8028   -6.7403  -13.8276 O   0  0  0  0  0  0  0  0  0  0  0  0
   21.1346   -6.8289  -15.9628 O   0  0  0  0  0  0  0  0  0  0  0  0
  2  1  1  1
  2  3  1  0
  3  4  1  0
  4  5  2  0
  6 12  1  0
  6  2  1  0
  7  6  2  0
  8  4  1  0
  9 10  1  0
 11 10  1  6
 11 12  1  0
 11 13  1  0
 13 20  1  0
 14 13  2  0
 16 18  1  0
 16 15  1  1
 17 16  1  0
 19 18  1  6
 19 21  1  0
 20 19  1  0
 21 22  1  0
 23 21  2  0
M  END
$$$$
