DSL.pdb
     RDKit          3D

 23 22  0  0  1  0  0  0  0  0999 V2000
   20.5430   -6.4800  -15.0930 N   0  0  0  0  0  0  0  0  0  0  0  0
   20.2975   -6.6692  -13.6563 C   0  0  1  0  0  0  0  0  0  0  0  0
   20.3289   -5.2418  -13.1016 C   0  0  0  0  0  0  0  0  0  0  0  0
   21.7166   -4.7672  -13.0367 C   0  0  0  0  0  0  0  0  0  0  0  0
   22.5766   -5.6118  -12.6100 O   0  0  0  0  0  0  0  0  0  0  0  0
   18.9415   -7.2253  -13.4664 C   0  0  0  0  0  0  0  0  0  0  0  0
   18.0234   -6.7830  -14.1934 O   0  0  0  0  0  0  0  0  0  0  0  0
   22.1491   -3.5046  -13.3946 O   0  0  0  0  0  0  0  0  0  0  0  0
   16.1352  -10.8083  -12.8124 O   0  0  0  0  0  0  0  0  0  0  0  0
   17.4104  -10.2582  -12.8382 C   0  0  0  0  0  0  0  0  0  0  0  0
   17.3514   -8.7644  -12.4192 C   0  0  2  0  0  0  0  0  0  0  0  0
   18.6830   -8.2333  -12.4942 N   0  0  0  0  0  0  0  0  0  0  0  0
   16.7320   -8.7178  -11.0894 C   0  0  0  0  0  0  0  0  0  0  0  0
   17.4910   -8.6211  -10.0794 O   0  0  0  0  0  0  0  0  0  0  0  0
   12.8277   -6.5440   -8.0076 C   0  0  0  0  0  0  0  0  0  0  0  0
   14.2645   -6.9761   -7.7609 C   0  0  2  0  0  0  0  0  0  0  0  0
   14.9046   -5.8016   -7.0095 C   0  0  0  0  0  0  0  0  0  0  0  0
   14.9828   -7.2489   -9.0580 C   0  0  0  0  0  0  0  0  0  0  0  0
   14.6525   -8.5578   -9.6774 C   0  0  2  0  0  0  0  0  0  0  0  0
   15.3359   -8.7751  -10.9363 N   0  0  0  0  0  0  0  0  0  0  0  0
   13.2004   -8.8551   -9.7876 C   0  0  0  0  0  0  0  0  0  0  0  0
   12.4530   -9.5058   -8.8236 O   0  0  0  0  0  0  0  0  0  0  0  0
   12.5367   -8.5107  -10.8277 O   0  0  0  0  0  0  0  0  0  0  0  0
  2  1  1  6
  2  3  1  0
  3  4  1  0
  4  5  2  0
  6 12  1  0
  6  2  1  0
  7  6  2  0
  8  4  1  0
  9 10  1  0
 11 10  1  1
 11 12  1  0
 11 13  1  0
 13 20  1  0
 14 13  2  0
 16 18  1  0
 16 15  1  6
 17 16  1  0
 19 18  1  6
 19 21  1  0
 20 19  1  0
 21 22  1  0
 23 21  2  0
M  END
$$$$
