DSL.pdb
     RDKit          3D

 23 22  0  0  1  0  0  0  0  0999 V2000
   19.2883  -14.6846  -17.6125 N   0  0  0  0  0  0  0  0  0  0  0  0
   18.7025  -13.3394  -17.5261 C   0  0  1  0  0  0  0  0  0  0  0  0
   18.1271  -13.2953  -16.1072 C   0  0  0  0  0  0  0  0  0  0  0  0
   17.0058  -14.2365  -15.9991 C   0  0  0  0  0  0  0  0  0  0  0  0
   16.1269  -14.1673  -16.9251 O   0  0  0  0  0  0  0  0  0  0  0  0
   19.7805  -12.3344  -17.6355 C   0  0  0  0  0  0  0  0  0  0  0  0
   20.9378  -12.6838  -17.3108 O   0  0  0  0  0  0  0  0  0  0  0  0
   16.8364  -15.1687  -14.9931 O   0  0  0  0  0  0  0  0  0  0  0  0
   19.0515   -8.3425  -18.6276 O   0  0  0  0  0  0  0  0  0  0  0  0
   20.1907   -8.9436  -19.1478 C   0  0  0  0  0  0  0  0  0  0  0  0
   20.6330  -10.1192  -18.2354 C   0  0  2  0  0  0  0  0  0  0  0  0
   19.5183  -11.0133  -18.0982 N   0  0  0  0  0  0  0  0  0  0  0  0
   21.1204   -9.5284  -16.9833 C   0  0  0  0  0  0  0  0  0  0  0  0
   20.3221   -9.4658  -16.0013 O   0  0  0  0  0  0  0  0  0  0  0  0
   24.5487  -10.5890  -14.2371 C   0  0  0  0  0  0  0  0  0  0  0  0
   24.9734   -9.8953  -15.5218 C   0  0  2  0  0  0  0  0  0  0  0  0
   26.5072   -9.9049  -15.4851 C   0  0  0  0  0  0  0  0  0  0  0  0
   24.4390   -8.4870  -15.5840 C   0  0  0  0  0  0  0  0  0  0  0  0
   22.9600   -8.3972  -15.6873 C   0  0  2  0  0  0  0  0  0  0  0  0
   22.4364   -9.0473  -16.8714 N   0  0  0  0  0  0  0  0  0  0  0  0
   22.3980   -7.0312  -15.5223 C   0  0  0  0  0  0  0  0  0  0  0  0
   22.3161   -6.3516  -14.3212 O   0  0  0  0  0  0  0  0  0  0  0  0
   21.9382   -6.3844  -16.5279 O   0  0  0  0  0  0  0  0  0  0  0  0
  2  1  1  1
  2  3  1  0
  3  4  1  0
  4  5  2  0
  6 12  1  0
  6  2  1  0
  7  6  2  0
  8  4  1  0
  9 10  1  0
 11 10  1  6
 11 12  1  0
 11 13  1  0
 13 20  1  0
 14 13  2  0
 16 18  1  0
 16 15  1  1
 17 16  1  0
 19 18  1  6
 19 21  1  0
 20 19  1  0
 21 22  1  0
 23 21  2  0
M  END
$$$$
