YLD.pdb
     RDKit          3D

 29 29  0  0  1  0  0  0  0  0999 V2000
   17.5217  -13.3449  -22.9875 O   0  0  0  0  0  0  0  0  0  0  0  0
   17.8914  -12.5528  -21.9223 C   0  0  0  0  0  0  0  0  0  0  0  0
   16.9736  -12.1393  -20.9811 C   0  0  0  0  0  0  0  0  0  0  0  0
   17.3287  -11.3498  -19.9147 C   0  0  0  0  0  0  0  0  0  0  0  0
   18.6588  -10.9543  -19.7797 C   0  0  0  0  0  0  0  0  0  0  0  0
   19.0561  -10.1003  -18.6308 C   0  0  0  0  0  0  0  0  0  0  0  0
   19.9129  -10.9040  -17.6932 C   0  0  2  0  0  0  0  0  0  0  0  0
   19.1104  -11.9557  -17.1231 N   0  0  0  0  0  0  0  0  0  0  0  0
   20.5686  -10.0728  -16.6569 C   0  0  0  0  0  0  0  0  0  0  0  0
   19.9077   -9.8215  -15.6178 O   0  0  0  0  0  0  0  0  0  0  0  0
   19.6087  -11.3532  -20.7098 C   0  0  0  0  0  0  0  0  0  0  0  0
   19.2054  -12.1467  -21.7656 C   0  0  0  0  0  0  0  0  0  0  0  0
   25.9728  -10.5744  -15.4653 C   0  0  0  0  0  0  0  0  0  0  0  0
   24.4834  -10.3402  -15.3112 C   0  0  1  0  0  0  0  0  0  0  0  0
   24.0226  -10.8076  -13.9775 C   0  0  0  0  0  0  0  0  0  0  0  0
   24.0565   -8.9881  -15.7457 C   0  0  0  0  0  0  0  0  0  0  0  0
   22.5588   -8.7661  -15.7938 C   0  0  2  0  0  0  0  0  0  0  0  0
   21.8732   -9.5551  -16.7680 N   0  0  0  0  0  0  0  0  0  0  0  0
   22.3274   -7.3124  -15.9412 C   0  0  0  0  0  0  0  0  0  0  0  0
   22.7233   -6.6755  -16.9779 O   0  0  0  0  0  0  0  0  0  0  0  0
   21.6621   -6.5172  -14.9691 N   0  0  0  0  0  0  0  0  0  0  0  0
   21.4520   -5.1015  -15.0921 C   0  0  1  0  0  0  0  0  0  0  0  0
   20.0674   -4.6662  -14.6717 C   0  0  0  0  0  0  0  0  0  0  0  0
   19.0182   -5.1365  -15.5868 C   0  0  0  0  0  0  0  0  0  0  0  0
   19.1492   -5.2398  -16.8252 O   0  0  0  0  0  0  0  0  0  0  0  0
   22.5115   -4.3932  -14.3447 C   0  0  0  0  0  0  0  0  0  0  0  0
   23.4728   -5.0229  -13.5767 O   0  0  0  0  0  0  0  0  0  0  0  0
   17.7896   -5.4946  -15.0510 O   0  0  0  0  0  0  0  0  0  0  0  0
   22.5496   -3.1426  -14.4044 O   0  0  0  0  0  0  0  0  0  0  0  0
  2  3  2  0
  2  1  1  0
  4  3  1  0
  5  4  2  0
  6  5  1  0
  7  6  1  0
  7  8  1  1
  9  7  1  0
  9 10  2  0
 11  5  1  0
 11 12  2  0
 12  2  1  0
 14 13  1  1
 14 15  1  0
 16 14  1  0
 17 18  1  0
 17 16  1  6
 18  9  1  0
 19 17  1  0
 20 19  2  0
 21 19  1  0
 22 23  1  1
 22 21  1  0
 23 24  1  0
 24 25  2  0
 24 28  1  0
 26 27  1  0
 26 22  1  0
 29 26  2  0
M  END
$$$$
