YLD.pdb
     RDKit          3D

 29 29  0  0  1  0  0  0  0  0999 V2000
   25.1398  -31.4976   -8.7107 O   0  0  0  0  0  0  0  0  0  0  0  0
   25.9062  -32.4449   -8.0674 C   0  0  0  0  0  0  0  0  0  0  0  0
   26.0494  -32.4441   -6.6967 C   0  0  0  0  0  0  0  0  0  0  0  0
   26.8102  -33.3823   -6.0429 C   0  0  0  0  0  0  0  0  0  0  0  0
   27.4580  -34.3663   -6.7886 C   0  0  0  0  0  0  0  0  0  0  0  0
   28.2842  -35.3870   -6.0937 C   0  0  0  0  0  0  0  0  0  0  0  0
   29.7077  -35.2694   -6.5613 C   0  0  2  0  0  0  0  0  0  0  0  0
   29.8052  -35.8281   -7.8855 N   0  0  0  0  0  0  0  0  0  0  0  0
   30.6751  -35.8810   -5.6206 C   0  0  0  0  0  0  0  0  0  0  0  0
   30.5230  -37.0989   -5.3499 O   0  0  0  0  0  0  0  0  0  0  0  0
   27.3349  -34.3959   -8.1708 C   0  0  0  0  0  0  0  0  0  0  0  0
   26.5594  -33.4322   -8.7848 C   0  0  0  0  0  0  0  0  0  0  0  0
   35.2161  -36.8581   -3.0805 C   0  0  0  0  0  0  0  0  0  0  0  0
   34.7939  -35.4372   -2.7649 C   0  0  1  0  0  0  0  0  0  0  0  0
   35.9779  -34.6154   -2.4013 C   0  0  0  0  0  0  0  0  0  0  0  0
   33.8510  -34.8730   -3.7609 C   0  0  0  0  0  0  0  0  0  0  0  0
   32.5678  -35.6546   -3.9533 C   0  0  2  0  0  0  0  0  0  0  0  0
   31.7417  -35.1849   -5.0203 N   0  0  0  0  0  0  0  0  0  0  0  0
   31.8750  -35.7042   -2.6472 C   0  0  0  0  0  0  0  0  0  0  0  0
   31.3419  -34.6602   -2.1346 O   0  0  0  0  0  0  0  0  0  0  0  0
   31.7446  -36.8857   -1.8681 N   0  0  0  0  0  0  0  0  0  0  0  0
   31.1453  -36.9291   -0.5634 C   0  0  1  0  0  0  0  0  0  0  0  0
   30.3863  -38.2087   -0.2990 C   0  0  0  0  0  0  0  0  0  0  0  0
   29.0769  -38.2444   -0.9650 C   0  0  0  0  0  0  0  0  0  0  0  0
   28.6388  -39.2142   -1.6199 O   0  0  0  0  0  0  0  0  0  0  0  0
   32.1890  -36.6785    0.4518 C   0  0  0  0  0  0  0  0  0  0  0  0
   33.5361  -36.5585    0.1667 O   0  0  0  0  0  0  0  0  0  0  0  0
   28.2584  -37.1284   -0.8678 O   0  0  0  0  0  0  0  0  0  0  0  0
   31.8412  -36.5660    1.6500 O   0  0  0  0  0  0  0  0  0  0  0  0
  2  3  2  0
  2  1  1  0
  4  3  1  0
  5  4  2  0
  6  5  1  0
  7  6  1  0
  7  8  1  6
  9  7  1  0
  9 10  2  0
 11  5  1  0
 11 12  2  0
 12  2  1  0
 14 13  1  6
 14 15  1  0
 16 14  1  0
 17 18  1  0
 17 16  1  1
 18  9  1  0
 19 17  1  0
 20 19  2  0
 21 19  1  0
 22 23  1  1
 22 21  1  0
 23 24  1  0
 24 25  2  0
 24 28  1  0
 26 27  1  0
 26 22  1  0
 29 26  2  0
M  END
$$$$
