YLD.pdb
     RDKit          3D

 29 29  0  0  1  0  0  0  0  0999 V2000
   25.0256  -16.9322  -21.6223 O   0  0  0  0  0  0  0  0  0  0  0  0
   24.7578  -17.8526  -20.6325 C   0  0  0  0  0  0  0  0  0  0  0  0
   23.5993  -17.7919  -19.8885 C   0  0  0  0  0  0  0  0  0  0  0  0
   23.3199  -18.7028  -18.8991 C   0  0  0  0  0  0  0  0  0  0  0  0
   24.2366  -19.7206  -18.6390 C   0  0  0  0  0  0  0  0  0  0  0  0
   23.9467  -20.7123  -17.5714 C   0  0  0  0  0  0  0  0  0  0  0  0
   23.8864  -20.0054  -16.2464 C   0  0  2  0  0  0  0  0  0  0  0  0
   25.1406  -19.3319  -16.0261 N   0  0  0  0  0  0  0  0  0  0  0  0
   23.5296  -20.9088  -15.1276 C   0  0  0  0  0  0  0  0  0  0  0  0
   23.1602  -22.0731  -15.4236 O   0  0  0  0  0  0  0  0  0  0  0  0
   25.4132  -19.8107  -19.3697 C   0  0  0  0  0  0  0  0  0  0  0  0
   25.6514  -18.8725  -20.3547 C   0  0  0  0  0  0  0  0  0  0  0  0
   25.6579  -20.3279   -9.9010 C   0  0  0  0  0  0  0  0  0  0  0  0
   25.1541  -20.8218  -11.2423 C   0  0  1  0  0  0  0  0  0  0  0  0
   25.9225  -22.0190  -11.6734 C   0  0  0  0  0  0  0  0  0  0  0  0
   23.6750  -20.8955  -11.3197 C   0  0  0  0  0  0  0  0  0  0  0  0
   23.1171  -21.3190  -12.6629 C   0  0  2  0  0  0  0  0  0  0  0  0
   23.5803  -20.5423  -13.7691 N   0  0  0  0  0  0  0  0  0  0  0  0
   21.6431  -21.3560  -12.5425 C   0  0  0  0  0  0  0  0  0  0  0  0
   21.0647  -22.0533  -11.6391 O   0  0  0  0  0  0  0  0  0  0  0  0
   20.7638  -20.6384  -13.3979 N   0  0  0  0  0  0  0  0  0  0  0  0
   19.3362  -20.7978  -13.4039 C   0  0  1  0  0  0  0  0  0  0  0  0
   18.6029  -19.5775  -13.9104 C   0  0  0  0  0  0  0  0  0  0  0  0
   18.3165  -18.6018  -12.8495 C   0  0  0  0  0  0  0  0  0  0  0  0
   18.6085  -18.7561  -11.6443 O   0  0  0  0  0  0  0  0  0  0  0  0
   18.9931  -22.0138  -14.1696 C   0  0  0  0  0  0  0  0  0  0  0  0
   19.7633  -22.5280  -15.1956 O   0  0  0  0  0  0  0  0  0  0  0  0
   17.6767  -17.4208  -13.1967 O   0  0  0  0  0  0  0  0  0  0  0  0
   17.9391  -22.6248  -13.8781 O   0  0  0  0  0  0  0  0  0  0  0  0
  2  3  2  0
  2  1  1  0
  4  3  1  0
  5  4  2  0
  6  5  1  0
  7  6  1  0
  7  8  1  1
  9  7  1  0
  9 10  2  0
 11  5  1  0
 11 12  2  0
 12  2  1  0
 14 13  1  1
 14 15  1  0
 16 14  1  0
 17 18  1  0
 17 16  1  1
 18  9  1  0
 19 17  1  0
 20 19  2  0
 21 19  1  0
 22 23  1  6
 22 21  1  0
 23 24  1  0
 24 25  2  0
 24 28  1  0
 26 27  1  0
 26 22  1  0
 29 26  2  0
M  END
$$$$
