YLD.pdb
     RDKit          3D

 29 29  0  0  1  0  0  0  0  0999 V2000
   18.7615  -23.4698  -13.0343 O   0  0  0  0  0  0  0  0  0  0  0  0
   19.9614  -22.7994  -12.9378 C   0  0  0  0  0  0  0  0  0  0  0  0
   20.5355  -22.1914  -14.0333 C   0  0  0  0  0  0  0  0  0  0  0  0
   21.7309  -21.5200  -13.9511 C   0  0  0  0  0  0  0  0  0  0  0  0
   22.3843  -21.4511  -12.7213 C   0  0  0  0  0  0  0  0  0  0  0  0
   23.6780  -20.7279  -12.6187 C   0  0  0  0  0  0  0  0  0  0  0  0
   24.2971  -21.0146  -11.2795 C   0  0  2  0  0  0  0  0  0  0  0  0
   23.3985  -20.5592  -10.2497 N   0  0  0  0  0  0  0  0  0  0  0  0
   25.6540  -20.4370  -11.1369 C   0  0  0  0  0  0  0  0  0  0  0  0
   25.7353  -19.2568  -10.7127 O   0  0  0  0  0  0  0  0  0  0  0  0
   21.8337  -22.0524  -11.5980 C   0  0  0  0  0  0  0  0  0  0  0  0
   20.6299  -22.7165  -11.7286 C   0  0  0  0  0  0  0  0  0  0  0  0
   30.4138  -22.7101   -9.5015 C   0  0  0  0  0  0  0  0  0  0  0  0
   29.3273  -21.7140   -9.8543 C   0  0  1  0  0  0  0  0  0  0  0  0
   29.3150  -20.5953   -8.8756 C   0  0  0  0  0  0  0  0  0  0  0  0
   29.3031  -21.3614  -11.2945 C   0  0  0  0  0  0  0  0  0  0  0  0
   28.1114  -20.5392  -11.7401 C   0  0  2  0  0  0  0  0  0  0  0  0
   26.8424  -21.1261  -11.4454 N   0  0  0  0  0  0  0  0  0  0  0  0
   28.2979  -20.2229  -13.1732 C   0  0  0  0  0  0  0  0  0  0  0  0
   29.3932  -19.7261  -13.6098 O   0  0  0  0  0  0  0  0  0  0  0  0
   27.3022  -20.4380  -14.1643 N   0  0  0  0  0  0  0  0  0  0  0  0
   27.4856  -20.1683  -15.5632 C   0  0  1  0  0  0  0  0  0  0  0  0
   28.2714  -21.2425  -16.2788 C   0  0  0  0  0  0  0  0  0  0  0  0
   28.3325  -21.0334  -17.7321 C   0  0  0  0  0  0  0  0  0  0  0  0
   27.8089  -20.0719  -18.3344 O   0  0  0  0  0  0  0  0  0  0  0  0
   26.1650  -19.9352  -16.1833 C   0  0  0  0  0  0  0  0  0  0  0  0
   25.9815  -19.3473  -17.4207 O   0  0  0  0  0  0  0  0  0  0  0  0
   29.0173  -21.9621  -18.5024 O   0  0  0  0  0  0  0  0  0  0  0  0
   25.1403  -20.2893  -15.5558 O   0  0  0  0  0  0  0  0  0  0  0  0
  2  3  2  0
  2  1  1  0
  4  3  1  0
  5  4  2  0
  6  5  1  0
  7  6  1  0
  7  8  1  1
  9  7  1  0
  9 10  2  0
 11  5  1  0
 11 12  2  0
 12  2  1  0
 14 13  1  6
 14 15  1  0
 16 14  1  0
 17 18  1  0
 17 16  1  6
 18  9  1  0
 19 17  1  0
 20 19  2  0
 21 19  1  0
 22 23  1  6
 22 21  1  0
 23 24  1  0
 24 25  2  0
 24 28  1  0
 26 27  1  0
 26 22  1  0
 29 26  2  0
M  END
$$$$
