YLD.pdb
     RDKit          3D

 29 29  0  0  1  0  0  0  0  0999 V2000
   22.5272  -12.9526  -18.5245 O   0  0  0  0  0  0  0  0  0  0  0  0
   23.0163  -14.1146  -17.9684 C   0  0  0  0  0  0  0  0  0  0  0  0
   24.1380  -14.1119  -17.1678 C   0  0  0  0  0  0  0  0  0  0  0  0
   24.6361  -15.2626  -16.6072 C   0  0  0  0  0  0  0  0  0  0  0  0
   23.9870  -16.4713  -16.8556 C   0  0  0  0  0  0  0  0  0  0  0  0
   24.5155  -17.7234  -16.2554 C   0  0  0  0  0  0  0  0  0  0  0  0
   25.9900  -17.8169  -16.5308 C   0  0  2  0  0  0  0  0  0  0  0  0
   26.1897  -17.8742  -17.9563 N   0  0  0  0  0  0  0  0  0  0  0  0
   26.6366  -18.9490  -15.8269 C   0  0  0  0  0  0  0  0  0  0  0  0
   26.7763  -20.0209  -16.4681 O   0  0  0  0  0  0  0  0  0  0  0  0
   22.8547  -16.5094  -17.6574 C   0  0  0  0  0  0  0  0  0  0  0  0
   22.3903  -15.3273  -18.1995 C   0  0  0  0  0  0  0  0  0  0  0  0
   28.7324  -21.6748  -11.6629 C   0  0  0  0  0  0  0  0  0  0  0  0
   27.6809  -20.6876  -11.1973 C   0  0  1  0  0  0  0  0  0  0  0  0
   27.8915  -20.3457   -9.7661 C   0  0  0  0  0  0  0  0  0  0  0  0
   27.4734  -19.5651  -12.1439 C   0  0  0  0  0  0  0  0  0  0  0  0
   27.1077  -19.9690  -13.5574 C   0  0  2  0  0  0  0  0  0  0  0  0
   27.0977  -18.8933  -14.4977 N   0  0  0  0  0  0  0  0  0  0  0  0
   25.8291  -20.7102  -13.4934 C   0  0  0  0  0  0  0  0  0  0  0  0
   25.7959  -21.9620  -13.2311 O   0  0  0  0  0  0  0  0  0  0  0  0
   24.5588  -20.1114  -13.7118 N   0  0  0  0  0  0  0  0  0  0  0  0
   23.3050  -20.7631  -13.4531 C   0  0  1  0  0  0  0  0  0  0  0  0
   22.6856  -20.3606  -12.1348 C   0  0  0  0  0  0  0  0  0  0  0  0
   21.3733  -20.9815  -11.9070 C   0  0  0  0  0  0  0  0  0  0  0  0
   20.8723  -21.8697  -12.6292 O   0  0  0  0  0  0  0  0  0  0  0  0
   22.3966  -20.5242  -14.5935 C   0  0  0  0  0  0  0  0  0  0  0  0
   21.5790  -21.4897  -15.1499 O   0  0  0  0  0  0  0  0  0  0  0  0
   20.6267  -20.5609  -10.8159 O   0  0  0  0  0  0  0  0  0  0  0  0
   22.3576  -19.3769  -15.0950 O   0  0  0  0  0  0  0  0  0  0  0  0
  2  3  2  0
  2  1  1  0
  4  3  1  0
  5  4  2  0
  6  5  1  0
  7  6  1  0
  7  8  1  6
  9  7  1  0
  9 10  2  0
 11  5  1  0
 11 12  2  0
 12  2  1  0
 14 13  1  6
 14 15  1  0
 16 14  1  0
 17 18  1  0
 17 16  1  1
 18  9  1  0
 19 17  1  0
 20 19  2  0
 21 19  1  0
 22 23  1  1
 22 21  1  0
 23 24  1  0
 24 25  2  0
 24 28  1  0
 26 27  1  0
 26 22  1  0
 29 26  2  0
M  END
$$$$
