YLD.pdb
     RDKit          3D

 29 29  0  0  1  0  0  0  0  0999 V2000
   29.0682  -28.4177  -17.4382 O   0  0  0  0  0  0  0  0  0  0  0  0
   28.2354  -27.3694  -17.1123 C   0  0  0  0  0  0  0  0  0  0  0  0
   26.9200  -27.3416  -17.5227 C   0  0  0  0  0  0  0  0  0  0  0  0
   26.0792  -26.3031  -17.2049 C   0  0  0  0  0  0  0  0  0  0  0  0
   26.5712  -25.2437  -16.4435 C   0  0  0  0  0  0  0  0  0  0  0  0
   25.6723  -24.1141  -16.0929 C   0  0  0  0  0  0  0  0  0  0  0  0
   25.0556  -24.3752  -14.7474 C   0  0  2  0  0  0  0  0  0  0  0  0
   24.1575  -25.4957  -14.8620 N   0  0  0  0  0  0  0  0  0  0  0  0
   24.3926  -23.1798  -14.1760 C   0  0  0  0  0  0  0  0  0  0  0  0
   23.1485  -23.0846  -14.3268 O   0  0  0  0  0  0  0  0  0  0  0  0
   27.8911  -25.2402  -16.0139 C   0  0  0  0  0  0  0  0  0  0  0  0
   28.6994  -26.3059  -16.3576 C   0  0  0  0  0  0  0  0  0  0  0  0
   26.1702  -20.7080   -9.4844 C   0  0  0  0  0  0  0  0  0  0  0  0
   25.2246  -21.2133  -10.5556 C   0  0  1  0  0  0  0  0  0  0  0  0
   23.9086  -21.5631   -9.9594 C   0  0  0  0  0  0  0  0  0  0  0  0
   25.2190  -20.3698  -11.7753 C   0  0  0  0  0  0  0  0  0  0  0  0
   24.4896  -20.9574  -12.9659 C   0  0  2  0  0  0  0  0  0  0  0  0
   25.0680  -22.1574  -13.4825 N   0  0  0  0  0  0  0  0  0  0  0  0
   24.3489  -19.8862  -13.9764 C   0  0  0  0  0  0  0  0  0  0  0  0
   25.3132  -19.5752  -14.7577 O   0  0  0  0  0  0  0  0  0  0  0  0
   23.1608  -19.1290  -14.1628 N   0  0  0  0  0  0  0  0  0  0  0  0
   22.5652  -18.8652  -15.4431 C   0  0  1  0  0  0  0  0  0  0  0  0
   23.2658  -19.5689  -16.5821 C   0  0  0  0  0  0  0  0  0  0  0  0
   22.6355  -19.3145  -17.8850 C   0  0  0  0  0  0  0  0  0  0  0  0
   21.6593  -18.5557  -18.0662 O   0  0  0  0  0  0  0  0  0  0  0  0
   21.1272  -19.1984  -15.3804 C   0  0  0  0  0  0  0  0  0  0  0  0
   20.6254  -20.3757  -14.8585 O   0  0  0  0  0  0  0  0  0  0  0  0
   23.1508  -19.9559  -19.0020 O   0  0  0  0  0  0  0  0  0  0  0  0
   20.3023  -18.3676  -15.8259 O   0  0  0  0  0  0  0  0  0  0  0  0
  2  3  2  0
  2  1  1  0
  4  3  1  0
  5  4  2  0
  6  5  1  0
  7  6  1  0
  7  8  1  6
  9  7  1  0
  9 10  2  0
 11  5  1  0
 11 12  2  0
 12  2  1  0
 14 13  1  1
 14 15  1  0
 16 14  1  0
 17 18  1  0
 17 16  1  1
 18  9  1  0
 19 17  1  0
 20 19  2  0
 21 19  1  0
 22 23  1  6
 22 21  1  0
 23 24  1  0
 24 25  2  0
 24 28  1  0
 26 27  1  0
 26 22  1  0
 29 26  2  0
M  END
$$$$
