YLD.pdb
     RDKit          3D

 29 29  0  0  1  0  0  0  0  0999 V2000
   28.6823  -17.5667  -20.9578 O   0  0  0  0  0  0  0  0  0  0  0  0
   28.1539  -18.3160  -19.9292 C   0  0  0  0  0  0  0  0  0  0  0  0
   26.8175  -18.2446  -19.6005 C   0  0  0  0  0  0  0  0  0  0  0  0
   26.2779  -18.9859  -18.5778 C   0  0  0  0  0  0  0  0  0  0  0  0
   27.1076  -19.8372  -17.8492 C   0  0  0  0  0  0  0  0  0  0  0  0
   26.5367  -20.6445  -16.7404 C   0  0  0  0  0  0  0  0  0  0  0  0
   25.6144  -19.7805  -15.9269 C   0  0  2  0  0  0  0  0  0  0  0  0
   26.3937  -18.7556  -15.2809 N   0  0  0  0  0  0  0  0  0  0  0  0
   24.7981  -20.5565  -14.9643 C   0  0  0  0  0  0  0  0  0  0  0  0
   24.2296  -21.5913  -15.3950 O   0  0  0  0  0  0  0  0  0  0  0  0
   28.4583  -19.9331  -18.1541 C   0  0  0  0  0  0  0  0  0  0  0  0
   28.9564  -19.1686  -19.1908 C   0  0  0  0  0  0  0  0  0  0  0  0
   25.8502  -20.3332   -9.4246 C   0  0  0  0  0  0  0  0  0  0  0  0
   25.5352  -20.7882  -10.8356 C   0  0  1  0  0  0  0  0  0  0  0  0
   26.1148  -22.1340  -11.0855 C   0  0  0  0  0  0  0  0  0  0  0  0
   24.1180  -20.5738  -11.2160 C   0  0  0  0  0  0  0  0  0  0  0  0
   23.7847  -20.8667  -12.6644 C   0  0  2  0  0  0  0  0  0  0  0  0
   24.6253  -20.2055  -13.6118 N   0  0  0  0  0  0  0  0  0  0  0  0
   22.3445  -20.5882  -12.8563 C   0  0  0  0  0  0  0  0  0  0  0  0
   21.8404  -19.4493  -12.5634 O   0  0  0  0  0  0  0  0  0  0  0  0
   21.4194  -21.5371  -13.3697 N   0  0  0  0  0  0  0  0  0  0  0  0
   20.0242  -21.2694  -13.5823 C   0  0  1  0  0  0  0  0  0  0  0  0
   19.5135  -21.7876  -14.9068 C   0  0  0  0  0  0  0  0  0  0  0  0
   19.9551  -20.9731  -16.0475 C   0  0  0  0  0  0  0  0  0  0  0  0
   20.6259  -19.9230  -15.9537 O   0  0  0  0  0  0  0  0  0  0  0  0
   19.2545  -21.8025  -12.4394 C   0  0  0  0  0  0  0  0  0  0  0  0
   18.0090  -21.3394  -12.0590 O   0  0  0  0  0  0  0  0  0  0  0  0
   19.6097  -21.3881  -17.3255 O   0  0  0  0  0  0  0  0  0  0  0  0
   19.7537  -22.7335  -11.7662 O   0  0  0  0  0  0  0  0  0  0  0  0
  2  3  2  0
  2  1  1  0
  4  3  1  0
  5  4  2  0
  6  5  1  0
  7  6  1  0
  7  8  1  1
  9  7  1  0
  9 10  2  0
 11  5  1  0
 11 12  2  0
 12  2  1  0
 14 13  1  1
 14 15  1  0
 16 14  1  0
 17 18  1  0
 17 16  1  1
 18  9  1  0
 19 17  1  0
 20 19  2  0
 21 19  1  0
 22 23  1  6
 22 21  1  0
 23 24  1  0
 24 25  2  0
 24 28  1  0
 26 27  1  0
 26 22  1  0
 29 26  2  0
M  END
$$$$
