YLD.pdb
     RDKit          3D

 29 29  0  0  1  0  0  0  0  0999 V2000
   25.9684  -13.6033  -17.2874 O   0  0  0  0  0  0  0  0  0  0  0  0
   25.9547  -14.8345  -16.6689 C   0  0  0  0  0  0  0  0  0  0  0  0
   26.3690  -14.9880  -15.3635 C   0  0  0  0  0  0  0  0  0  0  0  0
   26.3606  -16.2092  -14.7350 C   0  0  0  0  0  0  0  0  0  0  0  0
   25.9192  -17.3288  -15.4391 C   0  0  0  0  0  0  0  0  0  0  0  0
   25.9051  -18.6557  -14.7710 C   0  0  0  0  0  0  0  0  0  0  0  0
   27.2406  -18.8952  -14.1244 C   0  0  2  0  0  0  0  0  0  0  0  0
   28.2657  -18.7873  -15.1307 N   0  0  0  0  0  0  0  0  0  0  0  0
   27.3038  -20.1825  -13.3936 C   0  0  0  0  0  0  0  0  0  0  0  0
   27.8003  -21.1648  -14.0004 O   0  0  0  0  0  0  0  0  0  0  0  0
   25.4951  -17.2093  -16.7553 C   0  0  0  0  0  0  0  0  0  0  0  0
   25.5212  -15.9613  -17.3460 C   0  0  0  0  0  0  0  0  0  0  0  0
   25.3788  -20.6510   -7.8977 C   0  0  0  0  0  0  0  0  0  0  0  0
   25.8143  -20.4003   -9.3275 C   0  0  1  0  0  0  0  0  0  0  0  0
   26.6956  -19.2052   -9.3967 C   0  0  0  0  0  0  0  0  0  0  0  0
   26.2725  -21.6276  -10.0225 C   0  0  0  0  0  0  0  0  0  0  0  0
   26.2666  -21.5556  -11.5356 C   0  0  2  0  0  0  0  0  0  0  0  0
   26.8456  -20.3658  -12.0749 N   0  0  0  0  0  0  0  0  0  0  0  0
   24.8790  -21.7956  -11.9887 C   0  0  0  0  0  0  0  0  0  0  0  0
   24.2158  -22.8166  -11.5951 O   0  0  0  0  0  0  0  0  0  0  0  0
   24.1797  -20.9351  -12.8776 N   0  0  0  0  0  0  0  0  0  0  0  0
   22.8344  -21.1615  -13.3277 C   0  0  1  0  0  0  0  0  0  0  0  0
   21.8957  -20.0253  -12.9942 C   0  0  0  0  0  0  0  0  0  0  0  0
   20.5948  -20.4880  -12.4911 C   0  0  0  0  0  0  0  0  0  0  0  0
   20.2351  -21.6838  -12.4450 O   0  0  0  0  0  0  0  0  0  0  0  0
   22.8573  -21.4613  -14.7742 C   0  0  0  0  0  0  0  0  0  0  0  0
   23.9827  -21.3598  -15.5702 O   0  0  0  0  0  0  0  0  0  0  0  0
   19.6919  -19.5402  -12.0316 O   0  0  0  0  0  0  0  0  0  0  0  0
   21.7942  -21.8317  -15.3236 O   0  0  0  0  0  0  0  0  0  0  0  0
  2  3  2  0
  2  1  1  0
  4  3  1  0
  5  4  2  0
  6  5  1  0
  7  6  1  0
  7  8  1  6
  9  7  1  0
  9 10  2  0
 11  5  1  0
 11 12  2  0
 12  2  1  0
 14 13  1  1
 14 15  1  0
 16 14  1  0
 17 18  1  0
 17 16  1  1
 18  9  1  0
 19 17  1  0
 20 19  2  0
 21 19  1  0
 22 23  1  6
 22 21  1  0
 23 24  1  0
 24 25  2  0
 24 28  1  0
 26 27  1  0
 26 22  1  0
 29 26  2  0
M  END
$$$$
