YLD.pdb
     RDKit          3D

 29 29  0  0  1  0  0  0  0  0999 V2000
   20.6702  -11.7693  -25.2962 O   0  0  0  0  0  0  0  0  0  0  0  0
   20.4788  -11.0997  -24.1072 C   0  0  0  0  0  0  0  0  0  0  0  0
   19.2164  -10.7730  -23.6612 C   0  0  0  0  0  0  0  0  0  0  0  0
   19.0114  -10.1059  -22.4782 C   0  0  0  0  0  0  0  0  0  0  0  0
   20.1145   -9.7478  -21.7042 C   0  0  0  0  0  0  0  0  0  0  0  0
   19.9067   -9.0257  -20.4225 C   0  0  0  0  0  0  0  0  0  0  0  0
   20.2806   -9.9303  -19.2819 C   0  0  2  0  0  0  0  0  0  0  0  0
   19.3182  -10.9997  -19.2076 N   0  0  0  0  0  0  0  0  0  0  0  0
   20.4186   -9.2080  -17.9957 C   0  0  0  0  0  0  0  0  0  0  0  0
   19.3597   -8.8722  -17.4079 O   0  0  0  0  0  0  0  0  0  0  0  0
   21.3997  -10.0615  -22.1242 C   0  0  0  0  0  0  0  0  0  0  0  0
   21.5571  -10.7330  -23.3206 C   0  0  0  0  0  0  0  0  0  0  0  0
   24.9010   -9.7919  -14.5181 C   0  0  0  0  0  0  0  0  0  0  0  0
   23.4745   -9.6235  -15.0015 C   0  0  1  0  0  0  0  0  0  0  0  0
   22.5208  -10.1431  -13.9866 C   0  0  0  0  0  0  0  0  0  0  0  0
   23.2041   -8.2797  -15.5676 C   0  0  0  0  0  0  0  0  0  0  0  0
   21.8444   -8.1106  -16.2136 C   0  0  2  0  0  0  0  0  0  0  0  0
   21.6525   -8.8807  -17.4017 N   0  0  0  0  0  0  0  0  0  0  0  0
   21.6184   -6.6613  -16.4055 C   0  0  0  0  0  0  0  0  0  0  0  0
   22.3730   -5.9635  -17.1676 O   0  0  0  0  0  0  0  0  0  0  0  0
   20.5701   -5.9366  -15.7765 N   0  0  0  0  0  0  0  0  0  0  0  0
   20.2689   -4.5580  -16.0450 C   0  0  1  0  0  0  0  0  0  0  0  0
   19.3678   -4.3677  -17.2430 C   0  0  0  0  0  0  0  0  0  0  0  0
   19.0103   -2.9607  -17.4713 C   0  0  0  0  0  0  0  0  0  0  0  0
   19.6942   -1.9840  -17.0976 O   0  0  0  0  0  0  0  0  0  0  0  0
   19.7113   -3.9426  -14.8230 C   0  0  0  0  0  0  0  0  0  0  0  0
   19.4504   -4.6345  -13.6553 O   0  0  0  0  0  0  0  0  0  0  0  0
   17.8320   -2.6826  -18.1487 O   0  0  0  0  0  0  0  0  0  0  0  0
   19.4554   -2.7164  -14.8359 O   0  0  0  0  0  0  0  0  0  0  0  0
  2  3  2  0
  2  1  1  0
  4  3  1  0
  5  4  2  0
  6  5  1  0
  7  6  1  0
  7  8  1  1
  9  7  1  0
  9 10  2  0
 11  5  1  0
 11 12  2  0
 12  2  1  0
 14 13  1  1
 14 15  1  0
 16 14  1  0
 17 18  1  0
 17 16  1  6
 18  9  1  0
 19 17  1  0
 20 19  2  0
 21 19  1  0
 22 23  1  6
 22 21  1  0
 23 24  1  0
 24 25  2  0
 24 28  1  0
 26 27  1  0
 26 22  1  0
 29 26  2  0
M  END
$$$$
