YLD.pdb
     RDKit          3D

 29 29  0  0  1  0  0  0  0  0999 V2000
   29.8086  -15.6089  -18.3750 O   0  0  0  0  0  0  0  0  0  0  0  0
   28.9159  -16.4861  -17.7984 C   0  0  0  0  0  0  0  0  0  0  0  0
   28.3732  -17.5325  -18.5124 C   0  0  0  0  0  0  0  0  0  0  0  0
   27.4826  -18.4140  -17.9501 C   0  0  0  0  0  0  0  0  0  0  0  0
   27.1157  -18.2454  -16.6156 C   0  0  0  0  0  0  0  0  0  0  0  0
   26.1531  -19.1919  -15.9953 C   0  0  0  0  0  0  0  0  0  0  0  0
   26.8750  -20.0338  -14.9810 C   0  0  2  0  0  0  0  0  0  0  0  0
   27.8203  -20.8750  -15.6696 N   0  0  0  0  0  0  0  0  0  0  0  0
   25.9550  -20.8114  -14.1185 C   0  0  0  0  0  0  0  0  0  0  0  0
   25.5741  -21.9305  -14.5453 O   0  0  0  0  0  0  0  0  0  0  0  0
   27.6435  -17.2019  -15.8679 C   0  0  0  0  0  0  0  0  0  0  0  0
   28.5356  -16.3404  -16.4755 C   0  0  0  0  0  0  0  0  0  0  0  0
   26.0526  -20.3542   -8.5495 C   0  0  0  0  0  0  0  0  0  0  0  0
   25.9894  -20.7610  -10.0080 C   0  0  1  0  0  0  0  0  0  0  0  0
   26.7748  -22.0030  -10.2321 C   0  0  0  0  0  0  0  0  0  0  0  0
   24.6180  -20.7097  -10.5701 C   0  0  0  0  0  0  0  0  0  0  0  0
   24.5117  -21.0230  -12.0483 C   0  0  2  0  0  0  0  0  0  0  0  0
   25.4891  -20.3740  -12.8638 N   0  0  0  0  0  0  0  0  0  0  0  0
   23.1187  -20.7488  -12.4639 C   0  0  0  0  0  0  0  0  0  0  0  0
   22.6475  -19.5593  -12.4744 O   0  0  0  0  0  0  0  0  0  0  0  0
   22.2062  -21.7569  -12.8771 N   0  0  0  0  0  0  0  0  0  0  0  0
   20.8908  -21.4925  -13.3904 C   0  0  1  0  0  0  0  0  0  0  0  0
   20.4765  -22.4465  -14.4866 C   0  0  0  0  0  0  0  0  0  0  0  0
   20.5911  -21.8591  -15.8288 C   0  0  0  0  0  0  0  0  0  0  0  0
   20.8886  -20.6677  -16.0601 O   0  0  0  0  0  0  0  0  0  0  0  0
   19.9313  -21.4816  -12.2670 C   0  0  0  0  0  0  0  0  0  0  0  0
   20.2295  -21.9112  -10.9876 O   0  0  0  0  0  0  0  0  0  0  0  0
   20.3549  -22.6741  -16.9263 O   0  0  0  0  0  0  0  0  0  0  0  0
   18.7714  -21.0579  -12.4771 O   0  0  0  0  0  0  0  0  0  0  0  0
  2  3  2  0
  2  1  1  0
  4  3  1  0
  5  4  2  0
  6  5  1  0
  7  6  1  0
  7  8  1  6
  9  7  1  0
  9 10  2  0
 11  5  1  0
 11 12  2  0
 12  2  1  0
 14 13  1  1
 14 15  1  0
 16 14  1  0
 17 18  1  0
 17 16  1  1
 18  9  1  0
 19 17  1  0
 20 19  2  0
 21 19  1  0
 22 23  1  6
 22 21  1  0
 23 24  1  0
 24 25  2  0
 24 28  1  0
 26 27  1  0
 26 22  1  0
 29 26  2  0
M  END
$$$$
