RPW.pdb
     RDKit          3D

 33 35  0  0  1  0  0  0  0  0999 V2000
   31.5683  -23.9871  -14.4650 N   0  0  0  0  0  0  0  0  0  0  0  0
   31.0125  -24.4723  -15.6696 C   0  0  0  0  0  0  0  0  0  0  0  0
   31.1587  -25.7361  -15.9036 N   0  0  0  0  0  0  0  0  0  0  0  0
   30.3307  -23.6167  -16.5714 N   0  0  0  0  0  0  0  0  0  0  0  0
   30.3252  -22.1698  -16.2438 C   0  0  0  0  0  0  0  0  0  0  0  0
   29.0548  -21.6110  -16.7646 C   0  0  0  0  0  0  0  0  0  0  0  0
   28.4851  -22.1599  -18.0090 C   0  0  0  0  0  0  0  0  0  0  0  0
   27.1766  -21.5198  -18.3957 C   0  0  2  0  0  0  0  0  0  0  0  0
   27.4930  -20.2497  -19.0137 N   0  0  0  0  0  0  0  0  0  0  0  0
   26.3497  -21.3171  -17.1770 C   0  0  0  0  0  0  0  0  0  0  0  0
   26.0997  -20.0911  -16.8941 O   0  0  0  0  0  0  0  0  0  0  0  0
   30.8512  -26.2135  -16.7652 N   0  0  0  0  0  0  0  0  0  0  0  0
   25.8396  -22.3216  -16.3447 C   0  0  0  0  0  0  0  0  0  0  0  0
   26.2636  -23.6908  -16.3353 C   0  0  0  0  0  0  0  0  0  0  0  0
   25.0352  -24.4518  -15.8911 C   0  0  0  0  0  0  0  0  0  0  0  0
   23.9504  -23.4174  -15.6853 C   0  0  1  0  0  0  0  0  0  0  0  0
   24.8115  -22.1951  -15.3634 C   0  0  0  0  0  0  0  0  0  0  0  0
   25.4369  -22.3105  -14.0186 O   0  0  0  0  0  0  0  0  0  0  0  0
   26.5853  -22.8065  -13.8730 N   0  0  0  0  0  0  0  0  0  0  0  0
   24.8098  -21.8840  -12.8214 C   0  0  1  0  0  0  0  0  0  0  0  0
   25.4409  -22.0044  -11.4997 C   0  0  0  0  0  0  0  0  0  0  0  0
   26.7221  -21.2741  -11.4497 C   0  0  0  0  0  0  0  0  0  0  0  0
   26.9420  -20.5821  -10.1819 C   0  0  0  0  0  0  0  0  0  0  0  0
   26.0094  -19.7320   -9.5699 N   0  0  0  0  0  0  0  0  0  0  0  0
   26.5384  -19.2272   -8.4514 C   0  0  0  0  0  0  0  0  0  0  0  0
   27.7735  -19.7115   -8.3072 C   0  0  0  0  0  0  0  0  0  0  0  0
   28.7234  -19.5336   -7.3394 C   0  0  0  0  0  0  0  0  0  0  0  0
   29.9664  -20.1590   -7.3541 C   0  0  0  0  0  0  0  0  0  0  0  0
   30.1956  -20.9940   -8.4318 C   0  0  0  0  0  0  0  0  0  0  0  0
   29.2638  -21.1926   -9.4190 C   0  0  0  0  0  0  0  0  0  0  0  0
   28.0460  -20.5571   -9.3721 C   0  0  0  0  0  0  0  0  0  0  0  0
   24.4721  -21.5629  -10.5036 O   0  0  0  0  0  0  0  0  0  0  0  0
   24.4502  -21.9411   -9.3020 O   0  0  0  0  0  0  0  0  0  0  0  0
  2  1  1  0
  2  4  1  0
  3  2  2  0
  4  5  1  0
  6  5  1  0
  7  6  1  0
  7  8  1  0
  8  9  1  1
 10  8  1  0
 11 10  2  0
 12 16  1  0
 12 10  1  0
 13 12  1  0
 13 14  1  0
 14 15  1  0
 16 15  1  0
 16 17  1  1
 18 17  2  0
 19 17  1  0
 20 21  1  1
 20 19  1  0
 21 22  1  0
 22 30  1  0
 22 23  2  0
 23 24  1  0
 25 26  2  0
 25 24  1  0
 27 26  1  0
 28 27  2  0
 29 28  1  0
 29 30  2  0
 30 25  1  0
 31 20  1  0
 31 33  1  0
 32 31  2  0
M  END
$$$$
