RPW.pdb
     RDKit          3D

 33 35  0  0  1  0  0  0  0  0999 V2000
   25.9085  -24.2859  -20.9248 N   0  0  0  0  0  0  0  0  0  0  0  0
   25.1185  -23.1156  -20.8809 C   0  0  0  0  0  0  0  0  0  0  0  0
   24.0214  -23.1353  -21.5659 N   0  0  0  0  0  0  0  0  0  0  0  0
   25.5102  -21.9822  -20.1247 N   0  0  0  0  0  0  0  0  0  0  0  0
   26.5372  -22.2013  -19.0767 C   0  0  0  0  0  0  0  0  0  0  0  0
   25.8157  -22.4319  -17.8025 C   0  0  0  0  0  0  0  0  0  0  0  0
   26.5909  -22.6533  -16.5678 C   0  0  0  0  0  0  0  0  0  0  0  0
   27.8519  -21.8305  -16.5030 C   0  0  2  0  0  0  0  0  0  0  0  0
   28.9214  -22.6529  -17.0277 N   0  0  0  0  0  0  0  0  0  0  0  0
   28.1235  -21.4580  -15.0897 C   0  0  0  0  0  0  0  0  0  0  0  0
   28.9571  -22.2210  -14.4827 O   0  0  0  0  0  0  0  0  0  0  0  0
   23.3417  -22.3600  -21.6090 N   0  0  0  0  0  0  0  0  0  0  0  0
   27.5631  -20.3789  -14.3944 C   0  0  0  0  0  0  0  0  0  0  0  0
   26.5266  -19.5193  -14.8856 C   0  0  0  0  0  0  0  0  0  0  0  0
   26.7840  -18.2012  -14.1916 C   0  0  0  0  0  0  0  0  0  0  0  0
   28.0098  -18.4111  -13.3300 C   0  0  1  0  0  0  0  0  0  0  0  0
   27.9053  -19.9177  -13.0882 C   0  0  0  0  0  0  0  0  0  0  0  0
   26.7800  -20.2437  -12.1715 O   0  0  0  0  0  0  0  0  0  0  0  0
   25.5878  -20.2484  -12.5772 N   0  0  0  0  0  0  0  0  0  0  0  0
   26.9506  -20.5672  -10.8023 C   0  0  2  0  0  0  0  0  0  0  0  0
   25.8959  -21.1873   -9.9882 C   0  0  0  0  0  0  0  0  0  0  0  0
   26.4248  -21.6543   -8.6922 C   0  0  0  0  0  0  0  0  0  0  0  0
   26.9100  -20.5690   -7.8430 C   0  0  0  0  0  0  0  0  0  0  0  0
   26.4554  -19.2440   -7.9115 N   0  0  0  0  0  0  0  0  0  0  0  0
   27.1334  -18.4979   -7.0344 C   0  0  0  0  0  0  0  0  0  0  0  0
   28.0083  -19.2782   -6.3969 C   0  0  0  0  0  0  0  0  0  0  0  0
   28.9147  -19.0232   -5.4048 C   0  0  0  0  0  0  0  0  0  0  0  0
   29.7356  -19.9953   -4.8414 C   0  0  0  0  0  0  0  0  0  0  0  0
   29.5808  -21.2699   -5.3542 C   0  0  0  0  0  0  0  0  0  0  0  0
   28.6815  -21.5575   -6.3495 C   0  0  0  0  0  0  0  0  0  0  0  0
   27.8869  -20.5711   -6.8834 C   0  0  0  0  0  0  0  0  0  0  0  0
   24.8059  -20.2265   -9.8677 O   0  0  0  0  0  0  0  0  0  0  0  0
   23.6206  -20.5165   -9.5540 O   0  0  0  0  0  0  0  0  0  0  0  0
  2  1  1  0
  2  4  1  0
  3  2  2  0
  4  5  1  0
  6  5  1  0
  7  6  1  0
  7  8  1  0
  8  9  1  1
 10  8  1  0
 11 10  2  0
 12 16  1  0
 12 10  1  0
 13 12  1  0
 13 14  1  0
 14 15  1  0
 16 15  1  0
 16 17  1  1
 18 17  2  0
 19 17  1  0
 20 21  1  6
 20 19  1  0
 21 22  1  0
 22 30  1  0
 22 23  2  0
 23 24  1  0
 25 26  2  0
 25 24  1  0
 27 26  1  0
 28 27  2  0
 29 28  1  0
 29 30  2  0
 30 25  1  0
 31 20  1  0
 31 33  1  0
 32 31  2  0
M  END
$$$$
