RPW.pdb
     RDKit          3D

 33 35  0  0  1  0  0  0  0  0999 V2000
   24.0425  -23.7996  -14.3756 N   0  0  0  0  0  0  0  0  0  0  0  0
   25.2909  -24.0207  -14.9985 C   0  0  0  0  0  0  0  0  0  0  0  0
   25.5832  -25.2482  -15.2832 N   0  0  0  0  0  0  0  0  0  0  0  0
   26.1735  -22.9516  -15.2949 N   0  0  0  0  0  0  0  0  0  0  0  0
   25.6468  -21.5781  -15.1020 C   0  0  0  0  0  0  0  0  0  0  0  0
   25.0499  -21.1563  -16.3916 C   0  0  0  0  0  0  0  0  0  0  0  0
   24.3856  -19.8427  -16.4805 C   0  0  0  0  0  0  0  0  0  0  0  0
   23.7197  -19.6033  -17.8111 C   0  0  2  0  0  0  0  0  0  0  0  0
   24.2730  -18.3776  -18.3470 N   0  0  0  0  0  0  0  0  0  0  0  0
   22.2527  -19.4709  -17.6096 C   0  0  0  0  0  0  0  0  0  0  0  0
   21.8589  -18.2958  -17.2784 O   0  0  0  0  0  0  0  0  0  0  0  0
   26.4504  -25.5518  -15.7529 N   0  0  0  0  0  0  0  0  0  0  0  0
   21.3015  -20.4895  -17.7489 C   0  0  0  0  0  0  0  0  0  0  0  0
   21.5795  -21.8420  -18.1336 C   0  0  0  0  0  0  0  0  0  0  0  0
   20.3137  -22.2938  -18.8258 C   0  0  0  0  0  0  0  0  0  0  0  0
   19.3721  -21.1098  -18.7965 C   0  0  1  0  0  0  0  0  0  0  0  0
   19.8919  -20.3923  -17.5498 C   0  0  0  0  0  0  0  0  0  0  0  0
   19.5460  -21.1383  -16.3102 O   0  0  0  0  0  0  0  0  0  0  0  0
   19.1825  -22.3432  -16.3532 N   0  0  0  0  0  0  0  0  0  0  0  0
   19.5949  -20.5709  -15.0124 C   0  0  2  0  0  0  0  0  0  0  0  0
   19.3520  -21.3477  -13.7888 C   0  0  0  0  0  0  0  0  0  0  0  0
   20.0313  -20.7428  -12.6269 C   0  0  0  0  0  0  0  0  0  0  0  0
   19.6338  -19.3582  -12.3834 C   0  0  0  0  0  0  0  0  0  0  0  0
   18.5669  -18.9722  -11.5590 N   0  0  0  0  0  0  0  0  0  0  0  0
   18.4430  -17.6421  -11.5896 C   0  0  0  0  0  0  0  0  0  0  0  0
   19.3824  -17.1445  -12.3963 C   0  0  0  0  0  0  0  0  0  0  0  0
   19.7029  -15.8637  -12.7535 C   0  0  0  0  0  0  0  0  0  0  0  0
   20.7556  -15.5406  -13.6043 C   0  0  0  0  0  0  0  0  0  0  0  0
   21.4806  -16.6161  -14.0830 C   0  0  0  0  0  0  0  0  0  0  0  0
   21.1837  -17.9119  -13.7443 C   0  0  0  0  0  0  0  0  0  0  0  0
   20.1353  -18.1939  -12.9013 C   0  0  0  0  0  0  0  0  0  0  0  0
   17.9090  -21.4781  -13.6253 O   0  0  0  0  0  0  0  0  0  0  0  0
   17.3423  -22.2894  -12.8455 O   0  0  0  0  0  0  0  0  0  0  0  0
  2  1  1  0
  2  4  1  0
  3  2  2  0
  4  5  1  0
  6  5  1  0
  7  6  1  0
  7  8  1  0
  8  9  1  1
 10  8  1  0
 11 10  2  0
 12 16  1  0
 12 10  1  0
 13 12  1  0
 13 14  1  0
 14 15  1  0
 16 15  1  0
 16 17  1  1
 18 17  2  0
 19 17  1  0
 20 21  1  6
 20 19  1  0
 21 22  1  0
 22 30  1  0
 22 23  2  0
 23 24  1  0
 25 26  2  0
 25 24  1  0
 27 26  1  0
 28 27  2  0
 29 28  1  0
 29 30  2  0
 30 25  1  0
 31 20  1  0
 31 33  1  0
 32 31  2  0
M  END
$$$$
