RPW.pdb
     RDKit          3D

 33 35  0  0  1  0  0  0  0  0999 V2000
   26.7423  -22.9856  -16.8217 N   0  0  0  0  0  0  0  0  0  0  0  0
   28.0626  -23.4804  -16.9095 C   0  0  0  0  0  0  0  0  0  0  0  0
   28.1901  -24.7600  -17.0487 N   0  0  0  0  0  0  0  0  0  0  0  0
   29.1856  -22.6171  -16.8485 N   0  0  0  0  0  0  0  0  0  0  0  0
   28.9119  -21.1838  -16.5807 C   0  0  0  0  0  0  0  0  0  0  0  0
   28.8297  -21.0244  -15.1093 C   0  0  0  0  0  0  0  0  0  0  0  0
   28.5690  -19.6872  -14.5448 C   0  0  0  0  0  0  0  0  0  0  0  0
   27.2123  -19.1426  -14.9110 C   0  0  2  0  0  0  0  0  0  0  0  0
   27.4155  -17.7974  -15.4056 N   0  0  0  0  0  0  0  0  0  0  0  0
   26.3454  -19.1307  -13.7034 C   0  0  0  0  0  0  0  0  0  0  0  0
   26.3270  -18.0181  -13.0651 O   0  0  0  0  0  0  0  0  0  0  0  0
   29.0902  -25.2647  -17.0444 N   0  0  0  0  0  0  0  0  0  0  0  0
   25.5744  -20.1980  -13.2258 C   0  0  0  0  0  0  0  0  0  0  0  0
   25.5023  -21.5027  -13.8149 C   0  0  0  0  0  0  0  0  0  0  0  0
   24.1175  -21.9912  -13.4554 C   0  0  0  0  0  0  0  0  0  0  0  0
   23.4688  -20.8750  -12.6664 C   0  0  1  0  0  0  0  0  0  0  0  0
   24.7155  -20.2052  -12.0864 C   0  0  0  0  0  0  0  0  0  0  0  0
   25.3458  -21.0486  -11.0355 O   0  0  0  0  0  0  0  0  0  0  0  0
   25.6762  -22.2416  -11.2670 N   0  0  0  0  0  0  0  0  0  0  0  0
   25.6195  -20.5928   -9.7218 C   0  0  1  0  0  0  0  0  0  0  0  0
   26.0898  -21.4792   -8.6481 C   0  0  0  0  0  0  0  0  0  0  0  0
   27.5056  -21.2211   -8.3224 C   0  0  0  0  0  0  0  0  0  0  0  0
   27.6880  -20.1293   -7.3690 C   0  0  0  0  0  0  0  0  0  0  0  0
   27.1707  -18.8363   -7.5349 N   0  0  0  0  0  0  0  0  0  0  0  0
   27.5567  -18.0705   -6.5101 C   0  0  0  0  0  0  0  0  0  0  0  0
   28.3015  -18.8075   -5.6837 C   0  0  0  0  0  0  0  0  0  0  0  0
   28.9153  -18.5194   -4.4958 C   0  0  0  0  0  0  0  0  0  0  0  0
   29.6398  -19.4493   -3.7564 C   0  0  0  0  0  0  0  0  0  0  0  0
   29.7075  -20.7170   -4.3039 C   0  0  0  0  0  0  0  0  0  0  0  0
   29.1037  -21.0370   -5.4935 C   0  0  0  0  0  0  0  0  0  0  0  0
   28.3964  -20.0920   -6.1977 C   0  0  0  0  0  0  0  0  0  0  0  0
   25.1864  -21.3208   -7.5147 O   0  0  0  0  0  0  0  0  0  0  0  0
   25.3034  -21.9169   -6.4108 O   0  0  0  0  0  0  0  0  0  0  0  0
  2  1  1  0
  2  4  1  0
  3  2  2  0
  4  5  1  0
  6  5  1  0
  7  6  1  0
  7  8  1  0
  8  9  1  1
 10  8  1  0
 11 10  2  0
 12 16  1  0
 12 10  1  0
 13 12  1  0
 13 14  1  0
 14 15  1  0
 16 15  1  0
 16 17  1  1
 18 17  2  0
 19 17  1  0
 20 21  1  1
 20 19  1  0
 21 22  1  0
 22 30  1  0
 22 23  2  0
 23 24  1  0
 25 26  2  0
 25 24  1  0
 27 26  1  0
 28 27  2  0
 29 28  1  0
 29 30  2  0
 30 25  1  0
 31 20  1  0
 31 33  1  0
 32 31  2  0
M  END
$$$$
