RPW.pdb
     RDKit          3D

 33 35  0  0  1  0  0  0  0  0999 V2000
   22.7941  -29.6908  -16.8911 N   0  0  0  0  0  0  0  0  0  0  0  0
   22.9324  -28.5080  -16.1312 C   0  0  0  0  0  0  0  0  0  0  0  0
   23.5170  -27.5131  -16.7154 N   0  0  0  0  0  0  0  0  0  0  0  0
   22.4540  -28.4198  -14.7995 N   0  0  0  0  0  0  0  0  0  0  0  0
   21.7193  -29.5971  -14.2748 C   0  0  0  0  0  0  0  0  0  0  0  0
   21.3558  -29.2923  -12.8705 C   0  0  0  0  0  0  0  0  0  0  0  0
   20.2701  -28.3313  -12.6017 C   0  0  0  0  0  0  0  0  0  0  0  0
   18.8966  -28.9088  -12.8284 C   0  0  2  0  0  0  0  0  0  0  0  0
   18.3849  -28.3183  -14.0469 N   0  0  0  0  0  0  0  0  0  0  0  0
   18.0234  -28.5676  -11.6747 C   0  0  0  0  0  0  0  0  0  0  0  0
   17.1604  -27.6472  -11.9068 O   0  0  0  0  0  0  0  0  0  0  0  0
   23.6997  -26.5979  -16.2749 N   0  0  0  0  0  0  0  0  0  0  0  0
   18.0658  -29.1505  -10.4019 C   0  0  0  0  0  0  0  0  0  0  0  0
   18.9880  -30.1634   -9.9798 C   0  0  0  0  0  0  0  0  0  0  0  0
   18.2282  -30.9340   -8.9242 C   0  0  0  0  0  0  0  0  0  0  0  0
   16.8649  -30.2850   -8.8285 C   0  0  1  0  0  0  0  0  0  0  0  0
   17.2152  -28.8699   -9.2912 C   0  0  0  0  0  0  0  0  0  0  0  0
   18.0141  -28.1458   -8.2663 O   0  0  0  0  0  0  0  0  0  0  0  0
   19.0923  -28.6219   -7.8228 N   0  0  0  0  0  0  0  0  0  0  0  0
   17.6389  -26.8939   -7.7181 C   0  0  1  0  0  0  0  0  0  0  0  0
   18.4977  -26.1311   -6.8014 C   0  0  0  0  0  0  0  0  0  0  0  0
   19.0022  -24.9003   -7.4401 C   0  0  0  0  0  0  0  0  0  0  0  0
   17.9568  -24.1257   -8.1048 C   0  0  0  0  0  0  0  0  0  0  0  0
   16.9025  -23.4821   -7.4407 N   0  0  0  0  0  0  0  0  0  0  0  0
   16.1001  -22.9048   -8.3399 C   0  0  0  0  0  0  0  0  0  0  0  0
   16.5855  -23.1429   -9.5599 C   0  0  0  0  0  0  0  0  0  0  0  0
   16.1652  -22.7666  -10.8059 C   0  0  0  0  0  0  0  0  0  0  0  0
   16.8352  -23.0994  -11.9793 C   0  0  0  0  0  0  0  0  0  0  0  0
   17.9820  -23.8533  -11.8121 C   0  0  0  0  0  0  0  0  0  0  0  0
   18.4290  -24.2472  -10.5763 C   0  0  0  0  0  0  0  0  0  0  0  0
   17.7407  -23.9005   -9.4381 C   0  0  0  0  0  0  0  0  0  0  0  0
   17.7398  -25.8922   -5.5790 O   0  0  0  0  0  0  0  0  0  0  0  0
   16.4884  -25.9955   -5.4748 O   0  0  0  0  0  0  0  0  0  0  0  0
  2  1  1  0
  2  4  1  0
  3  2  2  0
  4  5  1  0
  6  5  1  0
  7  6  1  0
  7  8  1  0
  8  9  1  6
 10  8  1  0
 11 10  2  0
 12 16  1  0
 12 10  1  0
 13 12  1  0
 13 14  1  0
 14 15  1  0
 16 15  1  0
 16 17  1  1
 18 17  2  0
 19 17  1  0
 20 21  1  1
 20 19  1  0
 21 22  1  0
 22 30  1  0
 22 23  2  0
 23 24  1  0
 25 26  2  0
 25 24  1  0
 27 26  1  0
 28 27  2  0
 29 28  1  0
 29 30  2  0
 30 25  1  0
 31 20  1  0
 31 33  1  0
 32 31  2  0
M  END
$$$$
