RPW.pdb
     RDKit          3D

 33 35  0  0  1  0  0  0  0  0999 V2000
   22.8924  -17.1266  -17.7714 N   0  0  0  0  0  0  0  0  0  0  0  0
   23.8390  -16.2167  -18.2924 C   0  0  0  0  0  0  0  0  0  0  0  0
   23.5049  -15.5957  -19.3768 N   0  0  0  0  0  0  0  0  0  0  0  0
   25.0876  -15.9979  -17.6573 N   0  0  0  0  0  0  0  0  0  0  0  0
   26.2639  -16.6871  -18.2424 C   0  0  0  0  0  0  0  0  0  0  0  0
   27.2393  -16.8898  -17.1448 C   0  0  0  0  0  0  0  0  0  0  0  0
   26.9402  -17.8769  -16.0909 C   0  0  0  0  0  0  0  0  0  0  0  0
   27.7671  -19.1321  -16.2013 C   0  0  2  0  0  0  0  0  0  0  0  0
   27.5066  -19.6971  -17.5083 N   0  0  0  0  0  0  0  0  0  0  0  0
   27.3642  -20.0817  -15.1309 C   0  0  0  0  0  0  0  0  0  0  0  0
   26.5154  -20.9726  -15.4934 O   0  0  0  0  0  0  0  0  0  0  0  0
   24.1067  -14.9240  -19.8783 N   0  0  0  0  0  0  0  0  0  0  0  0
   27.8218  -20.0817  -13.8071 C   0  0  0  0  0  0  0  0  0  0  0  0
   28.7465  -19.1415  -13.2454 C   0  0  0  0  0  0  0  0  0  0  0  0
   29.4484  -19.9226  -12.1580 C   0  0  0  0  0  0  0  0  0  0  0  0
   28.8573  -21.3149  -12.1910 C   0  0  1  0  0  0  0  0  0  0  0  0
   27.4775  -21.0001  -12.7708 C   0  0  0  0  0  0  0  0  0  0  0  0
   26.6236  -20.2867  -11.7835 O   0  0  0  0  0  0  0  0  0  0  0  0
   26.7714  -19.0560  -11.5612 N   0  0  0  0  0  0  0  0  0  0  0  0
   25.6004  -20.9151  -11.0307 C   0  0  1  0  0  0  0  0  0  0  0  0
   24.6863  -20.1765  -10.1484 C   0  0  0  0  0  0  0  0  0  0  0  0
   23.9090  -19.1735  -10.9015 C   0  0  0  0  0  0  0  0  0  0  0  0
   23.0927  -19.7561  -11.9640 C   0  0  0  0  0  0  0  0  0  0  0  0
   22.1374  -20.7640  -11.7684 N   0  0  0  0  0  0  0  0  0  0  0  0
   21.6044  -21.1028  -12.9460 C   0  0  0  0  0  0  0  0  0  0  0  0
   22.1692  -20.3596  -13.8996 C   0  0  0  0  0  0  0  0  0  0  0  0
   21.9724  -20.2944  -15.2516 C   0  0  0  0  0  0  0  0  0  0  0  0
   22.6552  -19.4175  -16.0891 C   0  0  0  0  0  0  0  0  0  0  0  0
   23.5699  -18.5920  -15.4620 C   0  0  0  0  0  0  0  0  0  0  0  0
   23.7907  -18.6340  -14.1086 C   0  0  0  0  0  0  0  0  0  0  0  0
   23.0982  -19.5142  -13.3118 C   0  0  0  0  0  0  0  0  0  0  0  0
   23.8630  -21.1529   -9.4451 O   0  0  0  0  0  0  0  0  0  0  0  0
   23.8393  -22.3880   -9.6930 O   0  0  0  0  0  0  0  0  0  0  0  0
  2  1  1  0
  2  4  1  0
  3  2  2  0
  4  5  1  0
  6  5  1  0
  7  6  1  0
  7  8  1  0
  8  9  1  6
 10  8  1  0
 11 10  2  0
 12 16  1  0
 12 10  1  0
 13 12  1  0
 13 14  1  0
 14 15  1  0
 16 15  1  0
 16 17  1  1
 18 17  2  0
 19 17  1  0
 20 21  1  1
 20 19  1  0
 21 22  1  0
 22 30  1  0
 22 23  2  0
 23 24  1  0
 25 26  2  0
 25 24  1  0
 27 26  1  0
 28 27  2  0
 29 28  1  0
 29 30  2  0
 30 25  1  0
 31 20  1  0
 31 33  1  0
 32 31  2  0
M  END
$$$$
