RPW.pdb
     RDKit          3D

 33 35  0  0  1  0  0  0  0  0999 V2000
   24.8416  -17.8180  -16.7041 N   0  0  0  0  0  0  0  0  0  0  0  0
   26.1347  -17.2810  -16.8908 C   0  0  0  0  0  0  0  0  0  0  0  0
   26.2003  -16.1220  -17.4614 N   0  0  0  0  0  0  0  0  0  0  0  0
   27.2965  -17.9781  -16.4732 N   0  0  0  0  0  0  0  0  0  0  0  0
   27.0842  -19.2284  -15.7033 C   0  0  0  0  0  0  0  0  0  0  0  0
   26.7942  -18.8336  -14.3043 C   0  0  0  0  0  0  0  0  0  0  0  0
   26.5749  -19.8834  -13.2921 C   0  0  0  0  0  0  0  0  0  0  0  0
   27.4339  -21.1031  -13.5063 C   0  0  2  0  0  0  0  0  0  0  0  0
   26.6965  -21.9924  -14.3785 N   0  0  0  0  0  0  0  0  0  0  0  0
   27.6975  -21.7546  -12.1964 C   0  0  0  0  0  0  0  0  0  0  0  0
   26.9289  -22.7449  -11.9235 O   0  0  0  0  0  0  0  0  0  0  0  0
   27.0760  -15.6126  -17.6578 N   0  0  0  0  0  0  0  0  0  0  0  0
   28.6829  -21.3876  -11.2712 C   0  0  0  0  0  0  0  0  0  0  0  0
   29.6241  -20.3192  -11.4364 C   0  0  0  0  0  0  0  0  0  0  0  0
   30.8287  -20.7654  -10.6394 C   0  0  0  0  0  0  0  0  0  0  0  0
   30.4760  -22.1203  -10.0658 C   0  0  1  0  0  0  0  0  0  0  0  0
   28.9531  -21.9916  -10.0070 C   0  0  0  0  0  0  0  0  0  0  0  0
   28.5290  -21.0451   -8.9405 O   0  0  0  0  0  0  0  0  0  0  0  0
   28.7275  -19.8063   -9.0503 N   0  0  0  0  0  0  0  0  0  0  0  0
   27.8841  -21.4472   -7.7443 C   0  0  1  0  0  0  0  0  0  0  0  0
   27.4513  -20.4978   -6.7095 C   0  0  0  0  0  0  0  0  0  0  0  0
   25.9803  -20.4591   -6.6000 C   0  0  0  0  0  0  0  0  0  0  0  0
   25.3181  -20.1067   -7.8536 C   0  0  0  0  0  0  0  0  0  0  0  0
   24.5610  -20.9972   -8.6287 N   0  0  0  0  0  0  0  0  0  0  0  0
   24.1351  -20.3726   -9.7307 C   0  0  0  0  0  0  0  0  0  0  0  0
   24.5802  -19.1148   -9.7072 C   0  0  0  0  0  0  0  0  0  0  0  0
   24.4148  -18.0651  -10.5683 C   0  0  0  0  0  0  0  0  0  0  0  0
   24.9475  -16.7980  -10.3512 C   0  0  0  0  0  0  0  0  0  0  0  0
   25.6742  -16.6539   -9.1839 C   0  0  0  0  0  0  0  0  0  0  0  0
   25.8588  -17.6873   -8.3008 C   0  0  0  0  0  0  0  0  0  0  0  0
   25.3184  -18.9266   -8.5483 C   0  0  0  0  0  0  0  0  0  0  0  0
   28.1251  -20.8576   -5.4676 O   0  0  0  0  0  0  0  0  0  0  0  0
   28.8679  -21.8639   -5.3158 O   0  0  0  0  0  0  0  0  0  0  0  0
  2  1  1  0
  2  4  1  0
  3  2  2  0
  4  5  1  0
  6  5  1  0
  7  6  1  0
  7  8  1  0
  8  9  1  6
 10  8  1  0
 11 10  2  0
 12 16  1  0
 12 10  1  0
 13 12  1  0
 13 14  1  0
 14 15  1  0
 16 15  1  0
 16 17  1  1
 18 17  2  0
 19 17  1  0
 20 21  1  1
 20 19  1  0
 21 22  1  0
 22 30  1  0
 22 23  2  0
 23 24  1  0
 25 26  2  0
 25 24  1  0
 27 26  1  0
 28 27  2  0
 29 28  1  0
 29 30  2  0
 30 25  1  0
 31 20  1  0
 31 33  1  0
 32 31  2  0
M  END
$$$$
