RPW.pdb
     RDKit          3D

 33 35  0  0  1  0  0  0  0  0999 V2000
   22.6795  -17.9576  -18.2122 N   0  0  0  0  0  0  0  0  0  0  0  0
   21.8623  -17.5091  -17.1508 C   0  0  0  0  0  0  0  0  0  0  0  0
   20.8616  -18.2654  -16.8351 N   0  0  0  0  0  0  0  0  0  0  0  0
   22.1284  -16.2944  -16.4699 N   0  0  0  0  0  0  0  0  0  0  0  0
   23.5530  -15.9030  -16.3350 C   0  0  0  0  0  0  0  0  0  0  0  0
   24.1166  -16.6928  -15.2144 C   0  0  0  0  0  0  0  0  0  0  0  0
   25.5181  -16.4712  -14.8125 C   0  0  0  0  0  0  0  0  0  0  0  0
   26.5128  -16.9612  -15.8332 C   0  0  2  0  0  0  0  0  0  0  0  0
   26.0416  -16.5208  -17.1291 N   0  0  0  0  0  0  0  0  0  0  0  0
   26.5826  -18.4451  -15.7783 C   0  0  0  0  0  0  0  0  0  0  0  0
   25.9900  -19.0477  -16.7434 O   0  0  0  0  0  0  0  0  0  0  0  0
   20.1402  -18.0245  -16.1376 N   0  0  0  0  0  0  0  0  0  0  0  0
   27.2215  -19.2093  -14.7936 C   0  0  0  0  0  0  0  0  0  0  0  0
   27.5060  -18.7761  -13.4572 C   0  0  0  0  0  0  0  0  0  0  0  0
   28.7458  -19.5528  -13.0764 C   0  0  0  0  0  0  0  0  0  0  0  0
   29.1006  -20.3969  -14.2808 C   0  0  1  0  0  0  0  0  0  0  0  0
   27.7170  -20.5417  -14.9162 C   0  0  0  0  0  0  0  0  0  0  0  0
   26.8420  -21.4377  -14.1133 O   0  0  0  0  0  0  0  0  0  0  0  0
   27.0498  -22.6787  -14.0621 N   0  0  0  0  0  0  0  0  0  0  0  0
   25.7316  -20.9823  -13.3597 C   0  0  1  0  0  0  0  0  0  0  0  0
   24.8663  -21.8822  -12.5843 C   0  0  0  0  0  0  0  0  0  0  0  0
   25.5503  -22.3683  -11.3706 C   0  0  0  0  0  0  0  0  0  0  0  0
   25.7577  -21.3251  -10.3690 C   0  0  0  0  0  0  0  0  0  0  0  0
   24.7443  -20.4981   -9.8631 N   0  0  0  0  0  0  0  0  0  0  0  0
   25.2747  -19.6246   -9.0022 C   0  0  0  0  0  0  0  0  0  0  0  0
   26.5883  -19.8466   -8.9240 C   0  0  0  0  0  0  0  0  0  0  0  0
   27.5776  -19.2576   -8.1859 C   0  0  0  0  0  0  0  0  0  0  0  0
   28.9103  -19.6562   -8.2246 C   0  0  0  0  0  0  0  0  0  0  0  0
   29.1878  -20.7105   -9.0748 C   0  0  0  0  0  0  0  0  0  0  0  0
   28.2182  -21.3215   -9.8287 C   0  0  0  0  0  0  0  0  0  0  0  0
   26.9113  -20.9004   -9.7657 C   0  0  0  0  0  0  0  0  0  0  0  0
   23.6196  -21.1758  -12.3149 O   0  0  0  0  0  0  0  0  0  0  0  0
   22.5879  -21.6991  -11.8158 O   0  0  0  0  0  0  0  0  0  0  0  0
  2  1  1  0
  2  4  1  0
  3  2  2  0
  4  5  1  0
  6  5  1  0
  7  6  1  0
  7  8  1  0
  8  9  1  6
 10  8  1  0
 11 10  2  0
 12 16  1  0
 12 10  1  0
 13 12  1  0
 13 14  1  0
 14 15  1  0
 16 15  1  0
 16 17  1  1
 18 17  2  0
 19 17  1  0
 20 21  1  1
 20 19  1  0
 21 22  1  0
 22 30  1  0
 22 23  2  0
 23 24  1  0
 25 26  2  0
 25 24  1  0
 27 26  1  0
 28 27  2  0
 29 28  1  0
 29 30  2  0
 30 25  1  0
 31 20  1  0
 31 33  1  0
 32 31  2  0
M  END
$$$$
