RPW.pdb
     RDKit          3D

 33 35  0  0  1  0  0  0  0  0999 V2000
   22.5739  -17.1673  -18.2642 N   0  0  0  0  0  0  0  0  0  0  0  0
   23.4334  -16.2139  -18.8537 C   0  0  0  0  0  0  0  0  0  0  0  0
   23.0863  -15.7667  -20.0168 N   0  0  0  0  0  0  0  0  0  0  0  0
   24.6126  -15.7725  -18.2020 N   0  0  0  0  0  0  0  0  0  0  0  0
   25.7098  -16.7617  -18.0652 C   0  0  0  0  0  0  0  0  0  0  0  0
   25.0988  -18.0255  -17.5891 C   0  0  0  0  0  0  0  0  0  0  0  0
   25.5300  -18.5900  -16.2968 C   0  0  0  0  0  0  0  0  0  0  0  0
   26.4818  -19.7493  -16.4435 C   0  0  2  0  0  0  0  0  0  0  0  0
   25.9627  -20.5923  -17.4996 N   0  0  0  0  0  0  0  0  0  0  0  0
   26.5461  -20.4976  -15.1606 C   0  0  0  0  0  0  0  0  0  0  0  0
   25.6904  -21.4467  -15.0477 O   0  0  0  0  0  0  0  0  0  0  0  0
   23.5702  -15.0089  -20.5233 N   0  0  0  0  0  0  0  0  0  0  0  0
   27.4348  -20.2583  -14.1048 C   0  0  0  0  0  0  0  0  0  0  0  0
   28.3995  -19.1995  -14.0517 C   0  0  0  0  0  0  0  0  0  0  0  0
   29.5106  -19.7587  -13.1926 C   0  0  0  0  0  0  0  0  0  0  0  0
   29.0860  -21.1609  -12.8150 C   0  0  1  0  0  0  0  0  0  0  0  0
   27.5667  -21.0055  -12.8964 C   0  0  0  0  0  0  0  0  0  0  0  0
   27.0452  -20.1748  -11.7779 O   0  0  0  0  0  0  0  0  0  0  0  0
   27.0315  -18.9176  -11.8498 N   0  0  0  0  0  0  0  0  0  0  0  0
   26.5345  -20.7138  -10.5709 C   0  0  1  0  0  0  0  0  0  0  0  0
   25.2260  -20.3391  -10.0167 C   0  0  0  0  0  0  0  0  0  0  0  0
   24.1624  -20.4497  -11.0334 C   0  0  0  0  0  0  0  0  0  0  0  0
   22.8353  -20.1234  -10.5171 C   0  0  0  0  0  0  0  0  0  0  0  0
   22.5422  -19.9057   -9.1630 N   0  0  0  0  0  0  0  0  0  0  0  0
   21.2330  -19.6760   -9.0251 C   0  0  0  0  0  0  0  0  0  0  0  0
   20.6607  -19.7333  -10.2293 C   0  0  0  0  0  0  0  0  0  0  0  0
   19.3693  -19.5537  -10.6426 C   0  0  0  0  0  0  0  0  0  0  0  0
   18.9672  -19.6305  -11.9726 C   0  0  0  0  0  0  0  0  0  0  0  0
   19.9735  -19.9063  -12.8797 C   0  0  0  0  0  0  0  0  0  0  0  0
   21.2776  -20.0924  -12.4966 C   0  0  0  0  0  0  0  0  0  0  0  0
   21.6385  -20.0100  -11.1729 C   0  0  0  0  0  0  0  0  0  0  0  0
   24.9954  -21.1570   -8.8318 O   0  0  0  0  0  0  0  0  0  0  0  0
   24.6072  -20.7173   -7.7168 O   0  0  0  0  0  0  0  0  0  0  0  0
  2  1  1  0
  2  4  1  0
  3  2  2  0
  4  5  1  0
  6  5  1  0
  7  6  1  0
  7  8  1  0
  8  9  1  6
 10  8  1  0
 11 10  2  0
 12 16  1  0
 12 10  1  0
 13 12  1  0
 13 14  1  0
 14 15  1  0
 16 15  1  0
 16 17  1  1
 18 17  2  0
 19 17  1  0
 20 21  1  1
 20 19  1  0
 21 22  1  0
 22 30  1  0
 22 23  2  0
 23 24  1  0
 25 26  2  0
 25 24  1  0
 27 26  1  0
 28 27  2  0
 29 28  1  0
 29 30  2  0
 30 25  1  0
 31 20  1  0
 31 33  1  0
 32 31  2  0
M  END
$$$$
