RPW.pdb
     RDKit          3D

 33 35  0  0  1  0  0  0  0  0999 V2000
   32.4324  -24.3458  -18.8871 N   0  0  0  0  0  0  0  0  0  0  0  0
   31.7868  -24.6685  -20.1013 C   0  0  0  0  0  0  0  0  0  0  0  0
   32.4763  -25.3515  -20.9565 N   0  0  0  0  0  0  0  0  0  0  0  0
   30.4538  -24.2640  -20.3649 N   0  0  0  0  0  0  0  0  0  0  0  0
   29.7242  -23.6049  -19.2539 C   0  0  0  0  0  0  0  0  0  0  0  0
   28.5075  -24.4109  -18.9943 C   0  0  0  0  0  0  0  0  0  0  0  0
   27.5421  -23.9484  -17.9800 C   0  0  0  0  0  0  0  0  0  0  0  0
   28.1353  -23.8481  -16.5982 C   0  0  2  0  0  0  0  0  0  0  0  0
   28.1266  -25.1820  -16.0359 N   0  0  0  0  0  0  0  0  0  0  0  0
   27.3086  -22.9276  -15.7742 C   0  0  0  0  0  0  0  0  0  0  0  0
   26.6241  -23.4989  -14.8518 O   0  0  0  0  0  0  0  0  0  0  0  0
   32.1648  -25.5808  -21.9132 N   0  0  0  0  0  0  0  0  0  0  0  0
   27.2219  -21.5371  -15.9188 C   0  0  0  0  0  0  0  0  0  0  0  0
   27.8438  -20.7670  -16.9554 C   0  0  0  0  0  0  0  0  0  0  0  0
   28.0863  -19.4191  -16.3154 C   0  0  0  0  0  0  0  0  0  0  0  0
   27.5763  -19.5292  -14.8953 C   0  0  1  0  0  0  0  0  0  0  0  0
   26.5207  -20.6204  -15.0798 C   0  0  0  0  0  0  0  0  0  0  0  0
   25.3411  -20.1131  -15.8310 O   0  0  0  0  0  0  0  0  0  0  0  0
   25.2708  -20.2176  -17.0840 N   0  0  0  0  0  0  0  0  0  0  0  0
   24.2283  -19.4866  -15.2164 C   0  0  1  0  0  0  0  0  0  0  0  0
   22.8903  -20.0928  -15.1739 C   0  0  0  0  0  0  0  0  0  0  0  0
   22.8750  -21.2972  -14.3216 C   0  0  0  0  0  0  0  0  0  0  0  0
   22.9742  -20.9956  -12.8956 C   0  0  0  0  0  0  0  0  0  0  0  0
   21.9510  -20.4108  -12.1353 N   0  0  0  0  0  0  0  0  0  0  0  0
   22.3796  -20.2283  -10.8828 C   0  0  0  0  0  0  0  0  0  0  0  0
   23.6360  -20.6691  -10.7933 C   0  0  0  0  0  0  0  0  0  0  0  0
   24.5154  -20.7330   -9.7477 C   0  0  0  0  0  0  0  0  0  0  0  0
   25.7985  -21.2617   -9.8501 C   0  0  0  0  0  0  0  0  0  0  0  0
   26.1461  -21.7324  -11.1027 C   0  0  0  0  0  0  0  0  0  0  0  0
   25.2873  -21.6817  -12.1713 C   0  0  0  0  0  0  0  0  0  0  0  0
   24.0267  -21.1513  -12.0336 C   0  0  0  0  0  0  0  0  0  0  0  0
   21.9493  -19.0616  -14.7531 O   0  0  0  0  0  0  0  0  0  0  0  0
   20.6948  -19.1649  -14.8075 O   0  0  0  0  0  0  0  0  0  0  0  0
  2  1  1  0
  2  4  1  0
  3  2  2  0
  4  5  1  0
  6  5  1  0
  7  6  1  0
  7  8  1  0
  8  9  1  1
 10  8  1  0
 11 10  2  0
 12 16  1  0
 12 10  1  0
 13 12  1  0
 13 14  1  0
 14 15  1  0
 16 15  1  0
 16 17  1  6
 18 17  2  0
 19 17  1  0
 20 21  1  6
 20 19  1  0
 21 22  1  0
 22 30  1  0
 22 23  2  0
 23 24  1  0
 25 26  2  0
 25 24  1  0
 27 26  1  0
 28 27  2  0
 29 28  1  0
 29 30  2  0
 30 25  1  0
 31 20  1  0
 31 33  1  0
 32 31  2  0
M  END
$$$$
