RPW.pdb
     RDKit          3D

 33 35  0  0  1  0  0  0  0  0999 V2000
   22.0838  -19.9961  -15.5069 N   0  0  0  0  0  0  0  0  0  0  0  0
   21.5677  -20.0282  -16.8214 C   0  0  0  0  0  0  0  0  0  0  0  0
   20.3024  -19.7919  -16.9494 N   0  0  0  0  0  0  0  0  0  0  0  0
   22.3957  -20.3043  -17.9386 N   0  0  0  0  0  0  0  0  0  0  0  0
   23.8107  -20.6462  -17.6524 C   0  0  0  0  0  0  0  0  0  0  0  0
   23.8335  -22.0566  -17.1967 C   0  0  0  0  0  0  0  0  0  0  0  0
   24.8237  -22.4688  -16.1847 C   0  0  0  0  0  0  0  0  0  0  0  0
   26.2098  -21.9468  -16.4635 C   0  0  2  0  0  0  0  0  0  0  0  0
   26.9217  -22.9914  -17.1688 N   0  0  0  0  0  0  0  0  0  0  0  0
   26.8839  -21.6311  -15.1767 C   0  0  0  0  0  0  0  0  0  0  0  0
   27.7691  -22.4839  -14.8095 O   0  0  0  0  0  0  0  0  0  0  0  0
   19.7985  -19.7613  -17.8494 N   0  0  0  0  0  0  0  0  0  0  0  0
   26.6393  -20.5168  -14.3641 C   0  0  0  0  0  0  0  0  0  0  0  0
   25.5927  -19.5571  -14.5594 C   0  0  0  0  0  0  0  0  0  0  0  0
   26.1525  -18.2801  -13.9751 C   0  0  0  0  0  0  0  0  0  0  0  0
   27.5427  -18.6167  -13.4818 C   0  0  1  0  0  0  0  0  0  0  0  0
   27.3685  -20.1111  -13.2067 C   0  0  0  0  0  0  0  0  0  0  0  0
   26.5129  -20.3472  -12.0129 O   0  0  0  0  0  0  0  0  0  0  0  0
   25.2570  -20.2926  -12.0887 N   0  0  0  0  0  0  0  0  0  0  0  0
   27.0253  -20.6449  -10.7256 C   0  0  2  0  0  0  0  0  0  0  0  0
   26.2328  -21.3102   -9.6821 C   0  0  0  0  0  0  0  0  0  0  0  0
   27.0247  -21.5079   -8.4528 C   0  0  0  0  0  0  0  0  0  0  0  0
   27.3093  -20.2624   -7.7440 C   0  0  0  0  0  0  0  0  0  0  0  0
   27.0943  -18.9815   -8.2730 N   0  0  0  0  0  0  0  0  0  0  0  0
   27.5007  -18.0644   -7.3902 C   0  0  0  0  0  0  0  0  0  0  0  0
   27.9697  -18.6910   -6.3093 C   0  0  0  0  0  0  0  0  0  0  0  0
   28.4784  -18.2283   -5.1271 C   0  0  0  0  0  0  0  0  0  0  0  0
   28.8987  -19.0570   -4.0911 C   0  0  0  0  0  0  0  0  0  0  0  0
   28.7704  -20.4128   -4.3292 C   0  0  0  0  0  0  0  0  0  0  0  0
   28.2650  -20.9081   -5.5045 C   0  0  0  0  0  0  0  0  0  0  0  0
   27.8602  -20.0593   -6.5069 C   0  0  0  0  0  0  0  0  0  0  0  0
   25.0186  -20.5284   -9.4812 O   0  0  0  0  0  0  0  0  0  0  0  0
   24.8611  -19.3339   -9.8498 O   0  0  0  0  0  0  0  0  0  0  0  0
  2  1  1  0
  2  4  1  0
  3  2  2  0
  4  5  1  0
  6  5  1  0
  7  6  1  0
  7  8  1  0
  8  9  1  1
 10  8  1  0
 11 10  2  0
 12 16  1  0
 12 10  1  0
 13 12  1  0
 13 14  1  0
 14 15  1  0
 16 15  1  0
 16 17  1  1
 18 17  2  0
 19 17  1  0
 20 21  1  6
 20 19  1  0
 21 22  1  0
 22 30  1  0
 22 23  2  0
 23 24  1  0
 25 26  2  0
 25 24  1  0
 27 26  1  0
 28 27  2  0
 29 28  1  0
 29 30  2  0
 30 25  1  0
 31 20  1  0
 31 33  1  0
 32 31  2  0
M  END
$$$$
