RPW.pdb
     RDKit          3D

 33 35  0  0  1  0  0  0  0  0999 V2000
   18.1121  -27.5218   -0.5667 N   0  0  0  0  0  0  0  0  0  0  0  0
   19.1112  -27.7724   -1.5334 C   0  0  0  0  0  0  0  0  0  0  0  0
   20.0102  -28.6478   -1.2190 N   0  0  0  0  0  0  0  0  0  0  0  0
   19.1243  -27.0990   -2.7809 N   0  0  0  0  0  0  0  0  0  0  0  0
   17.8181  -26.9363   -3.4653 C   0  0  0  0  0  0  0  0  0  0  0  0
   18.1070  -26.6341   -4.8874 C   0  0  0  0  0  0  0  0  0  0  0  0
   16.9872  -26.5240   -5.8406 C   0  0  0  0  0  0  0  0  0  0  0  0
   16.5053  -27.8592   -6.3468 C   0  0  2  0  0  0  0  0  0  0  0  0
   16.8285  -27.9194   -7.7565 N   0  0  0  0  0  0  0  0  0  0  0  0
   15.0364  -27.9613   -6.1420 C   0  0  0  0  0  0  0  0  0  0  0  0
   14.3260  -27.5736   -7.1373 O   0  0  0  0  0  0  0  0  0  0  0  0
   20.7507  -28.9836   -1.8544 N   0  0  0  0  0  0  0  0  0  0  0  0
   14.3904  -28.4311   -4.9914 C   0  0  0  0  0  0  0  0  0  0  0  0
   15.0390  -28.8445   -3.7819 C   0  0  0  0  0  0  0  0  0  0  0  0
   14.1034  -29.8793   -3.1995 C   0  0  0  0  0  0  0  0  0  0  0  0
   12.9476  -29.9953   -4.1690 C   0  0  1  0  0  0  0  0  0  0  0  0
   12.9875  -28.5994   -4.7926 C   0  0  0  0  0  0  0  0  0  0  0  0
   12.5275  -27.5618   -3.8309 O   0  0  0  0  0  0  0  0  0  0  0  0
   13.2361  -27.2243   -2.8461 N   0  0  0  0  0  0  0  0  0  0  0  0
   11.2870  -26.8850   -3.9393 C   0  0  1  0  0  0  0  0  0  0  0  0
   10.8730  -25.8188   -3.0166 C   0  0  0  0  0  0  0  0  0  0  0  0
    9.9818  -24.8500   -3.6834 C   0  0  0  0  0  0  0  0  0  0  0  0
    8.6682  -25.4022   -4.0055 C   0  0  0  0  0  0  0  0  0  0  0  0
    8.3469  -26.7664   -3.9552 N   0  0  0  0  0  0  0  0  0  0  0  0
    7.0827  -26.9381   -4.3525 C   0  0  0  0  0  0  0  0  0  0  0  0
    6.5660  -25.7463   -4.6583 C   0  0  0  0  0  0  0  0  0  0  0  0
    5.3247  -25.3657   -5.0886 C   0  0  0  0  0  0  0  0  0  0  0  0
    4.9647  -24.0439   -5.3328 C   0  0  0  0  0  0  0  0  0  0  0  0
    5.9589  -23.1093   -5.1105 C   0  0  0  0  0  0  0  0  0  0  0  0
    7.2136  -23.4593   -4.6800 C   0  0  0  0  0  0  0  0  0  0  0  0
    7.5344  -24.7758   -4.4497 C   0  0  0  0  0  0  0  0  0  0  0  0
   10.2822  -26.4519   -1.8436 O   0  0  0  0  0  0  0  0  0  0  0  0
    9.9317  -27.6603   -1.7763 O   0  0  0  0  0  0  0  0  0  0  0  0
  2  1  1  0
  2  4  1  0
  3  2  2  0
  4  5  1  0
  6  5  1  0
  7  6  1  0
  7  8  1  0
  8  9  1  6
 10  8  1  0
 11 10  2  0
 12 16  1  0
 12 10  1  0
 13 12  1  0
 13 14  1  0
 14 15  1  0
 16 15  1  0
 16 17  1  1
 18 17  2  0
 19 17  1  0
 20 21  1  1
 20 19  1  0
 21 22  1  0
 22 30  1  0
 22 23  2  0
 23 24  1  0
 25 26  2  0
 25 24  1  0
 27 26  1  0
 28 27  2  0
 29 28  1  0
 29 30  2  0
 30 25  1  0
 31 20  1  0
 31 33  1  0
 32 31  2  0
M  END
$$$$
