RPW.pdb
     RDKit          3D

 33 35  0  0  1  0  0  0  0  0999 V2000
   23.2068  -26.5690  -15.2278 N   0  0  0  0  0  0  0  0  0  0  0  0
   23.0235  -25.6351  -16.2717 C   0  0  0  0  0  0  0  0  0  0  0  0
   22.2533  -26.0019  -17.2440 N   0  0  0  0  0  0  0  0  0  0  0  0
   23.6514  -24.3642  -16.2510 N   0  0  0  0  0  0  0  0  0  0  0  0
   24.4207  -24.0196  -15.0301 C   0  0  0  0  0  0  0  0  0  0  0  0
   25.4041  -22.9795  -15.4150 C   0  0  0  0  0  0  0  0  0  0  0  0
   26.6411  -23.3820  -16.1097 C   0  0  0  0  0  0  0  0  0  0  0  0
   27.6141  -22.2462  -16.2953 C   0  0  2  0  0  0  0  0  0  0  0  0
   28.7975  -22.7999  -16.9185 N   0  0  0  0  0  0  0  0  0  0  0  0
   27.9459  -21.6617  -14.9693 C   0  0  0  0  0  0  0  0  0  0  0  0
   28.8815  -22.2666  -14.3335 O   0  0  0  0  0  0  0  0  0  0  0  0
   22.0561  -25.4348  -18.0834 N   0  0  0  0  0  0  0  0  0  0  0  0
   27.3411  -20.5435  -14.3814 C   0  0  0  0  0  0  0  0  0  0  0  0
   26.2051  -19.8410  -14.9014 C   0  0  0  0  0  0  0  0  0  0  0  0
   26.3927  -18.4244  -14.4081 C   0  0  0  0  0  0  0  0  0  0  0  0
   27.6852  -18.4200  -13.6216 C   0  0  1  0  0  0  0  0  0  0  0  0
   27.7263  -19.8828  -13.1768 C   0  0  0  0  0  0  0  0  0  0  0  0
   26.6947  -20.1649  -12.1427 O   0  0  0  0  0  0  0  0  0  0  0  0
   25.4947  -20.3790  -12.4589 N   0  0  0  0  0  0  0  0  0  0  0  0
   26.9686  -20.2148  -10.7530 C   0  0  2  0  0  0  0  0  0  0  0  0
   26.4002  -21.2347   -9.8607 C   0  0  0  0  0  0  0  0  0  0  0  0
   27.2827  -21.4871   -8.7054 C   0  0  0  0  0  0  0  0  0  0  0  0
   27.3167  -20.3795   -7.7533 C   0  0  0  0  0  0  0  0  0  0  0  0
   26.6378  -19.1644   -7.9251 N   0  0  0  0  0  0  0  0  0  0  0  0
   26.9154  -18.3537   -6.8997 C   0  0  0  0  0  0  0  0  0  0  0  0
   27.7441  -18.9871   -6.0673 C   0  0  0  0  0  0  0  0  0  0  0  0
   28.3082  -18.6205   -4.8765 C   0  0  0  0  0  0  0  0  0  0  0  0
   29.1423  -19.4480   -4.1308 C   0  0  0  0  0  0  0  0  0  0  0  0
   29.3764  -20.6971   -4.6751 C   0  0  0  0  0  0  0  0  0  0  0  0
   28.8263  -21.0941   -5.8675 C   0  0  0  0  0  0  0  0  0  0  0  0
   28.0072  -20.2494   -6.5779 C   0  0  0  0  0  0  0  0  0  0  0  0
   25.0570  -20.8033   -9.4926 O   0  0  0  0  0  0  0  0  0  0  0  0
   24.5659  -19.6729   -9.7541 O   0  0  0  0  0  0  0  0  0  0  0  0
  2  1  1  0
  2  4  1  0
  3  2  2  0
  4  5  1  0
  6  5  1  0
  7  6  1  0
  7  8  1  0
  8  9  1  1
 10  8  1  0
 11 10  2  0
 12 16  1  0
 12 10  1  0
 13 12  1  0
 13 14  1  0
 14 15  1  0
 16 15  1  0
 16 17  1  1
 18 17  2  0
 19 17  1  0
 20 21  1  1
 20 19  1  0
 21 22  1  0
 22 30  1  0
 22 23  2  0
 23 24  1  0
 25 26  2  0
 25 24  1  0
 27 26  1  0
 28 27  2  0
 29 28  1  0
 29 30  2  0
 30 25  1  0
 31 20  1  0
 31 33  1  0
 32 31  2  0
M  END
$$$$
