TRP.pdb
     RDKit          3D

 26 26  0  0  1  0  0  0  0  0999 V2000
    8.3423  -12.5697   20.4077 C   0  0  0  0  0  0  0  0  0  0  0  0
    7.6672  -13.5707   19.5274 C   0  0  1  0  0  0  0  0  0  0  0  0
    8.1117  -13.4681   18.2061 O   0  0  0  0  0  0  0  0  0  0  0  0
    7.9701  -14.9696   20.0165 C   0  0  2  0  0  0  0  0  0  0  0  0
    7.3301  -15.8815   19.0976 N   0  0  0  0  0  0  0  0  0  0  0  0
    7.4070  -15.1636   21.3928 C   0  0  0  0  0  0  0  0  0  0  0  0
    6.1706  -15.0659   21.5848 O   0  0  0  0  0  0  0  0  0  0  0  0
    6.5338  -21.9244   22.5000 N   0  0  0  0  0  0  0  0  0  0  0  0
    5.6323  -21.2059   23.3307 C   0  0  0  0  0  0  0  0  0  0  0  0
    4.3805  -21.5656   23.4426 N   0  0  0  0  0  0  0  0  0  0  0  0
    6.0428  -20.0767   24.0768 N   0  0  0  0  0  0  0  0  0  0  0  0
    7.3132  -19.3964   23.8806 C   0  0  0  0  0  0  0  0  0  0  0  0
    7.1724  -17.9757   23.4388 C   0  0  0  0  0  0  0  0  0  0  0  0
    7.9349  -16.9985   24.2819 C   0  0  0  0  0  0  0  0  0  0  0  0
    7.7786  -15.5578   23.8252 C   0  0  2  0  0  0  0  0  0  0  0  0
    8.3019  -15.4559   22.4511 N   0  0  0  0  0  0  0  0  0  0  0  0
    8.5557  -14.6693   24.7261 C   0  0  0  0  0  0  0  0  0  0  0  0
    9.7614  -14.4605   24.4599 O   0  0  0  0  0  0  0  0  0  0  0  0
    3.7071  -20.9683   23.9914 N   0  0  0  0  0  0  0  0  0  0  0  0
    7.9821  -14.0542   25.8672 C   0  0  0  0  0  0  0  0  0  0  0  0
    6.6319  -14.1699   26.3778 C   0  0  0  0  0  0  0  0  0  0  0  0
    6.3214  -12.7831   26.9311 C   0  0  0  0  0  0  0  0  0  0  0  0
    7.6296  -12.0654   26.9893 C   0  0  1  0  0  0  0  0  0  0  0  0
    8.6612  -13.1433   26.7944 C   0  0  0  0  0  0  0  0  0  0  0  0
    9.0011  -13.8650   28.0298 O   0  0  0  0  0  0  0  0  0  0  0  0
    8.6521  -15.1796   28.2670 O   0  0  0  0  0  0  0  0  0  0  0  0
  2  4  1  0
  2  1  1  1
  3  2  1  0
  4  5  1  6
  6  4  1  0
  6  7  2  0
  9  8  1  0
 10  9  2  0
 11  9  1  0
 12 11  1  0
 12 13  1  0
 13 14  1  0
 15 14  1  1
 15 16  1  0
 16  6  1  0
 17 15  1  0
 18 17  2  0
 19 17  1  0
 19 20  1  0
 21 20  1  0
 22 21  1  0
 22 23  1  0
 23 19  1  0
 23 24  1  1
 25 24  1  0
 26 24  2  0
M  END
$$$$
