TRP.pdb
     RDKit          3D

 26 26  0  0  1  0  0  0  0  0999 V2000
   10.2963  -13.3176   20.6805 C   0  0  0  0  0  0  0  0  0  0  0  0
    9.2216  -12.9175   19.7224 C   0  0  1  0  0  0  0  0  0  0  0  0
    9.7355  -12.7084   18.4395 O   0  0  0  0  0  0  0  0  0  0  0  0
    8.1788  -14.0099   19.6373 C   0  0  2  0  0  0  0  0  0  0  0  0
    7.1873  -13.5681   18.6848 N   0  0  0  0  0  0  0  0  0  0  0  0
    7.5360  -14.2092   20.9775 C   0  0  0  0  0  0  0  0  0  0  0  0
    6.7430  -13.3470   21.4279 O   0  0  0  0  0  0  0  0  0  0  0  0
    7.6352  -21.3535   26.5919 N   0  0  0  0  0  0  0  0  0  0  0  0
    7.0081  -20.2621   27.2512 C   0  0  0  0  0  0  0  0  0  0  0  0
    6.4982  -20.3955   28.4475 N   0  0  0  0  0  0  0  0  0  0  0  0
    6.9097  -18.9847   26.6523 N   0  0  0  0  0  0  0  0  0  0  0  0
    7.1946  -18.7252   25.2499 C   0  0  0  0  0  0  0  0  0  0  0  0
    6.9946  -17.2992   24.8498 C   0  0  0  0  0  0  0  0  0  0  0  0
    7.3278  -17.0178   23.4155 C   0  0  0  0  0  0  0  0  0  0  0  0
    7.3277  -15.5368   23.0760 C   0  0  2  0  0  0  0  0  0  0  0  0
    7.8484  -15.3832   21.7058 N   0  0  0  0  0  0  0  0  0  0  0  0
    8.2049  -14.8135   24.0311 C   0  0  0  0  0  0  0  0  0  0  0  0
    9.4372  -14.7944   23.8089 O   0  0  0  0  0  0  0  0  0  0  0  0
    6.0806  -19.5614   28.9388 N   0  0  0  0  0  0  0  0  0  0  0  0
    7.6975  -14.1486   25.1756 C   0  0  0  0  0  0  0  0  0  0  0  0
    6.3247  -14.0297   25.6215 C   0  0  0  0  0  0  0  0  0  0  0  0
    6.2487  -12.6330   26.2289 C   0  0  0  0  0  0  0  0  0  0  0  0
    7.6625  -12.1762   26.3786 C   0  0  2  0  0  0  0  0  0  0  0  0
    8.4850  -13.4197   26.1751 C   0  0  0  0  0  0  0  0  0  0  0  0
    8.6214  -14.2418   27.3866 O   0  0  0  0  0  0  0  0  0  0  0  0
    8.0483  -15.4896   27.5313 O   0  0  0  0  0  0  0  0  0  0  0  0
  2  4  1  0
  2  1  1  1
  3  2  1  0
  4  5  1  6
  6  4  1  0
  6  7  2  0
  9  8  1  0
 10  9  2  0
 11  9  1  0
 12 11  1  0
 12 13  1  0
 13 14  1  0
 15 14  1  1
 15 16  1  0
 16  6  1  0
 17 15  1  0
 18 17  2  0
 19 17  1  0
 19 20  1  0
 21 20  1  0
 22 21  1  0
 22 23  1  0
 23 19  1  0
 23 24  1  1
 25 24  1  0
 26 24  2  0
M  END
$$$$
