TRP.pdb
     RDKit          3D

 26 26  0  0  1  0  0  0  0  0999 V2000
    9.7756  -13.6464   18.2240 C   0  0  0  0  0  0  0  0  0  0  0  0
    9.3720  -13.6334   19.6626 C   0  0  1  0  0  0  0  0  0  0  0  0
    9.7044  -12.4210   20.2736 O   0  0  0  0  0  0  0  0  0  0  0  0
    7.8753  -13.8207   19.7763 C   0  0  2  0  0  0  0  0  0  0  0  0
    7.2631  -12.6226   19.2516 N   0  0  0  0  0  0  0  0  0  0  0  0
    7.4892  -13.9951   21.2148 C   0  0  0  0  0  0  0  0  0  0  0  0
    7.1139  -13.0050   21.8886 O   0  0  0  0  0  0  0  0  0  0  0  0
    7.8092  -21.3850   26.5820 N   0  0  0  0  0  0  0  0  0  0  0  0
    7.0942  -20.3408   27.2282 C   0  0  0  0  0  0  0  0  0  0  0  0
    6.4627  -20.5476   28.3539 N   0  0  0  0  0  0  0  0  0  0  0  0
    7.0350  -19.0335   26.6920 N   0  0  0  0  0  0  0  0  0  0  0  0
    7.2765  -18.7222   25.2920 C   0  0  0  0  0  0  0  0  0  0  0  0
    7.0334  -17.2893   24.9442 C   0  0  0  0  0  0  0  0  0  0  0  0
    7.2403  -16.9721   23.4937 C   0  0  0  0  0  0  0  0  0  0  0  0
    7.1653  -15.4863   23.1849 C   0  0  2  0  0  0  0  0  0  0  0  0
    7.5607  -15.2926   21.7783 N   0  0  0  0  0  0  0  0  0  0  0  0
    8.0991  -14.7514   24.0752 C   0  0  0  0  0  0  0  0  0  0  0  0
    9.2924  -14.6304   23.7152 O   0  0  0  0  0  0  0  0  0  0  0  0
    5.9748  -19.7491   28.8394 N   0  0  0  0  0  0  0  0  0  0  0  0
    7.6874  -14.1861   25.3084 C   0  0  0  0  0  0  0  0  0  0  0  0
    6.3944  -14.2655   25.9558 C   0  0  0  0  0  0  0  0  0  0  0  0
    6.2274  -12.9052   26.6247 C   0  0  0  0  0  0  0  0  0  0  0  0
    7.5746  -12.2626   26.5834 C   0  0  2  0  0  0  0  0  0  0  0  0
    8.5139  -13.3773   26.2101 C   0  0  0  0  0  0  0  0  0  0  0  0
    8.9394  -14.1982   27.3536 O   0  0  0  0  0  0  0  0  0  0  0  0
    8.5755  -15.5193   27.5228 O   0  0  0  0  0  0  0  0  0  0  0  0
  2  4  1  0
  2  1  1  6
  3  2  1  0
  4  5  1  1
  6  4  1  0
  6  7  2  0
  9  8  1  0
 10  9  2  0
 11  9  1  0
 12 11  1  0
 12 13  1  0
 13 14  1  0
 15 14  1  1
 15 16  1  0
 16  6  1  0
 17 15  1  0
 18 17  2  0
 19 17  1  0
 19 20  1  0
 21 20  1  0
 22 21  1  0
 22 23  1  0
 23 19  1  0
 23 24  1  1
 25 24  1  0
 26 24  2  0
M  END
$$$$
