TRP.pdb
     RDKit          3D

 26 26  0  0  1  0  0  0  0  0999 V2000
    8.4862  -11.9192   20.3947 C   0  0  0  0  0  0  0  0  0  0  0  0
    8.2043  -12.8024   19.2228 C   0  0  1  0  0  0  0  0  0  0  0  0
    8.8814  -12.3646   18.0810 O   0  0  0  0  0  0  0  0  0  0  0  0
    8.6577  -14.2136   19.5243 C   0  0  2  0  0  0  0  0  0  0  0  0
    8.2848  -15.0241   18.3887 N   0  0  0  0  0  0  0  0  0  0  0  0
    7.9662  -14.7214   20.7543 C   0  0  0  0  0  0  0  0  0  0  0  0
    6.7285  -14.9292   20.7382 O   0  0  0  0  0  0  0  0  0  0  0  0
   10.9590  -20.0733   19.9823 N   0  0  0  0  0  0  0  0  0  0  0  0
    9.7040  -19.5948   20.4460 C   0  0  0  0  0  0  0  0  0  0  0  0
    8.7865  -19.1803   19.6121 N   0  0  0  0  0  0  0  0  0  0  0  0
    9.3851  -19.5484   21.8231 N   0  0  0  0  0  0  0  0  0  0  0  0
    8.1013  -19.1022   22.3410 C   0  0  0  0  0  0  0  0  0  0  0  0
    7.8636  -17.6360   22.1768 C   0  0  0  0  0  0  0  0  0  0  0  0
    8.2423  -16.8206   23.3764 C   0  0  0  0  0  0  0  0  0  0  0  0
    8.0643  -15.3258   23.1699 C   0  0  2  0  0  0  0  0  0  0  0  0
    8.7432  -14.9550   21.9153 N   0  0  0  0  0  0  0  0  0  0  0  0
    8.6779  -14.5958   24.3081 C   0  0  0  0  0  0  0  0  0  0  0  0
    9.9133  -14.3923   24.2871 O   0  0  0  0  0  0  0  0  0  0  0  0
    7.8680  -18.8143   19.9777 N   0  0  0  0  0  0  0  0  0  0  0  0
    7.9172  -14.1247   25.4077 C   0  0  0  0  0  0  0  0  0  0  0  0
    6.4900  -14.2237   25.6323 C   0  0  0  0  0  0  0  0  0  0  0  0
    6.1315  -12.9200   26.3377 C   0  0  0  0  0  0  0  0  0  0  0  0
    7.4299  -12.3120   26.7549 C   0  0  1  0  0  0  0  0  0  0  0  0
    8.4374  -13.4161   26.5815 C   0  0  0  0  0  0  0  0  0  0  0  0
    8.5022  -14.3405   27.7234 O   0  0  0  0  0  0  0  0  0  0  0  0
    9.1556  -14.0504   28.9046 O   0  0  0  0  0  0  0  0  0  0  0  0
  2  4  1  0
  2  1  1  1
  3  2  1  0
  4  5  1  6
  6  4  1  0
  6  7  2  0
  9  8  1  0
 10  9  2  0
 11  9  1  0
 12 11  1  0
 12 13  1  0
 13 14  1  0
 15 14  1  1
 15 16  1  0
 16  6  1  0
 17 15  1  0
 18 17  2  0
 19 17  1  0
 19 20  1  0
 21 20  1  0
 22 21  1  0
 22 23  1  0
 23 19  1  0
 23 24  1  1
 25 24  1  0
 26 24  2  0
M  END
$$$$
