TRP.pdb
     RDKit          3D

 26 26  0  0  1  0  0  0  0  0999 V2000
    9.4168  -14.6756   18.7180 C   0  0  0  0  0  0  0  0  0  0  0  0
    8.9851  -14.4482   20.1304 C   0  0  1  0  0  0  0  0  0  0  0  0
    9.1706  -13.1161   20.5111 O   0  0  0  0  0  0  0  0  0  0  0  0
    7.5158  -14.7770   20.2760 C   0  0  2  0  0  0  0  0  0  0  0  0
    6.7877  -13.7762   19.5317 N   0  0  0  0  0  0  0  0  0  0  0  0
    7.1189  -14.7178   21.7209 C   0  0  0  0  0  0  0  0  0  0  0  0
    6.4451  -13.7488   22.1478 O   0  0  0  0  0  0  0  0  0  0  0  0
    8.5409  -20.9573   27.9517 N   0  0  0  0  0  0  0  0  0  0  0  0
    7.1944  -20.7729   27.5369 C   0  0  0  0  0  0  0  0  0  0  0  0
    6.3050  -21.7199   27.6816 N   0  0  0  0  0  0  0  0  0  0  0  0
    6.7512  -19.5621   26.9558 N   0  0  0  0  0  0  0  0  0  0  0  0
    7.6367  -18.4643   26.6004 C   0  0  0  0  0  0  0  0  0  0  0  0
    6.9333  -17.3026   25.9766 C   0  0  0  0  0  0  0  0  0  0  0  0
    7.1314  -17.1965   24.4944 C   0  0  0  0  0  0  0  0  0  0  0  0
    7.0848  -15.7673   23.9808 C   0  0  2  0  0  0  0  0  0  0  0  0
    7.5230  -15.7741   22.5736 N   0  0  0  0  0  0  0  0  0  0  0  0
    8.0021  -14.9244   24.7889 C   0  0  0  0  0  0  0  0  0  0  0  0
    9.2048  -14.8579   24.4464 O   0  0  0  0  0  0  0  0  0  0  0  0
    5.3027  -21.5492   27.4030 N   0  0  0  0  0  0  0  0  0  0  0  0
    7.5646  -14.1978   25.9248 C   0  0  0  0  0  0  0  0  0  0  0  0
    6.2499  -14.1679   26.5312 C   0  0  0  0  0  0  0  0  0  0  0  0
    6.0943  -12.7301   27.0153 C   0  0  0  0  0  0  0  0  0  0  0  0
    7.4573  -12.1250   26.9398 C   0  0  2  0  0  0  0  0  0  0  0  0
    8.3809  -13.2968   26.7447 C   0  0  0  0  0  0  0  0  0  0  0  0
    8.7493  -13.9728   27.9977 O   0  0  0  0  0  0  0  0  0  0  0  0
    8.3248  -15.2430   28.3335 O   0  0  0  0  0  0  0  0  0  0  0  0
  2  4  1  0
  2  1  1  6
  3  2  1  0
  4  5  1  6
  6  4  1  0
  6  7  2  0
  9  8  1  0
 10  9  2  0
 11  9  1  0
 12 11  1  0
 12 13  1  0
 13 14  1  0
 15 14  1  1
 15 16  1  0
 16  6  1  0
 17 15  1  0
 18 17  2  0
 19 17  1  0
 19 20  1  0
 21 20  1  0
 22 21  1  0
 22 23  1  0
 23 19  1  0
 23 24  1  1
 25 24  1  0
 26 24  2  0
M  END
$$$$
