TRP.pdb
     RDKit          3D

 26 26  0  0  1  0  0  0  0  0999 V2000
   10.2789  -13.7328   20.5988 C   0  0  0  0  0  0  0  0  0  0  0  0
    9.1973  -13.0056   19.8680 C   0  0  1  0  0  0  0  0  0  0  0  0
    9.5404  -12.7949   18.5294 O   0  0  0  0  0  0  0  0  0  0  0  0
    7.9210  -13.8167   19.9027 C   0  0  2  0  0  0  0  0  0  0  0  0
    6.9313  -13.0708   19.1613 N   0  0  0  0  0  0  0  0  0  0  0  0
    7.4633  -13.9901   21.3202 C   0  0  0  0  0  0  0  0  0  0  0  0
    7.0632  -12.9981   21.9766 O   0  0  0  0  0  0  0  0  0  0  0  0
    9.0655  -19.5522   26.8808 N   0  0  0  0  0  0  0  0  0  0  0  0
    7.7460  -19.5667   27.4078 C   0  0  0  0  0  0  0  0  0  0  0  0
    7.5069  -19.9791   28.6251 N   0  0  0  0  0  0  0  0  0  0  0  0
    6.6340  -19.1336   26.6489 N   0  0  0  0  0  0  0  0  0  0  0  0
    6.7028  -18.7911   25.2370 C   0  0  0  0  0  0  0  0  0  0  0  0
    6.8014  -17.3224   24.9789 C   0  0  0  0  0  0  0  0  0  0  0  0
    6.8975  -16.9655   23.5261 C   0  0  0  0  0  0  0  0  0  0  0  0
    7.0661  -15.4755   23.2813 C   0  0  2  0  0  0  0  0  0  0  0  0
    7.4970  -15.2889   21.8842 N   0  0  0  0  0  0  0  0  0  0  0  0
    8.1006  -14.9399   24.2021 C   0  0  0  0  0  0  0  0  0  0  0  0
    9.3048  -15.1465   23.9278 O   0  0  0  0  0  0  0  0  0  0  0  0
    6.5411  -19.8792   29.0356 N   0  0  0  0  0  0  0  0  0  0  0  0
    7.7725  -14.2078   25.3708 C   0  0  0  0  0  0  0  0  0  0  0  0
    6.4672  -13.9470   25.9413 C   0  0  0  0  0  0  0  0  0  0  0  0
    6.5845  -12.5387   26.5145 C   0  0  0  0  0  0  0  0  0  0  0  0
    8.0433  -12.2200   26.5170 C   0  0  2  0  0  0  0  0  0  0  0  0
    8.7194  -13.5415   26.2707 C   0  0  0  0  0  0  0  0  0  0  0  0
    8.8932  -14.3509   27.4861 O   0  0  0  0  0  0  0  0  0  0  0  0
    9.8144  -14.0595   28.4724 O   0  0  0  0  0  0  0  0  0  0  0  0
  2  4  1  0
  2  1  1  1
  3  2  1  0
  4  5  1  6
  6  4  1  0
  6  7  2  0
  9  8  1  0
 10  9  2  0
 11  9  1  0
 12 11  1  0
 12 13  1  0
 13 14  1  0
 15 14  1  1
 15 16  1  0
 16  6  1  0
 17 15  1  0
 18 17  2  0
 19 17  1  0
 19 20  1  0
 21 20  1  0
 22 21  1  0
 22 23  1  0
 23 19  1  0
 23 24  1  1
 25 24  1  0
 26 24  2  0
M  END
$$$$
