TRP.pdb
     RDKit          3D

 26 26  0  0  1  0  0  0  0  0999 V2000
   10.4821  -14.4968   18.3299 C   0  0  0  0  0  0  0  0  0  0  0  0
    9.8768  -14.3361   19.6865 C   0  0  1  0  0  0  0  0  0  0  0  0
   10.4997  -13.3106   20.4035 O   0  0  0  0  0  0  0  0  0  0  0  0
    8.4097  -13.9918   19.5551 C   0  0  2  0  0  0  0  0  0  0  0  0
    8.3360  -12.7466   18.8274 N   0  0  0  0  0  0  0  0  0  0  0  0
    7.8012  -13.8174   20.9146 C   0  0  0  0  0  0  0  0  0  0  0  0
    7.7530  -12.6784   21.4394 O   0  0  0  0  0  0  0  0  0  0  0  0
    8.5203  -18.8580   25.8214 N   0  0  0  0  0  0  0  0  0  0  0  0
    8.4280  -19.7465   24.7163 C   0  0  0  0  0  0  0  0  0  0  0  0
    9.3515  -20.6432   24.4887 N   0  0  0  0  0  0  0  0  0  0  0  0
    7.3372  -19.7087   23.8169 N   0  0  0  0  0  0  0  0  0  0  0  0
    6.4046  -18.5965   23.7234 C   0  0  0  0  0  0  0  0  0  0  0  0
    7.0487  -17.3021   23.3452 C   0  0  0  0  0  0  0  0  0  0  0  0
    6.1073  -16.1356   23.3323 C   0  0  0  0  0  0  0  0  0  0  0  0
    6.7756  -14.8258   22.9495 C   0  0  2  0  0  0  0  0  0  0  0  0
    7.2913  -14.9617   21.5755 N   0  0  0  0  0  0  0  0  0  0  0  0
    7.8981  -14.5555   23.8832 C   0  0  0  0  0  0  0  0  0  0  0  0
    9.0642  -14.7995   23.4973 O   0  0  0  0  0  0  0  0  0  0  0  0
    9.2768  -21.2759   23.6487 N   0  0  0  0  0  0  0  0  0  0  0  0
    7.6949  -14.0337   25.1855 C   0  0  0  0  0  0  0  0  0  0  0  0
    6.4487  -13.7137   25.8502 C   0  0  0  0  0  0  0  0  0  0  0  0
    6.7757  -12.4787   26.6830 C   0  0  0  0  0  0  0  0  0  0  0  0
    8.2652  -12.3725   26.6868 C   0  0  2  0  0  0  0  0  0  0  0  0
    8.7401  -13.6988   26.1581 C   0  0  0  0  0  0  0  0  0  0  0  0
    8.8116  -14.7511   27.1828 O   0  0  0  0  0  0  0  0  0  0  0  0
    7.9386  -15.8191   27.2429 O   0  0  0  0  0  0  0  0  0  0  0  0
  2  4  1  0
  2  1  1  6
  3  2  1  0
  4  5  1  6
  6  4  1  0
  6  7  2  0
  9  8  1  0
 10  9  2  0
 11  9  1  0
 12 11  1  0
 12 13  1  0
 13 14  1  0
 15 14  1  1
 15 16  1  0
 16  6  1  0
 17 15  1  0
 18 17  2  0
 19 17  1  0
 19 20  1  0
 21 20  1  0
 22 21  1  0
 22 23  1  0
 23 19  1  0
 23 24  1  1
 25 24  1  0
 26 24  2  0
M  END
$$$$
