TRP.pdb
     RDKit          3D

 26 26  0  0  1  0  0  0  0  0999 V2000
    8.8414  -12.2629   20.2870 C   0  0  0  0  0  0  0  0  0  0  0  0
    8.2435  -13.0381   19.1581 C   0  0  1  0  0  0  0  0  0  0  0  0
    8.9883  -12.8854   17.9851 O   0  0  0  0  0  0  0  0  0  0  0  0
    8.2140  -14.5098   19.5064 C   0  0  2  0  0  0  0  0  0  0  0  0
    7.5871  -15.1895   18.3971 N   0  0  0  0  0  0  0  0  0  0  0  0
    7.4055  -14.7250   20.7509 C   0  0  0  0  0  0  0  0  0  0  0  0
    6.2037  -15.0766   20.6658 O   0  0  0  0  0  0  0  0  0  0  0  0
    8.9847  -18.3738   27.4486 N   0  0  0  0  0  0  0  0  0  0  0  0
    7.6858  -18.9124   27.2442 C   0  0  0  0  0  0  0  0  0  0  0  0
    6.9616  -19.3346   28.2473 N   0  0  0  0  0  0  0  0  0  0  0  0
    7.1135  -19.0129   25.9548 N   0  0  0  0  0  0  0  0  0  0  0  0
    7.6475  -18.3438   24.7789 C   0  0  0  0  0  0  0  0  0  0  0  0
    6.7326  -17.3085   24.2091 C   0  0  0  0  0  0  0  0  0  0  0  0
    7.2915  -16.5941   23.0155 C   0  0  0  0  0  0  0  0  0  0  0  0
    7.4167  -15.0931   23.2155 C   0  0  2  0  0  0  0  0  0  0  0  0
    8.0326  -14.5217   22.0045 N   0  0  0  0  0  0  0  0  0  0  0  0
    8.2802  -14.8244   24.3932 C   0  0  0  0  0  0  0  0  0  0  0  0
    9.4837  -15.1658   24.3380 O   0  0  0  0  0  0  0  0  0  0  0  0
    5.9810  -19.6836   28.0798 N   0  0  0  0  0  0  0  0  0  0  0  0
    7.7913  -14.1985   25.5674 C   0  0  0  0  0  0  0  0  0  0  0  0
    6.4233  -14.0725   26.0258 C   0  0  0  0  0  0  0  0  0  0  0  0
    6.3771  -12.7012   26.6913 C   0  0  0  0  0  0  0  0  0  0  0  0
    7.8000  -12.2778   26.8517 C   0  0  2  0  0  0  0  0  0  0  0  0
    8.5976  -13.5270   26.5917 C   0  0  0  0  0  0  0  0  0  0  0  0
    8.7244  -14.4014   27.7672 O   0  0  0  0  0  0  0  0  0  0  0  0
    9.5008  -14.0948   28.8670 O   0  0  0  0  0  0  0  0  0  0  0  0
  2  4  1  0
  2  1  1  1
  3  2  1  0
  4  5  1  6
  6  4  1  0
  6  7  2  0
  9  8  1  0
 10  9  2  0
 11  9  1  0
 12 11  1  0
 12 13  1  0
 13 14  1  0
 15 14  1  6
 15 16  1  0
 16  6  1  0
 17 15  1  0
 18 17  2  0
 19 17  1  0
 19 20  1  0
 21 20  1  0
 22 21  1  0
 22 23  1  0
 23 19  1  0
 23 24  1  1
 25 24  1  0
 26 24  2  0
M  END
$$$$
