TRP.pdb
     RDKit          3D

 26 26  0  0  1  0  0  0  0  0999 V2000
   10.0894  -14.8512   18.2611 C   0  0  0  0  0  0  0  0  0  0  0  0
    9.6264  -14.5465   19.6488 C   0  0  1  0  0  0  0  0  0  0  0  0
   10.3243  -13.4640   20.1920 O   0  0  0  0  0  0  0  0  0  0  0  0
    8.1552  -14.1949   19.6321 C   0  0  2  0  0  0  0  0  0  0  0  0
    8.0321  -12.9456   18.9182 N   0  0  0  0  0  0  0  0  0  0  0  0
    7.6539  -14.0247   21.0352 C   0  0  0  0  0  0  0  0  0  0  0  0
    7.6438  -12.8868   21.5646 O   0  0  0  0  0  0  0  0  0  0  0  0
    7.6802  -21.5181   26.4938 N   0  0  0  0  0  0  0  0  0  0  0  0
    7.8623  -20.4230   25.6069 C   0  0  0  0  0  0  0  0  0  0  0  0
    8.6132  -20.5308   24.5422 N   0  0  0  0  0  0  0  0  0  0  0  0
    7.2402  -19.1722   25.8272 N   0  0  0  0  0  0  0  0  0  0  0  0
    6.4458  -18.4770   24.8267 C   0  0  0  0  0  0  0  0  0  0  0  0
    6.9954  -17.1407   24.4450 C   0  0  0  0  0  0  0  0  0  0  0  0
    6.0999  -16.3516   23.5380 C   0  0  0  0  0  0  0  0  0  0  0  0
    6.6972  -15.0221   23.1088 C   0  0  2  0  0  0  0  0  0  0  0  0
    7.1997  -15.1715   21.7313 N   0  0  0  0  0  0  0  0  0  0  0  0
    7.8180  -14.6705   24.0172 C   0  0  0  0  0  0  0  0  0  0  0  0
    8.9728  -15.0438   23.7086 O   0  0  0  0  0  0  0  0  0  0  0  0
    8.9257  -21.4817   24.2113 N   0  0  0  0  0  0  0  0  0  0  0  0
    7.6254  -13.9315   25.2115 C   0  0  0  0  0  0  0  0  0  0  0  0
    6.3913  -13.4271   25.7771 C   0  0  0  0  0  0  0  0  0  0  0  0
    6.7864  -12.0969   26.4097 C   0  0  0  0  0  0  0  0  0  0  0  0
    8.2793  -12.0887   26.4424 C   0  0  1  0  0  0  0  0  0  0  0  0
    8.6716  -13.5115   26.1493 C   0  0  0  0  0  0  0  0  0  0  0  0
    8.6496  -14.3852   27.3319 O   0  0  0  0  0  0  0  0  0  0  0  0
    9.6023  -14.3431   28.3303 O   0  0  0  0  0  0  0  0  0  0  0  0
  2  4  1  0
  2  1  1  6
  3  2  1  0
  4  5  1  6
  6  4  1  0
  6  7  2  0
  9  8  1  0
 10  9  2  0
 11  9  1  0
 12 11  1  0
 12 13  1  0
 13 14  1  0
 15 14  1  1
 15 16  1  0
 16  6  1  0
 17 15  1  0
 18 17  2  0
 19 17  1  0
 19 20  1  0
 21 20  1  0
 22 21  1  0
 22 23  1  0
 23 19  1  0
 23 24  1  1
 25 24  1  0
 26 24  2  0
M  END
$$$$
