TRP.pdb
     RDKit          3D

 26 26  0  0  1  0  0  0  0  0999 V2000
   10.6594  -18.9659   23.9665 C   0  0  0  0  0  0  0  0  0  0  0  0
   12.0128  -18.3956   23.6914 C   0  0  1  0  0  0  0  0  0  0  0  0
   12.8863  -19.3711   23.2023 O   0  0  0  0  0  0  0  0  0  0  0  0
   11.9056  -17.2998   22.6542 C   0  0  2  0  0  0  0  0  0  0  0  0
   13.2537  -16.8883   22.3399 N   0  0  0  0  0  0  0  0  0  0  0  0
   11.1419  -16.1374   23.2149 C   0  0  0  0  0  0  0  0  0  0  0  0
   11.6335  -15.4532   24.1452 O   0  0  0  0  0  0  0  0  0  0  0  0
    6.6537  -13.5218   17.2530 N   0  0  0  0  0  0  0  0  0  0  0  0
    7.9831  -13.8513   17.6315 C   0  0  0  0  0  0  0  0  0  0  0  0
    8.8698  -14.2170   16.7432 N   0  0  0  0  0  0  0  0  0  0  0  0
    8.4118  -13.7952   18.9781 N   0  0  0  0  0  0  0  0  0  0  0  0
    7.5366  -13.4656   20.0920 C   0  0  0  0  0  0  0  0  0  0  0  0
    8.2447  -13.3682   21.4044 C   0  0  0  0  0  0  0  0  0  0  0  0
    7.8989  -14.4662   22.3647 C   0  0  0  0  0  0  0  0  0  0  0  0
    9.0321  -14.8151   23.3149 C   0  0  2  0  0  0  0  0  0  0  0  0
    9.8688  -15.8421   22.6688 N   0  0  0  0  0  0  0  0  0  0  0  0
    8.4664  -15.3500   24.5793 C   0  0  0  0  0  0  0  0  0  0  0  0
    8.6628  -16.5556   24.8551 O   0  0  0  0  0  0  0  0  0  0  0  0
    9.8362  -14.5052   17.0504 N   0  0  0  0  0  0  0  0  0  0  0  0
    7.7188  -14.5473   25.4772 C   0  0  0  0  0  0  0  0  0  0  0  0
    7.2210  -13.2002   25.2906 C   0  0  0  0  0  0  0  0  0  0  0  0
    7.3391  -12.5636   26.6713 C   0  0  0  0  0  0  0  0  0  0  0  0
    7.5926  -13.6895   27.6189 C   0  0  1  0  0  0  0  0  0  0  0  0
    7.2829  -14.9292   26.8243 C   0  0  0  0  0  0  0  0  0  0  0  0
    5.8531  -15.2717   26.7984 O   0  0  0  0  0  0  0  0  0  0  0  0
    5.2185  -15.9773   27.8013 O   0  0  0  0  0  0  0  0  0  0  0  0
  2  4  1  0
  2  1  1  6
  3  2  1  0
  4  5  1  1
  6  4  1  0
  6  7  2  0
  9  8  1  0
 10  9  2  0
 11  9  1  0
 12 11  1  0
 12 13  1  0
 13 14  1  0
 15 14  1  6
 15 16  1  0
 16  6  1  0
 17 15  1  0
 18 17  2  0
 19 17  1  0
 19 20  1  0
 21 20  1  0
 22 21  1  0
 22 23  1  0
 23 19  1  0
 23 24  1  6
 25 24  1  0
 26 24  2  0
M  END
$$$$
