TRP.pdb
     RDKit          3D

 26 26  0  0  1  0  0  0  0  0999 V2000
    7.9033  -18.9523   27.6214 C   0  0  0  0  0  0  0  0  0  0  0  0
    7.4468  -20.2698   27.0840 C   0  0  1  0  0  0  0  0  0  0  0  0
    6.8538  -21.0486   28.0819 O   0  0  0  0  0  0  0  0  0  0  0  0
    6.4244  -20.0505   25.9910 C   0  0  2  0  0  0  0  0  0  0  0  0
    5.9560  -21.3560   25.5887 N   0  0  0  0  0  0  0  0  0  0  0  0
    7.0645  -19.3627   24.8221 C   0  0  0  0  0  0  0  0  0  0  0  0
    7.7442  -20.0238   23.9999 O   0  0  0  0  0  0  0  0  0  0  0  0
    7.8191  -14.2510   18.3026 N   0  0  0  0  0  0  0  0  0  0  0  0
    8.1360  -13.3155   19.3241 C   0  0  0  0  0  0  0  0  0  0  0  0
    8.1958  -12.0337   19.0744 N   0  0  0  0  0  0  0  0  0  0  0  0
    8.3954  -13.7212   20.6538 N   0  0  0  0  0  0  0  0  0  0  0  0
    7.4875  -14.5412   21.4405 C   0  0  0  0  0  0  0  0  0  0  0  0
    8.0184  -14.8996   22.7908 C   0  0  0  0  0  0  0  0  0  0  0  0
    7.1341  -15.8310   23.5640 C   0  0  0  0  0  0  0  0  0  0  0  0
    7.7155  -17.2265   23.7166 C   0  0  2  0  0  0  0  0  0  0  0  0
    6.8795  -17.9658   24.6793 N   0  0  0  0  0  0  0  0  0  0  0  0
    9.1051  -17.1267   24.2305 C   0  0  0  0  0  0  0  0  0  0  0  0
    9.2736  -16.9614   25.4603 O   0  0  0  0  0  0  0  0  0  0  0  0
    8.4964  -11.3626   19.8298 N   0  0  0  0  0  0  0  0  0  0  0  0
   10.2374  -17.2127   23.3820 C   0  0  0  0  0  0  0  0  0  0  0  0
   10.2889  -17.2078   21.9347 C   0  0  0  0  0  0  0  0  0  0  0  0
   11.4327  -18.1586   21.5982 C   0  0  0  0  0  0  0  0  0  0  0  0
   12.1622  -18.3884   22.8807 C   0  0  2  0  0  0  0  0  0  0  0  0
   11.6349  -17.3293   23.8105 C   0  0  0  0  0  0  0  0  0  0  0  0
   12.3035  -16.0280   23.6623 O   0  0  0  0  0  0  0  0  0  0  0  0
   13.5188  -15.7233   24.2425 O   0  0  0  0  0  0  0  0  0  0  0  0
  2  4  1  0
  2  1  1  1
  3  2  1  0
  4  5  1  6
  6  4  1  0
  6  7  2  0
  9  8  1  0
 10  9  2  0
 11  9  1  0
 12 11  1  0
 12 13  1  0
 13 14  1  0
 15 14  1  1
 15 16  1  0
 16  6  1  0
 17 15  1  0
 18 17  2  0
 19 17  1  0
 19 20  1  0
 21 20  1  0
 22 21  1  0
 22 23  1  0
 23 19  1  0
 23 24  1  6
 25 24  1  0
 26 24  2  0
M  END
$$$$
