TRP.pdb
     RDKit          3D

 26 26  0  0  1  0  0  0  0  0999 V2000
   10.1251  -12.5851   18.5871 C   0  0  0  0  0  0  0  0  0  0  0  0
    9.3305  -12.8238   19.8299 C   0  0  1  0  0  0  0  0  0  0  0  0
    8.4611  -11.7606   20.0901 O   0  0  0  0  0  0  0  0  0  0  0  0
    8.5018  -14.0797   19.6746 C   0  0  2  0  0  0  0  0  0  0  0  0
    7.4782  -13.7871   18.6988 N   0  0  0  0  0  0  0  0  0  0  0  0
    7.8627  -14.4361   20.9835 C   0  0  0  0  0  0  0  0  0  0  0  0
    6.6621  -14.1396   21.1974 O   0  0  0  0  0  0  0  0  0  0  0  0
    6.2257  -21.1581   19.9495 N   0  0  0  0  0  0  0  0  0  0  0  0
    6.9446  -19.9812   20.2916 C   0  0  0  0  0  0  0  0  0  0  0  0
    6.7523  -18.8589   19.6493 N   0  0  0  0  0  0  0  0  0  0  0  0
    7.8935  -19.9640   21.3401 N   0  0  0  0  0  0  0  0  0  0  0  0
    7.6940  -19.2646   22.5996 C   0  0  0  0  0  0  0  0  0  0  0  0
    7.4800  -17.7938   22.4430 C   0  0  0  0  0  0  0  0  0  0  0  0
    8.2143  -16.9619   23.4511 C   0  0  0  0  0  0  0  0  0  0  0  0
    8.0337  -15.4673   23.2456 C   0  0  2  0  0  0  0  0  0  0  0  0
    8.6459  -15.1074   21.9541 N   0  0  0  0  0  0  0  0  0  0  0  0
    8.7117  -14.7346   24.3448 C   0  0  0  0  0  0  0  0  0  0  0  0
    9.9520  -14.5757   24.2768 O   0  0  0  0  0  0  0  0  0  0  0  0
    7.3617  -18.0232   19.8536 N   0  0  0  0  0  0  0  0  0  0  0  0
    8.0069  -14.2124   25.4585 C   0  0  0  0  0  0  0  0  0  0  0  0
    6.5787  -14.1866   25.6972 C   0  0  0  0  0  0  0  0  0  0  0  0
    6.3450  -12.8658   26.4228 C   0  0  0  0  0  0  0  0  0  0  0  0
    7.6965  -12.3817   26.8335 C   0  0  1  0  0  0  0  0  0  0  0  0
    8.5996  -13.5689   26.6353 C   0  0  0  0  0  0  0  0  0  0  0  0
    8.5927  -14.5106   27.7647 O   0  0  0  0  0  0  0  0  0  0  0  0
    7.9712  -15.7430   27.7276 O   0  0  0  0  0  0  0  0  0  0  0  0
  2  4  1  0
  2  1  1  6
  3  2  1  0
  4  5  1  6
  6  4  1  0
  6  7  2  0
  9  8  1  0
 10  9  2  0
 11  9  1  0
 12 11  1  0
 12 13  1  0
 13 14  1  0
 15 14  1  1
 15 16  1  0
 16  6  1  0
 17 15  1  0
 18 17  2  0
 19 17  1  0
 19 20  1  0
 21 20  1  0
 22 21  1  0
 22 23  1  0
 23 19  1  0
 23 24  1  1
 25 24  1  0
 26 24  2  0
M  END
$$$$
