TRP.pdb
     RDKit          3D

 26 26  0  0  1  0  0  0  0  0999 V2000
   13.8695  -18.6844   22.0255 C   0  0  0  0  0  0  0  0  0  0  0  0
   13.0242  -17.4586   22.1506 C   0  0  1  0  0  0  0  0  0  0  0  0
   12.4926  -17.0787   20.9149 O   0  0  0  0  0  0  0  0  0  0  0  0
   11.8726  -17.7249   23.0945 C   0  0  2  0  0  0  0  0  0  0  0  0
   10.9671  -18.6163   22.4081 N   0  0  0  0  0  0  0  0  0  0  0  0
   11.1677  -16.4411   23.4168 C   0  0  0  0  0  0  0  0  0  0  0  0
   11.7234  -15.5865   24.1490 O   0  0  0  0  0  0  0  0  0  0  0  0
    8.3052  -12.4201   18.3434 N   0  0  0  0  0  0  0  0  0  0  0  0
    7.9506  -13.7834   18.1567 C   0  0  0  0  0  0  0  0  0  0  0  0
    8.2957  -14.4314   17.0752 N   0  0  0  0  0  0  0  0  0  0  0  0
    7.2165  -14.5036   19.1275 N   0  0  0  0  0  0  0  0  0  0  0  0
    6.8843  -13.9794   20.4429 C   0  0  0  0  0  0  0  0  0  0  0  0
    8.0190  -14.0296   21.4141 C   0  0  0  0  0  0  0  0  0  0  0  0
    7.8154  -15.0015   22.5372 C   0  0  0  0  0  0  0  0  0  0  0  0
    9.0344  -15.1533   23.4314 C   0  0  2  0  0  0  0  0  0  0  0  0
    9.8759  -16.2285   22.8764 N   0  0  0  0  0  0  0  0  0  0  0  0
    8.5959  -15.5156   24.8031 C   0  0  0  0  0  0  0  0  0  0  0  0
    8.8458  -16.6691   25.2217 O   0  0  0  0  0  0  0  0  0  0  0  0
    8.0963  -15.4633   16.9923 N   0  0  0  0  0  0  0  0  0  0  0  0
    7.9105  -14.6061   25.6473 C   0  0  0  0  0  0  0  0  0  0  0  0
    7.4386  -13.2701   25.3479 C   0  0  0  0  0  0  0  0  0  0  0  0
    7.6359  -12.5034   26.6514 C   0  0  0  0  0  0  0  0  0  0  0  0
    7.9042  -13.5367   27.6954 C   0  0  1  0  0  0  0  0  0  0  0  0
    7.5276  -14.8395   27.0434 C   0  0  0  0  0  0  0  0  0  0  0  0
    6.0899  -15.1405   27.1137 O   0  0  0  0  0  0  0  0  0  0  0  0
    5.4696  -15.6458   28.2390 O   0  0  0  0  0  0  0  0  0  0  0  0
  2  4  1  0
  2  1  1  6
  3  2  1  0
  4  5  1  6
  6  4  1  0
  6  7  2  0
  9  8  1  0
 10  9  2  0
 11  9  1  0
 12 11  1  0
 12 13  1  0
 13 14  1  0
 15 14  1  6
 15 16  1  0
 16  6  1  0
 17 15  1  0
 18 17  2  0
 19 17  1  0
 19 20  1  0
 21 20  1  0
 22 21  1  0
 22 23  1  0
 23 19  1  0
 23 24  1  1
 25 24  1  0
 26 24  2  0
M  END
$$$$
