TRP.pdb
     RDKit          3D

 26 26  0  0  1  0  0  0  0  0999 V2000
    8.6947  -12.4119   20.0626 C   0  0  0  0  0  0  0  0  0  0  0  0
    8.0436  -13.3891   19.1385 C   0  0  1  0  0  0  0  0  0  0  0  0
    8.6652  -13.3974   17.8865 O   0  0  0  0  0  0  0  0  0  0  0  0
    8.1381  -14.7831   19.7180 C   0  0  2  0  0  0  0  0  0  0  0  0
    7.5439  -15.6782   18.7530 N   0  0  0  0  0  0  0  0  0  0  0  0
    7.3753  -14.8541   21.0072 C   0  0  0  0  0  0  0  0  0  0  0  0
    6.1298  -15.0079   20.9921 O   0  0  0  0  0  0  0  0  0  0  0  0
   10.0091  -19.1713   21.5431 N   0  0  0  0  0  0  0  0  0  0  0  0
   10.1154  -19.8344   22.7953 C   0  0  0  0  0  0  0  0  0  0  0  0
   11.0993  -20.6583   23.0446 N   0  0  0  0  0  0  0  0  0  0  0  0
    9.1716  -19.6333   23.8292 N   0  0  0  0  0  0  0  0  0  0  0  0
    7.9889  -18.7978   23.6930 C   0  0  0  0  0  0  0  0  0  0  0  0
    8.2909  -17.3360   23.6192 C   0  0  0  0  0  0  0  0  0  0  0  0
    7.0718  -16.4643   23.5852 C   0  0  0  0  0  0  0  0  0  0  0  0
    7.3929  -14.9820   23.4958 C   0  0  2  0  0  0  0  0  0  0  0  0
    8.0951  -14.7436   22.2221 N   0  0  0  0  0  0  0  0  0  0  0  0
    8.2691  -14.5994   24.6320 C   0  0  0  0  0  0  0  0  0  0  0  0
    9.4933  -14.8499   24.5491 O   0  0  0  0  0  0  0  0  0  0  0  0
   11.1396  -21.1681   23.9664 N   0  0  0  0  0  0  0  0  0  0  0  0
    7.7698  -13.9644   25.7969 C   0  0  0  0  0  0  0  0  0  0  0  0
    6.3944  -13.7842   26.2129 C   0  0  0  0  0  0  0  0  0  0  0  0
    6.3852  -12.4186   26.8917 C   0  0  0  0  0  0  0  0  0  0  0  0
    7.8189  -12.0583   27.1018 C   0  0  1  0  0  0  0  0  0  0  0  0
    8.5706  -13.3380   26.8536 C   0  0  0  0  0  0  0  0  0  0  0  0
    8.6221  -14.2284   28.0228 O   0  0  0  0  0  0  0  0  0  0  0  0
    9.4495  -14.0171   29.1077 O   0  0  0  0  0  0  0  0  0  0  0  0
  2  4  1  0
  2  1  1  1
  3  2  1  0
  4  5  1  6
  6  4  1  0
  6  7  2  0
  9  8  1  0
 10  9  2  0
 11  9  1  0
 12 11  1  0
 12 13  1  0
 13 14  1  0
 15 14  1  1
 15 16  1  0
 16  6  1  0
 17 15  1  0
 18 17  2  0
 19 17  1  0
 19 20  1  0
 21 20  1  0
 22 21  1  0
 22 23  1  0
 23 19  1  0
 23 24  1  1
 25 24  1  0
 26 24  2  0
M  END
$$$$
