YQC.pdb
     RDKit          3D

 28 28  0  0  1  0  0  0  0  0999 V2000
    8.2025  -12.3484   16.4627 O   0  0  0  0  0  0  0  0  0  0  0  0
    7.9653  -12.9382   17.6954 C   0  0  0  0  0  0  0  0  0  0  0  0
    8.5356  -12.4566   18.8589 C   0  0  0  0  0  0  0  0  0  0  0  0
    8.2741  -13.0690   20.0515 C   0  0  0  0  0  0  0  0  0  0  0  0
    7.4495  -14.1705   20.1557 C   0  0  0  0  0  0  0  0  0  0  0  0
    7.1819  -14.8139   21.4492 C   0  0  0  0  0  0  0  0  0  0  0  0
    8.0313  -16.0812   21.5190 C   0  0  2  0  0  0  0  0  0  0  0  0
    7.2814  -17.1239   20.8711 N   0  0  0  0  0  0  0  0  0  0  0  0
    8.2841  -16.4614   22.9274 C   0  0  0  0  0  0  0  0  0  0  0  0
    7.3190  -16.8947   23.6100 O   0  0  0  0  0  0  0  0  0  0  0  0
    6.8669  -14.6688   18.9953 C   0  0  0  0  0  0  0  0  0  0  0  0
    7.1354  -14.0476   17.8041 C   0  0  0  0  0  0  0  0  0  0  0  0
   12.9453  -19.8432   24.8785 N   0  0  0  0  0  0  0  0  0  0  0  0
   11.8056  -19.9362   24.0129 C   0  0  0  0  0  0  0  0  0  0  0  0
   11.6947  -20.9552   23.2821 O   0  0  0  0  0  0  0  0  0  0  0  0
   10.7772  -18.8970   23.9495 C   0  0  0  0  0  0  0  0  0  0  0  0
   10.9797  -17.7196   24.8270 C   0  0  0  0  0  0  0  0  0  0  0  0
    9.8760  -16.6969   24.8099 C   0  0  2  0  0  0  0  0  0  0  0  0
    9.5924  -16.3223   23.4437 N   0  0  0  0  0  0  0  0  0  0  0  0
   10.2050  -15.4981   25.6171 C   0  0  0  0  0  0  0  0  0  0  0  0
   11.2053  -14.7683   25.4204 O   0  0  0  0  0  0  0  0  0  0  0  0
    9.3353  -15.1501   26.6818 N   0  0  0  0  0  0  0  0  0  0  0  0
    9.6253  -14.1550   27.6693 C   0  0  1  0  0  0  0  0  0  0  0  0
    8.4825  -13.2061   27.9209 C   0  0  0  0  0  0  0  0  0  0  0  0
    7.5334  -13.0772   26.3767 S   0  0  0  0  0  0  0  0  0  0  0  0
   10.0060  -14.8135   28.9420 C   0  0  0  0  0  0  0  0  0  0  0  0
   10.4528  -14.0980   30.0467 O   0  0  0  0  0  0  0  0  0  0  0  0
    9.9335  -16.0564   29.0575 O   0  0  0  0  0  0  0  0  0  0  0  0
  2  1  1  0
  3  2  2  0
  4  3  1  0
  5 11  1  0
  5  4  2  0
  6  7  1  0
  6  5  1  0
  7  9  1  0
  7  8  1  6
  9 10  2  0
 11 12  2  0
 12  2  1  0
 14 13  1  0
 14 16  1  0
 15 14  2  0
 17 16  1  0
 18 17  1  6
 19  9  1  0
 19 18  1  0
 20 18  1  0
 20 21  2  0
 22 20  1  0
 23 22  1  0
 23 26  1  0
 23 24  1  1
 25 24  1  0
 26 27  1  0
 28 26  2  0
M  END
$$$$
