YQC.pdb
     RDKit          3D

 28 28  0  0  1  0  0  0  0  0999 V2000
    6.1374  -10.4210   25.8014 O   0  0  0  0  0  0  0  0  0  0  0  0
    6.3811  -11.7859   25.8402 C   0  0  0  0  0  0  0  0  0  0  0  0
    7.5246  -12.3407   25.2966 C   0  0  0  0  0  0  0  0  0  0  0  0
    7.7236  -13.6907   25.3574 C   0  0  0  0  0  0  0  0  0  0  0  0
    6.8189  -14.5489   25.9483 C   0  0  0  0  0  0  0  0  0  0  0  0
    7.0531  -15.9983   26.0026 C   0  0  0  0  0  0  0  0  0  0  0  0
    6.7734  -16.5636   24.6117 C   0  0  2  0  0  0  0  0  0  0  0  0
    5.8932  -17.6880   24.7861 N   0  0  0  0  0  0  0  0  0  0  0  0
    8.0291  -17.0180   23.9723 C   0  0  0  0  0  0  0  0  0  0  0  0
    8.3908  -18.2106   24.1508 O   0  0  0  0  0  0  0  0  0  0  0  0
    5.6626  -14.0083   26.5005 C   0  0  0  0  0  0  0  0  0  0  0  0
    5.4722  -12.6531   26.4344 C   0  0  0  0  0  0  0  0  0  0  0  0
    9.9255  -17.5538   18.9167 N   0  0  0  0  0  0  0  0  0  0  0  0
   11.1919  -17.0133   19.3177 C   0  0  0  0  0  0  0  0  0  0  0  0
   12.2174  -17.3593   18.6746 O   0  0  0  0  0  0  0  0  0  0  0  0
   11.3324  -16.0830   20.4386 C   0  0  0  0  0  0  0  0  0  0  0  0
   10.1009  -15.7985   21.2130 C   0  0  0  0  0  0  0  0  0  0  0  0
    9.9785  -16.5171   22.5294 C   0  0  2  0  0  0  0  0  0  0  0  0
    8.7653  -16.0977   23.1921 N   0  0  0  0  0  0  0  0  0  0  0  0
   11.1517  -16.2911   23.4068 C   0  0  0  0  0  0  0  0  0  0  0  0
   11.7035  -15.1777   23.5735 O   0  0  0  0  0  0  0  0  0  0  0  0
   11.6881  -17.4029   24.1048 N   0  0  0  0  0  0  0  0  0  0  0  0
   12.0397  -17.3923   25.4925 C   0  0  1  0  0  0  0  0  0  0  0  0
   10.9046  -16.9898   26.3976 C   0  0  0  0  0  0  0  0  0  0  0  0
   11.6350  -16.2791   27.9020 S   0  0  0  0  0  0  0  0  0  0  0  0
   12.5338  -18.7322   25.8906 C   0  0  0  0  0  0  0  0  0  0  0  0
   13.5729  -18.9041   26.7976 O   0  0  0  0  0  0  0  0  0  0  0  0
   12.0176  -19.7650   25.4108 O   0  0  0  0  0  0  0  0  0  0  0  0
  2  1  1  0
  3  2  2  0
  4  3  1  0
  5 11  1  0
  5  4  2  0
  6  7  1  0
  6  5  1  0
  7  9  1  0
  7  8  1  1
  9 10  2  0
 11 12  2  0
 12  2  1  0
 14 13  1  0
 14 16  1  0
 15 14  2  0
 17 16  1  0
 18 17  1  6
 19  9  1  0
 19 18  1  0
 20 18  1  0
 20 21  2  0
 22 20  1  0
 23 22  1  0
 23 26  1  0
 23 24  1  1
 25 24  1  0
 26 27  1  0
 28 26  2  0
M  END
$$$$
