YQC.pdb
     RDKit          3D

 28 28  0  0  1  0  0  0  0  0999 V2000
    7.0567  -11.3202   17.3317 O   0  0  0  0  0  0  0  0  0  0  0  0
    7.2982  -12.4094   18.1558 C   0  0  0  0  0  0  0  0  0  0  0  0
    6.9405  -12.4103   19.4910 C   0  0  0  0  0  0  0  0  0  0  0  0
    7.1977  -13.5054   20.2658 C   0  0  0  0  0  0  0  0  0  0  0  0
    7.8114  -14.6378   19.7707 C   0  0  0  0  0  0  0  0  0  0  0  0
    8.0787  -15.8049   20.6223 C   0  0  0  0  0  0  0  0  0  0  0  0
    8.2503  -17.0150   19.7067 C   0  0  2  0  0  0  0  0  0  0  0  0
    6.9449  -17.3452   19.2003 N   0  0  0  0  0  0  0  0  0  0  0  0
    8.7892  -18.1679   20.4632 C   0  0  0  0  0  0  0  0  0  0  0  0
    7.9814  -18.8887   21.1060 O   0  0  0  0  0  0  0  0  0  0  0  0
    8.1783  -14.6548   18.4294 C   0  0  0  0  0  0  0  0  0  0  0  0
    7.9160  -13.5515   17.6606 C   0  0  0  0  0  0  0  0  0  0  0  0
   13.1298  -21.9429   18.3575 N   0  0  0  0  0  0  0  0  0  0  0  0
   12.7705  -20.5892   18.0491 C   0  0  0  0  0  0  0  0  0  0  0  0
   13.1671  -20.1018   16.9582 O   0  0  0  0  0  0  0  0  0  0  0  0
   11.9671  -19.7621   18.9503 C   0  0  0  0  0  0  0  0  0  0  0  0
   11.4770  -20.4220   20.1838 C   0  0  0  0  0  0  0  0  0  0  0  0
   10.7380  -19.5340   21.1480 C   0  0  2  0  0  0  0  0  0  0  0  0
   10.1814  -18.4096   20.4319 N   0  0  0  0  0  0  0  0  0  0  0  0
   11.6012  -19.0645   22.2577 C   0  0  0  0  0  0  0  0  0  0  0  0
   12.4674  -18.1650   22.1452 O   0  0  0  0  0  0  0  0  0  0  0  0
   11.4408  -19.6686   23.5306 N   0  0  0  0  0  0  0  0  0  0  0  0
   12.2598  -19.3824   24.6694 C   0  0  1  0  0  0  0  0  0  0  0  0
   11.7212  -19.9518   25.9561 C   0  0  0  0  0  0  0  0  0  0  0  0
   12.8715  -19.4818   27.2819 S   0  0  0  0  0  0  0  0  0  0  0  0
   13.6300  -19.8997   24.4392 C   0  0  0  0  0  0  0  0  0  0  0  0
   14.7667  -19.1569   24.7362 O   0  0  0  0  0  0  0  0  0  0  0  0
   13.8029  -21.0421   23.9615 O   0  0  0  0  0  0  0  0  0  0  0  0
  2  1  1  0
  3  2  2  0
  4  3  1  0
  5 11  1  0
  5  4  2  0
  6  7  1  0
  6  5  1  0
  7  9  1  0
  7  8  1  1
  9 10  2  0
 11 12  2  0
 12  2  1  0
 14 13  1  0
 14 16  1  0
 15 14  2  0
 17 16  1  0
 18 17  1  6
 19  9  1  0
 19 18  1  0
 20 18  1  0
 20 21  2  0
 22 20  1  0
 23 22  1  0
 23 26  1  0
 23 24  1  1
 25 24  1  0
 26 27  1  0
 28 26  2  0
M  END
$$$$
