YQC.pdb
     RDKit          3D

 28 28  0  0  1  0  0  0  0  0999 V2000
    7.6398  -12.4234   16.5355 O   0  0  0  0  0  0  0  0  0  0  0  0
    7.8268  -13.0034   17.7815 C   0  0  0  0  0  0  0  0  0  0  0  0
    9.0782  -13.3780   18.2339 C   0  0  0  0  0  0  0  0  0  0  0  0
    9.2159  -13.9461   19.4684 C   0  0  0  0  0  0  0  0  0  0  0  0
    8.1429  -14.1701   20.3066 C   0  0  0  0  0  0  0  0  0  0  0  0
    8.3138  -14.7829   21.6311 C   0  0  0  0  0  0  0  0  0  0  0  0
    9.0073  -16.1288   21.4311 C   0  0  2  0  0  0  0  0  0  0  0  0
    8.0864  -16.9720   20.7167 N   0  0  0  0  0  0  0  0  0  0  0  0
    9.3278  -16.7483   22.7370 C   0  0  0  0  0  0  0  0  0  0  0  0
    8.3981  -17.3084   23.3749 O   0  0  0  0  0  0  0  0  0  0  0  0
    6.8763  -13.7995   19.8681 C   0  0  0  0  0  0  0  0  0  0  0  0
    6.7486  -13.2304   18.6283 C   0  0  0  0  0  0  0  0  0  0  0  0
   12.4041  -20.7138   25.7771 N   0  0  0  0  0  0  0  0  0  0  0  0
   11.9116  -20.6541   24.4316 C   0  0  0  0  0  0  0  0  0  0  0  0
   11.5567  -21.7283   23.8794 O   0  0  0  0  0  0  0  0  0  0  0  0
   11.8091  -19.3998   23.6847 C   0  0  0  0  0  0  0  0  0  0  0  0
   12.1070  -18.1601   24.4410 C   0  0  0  0  0  0  0  0  0  0  0  0
   10.9804  -17.1669   24.5334 C   0  0  2  0  0  0  0  0  0  0  0  0
   10.6581  -16.6849   23.2102 N   0  0  0  0  0  0  0  0  0  0  0  0
   11.3001  -16.0332   25.4331 C   0  0  0  0  0  0  0  0  0  0  0  0
   11.7695  -14.9368   25.0465 O   0  0  0  0  0  0  0  0  0  0  0  0
   11.0614  -16.1942   26.8217 N   0  0  0  0  0  0  0  0  0  0  0  0
   10.5667  -15.1618   27.6813 C   0  0  1  0  0  0  0  0  0  0  0  0
    9.2473  -14.5878   27.2344 C   0  0  0  0  0  0  0  0  0  0  0  0
    8.8087  -13.2634   28.3986 S   0  0  0  0  0  0  0  0  0  0  0  0
   10.4319  -15.6859   29.0616 C   0  0  0  0  0  0  0  0  0  0  0  0
   10.8443  -14.9649   30.1760 O   0  0  0  0  0  0  0  0  0  0  0  0
    9.9330  -16.8144   29.2637 O   0  0  0  0  0  0  0  0  0  0  0  0
  2  1  1  0
  3  2  2  0
  4  3  1  0
  5 11  1  0
  5  4  2  0
  6  7  1  0
  6  5  1  0
  7  9  1  0
  7  8  1  1
  9 10  2  0
 11 12  2  0
 12  2  1  0
 14 13  1  0
 14 16  1  0
 15 14  2  0
 17 16  1  0
 18 17  1  6
 19  9  1  0
 19 18  1  0
 20 18  1  0
 20 21  2  0
 22 20  1  0
 23 22  1  0
 23 26  1  0
 23 24  1  6
 25 24  1  0
 26 27  1  0
 28 26  2  0
M  END
$$$$
