YQC.pdb
     RDKit          3D

 28 28  0  0  1  0  0  0  0  0999 V2000
    8.1682  -12.3474   16.6638 O   0  0  0  0  0  0  0  0  0  0  0  0
    8.1406  -12.9042   17.9339 C   0  0  0  0  0  0  0  0  0  0  0  0
    9.2108  -12.7985   18.8026 C   0  0  0  0  0  0  0  0  0  0  0  0
    9.1399  -13.3627   20.0445 C   0  0  0  0  0  0  0  0  0  0  0  0
    8.0273  -14.0491   20.4861 C   0  0  0  0  0  0  0  0  0  0  0  0
    7.9726  -14.6483   21.8265 C   0  0  0  0  0  0  0  0  0  0  0  0
    8.6632  -16.0084   21.7528 C   0  0  2  0  0  0  0  0  0  0  0  0
    7.8144  -16.8670   20.9706 N   0  0  0  0  0  0  0  0  0  0  0  0
    8.8275  -16.5829   23.1074 C   0  0  0  0  0  0  0  0  0  0  0  0
    7.8239  -17.1072   23.6579 O   0  0  0  0  0  0  0  0  0  0  0  0
    6.9411  -14.1655   19.6255 C   0  0  0  0  0  0  0  0  0  0  0  0
    7.0218  -13.5962   18.3819 C   0  0  0  0  0  0  0  0  0  0  0  0
   13.3351  -20.2279   25.0662 N   0  0  0  0  0  0  0  0  0  0  0  0
   12.6461  -19.8529   26.2667 C   0  0  0  0  0  0  0  0  0  0  0  0
   12.9389  -20.4536   27.3336 O   0  0  0  0  0  0  0  0  0  0  0  0
   11.6233  -18.8066   26.2944 C   0  0  0  0  0  0  0  0  0  0  0  0
   11.3406  -18.1316   25.0052 C   0  0  0  0  0  0  0  0  0  0  0  0
   10.2890  -17.0562   25.0498 C   0  0  2  0  0  0  0  0  0  0  0  0
   10.0984  -16.5187   23.7225 N   0  0  0  0  0  0  0  0  0  0  0  0
   10.6298  -15.9730   26.0024 C   0  0  0  0  0  0  0  0  0  0  0  0
   11.6990  -15.3188   25.9732 O   0  0  0  0  0  0  0  0  0  0  0  0
    9.6891  -15.6523   27.0139 N   0  0  0  0  0  0  0  0  0  0  0  0
    9.8887  -14.6466   28.0131 C   0  0  1  0  0  0  0  0  0  0  0  0
    8.7020  -13.7367   28.1963 C   0  0  0  0  0  0  0  0  0  0  0  0
    8.3260  -13.0016   26.5776 S   0  0  0  0  0  0  0  0  0  0  0  0
   10.2186  -15.2901   29.3074 C   0  0  0  0  0  0  0  0  0  0  0  0
   10.5966  -14.5596   30.4279 O   0  0  0  0  0  0  0  0  0  0  0  0
   10.1642  -16.5334   29.4277 O   0  0  0  0  0  0  0  0  0  0  0  0
  2  1  1  0
  3  2  2  0
  4  3  1  0
  5 11  1  0
  5  4  2  0
  6  7  1  0
  6  5  1  0
  7  9  1  0
  7  8  1  6
  9 10  2  0
 11 12  2  0
 12  2  1  0
 14 13  1  0
 14 16  1  0
 15 14  2  0
 17 16  1  0
 18 17  1  6
 19  9  1  0
 19 18  1  0
 20 18  1  0
 20 21  2  0
 22 20  1  0
 23 22  1  0
 23 26  1  0
 23 24  1  1
 25 24  1  0
 26 27  1  0
 28 26  2  0
M  END
$$$$
