YQC.pdb
     RDKit          3D

 28 28  0  0  1  0  0  0  0  0999 V2000
    7.3367  -13.3435   15.4612 O   0  0  0  0  0  0  0  0  0  0  0  0
    7.4277  -13.7896   16.7714 C   0  0  0  0  0  0  0  0  0  0  0  0
    7.7838  -12.9474   17.8081 C   0  0  0  0  0  0  0  0  0  0  0  0
    7.8609  -13.4299   19.0836 C   0  0  0  0  0  0  0  0  0  0  0  0
    7.5948  -14.7472   19.3967 C   0  0  0  0  0  0  0  0  0  0  0  0
    7.6840  -15.2451   20.7762 C   0  0  0  0  0  0  0  0  0  0  0  0
    9.1334  -15.0883   21.2309 C   0  0  2  0  0  0  0  0  0  0  0  0
    9.9494  -15.7933   20.2787 N   0  0  0  0  0  0  0  0  0  0  0  0
    9.3245  -15.6806   22.5743 C   0  0  0  0  0  0  0  0  0  0  0  0
    8.4787  -15.4150   23.4682 O   0  0  0  0  0  0  0  0  0  0  0  0
    7.2350  -15.6091   18.3663 C   0  0  0  0  0  0  0  0  0  0  0  0
    7.1604  -15.1156   17.0903 C   0  0  0  0  0  0  0  0  0  0  0  0
   13.9885  -19.7980   23.1606 N   0  0  0  0  0  0  0  0  0  0  0  0
   12.7159  -19.9888   22.5275 C   0  0  0  0  0  0  0  0  0  0  0  0
   12.6279  -20.8531   21.6164 O   0  0  0  0  0  0  0  0  0  0  0  0
   11.5274  -19.2203   22.8996 C   0  0  0  0  0  0  0  0  0  0  0  0
   11.7122  -18.1979   23.9570 C   0  0  0  0  0  0  0  0  0  0  0  0
   10.6166  -17.1725   24.0701 C   0  0  2  0  0  0  0  0  0  0  0  0
   10.4434  -16.5153   22.7953 N   0  0  0  0  0  0  0  0  0  0  0  0
   10.8846  -16.1756   25.1337 C   0  0  0  0  0  0  0  0  0  0  0  0
   11.7021  -15.2312   25.0253 O   0  0  0  0  0  0  0  0  0  0  0  0
   10.1729  -16.2933   26.3546 N   0  0  0  0  0  0  0  0  0  0  0  0
   10.2840  -15.3738   27.4463 C   0  0  1  0  0  0  0  0  0  0  0  0
    9.2284  -14.2990   27.4372 C   0  0  0  0  0  0  0  0  0  0  0  0
    9.5190  -13.2399   28.8849 S   0  0  0  0  0  0  0  0  0  0  0  0
   10.2196  -16.1146   28.7289 C   0  0  0  0  0  0  0  0  0  0  0  0
   10.6953  -15.5823   29.9216 O   0  0  0  0  0  0  0  0  0  0  0  0
    9.7251  -17.2621   28.7725 O   0  0  0  0  0  0  0  0  0  0  0  0
  2  1  1  0
  3  2  2  0
  4  3  1  0
  5 11  1  0
  5  4  2  0
  6  7  1  0
  6  5  1  0
  7  9  1  0
  7  8  1  6
  9 10  2  0
 11 12  2  0
 12  2  1  0
 14 13  1  0
 14 16  1  0
 15 14  2  0
 17 16  1  0
 18 17  1  6
 19  9  1  0
 19 18  1  0
 20 18  1  0
 20 21  2  0
 22 20  1  0
 23 22  1  0
 23 26  1  0
 23 24  1  1
 25 24  1  0
 26 27  1  0
 28 26  2  0
M  END
$$$$
