YQC.pdb
     RDKit          3D

 28 28  0  0  1  0  0  0  0  0999 V2000
    6.2820  -12.1298   16.4638 O   0  0  0  0  0  0  0  0  0  0  0  0
    7.0541  -12.8541   17.3600 C   0  0  0  0  0  0  0  0  0  0  0  0
    6.7171  -12.9611   18.6964 C   0  0  0  0  0  0  0  0  0  0  0  0
    7.5069  -13.6851   19.5435 C   0  0  0  0  0  0  0  0  0  0  0  0
    8.6516  -14.3304   19.1224 C   0  0  0  0  0  0  0  0  0  0  0  0
    9.4868  -15.1040   20.0512 C   0  0  0  0  0  0  0  0  0  0  0  0
    9.9500  -16.3611   19.3180 C   0  0  2  0  0  0  0  0  0  0  0  0
    8.7755  -17.1491   19.0552 N   0  0  0  0  0  0  0  0  0  0  0  0
   10.8852  -17.1404   20.1607 C   0  0  0  0  0  0  0  0  0  0  0  0
   10.4018  -17.9493   20.9956 O   0  0  0  0  0  0  0  0  0  0  0  0
    9.0062  -14.2338   17.7811 C   0  0  0  0  0  0  0  0  0  0  0  0
    8.2075  -13.5053   16.9393 C   0  0  0  0  0  0  0  0  0  0  0  0
   16.0561  -16.5237   18.0086 N   0  0  0  0  0  0  0  0  0  0  0  0
   15.3382  -17.7499   17.8143 C   0  0  0  0  0  0  0  0  0  0  0  0
   15.3723  -18.2856   16.6756 O   0  0  0  0  0  0  0  0  0  0  0  0
   14.5737  -18.3935   18.8834 C   0  0  0  0  0  0  0  0  0  0  0  0
   14.5535  -17.6918   20.1890 C   0  0  0  0  0  0  0  0  0  0  0  0
   13.2117  -17.6132   20.8656 C   0  0  2  0  0  0  0  0  0  0  0  0
   12.2748  -16.9441   19.9930 N   0  0  0  0  0  0  0  0  0  0  0  0
   13.2802  -16.9244   22.1763 C   0  0  0  0  0  0  0  0  0  0  0  0
   13.9416  -15.8811   22.3910 O   0  0  0  0  0  0  0  0  0  0  0  0
   12.5524  -17.4773   23.2605 N   0  0  0  0  0  0  0  0  0  0  0  0
   12.6349  -17.0093   24.6110 C   0  0  1  0  0  0  0  0  0  0  0  0
   11.4188  -16.2395   25.0562 C   0  0  0  0  0  0  0  0  0  0  0  0
    9.9671  -17.2847   24.7368 S   0  0  0  0  0  0  0  0  0  0  0  0
   12.8500  -18.1581   25.5232 C   0  0  0  0  0  0  0  0  0  0  0  0
   12.7398  -19.4772   25.0991 O   0  0  0  0  0  0  0  0  0  0  0  0
   13.1424  -17.9665   26.7236 O   0  0  0  0  0  0  0  0  0  0  0  0
  2  1  1  0
  3  2  2  0
  4  3  1  0
  5 11  1  0
  5  4  2  0
  6  7  1  0
  6  5  1  0
  7  9  1  0
  7  8  1  1
  9 10  2  0
 11 12  2  0
 12  2  1  0
 14 13  1  0
 14 16  1  0
 15 14  2  0
 17 16  1  0
 18 17  1  6
 19  9  1  0
 19 18  1  0
 20 18  1  0
 20 21  2  0
 22 20  1  0
 23 22  1  0
 23 26  1  0
 23 24  1  1
 25 24  1  0
 26 27  1  0
 28 26  2  0
M  END
$$$$
