YQC.pdb
     RDKit          3D

 28 28  0  0  1  0  0  0  0  0999 V2000
    5.7399  -10.3340   26.9777 O   0  0  0  0  0  0  0  0  0  0  0  0
    6.2382  -11.5962   26.6904 C   0  0  0  0  0  0  0  0  0  0  0  0
    7.1992  -11.7996   25.7178 C   0  0  0  0  0  0  0  0  0  0  0  0
    7.6615  -13.0604   25.4682 C   0  0  0  0  0  0  0  0  0  0  0  0
    7.2064  -14.1677   26.1545 C   0  0  0  0  0  0  0  0  0  0  0  0
    7.7176  -15.5154   25.8696 C   0  0  0  0  0  0  0  0  0  0  0  0
    7.0597  -15.9952   24.5776 C   0  0  2  0  0  0  0  0  0  0  0  0
    6.0357  -16.9334   24.9527 N   0  0  0  0  0  0  0  0  0  0  0  0
    8.0500  -16.6710   23.7090 C   0  0  0  0  0  0  0  0  0  0  0  0
    8.1219  -17.9272   23.7530 O   0  0  0  0  0  0  0  0  0  0  0  0
    6.2395  -13.9820   27.1367 C   0  0  0  0  0  0  0  0  0  0  0  0
    5.7822  -12.7135   27.3796 C   0  0  0  0  0  0  0  0  0  0  0  0
   10.4148  -13.8189   18.6114 N   0  0  0  0  0  0  0  0  0  0  0  0
    9.1952  -14.5498   18.7987 C   0  0  0  0  0  0  0  0  0  0  0  0
    8.2607  -14.3696   17.9747 O   0  0  0  0  0  0  0  0  0  0  0  0
    9.0008  -15.4884   19.9045 C   0  0  0  0  0  0  0  0  0  0  0  0
   10.1393  -15.6433   20.8411 C   0  0  0  0  0  0  0  0  0  0  0  0
    9.8783  -16.5049   22.0469 C   0  0  2  0  0  0  0  0  0  0  0  0
    8.8691  -15.8809   22.8710 N   0  0  0  0  0  0  0  0  0  0  0  0
   11.1071  -16.7575   22.8363 C   0  0  0  0  0  0  0  0  0  0  0  0
   12.0915  -15.9821   22.8763 O   0  0  0  0  0  0  0  0  0  0  0  0
   11.1786  -17.9521   23.5972 N   0  0  0  0  0  0  0  0  0  0  0  0
   11.7998  -18.0549   24.8829 C   0  0  1  0  0  0  0  0  0  0  0  0
   11.1760  -17.1637   25.9253 C   0  0  0  0  0  0  0  0  0  0  0  0
   12.0281  -17.4875   27.4973 S   0  0  0  0  0  0  0  0  0  0  0  0
   11.7518  -19.4620   25.3475 C   0  0  0  0  0  0  0  0  0  0  0  0
   10.9602  -20.4237   24.7307 O   0  0  0  0  0  0  0  0  0  0  0  0
   12.4367  -19.8283   26.3272 O   0  0  0  0  0  0  0  0  0  0  0  0
  2  1  1  0
  3  2  2  0
  4  3  1  0
  5 11  1  0
  5  4  2  0
  6  7  1  0
  6  5  1  0
  7  9  1  0
  7  8  1  1
  9 10  2  0
 11 12  2  0
 12  2  1  0
 14 13  1  0
 14 16  1  0
 15 14  2  0
 17 16  1  0
 18 17  1  6
 19  9  1  0
 19 18  1  0
 20 18  1  0
 20 21  2  0
 22 20  1  0
 23 22  1  0
 23 26  1  0
 23 24  1  1
 25 24  1  0
 26 27  1  0
 28 26  2  0
M  END
$$$$
