YQC.pdb
     RDKit          3D

 28 28  0  0  1  0  0  0  0  0999 V2000
    5.2691  -10.6892   28.1544 O   0  0  0  0  0  0  0  0  0  0  0  0
    5.9409  -11.6922   27.4712 C   0  0  0  0  0  0  0  0  0  0  0  0
    5.6352  -12.0178   26.1630 C   0  0  0  0  0  0  0  0  0  0  0  0
    6.3229  -13.0130   25.5289 C   0  0  0  0  0  0  0  0  0  0  0  0
    7.3315  -13.7268   26.1432 C   0  0  0  0  0  0  0  0  0  0  0  0
    8.0585  -14.7939   25.4420 C   0  0  0  0  0  0  0  0  0  0  0  0
    7.0279  -15.6505   24.7097 C   0  0  2  0  0  0  0  0  0  0  0  0
    6.7338  -16.7715   25.5619 N   0  0  0  0  0  0  0  0  0  0  0  0
    7.5773  -16.1414   23.4254 C   0  0  0  0  0  0  0  0  0  0  0  0
    8.0854  -17.2929   23.3961 O   0  0  0  0  0  0  0  0  0  0  0  0
    7.6527  -13.4129   27.4594 C   0  0  0  0  0  0  0  0  0  0  0  0
    6.9571  -12.4130   28.0868 C   0  0  0  0  0  0  0  0  0  0  0  0
    8.1806  -12.5920   17.6097 N   0  0  0  0  0  0  0  0  0  0  0  0
    8.1525  -14.0259   17.6121 C   0  0  0  0  0  0  0  0  0  0  0  0
    7.6809  -14.6138   16.6038 O   0  0  0  0  0  0  0  0  0  0  0  0
    8.6476  -14.8219   18.7359 C   0  0  0  0  0  0  0  0  0  0  0  0
    7.9909  -14.5888   20.0443 C   0  0  0  0  0  0  0  0  0  0  0  0
    8.2659  -15.6209   21.1042 C   0  0  2  0  0  0  0  0  0  0  0  0
    7.5082  -15.3002   22.2917 N   0  0  0  0  0  0  0  0  0  0  0  0
    9.7089  -15.7295   21.4251 C   0  0  0  0  0  0  0  0  0  0  0  0
   10.3645  -14.8500   22.0321 O   0  0  0  0  0  0  0  0  0  0  0  0
   10.3967  -16.9021   21.0214 N   0  0  0  0  0  0  0  0  0  0  0  0
   11.7846  -17.1503   21.2698 C   0  0  1  0  0  0  0  0  0  0  0  0
   12.0339  -18.3530   22.1422 C   0  0  0  0  0  0  0  0  0  0  0  0
   11.2056  -18.0525   23.7314 S   0  0  0  0  0  0  0  0  0  0  0  0
   12.4974  -17.3222   19.9812 C   0  0  0  0  0  0  0  0  0  0  0  0
   13.8728  -17.5096   19.9096 O   0  0  0  0  0  0  0  0  0  0  0  0
   11.8666  -17.3027   18.9019 O   0  0  0  0  0  0  0  0  0  0  0  0
  2  1  1  0
  3  2  2  0
  4  3  1  0
  5 11  1  0
  5  4  2  0
  6  7  1  0
  6  5  1  0
  7  9  1  0
  7  8  1  1
  9 10  2  0
 11 12  2  0
 12  2  1  0
 14 13  1  0
 14 16  1  0
 15 14  2  0
 17 16  1  0
 18 17  1  6
 19  9  1  0
 19 18  1  0
 20 18  1  0
 20 21  2  0
 22 20  1  0
 23 22  1  0
 23 26  1  0
 23 24  1  1
 25 24  1  0
 26 27  1  0
 28 26  2  0
M  END
$$$$
