YQC.pdb
     RDKit          3D

 28 28  0  0  1  0  0  0  0  0999 V2000
    7.2511  -12.4996   16.9429 O   0  0  0  0  0  0  0  0  0  0  0  0
    7.5245  -13.0324   18.1940 C   0  0  0  0  0  0  0  0  0  0  0  0
    6.5199  -13.3573   19.0863 C   0  0  0  0  0  0  0  0  0  0  0  0
    6.8353  -13.8799   20.3082 C   0  0  0  0  0  0  0  0  0  0  0  0
    8.1372  -14.1053   20.7061 C   0  0  0  0  0  0  0  0  0  0  0  0
    8.4538  -14.6685   22.0257 C   0  0  0  0  0  0  0  0  0  0  0  0
    8.7577  -16.1527   21.8334 C   0  0  2  0  0  0  0  0  0  0  0  0
    7.5196  -16.7902   21.4727 N   0  0  0  0  0  0  0  0  0  0  0  0
    9.2675  -16.7467   23.0900 C   0  0  0  0  0  0  0  0  0  0  0  0
    8.4357  -17.0559   23.9832 O   0  0  0  0  0  0  0  0  0  0  0  0
    9.1609  -13.7844   19.8212 C   0  0  0  0  0  0  0  0  0  0  0  0
    8.8344  -13.2607   18.5979 C   0  0  0  0  0  0  0  0  0  0  0  0
   14.7916  -20.0178   23.9627 N   0  0  0  0  0  0  0  0  0  0  0  0
   13.7372  -19.9563   22.9925 C   0  0  0  0  0  0  0  0  0  0  0  0
   13.9216  -20.5099   21.8770 O   0  0  0  0  0  0  0  0  0  0  0  0
   12.4667  -19.2778   23.2512 C   0  0  0  0  0  0  0  0  0  0  0  0
   12.5133  -18.1363   24.1958 C   0  0  0  0  0  0  0  0  0  0  0  0
   11.1958  -17.4627   24.4692 C   0  0  2  0  0  0  0  0  0  0  0  0
   10.6601  -16.9408   23.2332 N   0  0  0  0  0  0  0  0  0  0  0  0
   11.3125  -16.3837   25.4787 C   0  0  0  0  0  0  0  0  0  0  0  0
   11.8948  -15.2914   25.2792 O   0  0  0  0  0  0  0  0  0  0  0  0
   10.7296  -16.5958   26.7540 N   0  0  0  0  0  0  0  0  0  0  0  0
   10.6738  -15.6100   27.7906 C   0  0  1  0  0  0  0  0  0  0  0  0
    9.4136  -14.7848   27.7688 C   0  0  0  0  0  0  0  0  0  0  0  0
    9.5191  -13.5955   29.1386 S   0  0  0  0  0  0  0  0  0  0  0  0
   10.8061  -16.2697   29.1118 C   0  0  0  0  0  0  0  0  0  0  0  0
   11.1750  -15.5752   30.2579 O   0  0  0  0  0  0  0  0  0  0  0  0
   10.5845  -17.4942   29.2324 O   0  0  0  0  0  0  0  0  0  0  0  0
  2  1  1  0
  3  2  2  0
  4  3  1  0
  5 11  1  0
  5  4  2  0
  6  7  1  0
  6  5  1  0
  7  9  1  0
  7  8  1  1
  9 10  2  0
 11 12  2  0
 12  2  1  0
 14 13  1  0
 14 16  1  0
 15 14  2  0
 17 16  1  0
 18 17  1  6
 19  9  1  0
 19 18  1  0
 20 18  1  0
 20 21  2  0
 22 20  1  0
 23 22  1  0
 23 26  1  0
 23 24  1  1
 25 24  1  0
 26 27  1  0
 28 26  2  0
M  END
$$$$
