YQC.pdb
     RDKit          3D

 28 28  0  0  1  0  0  0  0  0999 V2000
    7.0700  -12.7399   28.1100 O   0  0  0  0  0  0  0  0  0  0  0  0
    7.0334  -13.2477   26.8198 C   0  0  0  0  0  0  0  0  0  0  0  0
    6.6382  -14.5456   26.5552 C   0  0  0  0  0  0  0  0  0  0  0  0
    6.6173  -15.0039   25.2687 C   0  0  0  0  0  0  0  0  0  0  0  0
    6.9795  -14.2175   24.1942 C   0  0  0  0  0  0  0  0  0  0  0  0
    6.9497  -14.7311   22.8179 C   0  0  0  0  0  0  0  0  0  0  0  0
    8.1981  -15.5874   22.6175 C   0  0  2  0  0  0  0  0  0  0  0  0
    9.2028  -15.0786   23.5125 N   0  0  0  0  0  0  0  0  0  0  0  0
    8.6840  -15.4809   21.2230 C   0  0  0  0  0  0  0  0  0  0  0  0
    8.1116  -16.1701   20.3384 O   0  0  0  0  0  0  0  0  0  0  0  0
    7.3799  -12.9088   24.4415 C   0  0  0  0  0  0  0  0  0  0  0  0
    7.3975  -12.4586   25.7354 C   0  0  0  0  0  0  0  0  0  0  0  0
    9.2096  -14.2824   16.3316 N   0  0  0  0  0  0  0  0  0  0  0  0
    8.1216  -13.8572   17.1635 C   0  0  0  0  0  0  0  0  0  0  0  0
    6.9503  -13.9725   16.7167 O   0  0  0  0  0  0  0  0  0  0  0  0
    8.3236  -13.2982   18.5008 C   0  0  0  0  0  0  0  0  0  0  0  0
    9.7254  -13.2290   18.9777 C   0  0  0  0  0  0  0  0  0  0  0  0
   10.2662  -14.4899   19.5958 C   0  0  2  0  0  0  0  0  0  0  0  0
    9.7651  -14.6139   20.9451 N   0  0  0  0  0  0  0  0  0  0  0  0
   11.7478  -14.5313   19.5886 C   0  0  0  0  0  0  0  0  0  0  0  0
   12.4575  -14.2097   18.6063 O   0  0  0  0  0  0  0  0  0  0  0  0
   12.4100  -14.9617   20.7664 N   0  0  0  0  0  0  0  0  0  0  0  0
   13.8260  -15.1413   20.8771 C   0  0  1  0  0  0  0  0  0  0  0  0
   14.4140  -14.5322   22.1234 C   0  0  0  0  0  0  0  0  0  0  0  0
   13.5050  -15.2131   23.5418 S   0  0  0  0  0  0  0  0  0  0  0  0
   14.1484  -16.5879   20.8385 C   0  0  0  0  0  0  0  0  0  0  0  0
   13.1654  -17.5693   20.7881 O   0  0  0  0  0  0  0  0  0  0  0  0
   15.3384  -16.9713   20.8503 O   0  0  0  0  0  0  0  0  0  0  0  0
  2  1  1  0
  3  2  2  0
  4  3  1  0
  5 11  1  0
  5  4  2  0
  6  7  1  0
  6  5  1  0
  7  9  1  0
  7  8  1  1
  9 10  2  0
 11 12  2  0
 12  2  1  0
 14 13  1  0
 14 16  1  0
 15 14  2  0
 17 16  1  0
 18 17  1  1
 19  9  1  0
 19 18  1  0
 20 18  1  0
 20 21  2  0
 22 20  1  0
 23 22  1  0
 23 26  1  0
 23 24  1  1
 25 24  1  0
 26 27  1  0
 28 26  2  0
M  END
$$$$
