WSC.pdb
     RDKit          3D

 27 28  0  0  1  0  0  0  0  0999 V2000
    6.3500  -17.6017   24.1097 N   0  0  0  0  0  0  0  0  0  0  0  0
    7.3024  -16.6269   23.6416 C   0  0  1  0  0  0  0  0  0  0  0  0
    8.0252  -16.0297   24.8054 C   0  0  0  0  0  0  0  0  0  0  0  0
    7.2042  -15.0687   25.5832 C   0  0  0  0  0  0  0  0  0  0  0  0
    6.1313  -15.3785   26.4239 C   0  0  0  0  0  0  0  0  0  0  0  0
    5.6355  -14.2438   26.9177 N   0  0  0  0  0  0  0  0  0  0  0  0
    6.3023  -13.1862   26.4673 C   0  0  0  0  0  0  0  0  0  0  0  0
    6.1542  -11.8430   26.7062 C   0  0  0  0  0  0  0  0  0  0  0  0
    7.0014  -10.9339   26.1084 C   0  0  0  0  0  0  0  0  0  0  0  0
    7.9865  -11.4228   25.2753 C   0  0  0  0  0  0  0  0  0  0  0  0
    8.1228  -12.7746   25.0447 C   0  0  0  0  0  0  0  0  0  0  0  0
    7.2876  -13.6951   25.6305 C   0  0  0  0  0  0  0  0  0  0  0  0
    8.2144  -17.2879   22.6790 C   0  0  0  0  0  0  0  0  0  0  0  0
    8.6647  -18.4454   22.9045 O   0  0  0  0  0  0  0  0  0  0  0  0
    9.4667  -14.9680   19.8312 O   0  0  0  0  0  0  0  0  0  0  0  0
    9.9557  -16.2241   19.5478 C   0  0  0  0  0  0  0  0  0  0  0  0
    9.9446  -17.0291   20.8511 C   0  0  2  0  0  0  0  0  0  0  0  0
    8.6450  -16.6923   21.4596 N   0  0  0  0  0  0  0  0  0  0  0  0
   11.0549  -16.6940   21.7387 C   0  0  0  0  0  0  0  0  0  0  0  0
   11.2132  -15.5772   22.2952 O   0  0  0  0  0  0  0  0  0  0  0  0
   12.0455  -17.6720   22.0181 N   0  0  0  0  0  0  0  0  0  0  0  0
   13.1496  -17.3984   22.9170 C   0  0  1  0  0  0  0  0  0  0  0  0
   13.1798  -18.3551   24.0834 C   0  0  0  0  0  0  0  0  0  0  0  0
   11.6072  -18.1629   24.9837 S   0  0  0  0  0  0  0  0  0  0  0  0
   14.4009  -17.5566   22.1341 C   0  0  0  0  0  0  0  0  0  0  0  0
   14.4111  -17.9544   20.9254 O   0  0  0  0  0  0  0  0  0  0  0  0
   15.6656  -17.2763   22.6773 O   0  0  0  0  0  0  0  0  0  0  0  0
  2  1  1  1
  2 13  1  0
  3  2  1  0
  4  5  2  0
  4  3  1  0
  6  5  1  0
  7 12  2  0
  7  6  1  0
  8  7  1  0
  9 10  1  0
  9  8  2  0
 10 11  2  0
 11 12  1  0
 12  4  1  0
 13 14  2  0
 17 16  1  6
 16 15  1  0
 18 17  1  0
 18 13  1  0
 19 20  2  0
 19 17  1  0
 21 19  1  0
 22 25  1  0
 22 21  1  0
 22 23  1  1
 24 23  1  0
 25 27  1  0
 26 25  2  0
M  END
$$$$
