WSC.pdb
     RDKit          3D

 27 28  0  0  1  0  0  0  0  0999 V2000
    6.8016  -17.6599   24.1270 N   0  0  0  0  0  0  0  0  0  0  0  0
    7.6843  -16.6249   23.6517 C   0  0  1  0  0  0  0  0  0  0  0  0
    8.2712  -15.8905   24.8136 C   0  0  0  0  0  0  0  0  0  0  0  0
    7.2868  -15.0541   25.5444 C   0  0  0  0  0  0  0  0  0  0  0  0
    6.1585  -15.5063   26.2347 C   0  0  0  0  0  0  0  0  0  0  0  0
    5.5124  -14.4516   26.7320 N   0  0  0  0  0  0  0  0  0  0  0  0
    6.1290  -13.3152   26.4245 C   0  0  0  0  0  0  0  0  0  0  0  0
    5.8370  -12.0077   26.7217 C   0  0  0  0  0  0  0  0  0  0  0  0
    6.6618  -10.9945   26.2807 C   0  0  0  0  0  0  0  0  0  0  0  0
    7.7729  -11.3444   25.5415 C   0  0  0  0  0  0  0  0  0  0  0  0
    8.0531  -12.6619   25.2506 C   0  0  0  0  0  0  0  0  0  0  0  0
    7.2425  -13.6847   25.6805 C   0  0  0  0  0  0  0  0  0  0  0  0
    8.7148  -17.2480   22.7885 C   0  0  0  0  0  0  0  0  0  0  0  0
    9.1987  -18.3789   23.0721 O   0  0  0  0  0  0  0  0  0  0  0  0
    9.6597  -15.2679   19.7784 O   0  0  0  0  0  0  0  0  0  0  0  0
   10.5118  -16.3416   19.6432 C   0  0  0  0  0  0  0  0  0  0  0  0
   10.4389  -17.1554   20.9390 C   0  0  2  0  0  0  0  0  0  0  0  0
    9.2284  -16.6433   21.6064 N   0  0  0  0  0  0  0  0  0  0  0  0
   11.6222  -16.9971   21.7800 C   0  0  0  0  0  0  0  0  0  0  0  0
   11.8289  -16.0216   22.5469 O   0  0  0  0  0  0  0  0  0  0  0  0
   12.6327  -17.9942   21.7590 N   0  0  0  0  0  0  0  0  0  0  0  0
   13.8273  -17.8812   22.5727 C   0  0  1  0  0  0  0  0  0  0  0  0
   14.5368  -19.2044   22.7225 C   0  0  0  0  0  0  0  0  0  0  0  0
   14.3806  -20.0866   21.1357 S   0  0  0  0  0  0  0  0  0  0  0  0
   14.7340  -16.9253   21.8887 C   0  0  0  0  0  0  0  0  0  0  0  0
   14.5144  -16.4885   20.7138 O   0  0  0  0  0  0  0  0  0  0  0  0
   15.9023  -16.4352   22.4954 O   0  0  0  0  0  0  0  0  0  0  0  0
  2  1  1  1
  2 13  1  0
  3  2  1  0
  4  5  2  0
  4  3  1  0
  6  5  1  0
  7 12  2  0
  7  6  1  0
  8  7  1  0
  9 10  1  0
  9  8  2  0
 10 11  2  0
 11 12  1  0
 12  4  1  0
 13 14  2  0
 17 16  1  6
 16 15  1  0
 18 17  1  0
 18 13  1  0
 19 20  2  0
 19 17  1  0
 21 19  1  0
 22 25  1  0
 22 21  1  0
 22 23  1  6
 24 23  1  0
 25 27  1  0
 26 25  2  0
M  END
$$$$
