WSC.pdb
     RDKit          3D

 27 28  0  0  1  0  0  0  0  0999 V2000
    8.6317  -16.6647   21.8557 N   0  0  0  0  0  0  0  0  0  0  0  0
    9.1015  -16.1825   23.1297 C   0  0  1  0  0  0  0  0  0  0  0  0
    7.9594  -16.1031   24.0905 C   0  0  0  0  0  0  0  0  0  0  0  0
    7.3311  -14.7601   24.1544 C   0  0  0  0  0  0  0  0  0  0  0  0
    6.5473  -14.1587   23.1654 C   0  0  0  0  0  0  0  0  0  0  0  0
    6.1924  -12.9436   23.5835 N   0  0  0  0  0  0  0  0  0  0  0  0
    6.6836  -12.6828   24.7904 C   0  0  0  0  0  0  0  0  0  0  0  0
    6.5748  -11.5823   25.6030 C   0  0  0  0  0  0  0  0  0  0  0  0
    7.1862  -11.5686   26.8389 C   0  0  0  0  0  0  0  0  0  0  0  0
    7.8988  -12.6877   27.2173 C   0  0  0  0  0  0  0  0  0  0  0  0
    7.9996  -13.7854   26.3903 C   0  0  0  0  0  0  0  0  0  0  0  0
    7.3982  -13.8169   25.1553 C   0  0  0  0  0  0  0  0  0  0  0  0
   10.1838  -17.0787   23.5996 C   0  0  0  0  0  0  0  0  0  0  0  0
   10.0270  -18.3312   23.6119 O   0  0  0  0  0  0  0  0  0  0  0  0
   13.7145  -15.6072   25.0767 O   0  0  0  0  0  0  0  0  0  0  0  0
   13.7712  -16.8336   24.4524 C   0  0  0  0  0  0  0  0  0  0  0  0
   12.4263  -17.5308   24.6805 C   0  0  2  0  0  0  0  0  0  0  0  0
   11.4490  -16.6173   24.0614 N   0  0  0  0  0  0  0  0  0  0  0  0
   12.1312  -17.7539   26.0932 C   0  0  0  0  0  0  0  0  0  0  0  0
   11.6141  -16.9004   26.8590 O   0  0  0  0  0  0  0  0  0  0  0  0
   12.4341  -19.0107   26.6801 N   0  0  0  0  0  0  0  0  0  0  0  0
   12.1964  -19.2682   28.0869 C   0  0  1  0  0  0  0  0  0  0  0  0
   11.7222  -20.6796   28.3313 C   0  0  0  0  0  0  0  0  0  0  0  0
   10.1447  -20.8837   27.4423 S   0  0  0  0  0  0  0  0  0  0  0  0
   13.4866  -19.0665   28.7929 C   0  0  0  0  0  0  0  0  0  0  0  0
   14.5559  -18.7306   28.1904 O   0  0  0  0  0  0  0  0  0  0  0  0
   13.6153  -19.2335   30.1817 O   0  0  0  0  0  0  0  0  0  0  0  0
  2  1  1  6
  2 13  1  0
  3  2  1  0
  4  5  2  0
  4  3  1  0
  6  5  1  0
  7 12  2  0
  7  6  1  0
  8  7  1  0
  9 10  1  0
  9  8  2  0
 10 11  2  0
 11 12  1  0
 12  4  1  0
 13 14  2  0
 17 16  1  1
 16 15  1  0
 18 17  1  0
 18 13  1  0
 19 20  2  0
 19 17  1  0
 21 19  1  0
 22 25  1  0
 22 21  1  0
 22 23  1  6
 24 23  1  0
 25 27  1  0
 26 25  2  0
M  END
$$$$
