WSC.pdb
     RDKit          3D

 27 28  0  0  1  0  0  0  0  0999 V2000
    7.0633  -17.3884   23.9081 N   0  0  0  0  0  0  0  0  0  0  0  0
    8.3143  -16.6756   23.9662 C   0  0  1  0  0  0  0  0  0  0  0  0
    8.4784  -16.0554   25.3161 C   0  0  0  0  0  0  0  0  0  0  0  0
    7.4151  -15.0758   25.6514 C   0  0  0  0  0  0  0  0  0  0  0  0
    6.0862  -15.3659   25.9740 C   0  0  0  0  0  0  0  0  0  0  0  0
    5.4386  -14.2195   26.1829 N   0  0  0  0  0  0  0  0  0  0  0  0
    6.2414  -13.1725   26.0236 C   0  0  0  0  0  0  0  0  0  0  0  0
    6.0179  -11.8236   26.1407 C   0  0  0  0  0  0  0  0  0  0  0  0
    7.0449  -10.9285   25.9273 C   0  0  0  0  0  0  0  0  0  0  0  0
    8.2842  -11.4371   25.5972 C   0  0  0  0  0  0  0  0  0  0  0  0
    8.4934  -12.7944   25.4829 C   0  0  0  0  0  0  0  0  0  0  0  0
    7.4822  -13.7011   25.6907 C   0  0  0  0  0  0  0  0  0  0  0  0
    9.4070  -17.6191   23.6330 C   0  0  0  0  0  0  0  0  0  0  0  0
    9.3636  -18.8209   24.0168 O   0  0  0  0  0  0  0  0  0  0  0  0
   12.9357  -16.0174   22.3906 O   0  0  0  0  0  0  0  0  0  0  0  0
   12.7489  -17.3208   21.9864 C   0  0  0  0  0  0  0  0  0  0  0  0
   11.8303  -17.9950   23.0103 C   0  0  2  0  0  0  0  0  0  0  0  0
   10.5590  -17.2609   22.8770 N   0  0  0  0  0  0  0  0  0  0  0  0
   12.3482  -17.9265   24.3741 C   0  0  0  0  0  0  0  0  0  0  0  0
   12.0449  -17.0370   25.2102 O   0  0  0  0  0  0  0  0  0  0  0  0
   13.2601  -18.9167   24.8256 N   0  0  0  0  0  0  0  0  0  0  0  0
   13.5060  -19.1345   26.2377 C   0  0  1  0  0  0  0  0  0  0  0  0
   12.4253  -19.9707   26.8775 C   0  0  0  0  0  0  0  0  0  0  0  0
   11.7347  -19.0015   28.2575 S   0  0  0  0  0  0  0  0  0  0  0  0
   14.7996  -19.8538   26.3509 C   0  0  0  0  0  0  0  0  0  0  0  0
   15.1726  -20.7357   25.5127 O   0  0  0  0  0  0  0  0  0  0  0  0
   15.7047  -19.6085   27.3967 O   0  0  0  0  0  0  0  0  0  0  0  0
  2  1  1  1
  2 13  1  0
  3  2  1  0
  4  5  2  0
  4  3  1  0
  6  5  1  0
  7 12  2  0
  7  6  1  0
  8  7  1  0
  9 10  1  0
  9  8  2  0
 10 11  2  0
 11 12  1  0
 12  4  1  0
 13 14  2  0
 17 16  1  6
 16 15  1  0
 18 17  1  0
 18 13  1  0
 19 20  2  0
 19 17  1  0
 21 19  1  0
 22 25  1  0
 22 21  1  0
 22 23  1  6
 24 23  1  0
 25 27  1  0
 26 25  2  0
M  END
$$$$
