WSC.pdb
     RDKit          3D

 27 28  0  0  1  0  0  0  0  0999 V2000
    6.5562  -17.4597   23.6595 N   0  0  0  0  0  0  0  0  0  0  0  0
    7.6813  -16.5822   23.4581 C   0  0  1  0  0  0  0  0  0  0  0  0
    8.1810  -16.0927   24.7789 C   0  0  0  0  0  0  0  0  0  0  0  0
    7.2767  -15.1110   25.4277 C   0  0  0  0  0  0  0  0  0  0  0  0
    6.0321  -15.3789   26.0048 C   0  0  0  0  0  0  0  0  0  0  0  0
    5.5163  -14.2351   26.4554 N   0  0  0  0  0  0  0  0  0  0  0  0
    6.3299  -13.2106   26.2220 C   0  0  0  0  0  0  0  0  0  0  0  0
    6.2207  -11.8732   26.5094 C   0  0  0  0  0  0  0  0  0  0  0  0
    7.2319  -11.0031   26.1604 C   0  0  0  0  0  0  0  0  0  0  0  0
    8.3381  -11.5244   25.5217 C   0  0  0  0  0  0  0  0  0  0  0  0
    8.4336  -12.8699   25.2393 C   0  0  0  0  0  0  0  0  0  0  0  0
    7.4358  -13.7516   25.5784 C   0  0  0  0  0  0  0  0  0  0  0  0
    8.7154  -17.3150   22.6906 C   0  0  0  0  0  0  0  0  0  0  0  0
    9.0426  -18.4925   23.0067 O   0  0  0  0  0  0  0  0  0  0  0  0
   10.9146  -15.0275   20.1840 O   0  0  0  0  0  0  0  0  0  0  0  0
   11.1049  -16.3756   19.9753 C   0  0  0  0  0  0  0  0  0  0  0  0
   10.8158  -17.0932   21.2975 C   0  0  2  0  0  0  0  0  0  0  0  0
    9.4035  -16.7702   21.5696 N   0  0  0  0  0  0  0  0  0  0  0  0
   11.6850  -16.6557   22.3865 C   0  0  0  0  0  0  0  0  0  0  0  0
   11.4466  -15.6798   23.1434 O   0  0  0  0  0  0  0  0  0  0  0  0
   12.8931  -17.3569   22.6407 N   0  0  0  0  0  0  0  0  0  0  0  0
   13.3581  -17.6023   23.9918 C   0  0  1  0  0  0  0  0  0  0  0  0
   12.2886  -18.2273   24.8533 C   0  0  0  0  0  0  0  0  0  0  0  0
   12.0080  -17.1106   26.2657 S   0  0  0  0  0  0  0  0  0  0  0  0
   14.5056  -18.5392   23.8964 C   0  0  0  0  0  0  0  0  0  0  0  0
   15.6651  -18.2547   24.3366 O   0  0  0  0  0  0  0  0  0  0  0  0
   14.3887  -19.8106   23.3106 O   0  0  0  0  0  0  0  0  0  0  0  0
  2  1  1  1
  2 13  1  0
  3  2  1  0
  4  5  2  0
  4  3  1  0
  6  5  1  0
  7 12  2  0
  7  6  1  0
  8  7  1  0
  9 10  1  0
  9  8  2  0
 10 11  2  0
 11 12  1  0
 12  4  1  0
 13 14  2  0
 17 16  1  6
 16 15  1  0
 18 17  1  0
 18 13  1  0
 19 20  2  0
 19 17  1  0
 21 19  1  0
 22 25  1  0
 22 21  1  0
 22 23  1  1
 24 23  1  0
 25 27  1  0
 26 25  2  0
M  END
$$$$
