WSC.pdb
     RDKit          3D

 27 28  0  0  1  0  0  0  0  0999 V2000
    6.2883  -17.5162   24.1225 N   0  0  0  0  0  0  0  0  0  0  0  0
    7.0530  -16.4726   23.4880 C   0  0  1  0  0  0  0  0  0  0  0  0
    7.9738  -15.8459   24.4846 C   0  0  0  0  0  0  0  0  0  0  0  0
    7.2852  -14.9483   25.4450 C   0  0  0  0  0  0  0  0  0  0  0  0
    6.4097  -15.3329   26.4647 C   0  0  0  0  0  0  0  0  0  0  0  0
    5.9778  -14.2381   27.0908 N   0  0  0  0  0  0  0  0  0  0  0  0
    6.5034  -13.1376   26.5628 C   0  0  0  0  0  0  0  0  0  0  0  0
    6.3545  -11.8109   26.8800 C   0  0  0  0  0  0  0  0  0  0  0  0
    7.0337  -10.8459   26.1666 C   0  0  0  0  0  0  0  0  0  0  0  0
    7.8545  -11.2630   25.1391 C   0  0  0  0  0  0  0  0  0  0  0  0
    7.9939  -12.5992   24.8319 C   0  0  0  0  0  0  0  0  0  0  0  0
    7.3245  -13.5746   25.5308 C   0  0  0  0  0  0  0  0  0  0  0  0
    7.7724  -17.0561   22.3316 C   0  0  0  0  0  0  0  0  0  0  0  0
    8.2870  -18.2066   22.4032 O   0  0  0  0  0  0  0  0  0  0  0  0
    8.8224  -14.7117   19.1968 O   0  0  0  0  0  0  0  0  0  0  0  0
    8.5655  -16.0157   18.8352 C   0  0  0  0  0  0  0  0  0  0  0  0
    8.8588  -16.8989   20.0519 C   0  0  2  0  0  0  0  0  0  0  0  0
    7.9380  -16.3899   21.0842 N   0  0  0  0  0  0  0  0  0  0  0  0
   10.2499  -16.8234   20.4903 C   0  0  0  0  0  0  0  0  0  0  0  0
   10.7173  -15.9224   21.2331 O   0  0  0  0  0  0  0  0  0  0  0  0
   11.1699  -17.8197   20.0699 N   0  0  0  0  0  0  0  0  0  0  0  0
   12.5480  -17.8183   20.5201 C   0  0  1  0  0  0  0  0  0  0  0  0
   12.9885  -19.1802   20.9973 C   0  0  0  0  0  0  0  0  0  0  0  0
   13.7291  -18.9635   22.6480 S   0  0  0  0  0  0  0  0  0  0  0  0
   13.3866  -17.4216   19.3611 C   0  0  0  0  0  0  0  0  0  0  0  0
   13.0473  -17.6489   18.1559 O   0  0  0  0  0  0  0  0  0  0  0  0
   14.6184  -16.7647   19.5171 O   0  0  0  0  0  0  0  0  0  0  0  0
  2  1  1  1
  2 13  1  0
  3  2  1  0
  4  5  2  0
  4  3  1  0
  6  5  1  0
  7 12  2  0
  7  6  1  0
  8  7  1  0
  9 10  1  0
  9  8  2  0
 10 11  2  0
 11 12  1  0
 12  4  1  0
 13 14  2  0
 17 16  1  6
 16 15  1  0
 18 17  1  0
 18 13  1  0
 19 20  2  0
 19 17  1  0
 21 19  1  0
 22 25  1  0
 22 21  1  0
 22 23  1  6
 24 23  1  0
 25 27  1  0
 26 25  2  0
M  END
$$$$
