WSC.pdb
     RDKit          3D

 27 28  0  0  1  0  0  0  0  0999 V2000
    6.9611  -17.2944   23.2998 N   0  0  0  0  0  0  0  0  0  0  0  0
    8.0353  -16.3361   23.2369 C   0  0  1  0  0  0  0  0  0  0  0  0
    8.4524  -15.9553   24.6207 C   0  0  0  0  0  0  0  0  0  0  0  0
    7.4417  -15.1420   25.3415 C   0  0  0  0  0  0  0  0  0  0  0  0
    6.3426  -15.6229   26.0590 C   0  0  0  0  0  0  0  0  0  0  0  0
    5.6575  -14.5835   26.5360 N   0  0  0  0  0  0  0  0  0  0  0  0
    6.2205  -13.4307   26.1892 C   0  0  0  0  0  0  0  0  0  0  0  0
    5.8756  -12.1292   26.4545 C   0  0  0  0  0  0  0  0  0  0  0  0
    6.6502  -11.0941   25.9748 C   0  0  0  0  0  0  0  0  0  0  0  0
    7.7663  -11.4163   25.2306 C   0  0  0  0  0  0  0  0  0  0  0  0
    8.0998  -12.7282   24.9720 C   0  0  0  0  0  0  0  0  0  0  0  0
    7.3397  -13.7725   25.4407 C   0  0  0  0  0  0  0  0  0  0  0  0
    9.1422  -16.9244   22.4468 C   0  0  0  0  0  0  0  0  0  0  0  0
    9.5152  -18.1144   22.6420 O   0  0  0  0  0  0  0  0  0  0  0  0
   11.4562  -14.5342   20.0399 O   0  0  0  0  0  0  0  0  0  0  0  0
   11.3929  -15.8611   19.6756 C   0  0  0  0  0  0  0  0  0  0  0  0
   11.1678  -16.6800   20.9505 C   0  0  2  0  0  0  0  0  0  0  0  0
    9.8538  -16.2197   21.4348 N   0  0  0  0  0  0  0  0  0  0  0  0
   12.2102  -16.4749   21.9524 C   0  0  0  0  0  0  0  0  0  0  0  0
   12.2649  -15.4928   22.7365 O   0  0  0  0  0  0  0  0  0  0  0  0
   13.2525  -17.4302   22.0818 N   0  0  0  0  0  0  0  0  0  0  0  0
   14.2888  -17.2913   23.0862 C   0  0  1  0  0  0  0  0  0  0  0  0
   14.2979  -18.4494   24.0533 C   0  0  0  0  0  0  0  0  0  0  0  0
   12.7709  -18.3427   25.0420 S   0  0  0  0  0  0  0  0  0  0  0  0
   15.5891  -17.2532   22.3710 C   0  0  0  0  0  0  0  0  0  0  0  0
   15.6851  -17.3874   21.1093 O   0  0  0  0  0  0  0  0  0  0  0  0
   16.8086  -17.0651   23.0424 O   0  0  0  0  0  0  0  0  0  0  0  0
  2  1  1  1
  2 13  1  0
  3  2  1  0
  4  5  2  0
  4  3  1  0
  6  5  1  0
  7 12  2  0
  7  6  1  0
  8  7  1  0
  9 10  1  0
  9  8  2  0
 10 11  2  0
 11 12  1  0
 12  4  1  0
 13 14  2  0
 17 16  1  6
 16 15  1  0
 18 17  1  0
 18 13  1  0
 19 20  2  0
 19 17  1  0
 21 19  1  0
 22 25  1  0
 22 21  1  0
 22 23  1  1
 24 23  1  0
 25 27  1  0
 26 25  2  0
M  END
$$$$
