WSC.pdb
     RDKit          3D

 27 28  0  0  1  0  0  0  0  0999 V2000
    6.7802  -17.7075   24.3229 N   0  0  0  0  0  0  0  0  0  0  0  0
    7.4181  -16.6941   23.5212 C   0  0  1  0  0  0  0  0  0  0  0  0
    8.1125  -15.7126   24.4091 C   0  0  0  0  0  0  0  0  0  0  0  0
    7.1862  -14.9220   25.2572 C   0  0  0  0  0  0  0  0  0  0  0  0
    6.0909  -15.4109   25.9751 C   0  0  0  0  0  0  0  0  0  0  0  0
    5.4928  -14.3892   26.5880 N   0  0  0  0  0  0  0  0  0  0  0  0
    6.1111  -13.2409   26.3328 C   0  0  0  0  0  0  0  0  0  0  0  0
    5.8597  -11.9564   26.7452 C   0  0  0  0  0  0  0  0  0  0  0  0
    6.6760  -10.9233   26.3356 C   0  0  0  0  0  0  0  0  0  0  0  0
    7.7370  -11.2299   25.5089 C   0  0  0  0  0  0  0  0  0  0  0  0
    7.9769  -12.5247   25.1027 C   0  0  0  0  0  0  0  0  0  0  0  0
    7.1740  -13.5667   25.4996 C   0  0  0  0  0  0  0  0  0  0  0  0
    8.3404  -17.3598   22.5718 C   0  0  0  0  0  0  0  0  0  0  0  0
    8.8516  -18.4812   22.8450 O   0  0  0  0  0  0  0  0  0  0  0  0
    8.9733  -15.4264   19.4277 O   0  0  0  0  0  0  0  0  0  0  0  0
    9.9577  -16.3865   19.3466 C   0  0  0  0  0  0  0  0  0  0  0  0
   10.0258  -17.0941   20.7035 C   0  0  2  0  0  0  0  0  0  0  0  0
    8.7148  -16.8084   21.3137 N   0  0  0  0  0  0  0  0  0  0  0  0
   11.1225  -16.6170   21.5417 C   0  0  0  0  0  0  0  0  0  0  0  0
   11.1401  -15.5065   22.1322 O   0  0  0  0  0  0  0  0  0  0  0  0
   12.2667  -17.4367   21.7284 N   0  0  0  0  0  0  0  0  0  0  0  0
   13.3605  -17.0283   22.5879 C   0  0  1  0  0  0  0  0  0  0  0  0
   13.5493  -17.9719   23.7500 C   0  0  0  0  0  0  0  0  0  0  0  0
   12.1741  -17.6854   24.9107 S   0  0  0  0  0  0  0  0  0  0  0  0
   14.5929  -17.0337   21.7603 C   0  0  0  0  0  0  0  0  0  0  0  0
   14.8625  -17.9622   20.9329 O   0  0  0  0  0  0  0  0  0  0  0  0
   15.5503  -16.0086   21.8346 O   0  0  0  0  0  0  0  0  0  0  0  0
  2  1  1  1
  2 13  1  0
  3  2  1  0
  4  5  2  0
  4  3  1  0
  6  5  1  0
  7 12  2  0
  7  6  1  0
  8  7  1  0
  9 10  1  0
  9  8  2  0
 10 11  2  0
 11 12  1  0
 12  4  1  0
 13 14  2  0
 17 16  1  6
 16 15  1  0
 18 17  1  0
 18 13  1  0
 19 20  2  0
 19 17  1  0
 21 19  1  0
 22 25  1  0
 22 21  1  0
 22 23  1  1
 24 23  1  0
 25 27  1  0
 26 25  2  0
M  END
$$$$
