WSC.pdb
     RDKit          3D

 27 28  0  0  1  0  0  0  0  0999 V2000
    6.3841  -17.6188   24.0475 N   0  0  0  0  0  0  0  0  0  0  0  0
    7.2014  -16.6258   23.3976 C   0  0  1  0  0  0  0  0  0  0  0  0
    7.9944  -15.8782   24.4203 C   0  0  0  0  0  0  0  0  0  0  0  0
    7.1734  -14.9699   25.2590 C   0  0  0  0  0  0  0  0  0  0  0  0
    6.0618  -15.3239   26.0290 C   0  0  0  0  0  0  0  0  0  0  0  0
    5.5811  -14.2262   26.6131 N   0  0  0  0  0  0  0  0  0  0  0  0
    6.2942  -13.1524   26.2898 C   0  0  0  0  0  0  0  0  0  0  0  0
    6.1762  -11.8341   26.6522 C   0  0  0  0  0  0  0  0  0  0  0  0
    7.0707  -10.8998   26.1741 C   0  0  0  0  0  0  0  0  0  0  0  0
    8.0712  -11.3385   25.3315 C   0  0  0  0  0  0  0  0  0  0  0  0
    8.1769  -12.6657   24.9761 C   0  0  0  0  0  0  0  0  0  0  0  0
    7.2945  -13.6105   25.4416 C   0  0  0  0  0  0  0  0  0  0  0  0
    8.0553  -17.3051   22.3952 C   0  0  0  0  0  0  0  0  0  0  0  0
    8.5517  -18.4413   22.6317 O   0  0  0  0  0  0  0  0  0  0  0  0
    8.4162  -15.5108   19.1758 O   0  0  0  0  0  0  0  0  0  0  0  0
    9.5585  -16.2792   19.1305 C   0  0  0  0  0  0  0  0  0  0  0  0
    9.6643  -17.0287   20.4622 C   0  0  2  0  0  0  0  0  0  0  0  0
    8.3765  -16.7512   21.1235 N   0  0  0  0  0  0  0  0  0  0  0  0
   10.7920  -16.5868   21.2781 C   0  0  0  0  0  0  0  0  0  0  0  0
   10.8659  -15.4689   21.8500 O   0  0  0  0  0  0  0  0  0  0  0  0
   11.9021  -17.4525   21.4631 N   0  0  0  0  0  0  0  0  0  0  0  0
   13.0286  -17.0748   22.2940 C   0  0  1  0  0  0  0  0  0  0  0  0
   12.7550  -17.3104   23.7590 C   0  0  0  0  0  0  0  0  0  0  0  0
   11.8674  -18.8959   23.8972 S   0  0  0  0  0  0  0  0  0  0  0  0
   14.1795  -17.9158   21.8795 C   0  0  0  0  0  0  0  0  0  0  0  0
   14.0972  -18.7894   20.9578 O   0  0  0  0  0  0  0  0  0  0  0  0
   15.4445  -17.8037   22.4798 O   0  0  0  0  0  0  0  0  0  0  0  0
  2  1  1  1
  2 13  1  0
  3  2  1  0
  4  5  2  0
  4  3  1  0
  6  5  1  0
  7 12  2  0
  7  6  1  0
  8  7  1  0
  9 10  1  0
  9  8  2  0
 10 11  2  0
 11 12  1  0
 12  4  1  0
 13 14  2  0
 17 16  1  6
 16 15  1  0
 18 17  1  0
 18 13  1  0
 19 20  2  0
 19 17  1  0
 21 19  1  0
 22 25  1  0
 22 21  1  0
 22 23  1  1
 24 23  1  0
 25 27  1  0
 26 25  2  0
M  END
$$$$
