WSC.pdb
     RDKit          3D

 27 28  0  0  1  0  0  0  0  0999 V2000
    6.0496  -17.3989   22.2805 N   0  0  0  0  0  0  0  0  0  0  0  0
    7.2668  -16.6671   22.5241 C   0  0  1  0  0  0  0  0  0  0  0  0
    6.9730  -15.2025   22.5715 C   0  0  0  0  0  0  0  0  0  0  0  0
    7.1369  -14.5225   21.2626 C   0  0  0  0  0  0  0  0  0  0  0  0
    6.1142  -14.1156   20.4009 C   0  0  0  0  0  0  0  0  0  0  0  0
    6.6634  -13.5700   19.3156 N   0  0  0  0  0  0  0  0  0  0  0  0
    7.9905  -13.5801   19.3859 C   0  0  0  0  0  0  0  0  0  0  0  0
    8.9547  -13.1280   18.5205 C   0  0  0  0  0  0  0  0  0  0  0  0
   10.2899  -13.2528   18.8419 C   0  0  0  0  0  0  0  0  0  0  0  0
   10.6095  -13.8405   20.0485 C   0  0  0  0  0  0  0  0  0  0  0  0
    9.6301  -14.2900   20.9073 C   0  0  0  0  0  0  0  0  0  0  0  0
    8.2949  -14.1752   20.6037 C   0  0  0  0  0  0  0  0  0  0  0  0
    7.8728  -17.1704   23.7790 C   0  0  0  0  0  0  0  0  0  0  0  0
    7.1585  -17.4096   24.7919 O   0  0  0  0  0  0  0  0  0  0  0  0
   11.9428  -17.8837   24.2115 O   0  0  0  0  0  0  0  0  0  0  0  0
   11.0416  -18.5716   24.9938 C   0  0  0  0  0  0  0  0  0  0  0  0
    9.8620  -17.6347   25.2721 C   0  0  2  0  0  0  0  0  0  0  0  0
    9.2654  -17.4181   23.9417 N   0  0  0  0  0  0  0  0  0  0  0  0
   10.2669  -16.3747   25.8895 C   0  0  0  0  0  0  0  0  0  0  0  0
   11.0444  -15.5379   25.3628 O   0  0  0  0  0  0  0  0  0  0  0  0
    9.7679  -16.0343   27.1744 N   0  0  0  0  0  0  0  0  0  0  0  0
   10.3182  -14.9285   27.9336 C   0  0  1  0  0  0  0  0  0  0  0  0
    9.3139  -13.8189   28.1254 C   0  0  0  0  0  0  0  0  0  0  0  0
    8.5826  -13.4610   26.4952 S   0  0  0  0  0  0  0  0  0  0  0  0
   10.7052  -15.4608   29.2642 C   0  0  0  0  0  0  0  0  0  0  0  0
   11.1899  -14.7277   30.1845 O   0  0  0  0  0  0  0  0  0  0  0  0
   10.5617  -16.8173   29.5997 O   0  0  0  0  0  0  0  0  0  0  0  0
  2  1  1  1
  2 13  1  0
  3  2  1  0
  4  5  2  0
  4  3  1  0
  6  5  1  0
  7 12  2  0
  7  6  1  0
  8  7  1  0
  9 10  1  0
  9  8  2  0
 10 11  2  0
 11 12  1  0
 12  4  1  0
 13 14  2  0
 17 16  1  6
 16 15  1  0
 18 17  1  0
 18 13  1  0
 19 20  2  0
 19 17  1  0
 21 19  1  0
 22 25  1  0
 22 21  1  0
 22 23  1  1
 24 23  1  0
 25 27  1  0
 26 25  2  0
M  END
$$$$
