WSC.pdb
     RDKit          3D

 27 28  0  0  1  0  0  0  0  0999 V2000
    9.3790  -15.0821   24.1799 N   0  0  0  0  0  0  0  0  0  0  0  0
    8.9246  -16.1477   25.0369 C   0  0  1  0  0  0  0  0  0  0  0  0
    7.4532  -16.3424   24.8615 C   0  0  0  0  0  0  0  0  0  0  0  0
    6.7177  -15.0834   24.5846 C   0  0  0  0  0  0  0  0  0  0  0  0
    5.8337  -14.8499   23.5273 C   0  0  0  0  0  0  0  0  0  0  0  0
    5.4002  -13.5915   23.6044 N   0  0  0  0  0  0  0  0  0  0  0  0
    5.9320  -12.9579   24.6445 C   0  0  0  0  0  0  0  0  0  0  0  0
    5.7744  -11.6775   25.1125 C   0  0  0  0  0  0  0  0  0  0  0  0
    6.4481  -11.2632   26.2421 C   0  0  0  0  0  0  0  0  0  0  0  0
    7.2724  -12.1738   26.8705 C   0  0  0  0  0  0  0  0  0  0  0  0
    7.4209  -13.4563   26.3886 C   0  0  0  0  0  0  0  0  0  0  0  0
    6.7587  -13.8866   25.2642 C   0  0  0  0  0  0  0  0  0  0  0  0
    9.7050  -17.3672   24.7219 C   0  0  0  0  0  0  0  0  0  0  0  0
    9.3133  -18.5035   25.1075 O   0  0  0  0  0  0  0  0  0  0  0  0
   13.4683  -16.7548   23.2614 O   0  0  0  0  0  0  0  0  0  0  0  0
   13.0273  -18.0558   23.1618 C   0  0  0  0  0  0  0  0  0  0  0  0
   12.0213  -18.2905   24.2930 C   0  0  2  0  0  0  0  0  0  0  0  0
   10.9217  -17.3593   23.9825 N   0  0  0  0  0  0  0  0  0  0  0  0
   12.5816  -18.0357   25.6174 C   0  0  0  0  0  0  0  0  0  0  0  0
   13.5704  -18.6421   26.1040 O   0  0  0  0  0  0  0  0  0  0  0  0
   11.9968  -17.0400   26.4435 N   0  0  0  0  0  0  0  0  0  0  0  0
   12.5140  -16.7526   27.7671 C   0  0  1  0  0  0  0  0  0  0  0  0
   12.2218  -15.3349   28.1928 C   0  0  0  0  0  0  0  0  0  0  0  0
   10.4190  -15.1967   28.4190 S   0  0  0  0  0  0  0  0  0  0  0  0
   11.8455  -17.6841   28.7100 C   0  0  0  0  0  0  0  0  0  0  0  0
   12.2294  -17.8387   29.9133 O   0  0  0  0  0  0  0  0  0  0  0  0
   10.7376  -18.4625   28.3359 O   0  0  0  0  0  0  0  0  0  0  0  0
  2  1  1  6
  2 13  1  0
  3  2  1  0
  4  5  2  0
  4  3  1  0
  6  5  1  0
  7 12  2  0
  7  6  1  0
  8  7  1  0
  9 10  1  0
  9  8  2  0
 10 11  2  0
 11 12  1  0
 12  4  1  0
 13 14  2  0
 17 16  1  6
 16 15  1  0
 18 17  1  0
 18 13  1  0
 19 20  2  0
 19 17  1  0
 21 19  1  0
 22 25  1  0
 22 21  1  0
 22 23  1  1
 24 23  1  0
 25 27  1  0
 26 25  2  0
M  END
$$$$
