WSC.pdb
     RDKit          3D

 27 28  0  0  1  0  0  0  0  0999 V2000
    7.2676  -17.3094   20.8114 N   0  0  0  0  0  0  0  0  0  0  0  0
    7.8376  -16.2870   21.6517 C   0  0  1  0  0  0  0  0  0  0  0  0
    6.8220  -15.2206   21.9068 C   0  0  0  0  0  0  0  0  0  0  0  0
    7.3501  -14.0736   22.6864 C   0  0  0  0  0  0  0  0  0  0  0  0
    8.3390  -13.1735   22.2789 C   0  0  0  0  0  0  0  0  0  0  0  0
    8.5573  -12.3047   23.2661 N   0  0  0  0  0  0  0  0  0  0  0  0
    7.7811  -12.5567   24.3150 C   0  0  0  0  0  0  0  0  0  0  0  0
    7.6577  -11.9331   25.5312 C   0  0  0  0  0  0  0  0  0  0  0  0
    6.7513  -12.3976   26.4608 C   0  0  0  0  0  0  0  0  0  0  0  0
    5.9876  -13.4957   26.1227 C   0  0  0  0  0  0  0  0  0  0  0  0
    6.1229  -14.1117   24.8974 C   0  0  0  0  0  0  0  0  0  0  0  0
    7.0212  -13.6639   23.9591 C   0  0  0  0  0  0  0  0  0  0  0  0
    8.3254  -16.9230   22.8978 C   0  0  0  0  0  0  0  0  0  0  0  0
    7.6295  -17.7886   23.4977 O   0  0  0  0  0  0  0  0  0  0  0  0
   11.9988  -17.6148   23.4620 O   0  0  0  0  0  0  0  0  0  0  0  0
   11.0707  -18.3188   24.1969 C   0  0  0  0  0  0  0  0  0  0  0  0
   10.0374  -17.3156   24.7190 C   0  0  2  0  0  0  0  0  0  0  0  0
    9.5783  -16.6208   23.5027 N   0  0  0  0  0  0  0  0  0  0  0  0
   10.5918  -16.3800   25.6937 C   0  0  0  0  0  0  0  0  0  0  0  0
   11.4429  -15.4925   25.4288 O   0  0  0  0  0  0  0  0  0  0  0  0
   10.1638  -16.4447   27.0459 N   0  0  0  0  0  0  0  0  0  0  0  0
   10.8761  -15.7512   28.1012 C   0  0  1  0  0  0  0  0  0  0  0  0
    9.9596  -14.8795   28.9239 C   0  0  0  0  0  0  0  0  0  0  0  0
    9.1432  -13.7193   27.7803 S   0  0  0  0  0  0  0  0  0  0  0  0
   11.4710  -16.7876   28.9820 C   0  0  0  0  0  0  0  0  0  0  0  0
   11.3287  -18.0345   28.7714 O   0  0  0  0  0  0  0  0  0  0  0  0
   12.2357  -16.4603   30.1140 O   0  0  0  0  0  0  0  0  0  0  0  0
  2  1  1  6
  2 13  1  0
  3  2  1  0
  4  5  2  0
  4  3  1  0
  6  5  1  0
  7 12  2  0
  7  6  1  0
  8  7  1  0
  9 10  1  0
  9  8  2  0
 10 11  2  0
 11 12  1  0
 12  4  1  0
 13 14  2  0
 17 16  1  6
 16 15  1  0
 18 17  1  0
 18 13  1  0
 19 20  2  0
 19 17  1  0
 21 19  1  0
 22 25  1  0
 22 21  1  0
 22 23  1  1
 24 23  1  0
 25 27  1  0
 26 25  2  0
M  END
$$$$
