WSC.pdb
     RDKit          3D

 27 28  0  0  1  0  0  0  0  0999 V2000
    6.7491  -18.1142   24.1846 N   0  0  0  0  0  0  0  0  0  0  0  0
    7.2174  -16.9113   23.5442 C   0  0  1  0  0  0  0  0  0  0  0  0
    8.1390  -16.1772   24.4637 C   0  0  0  0  0  0  0  0  0  0  0  0
    7.4408  -15.2402   25.3786 C   0  0  0  0  0  0  0  0  0  0  0  0
    6.3772  -15.5464   26.2325 C   0  0  0  0  0  0  0  0  0  0  0  0
    6.0076  -14.4345   26.8683 N   0  0  0  0  0  0  0  0  0  0  0  0
    6.7512  -13.3958   26.5017 C   0  0  0  0  0  0  0  0  0  0  0  0
    6.7369  -12.0796   26.8898 C   0  0  0  0  0  0  0  0  0  0  0  0
    7.6405  -11.1874   26.3523 C   0  0  0  0  0  0  0  0  0  0  0  0
    8.5433  -11.6652   25.4249 C   0  0  0  0  0  0  0  0  0  0  0  0
    8.5454  -12.9898   25.0447 C   0  0  0  0  0  0  0  0  0  0  0  0
    7.6522  -13.8930   25.5685 C   0  0  0  0  0  0  0  0  0  0  0  0
    7.8629  -17.2833   22.2635 C   0  0  0  0  0  0  0  0  0  0  0  0
    8.6243  -18.2875   22.1905 O   0  0  0  0  0  0  0  0  0  0  0  0
    7.8072  -14.5840   19.4116 O   0  0  0  0  0  0  0  0  0  0  0  0
    8.0142  -15.8151   18.8295 C   0  0  0  0  0  0  0  0  0  0  0  0
    8.5939  -16.7420   19.9025 C   0  0  2  0  0  0  0  0  0  0  0  0
    7.6843  -16.5629   21.0485 N   0  0  0  0  0  0  0  0  0  0  0  0
    9.9724  -16.4141   20.2561 C   0  0  0  0  0  0  0  0  0  0  0  0
   10.3812  -15.2602   20.5450 O   0  0  0  0  0  0  0  0  0  0  0  0
   10.9493  -17.4439   20.2878 N   0  0  0  0  0  0  0  0  0  0  0  0
   12.2794  -17.2121   20.8160 C   0  0  1  0  0  0  0  0  0  0  0  0
   12.2560  -16.9079   22.2936 C   0  0  0  0  0  0  0  0  0  0  0  0
   13.9850  -16.8728   22.8679 S   0  0  0  0  0  0  0  0  0  0  0  0
   13.0611  -18.4544   20.5942 C   0  0  0  0  0  0  0  0  0  0  0  0
   12.5148  -19.5763   20.3446 O   0  0  0  0  0  0  0  0  0  0  0  0
   14.4647  -18.4760   20.6449 O   0  0  0  0  0  0  0  0  0  0  0  0
  2  1  1  1
  2 13  1  0
  3  2  1  0
  4  5  2  0
  4  3  1  0
  6  5  1  0
  7 12  2  0
  7  6  1  0
  8  7  1  0
  9 10  1  0
  9  8  2  0
 10 11  2  0
 11 12  1  0
 12  4  1  0
 13 14  2  0
 17 16  1  6
 16 15  1  0
 18 17  1  0
 18 13  1  0
 19 20  2  0
 19 17  1  0
 21 19  1  0
 22 25  1  0
 22 21  1  0
 22 23  1  1
 24 23  1  0
 25 27  1  0
 26 25  2  0
M  END
$$$$
