WSC.pdb
     RDKit          3D

 27 28  0  0  1  0  0  0  0  0999 V2000
    6.9788  -17.1824   23.3200 N   0  0  0  0  0  0  0  0  0  0  0  0
    8.2125  -16.4839   23.5779 C   0  0  1  0  0  0  0  0  0  0  0  0
    8.2816  -16.0997   25.0206 C   0  0  0  0  0  0  0  0  0  0  0  0
    7.2384  -15.1246   25.4248 C   0  0  0  0  0  0  0  0  0  0  0  0
    5.8810  -15.3915   25.6258 C   0  0  0  0  0  0  0  0  0  0  0  0
    5.2670  -14.2542   25.9523 N   0  0  0  0  0  0  0  0  0  0  0  0
    6.1191  -13.2349   25.9863 C   0  0  0  0  0  0  0  0  0  0  0  0
    5.9420  -11.9051   26.2750 C   0  0  0  0  0  0  0  0  0  0  0  0
    7.0152  -11.0396   26.2477 C   0  0  0  0  0  0  0  0  0  0  0  0
    8.2521  -11.5578   25.9239 C   0  0  0  0  0  0  0  0  0  0  0  0
    8.4146  -12.8956   25.6360 C   0  0  0  0  0  0  0  0  0  0  0  0
    7.3571  -13.7726   25.6572 C   0  0  0  0  0  0  0  0  0  0  0  0
    9.3384  -17.3528   23.1623 C   0  0  0  0  0  0  0  0  0  0  0  0
    9.1683  -18.2693   22.3111 O   0  0  0  0  0  0  0  0  0  0  0  0
   11.9887  -16.5439   21.4216 O   0  0  0  0  0  0  0  0  0  0  0  0
   11.7331  -17.8755   21.6641 C   0  0  0  0  0  0  0  0  0  0  0  0
   11.7610  -18.0825   23.1816 C   0  0  2  0  0  0  0  0  0  0  0  0
   10.6623  -17.2305   23.6714 N   0  0  0  0  0  0  0  0  0  0  0  0
   13.0377  -17.7105   23.7852 C   0  0  0  0  0  0  0  0  0  0  0  0
   13.5455  -16.5610   23.7322 O   0  0  0  0  0  0  0  0  0  0  0  0
   13.7878  -18.6878   24.4910 N   0  0  0  0  0  0  0  0  0  0  0  0
   14.6329  -18.3307   25.6136 C   0  0  1  0  0  0  0  0  0  0  0  0
   14.3422  -19.1734   26.8309 C   0  0  0  0  0  0  0  0  0  0  0  0
   12.6685  -18.7382   27.4052 S   0  0  0  0  0  0  0  0  0  0  0  0
   16.0381  -18.5618   25.1945 C   0  0  0  0  0  0  0  0  0  0  0  0
   17.0320  -18.3039   25.9461 O   0  0  0  0  0  0  0  0  0  0  0  0
   16.3679  -19.0838   23.9328 O   0  0  0  0  0  0  0  0  0  0  0  0
  2  1  1  1
  2 13  1  0
  3  2  1  0
  4  5  2  0
  4  3  1  0
  6  5  1  0
  7 12  2  0
  7  6  1  0
  8  7  1  0
  9 10  1  0
  9  8  2  0
 10 11  2  0
 11 12  1  0
 12  4  1  0
 13 14  2  0
 17 16  1  6
 16 15  1  0
 18 17  1  0
 18 13  1  0
 19 20  2  0
 19 17  1  0
 21 19  1  0
 22 25  1  0
 22 21  1  0
 22 23  1  1
 24 23  1  0
 25 27  1  0
 26 25  2  0
M  END
$$$$
