CMN.pdb
     RDKit          3D

 23 22  0  0  1  0  0  0  0  0999 V2000
    8.5680  -15.2781   18.7824 N   0  0  0  0  0  0  0  0  0  0  0  0
    7.5760  -14.9620   19.7850 C   0  0  1  0  0  0  0  0  0  0  0  0
    6.5175  -16.0427   19.7363 C   0  0  0  0  0  0  0  0  0  0  0  0
    7.1622  -17.5470   20.5288 S   0  0  0  0  0  0  0  0  0  0  0  0
    8.1758  -14.9187   21.1493 C   0  0  0  0  0  0  0  0  0  0  0  0
    9.3317  -15.3529   21.3215 O   0  0  0  0  0  0  0  0  0  0  0  0
    7.3022  -11.7623   28.3688 C   0  0  0  0  0  0  0  0  0  0  0  0
    6.5440  -12.0397   26.7379 S   0  0  0  0  0  0  0  0  0  0  0  0
    7.6208  -13.2245   25.8532 C   0  0  0  0  0  0  0  0  0  0  0  0
    7.1307  -13.4350   24.4486 C   0  0  0  0  0  0  0  0  0  0  0  0
    7.9706  -14.3034   23.5876 C   0  0  2  0  0  0  0  0  0  0  0  0
    7.4343  -14.3890   22.2292 N   0  0  0  0  0  0  0  0  0  0  0  0
    8.1843  -15.6545   24.1480 C   0  0  0  0  0  0  0  0  0  0  0  0
    7.8036  -16.6806   23.5414 O   0  0  0  0  0  0  0  0  0  0  0  0
   10.8813  -18.2870   22.3815 N   0  0  0  0  0  0  0  0  0  0  0  0
   10.2338  -18.1976   23.6208 C   0  0  0  0  0  0  0  0  0  0  0  0
    9.2488  -18.9816   23.7983 O   0  0  0  0  0  0  0  0  0  0  0  0
   10.6774  -17.2484   24.6556 C   0  0  0  0  0  0  0  0  0  0  0  0
    9.5971  -17.0249   25.6673 C   0  0  2  0  0  0  0  0  0  0  0  0
    8.8430  -15.8223   25.4195 N   0  0  0  0  0  0  0  0  0  0  0  0
   10.0978  -16.9619   27.0649 C   0  0  0  0  0  0  0  0  0  0  0  0
    9.8040  -17.9216   27.9928 O   0  0  0  0  0  0  0  0  0  0  0  0
   10.8262  -15.9961   27.4400 O   0  0  0  0  0  0  0  0  0  0  0  0
  2  1  1  6
  3  2  1  0
  4  3  1  0
  5  2  1  0
  5 12  1  0
  6  5  2  0
  7  8  1  0
  8  9  1  0
  9 10  1  0
 11 10  1  1
 11 12  1  0
 11 13  1  0
 13 20  1  0
 13 14  2  0
 16 17  2  0
 16 15  1  0
 18 16  1  0
 19 21  1  0
 19 18  1  6
 20 19  1  0
 21 22  1  0
 23 21  2  0
M  END
$$$$
