CMN.pdb
     RDKit          3D

 23 22  0  0  1  0  0  0  0  0999 V2000
    9.3147  -15.4403   19.2840 N   0  0  0  0  0  0  0  0  0  0  0  0
    8.4942  -16.0670   20.2956 C   0  0  1  0  0  0  0  0  0  0  0  0
    8.7029  -17.5623   20.1907 C   0  0  0  0  0  0  0  0  0  0  0  0
    7.8726  -18.3812   21.5859 S   0  0  0  0  0  0  0  0  0  0  0  0
    8.8728  -15.6098   21.6633 C   0  0  0  0  0  0  0  0  0  0  0  0
   10.0783  -15.5559   21.9766 O   0  0  0  0  0  0  0  0  0  0  0  0
    7.2046  -11.4945   27.8771 C   0  0  0  0  0  0  0  0  0  0  0  0
    6.7656  -11.9876   26.1813 S   0  0  0  0  0  0  0  0  0  0  0  0
    7.1694  -13.7653   26.0305 C   0  0  0  0  0  0  0  0  0  0  0  0
    6.9782  -14.2311   24.6150 C   0  0  0  0  0  0  0  0  0  0  0  0
    8.1723  -14.8097   23.9514 C   0  0  2  0  0  0  0  0  0  0  0  0
    7.8687  -15.2434   22.5876 N   0  0  0  0  0  0  0  0  0  0  0  0
    8.7956  -15.9082   24.7194 C   0  0  0  0  0  0  0  0  0  0  0  0
    8.2530  -17.0323   24.8087 O   0  0  0  0  0  0  0  0  0  0  0  0
   13.6431  -16.0150   24.1325 N   0  0  0  0  0  0  0  0  0  0  0  0
   12.6472  -16.8658   24.6298 C   0  0  0  0  0  0  0  0  0  0  0  0
   12.1853  -17.7266   23.8161 O   0  0  0  0  0  0  0  0  0  0  0  0
   12.1699  -16.7645   26.0193 C   0  0  0  0  0  0  0  0  0  0  0  0
   10.6748  -16.8163   26.0708 C   0  0  2  0  0  0  0  0  0  0  0  0
   10.0559  -15.7072   25.3903 N   0  0  0  0  0  0  0  0  0  0  0  0
   10.1305  -16.8565   27.4528 C   0  0  0  0  0  0  0  0  0  0  0  0
   10.0766  -18.0088   28.1861 O   0  0  0  0  0  0  0  0  0  0  0  0
    9.6935  -15.8005   27.9987 O   0  0  0  0  0  0  0  0  0  0  0  0
  2  1  1  6
  3  2  1  0
  4  3  1  0
  5  2  1  0
  5 12  1  0
  6  5  2  0
  7  8  1  0
  8  9  1  0
  9 10  1  0
 11 10  1  1
 11 12  1  0
 11 13  1  0
 13 20  1  0
 13 14  2  0
 16 17  2  0
 16 15  1  0
 18 16  1  0
 19 21  1  0
 19 18  1  1
 20 19  1  0
 21 22  1  0
 23 21  2  0
M  END
$$$$
