CMN.pdb
     RDKit          3D

 23 22  0  0  1  0  0  0  0  0999 V2000
    8.1323  -13.0792   19.0075 N   0  0  0  0  0  0  0  0  0  0  0  0
    7.4941  -13.9207   19.9944 C   0  0  1  0  0  0  0  0  0  0  0  0
    7.6528  -15.3561   19.5415 C   0  0  0  0  0  0  0  0  0  0  0  0
    7.7243  -15.4054   17.7252 S   0  0  0  0  0  0  0  0  0  0  0  0
    8.1193  -13.7541   21.3376 C   0  0  0  0  0  0  0  0  0  0  0  0
    9.3255  -13.4483   21.4154 O   0  0  0  0  0  0  0  0  0  0  0  0
    6.7597  -11.3271   28.6260 C   0  0  0  0  0  0  0  0  0  0  0  0
    6.1118  -11.6403   26.9546 S   0  0  0  0  0  0  0  0  0  0  0  0
    7.3547  -12.6704   26.0943 C   0  0  0  0  0  0  0  0  0  0  0  0
    6.9799  -12.8536   24.6510 C   0  0  0  0  0  0  0  0  0  0  0  0
    7.8770  -13.7212   23.8488 C   0  0  2  0  0  0  0  0  0  0  0  0
    7.3447  -13.9428   22.5043 N   0  0  0  0  0  0  0  0  0  0  0  0
    8.1868  -15.0096   24.5040 C   0  0  0  0  0  0  0  0  0  0  0  0
    8.6370  -15.0572   25.6706 O   0  0  0  0  0  0  0  0  0  0  0  0
    8.4529  -19.9254   25.7536 N   0  0  0  0  0  0  0  0  0  0  0  0
    7.5502  -19.8592   24.6842 C   0  0  0  0  0  0  0  0  0  0  0  0
    6.9340  -20.9347   24.4011 O   0  0  0  0  0  0  0  0  0  0  0  0
    7.3306  -18.6093   23.9370 C   0  0  0  0  0  0  0  0  0  0  0  0
    8.1458  -17.4957   24.5165 C   0  0  2  0  0  0  0  0  0  0  0  0
    7.9754  -16.2535   23.8063 N   0  0  0  0  0  0  0  0  0  0  0  0
    9.6014  -17.7900   24.5650 C   0  0  0  0  0  0  0  0  0  0  0  0
   10.2180  -18.2549   25.6929 O   0  0  0  0  0  0  0  0  0  0  0  0
   10.3238  -17.6142   23.5396 O   0  0  0  0  0  0  0  0  0  0  0  0
  2  1  1  6
  3  2  1  0
  4  3  1  0
  5  2  1  0
  5 12  1  0
  6  5  2  0
  7  8  1  0
  8  9  1  0
  9 10  1  0
 11 10  1  1
 11 12  1  0
 11 13  1  0
 13 20  1  0
 13 14  2  0
 16 17  2  0
 16 15  1  0
 18 16  1  0
 19 21  1  0
 19 18  1  6
 20 19  1  0
 21 22  1  0
 23 21  2  0
M  END
$$$$
