CMN.pdb
     RDKit          3D

 23 22  0  0  1  0  0  0  0  0999 V2000
    9.3422  -16.3329   19.8136 N   0  0  0  0  0  0  0  0  0  0  0  0
    8.3245  -16.4277   20.8357 C   0  0  1  0  0  0  0  0  0  0  0  0
    7.9340  -17.8849   20.9571 C   0  0  0  0  0  0  0  0  0  0  0  0
    6.9747  -18.3709   19.4909 S   0  0  0  0  0  0  0  0  0  0  0  0
    8.8277  -15.9395   22.1515 C   0  0  0  0  0  0  0  0  0  0  0  0
   10.0332  -16.0835   22.4351 O   0  0  0  0  0  0  0  0  0  0  0  0
    6.2874  -11.0880   25.6870 C   0  0  0  0  0  0  0  0  0  0  0  0
    6.3976  -12.3501   26.9934 S   0  0  0  0  0  0  0  0  0  0  0  0
    7.6336  -13.5773   26.4348 C   0  0  0  0  0  0  0  0  0  0  0  0
    7.3683  -13.9831   25.0127 C   0  0  0  0  0  0  0  0  0  0  0  0
    8.3422  -14.9266   24.4108 C   0  0  2  0  0  0  0  0  0  0  0  0
    7.9401  -15.3212   23.0606 N   0  0  0  0  0  0  0  0  0  0  0  0
    8.5971  -16.1190   25.2465 C   0  0  0  0  0  0  0  0  0  0  0  0
    7.7942  -17.0784   25.2771 O   0  0  0  0  0  0  0  0  0  0  0  0
   12.7134  -19.9385   26.9130 N   0  0  0  0  0  0  0  0  0  0  0  0
   11.3959  -19.5146   26.6951 C   0  0  0  0  0  0  0  0  0  0  0  0
   10.4801  -20.2629   27.1618 O   0  0  0  0  0  0  0  0  0  0  0  0
   11.0970  -18.2693   25.9682 C   0  0  0  0  0  0  0  0  0  0  0  0
   10.0994  -17.4439   26.7194 C   0  0  2  0  0  0  0  0  0  0  0  0
    9.7887  -16.2045   26.0536 N   0  0  0  0  0  0  0  0  0  0  0  0
   10.5248  -17.1160   28.1048 C   0  0  0  0  0  0  0  0  0  0  0  0
   11.0166  -15.8882   28.4494 O   0  0  0  0  0  0  0  0  0  0  0  0
   10.4402  -17.9852   29.0222 O   0  0  0  0  0  0  0  0  0  0  0  0
  2  1  1  6
  3  2  1  0
  4  3  1  0
  5  2  1  0
  5 12  1  0
  6  5  2  0
  7  8  1  0
  8  9  1  0
  9 10  1  0
 11 10  1  1
 11 12  1  0
 11 13  1  0
 13 20  1  0
 13 14  2  0
 16 17  2  0
 16 15  1  0
 18 16  1  0
 19 21  1  0
 19 18  1  6
 20 19  1  0
 21 22  1  0
 23 21  2  0
M  END
$$$$
