CMN.pdb
     RDKit          3D

 23 22  0  0  1  0  0  0  0  0999 V2000
    7.9459  -14.1199   18.6904 N   0  0  0  0  0  0  0  0  0  0  0  0
    7.3102  -14.8037   19.7938 C   0  0  1  0  0  0  0  0  0  0  0  0
    7.3331  -16.2855   19.4866 C   0  0  0  0  0  0  0  0  0  0  0  0
    6.6103  -17.1970   20.8842 S   0  0  0  0  0  0  0  0  0  0  0  0
    8.0291  -14.5535   21.0758 C   0  0  0  0  0  0  0  0  0  0  0  0
    9.2755  -14.5252   21.0807 O   0  0  0  0  0  0  0  0  0  0  0  0
    7.1640  -11.5988   28.3587 C   0  0  0  0  0  0  0  0  0  0  0  0
    6.3871  -11.9599   26.7532 S   0  0  0  0  0  0  0  0  0  0  0  0
    7.5772  -12.9816   25.8121 C   0  0  0  0  0  0  0  0  0  0  0  0
    7.0501  -13.2715   24.4354 C   0  0  0  0  0  0  0  0  0  0  0  0
    7.9398  -14.0609   23.5487 C   0  0  2  0  0  0  0  0  0  0  0  0
    7.2968  -14.3515   22.2672 N   0  0  0  0  0  0  0  0  0  0  0  0
    8.4378  -15.3044   24.1740 C   0  0  0  0  0  0  0  0  0  0  0  0
    7.6961  -16.3004   24.3272 O   0  0  0  0  0  0  0  0  0  0  0  0
   12.5330  -19.1208   23.9824 N   0  0  0  0  0  0  0  0  0  0  0  0
   12.4336  -18.0328   24.8595 C   0  0  0  0  0  0  0  0  0  0  0  0
   12.8962  -18.2105   26.0304 O   0  0  0  0  0  0  0  0  0  0  0  0
   11.8288  -16.7572   24.4402 C   0  0  0  0  0  0  0  0  0  0  0  0
   10.3865  -16.6994   24.8364 C   0  0  2  0  0  0  0  0  0  0  0  0
    9.8036  -15.3985   24.6264 N   0  0  0  0  0  0  0  0  0  0  0  0
   10.1455  -17.0770   26.2531 C   0  0  0  0  0  0  0  0  0  0  0  0
    9.9228  -16.1488   27.2314 O   0  0  0  0  0  0  0  0  0  0  0  0
   10.1398  -18.2958   26.5978 O   0  0  0  0  0  0  0  0  0  0  0  0
  2  1  1  6
  3  2  1  0
  4  3  1  0
  5  2  1  0
  5 12  1  0
  6  5  2  0
  7  8  1  0
  8  9  1  0
  9 10  1  0
 11 10  1  1
 11 12  1  0
 11 13  1  0
 13 20  1  0
 13 14  2  0
 16 17  2  0
 16 15  1  0
 18 16  1  0
 19 21  1  0
 19 18  1  1
 20 19  1  0
 21 22  1  0
 23 21  2  0
M  END
$$$$
