CMN.pdb
     RDKit          3D

 23 22  0  0  1  0  0  0  0  0999 V2000
    8.5930  -13.8608   19.5544 N   0  0  0  0  0  0  0  0  0  0  0  0
    7.5713  -14.2571   20.4970 C   0  0  1  0  0  0  0  0  0  0  0  0
    6.9963  -15.5734   20.0202 C   0  0  0  0  0  0  0  0  0  0  0  0
    8.1866  -16.9047   20.3625 S   0  0  0  0  0  0  0  0  0  0  0  0
    8.1330  -14.4304   21.8672 C   0  0  0  0  0  0  0  0  0  0  0  0
    9.3677  -14.3761   22.0318 O   0  0  0  0  0  0  0  0  0  0  0  0
    6.4890  -10.5238   26.8977 C   0  0  0  0  0  0  0  0  0  0  0  0
    7.0193  -12.2644   26.9163 S   0  0  0  0  0  0  0  0  0  0  0  0
    6.3612  -13.0300   25.3910 C   0  0  0  0  0  0  0  0  0  0  0  0
    6.7297  -14.4853   25.3302 C   0  0  0  0  0  0  0  0  0  0  0  0
    7.7557  -14.8572   24.3252 C   0  0  2  0  0  0  0  0  0  0  0  0
    7.2671  -14.6532   22.9614 N   0  0  0  0  0  0  0  0  0  0  0  0
    8.2692  -16.2333   24.4928 C   0  0  0  0  0  0  0  0  0  0  0  0
    7.6530  -17.2206   24.0331 O   0  0  0  0  0  0  0  0  0  0  0  0
    9.4949  -19.8209   23.4263 N   0  0  0  0  0  0  0  0  0  0  0  0
   10.2145  -18.8393   22.7323 C   0  0  0  0  0  0  0  0  0  0  0  0
   10.4160  -19.0584   21.4963 O   0  0  0  0  0  0  0  0  0  0  0  0
   10.7037  -17.6231   23.4033 C   0  0  0  0  0  0  0  0  0  0  0  0
   10.3044  -17.6172   24.8460 C   0  0  2  0  0  0  0  0  0  0  0  0
    9.5044  -16.4714   25.1972 N   0  0  0  0  0  0  0  0  0  0  0  0
   11.4587  -17.6635   25.7805 C   0  0  0  0  0  0  0  0  0  0  0  0
   11.7313  -18.7561   26.5552 O   0  0  0  0  0  0  0  0  0  0  0  0
   12.2369  -16.6697   25.8849 O   0  0  0  0  0  0  0  0  0  0  0  0
  2  1  1  6
  3  2  1  0
  4  3  1  0
  5  2  1  0
  5 12  1  0
  6  5  2  0
  7  8  1  0
  8  9  1  0
  9 10  1  0
 11 10  1  1
 11 12  1  0
 11 13  1  0
 13 20  1  0
 13 14  2  0
 16 17  2  0
 16 15  1  0
 18 16  1  0
 19 21  1  0
 19 18  1  6
 20 19  1  0
 21 22  1  0
 23 21  2  0
M  END
$$$$
