CMN.pdb
     RDKit          3D

 23 22  0  0  1  0  0  0  0  0999 V2000
    8.1711  -15.2687   19.1540 N   0  0  0  0  0  0  0  0  0  0  0  0
    7.5416  -15.5644   20.4211 C   0  0  1  0  0  0  0  0  0  0  0  0
    7.4119  -17.0687   20.5263 C   0  0  0  0  0  0  0  0  0  0  0  0
    5.8729  -17.5943   19.7128 S   0  0  0  0  0  0  0  0  0  0  0  0
    8.3540  -15.0572   21.5638 C   0  0  0  0  0  0  0  0  0  0  0  0
    9.5781  -14.8776   21.4097 O   0  0  0  0  0  0  0  0  0  0  0  0
    5.3249  -12.4243   27.0113 C   0  0  0  0  0  0  0  0  0  0  0  0
    6.8195  -11.4534   26.6437 S   0  0  0  0  0  0  0  0  0  0  0  0
    8.0336  -12.6132   25.9179 C   0  0  0  0  0  0  0  0  0  0  0  0
    7.4718  -13.2606   24.6840 C   0  0  0  0  0  0  0  0  0  0  0  0
    8.4175  -14.0835   23.8906 C   0  0  2  0  0  0  0  0  0  0  0  0
    7.7341  -14.7856   22.8042 N   0  0  0  0  0  0  0  0  0  0  0  0
    9.2005  -15.0320   24.7107 C   0  0  0  0  0  0  0  0  0  0  0  0
    9.8320  -14.6532   25.7224 O   0  0  0  0  0  0  0  0  0  0  0  0
   10.7478  -18.5701   22.7244 N   0  0  0  0  0  0  0  0  0  0  0  0
   11.7865  -17.8827   23.3660 C   0  0  0  0  0  0  0  0  0  0  0  0
   12.9189  -17.9090   22.7885 O   0  0  0  0  0  0  0  0  0  0  0  0
   11.5699  -17.1695   24.6361 C   0  0  0  0  0  0  0  0  0  0  0  0
   10.1468  -17.3012   25.0814 C   0  0  2  0  0  0  0  0  0  0  0  0
    9.2551  -16.4293   24.3597 N   0  0  0  0  0  0  0  0  0  0  0  0
    9.9533  -17.0421   26.5316 C   0  0  0  0  0  0  0  0  0  0  0  0
    9.6822  -18.0405   27.4248 O   0  0  0  0  0  0  0  0  0  0  0  0
   10.0371  -15.8633   26.9872 O   0  0  0  0  0  0  0  0  0  0  0  0
  2  1  1  6
  3  2  1  0
  4  3  1  0
  5  2  1  0
  5 12  1  0
  6  5  2  0
  7  8  1  0
  8  9  1  0
  9 10  1  0
 11 10  1  1
 11 12  1  0
 11 13  1  0
 13 20  1  0
 13 14  2  0
 16 17  2  0
 16 15  1  0
 18 16  1  0
 19 21  1  0
 19 18  1  6
 20 19  1  0
 21 22  1  0
 23 21  2  0
M  END
$$$$
