CMN.pdb
     RDKit          3D

 23 22  0  0  1  0  0  0  0  0999 V2000
    8.6199  -15.9371   19.4494 N   0  0  0  0  0  0  0  0  0  0  0  0
    7.7293  -16.0444   20.5827 C   0  0  1  0  0  0  0  0  0  0  0  0
    7.3709  -17.5059   20.7447 C   0  0  0  0  0  0  0  0  0  0  0  0
    7.8909  -18.0698   22.3933 S   0  0  0  0  0  0  0  0  0  0  0  0
    8.3772  -15.5529   21.8323 C   0  0  0  0  0  0  0  0  0  0  0  0
    9.6207  -15.5662   21.9207 O   0  0  0  0  0  0  0  0  0  0  0  0
    6.1196  -10.6976   25.7203 C   0  0  0  0  0  0  0  0  0  0  0  0
    6.3863  -12.0516   26.9067 S   0  0  0  0  0  0  0  0  0  0  0  0
    7.6636  -13.1413   26.1809 C   0  0  0  0  0  0  0  0  0  0  0  0
    7.1748  -13.7418   24.8934 C   0  0  0  0  0  0  0  0  0  0  0  0
    8.1556  -14.5639   24.1429 C   0  0  2  0  0  0  0  0  0  0  0  0
    7.5817  -15.0788   22.8997 N   0  0  0  0  0  0  0  0  0  0  0  0
    8.7333  -15.6642   24.9435 C   0  0  0  0  0  0  0  0  0  0  0  0
    8.1316  -16.7517   25.0884 O   0  0  0  0  0  0  0  0  0  0  0  0
    9.9912  -20.0178   27.1568 N   0  0  0  0  0  0  0  0  0  0  0  0
   10.1743  -18.6833   27.5422 C   0  0  0  0  0  0  0  0  0  0  0  0
   10.9113  -18.4880   28.5596 O   0  0  0  0  0  0  0  0  0  0  0  0
    9.5475  -17.5744   26.8031 C   0  0  0  0  0  0  0  0  0  0  0  0
   10.5851  -16.6202   26.2996 C   0  0  2  0  0  0  0  0  0  0  0  0
   10.0163  -15.5075   25.5822 N   0  0  0  0  0  0  0  0  0  0  0  0
   11.5959  -17.2561   25.4154 C   0  0  0  0  0  0  0  0  0  0  0  0
   12.5231  -18.1450   25.8828 O   0  0  0  0  0  0  0  0  0  0  0  0
   11.6242  -16.9849   24.1785 O   0  0  0  0  0  0  0  0  0  0  0  0
  2  1  1  6
  3  2  1  0
  4  3  1  0
  5  2  1  0
  5 12  1  0
  6  5  2  0
  7  8  1  0
  8  9  1  0
  9 10  1  0
 11 10  1  1
 11 12  1  0
 11 13  1  0
 13 20  1  0
 13 14  2  0
 16 17  2  0
 16 15  1  0
 18 16  1  0
 19 21  1  0
 19 18  1  6
 20 19  1  0
 21 22  1  0
 23 21  2  0
M  END
$$$$
