CMN.pdb
     RDKit          3D

 23 22  0  0  1  0  0  0  0  0999 V2000
    8.4667  -15.0824   19.3720 N   0  0  0  0  0  0  0  0  0  0  0  0
    7.5447  -14.8375   20.4580 C   0  0  1  0  0  0  0  0  0  0  0  0
    6.5144  -15.9460   20.4405 C   0  0  0  0  0  0  0  0  0  0  0  0
    7.3260  -17.5229   20.8423 S   0  0  0  0  0  0  0  0  0  0  0  0
    8.2439  -14.8331   21.7748 C   0  0  0  0  0  0  0  0  0  0  0  0
    9.4381  -15.1868   21.8326 O   0  0  0  0  0  0  0  0  0  0  0  0
    7.2003  -11.8000   27.7974 C   0  0  0  0  0  0  0  0  0  0  0  0
    6.3134  -11.3858   26.2633 S   0  0  0  0  0  0  0  0  0  0  0  0
    7.1742  -12.2604   24.9069 C   0  0  0  0  0  0  0  0  0  0  0  0
    7.3772  -13.7072   25.2575 C   0  0  0  0  0  0  0  0  0  0  0  0
    8.1410  -14.5157   24.2757 C   0  0  2  0  0  0  0  0  0  0  0  0
    7.5521  -14.4306   22.9393 N   0  0  0  0  0  0  0  0  0  0  0  0
    8.3073  -15.9275   24.6814 C   0  0  0  0  0  0  0  0  0  0  0  0
    7.7642  -16.8579   24.0448 O   0  0  0  0  0  0  0  0  0  0  0  0
   12.0555  -19.2189   25.5024 N   0  0  0  0  0  0  0  0  0  0  0  0
   12.0766  -18.1601   24.5851 C   0  0  0  0  0  0  0  0  0  0  0  0
   12.9843  -18.2044   23.6959 O   0  0  0  0  0  0  0  0  0  0  0  0
   11.0968  -17.0627   24.6519 C   0  0  0  0  0  0  0  0  0  0  0  0
   10.0830  -17.3223   25.7222 C   0  0  2  0  0  0  0  0  0  0  0  0
    9.1071  -16.2679   25.8316 N   0  0  0  0  0  0  0  0  0  0  0  0
   10.6802  -17.5238   27.0677 C   0  0  0  0  0  0  0  0  0  0  0  0
   11.0383  -16.4803   27.8746 O   0  0  0  0  0  0  0  0  0  0  0  0
   10.8766  -18.6939   27.5113 O   0  0  0  0  0  0  0  0  0  0  0  0
  2  1  1  6
  3  2  1  0
  4  3  1  0
  5  2  1  0
  5 12  1  0
  6  5  2  0
  7  8  1  0
  8  9  1  0
  9 10  1  0
 11 10  1  1
 11 12  1  0
 11 13  1  0
 13 20  1  0
 13 14  2  0
 16 17  2  0
 16 15  1  0
 18 16  1  0
 19 21  1  0
 19 18  1  6
 20 19  1  0
 21 22  1  0
 23 21  2  0
M  END
$$$$
