CMN.pdb
     RDKit          3D

 23 22  0  0  1  0  0  0  0  0999 V2000
    6.3808  -18.6132   20.5475 N   0  0  0  0  0  0  0  0  0  0  0  0
    5.8196  -17.5076   21.2904 C   0  0  1  0  0  0  0  0  0  0  0  0
    4.8965  -18.0858   22.3412 C   0  0  0  0  0  0  0  0  0  0  0  0
    5.8906  -18.7326   23.7196 S   0  0  0  0  0  0  0  0  0  0  0  0
    6.8840  -16.7032   21.9560 C   0  0  0  0  0  0  0  0  0  0  0  0
    8.0620  -17.1107   21.9311 O   0  0  0  0  0  0  0  0  0  0  0  0
    6.1797  -12.2014   27.6854 C   0  0  0  0  0  0  0  0  0  0  0  0
    7.0997  -12.1437   26.1163 S   0  0  0  0  0  0  0  0  0  0  0  0
    6.3026  -13.3501   24.9959 C   0  0  0  0  0  0  0  0  0  0  0  0
    6.9608  -13.3302   23.6455 C   0  0  0  0  0  0  0  0  0  0  0  0
    7.5590  -14.6098   23.1921 C   0  0  2  0  0  0  0  0  0  0  0  0
    6.5512  -15.4931   22.6053 N   0  0  0  0  0  0  0  0  0  0  0  0
    8.3127  -15.3130   24.2517 C   0  0  0  0  0  0  0  0  0  0  0  0
    7.7283  -15.9672   25.1441 O   0  0  0  0  0  0  0  0  0  0  0  0
    9.9359  -18.4143   26.5907 N   0  0  0  0  0  0  0  0  0  0  0  0
    9.9125  -18.7068   25.2207 C   0  0  0  0  0  0  0  0  0  0  0  0
    9.6577  -19.9124   24.9075 O   0  0  0  0  0  0  0  0  0  0  0  0
   10.1666  -17.6697   24.2065 C   0  0  0  0  0  0  0  0  0  0  0  0
   10.4853  -16.3597   24.8570 C   0  0  2  0  0  0  0  0  0  0  0  0
    9.7532  -15.2601   24.2815 N   0  0  0  0  0  0  0  0  0  0  0  0
   11.9291  -16.0115   24.8120 C   0  0  0  0  0  0  0  0  0  0  0  0
   12.7899  -16.3218   25.8273 O   0  0  0  0  0  0  0  0  0  0  0  0
   12.4095  -15.4053   23.8091 O   0  0  0  0  0  0  0  0  0  0  0  0
  2  1  1  1
  3  2  1  0
  4  3  1  0
  5  2  1  0
  5 12  1  0
  6  5  2  0
  7  8  1  0
  8  9  1  0
  9 10  1  0
 11 10  1  1
 11 12  1  0
 11 13  1  0
 13 20  1  0
 13 14  2  0
 16 17  2  0
 16 15  1  0
 18 16  1  0
 19 21  1  0
 19 18  1  6
 20 19  1  0
 21 22  1  0
 23 21  2  0
M  END
$$$$
