CMN.pdb
     RDKit          3D

 23 22  0  0  1  0  0  0  0  0999 V2000
    8.0097  -15.8713   18.9270 N   0  0  0  0  0  0  0  0  0  0  0  0
    7.2924  -15.7903   20.1793 C   0  0  1  0  0  0  0  0  0  0  0  0
    6.7657  -17.1739   20.4938 C   0  0  0  0  0  0  0  0  0  0  0  0
    6.6878  -18.1470   18.9597 S   0  0  0  0  0  0  0  0  0  0  0  0
    8.1810  -15.3360   21.2869 C   0  0  0  0  0  0  0  0  0  0  0  0
    9.3995  -15.1866   21.0692 O   0  0  0  0  0  0  0  0  0  0  0  0
    5.9816  -12.4783   27.5595 C   0  0  0  0  0  0  0  0  0  0  0  0
    7.0374  -11.6246   26.3478 S   0  0  0  0  0  0  0  0  0  0  0  0
    8.1545  -12.8894   25.6419 C   0  0  0  0  0  0  0  0  0  0  0  0
    7.4986  -13.5840   24.4823 C   0  0  0  0  0  0  0  0  0  0  0  0
    8.3903  -14.3973   23.6195 C   0  0  2  0  0  0  0  0  0  0  0  0
    7.6386  -15.0798   22.5663 N   0  0  0  0  0  0  0  0  0  0  0  0
    9.2182  -15.3612   24.3751 C   0  0  0  0  0  0  0  0  0  0  0  0
    9.9578  -14.9911   25.3141 O   0  0  0  0  0  0  0  0  0  0  0  0
   13.3425  -18.1178   26.0893 N   0  0  0  0  0  0  0  0  0  0  0  0
   12.2741  -18.4859   25.2610 C   0  0  0  0  0  0  0  0  0  0  0  0
   12.0329  -19.7312   25.1745 O   0  0  0  0  0  0  0  0  0  0  0  0
   11.4780  -17.4805   24.5372 C   0  0  0  0  0  0  0  0  0  0  0  0
   10.0163  -17.6788   24.7918 C   0  0  2  0  0  0  0  0  0  0  0  0
    9.1920  -16.7641   24.0435 N   0  0  0  0  0  0  0  0  0  0  0  0
    9.6419  -17.5529   26.2242 C   0  0  0  0  0  0  0  0  0  0  0  0
    9.1423  -18.6006   26.9461 O   0  0  0  0  0  0  0  0  0  0  0  0
    9.7798  -16.4471   26.8262 O   0  0  0  0  0  0  0  0  0  0  0  0
  2  1  1  6
  3  2  1  0
  4  3  1  0
  5  2  1  0
  5 12  1  0
  6  5  2  0
  7  8  1  0
  8  9  1  0
  9 10  1  0
 11 10  1  1
 11 12  1  0
 11 13  1  0
 13 20  1  0
 13 14  2  0
 16 17  2  0
 16 15  1  0
 18 16  1  0
 19 21  1  0
 19 18  1  1
 20 19  1  0
 21 22  1  0
 23 21  2  0
M  END
$$$$
