CMN.pdb
     RDKit          3D

 23 22  0  0  1  0  0  0  0  0999 V2000
    8.8601  -15.8960   20.1111 N   0  0  0  0  0  0  0  0  0  0  0  0
    8.1384  -16.1992   21.3263 C   0  0  1  0  0  0  0  0  0  0  0  0
    8.1004  -17.7053   21.4706 C   0  0  0  0  0  0  0  0  0  0  0  0
    6.8747  -18.3861   20.3127 S   0  0  0  0  0  0  0  0  0  0  0  0
    8.8072  -15.6050   22.5189 C   0  0  0  0  0  0  0  0  0  0  0  0
   10.0273  -15.3527   22.4717 O   0  0  0  0  0  0  0  0  0  0  0  0
    6.6174  -12.0244   27.7222 C   0  0  0  0  0  0  0  0  0  0  0  0
    5.6998  -12.1476   26.1556 S   0  0  0  0  0  0  0  0  0  0  0  0
    6.7842  -13.0361   24.9806 C   0  0  0  0  0  0  0  0  0  0  0  0
    7.6353  -14.0403   25.7047 C   0  0  0  0  0  0  0  0  0  0  0  0
    8.6520  -14.7453   24.8860 C   0  0  2  0  0  0  0  0  0  0  0  0
    8.0578  -15.3341   23.6858 N   0  0  0  0  0  0  0  0  0  0  0  0
    9.4116  -15.7630   25.6426 C   0  0  0  0  0  0  0  0  0  0  0  0
    9.9071  -15.5083   26.7631 O   0  0  0  0  0  0  0  0  0  0  0  0
    8.6633  -17.9930   28.3892 N   0  0  0  0  0  0  0  0  0  0  0  0
    9.3412  -19.0764   27.8151 C   0  0  0  0  0  0  0  0  0  0  0  0
    9.7766  -19.9581   28.6210 O   0  0  0  0  0  0  0  0  0  0  0  0
    9.5318  -19.1823   26.3587 C   0  0  0  0  0  0  0  0  0  0  0  0
   10.3671  -18.0490   25.8501 C   0  0  2  0  0  0  0  0  0  0  0  0
    9.6010  -17.0856   25.1010 N   0  0  0  0  0  0  0  0  0  0  0  0
   11.5006  -18.4858   24.9944 C   0  0  0  0  0  0  0  0  0  0  0  0
   12.6008  -19.1187   25.5019 O   0  0  0  0  0  0  0  0  0  0  0  0
   11.4755  -18.2785   23.7452 O   0  0  0  0  0  0  0  0  0  0  0  0
  2  1  1  6
  3  2  1  0
  4  3  1  0
  5  2  1  0
  5 12  1  0
  6  5  2  0
  7  8  1  0
  8  9  1  0
  9 10  1  0
 11 10  1  1
 11 12  1  0
 11 13  1  0
 13 20  1  0
 13 14  2  0
 16 17  2  0
 16 15  1  0
 18 16  1  0
 19 21  1  0
 19 18  1  6
 20 19  1  0
 21 22  1  0
 23 21  2  0
M  END
$$$$
