RIM.pdb
     RDKit          3D

 28 27  0  0  1  0  0  0  0  0999 V2000
    8.9942  -15.4434   15.5515 N   0  0  0  0  0  0  0  0  0  0  0  0
    8.4518  -14.1622   15.2526 C   0  0  0  0  0  0  0  0  0  0  0  0
    8.6702  -13.6801   14.0892 N   0  0  0  0  0  0  0  0  0  0  0  0
    7.6788  -13.4211   16.2246 N   0  0  0  0  0  0  0  0  0  0  0  0
    7.3050  -14.0812   17.4398 C   0  0  0  0  0  0  0  0  0  0  0  0
    8.3499  -14.7506   18.2283 C   0  0  0  0  0  0  0  0  0  0  0  0
    8.6076  -14.3115   19.6267 C   0  0  0  0  0  0  0  0  0  0  0  0
    8.5588  -15.3496   20.6719 C   0  0  2  0  0  0  0  0  0  0  0  0
    7.2428  -15.9489   20.7638 N   0  0  0  0  0  0  0  0  0  0  0  0
    8.9539  -14.7901   22.0263 C   0  0  0  0  0  0  0  0  0  0  0  0
   10.0341  -14.1634   22.1603 O   0  0  0  0  0  0  0  0  0  0  0  0
    8.2944  -12.7390   13.8540 C   0  0  0  0  0  0  0  0  0  0  0  0
    6.3153  -11.7811   26.4730 C   0  0  0  0  0  0  0  0  0  0  0  0
    7.5361  -12.5944   26.0926 C   0  0  2  0  0  0  0  0  0  0  0  0
    7.2026  -13.4855   24.9183 C   0  0  0  0  0  0  0  0  0  0  0  0
    6.0179  -14.3801   25.1825 C   0  0  2  0  0  0  0  0  0  0  0  0
    8.3983  -14.2687   24.4302 N   0  0  0  0  0  0  0  0  0  0  0  0
    8.1381  -14.9469   23.1749 C   0  0  0  0  0  0  0  0  0  0  0  0
    8.8490  -15.2659   25.4335 O   0  0  0  0  0  0  0  0  0  0  0  0
    8.1119  -16.2418   25.7993 C   0  0  0  0  0  0  0  0  0  0  0  0
   11.0528  -14.4063   30.9063 S   0  0  0  0  0  0  0  0  0  0  0  0
   10.5315  -13.7204   29.2946 C   0  0  0  0  0  0  0  0  0  0  0  0
    9.1850  -14.7061   28.6487 C   0  0  0  0  0  0  0  0  0  0  0  0
    9.5377  -16.0458   28.1242 C   0  0  2  0  0  0  0  0  0  0  0  0
   10.5968  -16.1056   27.0755 N   0  0  0  0  0  0  0  0  0  0  0  0
   10.1226  -15.1602   26.0186 C   0  0  0  0  0  0  0  0  0  0  0  0
   10.7644  -17.4292   26.4914 O   0  0  0  0  0  0  0  0  0  0  0  0
   10.2702  -17.6002   25.3135 O   0  0  0  0  0  0  0  0  0  0  0  0
  2  4  1  0
  2  1  1  0
  3  2  2  0
  5  4  1  0
  6  5  1  0
  7  6  1  0
  8 10  1  0
  8  7  1  0
  8  9  1  1
 10 11  2  0
 12 13  1  0
 14 13  1  0
 14 16  1  0
 14 15  1  6
 16 18  1  0
 16 17  1  1
 17 10  1  0
 18 19  2  0
 20 21  1  0
 21 22  1  0
 22 23  1  0
 24 23  1  1
 24 26  1  0
 25 24  1  0
 25 18  1  0
 26 27  2  0
 26 28  1  0
M  END
$$$$
