RIM.pdb
     RDKit          3D

 28 27  0  0  1  0  0  0  0  0999 V2000
    9.2590  -14.4477   17.8208 N   0  0  0  0  0  0  0  0  0  0  0  0
    8.1832  -14.0575   16.9747 C   0  0  0  0  0  0  0  0  0  0  0  0
    8.4701  -13.6412   15.8009 N   0  0  0  0  0  0  0  0  0  0  0  0
    6.8082  -14.1247   17.4177 N   0  0  0  0  0  0  0  0  0  0  0  0
    6.5367  -14.6962   18.7029 C   0  0  0  0  0  0  0  0  0  0  0  0
    7.1602  -15.9821   19.0483 C   0  0  0  0  0  0  0  0  0  0  0  0
    8.3650  -16.0017   19.9215 C   0  0  0  0  0  0  0  0  0  0  0  0
    8.2409  -16.6983   21.2145 C   0  0  2  0  0  0  0  0  0  0  0  0
    6.8555  -16.9687   21.5410 N   0  0  0  0  0  0  0  0  0  0  0  0
    8.8769  -15.8989   22.3370 C   0  0  0  0  0  0  0  0  0  0  0  0
   10.0924  -15.5872   22.2808 O   0  0  0  0  0  0  0  0  0  0  0  0
    7.7114  -13.2563   15.2022 C   0  0  0  0  0  0  0  0  0  0  0  0
    5.3161  -13.1001   25.6695 C   0  0  0  0  0  0  0  0  0  0  0  0
    6.3905  -13.4631   24.6643 C   0  0  2  0  0  0  0  0  0  0  0  0
    7.5857  -14.0380   25.3889 C   0  0  0  0  0  0  0  0  0  0  0  0
    8.1453  -13.0993   26.4278 C   0  0  2  0  0  0  0  0  0  0  0  0
    8.6554  -14.5265   24.4410 N   0  0  0  0  0  0  0  0  0  0  0  0
    8.1424  -15.4777   23.4739 C   0  0  0  0  0  0  0  0  0  0  0  0
    9.7939  -15.1429   25.1676 O   0  0  0  0  0  0  0  0  0  0  0  0
   10.9206  -14.5552   25.2881 C   0  0  0  0  0  0  0  0  0  0  0  0
   10.2472  -13.3977   29.7409 S   0  0  0  0  0  0  0  0  0  0  0  0
   10.8534  -14.9384   30.5145 C   0  0  0  0  0  0  0  0  0  0  0  0
   10.9572  -16.2166   29.2665 C   0  0  0  0  0  0  0  0  0  0  0  0
   10.2886  -15.9363   27.9747 C   0  0  1  0  0  0  0  0  0  0  0  0
   10.5547  -16.8843   26.8543 N   0  0  0  0  0  0  0  0  0  0  0  0
    9.6594  -16.4137   25.7530 C   0  0  0  0  0  0  0  0  0  0  0  0
   10.2320  -18.2683   27.1729 O   0  0  0  0  0  0  0  0  0  0  0  0
   11.1089  -18.9151   27.8612 O   0  0  0  0  0  0  0  0  0  0  0  0
  2  4  1  0
  2  1  1  0
  3  2  2  0
  5  4  1  0
  6  5  1  0
  7  6  1  0
  8 10  1  0
  8  7  1  0
  8  9  1  1
 10 11  2  0
 12 13  1  0
 14 13  1  0
 14 16  1  0
 14 15  1  1
 16 18  1  0
 16 17  1  6
 17 10  1  0
 18 19  2  0
 20 21  1  0
 21 22  1  0
 22 23  1  0
 24 23  1  6
 24 26  1  0
 25 24  1  0
 25 18  1  0
 26 27  2  0
 26 28  1  0
M  END
$$$$
