RIM.pdb
     RDKit          3D

 28 27  0  0  1  0  0  0  0  0999 V2000
   14.5676  -21.8347   18.8201 N   0  0  0  0  0  0  0  0  0  0  0  0
   14.2864  -21.7793   17.4261 C   0  0  0  0  0  0  0  0  0  0  0  0
   14.8815  -22.6163   16.6654 N   0  0  0  0  0  0  0  0  0  0  0  0
   13.3614  -20.8124   16.8777 N   0  0  0  0  0  0  0  0  0  0  0  0
   12.9054  -19.7524   17.7266 C   0  0  0  0  0  0  0  0  0  0  0  0
   11.8925  -20.0542   18.7485 C   0  0  0  0  0  0  0  0  0  0  0  0
   11.4866  -18.9964   19.7134 C   0  0  0  0  0  0  0  0  0  0  0  0
   10.6814  -17.8818   19.1822 C   0  0  2  0  0  0  0  0  0  0  0  0
   11.2519  -17.3496   17.9613 N   0  0  0  0  0  0  0  0  0  0  0  0
   10.5406  -16.7661   20.2014 C   0  0  0  0  0  0  0  0  0  0  0  0
   11.4690  -15.9353   20.3611 O   0  0  0  0  0  0  0  0  0  0  0  0
   14.7103  -22.5769   15.6400 C   0  0  0  0  0  0  0  0  0  0  0  0
    6.8277  -13.2019   20.0033 C   0  0  0  0  0  0  0  0  0  0  0  0
    8.1193  -13.9335   20.3086 C   0  0  2  0  0  0  0  0  0  0  0  0
    7.9751  -14.6903   21.6088 C   0  0  0  0  0  0  0  0  0  0  0  0
    7.5818  -13.8010   22.7612 C   0  0  2  0  0  0  0  0  0  0  0  0
    9.1952  -15.5198   21.9323 N   0  0  0  0  0  0  0  0  0  0  0  0
    9.3795  -16.6159   21.0006 C   0  0  0  0  0  0  0  0  0  0  0  0
    9.1401  -16.0634   23.3128 O   0  0  0  0  0  0  0  0  0  0  0  0
    8.6061  -17.1923   23.5771 C   0  0  0  0  0  0  0  0  0  0  0  0
    9.7655  -12.2627   28.3704 S   0  0  0  0  0  0  0  0  0  0  0  0
   10.3848  -13.7631   29.2100 C   0  0  0  0  0  0  0  0  0  0  0  0
   10.2772  -15.1491   28.0833 C   0  0  0  0  0  0  0  0  0  0  0  0
   10.1027  -14.8239   26.6487 C   0  0  1  0  0  0  0  0  0  0  0  0
   10.0021  -15.9715   25.7012 N   0  0  0  0  0  0  0  0  0  0  0  0
    9.6840  -15.3361   24.3855 C   0  0  0  0  0  0  0  0  0  0  0  0
    8.9482  -16.9174   26.0414 O   0  0  0  0  0  0  0  0  0  0  0  0
    9.2942  -17.9170   26.7777 O   0  0  0  0  0  0  0  0  0  0  0  0
  2  4  1  0
  2  1  1  0
  3  2  2  0
  5  4  1  0
  6  5  1  0
  7  6  1  0
  8 10  1  0
  8  7  1  0
  8  9  1  6
 10 11  2  0
 12 13  1  0
 14 13  1  0
 14 16  1  0
 14 15  1  6
 16 18  1  0
 16 17  1  1
 17 10  1  0
 18 19  2  0
 20 21  1  0
 21 22  1  0
 22 23  1  0
 24 23  1  6
 24 26  1  0
 25 24  1  0
 25 18  1  0
 26 27  2  0
 26 28  1  0
M  END
$$$$
