RIM.pdb
     RDKit          3D

 28 27  0  0  1  0  0  0  0  0999 V2000
    9.2859  -21.9876   16.9169 N   0  0  0  0  0  0  0  0  0  0  0  0
    9.4134  -23.1448   17.7355 C   0  0  0  0  0  0  0  0  0  0  0  0
    9.0775  -24.2702   17.2315 N   0  0  0  0  0  0  0  0  0  0  0  0
    9.9044  -23.0619   19.0932 N   0  0  0  0  0  0  0  0  0  0  0  0
   10.2981  -21.7793   19.5952 C   0  0  0  0  0  0  0  0  0  0  0  0
    9.2547  -20.8548   20.0623 C   0  0  0  0  0  0  0  0  0  0  0  0
    9.6436  -19.5285   20.6138 C   0  0  0  0  0  0  0  0  0  0  0  0
    9.5910  -18.3805   19.6909 C   0  0  2  0  0  0  0  0  0  0  0  0
   10.6337  -18.4575   18.6878 N   0  0  0  0  0  0  0  0  0  0  0  0
    9.7060  -17.0642   20.4378 C   0  0  0  0  0  0  0  0  0  0  0  0
   10.8361  -16.5786   20.6919 O   0  0  0  0  0  0  0  0  0  0  0  0
    9.0688  -25.1136   17.8404 C   0  0  0  0  0  0  0  0  0  0  0  0
    6.8784  -12.8534   18.9411 C   0  0  0  0  0  0  0  0  0  0  0  0
    7.9715  -13.7438   19.4970 C   0  0  2  0  0  0  0  0  0  0  0  0
    7.6858  -14.0456   20.9501 C   0  0  0  0  0  0  0  0  0  0  0  0
    7.5964  -12.8019   21.7979 C   0  0  2  0  0  0  0  0  0  0  0  0
    8.6510  -15.0517   21.5313 N   0  0  0  0  0  0  0  0  0  0  0  0
    8.5670  -16.3408   20.8720 C   0  0  0  0  0  0  0  0  0  0  0  0
    8.4377  -15.2396   22.9885 O   0  0  0  0  0  0  0  0  0  0  0  0
    7.4527  -15.9076   23.4499 C   0  0  0  0  0  0  0  0  0  0  0  0
    7.1844  -11.6883   27.8687 S   0  0  0  0  0  0  0  0  0  0  0  0
    6.8042  -11.5874   26.0841 C   0  0  0  0  0  0  0  0  0  0  0  0
    7.8598  -12.7279   25.1970 C   0  0  0  0  0  0  0  0  0  0  0  0
    7.9675  -14.0975   25.7508 C   0  0  2  0  0  0  0  0  0  0  0  0
    9.1850  -14.8803   25.3903 N   0  0  0  0  0  0  0  0  0  0  0  0
    9.3310  -14.6765   23.9162 C   0  0  0  0  0  0  0  0  0  0  0  0
    9.0641  -16.3054   25.6652 O   0  0  0  0  0  0  0  0  0  0  0  0
    8.5053  -17.0184   24.7485 O   0  0  0  0  0  0  0  0  0  0  0  0
  2  4  1  0
  2  1  1  0
  3  2  2  0
  5  4  1  0
  6  5  1  0
  7  6  1  0
  8 10  1  0
  8  7  1  0
  8  9  1  6
 10 11  2  0
 12 13  1  0
 14 13  1  0
 14 16  1  0
 14 15  1  1
 16 18  1  0
 16 17  1  1
 17 10  1  0
 18 19  2  0
 20 21  1  0
 21 22  1  0
 22 23  1  0
 24 23  1  1
 24 26  1  0
 25 24  1  0
 25 18  1  0
 26 27  2  0
 26 28  1  0
M  END
$$$$
