RIM.pdb
     RDKit          3D

 28 27  0  0  1  0  0  0  0  0999 V2000
    7.9792  -12.8253   18.0874 N   0  0  0  0  0  0  0  0  0  0  0  0
    7.9422  -13.6999   16.9653 C   0  0  0  0  0  0  0  0  0  0  0  0
    8.2983  -13.2290   15.8318 N   0  0  0  0  0  0  0  0  0  0  0  0
    7.5169  -15.0764   17.0913 N   0  0  0  0  0  0  0  0  0  0  0  0
    8.2155  -15.9205   18.0140 C   0  0  0  0  0  0  0  0  0  0  0  0
    9.6545  -15.7003   18.2201 C   0  0  0  0  0  0  0  0  0  0  0  0
   10.2798  -16.0984   19.5105 C   0  0  0  0  0  0  0  0  0  0  0  0
    9.3737  -16.5648   20.5754 C   0  0  2  0  0  0  0  0  0  0  0  0
    7.9841  -16.3849   20.2066 N   0  0  0  0  0  0  0  0  0  0  0  0
    9.6446  -15.8483   21.8857 C   0  0  0  0  0  0  0  0  0  0  0  0
   10.8061  -15.4603   22.1653 O   0  0  0  0  0  0  0  0  0  0  0  0
    8.1742  -13.8140   14.9805 C   0  0  0  0  0  0  0  0  0  0  0  0
    6.7186  -12.7403   26.3352 C   0  0  0  0  0  0  0  0  0  0  0  0
    7.9788  -13.4463   25.8771 C   0  0  2  0  0  0  0  0  0  0  0  0
    7.6458  -14.3864   24.7416 C   0  0  0  0  0  0  0  0  0  0  0  0
    6.6087  -15.4136   25.1194 C   0  0  2  0  0  0  0  0  0  0  0  0
    8.8758  -15.0263   24.1423 N   0  0  0  0  0  0  0  0  0  0  0  0
    8.6203  -15.5909   22.8311 C   0  0  0  0  0  0  0  0  0  0  0  0
    9.4299  -16.0844   25.0242 O   0  0  0  0  0  0  0  0  0  0  0  0
    9.0831  -17.3081   24.9169 C   0  0  0  0  0  0  0  0  0  0  0  0
   10.6518  -12.8007   28.7194 S   0  0  0  0  0  0  0  0  0  0  0  0
   10.8458  -14.1448   29.9422 C   0  0  0  0  0  0  0  0  0  0  0  0
   10.6135  -15.7181   29.1222 C   0  0  0  0  0  0  0  0  0  0  0  0
   11.5629  -16.0433   28.0326 C   0  0  1  0  0  0  0  0  0  0  0  0
   11.0233  -16.8034   26.8681 N   0  0  0  0  0  0  0  0  0  0  0  0
   10.3684  -15.7611   26.0194 C   0  0  0  0  0  0  0  0  0  0  0  0
   10.0361  -17.8091   27.2355 O   0  0  0  0  0  0  0  0  0  0  0  0
   10.4984  -18.9429   27.6376 O   0  0  0  0  0  0  0  0  0  0  0  0
  2  4  1  0
  2  1  1  0
  3  2  2  0
  5  4  1  0
  6  5  1  0
  7  6  1  0
  8 10  1  0
  8  7  1  0
  8  9  1  6
 10 11  2  0
 12 13  1  0
 14 13  1  0
 14 16  1  0
 14 15  1  6
 16 18  1  0
 16 17  1  1
 17 10  1  0
 18 19  2  0
 20 21  1  0
 21 22  1  0
 22 23  1  0
 24 23  1  6
 24 26  1  0
 25 24  1  0
 25 18  1  0
 26 27  2  0
 26 28  1  0
M  END
$$$$
