RIM.pdb
     RDKit          3D

 28 27  0  0  1  0  0  0  0  0999 V2000
    8.6491  -20.8143   15.8824 N   0  0  0  0  0  0  0  0  0  0  0  0
    8.8206  -19.5437   15.2647 C   0  0  0  0  0  0  0  0  0  0  0  0
    9.6083  -19.4714   14.2609 N   0  0  0  0  0  0  0  0  0  0  0  0
    8.1326  -18.3672   15.7485 N   0  0  0  0  0  0  0  0  0  0  0  0
    7.1500  -18.5311   16.7780 C   0  0  0  0  0  0  0  0  0  0  0  0
    7.5565  -18.3366   18.1775 C   0  0  0  0  0  0  0  0  0  0  0  0
    8.2256  -19.4472   18.9078 C   0  0  0  0  0  0  0  0  0  0  0  0
    9.1768  -19.0707   19.9690 C   0  0  2  0  0  0  0  0  0  0  0  0
    9.8733  -20.2282   20.4926 N   0  0  0  0  0  0  0  0  0  0  0  0
    8.4795  -18.3449   21.1050 C   0  0  0  0  0  0  0  0  0  0  0  0
    7.8968  -17.2525   20.8936 O   0  0  0  0  0  0  0  0  0  0  0  0
    9.6554  -18.5847   13.7189 C   0  0  0  0  0  0  0  0  0  0  0  0
    5.6252  -21.2608   24.4936 C   0  0  0  0  0  0  0  0  0  0  0  0
    6.0924  -20.1236   23.6075 C   0  0  2  0  0  0  0  0  0  0  0  0
    7.0202  -19.2230   24.3900 C   0  0  0  0  0  0  0  0  0  0  0  0
    6.3384  -18.5560   25.5579 C   0  0  2  0  0  0  0  0  0  0  0  0
    7.7310  -18.2221   23.5100 N   0  0  0  0  0  0  0  0  0  0  0  0
    8.4558  -18.8576   22.4264 C   0  0  0  0  0  0  0  0  0  0  0  0
    8.6702  -17.3755   24.2881 O   0  0  0  0  0  0  0  0  0  0  0  0
    9.6296  -17.8734   24.9672 C   0  0  0  0  0  0  0  0  0  0  0  0
    6.2304  -11.4962   25.3195 S   0  0  0  0  0  0  0  0  0  0  0  0
    6.8274  -11.9549   26.9847 C   0  0  0  0  0  0  0  0  0  0  0  0
    8.0467  -13.2554   26.8300 C   0  0  0  0  0  0  0  0  0  0  0  0
    7.9282  -14.1363   25.6450 C   0  0  1  0  0  0  0  0  0  0  0  0
    9.0176  -15.1321   25.4293 N   0  0  0  0  0  0  0  0  0  0  0  0
    8.5254  -15.9775   24.2985 C   0  0  0  0  0  0  0  0  0  0  0  0
    9.2684  -15.9812   26.5858 O   0  0  0  0  0  0  0  0  0  0  0  0
    8.3367  -16.8167   26.8934 O   0  0  0  0  0  0  0  0  0  0  0  0
  2  4  1  0
  2  1  1  0
  3  2  2  0
  5  4  1  0
  6  5  1  0
  7  6  1  0
  8 10  1  0
  8  7  1  0
  8  9  1  1
 10 11  2  0
 12 13  1  0
 14 13  1  0
 14 16  1  0
 14 15  1  1
 16 18  1  0
 16 17  1  6
 17 10  1  0
 18 19  2  0
 20 21  1  0
 21 22  1  0
 22 23  1  0
 24 23  1  6
 24 26  1  0
 25 24  1  0
 25 18  1  0
 26 27  2  0
 26 28  1  0
M  END
$$$$
