RIM.pdb
     RDKit          3D

 28 27  0  0  1  0  0  0  0  0999 V2000
    9.4705  -19.0309   14.7675 N   0  0  0  0  0  0  0  0  0  0  0  0
    8.7538  -18.0548   14.0200 C   0  0  0  0  0  0  0  0  0  0  0  0
    8.6738  -18.2151   12.7546 N   0  0  0  0  0  0  0  0  0  0  0  0
    8.1338  -16.9155   14.6597 N   0  0  0  0  0  0  0  0  0  0  0  0
    8.1370  -16.8563   16.0910 C   0  0  0  0  0  0  0  0  0  0  0  0
    7.7534  -18.0576   16.8468 C   0  0  0  0  0  0  0  0  0  0  0  0
    7.7557  -18.0196   18.3345 C   0  0  0  0  0  0  0  0  0  0  0  0
    9.0626  -18.1496   19.0035 C   0  0  2  0  0  0  0  0  0  0  0  0
    9.1278  -19.3499   19.8123 N   0  0  0  0  0  0  0  0  0  0  0  0
    9.3634  -16.9404   19.8701 C   0  0  0  0  0  0  0  0  0  0  0  0
   10.5255  -16.4656   19.9108 O   0  0  0  0  0  0  0  0  0  0  0  0
    8.0624  -17.5794   12.2028 C   0  0  0  0  0  0  0  0  0  0  0  0
    7.4116  -12.3746   18.9904 C   0  0  0  0  0  0  0  0  0  0  0  0
    8.3264  -13.4568   19.5274 C   0  0  2  0  0  0  0  0  0  0  0  0
    7.8241  -13.9185   20.8759 C   0  0  0  0  0  0  0  0  0  0  0  0
    7.7384  -12.7983   21.8816 C   0  0  2  0  0  0  0  0  0  0  0  0
    8.6067  -15.0940   21.4119 N   0  0  0  0  0  0  0  0  0  0  0  0
    8.3668  -16.3074   20.6546 C   0  0  0  0  0  0  0  0  0  0  0  0
    8.3035  -15.3497   22.8426 O   0  0  0  0  0  0  0  0  0  0  0  0
    7.2017  -15.8719   23.2204 C   0  0  0  0  0  0  0  0  0  0  0  0
    6.8747  -10.8963   26.6989 S   0  0  0  0  0  0  0  0  0  0  0  0
    6.0560  -12.5069   26.9729 C   0  0  0  0  0  0  0  0  0  0  0  0
    7.2647  -13.8141   26.7940 C   0  0  0  0  0  0  0  0  0  0  0  0
    7.8214  -14.0197   25.4368 C   0  0  1  0  0  0  0  0  0  0  0  0
    8.8981  -15.0421   25.2937 N   0  0  0  0  0  0  0  0  0  0  0  0
    9.2386  -15.0173   23.8380 C   0  0  0  0  0  0  0  0  0  0  0  0
    8.4776  -16.3868   25.6626 O   0  0  0  0  0  0  0  0  0  0  0  0
    8.3651  -16.6239   26.9243 O   0  0  0  0  0  0  0  0  0  0  0  0
  2  4  1  0
  2  1  1  0
  3  2  2  0
  5  4  1  0
  6  5  1  0
  7  6  1  0
  8 10  1  0
  8  7  1  0
  8  9  1  1
 10 11  2  0
 12 13  1  0
 14 13  1  0
 14 16  1  0
 14 15  1  6
 16 18  1  0
 16 17  1  1
 17 10  1  0
 18 19  2  0
 20 21  1  0
 21 22  1  0
 22 23  1  0
 24 23  1  1
 24 26  1  0
 25 24  1  0
 25 18  1  0
 26 27  2  0
 26 28  1  0
M  END
$$$$
