RIM.pdb
     RDKit          3D

 28 27  0  0  1  0  0  0  0  0999 V2000
    6.4243  -19.4165   16.5088 N   0  0  0  0  0  0  0  0  0  0  0  0
    7.5359  -20.2052   16.9180 C   0  0  0  0  0  0  0  0  0  0  0  0
    8.0228  -21.0312   16.0731 N   0  0  0  0  0  0  0  0  0  0  0  0
    8.1032  -20.0852   18.2429 N   0  0  0  0  0  0  0  0  0  0  0  0
    7.4969  -19.1665   19.1598 C   0  0  0  0  0  0  0  0  0  0  0  0
    7.9874  -17.7810   19.1969 C   0  0  0  0  0  0  0  0  0  0  0  0
    8.3737  -17.1746   20.4998 C   0  0  0  0  0  0  0  0  0  0  0  0
    7.6076  -15.9950   20.9403 C   0  0  2  0  0  0  0  0  0  0  0  0
    7.4561  -15.0303   19.8700 N   0  0  0  0  0  0  0  0  0  0  0  0
    8.2618  -15.3248   22.1346 C   0  0  0  0  0  0  0  0  0  0  0  0
    9.4120  -14.8311   22.0305 O   0  0  0  0  0  0  0  0  0  0  0  0
    8.8722  -21.5744   16.3298 C   0  0  0  0  0  0  0  0  0  0  0  0
    5.4322  -12.0995   25.3670 C   0  0  0  0  0  0  0  0  0  0  0  0
    6.5706  -12.6978   24.5653 C   0  0  2  0  0  0  0  0  0  0  0  0
    7.2194  -13.8069   25.3608 C   0  0  0  0  0  0  0  0  0  0  0  0
    7.8105  -13.3238   26.6611 C   0  0  2  0  0  0  0  0  0  0  0  0
    8.2215  -14.5910   24.5469 N   0  0  0  0  0  0  0  0  0  0  0  0
    7.6166  -15.2285   23.3932 C   0  0  0  0  0  0  0  0  0  0  0  0
    8.9068  -15.6232   25.3651 O   0  0  0  0  0  0  0  0  0  0  0  0
    8.6195  -16.8635   25.2731 C   0  0  0  0  0  0  0  0  0  0  0  0
   11.3775  -13.5974   30.8746 S   0  0  0  0  0  0  0  0  0  0  0  0
   12.3770  -15.1225   30.7537 C   0  0  0  0  0  0  0  0  0  0  0  0
   11.7363  -16.1366   29.4259 C   0  0  0  0  0  0  0  0  0  0  0  0
   11.2022  -15.4202   28.2444 C   0  0  1  0  0  0  0  0  0  0  0  0
   10.5772  -16.2501   27.1742 N   0  0  0  0  0  0  0  0  0  0  0  0
    9.9085  -15.2556   26.2800 C   0  0  0  0  0  0  0  0  0  0  0  0
    9.5816  -17.1895   27.6717 O   0  0  0  0  0  0  0  0  0  0  0  0
    8.4131  -16.7053   27.9190 O   0  0  0  0  0  0  0  0  0  0  0  0
  2  4  1  0
  2  1  1  0
  3  2  2  0
  5  4  1  0
  6  5  1  0
  7  6  1  0
  8 10  1  0
  8  7  1  0
  8  9  1  6
 10 11  2  0
 12 13  1  0
 14 13  1  0
 14 16  1  0
 14 15  1  1
 16 18  1  0
 16 17  1  6
 17 10  1  0
 18 19  2  0
 20 21  1  0
 21 22  1  0
 22 23  1  0
 24 23  1  6
 24 26  1  0
 25 24  1  0
 25 18  1  0
 26 27  2  0
 26 28  1  0
M  END
$$$$
