RIM.pdb
     RDKit          3D

 28 27  0  0  1  0  0  0  0  0999 V2000
    7.2610  -16.7160   15.1587 N   0  0  0  0  0  0  0  0  0  0  0  0
    7.9430  -17.9256   15.4701 C   0  0  0  0  0  0  0  0  0  0  0  0
    7.3110  -19.0242   15.3059 N   0  0  0  0  0  0  0  0  0  0  0  0
    9.3046  -17.9237   15.9575 N   0  0  0  0  0  0  0  0  0  0  0  0
    9.5580  -17.3857   17.2607 C   0  0  0  0  0  0  0  0  0  0  0  0
    8.4288  -16.8448   18.0315 C   0  0  0  0  0  0  0  0  0  0  0  0
    8.6915  -16.1056   19.2961 C   0  0  0  0  0  0  0  0  0  0  0  0
    8.7126  -16.8967   20.5396 C   0  0  2  0  0  0  0  0  0  0  0  0
    7.4176  -17.4844   20.8169 N   0  0  0  0  0  0  0  0  0  0  0  0
    9.1481  -16.0538   21.7243 C   0  0  0  0  0  0  0  0  0  0  0  0
   10.2441  -15.4409   21.6948 O   0  0  0  0  0  0  0  0  0  0  0  0
    7.7758  -19.9178   15.5663 C   0  0  0  0  0  0  0  0  0  0  0  0
    5.6678  -13.0656   24.8900 C   0  0  0  0  0  0  0  0  0  0  0  0
    6.9264  -13.4489   24.1379 C   0  0  2  0  0  0  0  0  0  0  0  0
    7.5917  -14.6162   24.8299 C   0  0  0  0  0  0  0  0  0  0  0  0
    7.9612  -14.3134   26.2600 C   0  0  2  0  0  0  0  0  0  0  0  0
    8.7671  -15.1561   24.0498 N   0  0  0  0  0  0  0  0  0  0  0  0
    8.3537  -15.9241   22.8911 C   0  0  0  0  0  0  0  0  0  0  0  0
    9.6494  -15.9973   24.8972 O   0  0  0  0  0  0  0  0  0  0  0  0
    9.6896  -17.2681   24.7834 C   0  0  0  0  0  0  0  0  0  0  0  0
   10.8619  -13.4293   30.4753 S   0  0  0  0  0  0  0  0  0  0  0  0
   11.9838  -14.8496   30.7274 C   0  0  0  0  0  0  0  0  0  0  0  0
   11.9054  -15.9172   29.2936 C   0  0  0  0  0  0  0  0  0  0  0  0
   11.3471  -15.3241   28.0564 C   0  0  1  0  0  0  0  0  0  0  0  0
   11.2417  -16.2157   26.8652 N   0  0  0  0  0  0  0  0  0  0  0  0
   10.4793  -15.4063   25.8655 C   0  0  0  0  0  0  0  0  0  0  0  0
   10.5207  -17.4539   27.1261 O   0  0  0  0  0  0  0  0  0  0  0  0
    9.2440  -17.3519   27.2696 O   0  0  0  0  0  0  0  0  0  0  0  0
  2  4  1  0
  2  1  1  0
  3  2  2  0
  5  4  1  0
  6  5  1  0
  7  6  1  0
  8 10  1  0
  8  7  1  0
  8  9  1  1
 10 11  2  0
 12 13  1  0
 14 13  1  0
 14 16  1  0
 14 15  1  6
 16 18  1  0
 16 17  1  6
 17 10  1  0
 18 19  2  0
 20 21  1  0
 21 22  1  0
 22 23  1  0
 24 23  1  6
 24 26  1  0
 25 24  1  0
 25 18  1  0
 26 27  2  0
 26 28  1  0
M  END
$$$$
