RIM.pdb
     RDKit          3D

 28 27  0  0  1  0  0  0  0  0999 V2000
    9.3696  -13.8402   16.7087 N   0  0  0  0  0  0  0  0  0  0  0  0
    8.1716  -13.8951   15.9425 C   0  0  0  0  0  0  0  0  0  0  0  0
    8.2809  -14.0192   14.6752 N   0  0  0  0  0  0  0  0  0  0  0  0
    6.8692  -13.8133   16.5659 N   0  0  0  0  0  0  0  0  0  0  0  0
    6.7844  -13.9869   17.9853 C   0  0  0  0  0  0  0  0  0  0  0  0
    7.4383  -15.1553   18.5927 C   0  0  0  0  0  0  0  0  0  0  0  0
    8.2885  -14.9742   19.8006 C   0  0  0  0  0  0  0  0  0  0  0  0
    8.0057  -15.8483   20.9531 C   0  0  2  0  0  0  0  0  0  0  0  0
    6.5854  -15.9177   21.2309 N   0  0  0  0  0  0  0  0  0  0  0  0
    8.7405  -15.3804   22.1960 C   0  0  0  0  0  0  0  0  0  0  0  0
    9.9879  -15.2348   22.1753 O   0  0  0  0  0  0  0  0  0  0  0  0
    7.4198  -14.0155   14.0915 C   0  0  0  0  0  0  0  0  0  0  0  0
    5.4210  -12.9383   26.0246 C   0  0  0  0  0  0  0  0  0  0  0  0
    6.4334  -13.2144   24.9312 C   0  0  2  0  0  0  0  0  0  0  0  0
    7.6374  -13.9107   25.5228 C   0  0  0  0  0  0  0  0  0  0  0  0
    8.2691  -13.1297   26.6473 C   0  0  2  0  0  0  0  0  0  0  0  0
    8.6512  -14.3019   24.4737 N   0  0  0  0  0  0  0  0  0  0  0  0
    8.0652  -15.0930   23.4087 C   0  0  0  0  0  0  0  0  0  0  0  0
    9.7895  -15.0517   25.0621 O   0  0  0  0  0  0  0  0  0  0  0  0
   10.9424  -14.5256   25.2154 C   0  0  0  0  0  0  0  0  0  0  0  0
   10.6205  -13.7860   29.5530 S   0  0  0  0  0  0  0  0  0  0  0  0
   11.1820  -15.3967   30.2085 C   0  0  0  0  0  0  0  0  0  0  0  0
   10.7631  -16.6821   29.0363 C   0  0  0  0  0  0  0  0  0  0  0  0
   10.1244  -16.2440   27.7736 C   0  0  1  0  0  0  0  0  0  0  0  0
   10.4745  -17.0031   26.5382 N   0  0  0  0  0  0  0  0  0  0  0  0
    9.6255  -16.3857   25.4735 C   0  0  0  0  0  0  0  0  0  0  0  0
   10.1737  -18.4255   26.6234 O   0  0  0  0  0  0  0  0  0  0  0  0
    8.9990  -18.7850   26.2339 O   0  0  0  0  0  0  0  0  0  0  0  0
  2  4  1  0
  2  1  1  0
  3  2  2  0
  5  4  1  0
  6  5  1  0
  7  6  1  0
  8 10  1  0
  8  7  1  0
  8  9  1  1
 10 11  2  0
 12 13  1  0
 14 13  1  0
 14 16  1  0
 14 15  1  1
 16 18  1  0
 16 17  1  6
 17 10  1  0
 18 19  2  0
 20 21  1  0
 21 22  1  0
 22 23  1  0
 24 23  1  6
 24 26  1  0
 25 24  1  0
 25 18  1  0
 26 27  2  0
 26 28  1  0
M  END
$$$$
