RIM.pdb
     RDKit          3D

 28 27  0  0  1  0  0  0  0  0999 V2000
   11.0164  -20.9882   20.4272 N   0  0  0  0  0  0  0  0  0  0  0  0
   10.6480  -21.3382   19.0978 C   0  0  0  0  0  0  0  0  0  0  0  0
   11.4236  -22.1224   18.4523 N   0  0  0  0  0  0  0  0  0  0  0  0
    9.4398  -20.8291   18.4875 N   0  0  0  0  0  0  0  0  0  0  0  0
    8.9145  -19.5827   18.9596 C   0  0  0  0  0  0  0  0  0  0  0  0
    9.8564  -18.5352   19.3804 C   0  0  0  0  0  0  0  0  0  0  0  0
    9.6301  -17.8185   20.6648 C   0  0  0  0  0  0  0  0  0  0  0  0
    9.0784  -16.4544   20.5799 C   0  0  2  0  0  0  0  0  0  0  0  0
    9.6253  -15.7300   19.4505 N   0  0  0  0  0  0  0  0  0  0  0  0
    9.3379  -15.6722   21.8544 C   0  0  0  0  0  0  0  0  0  0  0  0
   10.4143  -15.0416   22.0006 O   0  0  0  0  0  0  0  0  0  0  0  0
   11.1438  -22.4397   17.5019 C   0  0  0  0  0  0  0  0  0  0  0  0
    6.3117  -12.8299   26.3968 C   0  0  0  0  0  0  0  0  0  0  0  0
    7.6280  -13.3448   25.8501 C   0  0  2  0  0  0  0  0  0  0  0  0
    7.3608  -14.3143   24.7219 C   0  0  0  0  0  0  0  0  0  0  0  0
    6.3742  -15.3905   25.0986 C   0  0  2  0  0  0  0  0  0  0  0  0
    8.6311  -14.8950   24.1468 N   0  0  0  0  0  0  0  0  0  0  0  0
    8.3965  -15.6200   22.9129 C   0  0  0  0  0  0  0  0  0  0  0  0
    9.3113  -15.7936   25.1133 O   0  0  0  0  0  0  0  0  0  0  0  0
    9.1206  -17.0558   25.1169 C   0  0  0  0  0  0  0  0  0  0  0  0
   11.5200  -12.8258   30.2367 S   0  0  0  0  0  0  0  0  0  0  0  0
   11.8188  -14.5148   30.8671 C   0  0  0  0  0  0  0  0  0  0  0  0
   11.5163  -15.6906   29.5526 C   0  0  0  0  0  0  0  0  0  0  0  0
   11.0706  -15.1325   28.2549 C   0  0  1  0  0  0  0  0  0  0  0  0
   10.7809  -16.1059   27.1624 N   0  0  0  0  0  0  0  0  0  0  0  0
   10.1995  -15.2691   26.0680 C   0  0  0  0  0  0  0  0  0  0  0  0
    9.8208  -17.1346   27.5378 O   0  0  0  0  0  0  0  0  0  0  0  0
    8.5836  -16.7754   27.5730 O   0  0  0  0  0  0  0  0  0  0  0  0
  2  4  1  0
  2  1  1  0
  3  2  2  0
  5  4  1  0
  6  5  1  0
  7  6  1  0
  8 10  1  0
  8  7  1  0
  8  9  1  6
 10 11  2  0
 12 13  1  0
 14 13  1  0
 14 16  1  0
 14 15  1  6
 16 18  1  0
 16 17  1  1
 17 10  1  0
 18 19  2  0
 20 21  1  0
 21 22  1  0
 22 23  1  0
 24 23  1  6
 24 26  1  0
 25 24  1  0
 25 18  1  0
 26 27  2  0
 26 28  1  0
M  END
$$$$
