RIM.pdb
     RDKit          3D

 28 27  0  0  1  0  0  0  0  0999 V2000
   12.4990  -19.9551   14.6341 N   0  0  0  0  0  0  0  0  0  0  0  0
   11.7006  -19.0053   13.9371 C   0  0  0  0  0  0  0  0  0  0  0  0
   12.2457  -18.3587   12.9789 N   0  0  0  0  0  0  0  0  0  0  0  0
   10.3186  -18.7708   14.2928 N   0  0  0  0  0  0  0  0  0  0  0  0
   10.0383  -18.1524   15.5542 C   0  0  0  0  0  0  0  0  0  0  0  0
   11.0481  -18.2354   16.6196 C   0  0  0  0  0  0  0  0  0  0  0  0
   11.0035  -17.2675   17.7491 C   0  0  0  0  0  0  0  0  0  0  0  0
   10.3789  -17.7310   19.0011 C   0  0  2  0  0  0  0  0  0  0  0  0
    9.1111  -18.3863   18.7509 N   0  0  0  0  0  0  0  0  0  0  0  0
   10.1709  -16.5843   19.9733 C   0  0  0  0  0  0  0  0  0  0  0  0
   11.1291  -15.8307   20.2758 O   0  0  0  0  0  0  0  0  0  0  0  0
   11.6909  -17.6347   12.4784 C   0  0  0  0  0  0  0  0  0  0  0  0
    6.5078  -12.8758   19.5380 C   0  0  0  0  0  0  0  0  0  0  0  0
    7.7627  -13.6453   19.8982 C   0  0  2  0  0  0  0  0  0  0  0  0
    7.5506  -14.3723   21.2061 C   0  0  0  0  0  0  0  0  0  0  0  0
    7.2029  -13.4425   22.3410 C   0  0  2  0  0  0  0  0  0  0  0  0
    8.7077  -15.2774   21.5576 N   0  0  0  0  0  0  0  0  0  0  0  0
    8.9126  -16.3192   20.5697 C   0  0  0  0  0  0  0  0  0  0  0  0
    8.5292  -15.9048   22.8913 O   0  0  0  0  0  0  0  0  0  0  0  0
    8.0340  -17.0729   23.0314 C   0  0  0  0  0  0  0  0  0  0  0  0
   10.6755  -12.7631   28.4735 S   0  0  0  0  0  0  0  0  0  0  0  0
    9.0885  -13.5604   28.9039 C   0  0  0  0  0  0  0  0  0  0  0  0
    8.8090  -14.9390   27.7980 C   0  0  0  0  0  0  0  0  0  0  0  0
    8.9351  -14.6610   26.3485 C   0  0  1  0  0  0  0  0  0  0  0  0
    8.7650  -15.8157   25.4197 N   0  0  0  0  0  0  0  0  0  0  0  0
    8.9073  -15.2165   24.0571 C   0  0  0  0  0  0  0  0  0  0  0  0
    7.4633  -16.4605   25.5238 O   0  0  0  0  0  0  0  0  0  0  0  0
    6.4922  -15.8911   24.8963 O   0  0  0  0  0  0  0  0  0  0  0  0
  2  4  1  0
  2  1  1  0
  3  2  2  0
  5  4  1  0
  6  5  1  0
  7  6  1  0
  8 10  1  0
  8  7  1  0
  8  9  1  6
 10 11  2  0
 12 13  1  0
 14 13  1  0
 14 16  1  0
 14 15  1  6
 16 18  1  0
 16 17  1  1
 17 10  1  0
 18 19  2  0
 20 21  1  0
 21 22  1  0
 22 23  1  0
 24 23  1  1
 24 26  1  0
 25 24  1  0
 25 18  1  0
 26 27  2  0
 26 28  1  0
M  END
$$$$
