RIM.pdb
     RDKit          3D

 28 27  0  0  1  0  0  0  0  0999 V2000
    7.7690  -15.5543   16.1851 N   0  0  0  0  0  0  0  0  0  0  0  0
    8.6428  -14.4519   15.9698 C   0  0  0  0  0  0  0  0  0  0  0  0
    9.5750  -14.5912   15.1067 N   0  0  0  0  0  0  0  0  0  0  0  0
    8.4912  -13.2115   16.6978 N   0  0  0  0  0  0  0  0  0  0  0  0
    8.3382  -13.2744   18.1207 C   0  0  0  0  0  0  0  0  0  0  0  0
    7.0234  -13.6323   18.6729 C   0  0  0  0  0  0  0  0  0  0  0  0
    6.9340  -14.1936   20.0483 C   0  0  0  0  0  0  0  0  0  0  0  0
    8.0307  -15.0782   20.4808 C   0  0  2  0  0  0  0  0  0  0  0  0
    8.2361  -16.1653   19.5452 N   0  0  0  0  0  0  0  0  0  0  0  0
    7.7710  -15.6457   21.8643 C   0  0  0  0  0  0  0  0  0  0  0  0
    7.3800  -14.8947   22.7921 O   0  0  0  0  0  0  0  0  0  0  0  0
   10.2443  -13.8092   14.9557 C   0  0  0  0  0  0  0  0  0  0  0  0
    6.2587  -20.9834   22.6252 C   0  0  0  0  0  0  0  0  0  0  0  0
    6.3599  -19.4718   22.6627 C   0  0  2  0  0  0  0  0  0  0  0  0
    7.5714  -19.0673   23.4706 C   0  0  0  0  0  0  0  0  0  0  0  0
    7.5679  -19.6521   24.8604 C   0  0  2  0  0  0  0  0  0  0  0  0
    7.7772  -17.5711   23.4928 N   0  0  0  0  0  0  0  0  0  0  0  0
    7.9542  -17.0191   22.1634 C   0  0  0  0  0  0  0  0  0  0  0  0
    8.9397  -17.1885   24.3334 O   0  0  0  0  0  0  0  0  0  0  0  0
   10.1429  -17.4109   23.9698 C   0  0  0  0  0  0  0  0  0  0  0  0
    8.0474  -12.3355   28.2840 S   0  0  0  0  0  0  0  0  0  0  0  0
    9.4969  -12.9991   29.1774 C   0  0  0  0  0  0  0  0  0  0  0  0
   10.1933  -14.3524   28.2363 C   0  0  0  0  0  0  0  0  0  0  0  0
    9.3299  -14.9426   27.1874 C   0  0  1  0  0  0  0  0  0  0  0  0
    9.8828  -16.1006   26.4269 N   0  0  0  0  0  0  0  0  0  0  0  0
    8.7430  -16.5600   25.5751 C   0  0  0  0  0  0  0  0  0  0  0  0
   10.3178  -17.2011   27.2760 O   0  0  0  0  0  0  0  0  0  0  0  0
    9.4082  -18.0420   27.6314 O   0  0  0  0  0  0  0  0  0  0  0  0
  2  4  1  0
  2  1  1  0
  3  2  2  0
  5  4  1  0
  6  5  1  0
  7  6  1  0
  8 10  1  0
  8  7  1  0
  8  9  1  6
 10 11  2  0
 12 13  1  0
 14 13  1  0
 14 16  1  0
 14 15  1  6
 16 18  1  0
 16 17  1  1
 17 10  1  0
 18 19  2  0
 20 21  1  0
 21 22  1  0
 22 23  1  0
 24 23  1  6
 24 26  1  0
 25 24  1  0
 25 18  1  0
 26 27  2  0
 26 28  1  0
M  END
$$$$
