LDA.pdb
     RDKit          3D

 22 21  0  0  1  0  0  0  0  0999 V2000
    6.9986  -12.3841   24.6003 C   0  0  0  0  0  0  0  0  0  0  0  0
    6.1573  -13.2139   25.5571 C   0  0  2  0  0  0  0  0  0  0  0  0
    5.8350  -12.3695   26.7744 C   0  0  0  0  0  0  0  0  0  0  0  0
    6.8970  -14.4567   25.9454 C   0  0  0  0  0  0  0  0  0  0  0  0
    7.0579  -15.4203   24.8084 C   0  0  2  0  0  0  0  0  0  0  0  0
    5.9792  -16.3377   24.6583 N   0  0  0  0  0  0  0  0  0  0  0  0
    8.3834  -16.0942   24.8674 C   0  0  0  0  0  0  0  0  0  0  0  0
    8.4593  -17.1706   25.4901 O   0  0  0  0  0  0  0  0  0  0  0  0
    9.5488  -15.5976   24.2693 N   0  0  0  0  0  0  0  0  0  0  0  0
   10.8482  -16.1999   24.3957 C   0  0  1  0  0  0  0  0  0  0  0  0
   11.8458  -15.7374   23.3873 C   0  0  0  0  0  0  0  0  0  0  0  0
   13.1455  -16.4523   23.4408 C   0  0  0  0  0  0  0  0  0  0  0  0
   13.1661  -17.6946   23.3540 O   0  0  0  0  0  0  0  0  0  0  0  0
   11.4152  -16.0375   25.7531 C   0  0  0  0  0  0  0  0  0  0  0  0
   12.5357  -16.4982   26.0922 O   0  0  0  0  0  0  0  0  0  0  0  0
   14.3420  -15.7810   23.5850 O   0  0  0  0  0  0  0  0  0  0  0  0
   10.7964  -13.9659   28.8011 C   0  0  0  0  0  0  0  0  0  0  0  0
   11.1955  -15.2441   28.1415 C   0  0  2  0  0  0  0  0  0  0  0  0
   10.7040  -15.3363   26.7611 N   0  0  0  0  0  0  0  0  0  0  0  0
   10.8037  -16.4556   28.9095 C   0  0  0  0  0  0  0  0  0  0  0  0
   10.0373  -17.3151   28.4050 O   0  0  0  0  0  0  0  0  0  0  0  0
   11.2597  -16.6864   30.1958 O   0  0  0  0  0  0  0  0  0  0  0  0
  2  1  1  6
  2  3  1  0
  4  5  1  0
  4  2  1  0
  5  7  1  0
  5  6  1  1
  7  8  2  0
  7  9  1  0
  9 10  1  0
 10 11  1  6
 10 14  1  0
 12 16  1  0
 12 11  1  0
 13 12  2  0
 14 15  2  0
 18 17  1  1
 19 14  1  0
 19 18  1  0
 20 18  1  0
 20 22  1  0
 21 20  2  0
M  END
$$$$
