LDA.pdb
     RDKit          3D

 22 21  0  0  1  0  0  0  0  0999 V2000
    8.7537  -13.7772   19.3011 C   0  0  0  0  0  0  0  0  0  0  0  0
    7.6642  -13.3660   20.2788 C   0  0  2  0  0  0  0  0  0  0  0  0
    7.6488  -11.8532   20.3774 C   0  0  0  0  0  0  0  0  0  0  0  0
    7.9136  -13.9895   21.6173 C   0  0  0  0  0  0  0  0  0  0  0  0
    7.9534  -15.4872   21.5660 C   0  0  2  0  0  0  0  0  0  0  0  0
    6.7248  -16.0949   21.1802 N   0  0  0  0  0  0  0  0  0  0  0  0
    8.5007  -16.0472   22.8314 C   0  0  0  0  0  0  0  0  0  0  0  0
    7.7145  -16.1993   23.7859 O   0  0  0  0  0  0  0  0  0  0  0  0
    9.8399  -16.4134   23.0186 N   0  0  0  0  0  0  0  0  0  0  0  0
   10.3773  -16.9321   24.2471 C   0  0  1  0  0  0  0  0  0  0  0  0
   11.6279  -17.7301   24.0877 C   0  0  0  0  0  0  0  0  0  0  0  0
   12.1004  -18.3816   25.3349 C   0  0  0  0  0  0  0  0  0  0  0  0
   11.2686  -18.7768   26.1734 O   0  0  0  0  0  0  0  0  0  0  0  0
   10.5997  -15.8730   25.2566 C   0  0  0  0  0  0  0  0  0  0  0  0
   11.5592  -15.0610   25.2045 O   0  0  0  0  0  0  0  0  0  0  0  0
   13.4419  -18.5653   25.5989 O   0  0  0  0  0  0  0  0  0  0  0  0
    8.7301  -13.7254   27.4046 C   0  0  0  0  0  0  0  0  0  0  0  0
    9.8954  -14.6569   27.3561 C   0  0  2  0  0  0  0  0  0  0  0  0
    9.7186  -15.7194   26.3583 N   0  0  0  0  0  0  0  0  0  0  0  0
   10.2410  -15.2441   28.6777 C   0  0  0  0  0  0  0  0  0  0  0  0
   10.4822  -14.5042   29.6652 O   0  0  0  0  0  0  0  0  0  0  0  0
   10.3113  -16.6123   28.8753 O   0  0  0  0  0  0  0  0  0  0  0  0
  2  1  1  6
  2  3  1  0
  4  5  1  0
  4  2  1  0
  5  7  1  0
  5  6  1  1
  7  8  2  0
  7  9  1  0
  9 10  1  0
 10 11  1  6
 10 14  1  0
 12 16  1  0
 12 11  1  0
 13 12  2  0
 14 15  2  0
 18 17  1  1
 19 14  1  0
 19 18  1  0
 20 18  1  0
 20 22  1  0
 21 20  2  0
M  END
$$$$
