LDA.pdb
     RDKit          3D

 22 21  0  0  1  0  0  0  0  0999 V2000
    9.0431  -12.1504   19.1680 C   0  0  0  0  0  0  0  0  0  0  0  0
    8.0644  -13.3114   19.0882 C   0  0  2  0  0  0  0  0  0  0  0  0
    6.6556  -12.7659   19.2162 C   0  0  0  0  0  0  0  0  0  0  0  0
    8.3567  -14.3045   20.1702 C   0  0  0  0  0  0  0  0  0  0  0  0
    9.7748  -14.7904   20.1499 C   0  0  2  0  0  0  0  0  0  0  0  0
   10.2151  -15.2654   18.8818 N   0  0  0  0  0  0  0  0  0  0  0  0
   10.0171  -15.7664   21.2467 C   0  0  0  0  0  0  0  0  0  0  0  0
    9.1034  -15.9474   22.0741 O   0  0  0  0  0  0  0  0  0  0  0  0
   11.2036  -16.4934   21.4087 N   0  0  0  0  0  0  0  0  0  0  0  0
   11.4290  -17.4616   22.4475 C   0  0  1  0  0  0  0  0  0  0  0  0
   12.7163  -18.2068   22.3307 C   0  0  0  0  0  0  0  0  0  0  0  0
   12.9126  -18.8872   21.0262 C   0  0  0  0  0  0  0  0  0  0  0  0
   11.9429  -19.4343   20.4679 O   0  0  0  0  0  0  0  0  0  0  0  0
   11.3285  -16.8704   23.8005 C   0  0  0  0  0  0  0  0  0  0  0  0
   12.1218  -15.9940   24.2309 O   0  0  0  0  0  0  0  0  0  0  0  0
   14.1439  -18.9346   20.4061 O   0  0  0  0  0  0  0  0  0  0  0  0
    8.7980  -16.4006   26.4331 C   0  0  0  0  0  0  0  0  0  0  0  0
   10.2046  -16.7313   26.0589 C   0  0  2  0  0  0  0  0  0  0  0  0
   10.3066  -17.2740   24.6985 N   0  0  0  0  0  0  0  0  0  0  0  0
   10.8787  -17.6370   27.0264 C   0  0  0  0  0  0  0  0  0  0  0  0
   11.0307  -17.2950   28.2268 O   0  0  0  0  0  0  0  0  0  0  0  0
   11.3617  -18.8791   26.6526 O   0  0  0  0  0  0  0  0  0  0  0  0
  2  1  1  1
  2  3  1  0
  4  5  1  0
  4  2  1  0
  5  7  1  0
  5  6  1  6
  7  8  2  0
  7  9  1  0
  9 10  1  0
 10 11  1  6
 10 14  1  0
 12 16  1  0
 12 11  1  0
 13 12  2  0
 14 15  2  0
 18 17  1  1
 19 14  1  0
 19 18  1  0
 20 18  1  0
 20 22  1  0
 21 20  2  0
M  END
$$$$
