LDA.pdb
     RDKit          3D

 22 21  0  0  1  0  0  0  0  0999 V2000
    9.5517  -13.1347   19.5194 C   0  0  0  0  0  0  0  0  0  0  0  0
    8.0830  -13.3877   19.8207 C   0  0  2  0  0  0  0  0  0  0  0  0
    7.3641  -12.0541   19.8767 C   0  0  0  0  0  0  0  0  0  0  0  0
    7.9446  -14.1278   21.1152 C   0  0  0  0  0  0  0  0  0  0  0  0
    8.7021  -15.4213   21.1326 C   0  0  2  0  0  0  0  0  0  0  0  0
    8.1675  -16.4271   20.2781 N   0  0  0  0  0  0  0  0  0  0  0  0
    8.9052  -15.8986   22.5274 C   0  0  0  0  0  0  0  0  0  0  0  0
    7.8972  -16.0301   23.2477 O   0  0  0  0  0  0  0  0  0  0  0  0
   10.1538  -16.2089   23.0818 N   0  0  0  0  0  0  0  0  0  0  0  0
   10.3467  -16.7533   24.3984 C   0  0  1  0  0  0  0  0  0  0  0  0
   11.4009  -17.8055   24.4850 C   0  0  0  0  0  0  0  0  0  0  0  0
   11.1283  -19.0129   23.6659 C   0  0  0  0  0  0  0  0  0  0  0  0
   11.6972  -19.1493   22.5664 O   0  0  0  0  0  0  0  0  0  0  0  0
   10.6191  -15.7054   25.4074 C   0  0  0  0  0  0  0  0  0  0  0  0
   11.6990  -15.0620   25.4591 O   0  0  0  0  0  0  0  0  0  0  0  0
   10.2580  -19.9977   24.0851 O   0  0  0  0  0  0  0  0  0  0  0  0
    8.7798  -13.4879   27.7124 C   0  0  0  0  0  0  0  0  0  0  0  0
    9.9297  -14.4058   27.4612 C   0  0  2  0  0  0  0  0  0  0  0  0
    9.6506  -15.3682   26.3881 N   0  0  0  0  0  0  0  0  0  0  0  0
   10.3995  -15.1158   28.6803 C   0  0  0  0  0  0  0  0  0  0  0  0
   10.2715  -16.3621   28.7863 O   0  0  0  0  0  0  0  0  0  0  0  0
   10.9899  -14.4445   29.7369 O   0  0  0  0  0  0  0  0  0  0  0  0
  2  1  1  1
  2  3  1  0
  4  5  1  0
  4  2  1  0
  5  7  1  0
  5  6  1  6
  7  8  2  0
  7  9  1  0
  9 10  1  0
 10 11  1  6
 10 14  1  0
 12 16  1  0
 12 11  1  0
 13 12  2  0
 14 15  2  0
 18 17  1  1
 19 14  1  0
 19 18  1  0
 20 18  1  0
 20 22  1  0
 21 20  2  0
M  END
$$$$
