LDA.pdb
     RDKit          3D

 22 21  0  0  1  0  0  0  0  0999 V2000
    8.5252  -11.7933   20.5702 C   0  0  0  0  0  0  0  0  0  0  0  0
    8.1908  -13.2152   20.1476 C   0  0  2  0  0  0  0  0  0  0  0  0
    6.8644  -13.2022   19.4134 C   0  0  0  0  0  0  0  0  0  0  0  0
    8.1315  -14.1072   21.3491 C   0  0  0  0  0  0  0  0  0  0  0  0
    8.7799  -15.4393   21.1204 C   0  0  2  0  0  0  0  0  0  0  0  0
    8.0037  -16.3451   20.3428 N   0  0  0  0  0  0  0  0  0  0  0  0
    9.2419  -16.0321   22.4048 C   0  0  0  0  0  0  0  0  0  0  0  0
    8.3865  -16.5620   23.1396 O   0  0  0  0  0  0  0  0  0  0  0  0
   10.5734  -16.0328   22.8403 N   0  0  0  0  0  0  0  0  0  0  0  0
   11.0199  -16.5837   24.0911 C   0  0  1  0  0  0  0  0  0  0  0  0
   12.3480  -17.2607   24.0305 C   0  0  0  0  0  0  0  0  0  0  0  0
   12.4432  -18.3295   23.0050 C   0  0  0  0  0  0  0  0  0  0  0  0
   11.6552  -19.2931   23.0485 O   0  0  0  0  0  0  0  0  0  0  0  0
   11.0338  -15.5782   25.1770 C   0  0  0  0  0  0  0  0  0  0  0  0
   11.9098  -14.6804   25.2744 O   0  0  0  0  0  0  0  0  0  0  0  0
   13.3836  -18.2913   21.9965 O   0  0  0  0  0  0  0  0  0  0  0  0
    8.7221  -13.8463   27.3347 C   0  0  0  0  0  0  0  0  0  0  0  0
   10.0165  -14.5865   27.2660 C   0  0  2  0  0  0  0  0  0  0  0  0
   10.0344  -15.5790   26.1842 N   0  0  0  0  0  0  0  0  0  0  0  0
   10.4063  -15.2207   28.5531 C   0  0  0  0  0  0  0  0  0  0  0  0
   10.4940  -16.4711   28.6517 O   0  0  0  0  0  0  0  0  0  0  0  0
   10.6857  -14.4721   29.6833 O   0  0  0  0  0  0  0  0  0  0  0  0
  2  1  1  1
  2  3  1  0
  4  5  1  0
  4  2  1  0
  5  7  1  0
  5  6  1  1
  7  8  2  0
  7  9  1  0
  9 10  1  0
 10 11  1  6
 10 14  1  0
 12 16  1  0
 12 11  1  0
 13 12  2  0
 14 15  2  0
 18 17  1  1
 19 14  1  0
 19 18  1  0
 20 18  1  0
 20 22  1  0
 21 20  2  0
M  END
$$$$
