LDA.pdb
     RDKit          3D

 22 21  0  0  1  0  0  0  0  0999 V2000
    7.1280  -12.3839   24.4057 C   0  0  0  0  0  0  0  0  0  0  0  0
    6.1404  -13.0922   25.3195 C   0  0  2  0  0  0  0  0  0  0  0  0
    5.8045  -12.1706   26.4754 C   0  0  0  0  0  0  0  0  0  0  0  0
    6.7278  -14.3790   25.8110 C   0  0  0  0  0  0  0  0  0  0  0  0
    6.9610  -15.3722   24.7125 C   0  0  2  0  0  0  0  0  0  0  0  0
    5.8769  -16.2682   24.4904 N   0  0  0  0  0  0  0  0  0  0  0  0
    8.2598  -16.0741   24.8987 C   0  0  0  0  0  0  0  0  0  0  0  0
    8.2975  -17.0178   25.7113 O   0  0  0  0  0  0  0  0  0  0  0  0
    9.4404  -15.7432   24.2210 N   0  0  0  0  0  0  0  0  0  0  0  0
   10.7272  -16.3212   24.4988 C   0  0  1  0  0  0  0  0  0  0  0  0
   11.7451  -16.1097   23.4287 C   0  0  0  0  0  0  0  0  0  0  0  0
   11.3186  -16.5630   22.0811 C   0  0  0  0  0  0  0  0  0  0  0  0
   10.7107  -17.6435   21.9615 O   0  0  0  0  0  0  0  0  0  0  0  0
   11.2805  -15.8687   25.7947 C   0  0  0  0  0  0  0  0  0  0  0  0
   12.4249  -15.3604   25.9163 O   0  0  0  0  0  0  0  0  0  0  0  0
   11.5756  -15.8214   20.9467 O   0  0  0  0  0  0  0  0  0  0  0  0
   10.3623  -14.2195   28.6907 C   0  0  0  0  0  0  0  0  0  0  0  0
   11.0249  -15.4923   28.2798 C   0  0  2  0  0  0  0  0  0  0  0  0
   10.5271  -15.9893   26.9911 N   0  0  0  0  0  0  0  0  0  0  0  0
   10.9454  -16.5620   29.3096 C   0  0  0  0  0  0  0  0  0  0  0  0
   11.3808  -16.3664   30.4728 O   0  0  0  0  0  0  0  0  0  0  0  0
   10.3961  -17.8026   29.0360 O   0  0  0  0  0  0  0  0  0  0  0  0
  2  1  1  6
  2  3  1  0
  4  5  1  0
  4  2  1  0
  5  7  1  0
  5  6  1  1
  7  8  2  0
  7  9  1  0
  9 10  1  0
 10 11  1  6
 10 14  1  0
 12 16  1  0
 12 11  1  0
 13 12  2  0
 14 15  2  0
 18 17  1  1
 19 14  1  0
 19 18  1  0
 20 18  1  0
 20 22  1  0
 21 20  2  0
M  END
$$$$
