LDA.pdb
     RDKit          3D

 22 21  0  0  1  0  0  0  0  0999 V2000
    6.3563  -11.9159   26.8076 C   0  0  0  0  0  0  0  0  0  0  0  0
    6.9951  -12.9006   25.8410 C   0  0  2  0  0  0  0  0  0  0  0  0
    7.0056  -12.2819   24.4570 C   0  0  0  0  0  0  0  0  0  0  0  0
    6.2360  -14.1915   25.8471 C   0  0  0  0  0  0  0  0  0  0  0  0
    6.7398  -15.1705   24.8296 C   0  0  2  0  0  0  0  0  0  0  0  0
    6.0372  -16.4088   24.8072 N   0  0  0  0  0  0  0  0  0  0  0  0
    8.2130  -15.3459   24.9460 C   0  0  0  0  0  0  0  0  0  0  0  0
    8.8107  -14.6729   25.8075 O   0  0  0  0  0  0  0  0  0  0  0  0
    8.9695  -16.2168   24.1513 N   0  0  0  0  0  0  0  0  0  0  0  0
   10.3959  -16.3715   24.2448 C   0  0  1  0  0  0  0  0  0  0  0  0
   11.1588  -15.7805   23.1069 C   0  0  0  0  0  0  0  0  0  0  0  0
   11.5879  -16.7645   22.0819 C   0  0  0  0  0  0  0  0  0  0  0  0
   11.2379  -16.6077   20.8969 O   0  0  0  0  0  0  0  0  0  0  0  0
   10.9373  -15.8487   25.5191 C   0  0  0  0  0  0  0  0  0  0  0  0
   11.6310  -14.8020   25.5959 O   0  0  0  0  0  0  0  0  0  0  0  0
   12.3679  -17.8567   22.4005 O   0  0  0  0  0  0  0  0  0  0  0  0
   10.6668  -14.7301   28.4314 C   0  0  0  0  0  0  0  0  0  0  0  0
   11.2450  -16.0430   28.0191 C   0  0  2  0  0  0  0  0  0  0  0  0
   10.6927  -16.5200   26.7451 N   0  0  0  0  0  0  0  0  0  0  0  0
   11.1237  -17.0978   29.0600 C   0  0  0  0  0  0  0  0  0  0  0  0
   10.5041  -18.1658   28.8221 O   0  0  0  0  0  0  0  0  0  0  0  0
   11.6799  -16.9518   30.3190 O   0  0  0  0  0  0  0  0  0  0  0  0
  2  1  1  1
  2  3  1  0
  4  5  1  0
  4  2  1  0
  5  7  1  0
  5  6  1  1
  7  8  2  0
  7  9  1  0
  9 10  1  0
 10 11  1  6
 10 14  1  0
 12 16  1  0
 12 11  1  0
 13 12  2  0
 14 15  2  0
 18 17  1  1
 19 14  1  0
 19 18  1  0
 20 18  1  0
 20 22  1  0
 21 20  2  0
M  END
$$$$
