LDA.pdb
     RDKit          3D

 22 21  0  0  1  0  0  0  0  0999 V2000
    6.7770  -12.1572   24.3156 C   0  0  0  0  0  0  0  0  0  0  0  0
    5.9358  -12.7294   25.4456 C   0  0  2  0  0  0  0  0  0  0  0  0
    5.8038  -11.6783   26.5302 C   0  0  0  0  0  0  0  0  0  0  0  0
    6.5722  -13.9756   25.9791 C   0  0  0  0  0  0  0  0  0  0  0  0
    6.6828  -15.0613   24.9514 C   0  0  2  0  0  0  0  0  0  0  0  0
    5.5100  -15.8558   24.8073 N   0  0  0  0  0  0  0  0  0  0  0  0
    7.9079  -15.8770   25.1709 C   0  0  0  0  0  0  0  0  0  0  0  0
    7.9304  -16.6347   26.1597 O   0  0  0  0  0  0  0  0  0  0  0  0
    9.0351  -15.8481   24.3396 N   0  0  0  0  0  0  0  0  0  0  0  0
   10.2474  -16.5805   24.5870 C   0  0  1  0  0  0  0  0  0  0  0  0
   11.1841  -16.6373   23.4271 C   0  0  0  0  0  0  0  0  0  0  0  0
   12.3789  -17.4900   23.6475 C   0  0  0  0  0  0  0  0  0  0  0  0
   12.2548  -18.5782   24.2405 O   0  0  0  0  0  0  0  0  0  0  0  0
   10.9736  -16.0831   25.7767 C   0  0  0  0  0  0  0  0  0  0  0  0
   11.9176  -15.2540   25.7118 O   0  0  0  0  0  0  0  0  0  0  0  0
   13.6334  -17.1141   23.2139 O   0  0  0  0  0  0  0  0  0  0  0  0
   10.6439  -14.8210   28.8492 C   0  0  0  0  0  0  0  0  0  0  0  0
   11.3119  -16.0283   28.2797 C   0  0  2  0  0  0  0  0  0  0  0  0
   10.6302  -16.5286   27.0795 N   0  0  0  0  0  0  0  0  0  0  0  0
   11.4921  -17.1271   29.2652 C   0  0  0  0  0  0  0  0  0  0  0  0
   11.0169  -18.2703   29.0455 O   0  0  0  0  0  0  0  0  0  0  0  0
   12.1814  -16.9415   30.4510 O   0  0  0  0  0  0  0  0  0  0  0  0
  2  1  1  6
  2  3  1  0
  4  5  1  0
  4  2  1  0
  5  7  1  0
  5  6  1  1
  7  8  2  0
  7  9  1  0
  9 10  1  0
 10 11  1  6
 10 14  1  0
 12 16  1  0
 12 11  1  0
 13 12  2  0
 14 15  2  0
 18 17  1  1
 19 14  1  0
 19 18  1  0
 20 18  1  0
 20 22  1  0
 21 20  2  0
M  END
$$$$
