LDA.pdb
     RDKit          3D

 22 21  0  0  1  0  0  0  0  0999 V2000
    6.4187  -12.5928   24.3410 C   0  0  0  0  0  0  0  0  0  0  0  0
    5.7267  -13.3507   25.4630 C   0  0  2  0  0  0  0  0  0  0  0  0
    5.4027  -12.3751   26.5773 C   0  0  0  0  0  0  0  0  0  0  0  0
    6.6086  -14.4561   25.9558 C   0  0  0  0  0  0  0  0  0  0  0  0
    6.7997  -15.5461   24.9444 C   0  0  2  0  0  0  0  0  0  0  0  0
    5.7792  -16.5391   24.9507 N   0  0  0  0  0  0  0  0  0  0  0  0
    8.1673  -16.1248   25.0400 C   0  0  0  0  0  0  0  0  0  0  0  0
    8.3105  -17.1670   25.7077 O   0  0  0  0  0  0  0  0  0  0  0  0
    9.3017  -15.5749   24.4291 N   0  0  0  0  0  0  0  0  0  0  0  0
   10.6240  -16.1325   24.5172 C   0  0  1  0  0  0  0  0  0  0  0  0
   11.5838  -15.6139   23.4995 C   0  0  0  0  0  0  0  0  0  0  0  0
   12.8939  -16.3113   23.4833 C   0  0  0  0  0  0  0  0  0  0  0  0
   13.9197  -15.6976   23.8330 O   0  0  0  0  0  0  0  0  0  0  0  0
   11.2124  -15.9775   25.8663 C   0  0  0  0  0  0  0  0  0  0  0  0
   12.3603  -16.3933   26.1701 O   0  0  0  0  0  0  0  0  0  0  0  0
   13.0146  -17.6281   23.0902 O   0  0  0  0  0  0  0  0  0  0  0  0
   10.4211  -14.0539   29.0042 C   0  0  0  0  0  0  0  0  0  0  0  0
   11.0403  -15.1905   28.2608 C   0  0  2  0  0  0  0  0  0  0  0  0
   10.4917  -15.3360   26.9068 N   0  0  0  0  0  0  0  0  0  0  0  0
   10.9665  -16.4854   28.9880 C   0  0  0  0  0  0  0  0  0  0  0  0
   11.4690  -16.6071   30.1342 O   0  0  0  0  0  0  0  0  0  0  0  0
   10.3499  -17.5978   28.4421 O   0  0  0  0  0  0  0  0  0  0  0  0
  2  1  1  6
  2  3  1  0
  4  5  1  0
  4  2  1  0
  5  7  1  0
  5  6  1  1
  7  8  2  0
  7  9  1  0
  9 10  1  0
 10 11  1  6
 10 14  1  0
 12 16  1  0
 12 11  1  0
 13 12  2  0
 14 15  2  0
 18 17  1  1
 19 14  1  0
 19 18  1  0
 20 18  1  0
 20 22  1  0
 21 20  2  0
M  END
$$$$
