LDA.pdb
     RDKit          3D

 22 21  0  0  1  0  0  0  0  0999 V2000
    6.8294  -12.0700   24.5537 C   0  0  0  0  0  0  0  0  0  0  0  0
    6.1943  -13.0594   25.5180 C   0  0  2  0  0  0  0  0  0  0  0  0
    5.7783  -12.3142   26.7710 C   0  0  0  0  0  0  0  0  0  0  0  0
    7.1627  -14.1552   25.8408 C   0  0  0  0  0  0  0  0  0  0  0  0
    7.2607  -15.1864   24.7570 C   0  0  2  0  0  0  0  0  0  0  0  0
    6.0684  -15.9368   24.5502 N   0  0  0  0  0  0  0  0  0  0  0  0
    8.4578  -16.0487   24.9517 C   0  0  0  0  0  0  0  0  0  0  0  0
    8.3809  -16.9663   25.7910 O   0  0  0  0  0  0  0  0  0  0  0  0
    9.6629  -15.8957   24.2540 N   0  0  0  0  0  0  0  0  0  0  0  0
   10.8984  -16.5368   24.6141 C   0  0  1  0  0  0  0  0  0  0  0  0
   11.9594  -16.4688   23.5674 C   0  0  0  0  0  0  0  0  0  0  0  0
   11.5555  -17.0224   22.2507 C   0  0  0  0  0  0  0  0  0  0  0  0
   10.9676  -18.1193   22.2009 O   0  0  0  0  0  0  0  0  0  0  0  0
   11.4431  -16.0321   25.8944 C   0  0  0  0  0  0  0  0  0  0  0  0
   12.1881  -15.0217   25.9764 O   0  0  0  0  0  0  0  0  0  0  0  0
   11.8121  -16.3571   21.0698 O   0  0  0  0  0  0  0  0  0  0  0  0
   11.2753  -14.6991   28.5717 C   0  0  0  0  0  0  0  0  0  0  0  0
   11.5915  -16.1493   28.4136 C   0  0  2  0  0  0  0  0  0  0  0  0
   11.1425  -16.6801   27.1205 N   0  0  0  0  0  0  0  0  0  0  0  0
   11.0756  -16.9934   29.5238 C   0  0  0  0  0  0  0  0  0  0  0  0
   10.2441  -17.9096   29.3001 O   0  0  0  0  0  0  0  0  0  0  0  0
   11.4830  -16.8095   30.8337 O   0  0  0  0  0  0  0  0  0  0  0  0
  2  1  1  6
  2  3  1  0
  4  5  1  0
  4  2  1  0
  5  7  1  0
  5  6  1  1
  7  8  2  0
  7  9  1  0
  9 10  1  0
 10 11  1  6
 10 14  1  0
 12 16  1  0
 12 11  1  0
 13 12  2  0
 14 15  2  0
 18 17  1  1
 19 14  1  0
 19 18  1  0
 20 18  1  0
 20 22  1  0
 21 20  2  0
M  END
$$$$
