LDA.pdb
     RDKit          3D

 22 21  0  0  1  0  0  0  0  0999 V2000
    6.6699  -12.3972   24.1940 C   0  0  0  0  0  0  0  0  0  0  0  0
    5.9679  -13.0708   25.3626 C   0  0  2  0  0  0  0  0  0  0  0  0
    5.7653  -12.0456   26.4609 C   0  0  0  0  0  0  0  0  0  0  0  0
    6.7815  -14.2290   25.8516 C   0  0  0  0  0  0  0  0  0  0  0  0
    6.8498  -15.3539   24.8630 C   0  0  2  0  0  0  0  0  0  0  0  0
    5.7378  -16.2422   24.9056 N   0  0  0  0  0  0  0  0  0  0  0  0
    8.1560  -16.0612   24.9534 C   0  0  0  0  0  0  0  0  0  0  0  0
    8.2061  -17.1009   25.6382 O   0  0  0  0  0  0  0  0  0  0  0  0
    9.3303  -15.6346   24.3199 N   0  0  0  0  0  0  0  0  0  0  0  0
   10.6134  -16.2647   24.4751 C   0  0  1  0  0  0  0  0  0  0  0  0
   11.6116  -15.9030   23.4269 C   0  0  0  0  0  0  0  0  0  0  0  0
   11.2466  -16.3431   22.0572 C   0  0  0  0  0  0  0  0  0  0  0  0
   10.7861  -15.5147   21.2492 O   0  0  0  0  0  0  0  0  0  0  0  0
   11.2010  -16.0250   25.8120 C   0  0  0  0  0  0  0  0  0  0  0  0
   12.3647  -16.3836   26.1283 O   0  0  0  0  0  0  0  0  0  0  0  0
   11.4013  -17.6506   21.6455 O   0  0  0  0  0  0  0  0  0  0  0  0
   10.4239  -13.9957   28.8697 C   0  0  0  0  0  0  0  0  0  0  0  0
   10.9771  -15.2045   28.1909 C   0  0  2  0  0  0  0  0  0  0  0  0
   10.4612  -15.3622   26.8254 N   0  0  0  0  0  0  0  0  0  0  0  0
   10.7820  -16.4600   28.9632 C   0  0  0  0  0  0  0  0  0  0  0  0
   11.2539  -16.5802   30.1224 O   0  0  0  0  0  0  0  0  0  0  0  0
   10.0819  -17.5364   28.4464 O   0  0  0  0  0  0  0  0  0  0  0  0
  2  1  1  6
  2  3  1  0
  4  5  1  0
  4  2  1  0
  5  7  1  0
  5  6  1  1
  7  8  2  0
  7  9  1  0
  9 10  1  0
 10 11  1  6
 10 14  1  0
 12 16  1  0
 12 11  1  0
 13 12  2  0
 14 15  2  0
 18 17  1  1
 19 14  1  0
 19 18  1  0
 20 18  1  0
 20 22  1  0
 21 20  2  0
M  END
$$$$
