LDA.pdb
     RDKit          3D

 22 21  0  0  1  0  0  0  0  0999 V2000
    9.0256  -13.6531   19.1792 C   0  0  0  0  0  0  0  0  0  0  0  0
    7.7538  -13.5427   20.0052 C   0  0  2  0  0  0  0  0  0  0  0  0
    7.3962  -12.0764   20.1487 C   0  0  0  0  0  0  0  0  0  0  0  0
    7.9548  -14.1807   21.3451 C   0  0  0  0  0  0  0  0  0  0  0  0
    8.3256  -15.6302   21.2523 C   0  0  2  0  0  0  0  0  0  0  0  0
    7.2827  -16.4743   20.7754 N   0  0  0  0  0  0  0  0  0  0  0  0
    8.9157  -16.1100   22.5314 C   0  0  0  0  0  0  0  0  0  0  0  0
    8.1331  -16.4532   23.4381 O   0  0  0  0  0  0  0  0  0  0  0  0
   10.2911  -16.2004   22.7815 N   0  0  0  0  0  0  0  0  0  0  0  0
   10.8648  -16.6707   24.0132 C   0  0  1  0  0  0  0  0  0  0  0  0
   12.2302  -17.2562   23.8764 C   0  0  0  0  0  0  0  0  0  0  0  0
   12.3061  -18.7074   24.1784 C   0  0  0  0  0  0  0  0  0  0  0  0
   11.8511  -19.1341   25.2564 O   0  0  0  0  0  0  0  0  0  0  0  0
   10.8847  -15.6256   25.0609 C   0  0  0  0  0  0  0  0  0  0  0  0
   11.7025  -14.6695   25.0659 O   0  0  0  0  0  0  0  0  0  0  0  0
   12.8690  -19.6075   23.2974 O   0  0  0  0  0  0  0  0  0  0  0  0
    8.8616  -13.7552   27.2502 C   0  0  0  0  0  0  0  0  0  0  0  0
   10.0227  -14.6932   27.2449 C   0  0  2  0  0  0  0  0  0  0  0  0
    9.9588  -15.6531   26.1358 N   0  0  0  0  0  0  0  0  0  0  0  0
   10.2135  -15.4084   28.5345 C   0  0  0  0  0  0  0  0  0  0  0  0
   10.0932  -16.6583   28.5990 O   0  0  0  0  0  0  0  0  0  0  0  0
   10.5275  -14.7382   29.7041 O   0  0  0  0  0  0  0  0  0  0  0  0
  2  1  1  6
  2  3  1  0
  4  5  1  0
  4  2  1  0
  5  7  1  0
  5  6  1  1
  7  8  2  0
  7  9  1  0
  9 10  1  0
 10 11  1  6
 10 14  1  0
 12 16  1  0
 12 11  1  0
 13 12  2  0
 14 15  2  0
 18 17  1  1
 19 14  1  0
 19 18  1  0
 20 18  1  0
 20 22  1  0
 21 20  2  0
M  END
$$$$
