LDA.pdb
     RDKit          3D

 22 21  0  0  1  0  0  0  0  0999 V2000
    8.2063  -12.7341   17.9524 C   0  0  0  0  0  0  0  0  0  0  0  0
    7.7106  -13.4856   19.1778 C   0  0  2  0  0  0  0  0  0  0  0  0
    7.0089  -12.5042   20.0959 C   0  0  0  0  0  0  0  0  0  0  0  0
    8.8600  -14.1462   19.8745 C   0  0  0  0  0  0  0  0  0  0  0  0
    9.6197  -15.0854   18.9868 C   0  0  2  0  0  0  0  0  0  0  0  0
    8.8005  -15.8937   18.1483 N   0  0  0  0  0  0  0  0  0  0  0  0
   10.6017  -15.8808   19.7726 C   0  0  0  0  0  0  0  0  0  0  0  0
   11.1204  -15.3410   20.7686 O   0  0  0  0  0  0  0  0  0  0  0  0
   10.9797  -17.1943   19.4657 N   0  0  0  0  0  0  0  0  0  0  0  0
   12.0274  -17.9167   20.1349 C   0  0  1  0  0  0  0  0  0  0  0  0
   12.2487  -19.3010   19.6243 C   0  0  0  0  0  0  0  0  0  0  0  0
   13.1771  -20.1152   20.4479 C   0  0  0  0  0  0  0  0  0  0  0  0
   13.2925  -19.8716   21.6639 O   0  0  0  0  0  0  0  0  0  0  0  0
   13.3123  -17.1825   20.1269 C   0  0  0  0  0  0  0  0  0  0  0  0
   14.0479  -17.0906   19.1104 O   0  0  0  0  0  0  0  0  0  0  0  0
   13.9233  -21.1416   19.9069 O   0  0  0  0  0  0  0  0  0  0  0  0
   14.8155  -14.3196   20.9771 C   0  0  0  0  0  0  0  0  0  0  0  0
   15.0360  -15.7592   21.3042 C   0  0  2  0  0  0  0  0  0  0  0  0
   13.7869  -16.5307   21.2946 N   0  0  0  0  0  0  0  0  0  0  0  0
   15.7630  -15.9724   22.5836 C   0  0  0  0  0  0  0  0  0  0  0  0
   16.8614  -15.4002   22.8004 O   0  0  0  0  0  0  0  0  0  0  0  0
   15.2688  -16.7988   23.5778 O   0  0  0  0  0  0  0  0  0  0  0  0
  2  1  1  6
  2  3  1  0
  4  5  1  0
  4  2  1  0
  5  7  1  0
  5  6  1  1
  7  8  2  0
  7  9  1  0
  9 10  1  0
 10 11  1  6
 10 14  1  0
 12 16  1  0
 12 11  1  0
 13 12  2  0
 14 15  2  0
 18 17  1  1
 19 14  1  0
 19 18  1  0
 20 18  1  0
 20 22  1  0
 21 20  2  0
M  END
$$$$
