LDA.pdb
     RDKit          3D

 22 21  0  0  1  0  0  0  0  0999 V2000
    8.7014  -11.8686   18.9754 C   0  0  0  0  0  0  0  0  0  0  0  0
    7.9381  -13.1773   19.1059 C   0  0  2  0  0  0  0  0  0  0  0  0
    6.7791  -12.9679   20.0605 C   0  0  0  0  0  0  0  0  0  0  0  0
    8.8514  -14.2573   19.5978 C   0  0  0  0  0  0  0  0  0  0  0  0
    9.9840  -14.5384   18.6567 C   0  0  2  0  0  0  0  0  0  0  0  0
    9.5794  -14.9908   17.3686 N   0  0  0  0  0  0  0  0  0  0  0  0
   10.9916  -15.4313   19.2907 C   0  0  0  0  0  0  0  0  0  0  0  0
   10.6277  -16.5779   19.6150 O   0  0  0  0  0  0  0  0  0  0  0  0
   12.3200  -15.0669   19.5459 N   0  0  0  0  0  0  0  0  0  0  0  0
   13.2755  -15.8988   20.2256 C   0  0  1  0  0  0  0  0  0  0  0  0
   14.7005  -15.5930   19.9064 C   0  0  0  0  0  0  0  0  0  0  0  0
   15.0336  -15.6707   18.4620 C   0  0  0  0  0  0  0  0  0  0  0  0
   14.9659  -16.7672   17.8751 O   0  0  0  0  0  0  0  0  0  0  0  0
   13.0908  -15.8855   21.6940 C   0  0  0  0  0  0  0  0  0  0  0  0
   13.6067  -15.0190   22.4461 O   0  0  0  0  0  0  0  0  0  0  0  0
   15.4194  -14.5594   17.7415 O   0  0  0  0  0  0  0  0  0  0  0  0
   10.6180  -17.2643   24.0870 C   0  0  0  0  0  0  0  0  0  0  0  0
   12.0092  -16.8219   23.7762 C   0  0  2  0  0  0  0  0  0  0  0  0
   12.3028  -16.8739   22.3386 N   0  0  0  0  0  0  0  0  0  0  0  0
   13.0506  -17.5575   24.5414 C   0  0  0  0  0  0  0  0  0  0  0  0
   13.8423  -18.3407   23.9577 O   0  0  0  0  0  0  0  0  0  0  0  0
   13.1915  -17.4139   25.9108 O   0  0  0  0  0  0  0  0  0  0  0  0
  2  1  1  1
  2  3  1  0
  4  5  1  0
  4  2  1  0
  5  7  1  0
  5  6  1  6
  7  8  2  0
  7  9  1  0
  9 10  1  0
 10 11  1  1
 10 14  1  0
 12 16  1  0
 12 11  1  0
 13 12  2  0
 14 15  2  0
 18 17  1  6
 19 14  1  0
 19 18  1  0
 20 18  1  0
 20 22  1  0
 21 20  2  0
M  END
$$$$
