LDA.pdb
     RDKit          3D

 22 21  0  0  1  0  0  0  0  0999 V2000
    5.5118  -12.4742   26.3194 C   0  0  0  0  0  0  0  0  0  0  0  0
    6.8064  -13.0972   25.8215 C   0  0  2  0  0  0  0  0  0  0  0  0
    7.8684  -12.0172   25.7550 C   0  0  0  0  0  0  0  0  0  0  0  0
    6.5914  -13.7232   24.4781 C   0  0  0  0  0  0  0  0  0  0  0  0
    6.4921  -15.2178   24.5391 C   0  0  2  0  0  0  0  0  0  0  0  0
    5.4542  -15.7038   25.3841 N   0  0  0  0  0  0  0  0  0  0  0  0
    7.8157  -15.8255   24.8443 C   0  0  0  0  0  0  0  0  0  0  0  0
    7.9357  -16.4441   25.9192 O   0  0  0  0  0  0  0  0  0  0  0  0
    8.9332  -15.7474   24.0030 N   0  0  0  0  0  0  0  0  0  0  0  0
   10.1983  -16.3760   24.2705 C   0  0  1  0  0  0  0  0  0  0  0  0
   11.1634  -16.3336   23.1335 C   0  0  0  0  0  0  0  0  0  0  0  0
   12.3692  -17.1780   23.3233 C   0  0  0  0  0  0  0  0  0  0  0  0
   12.2905  -18.4083   23.1458 O   0  0  0  0  0  0  0  0  0  0  0  0
   10.8505  -15.8363   25.4844 C   0  0  0  0  0  0  0  0  0  0  0  0
   11.4157  -14.7130   25.5222 O   0  0  0  0  0  0  0  0  0  0  0  0
   13.5849  -16.6413   23.6934 O   0  0  0  0  0  0  0  0  0  0  0  0
   10.3560  -14.7885   28.2995 C   0  0  0  0  0  0  0  0  0  0  0  0
   11.2177  -15.9649   27.9807 C   0  0  2  0  0  0  0  0  0  0  0  0
   10.8689  -16.5789   26.6935 N   0  0  0  0  0  0  0  0  0  0  0  0
   11.2374  -16.9941   29.0536 C   0  0  0  0  0  0  0  0  0  0  0  0
   10.8740  -18.1743   28.8173 O   0  0  0  0  0  0  0  0  0  0  0  0
   11.6510  -16.7014   30.3417 O   0  0  0  0  0  0  0  0  0  0  0  0
  2  1  1  6
  2  3  1  0
  4  5  1  0
  4  2  1  0
  5  7  1  0
  5  6  1  1
  7  8  2  0
  7  9  1  0
  9 10  1  0
 10 11  1  6
 10 14  1  0
 12 16  1  0
 12 11  1  0
 13 12  2  0
 14 15  2  0
 18 17  1  1
 19 14  1  0
 19 18  1  0
 20 18  1  0
 20 22  1  0
 21 20  2  0
M  END
$$$$
