LDA.pdb
     RDKit          3D

 22 21  0  0  1  0  0  0  0  0999 V2000
    9.1996  -13.5990   19.1466 C   0  0  0  0  0  0  0  0  0  0  0  0
    7.8965  -13.5325   19.9273 C   0  0  2  0  0  0  0  0  0  0  0  0
    7.4863  -12.0790   20.0605 C   0  0  0  0  0  0  0  0  0  0  0  0
    8.0709  -14.1673   21.2724 C   0  0  0  0  0  0  0  0  0  0  0  0
    8.4443  -15.6169   21.1903 C   0  0  2  0  0  0  0  0  0  0  0  0
    7.4767  -16.4373   20.5437 N   0  0  0  0  0  0  0  0  0  0  0  0
    8.8421  -16.1388   22.5259 C   0  0  0  0  0  0  0  0  0  0  0  0
    7.9344  -16.4481   23.3214 O   0  0  0  0  0  0  0  0  0  0  0  0
   10.1683  -16.3044   22.9458 N   0  0  0  0  0  0  0  0  0  0  0  0
   10.5567  -16.8468   24.2195 C   0  0  1  0  0  0  0  0  0  0  0  0
   11.7665  -17.7189   24.1782 C   0  0  0  0  0  0  0  0  0  0  0  0
   12.0749  -18.3976   25.4616 C   0  0  0  0  0  0  0  0  0  0  0  0
   12.8314  -17.8441   26.2818 O   0  0  0  0  0  0  0  0  0  0  0  0
   10.7469  -15.7968   25.2449 C   0  0  0  0  0  0  0  0  0  0  0  0
   11.6863  -14.9608   25.2100 O   0  0  0  0  0  0  0  0  0  0  0  0
   11.5474  -19.6321   25.7793 O   0  0  0  0  0  0  0  0  0  0  0  0
    8.9599  -13.7011   27.4957 C   0  0  0  0  0  0  0  0  0  0  0  0
   10.0652  -14.7011   27.4169 C   0  0  2  0  0  0  0  0  0  0  0  0
    9.8558  -15.6802   26.3431 N   0  0  0  0  0  0  0  0  0  0  0  0
   10.3284  -15.3973   28.7042 C   0  0  0  0  0  0  0  0  0  0  0  0
   10.2110  -16.6458   28.7942 O   0  0  0  0  0  0  0  0  0  0  0  0
   10.7090  -14.7101   29.8439 O   0  0  0  0  0  0  0  0  0  0  0  0
  2  1  1  1
  2  3  1  0
  4  5  1  0
  4  2  1  0
  5  7  1  0
  5  6  1  1
  7  8  2  0
  7  9  1  0
  9 10  1  0
 10 11  1  6
 10 14  1  0
 12 16  1  0
 12 11  1  0
 13 12  2  0
 14 15  2  0
 18 17  1  1
 19 14  1  0
 19 18  1  0
 20 18  1  0
 20 22  1  0
 21 20  2  0
M  END
$$$$
