LDA.pdb
     RDKit          3D

 22 21  0  0  1  0  0  0  0  0999 V2000
    8.9667  -11.7856   18.9893 C   0  0  0  0  0  0  0  0  0  0  0  0
    8.2985  -13.1509   18.9509 C   0  0  2  0  0  0  0  0  0  0  0  0
    6.8138  -12.9561   18.7140 C   0  0  0  0  0  0  0  0  0  0  0  0
    8.5468  -13.8802   20.2351 C   0  0  0  0  0  0  0  0  0  0  0  0
   10.0023  -13.9738   20.5819 C   0  0  2  0  0  0  0  0  0  0  0  0
   10.8780  -13.9271   19.4601 N   0  0  0  0  0  0  0  0  0  0  0  0
   10.2627  -15.1408   21.4678 C   0  0  0  0  0  0  0  0  0  0  0  0
    9.2825  -15.6903   22.0059 O   0  0  0  0  0  0  0  0  0  0  0  0
   11.5359  -15.6603   21.7354 N   0  0  0  0  0  0  0  0  0  0  0  0
   11.7921  -16.7822   22.5974 C   0  0  1  0  0  0  0  0  0  0  0  0
   13.2257  -17.1876   22.6765 C   0  0  0  0  0  0  0  0  0  0  0  0
   13.4623  -18.4585   23.4058 C   0  0  0  0  0  0  0  0  0  0  0  0
   12.4983  -19.0646   23.9104 O   0  0  0  0  0  0  0  0  0  0  0  0
   11.2679  -16.5731   23.9655 C   0  0  0  0  0  0  0  0  0  0  0  0
   11.7892  -15.7785   24.7899 O   0  0  0  0  0  0  0  0  0  0  0  0
   14.7253  -18.9955   23.5452 O   0  0  0  0  0  0  0  0  0  0  0  0
    8.1249  -17.0418   25.8369 C   0  0  0  0  0  0  0  0  0  0  0  0
    9.6143  -17.1302   25.7925 C   0  0  2  0  0  0  0  0  0  0  0  0
   10.1236  -17.2763   24.4232 N   0  0  0  0  0  0  0  0  0  0  0  0
   10.1716  -18.1969   26.6657 C   0  0  0  0  0  0  0  0  0  0  0  0
    9.9133  -18.2191   27.8960 O   0  0  0  0  0  0  0  0  0  0  0  0
   10.9880  -19.1980   26.1687 O   0  0  0  0  0  0  0  0  0  0  0  0
  2  1  1  1
  2  3  1  0
  4  5  1  0
  4  2  1  0
  5  7  1  0
  5  6  1  6
  7  8  2  0
  7  9  1  0
  9 10  1  0
 10 11  1  1
 10 14  1  0
 12 16  1  0
 12 11  1  0
 13 12  2  0
 14 15  2  0
 18 17  1  6
 19 14  1  0
 19 18  1  0
 20 18  1  0
 20 22  1  0
 21 20  2  0
M  END
$$$$
