LDA.pdb
     RDKit          3D

 22 21  0  0  1  0  0  0  0  0999 V2000
    8.6818  -13.8499   19.3724 C   0  0  0  0  0  0  0  0  0  0  0  0
    7.6390  -13.4756   20.4138 C   0  0  2  0  0  0  0  0  0  0  0  0
    7.5708  -11.9640   20.5082 C   0  0  0  0  0  0  0  0  0  0  0  0
    7.9940  -14.0814   21.7365 C   0  0  0  0  0  0  0  0  0  0  0  0
    8.0351  -15.5795   21.7009 C   0  0  2  0  0  0  0  0  0  0  0  0
    6.7893  -16.1944   21.3887 N   0  0  0  0  0  0  0  0  0  0  0  0
    8.6510  -16.1231   22.9418 C   0  0  0  0  0  0  0  0  0  0  0  0
    7.8974  -16.3708   23.9026 O   0  0  0  0  0  0  0  0  0  0  0  0
   10.0203  -16.3738   23.0991 N   0  0  0  0  0  0  0  0  0  0  0  0
   10.6163  -16.9169   24.2895 C   0  0  1  0  0  0  0  0  0  0  0  0
   11.8884  -17.6620   24.0605 C   0  0  0  0  0  0  0  0  0  0  0  0
   12.4505  -18.3003   25.2769 C   0  0  0  0  0  0  0  0  0  0  0  0
   11.7284  -19.0415   25.9700 O   0  0  0  0  0  0  0  0  0  0  0  0
   10.8342  -15.8879   25.3307 C   0  0  0  0  0  0  0  0  0  0  0  0
   11.8214  -15.1080   25.3336 O   0  0  0  0  0  0  0  0  0  0  0  0
   13.7575  -18.0980   25.6693 O   0  0  0  0  0  0  0  0  0  0  0  0
    9.0369  -13.7700   27.6011 C   0  0  0  0  0  0  0  0  0  0  0  0
   10.1437  -14.7649   27.4858 C   0  0  2  0  0  0  0  0  0  0  0  0
    9.9167  -15.7281   26.4012 N   0  0  0  0  0  0  0  0  0  0  0  0
   10.4337  -15.4798   28.7570 C   0  0  0  0  0  0  0  0  0  0  0  0
   10.6886  -14.8402   29.8090 O   0  0  0  0  0  0  0  0  0  0  0  0
   10.4356  -16.8616   28.8360 O   0  0  0  0  0  0  0  0  0  0  0  0
  2  1  1  6
  2  3  1  0
  4  5  1  0
  4  2  1  0
  5  7  1  0
  5  6  1  1
  7  8  2  0
  7  9  1  0
  9 10  1  0
 10 11  1  6
 10 14  1  0
 12 16  1  0
 12 11  1  0
 13 12  2  0
 14 15  2  0
 18 17  1  1
 19 14  1  0
 19 18  1  0
 20 18  1  0
 20 22  1  0
 21 20  2  0
M  END
$$$$
