QYN.pdb
     RDKit          3D

 30 30  0  0  1  0  0  0  0  0999 V2000
    8.8653  -16.8221   17.5273 N   0  0  0  0  0  0  0  0  0  0  0  0
    9.8356  -17.8363   17.4251 C   0  0  0  0  0  0  0  0  0  0  0  0
    9.7602  -18.6683   16.5024 O   0  0  0  0  0  0  0  0  0  0  0  0
   10.9248  -17.8973   18.4045 C   0  0  0  0  0  0  0  0  0  0  0  0
   10.9345  -16.8661   19.4703 C   0  0  0  0  0  0  0  0  0  0  0  0
   10.6162  -17.4037   20.8135 C   0  0  2  0  0  0  0  0  0  0  0  0
    9.4813  -18.2702   20.9217 N   0  0  0  0  0  0  0  0  0  0  0  0
   10.4136  -16.3115   21.8255 C   0  0  0  0  0  0  0  0  0  0  0  0
   11.3612  -15.6004   22.2582 O   0  0  0  0  0  0  0  0  0  0  0  0
    5.9725  -11.0192   27.3190 O   0  0  0  0  0  0  0  0  0  0  0  0
    6.3472  -11.9258   26.3295 C   0  0  0  0  0  0  0  0  0  0  0  0
    7.2226  -11.5351   25.3405 C   0  0  0  0  0  0  0  0  0  0  0  0
    7.6054  -12.4146   24.3542 C   0  0  0  0  0  0  0  0  0  0  0  0
    7.0722  -13.6974   24.4053 C   0  0  0  0  0  0  0  0  0  0  0  0
    7.4664  -14.6424   23.3560 C   0  0  0  0  0  0  0  0  0  0  0  0
    8.9573  -15.0037   23.4093 C   0  0  2  0  0  0  0  0  0  0  0  0
    9.1234  -16.0133   22.3601 N   0  0  0  0  0  0  0  0  0  0  0  0
    9.3726  -15.4994   24.7209 C   0  0  0  0  0  0  0  0  0  0  0  0
    9.3010  -14.7653   25.7434 O   0  0  0  0  0  0  0  0  0  0  0  0
    6.2003  -14.1092   25.3782 C   0  0  0  0  0  0  0  0  0  0  0  0
    5.8368  -13.2025   26.3528 C   0  0  0  0  0  0  0  0  0  0  0  0
   10.4680  -18.8375   28.4055 N   0  0  0  0  0  0  0  0  0  0  0  0
    9.1952  -18.9629   27.7619 C   0  0  0  0  0  0  0  0  0  0  0  0
    8.3408  -19.7279   28.2228 O   0  0  0  0  0  0  0  0  0  0  0  0
    8.9503  -18.1678   26.5632 C   0  0  0  0  0  0  0  0  0  0  0  0
   10.2017  -17.4132   26.1683 C   0  0  2  0  0  0  0  0  0  0  0  0
    9.8617  -16.8157   24.8557 N   0  0  0  0  0  0  0  0  0  0  0  0
   11.3587  -18.2902   25.8996 C   0  0  0  0  0  0  0  0  0  0  0  0
   11.3745  -19.3408   25.0014 O   0  0  0  0  0  0  0  0  0  0  0  0
   12.4661  -18.1114   26.5203 O   0  0  0  0  0  0  0  0  0  0  0  0
  2  1  1  0
  3  2  2  0
  4  2  1  0
  5  4  1  0
  6  7  1  6
  6  5  1  0
  8  6  1  0
  9  8  2  0
 10 11  1  0
 11 21  2  0
 11 12  1  0
 12 13  2  0
 13 14  1  0
 14 15  1  0
 16 15  1  1
 16 18  1  0
 16 17  1  0
 17  8  1  0
 18 19  2  0
 20 14  2  0
 21 20  1  0
 23 22  1  0
 24 23  2  0
 25 23  1  0
 26 25  1  6
 27 26  1  0
 27 18  1  0
 28 26  1  0
 29 28  1  0
 30 28  2  0
M  END
$$$$
