QYN.pdb
     RDKit          3D

 30 30  0  0  1  0  0  0  0  0999 V2000
    9.8286  -15.7589   16.6662 N   0  0  0  0  0  0  0  0  0  0  0  0
    9.6663  -17.1483   16.5122 C   0  0  0  0  0  0  0  0  0  0  0  0
    9.2589  -17.6030   15.4276 O   0  0  0  0  0  0  0  0  0  0  0  0
    9.9830  -18.0424   17.6301 C   0  0  0  0  0  0  0  0  0  0  0  0
   10.3803  -17.4091   18.9110 C   0  0  0  0  0  0  0  0  0  0  0  0
    9.8851  -18.1330   20.1049 C   0  0  2  0  0  0  0  0  0  0  0  0
    8.5558  -18.6622   20.0472 N   0  0  0  0  0  0  0  0  0  0  0  0
    9.9512  -17.2877   21.3456 C   0  0  0  0  0  0  0  0  0  0  0  0
   11.0075  -16.7079   21.7185 O   0  0  0  0  0  0  0  0  0  0  0  0
    7.5715  -12.3304   18.5846 O   0  0  0  0  0  0  0  0  0  0  0  0
    7.5902  -13.0812   19.7582 C   0  0  0  0  0  0  0  0  0  0  0  0
    8.3295  -12.6465   20.8360 C   0  0  0  0  0  0  0  0  0  0  0  0
    8.3616  -13.3728   22.0041 C   0  0  0  0  0  0  0  0  0  0  0  0
    7.6218  -14.5492   22.0409 C   0  0  0  0  0  0  0  0  0  0  0  0
    7.6532  -15.3364   23.2773 C   0  0  0  0  0  0  0  0  0  0  0  0
    8.8876  -16.2434   23.3748 C   0  0  2  0  0  0  0  0  0  0  0  0
    8.8102  -17.0904   22.1814 N   0  0  0  0  0  0  0  0  0  0  0  0
    8.9155  -17.0301   24.6073 C   0  0  0  0  0  0  0  0  0  0  0  0
    8.1023  -17.9760   24.7907 O   0  0  0  0  0  0  0  0  0  0  0  0
    6.8794  -15.0020   20.9825 C   0  0  0  0  0  0  0  0  0  0  0  0
    6.8686  -14.2498   19.8257 C   0  0  0  0  0  0  0  0  0  0  0  0
   12.0179  -19.5816   24.0138 N   0  0  0  0  0  0  0  0  0  0  0  0
   11.2578  -19.4428   25.2192 C   0  0  0  0  0  0  0  0  0  0  0  0
   10.3805  -20.2680   25.4967 O   0  0  0  0  0  0  0  0  0  0  0  0
   11.5533  -18.3106   26.0909 C   0  0  0  0  0  0  0  0  0  0  0  0
   10.2715  -17.7209   26.6392 C   0  0  2  0  0  0  0  0  0  0  0  0
    9.8611  -16.7354   25.6117 N   0  0  0  0  0  0  0  0  0  0  0  0
   10.4662  -16.9293   27.8702 C   0  0  0  0  0  0  0  0  0  0  0  0
   10.3951  -15.5513   27.9548 O   0  0  0  0  0  0  0  0  0  0  0  0
   10.7256  -17.5124   28.9821 O   0  0  0  0  0  0  0  0  0  0  0  0
  2  1  1  0
  3  2  2  0
  4  2  1  0
  5  4  1  0
  6  7  1  6
  6  5  1  0
  8  6  1  0
  9  8  2  0
 10 11  1  0
 11 21  2  0
 11 12  1  0
 12 13  2  0
 13 14  1  0
 14 15  1  0
 16 15  1  1
 16 18  1  0
 16 17  1  0
 17  8  1  0
 18 19  2  0
 20 14  2  0
 21 20  1  0
 23 22  1  0
 24 23  2  0
 25 23  1  0
 26 25  1  6
 27 26  1  0
 27 18  1  0
 28 26  1  0
 29 28  1  0
 30 28  2  0
M  END
$$$$
