QYN.pdb
     RDKit          3D

 30 30  0  0  1  0  0  0  0  0999 V2000
    9.4054  -13.9212   15.1036 N   0  0  0  0  0  0  0  0  0  0  0  0
    8.0660  -14.2552   15.3772 C   0  0  0  0  0  0  0  0  0  0  0  0
    7.2446  -14.3151   14.4439 O   0  0  0  0  0  0  0  0  0  0  0  0
    7.6563  -14.5320   16.7574 C   0  0  0  0  0  0  0  0  0  0  0  0
    8.7130  -14.4925   17.7972 C   0  0  0  0  0  0  0  0  0  0  0  0
    8.6873  -15.6605   18.7082 C   0  0  2  0  0  0  0  0  0  0  0  0
    7.4944  -16.4523   18.7269 N   0  0  0  0  0  0  0  0  0  0  0  0
    8.9598  -15.2710   20.1338 C   0  0  0  0  0  0  0  0  0  0  0  0
   10.0681  -14.8018   20.5110 O   0  0  0  0  0  0  0  0  0  0  0  0
    7.2042  -12.1608   28.0933 O   0  0  0  0  0  0  0  0  0  0  0  0
    7.1196  -12.7585   26.8375 C   0  0  0  0  0  0  0  0  0  0  0  0
    6.6156  -14.0350   26.7205 C   0  0  0  0  0  0  0  0  0  0  0  0
    6.5234  -14.6434   25.4900 C   0  0  0  0  0  0  0  0  0  0  0  0
    6.9580  -13.9161   24.3879 C   0  0  0  0  0  0  0  0  0  0  0  0
    6.8720  -14.5556   23.0714 C   0  0  0  0  0  0  0  0  0  0  0  0
    8.2407  -14.9917   22.5305 C   0  0  2  0  0  0  0  0  0  0  0  0
    7.9691  -15.4109   21.1527 N   0  0  0  0  0  0  0  0  0  0  0  0
    8.8470  -16.0615   23.3221 C   0  0  0  0  0  0  0  0  0  0  0  0
    8.4129  -17.2432   23.2544 O   0  0  0  0  0  0  0  0  0  0  0  0
    7.4629  -12.6459   24.4788 C   0  0  0  0  0  0  0  0  0  0  0  0
    7.5416  -12.0646   25.7278 C   0  0  0  0  0  0  0  0  0  0  0  0
   12.9307  -15.8833   22.4306 N   0  0  0  0  0  0  0  0  0  0  0  0
   12.4482  -16.9137   23.2996 C   0  0  0  0  0  0  0  0  0  0  0  0
   12.3292  -18.0709   22.8819 O   0  0  0  0  0  0  0  0  0  0  0  0
   12.1084  -16.5518   24.6717 C   0  0  0  0  0  0  0  0  0  0  0  0
   10.6450  -16.8292   24.9414 C   0  0  2  0  0  0  0  0  0  0  0  0
    9.9332  -15.7787   24.1765 N   0  0  0  0  0  0  0  0  0  0  0  0
   10.2527  -16.6087   26.3476 C   0  0  0  0  0  0  0  0  0  0  0  0
    9.8640  -15.3976   26.8891 O   0  0  0  0  0  0  0  0  0  0  0  0
   10.2538  -17.5823   27.1817 O   0  0  0  0  0  0  0  0  0  0  0  0
  2  1  1  0
  3  2  2  0
  4  2  1  0
  5  4  1  0
  6  7  1  1
  6  5  1  0
  8  6  1  0
  9  8  2  0
 10 11  1  0
 11 21  2  0
 11 12  1  0
 12 13  2  0
 13 14  1  0
 14 15  1  0
 16 15  1  1
 16 18  1  0
 16 17  1  0
 17  8  1  0
 18 19  2  0
 20 14  2  0
 21 20  1  0
 23 22  1  0
 24 23  2  0
 25 23  1  0
 26 25  1  1
 27 26  1  0
 27 18  1  0
 28 26  1  0
 29 28  1  0
 30 28  2  0
M  END
$$$$
