QYN.pdb
     RDKit          3D

 30 30  0  0  1  0  0  0  0  0999 V2000
   11.0885  -17.1576   15.8627 N   0  0  0  0  0  0  0  0  0  0  0  0
   11.7514  -17.1244   17.1036 C   0  0  0  0  0  0  0  0  0  0  0  0
   12.8275  -16.5078   17.2092 O   0  0  0  0  0  0  0  0  0  0  0  0
   11.1639  -17.8130   18.2569 C   0  0  0  0  0  0  0  0  0  0  0  0
   10.7577  -16.9742   19.4105 C   0  0  0  0  0  0  0  0  0  0  0  0
   10.2697  -17.7600   20.5677 C   0  0  2  0  0  0  0  0  0  0  0  0
    9.0646  -18.5125   20.3889 N   0  0  0  0  0  0  0  0  0  0  0  0
   10.0575  -16.9026   21.7834 C   0  0  0  0  0  0  0  0  0  0  0  0
   11.0094  -16.3580   22.4066 O   0  0  0  0  0  0  0  0  0  0  0  0
    8.1490  -12.3023   18.1595 O   0  0  0  0  0  0  0  0  0  0  0  0
    7.9572  -12.9452   19.3808 C   0  0  0  0  0  0  0  0  0  0  0  0
    7.2150  -14.1042   19.4340 C   0  0  0  0  0  0  0  0  0  0  0  0
    7.0137  -14.7546   20.6295 C   0  0  0  0  0  0  0  0  0  0  0  0
    7.5881  -14.1916   21.7634 C   0  0  0  0  0  0  0  0  0  0  0  0
    7.3752  -14.8709   23.0450 C   0  0  0  0  0  0  0  0  0  0  0  0
    8.5591  -15.7588   23.4525 C   0  0  2  0  0  0  0  0  0  0  0  0
    8.7529  -16.6527   22.3075 N   0  0  0  0  0  0  0  0  0  0  0  0
    8.3130  -16.4962   24.6912 C   0  0  0  0  0  0  0  0  0  0  0  0
    7.2427  -17.1409   24.8597 O   0  0  0  0  0  0  0  0  0  0  0  0
    8.3299  -13.0403   21.7358 C   0  0  0  0  0  0  0  0  0  0  0  0
    8.5129  -12.4129   20.5205 C   0  0  0  0  0  0  0  0  0  0  0  0
   10.4047  -19.9593   27.6595 N   0  0  0  0  0  0  0  0  0  0  0  0
   10.4811  -19.9312   26.2301 C   0  0  0  0  0  0  0  0  0  0  0  0
   10.9019  -20.9159   25.6128 O   0  0  0  0  0  0  0  0  0  0  0  0
   10.0511  -18.7179   25.5430 C   0  0  0  0  0  0  0  0  0  0  0  0
    9.5743  -17.6877   26.5443 C   0  0  2  0  0  0  0  0  0  0  0  0
    9.2798  -16.4933   25.7185 N   0  0  0  0  0  0  0  0  0  0  0  0
   10.6243  -17.2506   27.4857 C   0  0  0  0  0  0  0  0  0  0  0  0
   10.8580  -17.7976   28.7336 O   0  0  0  0  0  0  0  0  0  0  0  0
   11.4140  -16.2894   27.1758 O   0  0  0  0  0  0  0  0  0  0  0  0
  2  1  1  0
  3  2  2  0
  4  2  1  0
  5  4  1  0
  6  7  1  6
  6  5  1  0
  8  6  1  0
  9  8  2  0
 10 11  1  0
 11 21  2  0
 11 12  1  0
 12 13  2  0
 13 14  1  0
 14 15  1  0
 16 15  1  6
 16 18  1  0
 16 17  1  0
 17  8  1  0
 18 19  2  0
 20 14  2  0
 21 20  1  0
 23 22  1  0
 24 23  2  0
 25 23  1  0
 26 25  1  6
 27 26  1  0
 27 18  1  0
 28 26  1  0
 29 28  1  0
 30 28  2  0
M  END
$$$$
