QYN.pdb
     RDKit          3D

 30 30  0  0  1  0  0  0  0  0999 V2000
    9.7969  -20.6468   19.5747 N   0  0  0  0  0  0  0  0  0  0  0  0
   10.4047  -20.0060   18.4791 C   0  0  0  0  0  0  0  0  0  0  0  0
   10.4512  -20.5838   17.3776 O   0  0  0  0  0  0  0  0  0  0  0  0
   10.9717  -18.6646   18.6483 C   0  0  0  0  0  0  0  0  0  0  0  0
   10.8317  -18.0348   19.9835 C   0  0  0  0  0  0  0  0  0  0  0  0
    9.7168  -17.0625   20.0626 C   0  0  2  0  0  0  0  0  0  0  0  0
    9.5535  -16.1601   18.9628 N   0  0  0  0  0  0  0  0  0  0  0  0
    9.7948  -16.2131   21.2998 C   0  0  0  0  0  0  0  0  0  0  0  0
   10.8808  -15.9794   21.8973 O   0  0  0  0  0  0  0  0  0  0  0  0
    6.6948  -11.7283   28.2428 O   0  0  0  0  0  0  0  0  0  0  0  0
    6.8626  -12.3434   27.0038 C   0  0  0  0  0  0  0  0  0  0  0  0
    6.1949  -13.5157   26.7266 C   0  0  0  0  0  0  0  0  0  0  0  0
    6.3465  -14.1391   25.5095 C   0  0  0  0  0  0  0  0  0  0  0  0
    7.1946  -13.5355   24.5881 C   0  0  0  0  0  0  0  0  0  0  0  0
    7.3706  -14.1934   23.2898 C   0  0  0  0  0  0  0  0  0  0  0  0
    8.6864  -14.9779   23.1932 C   0  0  2  0  0  0  0  0  0  0  0  0
    8.6322  -15.6157   21.8749 N   0  0  0  0  0  0  0  0  0  0  0  0
    8.8434  -15.9539   24.2709 C   0  0  0  0  0  0  0  0  0  0  0  0
    8.0093  -16.8863   24.4271 O   0  0  0  0  0  0  0  0  0  0  0  0
    7.8693  -12.3703   24.8405 C   0  0  0  0  0  0  0  0  0  0  0  0
    7.6950  -11.7706   26.0710 C   0  0  0  0  0  0  0  0  0  0  0  0
   10.5982  -18.7147   24.3587 N   0  0  0  0  0  0  0  0  0  0  0  0
   11.7813  -18.2772   25.0359 C   0  0  0  0  0  0  0  0  0  0  0  0
   12.8743  -18.7867   24.7649 O   0  0  0  0  0  0  0  0  0  0  0  0
   11.6494  -17.2265   26.0397 C   0  0  0  0  0  0  0  0  0  0  0  0
   10.1937  -16.8544   26.2230 C   0  0  2  0  0  0  0  0  0  0  0  0
    9.9396  -15.8605   25.1539 N   0  0  0  0  0  0  0  0  0  0  0  0
    9.9233  -16.1353   27.4838 C   0  0  0  0  0  0  0  0  0  0  0  0
    9.6392  -16.7302   28.6988 O   0  0  0  0  0  0  0  0  0  0  0  0
    9.9388  -14.8538   27.5158 O   0  0  0  0  0  0  0  0  0  0  0  0
  2  1  1  0
  3  2  2  0
  4  2  1  0
  5  4  1  0
  6  7  1  6
  6  5  1  0
  8  6  1  0
  9  8  2  0
 10 11  1  0
 11 21  2  0
 11 12  1  0
 12 13  2  0
 13 14  1  0
 14 15  1  0
 16 15  1  1
 16 18  1  0
 16 17  1  0
 17  8  1  0
 18 19  2  0
 20 14  2  0
 21 20  1  0
 23 22  1  0
 24 23  2  0
 25 23  1  0
 26 25  1  1
 27 26  1  0
 27 18  1  0
 28 26  1  0
 29 28  1  0
 30 28  2  0
M  END
$$$$
