QYN.pdb
     RDKit          3D

 30 30  0  0  1  0  0  0  0  0999 V2000
    8.0474  -12.7584   16.6472 N   0  0  0  0  0  0  0  0  0  0  0  0
    7.8785  -14.1021   16.2649 C   0  0  0  0  0  0  0  0  0  0  0  0
    7.2536  -14.3706   15.2225 O   0  0  0  0  0  0  0  0  0  0  0  0
    8.4442  -15.1682   17.0973 C   0  0  0  0  0  0  0  0  0  0  0  0
    9.1394  -14.7579   18.3414 C   0  0  0  0  0  0  0  0  0  0  0  0
    9.2909  -15.8578   19.3221 C   0  0  2  0  0  0  0  0  0  0  0  0
    8.3075  -16.8984   19.2985 N   0  0  0  0  0  0  0  0  0  0  0  0
    9.3379  -15.3513   20.7361 C   0  0  0  0  0  0  0  0  0  0  0  0
   10.3158  -14.6987   21.1930 O   0  0  0  0  0  0  0  0  0  0  0  0
    6.9293  -12.3032   28.4997 O   0  0  0  0  0  0  0  0  0  0  0  0
    6.9993  -12.7772   27.1913 C   0  0  0  0  0  0  0  0  0  0  0  0
    6.3029  -13.9115   26.8370 C   0  0  0  0  0  0  0  0  0  0  0  0
    6.3584  -14.3963   25.5507 C   0  0  0  0  0  0  0  0  0  0  0  0
    7.1408  -13.6945   24.6407 C   0  0  0  0  0  0  0  0  0  0  0  0
    7.2143  -14.2046   23.2683 C   0  0  0  0  0  0  0  0  0  0  0  0
    8.3785  -15.1826   23.0579 C   0  0  2  0  0  0  0  0  0  0  0  0
    8.2670  -15.5820   21.6523 N   0  0  0  0  0  0  0  0  0  0  0  0
    8.3233  -16.3305   23.9623 C   0  0  0  0  0  0  0  0  0  0  0  0
    7.6045  -17.3315   23.6957 O   0  0  0  0  0  0  0  0  0  0  0  0
    7.8423  -12.5647   24.9691 C   0  0  0  0  0  0  0  0  0  0  0  0
    7.7650  -12.1049   26.2679 C   0  0  0  0  0  0  0  0  0  0  0  0
   12.9365  -18.8810   24.1493 N   0  0  0  0  0  0  0  0  0  0  0  0
   11.5861  -18.9688   24.6168 C   0  0  0  0  0  0  0  0  0  0  0  0
   11.2097  -19.9686   25.2383 O   0  0  0  0  0  0  0  0  0  0  0  0
   10.6882  -17.8533   24.3364 C   0  0  0  0  0  0  0  0  0  0  0  0
    9.9058  -17.4834   25.5782 C   0  0  2  0  0  0  0  0  0  0  0  0
    9.0807  -16.3287   25.1524 N   0  0  0  0  0  0  0  0  0  0  0  0
   10.7492  -16.9656   26.6739 C   0  0  0  0  0  0  0  0  0  0  0  0
   11.6486  -15.9214   26.5660 O   0  0  0  0  0  0  0  0  0  0  0  0
   10.6863  -17.4877   27.8431 O   0  0  0  0  0  0  0  0  0  0  0  0
  2  1  1  0
  3  2  2  0
  4  2  1  0
  5  4  1  0
  6  7  1  1
  6  5  1  0
  8  6  1  0
  9  8  2  0
 10 11  1  0
 11 21  2  0
 11 12  1  0
 12 13  2  0
 13 14  1  0
 14 15  1  0
 16 15  1  1
 16 18  1  0
 16 17  1  0
 17  8  1  0
 18 19  2  0
 20 14  2  0
 21 20  1  0
 23 22  1  0
 24 23  2  0
 25 23  1  0
 26 25  1  6
 27 26  1  0
 27 18  1  0
 28 26  1  0
 29 28  1  0
 30 28  2  0
M  END
$$$$
