QYN.pdb
     RDKit          3D

 30 30  0  0  1  0  0  0  0  0999 V2000
    8.4437  -13.1444   15.7091 N   0  0  0  0  0  0  0  0  0  0  0  0
    8.0761  -14.5021   15.6666 C   0  0  0  0  0  0  0  0  0  0  0  0
    7.5172  -14.9561   14.6512 O   0  0  0  0  0  0  0  0  0  0  0  0
    8.3596  -15.3653   16.8172 C   0  0  0  0  0  0  0  0  0  0  0  0
    8.9162  -14.7159   18.0288 C   0  0  0  0  0  0  0  0  0  0  0  0
    9.2075  -15.6673   19.1264 C   0  0  2  0  0  0  0  0  0  0  0  0
    8.3173  -16.7774   19.2863 N   0  0  0  0  0  0  0  0  0  0  0  0
    9.2767  -14.9836   20.4628 C   0  0  0  0  0  0  0  0  0  0  0  0
   10.1595  -14.1280   20.7445 O   0  0  0  0  0  0  0  0  0  0  0  0
    6.6422  -11.7464   28.1498 O   0  0  0  0  0  0  0  0  0  0  0  0
    6.7352  -12.4004   26.9230 C   0  0  0  0  0  0  0  0  0  0  0  0
    7.2605  -11.7401   25.8344 C   0  0  0  0  0  0  0  0  0  0  0  0
    7.3613  -12.3675   24.6142 C   0  0  0  0  0  0  0  0  0  0  0  0
    6.9130  -13.6812   24.5366 C   0  0  0  0  0  0  0  0  0  0  0  0
    7.0081  -14.3590   23.2402 C   0  0  0  0  0  0  0  0  0  0  0  0
    8.4575  -14.6371   22.8183 C   0  0  2  0  0  0  0  0  0  0  0  0
    8.3371  -15.2665   21.5003 N   0  0  0  0  0  0  0  0  0  0  0  0
    9.1708  -15.4869   23.7711 C   0  0  0  0  0  0  0  0  0  0  0  0
    9.2719  -15.1573   24.9838 O   0  0  0  0  0  0  0  0  0  0  0  0
    6.3869  -14.3586   25.6047 C   0  0  0  0  0  0  0  0  0  0  0  0
    6.3001  -13.7004   26.8143 C   0  0  0  0  0  0  0  0  0  0  0  0
   10.3258  -21.0839   24.9800 N   0  0  0  0  0  0  0  0  0  0  0  0
   10.9968  -20.0075   24.3160 C   0  0  0  0  0  0  0  0  0  0  0  0
   12.2316  -19.9534   24.3162 O   0  0  0  0  0  0  0  0  0  0  0  0
   10.1819  -18.9958   23.6517 C   0  0  0  0  0  0  0  0  0  0  0  0
   10.4316  -17.6343   24.2644 C   0  0  2  0  0  0  0  0  0  0  0  0
    9.7577  -16.6944   23.3383 N   0  0  0  0  0  0  0  0  0  0  0  0
   11.8522  -17.2323   24.2485 C   0  0  0  0  0  0  0  0  0  0  0  0
   12.7368  -17.3785   25.3006 O   0  0  0  0  0  0  0  0  0  0  0  0
   12.3633  -16.6979   23.2012 O   0  0  0  0  0  0  0  0  0  0  0  0
  2  1  1  0
  3  2  2  0
  4  2  1  0
  5  4  1  0
  6  7  1  1
  6  5  1  0
  8  6  1  0
  9  8  2  0
 10 11  1  0
 11 21  2  0
 11 12  1  0
 12 13  2  0
 13 14  1  0
 14 15  1  0
 16 15  1  1
 16 18  1  0
 16 17  1  0
 17  8  1  0
 18 19  2  0
 20 14  2  0
 21 20  1  0
 23 22  1  0
 24 23  2  0
 25 23  1  0
 26 25  1  6
 27 26  1  0
 27 18  1  0
 28 26  1  0
 29 28  1  0
 30 28  2  0
M  END
$$$$
