QYN.pdb
     RDKit          3D

 30 30  0  0  1  0  0  0  0  0999 V2000
    7.2433  -13.1994   15.9335 N   0  0  0  0  0  0  0  0  0  0  0  0
    8.2206  -14.2113   15.8961 C   0  0  0  0  0  0  0  0  0  0  0  0
    9.1787  -14.1114   15.1079 O   0  0  0  0  0  0  0  0  0  0  0  0
    8.0995  -15.3680   16.7887 C   0  0  0  0  0  0  0  0  0  0  0  0
    7.7992  -15.0932   18.2148 C   0  0  0  0  0  0  0  0  0  0  0  0
    8.5743  -15.9373   19.1536 C   0  0  2  0  0  0  0  0  0  0  0  0
    8.0115  -17.2032   19.5158 N   0  0  0  0  0  0  0  0  0  0  0  0
    8.8729  -15.2222   20.4411 C   0  0  0  0  0  0  0  0  0  0  0  0
    9.7705  -14.3415   20.5380 O   0  0  0  0  0  0  0  0  0  0  0  0
    7.0545  -11.6686   28.2431 O   0  0  0  0  0  0  0  0  0  0  0  0
    7.0389  -12.3877   27.0498 C   0  0  0  0  0  0  0  0  0  0  0  0
    7.3527  -11.7558   25.8668 C   0  0  0  0  0  0  0  0  0  0  0  0
    7.3433  -12.4474   24.6775 C   0  0  0  0  0  0  0  0  0  0  0  0
    7.0062  -13.7951   24.7292 C   0  0  0  0  0  0  0  0  0  0  0  0
    6.9853  -14.5420   23.4679 C   0  0  0  0  0  0  0  0  0  0  0  0
    8.3830  -14.7235   22.8600 C   0  0  2  0  0  0  0  0  0  0  0  0
    8.1496  -15.5018   21.6403 N   0  0  0  0  0  0  0  0  0  0  0  0
    9.3131  -15.3914   23.7696 C   0  0  0  0  0  0  0  0  0  0  0  0
    9.5126  -14.9479   24.9328 O   0  0  0  0  0  0  0  0  0  0  0  0
    6.6903  -14.4453   25.8928 C   0  0  0  0  0  0  0  0  0  0  0  0
    6.7094  -13.7227   27.0682 C   0  0  0  0  0  0  0  0  0  0  0  0
    8.5399  -19.9680   24.0214 N   0  0  0  0  0  0  0  0  0  0  0  0
    9.5458  -19.2081   24.7000 C   0  0  0  0  0  0  0  0  0  0  0  0
    9.4330  -18.9704   25.9077 O   0  0  0  0  0  0  0  0  0  0  0  0
   10.6877  -18.7337   23.9254 C   0  0  0  0  0  0  0  0  0  0  0  0
   10.9549  -17.2738   24.2232 C   0  0  2  0  0  0  0  0  0  0  0  0
   10.0020  -16.5489   23.3504 N   0  0  0  0  0  0  0  0  0  0  0  0
   12.2908  -16.8187   23.7896 C   0  0  0  0  0  0  0  0  0  0  0  0
   12.7067  -16.6949   22.4771 O   0  0  0  0  0  0  0  0  0  0  0  0
   13.1800  -16.4990   24.6561 O   0  0  0  0  0  0  0  0  0  0  0  0
  2  1  1  0
  3  2  2  0
  4  2  1  0
  5  4  1  0
  6  7  1  1
  6  5  1  0
  8  6  1  0
  9  8  2  0
 10 11  1  0
 11 21  2  0
 11 12  1  0
 12 13  2  0
 13 14  1  0
 14 15  1  0
 16 15  1  1
 16 18  1  0
 16 17  1  0
 17  8  1  0
 18 19  2  0
 20 14  2  0
 21 20  1  0
 23 22  1  0
 24 23  2  0
 25 23  1  0
 26 25  1  6
 27 26  1  0
 27 18  1  0
 28 26  1  0
 29 28  1  0
 30 28  2  0
M  END
$$$$
