QYN.pdb
     RDKit          3D

 30 30  0  0  1  0  0  0  0  0999 V2000
    8.1430  -12.9597   17.1177 N   0  0  0  0  0  0  0  0  0  0  0  0
    7.9836  -14.1089   16.3213 C   0  0  0  0  0  0  0  0  0  0  0  0
    7.1864  -14.0886   15.3656 O   0  0  0  0  0  0  0  0  0  0  0  0
    8.7615  -15.3139   16.6252 C   0  0  0  0  0  0  0  0  0  0  0  0
    9.6931  -15.2447   17.7770 C   0  0  0  0  0  0  0  0  0  0  0  0
    9.3062  -16.1278   18.9018 C   0  0  2  0  0  0  0  0  0  0  0  0
    8.0224  -16.7579   18.8300 N   0  0  0  0  0  0  0  0  0  0  0  0
    9.3542  -15.4133   20.2230 C   0  0  0  0  0  0  0  0  0  0  0  0
   10.3376  -14.7088   20.5802 O   0  0  0  0  0  0  0  0  0  0  0  0
    6.9571  -12.3697   28.0811 O   0  0  0  0  0  0  0  0  0  0  0  0
    7.0110  -12.8310   26.7674 C   0  0  0  0  0  0  0  0  0  0  0  0
    6.3376  -13.9806   26.4184 C   0  0  0  0  0  0  0  0  0  0  0  0
    6.3777  -14.4533   25.1270 C   0  0  0  0  0  0  0  0  0  0  0  0
    7.1208  -13.7233   24.2064 C   0  0  0  0  0  0  0  0  0  0  0  0
    7.1778  -14.2200   22.8283 C   0  0  0  0  0  0  0  0  0  0  0  0
    8.4464  -15.0348   22.5407 C   0  0  2  0  0  0  0  0  0  0  0  0
    8.2782  -15.4919   21.1586 N   0  0  0  0  0  0  0  0  0  0  0  0
    8.6260  -16.1488   23.4710 C   0  0  0  0  0  0  0  0  0  0  0  0
    7.8592  -17.1492   23.4396 O   0  0  0  0  0  0  0  0  0  0  0  0
    7.7988  -12.5776   24.5293 C   0  0  0  0  0  0  0  0  0  0  0  0
    7.7378  -12.1307   25.8334 C   0  0  0  0  0  0  0  0  0  0  0  0
   13.3198  -18.7653   25.6518 N   0  0  0  0  0  0  0  0  0  0  0  0
   11.9528  -18.8770   25.2409 C   0  0  0  0  0  0  0  0  0  0  0  0
   11.3091  -19.8992   25.5022 O   0  0  0  0  0  0  0  0  0  0  0  0
   11.3602  -17.7586   24.5150 C   0  0  0  0  0  0  0  0  0  0  0  0
   10.0857  -17.3066   25.1953 C   0  0  2  0  0  0  0  0  0  0  0  0
    9.6684  -16.1144   24.4208 N   0  0  0  0  0  0  0  0  0  0  0  0
   10.2949  -16.8133   26.5710 C   0  0  0  0  0  0  0  0  0  0  0  0
   10.2914  -17.5958   27.7106 O   0  0  0  0  0  0  0  0  0  0  0  0
   10.5007  -15.5668   26.7889 O   0  0  0  0  0  0  0  0  0  0  0  0
  2  1  1  0
  3  2  2  0
  4  2  1  0
  5  4  1  0
  6  7  1  6
  6  5  1  0
  8  6  1  0
  9  8  2  0
 10 11  1  0
 11 21  2  0
 11 12  1  0
 12 13  2  0
 13 14  1  0
 14 15  1  0
 16 15  1  1
 16 18  1  0
 16 17  1  0
 17  8  1  0
 18 19  2  0
 20 14  2  0
 21 20  1  0
 23 22  1  0
 24 23  2  0
 25 23  1  0
 26 25  1  6
 27 26  1  0
 27 18  1  0
 28 26  1  0
 29 28  1  0
 30 28  2  0
M  END
$$$$
