QYN.pdb
     RDKit          3D

 30 30  0  0  1  0  0  0  0  0999 V2000
    7.6836  -18.2044   16.3941 N   0  0  0  0  0  0  0  0  0  0  0  0
    7.3514  -18.7004   17.6685 C   0  0  0  0  0  0  0  0  0  0  0  0
    6.1570  -18.7549   18.0146 O   0  0  0  0  0  0  0  0  0  0  0  0
    8.4161  -19.1501   18.5705 C   0  0  0  0  0  0  0  0  0  0  0  0
    8.5635  -18.4264   19.8565 C   0  0  0  0  0  0  0  0  0  0  0  0
    9.0792  -17.0464   19.7006 C   0  0  2  0  0  0  0  0  0  0  0  0
   10.2801  -16.8766   18.9394 N   0  0  0  0  0  0  0  0  0  0  0  0
    9.3198  -16.3803   21.0259 C   0  0  0  0  0  0  0  0  0  0  0  0
   10.3949  -16.5173   21.6712 O   0  0  0  0  0  0  0  0  0  0  0  0
    7.2087  -11.9328   28.3548 O   0  0  0  0  0  0  0  0  0  0  0  0
    7.2351  -12.4806   27.0739 C   0  0  0  0  0  0  0  0  0  0  0  0
    8.3959  -12.4333   26.3340 C   0  0  0  0  0  0  0  0  0  0  0  0
    8.4433  -12.9683   25.0674 C   0  0  0  0  0  0  0  0  0  0  0  0
    7.2787  -13.5500   24.5796 C   0  0  0  0  0  0  0  0  0  0  0  0
    7.3137  -14.1175   23.2283 C   0  0  0  0  0  0  0  0  0  0  0  0
    8.5008  -15.0661   23.0113 C   0  0  2  0  0  0  0  0  0  0  0  0
    8.3351  -15.5454   21.6363 N   0  0  0  0  0  0  0  0  0  0  0  0
    8.5315  -16.1638   23.9770 C   0  0  0  0  0  0  0  0  0  0  0  0
    7.6228  -17.0376   23.9937 O   0  0  0  0  0  0  0  0  0  0  0  0
    6.1127  -13.6091   25.2961 C   0  0  0  0  0  0  0  0  0  0  0  0
    6.0989  -13.0632   26.5634 C   0  0  0  0  0  0  0  0  0  0  0  0
   10.7416  -19.3454   23.0422 N   0  0  0  0  0  0  0  0  0  0  0  0
   10.1007  -19.1775   24.3115 C   0  0  0  0  0  0  0  0  0  0  0  0
    9.0475  -19.7756   24.5574 O   0  0  0  0  0  0  0  0  0  0  0  0
   10.7271  -18.2894   25.2851 C   0  0  0  0  0  0  0  0  0  0  0  0
    9.6958  -17.3607   25.8892 C   0  0  2  0  0  0  0  0  0  0  0  0
    9.5878  -16.2563   24.9074 N   0  0  0  0  0  0  0  0  0  0  0  0
   10.1436  -16.7162   27.1399 C   0  0  0  0  0  0  0  0  0  0  0  0
   10.8311  -15.5198   27.2215 O   0  0  0  0  0  0  0  0  0  0  0  0
    9.9045  -17.2646   28.2738 O   0  0  0  0  0  0  0  0  0  0  0  0
  2  1  1  0
  3  2  2  0
  4  2  1  0
  5  4  1  0
  6  7  1  1
  6  5  1  0
  8  6  1  0
  9  8  2  0
 10 11  1  0
 11 21  2  0
 11 12  1  0
 12 13  2  0
 13 14  1  0
 14 15  1  0
 16 15  1  1
 16 18  1  0
 16 17  1  0
 17  8  1  0
 18 19  2  0
 20 14  2  0
 21 20  1  0
 23 22  1  0
 24 23  2  0
 25 23  1  0
 26 25  1  6
 27 26  1  0
 27 18  1  0
 28 26  1  0
 29 28  1  0
 30 28  2  0
M  END
$$$$
