QYN.pdb
     RDKit          3D

 30 30  0  0  1  0  0  0  0  0999 V2000
   14.3697  -19.8092   16.3242 N   0  0  0  0  0  0  0  0  0  0  0  0
   13.9699  -19.1005   15.1760 C   0  0  0  0  0  0  0  0  0  0  0  0
   14.0859  -19.6300   14.0555 O   0  0  0  0  0  0  0  0  0  0  0  0
   13.4184  -17.7492   15.3148 C   0  0  0  0  0  0  0  0  0  0  0  0
   11.9490  -17.6321   15.4782 C   0  0  0  0  0  0  0  0  0  0  0  0
   11.4680  -16.2310   15.4977 C   0  0  2  0  0  0  0  0  0  0  0  0
   11.7307  -15.4307   14.3398 N   0  0  0  0  0  0  0  0  0  0  0  0
   12.0066  -15.4653   16.6732 C   0  0  0  0  0  0  0  0  0  0  0  0
   12.9499  -14.6345   16.5697 O   0  0  0  0  0  0  0  0  0  0  0  0
    6.1175  -12.6310   18.1924 O   0  0  0  0  0  0  0  0  0  0  0  0
    7.2983  -13.1900   18.6769 C   0  0  0  0  0  0  0  0  0  0  0  0
    7.4235  -14.5592   18.7581 C   0  0  0  0  0  0  0  0  0  0  0  0
    8.5808  -15.1315   19.2334 C   0  0  0  0  0  0  0  0  0  0  0  0
    9.6015  -14.2714   19.6218 C   0  0  0  0  0  0  0  0  0  0  0  0
   10.8375  -14.8682   20.1371 C   0  0  0  0  0  0  0  0  0  0  0  0
   11.9812  -14.8462   19.1136 C   0  0  2  0  0  0  0  0  0  0  0  0
   11.4754  -15.6362   17.9877 N   0  0  0  0  0  0  0  0  0  0  0  0
   13.2298  -15.3875   19.6490 C   0  0  0  0  0  0  0  0  0  0  0  0
   13.4468  -16.6294   19.6570 O   0  0  0  0  0  0  0  0  0  0  0  0
    9.5007  -12.9071   19.5507 C   0  0  0  0  0  0  0  0  0  0  0  0
    8.3265  -12.3653   19.0691 C   0  0  0  0  0  0  0  0  0  0  0  0
   18.3265  -13.3524   21.8195 N   0  0  0  0  0  0  0  0  0  0  0  0
   17.8257  -14.0945   20.7022 C   0  0  0  0  0  0  0  0  0  0  0  0
   18.5390  -14.9395   20.1501 O   0  0  0  0  0  0  0  0  0  0  0  0
   16.4663  -13.8197   20.2488 C   0  0  0  0  0  0  0  0  0  0  0  0
   15.5563  -14.9829   20.5809 C   0  0  2  0  0  0  0  0  0  0  0  0
   14.2122  -14.5172   20.1662 N   0  0  0  0  0  0  0  0  0  0  0  0
   15.4389  -15.2446   22.0292 C   0  0  0  0  0  0  0  0  0  0  0  0
   14.3217  -14.9854   22.8009 O   0  0  0  0  0  0  0  0  0  0  0  0
   16.4210  -15.7524   22.6782 O   0  0  0  0  0  0  0  0  0  0  0  0
  2  1  1  0
  3  2  2  0
  4  2  1  0
  5  4  1  0
  6  7  1  6
  6  5  1  0
  8  6  1  0
  9  8  2  0
 10 11  1  0
 11 21  2  0
 11 12  1  0
 12 13  2  0
 13 14  1  0
 14 15  1  0
 16 15  1  1
 16 18  1  0
 16 17  1  0
 17  8  1  0
 18 19  2  0
 20 14  2  0
 21 20  1  0
 23 22  1  0
 24 23  2  0
 25 23  1  0
 26 25  1  1
 27 26  1  0
 27 18  1  0
 28 26  1  0
 29 28  1  0
 30 28  2  0
M  END
$$$$
