QYN.pdb
     RDKit          3D

 30 30  0  0  1  0  0  0  0  0999 V2000
    7.6344  -11.9827   18.4216 N   0  0  0  0  0  0  0  0  0  0  0  0
    7.9804  -13.3465   18.3938 C   0  0  0  0  0  0  0  0  0  0  0  0
    8.3814  -13.8574   17.3319 O   0  0  0  0  0  0  0  0  0  0  0  0
    7.8679  -14.1469   19.6170 C   0  0  0  0  0  0  0  0  0  0  0  0
    9.1293  -14.6418   20.2197 C   0  0  0  0  0  0  0  0  0  0  0  0
    8.9602  -15.8907   20.9983 C   0  0  2  0  0  0  0  0  0  0  0  0
    7.6534  -16.4756   21.0252 N   0  0  0  0  0  0  0  0  0  0  0  0
    9.3794  -15.7239   22.4317 C   0  0  0  0  0  0  0  0  0  0  0  0
   10.3878  -15.0466   22.7713 O   0  0  0  0  0  0  0  0  0  0  0  0
    6.4352  -10.4959   26.2313 O   0  0  0  0  0  0  0  0  0  0  0  0
    6.7513  -11.8447   26.0819 C   0  0  0  0  0  0  0  0  0  0  0  0
    7.7337  -12.4076   26.8662 C   0  0  0  0  0  0  0  0  0  0  0  0
    8.0611  -13.7374   26.7347 C   0  0  0  0  0  0  0  0  0  0  0  0
    7.3614  -14.4728   25.7849 C   0  0  0  0  0  0  0  0  0  0  0  0
    7.7055  -15.8894   25.6296 C   0  0  0  0  0  0  0  0  0  0  0  0
    9.0377  -16.1018   24.8974 C   0  0  2  0  0  0  0  0  0  0  0  0
    8.6522  -16.3283   23.5018 N   0  0  0  0  0  0  0  0  0  0  0  0
    9.8113  -17.2167   25.4427 C   0  0  0  0  0  0  0  0  0  0  0  0
    9.8690  -17.4184   26.6859 O   0  0  0  0  0  0  0  0  0  0  0  0
    6.3808  -13.9356   24.9934 C   0  0  0  0  0  0  0  0  0  0  0  0
    6.0766  -12.5989   25.1507 C   0  0  0  0  0  0  0  0  0  0  0  0
    8.8736  -20.9747   24.2741 N   0  0  0  0  0  0  0  0  0  0  0  0
    9.8451  -20.3489   23.4290 C   0  0  0  0  0  0  0  0  0  0  0  0
    9.5149  -19.9194   22.3181 O   0  0  0  0  0  0  0  0  0  0  0  0
   11.2147  -20.2399   23.9205 C   0  0  0  0  0  0  0  0  0  0  0  0
   11.2864  -19.2471   25.0609 C   0  0  2  0  0  0  0  0  0  0  0  0
   10.5065  -18.0848   24.5750 N   0  0  0  0  0  0  0  0  0  0  0  0
   12.6452  -18.7213   25.3000 C   0  0  0  0  0  0  0  0  0  0  0  0
   13.1855  -17.5990   24.7006 O   0  0  0  0  0  0  0  0  0  0  0  0
   13.4344  -19.3121   26.1196 O   0  0  0  0  0  0  0  0  0  0  0  0
  2  1  1  0
  3  2  2  0
  4  2  1  0
  5  4  1  0
  6  7  1  1
  6  5  1  0
  8  6  1  0
  9  8  2  0
 10 11  1  0
 11 21  2  0
 11 12  1  0
 12 13  2  0
 13 14  1  0
 14 15  1  0
 16 15  1  1
 16 18  1  0
 16 17  1  0
 17  8  1  0
 18 19  2  0
 20 14  2  0
 21 20  1  0
 23 22  1  0
 24 23  2  0
 25 23  1  0
 26 25  1  6
 27 26  1  0
 27 18  1  0
 28 26  1  0
 29 28  1  0
 30 28  2  0
M  END
$$$$
