CND.pdb
     RDKit          3D

 23 22  0  0  1  0  0  0  0  0999 V2000
   16.7595  -11.5073  -15.6193 N   0  0  0  0  0  0  0  0  0  0  0  0
   17.3992  -10.4141  -16.3260 C   0  0  1  0  0  0  0  0  0  0  0  0
   16.2905   -9.3937  -16.6098 C   0  0  0  0  0  0  0  0  0  0  0  0
   15.2251  -10.1137  -17.8965 S   0  0  0  0  0  0  0  0  0  0  0  0
   18.4040   -9.7370  -15.4653 C   0  0  0  0  0  0  0  0  0  0  0  0
   18.1308   -9.1675  -14.4026 O   0  0  0  0  0  0  0  0  0  0  0  0
   23.0586   -7.9910  -14.0194 N   0  0  0  0  0  0  0  0  0  0  0  0
   23.2849   -9.1361  -14.8287 C   0  0  0  0  0  0  0  0  0  0  0  0
   24.4555   -9.5671  -14.9116 O   0  0  0  0  0  0  0  0  0  0  0  0
   22.1248   -9.7367  -15.5143 C   0  0  0  0  0  0  0  0  0  0  0  0
   20.8147   -9.0525  -15.2129 C   0  0  2  0  0  0  0  0  0  0  0  0
   19.7633   -9.7429  -15.8872 N   0  0  0  0  0  0  0  0  0  0  0  0
   20.8750   -7.6134  -15.5130 C   0  0  0  0  0  0  0  0  0  0  0  0
   20.7231   -7.2533  -16.7089 O   0  0  0  0  0  0  0  0  0  0  0  0
   21.0916   -6.5946  -14.5591 N   0  0  0  0  0  0  0  0  0  0  0  0
   21.0813   -5.1949  -14.8164 C   0  0  1  0  0  0  0  0  0  0  0  0
   19.7775   -4.5117  -14.5779 C   0  0  0  0  0  0  0  0  0  0  0  0
   19.7980   -3.0709  -14.8806 C   0  0  0  0  0  0  0  0  0  0  0  0
   19.5783   -2.2754  -13.9274 O   0  0  0  0  0  0  0  0  0  0  0  0
   22.1087   -4.5285  -13.9620 C   0  0  0  0  0  0  0  0  0  0  0  0
   22.7675   -5.1728  -12.9308 O   0  0  0  0  0  0  0  0  0  0  0  0
   20.0376   -2.5229  -16.1198 O   0  0  0  0  0  0  0  0  0  0  0  0
   22.3979   -3.3238  -14.1802 O   0  0  0  0  0  0  0  0  0  0  0  0
  2  1  1  1
  2  3  1  0
  3  4  1  0
  5 12  1  0
  5  2  1  0
  6  5  2  0
  7  8  1  0
  8  9  2  0
  8 10  1  0
 11 10  1  6
 11 12  1  0
 11 13  1  0
 13 14  2  0
 15 13  1  0
 15 16  1  0
 16 17  1  1
 17 18  1  0
 18 22  1  0
 18 19  2  0
 20 21  1  0
 20 16  1  0
 23 20  2  0
M  END
$$$$
