CND.pdb
     RDKit          3D

 23 22  0  0  1  0  0  0  0  0999 V2000
   23.8800  -10.0034  -18.1835 N   0  0  0  0  0  0  0  0  0  0  0  0
   23.0354  -10.6269  -17.1828 C   0  0  1  0  0  0  0  0  0  0  0  0
   23.9893  -11.3260  -16.2069 C   0  0  0  0  0  0  0  0  0  0  0  0
   24.5537  -12.8522  -17.0203 S   0  0  0  0  0  0  0  0  0  0  0  0
   22.2874   -9.6058  -16.4039 C   0  0  0  0  0  0  0  0  0  0  0  0
   21.4822   -9.8763  -15.5055 O   0  0  0  0  0  0  0  0  0  0  0  0
   20.5131   -5.4420  -14.3513 N   0  0  0  0  0  0  0  0  0  0  0  0
   21.4743   -6.2740  -13.7177 C   0  0  0  0  0  0  0  0  0  0  0  0
   21.6245   -6.1523  -12.4826 O   0  0  0  0  0  0  0  0  0  0  0  0
   22.2277   -7.2228  -14.5597 C   0  0  0  0  0  0  0  0  0  0  0  0
   21.8796   -7.1493  -16.0256 C   0  0  2  0  0  0  0  0  0  0  0  0
   22.5090   -8.2332  -16.7080 N   0  0  0  0  0  0  0  0  0  0  0  0
   22.1896   -5.8260  -16.5890 C   0  0  0  0  0  0  0  0  0  0  0  0
   23.3913   -5.4535  -16.5930 O   0  0  0  0  0  0  0  0  0  0  0  0
   21.2393   -4.9324  -17.1302 N   0  0  0  0  0  0  0  0  0  0  0  0
   21.5295   -3.7086  -17.7962 C   0  0  1  0  0  0  0  0  0  0  0  0
   21.0422   -3.6159  -19.2023 C   0  0  0  0  0  0  0  0  0  0  0  0
   21.3596   -2.3362  -19.8578 C   0  0  0  0  0  0  0  0  0  0  0  0
   22.5451   -1.9168  -19.7665 O   0  0  0  0  0  0  0  0  0  0  0  0
   20.9303   -2.5756  -17.0300 C   0  0  0  0  0  0  0  0  0  0  0  0
   21.6205   -1.4140  -16.7351 O   0  0  0  0  0  0  0  0  0  0  0  0
   20.4667   -1.5615  -20.5619 O   0  0  0  0  0  0  0  0  0  0  0  0
   19.7421   -2.6696  -16.6280 O   0  0  0  0  0  0  0  0  0  0  0  0
  2  1  1  6
  2  3  1  0
  3  4  1  0
  5 12  1  0
  5  2  1  0
  6  5  2  0
  7  8  1  0
  8  9  2  0
  8 10  1  0
 11 10  1  1
 11 12  1  0
 11 13  1  0
 13 14  2  0
 15 13  1  0
 15 16  1  0
 16 17  1  6
 17 18  1  0
 18 22  1  0
 18 19  2  0
 20 21  1  0
 20 16  1  0
 23 20  2  0
M  END
$$$$
