CND.pdb
     RDKit          3D

 23 22  0  0  1  0  0  0  0  0999 V2000
   12.8061  -12.8020   -9.9345 N   0  0  0  0  0  0  0  0  0  0  0  0
   12.7053  -11.5058  -10.5775 C   0  0  1  0  0  0  0  0  0  0  0  0
   11.3088  -10.9751  -10.2321 C   0  0  0  0  0  0  0  0  0  0  0  0
   10.1378  -11.7944  -11.3577 S   0  0  0  0  0  0  0  0  0  0  0  0
   13.6882  -10.5484  -10.0064 C   0  0  0  0  0  0  0  0  0  0  0  0
   13.7563  -10.2632   -8.8054 O   0  0  0  0  0  0  0  0  0  0  0  0
   17.9242   -7.6175   -9.8436 N   0  0  0  0  0  0  0  0  0  0  0  0
   18.0294   -8.4501  -10.9896 C   0  0  0  0  0  0  0  0  0  0  0  0
   19.1265   -8.4789  -11.5884 O   0  0  0  0  0  0  0  0  0  0  0  0
   16.8387   -9.2219  -11.3935 C   0  0  0  0  0  0  0  0  0  0  0  0
   15.6557   -9.0471  -10.4739 C   0  0  2  0  0  0  0  0  0  0  0  0
   14.6077   -9.9205  -10.8930 N   0  0  0  0  0  0  0  0  0  0  0  0
   15.2542   -7.6353  -10.3723 C   0  0  0  0  0  0  0  0  0  0  0  0
   14.7863   -7.0798  -11.3997 O   0  0  0  0  0  0  0  0  0  0  0  0
   15.3523   -6.8465   -9.2049 N   0  0  0  0  0  0  0  0  0  0  0  0
   14.8950   -5.5063   -9.0628 C   0  0  1  0  0  0  0  0  0  0  0  0
   14.7949   -5.0113   -7.6598 C   0  0  0  0  0  0  0  0  0  0  0  0
   14.2452   -3.6500   -7.5481 C   0  0  0  0  0  0  0  0  0  0  0  0
   13.8346   -3.1022   -8.6068 O   0  0  0  0  0  0  0  0  0  0  0  0
   15.8115   -4.5907   -9.8054 C   0  0  0  0  0  0  0  0  0  0  0  0
   17.0058   -5.0072  -10.3646 O   0  0  0  0  0  0  0  0  0  0  0  0
   14.1436   -2.9278   -6.3813 O   0  0  0  0  0  0  0  0  0  0  0  0
   15.4936   -3.3805   -9.9357 O   0  0  0  0  0  0  0  0  0  0  0  0
  2  1  1  1
  2  3  1  0
  3  4  1  0
  5 12  1  0
  5  2  1  0
  6  5  2  0
  7  8  1  0
  8  9  2  0
  8 10  1  0
 11 10  1  6
 11 12  1  0
 11 13  1  0
 13 14  2  0
 15 13  1  0
 15 16  1  0
 16 17  1  1
 17 18  1  0
 18 22  1  0
 18 19  2  0
 20 21  1  0
 20 16  1  0
 23 20  2  0
M  END
$$$$
