CND.pdb
     RDKit          3D

 23 22  0  0  1  0  0  0  0  0999 V2000
   27.8584  -20.8818  -10.3142 N   0  0  0  0  0  0  0  0  0  0  0  0
   26.4630  -21.2653  -10.2157 C   0  0  1  0  0  0  0  0  0  0  0  0
   25.9182  -20.5466   -8.9756 C   0  0  0  0  0  0  0  0  0  0  0  0
   27.1278  -20.8029   -7.6413 S   0  0  0  0  0  0  0  0  0  0  0  0
   25.6887  -20.7675  -11.3825 C   0  0  0  0  0  0  0  0  0  0  0  0
   25.3966  -19.5795  -11.5610 O   0  0  0  0  0  0  0  0  0  0  0  0
   27.7947  -21.7228  -14.8843 N   0  0  0  0  0  0  0  0  0  0  0  0
   26.5625  -21.0180  -14.9342 C   0  0  0  0  0  0  0  0  0  0  0  0
   26.6058  -19.7852  -15.1370 O   0  0  0  0  0  0  0  0  0  0  0  0
   25.3188  -21.7884  -14.7434 C   0  0  0  0  0  0  0  0  0  0  0  0
   24.5226  -21.3738  -13.5310 C   0  0  2  0  0  0  0  0  0  0  0  0
   25.2560  -21.7127  -12.3547 N   0  0  0  0  0  0  0  0  0  0  0  0
   23.1587  -21.9246  -13.5660 C   0  0  0  0  0  0  0  0  0  0  0  0
   22.9038  -22.9153  -12.8335 O   0  0  0  0  0  0  0  0  0  0  0  0
   22.1035  -21.4271  -14.3620 N   0  0  0  0  0  0  0  0  0  0  0  0
   20.7399  -21.8274  -14.2849 C   0  0  1  0  0  0  0  0  0  0  0  0
   20.0571  -21.5221  -12.9950 C   0  0  0  0  0  0  0  0  0  0  0  0
   18.6536  -21.9647  -12.9467 C   0  0  0  0  0  0  0  0  0  0  0  0
   17.7628  -21.0803  -13.0647 O   0  0  0  0  0  0  0  0  0  0  0  0
   19.9683  -21.1643  -15.3778 C   0  0  0  0  0  0  0  0  0  0  0  0
   18.8932  -21.7593  -16.0123 O   0  0  0  0  0  0  0  0  0  0  0  0
   18.2362  -23.2656  -12.7833 O   0  0  0  0  0  0  0  0  0  0  0  0
   20.3019  -20.0094  -15.7484 O   0  0  0  0  0  0  0  0  0  0  0  0
  2  1  1  6
  2  3  1  0
  3  4  1  0
  5 12  1  0
  5  2  1  0
  6  5  2  0
  7  8  1  0
  8  9  2  0
  8 10  1  0
 11 10  1  6
 11 12  1  0
 11 13  1  0
 13 14  2  0
 15 13  1  0
 15 16  1  0
 16 17  1  1
 17 18  1  0
 18 22  1  0
 18 19  2  0
 20 21  1  0
 20 16  1  0
 23 20  2  0
M  END
$$$$
