CND.pdb
     RDKit          3D

 23 22  0  0  1  0  0  0  0  0999 V2000
   24.2263  -12.9026  -18.3889 N   0  0  0  0  0  0  0  0  0  0  0  0
   23.7449  -12.3126  -17.1545 C   0  0  1  0  0  0  0  0  0  0  0  0
   24.9814  -11.7316  -16.4585 C   0  0  0  0  0  0  0  0  0  0  0  0
   25.9503  -13.1406  -15.8377 S   0  0  0  0  0  0  0  0  0  0  0  0
   22.8257  -11.1772  -17.4281 C   0  0  0  0  0  0  0  0  0  0  0  0
   22.9257  -10.4286  -18.4069 O   0  0  0  0  0  0  0  0  0  0  0  0
   17.8574   -9.2466  -18.2091 N   0  0  0  0  0  0  0  0  0  0  0  0
   18.3583   -9.4749  -16.8997 C   0  0  0  0  0  0  0  0  0  0  0  0
   17.8599   -8.8133  -15.9633 O   0  0  0  0  0  0  0  0  0  0  0  0
   19.4303  -10.4752  -16.7355 C   0  0  0  0  0  0  0  0  0  0  0  0
   20.8135   -9.8801  -16.6458 C   0  0  2  0  0  0  0  0  0  0  0  0
   21.7656  -10.9345  -16.5100 N   0  0  0  0  0  0  0  0  0  0  0  0
   20.8952   -8.8596  -15.5892 C   0  0  0  0  0  0  0  0  0  0  0  0
   21.4036   -9.1911  -14.4870 O   0  0  0  0  0  0  0  0  0  0  0  0
   20.4454   -7.5265  -15.7129 N   0  0  0  0  0  0  0  0  0  0  0  0
   20.6956   -6.4725  -14.7898 C   0  0  1  0  0  0  0  0  0  0  0  0
   22.1303   -6.1080  -14.6108 C   0  0  0  0  0  0  0  0  0  0  0  0
   22.3465   -4.9856  -13.6826 C   0  0  0  0  0  0  0  0  0  0  0  0
   22.1679   -5.2068  -12.4544 O   0  0  0  0  0  0  0  0  0  0  0  0
   19.9648   -5.2471  -15.2302 C   0  0  0  0  0  0  0  0  0  0  0  0
   19.6928   -4.1853  -14.3867 O   0  0  0  0  0  0  0  0  0  0  0  0
   22.7276   -3.7150  -14.0480 O   0  0  0  0  0  0  0  0  0  0  0  0
   19.5727   -5.1639  -16.4225 O   0  0  0  0  0  0  0  0  0  0  0  0
  2  1  1  6
  2  3  1  0
  3  4  1  0
  5 12  1  0
  5  2  1  0
  6  5  2  0
  7  8  1  0
  8  9  2  0
  8 10  1  0
 11 10  1  1
 11 12  1  0
 11 13  1  0
 13 14  2  0
 15 13  1  0
 15 16  1  0
 16 17  1  6
 17 18  1  0
 18 22  1  0
 18 19  2  0
 20 21  1  0
 20 16  1  0
 23 20  2  0
M  END
$$$$
