CND.pdb
     RDKit          3D

 23 22  0  0  1  0  0  0  0  0999 V2000
   27.0242  -13.3068  -17.6833 N   0  0  0  0  0  0  0  0  0  0  0  0
   26.5671  -12.2753  -16.7720 C   0  0  1  0  0  0  0  0  0  0  0  0
   27.8249  -11.5133  -16.3379 C   0  0  0  0  0  0  0  0  0  0  0  0
   28.8684  -12.6908  -15.4248 S   0  0  0  0  0  0  0  0  0  0  0  0
   25.6860  -11.3008  -17.4668 C   0  0  0  0  0  0  0  0  0  0  0  0
   25.5814  -11.2191  -18.6960 O   0  0  0  0  0  0  0  0  0  0  0  0
   21.8826   -8.9975  -19.6483 N   0  0  0  0  0  0  0  0  0  0  0  0
   21.7019   -9.6808  -18.4163 C   0  0  0  0  0  0  0  0  0  0  0  0
   20.5817   -9.6020  -17.8668 O   0  0  0  0  0  0  0  0  0  0  0  0
   22.8467  -10.4351  -17.8712 C   0  0  0  0  0  0  0  0  0  0  0  0
   23.8757   -9.5726  -17.1837 C   0  0  2  0  0  0  0  0  0  0  0  0
   24.9148  -10.4065  -16.6722 N   0  0  0  0  0  0  0  0  0  0  0  0
   23.2597   -8.6965  -16.1749 C   0  0  0  0  0  0  0  0  0  0  0  0
   22.8594   -9.2210  -15.1036 O   0  0  0  0  0  0  0  0  0  0  0  0
   23.0797   -7.3025  -16.3129 N   0  0  0  0  0  0  0  0  0  0  0  0
   22.5819   -6.4224  -15.3114 C   0  0  1  0  0  0  0  0  0  0  0  0
   22.8408   -4.9733  -15.5491 C   0  0  0  0  0  0  0  0  0  0  0  0
   22.2887   -4.0925  -14.5064 C   0  0  0  0  0  0  0  0  0  0  0  0
   22.4750   -4.4286  -13.3056 O   0  0  0  0  0  0  0  0  0  0  0  0
   21.1058   -6.6069  -15.1815 C   0  0  0  0  0  0  0  0  0  0  0  0
   20.2828   -6.8946  -16.2551 O   0  0  0  0  0  0  0  0  0  0  0  0
   21.5858   -2.9323  -14.7371 O   0  0  0  0  0  0  0  0  0  0  0  0
   20.5732   -6.4982  -14.0471 O   0  0  0  0  0  0  0  0  0  0  0  0
  2  1  1  6
  2  3  1  0
  3  4  1  0
  5 12  1  0
  5  2  1  0
  6  5  2  0
  7  8  1  0
  8  9  2  0
  8 10  1  0
 11 10  1  1
 11 12  1  0
 11 13  1  0
 13 14  2  0
 15 13  1  0
 15 16  1  0
 16 17  1  6
 17 18  1  0
 18 22  1  0
 18 19  2  0
 20 21  1  0
 20 16  1  0
 23 20  2  0
M  END
$$$$
