CND.pdb
     RDKit          3D

 23 22  0  0  1  0  0  0  0  0999 V2000
   15.8542  -10.9134  -10.2723 N   0  0  0  0  0  0  0  0  0  0  0  0
   14.8395  -10.3610  -11.1492 C   0  0  1  0  0  0  0  0  0  0  0  0
   13.5040  -10.5641  -10.4237 C   0  0  0  0  0  0  0  0  0  0  0  0
   13.2051  -12.3573  -10.3572 S   0  0  0  0  0  0  0  0  0  0  0  0
   15.0227   -8.8963  -11.3219 C   0  0  0  0  0  0  0  0  0  0  0  0
   14.2723   -8.1816  -11.9961 O   0  0  0  0  0  0  0  0  0  0  0  0
   14.6152   -5.9104   -9.0403 N   0  0  0  0  0  0  0  0  0  0  0  0
   15.9517   -5.9714   -8.5631 C   0  0  0  0  0  0  0  0  0  0  0  0
   16.1554   -5.6748   -7.3658 O   0  0  0  0  0  0  0  0  0  0  0  0
   17.0052   -6.3798   -9.5117 C   0  0  0  0  0  0  0  0  0  0  0  0
   16.4770   -6.9008  -10.8251 C   0  0  2  0  0  0  0  0  0  0  0  0
   16.1275   -8.2761  -10.6733 N   0  0  0  0  0  0  0  0  0  0  0  0
   17.4161   -6.6396  -11.9272 C   0  0  0  0  0  0  0  0  0  0  0  0
   18.5343   -7.2157  -11.8982 O   0  0  0  0  0  0  0  0  0  0  0  0
   17.1620   -5.7873  -13.0243 N   0  0  0  0  0  0  0  0  0  0  0  0
   18.0256   -5.5784  -14.1360 C   0  0  1  0  0  0  0  0  0  0  0  0
   18.0085   -6.6539  -15.1686 C   0  0  0  0  0  0  0  0  0  0  0  0
   18.7924   -6.3335  -16.3730 C   0  0  0  0  0  0  0  0  0  0  0  0
   19.9938   -5.9889  -16.2077 O   0  0  0  0  0  0  0  0  0  0  0  0
   17.6635   -4.2950  -14.8079 C   0  0  0  0  0  0  0  0  0  0  0  0
   18.5017   -3.6431  -15.6939 O   0  0  0  0  0  0  0  0  0  0  0  0
   18.3193   -6.3798  -17.6642 O   0  0  0  0  0  0  0  0  0  0  0  0
   16.5458   -3.7714  -14.5650 O   0  0  0  0  0  0  0  0  0  0  0  0
  2  1  1  1
  2  3  1  0
  3  4  1  0
  5 12  1  0
  5  2  1  0
  6  5  2  0
  7  8  1  0
  8  9  2  0
  8 10  1  0
 11 10  1  1
 11 12  1  0
 11 13  1  0
 13 14  2  0
 15 13  1  0
 15 16  1  0
 16 17  1  6
 17 18  1  0
 18 22  1  0
 18 19  2  0
 20 21  1  0
 20 16  1  0
 23 20  2  0
M  END
$$$$
