CND.pdb
     RDKit          3D

 23 22  0  0  1  0  0  0  0  0999 V2000
   28.5560  -20.8156  -15.3255 N   0  0  0  0  0  0  0  0  0  0  0  0
   27.7060  -19.9302  -14.5528 C   0  0  1  0  0  0  0  0  0  0  0  0
   27.1976  -18.8722  -15.5393 C   0  0  0  0  0  0  0  0  0  0  0  0
   28.2685  -17.4139  -15.3500 S   0  0  0  0  0  0  0  0  0  0  0  0
   26.5139  -20.6513  -14.0353 C   0  0  0  0  0  0  0  0  0  0  0  0
   26.0476  -21.6734  -14.5514 O   0  0  0  0  0  0  0  0  0  0  0  0
   26.5920  -21.9915  -10.1819 N   0  0  0  0  0  0  0  0  0  0  0  0
   26.0622  -20.6777  -10.0779 C   0  0  0  0  0  0  0  0  0  0  0  0
   26.7107  -19.8404   -9.4135 O   0  0  0  0  0  0  0  0  0  0  0  0
   24.7854  -20.3925  -10.7599 C   0  0  0  0  0  0  0  0  0  0  0  0
   24.7731  -20.7742  -12.2193 C   0  0  2  0  0  0  0  0  0  0  0  0
   25.8680  -20.1367  -12.8761 N   0  0  0  0  0  0  0  0  0  0  0  0
   23.4652  -20.5052  -12.8372 C   0  0  0  0  0  0  0  0  0  0  0  0
   23.2002  -19.3196  -13.1645 O   0  0  0  0  0  0  0  0  0  0  0  0
   22.4747  -21.4785  -13.0949 N   0  0  0  0  0  0  0  0  0  0  0  0
   21.2540  -21.2617  -13.7937 C   0  0  1  0  0  0  0  0  0  0  0  0
   20.8716  -22.3329  -14.7579 C   0  0  0  0  0  0  0  0  0  0  0  0
   21.6317  -22.2962  -16.0184 C   0  0  0  0  0  0  0  0  0  0  0  0
   22.4035  -21.3163  -16.2014 O   0  0  0  0  0  0  0  0  0  0  0  0
   20.1409  -21.1154  -12.8091 C   0  0  0  0  0  0  0  0  0  0  0  0
   18.8774  -20.6739  -13.1570 O   0  0  0  0  0  0  0  0  0  0  0  0
   21.5673  -23.2453  -17.0126 O   0  0  0  0  0  0  0  0  0  0  0  0
   20.3495  -21.4043  -11.6027 O   0  0  0  0  0  0  0  0  0  0  0  0
  2  1  1  6
  2  3  1  0
  3  4  1  0
  5 12  1  0
  5  2  1  0
  6  5  2  0
  7  8  1  0
  8  9  2  0
  8 10  1  0
 11 10  1  1
 11 12  1  0
 11 13  1  0
 13 14  2  0
 15 13  1  0
 15 16  1  0
 16 17  1  6
 17 18  1  0
 18 22  1  0
 18 19  2  0
 20 21  1  0
 20 16  1  0
 23 20  2  0
M  END
$$$$
