CND.pdb
     RDKit          3D

 23 22  0  0  1  0  0  0  0  0999 V2000
   18.6891  -11.9651  -16.7659 N   0  0  0  0  0  0  0  0  0  0  0  0
   18.0372  -11.4409  -15.5810 C   0  0  1  0  0  0  0  0  0  0  0  0
   18.2680  -12.4836  -14.4807 C   0  0  0  0  0  0  0  0  0  0  0  0
   17.2118  -13.9114  -14.8745 S   0  0  0  0  0  0  0  0  0  0  0  0
   18.6831  -10.1810  -15.1291 C   0  0  0  0  0  0  0  0  0  0  0  0
   18.4309   -9.6226  -14.0554 O   0  0  0  0  0  0  0  0  0  0  0  0
   22.1579   -9.7820  -14.3686 N   0  0  0  0  0  0  0  0  0  0  0  0
   22.6287   -9.1084  -15.5271 C   0  0  0  0  0  0  0  0  0  0  0  0
   23.8401   -9.2232  -15.8142 O   0  0  0  0  0  0  0  0  0  0  0  0
   21.6573   -8.3212  -16.3102 C   0  0  0  0  0  0  0  0  0  0  0  0
   20.2651   -8.3154  -15.7296 C   0  0  2  0  0  0  0  0  0  0  0  0
   19.6508   -9.5787  -15.9815 N   0  0  0  0  0  0  0  0  0  0  0  0
   19.4846   -7.1638  -16.2084 C   0  0  0  0  0  0  0  0  0  0  0  0
   19.0469   -7.1972  -17.3876 O   0  0  0  0  0  0  0  0  0  0  0  0
   19.1843   -6.0141  -15.4452 N   0  0  0  0  0  0  0  0  0  0  0  0
   18.3922   -4.9119  -15.8733 C   0  0  1  0  0  0  0  0  0  0  0  0
   17.2363   -4.5765  -14.9930 C   0  0  0  0  0  0  0  0  0  0  0  0
   16.4808   -3.3910  -15.4309 C   0  0  0  0  0  0  0  0  0  0  0  0
   16.5103   -3.1059  -16.6587 O   0  0  0  0  0  0  0  0  0  0  0  0
   19.2533   -3.6966  -15.9786 C   0  0  0  0  0  0  0  0  0  0  0  0
   18.8402   -2.5286  -16.5930 O   0  0  0  0  0  0  0  0  0  0  0  0
   15.7453   -2.5694  -14.6080 O   0  0  0  0  0  0  0  0  0  0  0  0
   20.4118   -3.7235  -15.4891 O   0  0  0  0  0  0  0  0  0  0  0  0
  2  1  1  6
  2  3  1  0
  3  4  1  0
  5 12  1  0
  5  2  1  0
  6  5  2  0
  7  8  1  0
  8  9  2  0
  8 10  1  0
 11 10  1  6
 11 12  1  0
 11 13  1  0
 13 14  2  0
 15 13  1  0
 15 16  1  0
 16 17  1  1
 17 18  1  0
 18 22  1  0
 18 19  2  0
 20 21  1  0
 20 16  1  0
 23 20  2  0
M  END
$$$$
