CND.pdb
     RDKit          3D

 23 22  0  0  1  0  0  0  0  0999 V2000
   18.5124  -12.1576  -16.4834 N   0  0  0  0  0  0  0  0  0  0  0  0
   19.2102  -10.9415  -16.8548 C   0  0  1  0  0  0  0  0  0  0  0  0
   18.2143   -9.7995  -16.6203 C   0  0  0  0  0  0  0  0  0  0  0  0
   16.8125  -10.0802  -17.7453 S   0  0  0  0  0  0  0  0  0  0  0  0
   20.3711  -10.6973  -15.9597 C   0  0  0  0  0  0  0  0  0  0  0  0
   20.3488  -10.8746  -14.7363 O   0  0  0  0  0  0  0  0  0  0  0  0
   25.4755  -10.1730  -14.7920 N   0  0  0  0  0  0  0  0  0  0  0  0
   25.2102   -9.5413  -16.0362 C   0  0  0  0  0  0  0  0  0  0  0  0
   26.0719   -8.7537  -16.4836 O   0  0  0  0  0  0  0  0  0  0  0  0
   23.9382   -9.8576  -16.7133 C   0  0  0  0  0  0  0  0  0  0  0  0
   22.7410   -9.8601  -15.7957 C   0  0  2  0  0  0  0  0  0  0  0  0
   21.5830  -10.2311  -16.5427 N   0  0  0  0  0  0  0  0  0  0  0  0
   22.6071   -8.5824  -15.0785 C   0  0  0  0  0  0  0  0  0  0  0  0
   23.5661   -8.2090  -14.3548 O   0  0  0  0  0  0  0  0  0  0  0  0
   21.4796   -7.7339  -15.1373 N   0  0  0  0  0  0  0  0  0  0  0  0
   21.3700   -6.4492  -14.5347 C   0  0  1  0  0  0  0  0  0  0  0  0
   22.4293   -5.4722  -14.9175 C   0  0  0  0  0  0  0  0  0  0  0  0
   22.2570   -4.1415  -14.3112 C   0  0  0  0  0  0  0  0  0  0  0  0
   21.9749   -3.1853  -15.0829 O   0  0  0  0  0  0  0  0  0  0  0  0
   20.0482   -5.8503  -14.8865 C   0  0  0  0  0  0  0  0  0  0  0  0
   19.3276   -5.0478  -14.0208 O   0  0  0  0  0  0  0  0  0  0  0  0
   22.3791   -3.8578  -12.9704 O   0  0  0  0  0  0  0  0  0  0  0  0
   19.5555   -6.0787  -16.0212 O   0  0  0  0  0  0  0  0  0  0  0  0
  2  1  1  1
  2  3  1  0
  3  4  1  0
  5 12  1  0
  5  2  1  0
  6  5  2  0
  7  8  1  0
  8  9  2  0
  8 10  1  0
 11 10  1  6
 11 12  1  0
 11 13  1  0
 13 14  2  0
 15 13  1  0
 15 16  1  0
 16 17  1  6
 17 18  1  0
 18 22  1  0
 18 19  2  0
 20 21  1  0
 20 16  1  0
 23 20  2  0
M  END
$$$$
