GIQ.pdb
     RDKit          3D

 22 21  0  0  1  0  0  0  0  0999 V2000
   28.5416  -21.8239  -15.4487 N   0  0  0  0  0  0  0  0  0  0  0  0
   28.0163  -20.8441  -14.5271 C   0  0  0  0  0  0  0  0  0  0  0  0
   26.8030  -21.3868  -13.8322 C   0  0  0  0  0  0  0  0  0  0  0  0
   26.2222  -22.3883  -14.2991 O   0  0  0  0  0  0  0  0  0  0  0  0
   26.8755  -20.6086   -8.6289 C   0  0  0  0  0  0  0  0  0  0  0  0
   26.4974  -21.2343   -9.9323 C   0  0  0  0  0  0  0  0  0  0  0  0
   25.2298  -20.6831  -10.5482 C   0  0  2  0  0  0  0  0  0  0  0  0
   24.0552  -21.0573   -9.6497 C   0  0  0  0  0  0  0  0  0  0  0  0
   25.1159  -21.2531  -11.9368 C   0  0  2  0  0  0  0  0  0  0  0  0
   26.3071  -20.7743  -12.6490 N   0  0  0  0  0  0  0  0  0  0  0  0
   23.8889  -20.8504  -12.6611 C   0  0  0  0  0  0  0  0  0  0  0  0
   23.7277  -19.6040  -12.8984 O   0  0  0  0  0  0  0  0  0  0  0  0
   19.1132  -20.7178  -17.6059 N   0  0  0  0  0  0  0  0  0  0  0  0
   20.2087  -21.5173  -17.0527 C   0  0  0  0  0  0  0  0  0  0  0  0
   21.1511  -21.6430  -17.8598 O   0  0  0  0  0  0  0  0  0  0  0  0
   20.0987  -22.0570  -15.7033 C   0  0  0  0  0  0  0  0  0  0  0  0
   21.2897  -22.2643  -14.8679 C   0  0  0  0  0  0  0  0  0  0  0  0
   21.7131  -21.2364  -13.9008 C   0  0  2  0  0  0  0  0  0  0  0  0
   22.8783  -21.6803  -13.1210 N   0  0  0  0  0  0  0  0  0  0  0  0
   20.6221  -20.8475  -12.9834 C   0  0  0  0  0  0  0  0  0  0  0  0
   19.5850  -20.0068  -13.3085 O   0  0  0  0  0  0  0  0  0  0  0  0
   20.6251  -21.3206  -11.7862 O   0  0  0  0  0  0  0  0  0  0  0  0
  2  3  1  0
  2  1  1  0
  3  4  2  0
  5  6  1  0
  6  7  1  0
  7  9  1  0
  7  8  1  1
  9 11  1  0
  9 10  1  6
 10  3  1  0
 11 12  2  0
 11 19  1  0
 14 13  1  0
 14 16  1  0
 15 14  2  0
 17 16  1  0
 18 17  1  6
 18 20  1  0
 19 18  1  0
 20 22  2  0
 20 21  1  0
M  END
$$$$
