GIQ.pdb
     RDKit          3D

 22 21  0  0  1  0  0  0  0  0999 V2000
   33.5559  -24.7115  -18.6089 N   0  0  0  0  0  0  0  0  0  0  0  0
   32.1775  -24.5072  -18.9878 C   0  0  0  0  0  0  0  0  0  0  0  0
   31.2653  -25.1425  -17.9809 C   0  0  0  0  0  0  0  0  0  0  0  0
   31.7512  -25.7024  -16.9765 O   0  0  0  0  0  0  0  0  0  0  0  0
   28.3202  -21.9552  -16.7757 C   0  0  0  0  0  0  0  0  0  0  0  0
   28.7294  -23.3131  -16.3047 C   0  0  0  0  0  0  0  0  0  0  0  0
   27.9506  -24.4529  -16.9246 C   0  0  2  0  0  0  0  0  0  0  0  0
   26.7963  -24.8105  -15.9935 C   0  0  0  0  0  0  0  0  0  0  0  0
   28.9101  -25.5927  -17.1400 C   0  0  2  0  0  0  0  0  0  0  0  0
   29.8549  -25.1144  -18.1569 N   0  0  0  0  0  0  0  0  0  0  0  0
   28.2698  -26.8511  -17.5862 C   0  0  0  0  0  0  0  0  0  0  0  0
   27.5940  -26.8150  -18.6715 O   0  0  0  0  0  0  0  0  0  0  0  0
   29.4116  -32.5744  -18.1197 N   0  0  0  0  0  0  0  0  0  0  0  0
   28.0588  -32.8202  -17.6146 C   0  0  0  0  0  0  0  0  0  0  0  0
   27.6506  -33.9622  -17.9051 O   0  0  0  0  0  0  0  0  0  0  0  0
   27.3639  -31.7751  -16.8737 C   0  0  0  0  0  0  0  0  0  0  0  0
   27.9955  -30.4722  -16.6235 C   0  0  0  0  0  0  0  0  0  0  0  0
   27.5839  -29.2822  -17.3886 C   0  0  2  0  0  0  0  0  0  0  0  0
   28.3193  -28.0845  -16.9555 N   0  0  0  0  0  0  0  0  0  0  0  0
   26.1306  -29.0317  -17.2957 C   0  0  0  0  0  0  0  0  0  0  0  0
   25.5149  -28.3518  -16.2726 O   0  0  0  0  0  0  0  0  0  0  0  0
   25.3674  -29.4752  -18.2326 O   0  0  0  0  0  0  0  0  0  0  0  0
  2  3  1  0
  2  1  1  0
  3  4  2  0
  5  6  1  0
  6  7  1  0
  7  9  1  0
  7  8  1  1
  9 11  1  0
  9 10  1  6
 10  3  1  0
 11 12  2  0
 11 19  1  0
 14 13  1  0
 14 16  1  0
 15 14  2  0
 17 16  1  0
 18 17  1  1
 18 20  1  0
 19 18  1  0
 20 22  2  0
 20 21  1  0
M  END
$$$$
