GIQ.pdb
     RDKit          3D

 22 21  0  0  1  0  0  0  0  0999 V2000
   28.5354  -20.2433  -15.0205 N   0  0  0  0  0  0  0  0  0  0  0  0
   27.9271  -19.5761  -13.8935 C   0  0  0  0  0  0  0  0  0  0  0  0
   27.0143  -20.5183  -13.1664 C   0  0  0  0  0  0  0  0  0  0  0  0
   26.6630  -21.5826  -13.7162 O   0  0  0  0  0  0  0  0  0  0  0  0
   26.9842  -20.2350   -7.8835 C   0  0  0  0  0  0  0  0  0  0  0  0
   26.7339  -20.7599   -9.2601 C   0  0  0  0  0  0  0  0  0  0  0  0
   25.3693  -20.4235   -9.8210 C   0  0  2  0  0  0  0  0  0  0  0  0
   24.3141  -21.1385   -8.9828 C   0  0  0  0  0  0  0  0  0  0  0  0
   25.3581  -20.8423  -11.2668 C   0  0  2  0  0  0  0  0  0  0  0  0
   26.5450  -20.2136  -11.8595 N   0  0  0  0  0  0  0  0  0  0  0  0
   24.1407  -20.4398  -12.0075 C   0  0  0  0  0  0  0  0  0  0  0  0
   23.9428  -19.1878  -12.1787 O   0  0  0  0  0  0  0  0  0  0  0  0
   22.4747  -19.2492  -16.8658 N   0  0  0  0  0  0  0  0  0  0  0  0
   21.1637  -19.8702  -16.6625 C   0  0  0  0  0  0  0  0  0  0  0  0
   20.2939  -19.3849  -17.4130 O   0  0  0  0  0  0  0  0  0  0  0  0
   21.0103  -20.9231  -15.6664 C   0  0  0  0  0  0  0  0  0  0  0  0
   22.0923  -21.2424  -14.7249 C   0  0  0  0  0  0  0  0  0  0  0  0
   22.0046  -20.8241  -13.3149 C   0  0  2  0  0  0  0  0  0  0  0  0
   23.1751  -21.2752  -12.5472 N   0  0  0  0  0  0  0  0  0  0  0  0
   20.7691  -21.3064  -12.6635 C   0  0  0  0  0  0  0  0  0  0  0  0
   19.5780  -20.6221  -12.6349 O   0  0  0  0  0  0  0  0  0  0  0  0
   20.7894  -22.4504  -12.0734 O   0  0  0  0  0  0  0  0  0  0  0  0
  2  3  1  0
  2  1  1  0
  3  4  2  0
  5  6  1  0
  6  7  1  0
  7  9  1  0
  7  8  1  1
  9 11  1  0
  9 10  1  6
 10  3  1  0
 11 12  2  0
 11 19  1  0
 14 13  1  0
 14 16  1  0
 15 14  2  0
 17 16  1  0
 18 17  1  6
 18 20  1  0
 19 18  1  0
 20 22  2  0
 20 21  1  0
M  END
$$$$
