GIQ.pdb
     RDKit          3D

 22 21  0  0  1  0  0  0  0  0999 V2000
   16.1786  -29.4954  -10.1206 N   0  0  0  0  0  0  0  0  0  0  0  0
   15.9784  -28.1105   -9.7637 C   0  0  0  0  0  0  0  0  0  0  0  0
   16.9646  -27.7006   -8.7107 C   0  0  0  0  0  0  0  0  0  0  0  0
   17.6389  -28.5730   -8.1254 O   0  0  0  0  0  0  0  0  0  0  0  0
   18.9926  -23.1978   -9.9060 C   0  0  0  0  0  0  0  0  0  0  0  0
   18.9858  -24.5147   -9.1996 C   0  0  0  0  0  0  0  0  0  0  0  0
   18.4605  -24.4628   -7.7814 C   0  0  2  0  0  0  0  0  0  0  0  0
   19.5281  -23.8293   -6.8948 C   0  0  0  0  0  0  0  0  0  0  0  0
   18.1145  -25.8703   -7.3748 C   0  0  2  0  0  0  0  0  0  0  0  0
   17.1402  -26.3312   -8.3717 N   0  0  0  0  0  0  0  0  0  0  0  0
   17.5484  -25.9882   -6.0117 C   0  0  0  0  0  0  0  0  0  0  0  0
   16.4930  -25.3140   -5.7523 O   0  0  0  0  0  0  0  0  0  0  0  0
   14.0282  -27.9074   -2.8964 N   0  0  0  0  0  0  0  0  0  0  0  0
   14.5107  -28.6636   -4.0544 C   0  0  0  0  0  0  0  0  0  0  0  0
   13.5739  -29.0981   -4.7537 O   0  0  0  0  0  0  0  0  0  0  0  0
   15.9437  -28.8285   -4.2628 C   0  0  0  0  0  0  0  0  0  0  0  0
   16.9201  -28.2034   -3.3601 C   0  0  0  0  0  0  0  0  0  0  0  0
   17.4275  -26.8468   -3.6309 C   0  0  2  0  0  0  0  0  0  0  0  0
   18.0359  -26.7578   -4.9669 N   0  0  0  0  0  0  0  0  0  0  0  0
   18.4004  -26.3992   -2.6128 C   0  0  0  0  0  0  0  0  0  0  0  0
   18.0978  -26.1415   -1.2975 O   0  0  0  0  0  0  0  0  0  0  0  0
   19.6275  -26.2324   -2.9639 O   0  0  0  0  0  0  0  0  0  0  0  0
  2  3  1  0
  2  1  1  0
  3  4  2  0
  5  6  1  0
  6  7  1  0
  7  9  1  0
  7  8  1  1
  9 11  1  0
  9 10  1  6
 10  3  1  0
 11 12  2  0
 11 19  1  0
 14 13  1  0
 14 16  1  0
 15 14  2  0
 17 16  1  0
 18 17  1  1
 18 20  1  0
 19 18  1  0
 20 22  2  0
 20 21  1  0
M  END
$$$$
