GIQ.pdb
     RDKit          3D

 22 21  0  0  1  0  0  0  0  0999 V2000
   20.6473  -18.4137  -16.4950 N   0  0  0  0  0  0  0  0  0  0  0  0
   21.3899  -17.5283  -17.3610 C   0  0  0  0  0  0  0  0  0  0  0  0
   21.8358  -16.3153  -16.6000 C   0  0  0  0  0  0  0  0  0  0  0  0
   21.0623  -15.7874  -15.7745 O   0  0  0  0  0  0  0  0  0  0  0  0
   26.6995  -16.5139  -15.1632 C   0  0  0  0  0  0  0  0  0  0  0  0
   25.2842  -16.0358  -15.2009 C   0  0  0  0  0  0  0  0  0  0  0  0
   25.0801  -14.7392  -15.9539 C   0  0  2  0  0  0  0  0  0  0  0  0
   25.7410  -13.6139  -15.1639 C   0  0  0  0  0  0  0  0  0  0  0  0
   23.5976  -14.5458  -16.1294 C   0  0  2  0  0  0  0  0  0  0  0  0
   23.1280  -15.7602  -16.8077 N   0  0  0  0  0  0  0  0  0  0  0  0
   23.2292  -13.3451  -16.9137 C   0  0  0  0  0  0  0  0  0  0  0  0
   23.5858  -13.3119  -18.1415 O   0  0  0  0  0  0  0  0  0  0  0  0
   18.4090   -8.8346  -19.0184 N   0  0  0  0  0  0  0  0  0  0  0  0
   18.9593  -10.1920  -19.0405 C   0  0  0  0  0  0  0  0  0  0  0  0
   18.0643  -11.0601  -19.0624 O   0  0  0  0  0  0  0  0  0  0  0  0
   20.4038  -10.3855  -19.0314 C   0  0  0  0  0  0  0  0  0  0  0  0
   21.0268  -11.4216  -18.1962 C   0  0  0  0  0  0  0  0  0  0  0  0
   22.1482  -11.0865  -17.3011 C   0  0  2  0  0  0  0  0  0  0  0  0
   22.5301  -12.2351  -16.4657 N   0  0  0  0  0  0  0  0  0  0  0  0
   21.8484   -9.9247  -16.4387 C   0  0  0  0  0  0  0  0  0  0  0  0
   21.9054   -8.6124  -16.8415 O   0  0  0  0  0  0  0  0  0  0  0  0
   21.5065  -10.1365  -15.2158 O   0  0  0  0  0  0  0  0  0  0  0  0
  2  3  1  0
  2  1  1  0
  3  4  2  0
  5  6  1  0
  6  7  1  0
  7  9  1  0
  7  8  1  1
  9 11  1  0
  9 10  1  6
 10  3  1  0
 11 12  2  0
 11 19  1  0
 14 13  1  0
 14 16  1  0
 15 14  2  0
 17 16  1  0
 18 17  1  1
 18 20  1  0
 19 18  1  0
 20 22  2  0
 20 21  1  0
M  END
$$$$
