GIQ.pdb
     RDKit          3D

 22 21  0  0  1  0  0  0  0  0999 V2000
   23.6881  -20.9731   -8.3376 N   0  0  0  0  0  0  0  0  0  0  0  0
   24.5038  -21.6600   -9.3115 C   0  0  0  0  0  0  0  0  0  0  0  0
   25.0304  -20.6863  -10.3233 C   0  0  0  0  0  0  0  0  0  0  0  0
   24.6745  -19.4909  -10.2711 O   0  0  0  0  0  0  0  0  0  0  0  0
   30.0372  -20.7973  -11.2473 C   0  0  0  0  0  0  0  0  0  0  0  0
   28.5868  -20.4377  -11.2352 C   0  0  0  0  0  0  0  0  0  0  0  0
   27.8870  -20.6094  -12.5659 C   0  0  2  0  0  0  0  0  0  0  0  0
   28.6134  -19.7616  -13.6055 C   0  0  0  0  0  0  0  0  0  0  0  0
   26.4487  -20.2072  -12.3765 C   0  0  2  0  0  0  0  0  0  0  0  0
   25.9296  -21.1085  -11.3404 N   0  0  0  0  0  0  0  0  0  0  0  0
   25.6232  -20.3049  -13.6019 C   0  0  0  0  0  0  0  0  0  0  0  0
   25.4518  -21.4683  -14.1049 O   0  0  0  0  0  0  0  0  0  0  0  0
   19.8754  -17.2816  -17.3412 N   0  0  0  0  0  0  0  0  0  0  0  0
   20.8588  -17.3607  -16.2584 C   0  0  0  0  0  0  0  0  0  0  0  0
   20.6864  -16.4696  -15.4030 O   0  0  0  0  0  0  0  0  0  0  0  0
   21.8790  -18.4011  -16.2842 C   0  0  0  0  0  0  0  0  0  0  0  0
   22.9171  -18.4739  -15.2468 C   0  0  0  0  0  0  0  0  0  0  0  0
   24.0298  -19.4322  -15.3680 C   0  0  2  0  0  0  0  0  0  0  0  0
   25.0029  -19.2658  -14.2779 N   0  0  0  0  0  0  0  0  0  0  0  0
   24.7211  -19.3258  -16.6696 C   0  0  0  0  0  0  0  0  0  0  0  0
   24.3501  -19.9922  -17.8125 O   0  0  0  0  0  0  0  0  0  0  0  0
   25.7495  -18.5569  -16.7605 O   0  0  0  0  0  0  0  0  0  0  0  0
  2  3  1  0
  2  1  1  0
  3  4  2  0
  5  6  1  0
  6  7  1  0
  7  9  1  0
  7  8  1  6
  9 11  1  0
  9 10  1  1
 10  3  1  0
 11 12  2  0
 11 19  1  0
 14 13  1  0
 14 16  1  0
 15 14  2  0
 17 16  1  0
 18 17  1  6
 18 20  1  0
 19 18  1  0
 20 22  2  0
 20 21  1  0
M  END
$$$$
