GIQ.pdb
     RDKit          3D

 22 21  0  0  1  0  0  0  0  0999 V2000
   20.2814  -22.3631   -6.5010 N   0  0  0  0  0  0  0  0  0  0  0  0
   21.6243  -22.6338   -6.9581 C   0  0  0  0  0  0  0  0  0  0  0  0
   22.0813  -21.5504   -7.8891 C   0  0  0  0  0  0  0  0  0  0  0  0
   21.2826  -20.6534   -8.2295 O   0  0  0  0  0  0  0  0  0  0  0  0
   27.0857  -19.7018   -7.4744 C   0  0  0  0  0  0  0  0  0  0  0  0
   25.6403  -19.8840   -7.8071 C   0  0  0  0  0  0  0  0  0  0  0  0
   25.3819  -20.4883   -9.1701 C   0  0  2  0  0  0  0  0  0  0  0  0
   26.0888  -19.6342  -10.2179 C   0  0  0  0  0  0  0  0  0  0  0  0
   23.8902  -20.5464   -9.3645 C   0  0  2  0  0  0  0  0  0  0  0  0
   23.4124  -21.5333   -8.3881 N   0  0  0  0  0  0  0  0  0  0  0  0
   23.4691  -20.9313  -10.7309 C   0  0  0  0  0  0  0  0  0  0  0  0
   23.9142  -22.0371  -11.1944 O   0  0  0  0  0  0  0  0  0  0  0  0
   19.0441  -22.4945  -15.4295 N   0  0  0  0  0  0  0  0  0  0  0  0
   19.0881  -21.3454  -14.5223 C   0  0  0  0  0  0  0  0  0  0  0  0
   18.0666  -21.2707  -13.8108 O   0  0  0  0  0  0  0  0  0  0  0  0
   20.2427  -20.4560  -14.5392 C   0  0  0  0  0  0  0  0  0  0  0  0
   20.9161  -20.0607  -13.2945 C   0  0  0  0  0  0  0  0  0  0  0  0
   22.1954  -20.6804  -12.9068 C   0  0  2  0  0  0  0  0  0  0  0  0
   22.6338  -20.2221  -11.5799 N   0  0  0  0  0  0  0  0  0  0  0  0
   23.2631  -20.4267  -13.8962 C   0  0  0  0  0  0  0  0  0  0  0  0
   24.2188  -19.4457  -13.7859 O   0  0  0  0  0  0  0  0  0  0  0  0
   23.3195  -21.1690  -14.9464 O   0  0  0  0  0  0  0  0  0  0  0  0
  2  3  1  0
  2  1  1  0
  3  4  2  0
  5  6  1  0
  6  7  1  0
  7  9  1  0
  7  8  1  6
  9 11  1  0
  9 10  1  1
 10  3  1  0
 11 12  2  0
 11 19  1  0
 14 13  1  0
 14 16  1  0
 15 14  2  0
 17 16  1  0
 18 17  1  6
 18 20  1  0
 19 18  1  0
 20 22  2  0
 20 21  1  0
M  END
$$$$
