GIQ.pdb
     RDKit          3D

 22 21  0  0  1  0  0  0  0  0999 V2000
   23.4342  -15.6255  -18.1595 N   0  0  0  0  0  0  0  0  0  0  0  0
   23.7472  -14.2998  -18.6391 C   0  0  0  0  0  0  0  0  0  0  0  0
   23.8967  -13.3546  -17.4842 C   0  0  0  0  0  0  0  0  0  0  0  0
   23.1778  -13.4981  -16.4738 O   0  0  0  0  0  0  0  0  0  0  0  0
   28.5488  -12.3017  -15.6963 C   0  0  0  0  0  0  0  0  0  0  0  0
   27.0586  -12.3290  -15.8036 C   0  0  0  0  0  0  0  0  0  0  0  0
   26.4432  -11.0453  -16.3166 C   0  0  2  0  0  0  0  0  0  0  0  0
   26.7686   -9.9272  -15.3311 C   0  0  0  0  0  0  0  0  0  0  0  0
   24.9649  -11.2825  -16.4731 C   0  0  2  0  0  0  0  0  0  0  0  0
   24.8469  -12.2979  -17.5269 N   0  0  0  0  0  0  0  0  0  0  0  0
   24.1897  -10.0742  -16.8360 C   0  0  0  0  0  0  0  0  0  0  0  0
   24.4646   -9.5115  -17.9512 O   0  0  0  0  0  0  0  0  0  0  0  0
   19.1091  -10.0831  -14.6735 N   0  0  0  0  0  0  0  0  0  0  0  0
   19.1707  -10.1383  -16.1360 C   0  0  0  0  0  0  0  0  0  0  0  0
   18.3643  -10.9643  -16.6080 O   0  0  0  0  0  0  0  0  0  0  0  0
   20.1086   -9.2828  -16.8520 C   0  0  0  0  0  0  0  0  0  0  0  0
   21.0126   -8.3757  -16.1315 C   0  0  0  0  0  0  0  0  0  0  0  0
   22.4328   -8.2777  -16.5114 C   0  0  2  0  0  0  0  0  0  0  0  0
   23.1833   -9.4725  -16.0967 N   0  0  0  0  0  0  0  0  0  0  0  0
   23.0787   -7.0699  -15.9569 C   0  0  0  0  0  0  0  0  0  0  0  0
   24.1153   -7.0777  -15.0551 O   0  0  0  0  0  0  0  0  0  0  0  0
   22.6534   -5.9150  -16.3342 O   0  0  0  0  0  0  0  0  0  0  0  0
  2  3  1  0
  2  1  1  0
  3  4  2  0
  5  6  1  0
  6  7  1  0
  7  9  1  0
  7  8  1  1
  9 11  1  0
  9 10  1  6
 10  3  1  0
 11 12  2  0
 11 19  1  0
 14 13  1  0
 14 16  1  0
 15 14  2  0
 17 16  1  0
 18 17  1  1
 18 20  1  0
 19 18  1  0
 20 22  2  0
 20 21  1  0
M  END
$$$$
