GIQ.pdb
     RDKit          3D

 22 21  0  0  1  0  0  0  0  0999 V2000
   17.7420  -24.5454   -6.8119 N   0  0  0  0  0  0  0  0  0  0  0  0
   18.9286  -24.5424   -7.6349 C   0  0  0  0  0  0  0  0  0  0  0  0
   18.9184  -23.3554   -8.5517 C   0  0  0  0  0  0  0  0  0  0  0  0
   17.8921  -22.6495   -8.6339 O   0  0  0  0  0  0  0  0  0  0  0  0
   23.0505  -19.6348  -11.1963 C   0  0  0  0  0  0  0  0  0  0  0  0
   21.6663  -20.1831  -11.0686 C   0  0  0  0  0  0  0  0  0  0  0  0
   21.5596  -21.4222  -10.2066 C   0  0  2  0  0  0  0  0  0  0  0  0
   22.5099  -22.4787  -10.7615 C   0  0  0  0  0  0  0  0  0  0  0  0
   20.1191  -21.8594  -10.2180 C   0  0  2  0  0  0  0  0  0  0  0  0
   20.0630  -23.0253   -9.3275 N   0  0  0  0  0  0  0  0  0  0  0  0
   19.6012  -22.2130  -11.5594 C   0  0  0  0  0  0  0  0  0  0  0  0
   19.9579  -23.3391  -12.0500 O   0  0  0  0  0  0  0  0  0  0  0  0
   16.0994  -22.7964  -10.9918 N   0  0  0  0  0  0  0  0  0  0  0  0
   15.7270  -23.6049  -12.1551 C   0  0  0  0  0  0  0  0  0  0  0  0
   15.1626  -24.6672  -11.8261 O   0  0  0  0  0  0  0  0  0  0  0  0
   16.0347  -23.1247  -13.4964 C   0  0  0  0  0  0  0  0  0  0  0  0
   16.7780  -21.8743  -13.7043 C   0  0  0  0  0  0  0  0  0  0  0  0
   18.2511  -21.8662  -13.6752 C   0  0  2  0  0  0  0  0  0  0  0  0
   18.7599  -21.4544  -12.3582 N   0  0  0  0  0  0  0  0  0  0  0  0
   18.8271  -20.9974  -14.7225 C   0  0  0  0  0  0  0  0  0  0  0  0
   18.8866  -21.3121  -16.0586 O   0  0  0  0  0  0  0  0  0  0  0  0
   19.3144  -19.8568  -14.3781 O   0  0  0  0  0  0  0  0  0  0  0  0
  2  3  1  0
  2  1  1  0
  3  4  2  0
  5  6  1  0
  6  7  1  0
  7  9  1  0
  7  8  1  6
  9 11  1  0
  9 10  1  1
 10  3  1  0
 11 12  2  0
 11 19  1  0
 14 13  1  0
 14 16  1  0
 15 14  2  0
 17 16  1  0
 18 17  1  1
 18 20  1  0
 19 18  1  0
 20 22  2  0
 20 21  1  0
M  END
$$$$
