GIQ.pdb
     RDKit          3D

 22 21  0  0  1  0  0  0  0  0999 V2000
   20.9382  -22.2869   -6.5926 N   0  0  0  0  0  0  0  0  0  0  0  0
   22.3621  -22.4821   -6.7332 C   0  0  0  0  0  0  0  0  0  0  0  0
   22.9492  -21.4028   -7.5933 C   0  0  0  0  0  0  0  0  0  0  0  0
   22.1932  -20.5834   -8.1550 O   0  0  0  0  0  0  0  0  0  0  0  0
   27.7494  -19.4779   -6.2525 C   0  0  0  0  0  0  0  0  0  0  0  0
   26.4016  -19.5966   -6.8868 C   0  0  0  0  0  0  0  0  0  0  0  0
   26.4081  -20.2361   -8.2583 C   0  0  2  0  0  0  0  0  0  0  0  0
   27.2591  -19.3759   -9.1872 C   0  0  0  0  0  0  0  0  0  0  0  0
   24.9769  -20.3546   -8.7097 C   0  0  2  0  0  0  0  0  0  0  0  0
   24.3554  -21.3020   -7.7762 N   0  0  0  0  0  0  0  0  0  0  0  0
   24.8156  -20.8273  -10.1036 C   0  0  0  0  0  0  0  0  0  0  0  0
   25.1738  -22.0273  -10.3633 O   0  0  0  0  0  0  0  0  0  0  0  0
   20.3428  -20.4861  -15.9586 N   0  0  0  0  0  0  0  0  0  0  0  0
   20.6599  -20.5164  -14.5288 C   0  0  0  0  0  0  0  0  0  0  0  0
   19.6898  -20.1692  -13.8262 O   0  0  0  0  0  0  0  0  0  0  0  0
   21.9912  -20.9187  -14.0930 C   0  0  0  0  0  0  0  0  0  0  0  0
   22.5464  -20.4517  -12.8151 C   0  0  0  0  0  0  0  0  0  0  0  0
   23.9634  -20.6848  -12.4855 C   0  0  2  0  0  0  0  0  0  0  0  0
   24.3120  -20.1099  -11.1774 N   0  0  0  0  0  0  0  0  0  0  0  0
   24.8740  -20.1512  -13.5195 C   0  0  0  0  0  0  0  0  0  0  0  0
   25.0742  -20.7155  -14.7563 O   0  0  0  0  0  0  0  0  0  0  0  0
   25.5382  -19.0789  -13.2624 O   0  0  0  0  0  0  0  0  0  0  0  0
  2  3  1  0
  2  1  1  0
  3  4  2  0
  5  6  1  0
  6  7  1  0
  7  9  1  0
  7  8  1  6
  9 11  1  0
  9 10  1  1
 10  3  1  0
 11 12  2  0
 11 19  1  0
 14 13  1  0
 14 16  1  0
 15 14  2  0
 17 16  1  0
 18 17  1  6
 18 20  1  0
 19 18  1  0
 20 22  2  0
 20 21  1  0
M  END
$$$$
