GIQ.pdb
     RDKit          3D

 22 21  0  0  1  0  0  0  0  0999 V2000
   22.0650  -16.0778  -16.7115 N   0  0  0  0  0  0  0  0  0  0  0  0
   22.5586  -14.9124  -17.4069 C   0  0  0  0  0  0  0  0  0  0  0  0
   22.9231  -13.8400  -16.4237 C   0  0  0  0  0  0  0  0  0  0  0  0
   22.1624  -13.6006  -15.4633 O   0  0  0  0  0  0  0  0  0  0  0  0
   28.0575  -13.1557  -15.5966 C   0  0  0  0  0  0  0  0  0  0  0  0
   26.5821  -13.0699  -15.3753 C   0  0  0  0  0  0  0  0  0  0  0  0
   25.9504  -11.7800  -15.8518 C   0  0  2  0  0  0  0  0  0  0  0  0
   26.5006  -10.6337  -15.0088 C   0  0  0  0  0  0  0  0  0  0  0  0
   24.4578  -11.9360  -15.7340 C   0  0  2  0  0  0  0  0  0  0  0  0
   24.1238  -13.0936  -16.5728 N   0  0  0  0  0  0  0  0  0  0  0  0
   23.6859  -10.7489  -16.1670 C   0  0  0  0  0  0  0  0  0  0  0  0
   23.7030  -10.4579  -17.4124 O   0  0  0  0  0  0  0  0  0  0  0  0
   18.0484   -9.9664  -16.9216 N   0  0  0  0  0  0  0  0  0  0  0  0
   18.4375   -8.5560  -16.9916 C   0  0  0  0  0  0  0  0  0  0  0  0
   17.4831   -7.8223  -17.3175 O   0  0  0  0  0  0  0  0  0  0  0  0
   19.8120   -8.1708  -16.6972 C   0  0  0  0  0  0  0  0  0  0  0  0
   20.8194   -9.1736  -16.3249 C   0  0  0  0  0  0  0  0  0  0  0  0
   22.1523   -8.7562  -15.8555 C   0  0  2  0  0  0  0  0  0  0  0  0
   22.9331   -9.9030  -15.3675 N   0  0  0  0  0  0  0  0  0  0  0  0
   22.0767   -7.7239  -14.8011 C   0  0  0  0  0  0  0  0  0  0  0  0
   21.8120   -6.3938  -15.0220 O   0  0  0  0  0  0  0  0  0  0  0  0
   22.2701   -8.0762  -13.5781 O   0  0  0  0  0  0  0  0  0  0  0  0
  2  3  1  0
  2  1  1  0
  3  4  2  0
  5  6  1  0
  6  7  1  0
  7  9  1  0
  7  8  1  1
  9 11  1  0
  9 10  1  6
 10  3  1  0
 11 12  2  0
 11 19  1  0
 14 13  1  0
 14 16  1  0
 15 14  2  0
 17 16  1  0
 18 17  1  1
 18 20  1  0
 19 18  1  0
 20 22  2  0
 20 21  1  0
M  END
$$$$
