SKF.pdb
     RDKit          3D

 27 27  0  0  1  0  0  0  0  0999 V2000
    9.7190  -12.8297   19.5067 O   0  0  0  0  0  0  0  0  0  0  0  0
    9.8965  -13.9540   18.6922 C   0  0  0  0  0  0  0  0  0  0  0  0
    8.5305  -14.5502   18.4317 C   0  0  2  0  0  0  0  0  0  0  0  0
    7.6279  -13.4506   18.1749 N   0  0  0  0  0  0  0  0  0  0  0  0
    8.1007  -15.3045   19.6535 C   0  0  0  0  0  0  0  0  0  0  0  0
    7.1620  -14.8456   20.3401 O   0  0  0  0  0  0  0  0  0  0  0  0
    8.7142  -16.4943   20.0419 N   0  0  0  0  0  0  0  0  0  0  0  0
    8.1627  -17.2683   21.1552 C   0  0  1  0  0  0  0  0  0  0  0  0
    8.8181  -18.6442   21.1536 C   0  0  0  0  0  0  0  0  0  0  0  0
    8.3516  -19.4153   22.3459 C   0  0  0  0  0  0  0  0  0  0  0  0
    7.4554  -20.5825   22.0391 C   0  0  0  0  0  0  0  0  0  0  0  0
    6.9159  -21.3085   23.2315 C   0  0  0  0  0  0  0  0  0  0  0  0
    6.1882  -22.5100   22.9223 N   0  0  0  0  0  0  0  0  0  0  0  0
    8.3693  -16.4903   22.3735 C   0  0  0  0  0  0  0  0  0  0  0  0
    9.4610  -15.8195   22.4692 O   0  0  0  0  0  0  0  0  0  0  0  0
    7.5154  -16.3660   23.4806 N   0  0  0  0  0  0  0  0  0  0  0  0
    7.7190  -15.3810   24.5672 C   0  0  1  0  0  0  0  0  0  0  0  0
    6.5515  -14.4661   24.6634 C   0  0  0  0  0  0  0  0  0  0  0  0
    6.7129  -13.5165   25.7679 C   0  0  0  0  0  0  0  0  0  0  0  0
    5.9696  -13.5550   26.9384 C   0  0  0  0  0  0  0  0  0  0  0  0
    6.1160  -12.6756   27.9725 C   0  0  0  0  0  0  0  0  0  0  0  0
    7.0601  -11.6750   27.8661 C   0  0  0  0  0  0  0  0  0  0  0  0
    7.8294  -11.5776   26.7379 C   0  0  0  0  0  0  0  0  0  0  0  0
    7.6517  -12.4824   25.7187 C   0  0  0  0  0  0  0  0  0  0  0  0
    7.9900  -16.0649   25.8301 C   0  0  0  0  0  0  0  0  0  0  0  0
    7.3207  -17.0937   26.1716 O   0  0  0  0  0  0  0  0  0  0  0  0
    8.9705  -15.6178   26.6732 O   0  0  0  0  0  0  0  0  0  0  0  0
  2  1  1  0
  3  2  1  0
  3  4  1  1
  5  3  1  0
  5  6  2  0
  7  5  1  0
  8  7  1  0
  8  9  1  1
 10  9  1  0
 11 10  1  0
 12 11  1  0
 13 12  1  0
 14  8  1  0
 15 14  2  0
 16 14  1  0
 17 25  1  0
 17 16  1  0
 17 18  1  1
 19 18  1  0
 20 19  2  0
 21 20  1  0
 22 21  2  0
 22 23  1  0
 23 24  2  0
 24 19  1  0
 25 27  1  0
 26 25  2  0
M  END
$$$$
