SKF.pdb
     RDKit          3D

 27 27  0  0  1  0  0  0  0  0999 V2000
   10.1903  -13.6767   19.7803 O   0  0  0  0  0  0  0  0  0  0  0  0
    9.4550  -14.4822   18.9031 C   0  0  0  0  0  0  0  0  0  0  0  0
    7.9954  -14.1161   19.0608 C   0  0  2  0  0  0  0  0  0  0  0  0
    7.9190  -12.6728   19.0878 N   0  0  0  0  0  0  0  0  0  0  0  0
    7.4988  -14.6899   20.3533 C   0  0  0  0  0  0  0  0  0  0  0  0
    7.3922  -13.9322   21.3421 O   0  0  0  0  0  0  0  0  0  0  0  0
    7.1553  -16.0346   20.4820 N   0  0  0  0  0  0  0  0  0  0  0  0
    6.7452  -16.5600   21.7851 C   0  0  1  0  0  0  0  0  0  0  0  0
    6.2595  -17.9918   21.5935 C   0  0  0  0  0  0  0  0  0  0  0  0
    6.0023  -18.6096   22.9299 C   0  0  0  0  0  0  0  0  0  0  0  0
    5.5083  -20.0288   22.8913 C   0  0  0  0  0  0  0  0  0  0  0  0
    5.2733  -20.6633   24.2264 C   0  0  0  0  0  0  0  0  0  0  0  0
    6.4302  -20.7088   25.0797 N   0  0  0  0  0  0  0  0  0  0  0  0
    7.8792  -16.4119   22.6930 C   0  0  0  0  0  0  0  0  0  0  0  0
    9.0234  -16.8295   22.2837 O   0  0  0  0  0  0  0  0  0  0  0  0
    7.8938  -15.8566   23.9821 N   0  0  0  0  0  0  0  0  0  0  0  0
    9.1101  -15.7628   24.8212 C   0  0  1  0  0  0  0  0  0  0  0  0
    9.4107  -14.3428   25.1418 C   0  0  0  0  0  0  0  0  0  0  0  0
    8.2178  -13.6471   25.6326 C   0  0  0  0  0  0  0  0  0  0  0  0
    7.8730  -13.5505   26.9726 C   0  0  0  0  0  0  0  0  0  0  0  0
    6.7650  -12.9021   27.4375 C   0  0  0  0  0  0  0  0  0  0  0  0
    5.9194  -12.2963   26.5309 C   0  0  0  0  0  0  0  0  0  0  0  0
    6.1988  -12.3524   25.1918 C   0  0  0  0  0  0  0  0  0  0  0  0
    7.3243  -13.0149   24.7636 C   0  0  0  0  0  0  0  0  0  0  0  0
    8.9637  -16.5810   26.0233 C   0  0  0  0  0  0  0  0  0  0  0  0
    7.8528  -17.1394   26.3011 O   0  0  0  0  0  0  0  0  0  0  0  0
   10.0169  -16.7686   26.8762 O   0  0  0  0  0  0  0  0  0  0  0  0
  2  1  1  0
  3  2  1  0
  3  4  1  1
  5  3  1  0
  5  6  2  0
  7  5  1  0
  8  7  1  0
  8  9  1  6
 10  9  1  0
 11 10  1  0
 12 11  1  0
 13 12  1  0
 14  8  1  0
 15 14  2  0
 16 14  1  0
 17 25  1  0
 17 16  1  0
 17 18  1  1
 19 18  1  0
 20 19  2  0
 21 20  1  0
 22 21  2  0
 22 23  1  0
 23 24  2  0
 24 19  1  0
 25 27  1  0
 26 25  2  0
M  END
$$$$
