SKF.pdb
     RDKit          3D

 27 27  0  0  1  0  0  0  0  0999 V2000
    9.7302  -13.5733   20.6827 O   0  0  0  0  0  0  0  0  0  0  0  0
    9.1575  -14.1793   19.5586 C   0  0  0  0  0  0  0  0  0  0  0  0
    7.6573  -14.1831   19.7557 C   0  0  2  0  0  0  0  0  0  0  0  0
    7.2274  -12.8031   19.7798 N   0  0  0  0  0  0  0  0  0  0  0  0
    7.3519  -14.8484   21.0637 C   0  0  0  0  0  0  0  0  0  0  0  0
    6.7488  -14.1932   21.9413 O   0  0  0  0  0  0  0  0  0  0  0  0
    7.7190  -16.1672   21.3261 N   0  0  0  0  0  0  0  0  0  0  0  0
    7.1147  -16.8810   22.4520 C   0  0  1  0  0  0  0  0  0  0  0  0
    7.0385  -18.3609   22.0961 C   0  0  0  0  0  0  0  0  0  0  0  0
    6.5389  -19.1283   23.2772 C   0  0  0  0  0  0  0  0  0  0  0  0
    6.5049  -20.6207   23.0995 C   0  0  0  0  0  0  0  0  0  0  0  0
    6.0062  -21.3964   24.2784 C   0  0  0  0  0  0  0  0  0  0  0  0
    6.7773  -21.2214   25.4799 N   0  0  0  0  0  0  0  0  0  0  0  0
    7.9064  -16.5744   23.6399 C   0  0  0  0  0  0  0  0  0  0  0  0
    9.1751  -16.4401   23.4871 O   0  0  0  0  0  0  0  0  0  0  0  0
    7.4609  -16.3955   24.9590 N   0  0  0  0  0  0  0  0  0  0  0  0
    8.3636  -16.1177   26.0992 C   0  0  1  0  0  0  0  0  0  0  0  0
    7.6552  -15.3295   27.1415 C   0  0  0  0  0  0  0  0  0  0  0  0
    7.3759  -13.9679   26.6767 C   0  0  0  0  0  0  0  0  0  0  0  0
    6.1272  -13.5322   26.2587 C   0  0  0  0  0  0  0  0  0  0  0  0
    5.8588  -12.2650   25.8269 C   0  0  0  0  0  0  0  0  0  0  0  0
    6.8837  -11.3416   25.7967 C   0  0  0  0  0  0  0  0  0  0  0  0
    8.1423  -11.7035   26.1955 C   0  0  0  0  0  0  0  0  0  0  0  0
    8.3721  -12.9891   26.6237 C   0  0  0  0  0  0  0  0  0  0  0  0
    8.9138  -17.3640   26.6284 C   0  0  0  0  0  0  0  0  0  0  0  0
    8.4681  -18.4917   26.2377 O   0  0  0  0  0  0  0  0  0  0  0  0
    9.9220  -17.3484   27.5532 O   0  0  0  0  0  0  0  0  0  0  0  0
  2  1  1  0
  3  2  1  0
  3  4  1  1
  5  3  1  0
  5  6  2  0
  7  5  1  0
  8  7  1  0
  8  9  1  6
 10  9  1  0
 11 10  1  0
 12 11  1  0
 13 12  1  0
 14  8  1  0
 15 14  2  0
 16 14  1  0
 17 25  1  0
 17 16  1  0
 17 18  1  1
 19 18  1  0
 20 19  2  0
 21 20  1  0
 22 21  2  0
 22 23  1  0
 23 24  2  0
 24 19  1  0
 25 27  1  0
 26 25  2  0
M  END
$$$$
