SKF.pdb
     RDKit          3D

 27 27  0  0  1  0  0  0  0  0999 V2000
   10.3656  -12.4783   19.5727 O   0  0  0  0  0  0  0  0  0  0  0  0
    9.9416  -13.8098   19.4944 C   0  0  0  0  0  0  0  0  0  0  0  0
    8.4287  -13.8102   19.5210 C   0  0  2  0  0  0  0  0  0  0  0  0
    8.0014  -12.4305   19.4614 N   0  0  0  0  0  0  0  0  0  0  0  0
    7.9765  -14.4424   20.8026 C   0  0  0  0  0  0  0  0  0  0  0  0
    7.5512  -13.7028   21.7165 O   0  0  0  0  0  0  0  0  0  0  0  0
    8.0168  -15.8213   21.0015 N   0  0  0  0  0  0  0  0  0  0  0  0
    7.4034  -16.4029   22.1966 C   0  0  1  0  0  0  0  0  0  0  0  0
    7.1464  -17.8816   21.9322 C   0  0  0  0  0  0  0  0  0  0  0  0
    6.3096  -18.0258   20.7024 C   0  0  0  0  0  0  0  0  0  0  0  0
    5.9565  -19.4399   20.3341 C   0  0  0  0  0  0  0  0  0  0  0  0
    5.1406  -19.5944   19.0889 C   0  0  0  0  0  0  0  0  0  0  0  0
    4.9188  -20.9564   18.6835 N   0  0  0  0  0  0  0  0  0  0  0  0
    8.2901  -16.1247   23.3228 C   0  0  0  0  0  0  0  0  0  0  0  0
    9.5442  -16.0008   23.0720 O   0  0  0  0  0  0  0  0  0  0  0  0
    7.9525  -15.9640   24.6757 N   0  0  0  0  0  0  0  0  0  0  0  0
    8.9396  -15.6631   25.7374 C   0  0  1  0  0  0  0  0  0  0  0  0
    8.2662  -15.0541   26.9143 C   0  0  0  0  0  0  0  0  0  0  0  0
    7.5058  -13.8614   26.5304 C   0  0  0  0  0  0  0  0  0  0  0  0
    6.1219  -13.7778   26.5715 C   0  0  0  0  0  0  0  0  0  0  0  0
    5.4069  -12.6697   26.2180 C   0  0  0  0  0  0  0  0  0  0  0  0
    6.0867  -11.5484   25.7886 C   0  0  0  0  0  0  0  0  0  0  0  0
    7.4541  -11.5609   25.7232 C   0  0  0  0  0  0  0  0  0  0  0  0
    8.1377  -12.6961   26.0879 C   0  0  0  0  0  0  0  0  0  0  0  0
    9.6890  -16.8668   26.0920 C   0  0  0  0  0  0  0  0  0  0  0  0
   10.6458  -16.8159   26.9316 O   0  0  0  0  0  0  0  0  0  0  0  0
    9.3783  -18.0762   25.5328 O   0  0  0  0  0  0  0  0  0  0  0  0
  2  1  1  0
  3  2  1  0
  3  4  1  1
  5  3  1  0
  5  6  2  0
  7  5  1  0
  8  7  1  0
  8  9  1  6
 10  9  1  0
 11 10  1  0
 12 11  1  0
 13 12  1  0
 14  8  1  0
 15 14  2  0
 16 14  1  0
 17 25  1  0
 17 16  1  0
 17 18  1  1
 19 18  1  0
 20 19  2  0
 21 20  1  0
 22 21  2  0
 22 23  1  0
 23 24  2  0
 24 19  1  0
 25 27  1  0
 26 25  2  0
M  END
$$$$
