SKF.pdb
     RDKit          3D

 27 27  0  0  1  0  0  0  0  0999 V2000
    6.1637  -19.6158   24.9163 O   0  0  0  0  0  0  0  0  0  0  0  0
    5.0951  -19.0438   24.2164 C   0  0  0  0  0  0  0  0  0  0  0  0
    5.3691  -19.2210   22.7389 C   0  0  2  0  0  0  0  0  0  0  0  0
    5.7873  -20.5910   22.5447 N   0  0  0  0  0  0  0  0  0  0  0  0
    6.4655  -18.2788   22.3429 C   0  0  0  0  0  0  0  0  0  0  0  0
    7.6342  -18.7173   22.2725 O   0  0  0  0  0  0  0  0  0  0  0  0
    6.2195  -16.9378   22.0532 N   0  0  0  0  0  0  0  0  0  0  0  0
    7.3348  -16.0454   21.7335 C   0  0  1  0  0  0  0  0  0  0  0  0
    6.7849  -14.8436   20.9746 C   0  0  0  0  0  0  0  0  0  0  0  0
    7.9144  -13.9458   20.5852 C   0  0  0  0  0  0  0  0  0  0  0  0
    7.5213  -12.7415   19.7759 C   0  0  0  0  0  0  0  0  0  0  0  0
    8.4467  -12.3931   18.6523 C   0  0  0  0  0  0  0  0  0  0  0  0
    8.7961  -13.4977   17.8000 N   0  0  0  0  0  0  0  0  0  0  0  0
    8.0109  -15.7239   22.9872 C   0  0  0  0  0  0  0  0  0  0  0  0
    7.3912  -14.9614   23.8151 O   0  0  0  0  0  0  0  0  0  0  0  0
    9.2745  -16.1485   23.4269 N   0  0  0  0  0  0  0  0  0  0  0  0
    9.9386  -15.6255   24.6425 C   0  0  1  0  0  0  0  0  0  0  0  0
    9.0489  -15.7736   25.8239 C   0  0  0  0  0  0  0  0  0  0  0  0
    9.5852  -15.0557   26.9837 C   0  0  0  0  0  0  0  0  0  0  0  0
    9.6315  -13.6733   27.0863 C   0  0  0  0  0  0  0  0  0  0  0  0
   10.1272  -12.9976   28.1642 C   0  0  0  0  0  0  0  0  0  0  0  0
   10.6195  -13.7189   29.2325 C   0  0  0  0  0  0  0  0  0  0  0  0
   10.6050  -15.0874   29.1985 C   0  0  0  0  0  0  0  0  0  0  0  0
   10.0975  -15.7306   28.0951 C   0  0  0  0  0  0  0  0  0  0  0  0
   11.2304  -16.2803   24.8387 C   0  0  0  0  0  0  0  0  0  0  0  0
   12.2751  -15.5981   25.0962 O   0  0  0  0  0  0  0  0  0  0  0  0
   11.3469  -17.6408   24.7534 O   0  0  0  0  0  0  0  0  0  0  0  0
  2  1  1  0
  3  2  1  0
  3  4  1  1
  5  3  1  0
  5  6  2  0
  7  5  1  0
  8  7  1  0
  8  9  1  1
 10  9  1  0
 11 10  1  0
 12 11  1  0
 13 12  1  0
 14  8  1  0
 15 14  2  0
 16 14  1  0
 17 25  1  0
 17 16  1  0
 17 18  1  1
 19 18  1  0
 20 19  2  0
 21 20  1  0
 22 21  2  0
 22 23  1  0
 23 24  2  0
 24 19  1  0
 25 27  1  0
 26 25  2  0
M  END
$$$$
