SKF.pdb
     RDKit          3D

 27 27  0  0  1  0  0  0  0  0999 V2000
    9.0565  -21.0928   22.6397 O   0  0  0  0  0  0  0  0  0  0  0  0
    7.8922  -20.8178   21.9133 C   0  0  0  0  0  0  0  0  0  0  0  0
    8.2752  -19.9162   20.7601 C   0  0  2  0  0  0  0  0  0  0  0  0
    9.4878  -20.4527   20.1844 N   0  0  0  0  0  0  0  0  0  0  0  0
    8.5165  -18.5371   21.2954 C   0  0  0  0  0  0  0  0  0  0  0  0
    9.6963  -18.1606   21.4674 O   0  0  0  0  0  0  0  0  0  0  0  0
    7.4699  -17.6700   21.6042 N   0  0  0  0  0  0  0  0  0  0  0  0
    7.7608  -16.3011   22.0333 C   0  0  1  0  0  0  0  0  0  0  0  0
    6.5540  -15.4296   21.7068 C   0  0  0  0  0  0  0  0  0  0  0  0
    7.0209  -14.0641   21.3184 C   0  0  0  0  0  0  0  0  0  0  0  0
    7.5010  -13.9344   19.8998 C   0  0  0  0  0  0  0  0  0  0  0  0
    8.1202  -12.6176   19.5494 C   0  0  0  0  0  0  0  0  0  0  0  0
    8.7339  -12.5715   18.2494 N   0  0  0  0  0  0  0  0  0  0  0  0
    8.1171  -16.3528   23.4484 C   0  0  0  0  0  0  0  0  0  0  0  0
    7.5628  -17.2637   24.1653 O   0  0  0  0  0  0  0  0  0  0  0  0
    9.0089  -15.5273   24.1508 N   0  0  0  0  0  0  0  0  0  0  0  0
    9.3403  -15.7084   25.5824 C   0  0  1  0  0  0  0  0  0  0  0  0
    9.4711  -14.3896   26.2555 C   0  0  0  0  0  0  0  0  0  0  0  0
    8.2435  -13.6009   26.1174 C   0  0  0  0  0  0  0  0  0  0  0  0
    7.8607  -12.9609   24.9479 C   0  0  0  0  0  0  0  0  0  0  0  0
    6.7177  -12.2268   24.8109 C   0  0  0  0  0  0  0  0  0  0  0  0
    5.8740  -12.1007   25.8955 C   0  0  0  0  0  0  0  0  0  0  0  0
    6.1901  -12.7065   27.0818 C   0  0  0  0  0  0  0  0  0  0  0  0
    7.3501  -13.4371   27.1795 C   0  0  0  0  0  0  0  0  0  0  0  0
    8.3475  -16.5629   26.2307 C   0  0  0  0  0  0  0  0  0  0  0  0
    7.2330  -16.8123   25.6659 O   0  0  0  0  0  0  0  0  0  0  0  0
    8.5931  -17.1170   27.4573 O   0  0  0  0  0  0  0  0  0  0  0  0
  2  1  1  0
  3  2  1  0
  3  4  1  1
  5  3  1  0
  5  6  2  0
  7  5  1  0
  8  7  1  0
  8  9  1  1
 10  9  1  0
 11 10  1  0
 12 11  1  0
 13 12  1  0
 14  8  1  0
 15 14  2  0
 16 14  1  0
 17 25  1  0
 17 16  1  0
 17 18  1  1
 19 18  1  0
 20 19  2  0
 21 20  1  0
 22 21  2  0
 22 23  1  0
 23 24  2  0
 24 19  1  0
 25 27  1  0
 26 25  2  0
M  END
$$$$
