SKF.pdb
     RDKit          3D

 27 27  0  0  1  0  0  0  0  0999 V2000
   11.4854  -17.1586   17.5393 O   0  0  0  0  0  0  0  0  0  0  0  0
   10.5663  -17.0038   18.5835 C   0  0  0  0  0  0  0  0  0  0  0  0
    9.8092  -18.3064   18.7230 C   0  0  2  0  0  0  0  0  0  0  0  0
    8.9035  -18.3949   17.5998 N   0  0  0  0  0  0  0  0  0  0  0  0
    9.0429  -18.2747   20.0108 C   0  0  0  0  0  0  0  0  0  0  0  0
    7.8810  -17.8131   20.0040 O   0  0  0  0  0  0  0  0  0  0  0  0
    9.5862  -18.7423   21.2062 N   0  0  0  0  0  0  0  0  0  0  0  0
    8.7432  -18.8439   22.3986 C   0  0  1  0  0  0  0  0  0  0  0  0
    9.2079  -20.0451   23.2133 C   0  0  0  0  0  0  0  0  0  0  0  0
    8.3835  -20.1486   24.4555 C   0  0  0  0  0  0  0  0  0  0  0  0
    8.6642  -21.3546   25.3079 C   0  0  0  0  0  0  0  0  0  0  0  0
    7.7392  -21.5501   26.4682 C   0  0  0  0  0  0  0  0  0  0  0  0
    8.1230  -22.6037   27.3690 N   0  0  0  0  0  0  0  0  0  0  0  0
    8.8158  -17.5630   23.0959 C   0  0  0  0  0  0  0  0  0  0  0  0
    9.9778  -17.0349   23.2442 O   0  0  0  0  0  0  0  0  0  0  0  0
    7.7638  -16.8063   23.6353 N   0  0  0  0  0  0  0  0  0  0  0  0
    7.9585  -15.5280   24.3566 C   0  0  1  0  0  0  0  0  0  0  0  0
    6.6540  -14.8472   24.5670 C   0  0  0  0  0  0  0  0  0  0  0  0
    6.8293  -13.5730   25.2695 C   0  0  0  0  0  0  0  0  0  0  0  0
    7.3189  -12.4201   24.6737 C   0  0  0  0  0  0  0  0  0  0  0  0
    7.4826  -11.2291   25.3208 C   0  0  0  0  0  0  0  0  0  0  0  0
    7.1446  -11.1455   26.6560 C   0  0  0  0  0  0  0  0  0  0  0  0
    6.6550  -12.2455   27.3076 C   0  0  0  0  0  0  0  0  0  0  0  0
    6.5049  -13.4265   26.6210 C   0  0  0  0  0  0  0  0  0  0  0  0
    8.6713  -15.7553   25.6122 C   0  0  0  0  0  0  0  0  0  0  0  0
    9.6588  -15.0218   25.9438 O   0  0  0  0  0  0  0  0  0  0  0  0
    8.2926  -16.7588   26.4616 O   0  0  0  0  0  0  0  0  0  0  0  0
  2  1  1  0
  3  2  1  0
  3  4  1  6
  5  3  1  0
  5  6  2  0
  7  5  1  0
  8  7  1  0
  8  9  1  1
 10  9  1  0
 11 10  1  0
 12 11  1  0
 13 12  1  0
 14  8  1  0
 15 14  2  0
 16 14  1  0
 17 25  1  0
 17 16  1  0
 17 18  1  1
 19 18  1  0
 20 19  2  0
 21 20  1  0
 22 21  2  0
 22 23  1  0
 23 24  2  0
 24 19  1  0
 25 27  1  0
 26 25  2  0
M  END
$$$$
