SKF.pdb
     RDKit          3D

 27 27  0  0  1  0  0  0  0  0999 V2000
    6.7811  -19.3924   24.9212 O   0  0  0  0  0  0  0  0  0  0  0  0
    5.6678  -18.8752   24.2488 C   0  0  0  0  0  0  0  0  0  0  0  0
    5.9818  -18.8863   22.7687 C   0  0  2  0  0  0  0  0  0  0  0  0
    6.3836  -20.2326   22.4287 N   0  0  0  0  0  0  0  0  0  0  0  0
    7.1042  -17.9260   22.5141 C   0  0  0  0  0  0  0  0  0  0  0  0
    8.2480  -18.3853   22.3042 O   0  0  0  0  0  0  0  0  0  0  0  0
    6.9091  -16.5459   22.5052 N   0  0  0  0  0  0  0  0  0  0  0  0
    8.0545  -15.6496   22.3409 C   0  0  1  0  0  0  0  0  0  0  0  0
    7.5744  -14.3803   21.6473 C   0  0  0  0  0  0  0  0  0  0  0  0
    8.4241  -14.1222   20.4452 C   0  0  0  0  0  0  0  0  0  0  0  0
    7.7950  -13.2485   19.3960 C   0  0  0  0  0  0  0  0  0  0  0  0
    8.6326  -13.0002   18.1808 C   0  0  0  0  0  0  0  0  0  0  0  0
    7.9474  -12.3310   17.1078 N   0  0  0  0  0  0  0  0  0  0  0  0
    8.6420  -15.4438   23.6617 C   0  0  0  0  0  0  0  0  0  0  0  0
    9.2689  -14.3408   23.8652 O   0  0  0  0  0  0  0  0  0  0  0  0
    8.6106  -16.3040   24.7705 N   0  0  0  0  0  0  0  0  0  0  0  0
    9.1664  -15.9529   26.0971 C   0  0  1  0  0  0  0  0  0  0  0  0
    8.0792  -15.5359   27.0211 C   0  0  0  0  0  0  0  0  0  0  0  0
    7.6481  -14.1625   26.7453 C   0  0  0  0  0  0  0  0  0  0  0  0
    8.4873  -13.0597   26.8050 C   0  0  0  0  0  0  0  0  0  0  0  0
    8.0937  -11.7781   26.5471 C   0  0  0  0  0  0  0  0  0  0  0  0
    6.7785  -11.5427   26.2025 C   0  0  0  0  0  0  0  0  0  0  0  0
    5.8948  -12.5854   26.1246 C   0  0  0  0  0  0  0  0  0  0  0  0
    6.3300  -13.8614   26.3918 C   0  0  0  0  0  0  0  0  0  0  0  0
    9.9488  -17.0655   26.6320 C   0  0  0  0  0  0  0  0  0  0  0  0
   10.5345  -16.9686   27.7593 O   0  0  0  0  0  0  0  0  0  0  0  0
   10.0678  -18.2374   25.9360 O   0  0  0  0  0  0  0  0  0  0  0  0
  2  1  1  0
  3  2  1  0
  3  4  1  1
  5  3  1  0
  5  6  2  0
  7  5  1  0
  8  7  1  0
  8  9  1  1
 10  9  1  0
 11 10  1  0
 12 11  1  0
 13 12  1  0
 14  8  1  0
 15 14  2  0
 16 14  1  0
 17 25  1  0
 17 16  1  0
 17 18  1  1
 19 18  1  0
 20 19  2  0
 21 20  1  0
 22 21  2  0
 22 23  1  0
 23 24  2  0
 24 19  1  0
 25 27  1  0
 26 25  2  0
M  END
$$$$
