SKF.pdb
     RDKit          3D

 27 27  0  0  1  0  0  0  0  0999 V2000
    9.8835  -13.4608   20.3111 O   0  0  0  0  0  0  0  0  0  0  0  0
    9.1615  -14.4011   19.5671 C   0  0  0  0  0  0  0  0  0  0  0  0
    7.6904  -14.1459   19.8121 C   0  0  2  0  0  0  0  0  0  0  0  0
    7.5244  -12.7173   19.9577 N   0  0  0  0  0  0  0  0  0  0  0  0
    7.2899  -14.8497   21.0733 C   0  0  0  0  0  0  0  0  0  0  0  0
    6.7650  -14.1812   21.9902 O   0  0  0  0  0  0  0  0  0  0  0  0
    7.4853  -16.2184   21.2504 N   0  0  0  0  0  0  0  0  0  0  0  0
    6.9414  -16.8843   22.4350 C   0  0  1  0  0  0  0  0  0  0  0  0
    6.8637  -18.3797   22.1512 C   0  0  0  0  0  0  0  0  0  0  0  0
    6.3952  -19.0921   23.3786 C   0  0  0  0  0  0  0  0  0  0  0  0
    6.3598  -20.5911   23.2708 C   0  0  0  0  0  0  0  0  0  0  0  0
    5.8508  -21.3099   24.4809 C   0  0  0  0  0  0  0  0  0  0  0  0
    5.6515  -22.7227   24.2985 N   0  0  0  0  0  0  0  0  0  0  0  0
    7.7846  -16.5169   23.5691 C   0  0  0  0  0  0  0  0  0  0  0  0
    9.0518  -16.4499   23.3671 O   0  0  0  0  0  0  0  0  0  0  0  0
    7.3917  -16.2132   24.8820 N   0  0  0  0  0  0  0  0  0  0  0  0
    8.3447  -15.9225   25.9771 C   0  0  1  0  0  0  0  0  0  0  0  0
    7.6909  -15.1009   27.0292 C   0  0  0  0  0  0  0  0  0  0  0  0
    7.3639  -13.7628   26.5287 C   0  0  0  0  0  0  0  0  0  0  0  0
    6.0698  -13.2997   26.3423 C   0  0  0  0  0  0  0  0  0  0  0  0
    5.7574  -12.0539   25.8790 C   0  0  0  0  0  0  0  0  0  0  0  0
    6.7819  -11.1829   25.5698 C   0  0  0  0  0  0  0  0  0  0  0  0
    8.0840  -11.5743   25.7297 C   0  0  0  0  0  0  0  0  0  0  0  0
    8.3574  -12.8368   26.1988 C   0  0  0  0  0  0  0  0  0  0  0  0
    8.8999  -17.1642   26.5120 C   0  0  0  0  0  0  0  0  0  0  0  0
    8.4494  -18.2952   26.1364 O   0  0  0  0  0  0  0  0  0  0  0  0
    9.9179  -17.1407   27.4257 O   0  0  0  0  0  0  0  0  0  0  0  0
  2  1  1  0
  3  2  1  0
  3  4  1  1
  5  3  1  0
  5  6  2  0
  7  5  1  0
  8  7  1  0
  8  9  1  6
 10  9  1  0
 11 10  1  0
 12 11  1  0
 13 12  1  0
 14  8  1  0
 15 14  2  0
 16 14  1  0
 17 25  1  0
 17 16  1  0
 17 18  1  1
 19 18  1  0
 20 19  2  0
 21 20  1  0
 22 21  2  0
 22 23  1  0
 23 24  2  0
 24 19  1  0
 25 27  1  0
 26 25  2  0
M  END
$$$$
