SKF.pdb
     RDKit          3D

 27 27  0  0  1  0  0  0  0  0999 V2000
    9.5218  -12.3442   20.4748 O   0  0  0  0  0  0  0  0  0  0  0  0
    8.2276  -12.4242   19.9480 C   0  0  0  0  0  0  0  0  0  0  0  0
    8.0513  -13.8144   19.3775 C   0  0  2  0  0  0  0  0  0  0  0  0
    6.7561  -13.8506   18.7366 N   0  0  0  0  0  0  0  0  0  0  0  0
    8.1041  -14.8006   20.5049 C   0  0  0  0  0  0  0  0  0  0  0  0
    7.0601  -15.0197   21.1570 O   0  0  0  0  0  0  0  0  0  0  0  0
    9.2762  -15.4747   20.8436 N   0  0  0  0  0  0  0  0  0  0  0  0
    9.2638  -16.4566   21.9290 C   0  0  1  0  0  0  0  0  0  0  0  0
   10.1353  -17.6372   21.5175 C   0  0  0  0  0  0  0  0  0  0  0  0
    9.3793  -18.4993   20.5589 C   0  0  0  0  0  0  0  0  0  0  0  0
   10.1379  -18.8947   19.3228 C   0  0  0  0  0  0  0  0  0  0  0  0
    9.4190  -19.8277   18.3993 C   0  0  0  0  0  0  0  0  0  0  0  0
    9.1045  -21.1102   18.9694 N   0  0  0  0  0  0  0  0  0  0  0  0
    9.6924  -15.7704   23.1445 C   0  0  0  0  0  0  0  0  0  0  0  0
   10.9551  -15.7058   23.3738 O   0  0  0  0  0  0  0  0  0  0  0  0
    8.8954  -15.1502   24.1194 N   0  0  0  0  0  0  0  0  0  0  0  0
    9.0173  -15.4179   25.5706 C   0  0  1  0  0  0  0  0  0  0  0  0
    7.6888  -15.3181   26.2298 C   0  0  0  0  0  0  0  0  0  0  0  0
    7.2251  -13.9286   26.2783 C   0  0  0  0  0  0  0  0  0  0  0  0
    8.0587  -12.8280   26.1453 C   0  0  0  0  0  0  0  0  0  0  0  0
    7.6339  -11.5311   26.1869 C   0  0  0  0  0  0  0  0  0  0  0  0
    6.2905  -11.2769   26.3726 C   0  0  0  0  0  0  0  0  0  0  0  0
    5.4105  -12.3164   26.5113 C   0  0  0  0  0  0  0  0  0  0  0  0
    5.8775  -13.6081   26.4637 C   0  0  0  0  0  0  0  0  0  0  0  0
    9.6501  -16.7156   25.7975 C   0  0  0  0  0  0  0  0  0  0  0  0
    9.3190  -17.7328   25.1055 O   0  0  0  0  0  0  0  0  0  0  0  0
   10.6144  -16.8674   26.7561 O   0  0  0  0  0  0  0  0  0  0  0  0
  2  1  1  0
  3  2  1  0
  3  4  1  1
  5  3  1  0
  5  6  2  0
  7  5  1  0
  8  7  1  0
  8  9  1  6
 10  9  1  0
 11 10  1  0
 12 11  1  0
 13 12  1  0
 14  8  1  0
 15 14  2  0
 16 14  1  0
 17 25  1  0
 17 16  1  0
 17 18  1  6
 19 18  1  0
 20 19  2  0
 21 20  1  0
 22 21  2  0
 22 23  1  0
 23 24  2  0
 24 19  1  0
 25 27  1  0
 26 25  2  0
M  END
$$$$
