SKF.pdb
     RDKit          3D

 27 27  0  0  1  0  0  0  0  0999 V2000
    9.8794  -13.7663   19.0013 O   0  0  0  0  0  0  0  0  0  0  0  0
    9.1320  -13.6631   20.1801 C   0  0  0  0  0  0  0  0  0  0  0  0
    7.7797  -14.2902   19.9205 C   0  0  2  0  0  0  0  0  0  0  0  0
    6.9133  -13.2443   19.4255 N   0  0  0  0  0  0  0  0  0  0  0  0
    7.2534  -14.8364   21.2132 C   0  0  0  0  0  0  0  0  0  0  0  0
    6.6725  -14.0568   21.9994 O   0  0  0  0  0  0  0  0  0  0  0  0
    7.3929  -16.1792   21.5601 N   0  0  0  0  0  0  0  0  0  0  0  0
    6.7166  -16.6980   22.7501 C   0  0  1  0  0  0  0  0  0  0  0  0
    6.3077  -18.1407   22.4784 C   0  0  0  0  0  0  0  0  0  0  0  0
    5.1452  -18.1566   21.5393 C   0  0  0  0  0  0  0  0  0  0  0  0
    4.6040  -19.5218   21.2182 C   0  0  0  0  0  0  0  0  0  0  0  0
    3.4700  -19.5496   20.2418 C   0  0  0  0  0  0  0  0  0  0  0  0
    2.9671  -20.8642   19.9454 N   0  0  0  0  0  0  0  0  0  0  0  0
    7.6223  -16.5183   23.8812 C   0  0  0  0  0  0  0  0  0  0  0  0
    8.8834  -16.5992   23.6482 O   0  0  0  0  0  0  0  0  0  0  0  0
    7.2977  -16.2567   25.2215 N   0  0  0  0  0  0  0  0  0  0  0  0
    8.3057  -16.1093   26.2960 C   0  0  1  0  0  0  0  0  0  0  0  0
    7.7710  -15.2653   27.3965 C   0  0  0  0  0  0  0  0  0  0  0  0
    7.3931  -13.9361   26.9083 C   0  0  0  0  0  0  0  0  0  0  0  0
    6.0827  -13.4967   26.7916 C   0  0  0  0  0  0  0  0  0  0  0  0
    5.7231  -12.2593   26.3402 C   0  0  0  0  0  0  0  0  0  0  0  0
    6.7133  -11.3724   25.9705 C   0  0  0  0  0  0  0  0  0  0  0  0
    8.0290  -11.7400   26.0600 C   0  0  0  0  0  0  0  0  0  0  0  0
    8.3502  -12.9949   26.5195 C   0  0  0  0  0  0  0  0  0  0  0  0
    8.7416  -17.4218   26.7688 C   0  0  0  0  0  0  0  0  0  0  0  0
    9.6803  -17.5286   27.6234 O   0  0  0  0  0  0  0  0  0  0  0  0
    8.1496  -18.5655   26.3068 O   0  0  0  0  0  0  0  0  0  0  0  0
  2  1  1  0
  3  2  1  0
  3  4  1  1
  5  3  1  0
  5  6  2  0
  7  5  1  0
  8  7  1  0
  8  9  1  6
 10  9  1  0
 11 10  1  0
 12 11  1  0
 13 12  1  0
 14  8  1  0
 15 14  2  0
 16 14  1  0
 17 25  1  0
 17 16  1  0
 17 18  1  1
 19 18  1  0
 20 19  2  0
 21 20  1  0
 22 21  2  0
 22 23  1  0
 23 24  2  0
 24 19  1  0
 25 27  1  0
 26 25  2  0
M  END
$$$$
