SKF.pdb
     RDKit          3D

 27 27  0  0  1  0  0  0  0  0999 V2000
   10.1358  -13.0533   20.3684 O   0  0  0  0  0  0  0  0  0  0  0  0
    9.6390  -13.8148   19.3044 C   0  0  0  0  0  0  0  0  0  0  0  0
    8.1286  -13.7437   19.3574 C   0  0  2  0  0  0  0  0  0  0  0  0
    7.7694  -12.3442   19.4027 N   0  0  0  0  0  0  0  0  0  0  0  0
    7.6635  -14.4430   20.5989 C   0  0  0  0  0  0  0  0  0  0  0  0
    7.1150  -13.7667   21.4961 O   0  0  0  0  0  0  0  0  0  0  0  0
    7.8246  -15.8157   20.7789 N   0  0  0  0  0  0  0  0  0  0  0  0
    7.1979  -16.4785   21.9236 C   0  0  1  0  0  0  0  0  0  0  0  0
    7.0111  -17.9518   21.5814 C   0  0  0  0  0  0  0  0  0  0  0  0
    6.0569  -18.0765   20.4379 C   0  0  0  0  0  0  0  0  0  0  0  0
    5.8620  -19.4743   19.9202 C   0  0  0  0  0  0  0  0  0  0  0  0
    4.9902  -19.5948   18.7096 C   0  0  0  0  0  0  0  0  0  0  0  0
    4.7753  -20.9435   18.2583 N   0  0  0  0  0  0  0  0  0  0  0  0
    8.0358  -16.2201   23.0912 C   0  0  0  0  0  0  0  0  0  0  0  0
    9.3036  -16.1311   22.9018 O   0  0  0  0  0  0  0  0  0  0  0  0
    7.6370  -16.0449   24.4256 N   0  0  0  0  0  0  0  0  0  0  0  0
    8.5856  -15.8806   25.5505 C   0  0  1  0  0  0  0  0  0  0  0  0
    7.9116  -15.2347   26.7072 C   0  0  0  0  0  0  0  0  0  0  0  0
    7.5191  -13.8587   26.3901 C   0  0  0  0  0  0  0  0  0  0  0  0
    6.2572  -13.3368   26.6332 C   0  0  0  0  0  0  0  0  0  0  0  0
    5.8850  -12.0557   26.3430 C   0  0  0  0  0  0  0  0  0  0  0  0
    6.8104  -11.2079   25.7696 C   0  0  0  0  0  0  0  0  0  0  0  0
    8.0756  -11.6569   25.5018 C   0  0  0  0  0  0  0  0  0  0  0  0
    8.4116  -12.9537   25.8089 C   0  0  0  0  0  0  0  0  0  0  0  0
    9.1810  -17.1671   25.9065 C   0  0  0  0  0  0  0  0  0  0  0  0
    8.7440  -18.2509   25.3992 O   0  0  0  0  0  0  0  0  0  0  0  0
   10.2231  -17.2367   26.7903 O   0  0  0  0  0  0  0  0  0  0  0  0
  2  1  1  0
  3  2  1  0
  3  4  1  1
  5  3  1  0
  5  6  2  0
  7  5  1  0
  8  7  1  0
  8  9  1  6
 10  9  1  0
 11 10  1  0
 12 11  1  0
 13 12  1  0
 14  8  1  0
 15 14  2  0
 16 14  1  0
 17 25  1  0
 17 16  1  0
 17 18  1  1
 19 18  1  0
 20 19  2  0
 21 20  1  0
 22 21  2  0
 22 23  1  0
 23 24  2  0
 24 19  1  0
 25 27  1  0
 26 25  2  0
M  END
$$$$
