DQT.pdb
     RDKit          3D

 25 24  0  0  1  0  0  0  0  0999 V2000
   10.3496  -18.9465   20.4231 N   0  0  0  0  0  0  0  0  0  0  0  0
   10.2123  -17.5419   20.6598 C   0  0  1  0  0  0  0  0  0  0  0  0
    9.5330  -16.9334   19.4478 C   0  0  0  0  0  0  0  0  0  0  0  0
   10.5741  -16.7681   18.3947 C   0  0  0  0  0  0  0  0  0  0  0  0
   11.7577  -17.0900   18.6306 O   0  0  0  0  0  0  0  0  0  0  0  0
    9.4364  -17.2453   21.8992 C   0  0  0  0  0  0  0  0  0  0  0  0
    8.1972  -17.1657   21.8357 O   0  0  0  0  0  0  0  0  0  0  0  0
   10.2732  -16.2567   17.1273 O   0  0  0  0  0  0  0  0  0  0  0  0
   11.5022  -19.1388   27.6089 N   0  0  0  0  0  0  0  0  0  0  0  0
   10.3071  -18.4369   27.9125 C   0  0  0  0  0  0  0  0  0  0  0  0
    9.9237  -18.3931   29.0979 O   0  0  0  0  0  0  0  0  0  0  0  0
    9.5398  -17.7770   26.8591 C   0  0  0  0  0  0  0  0  0  0  0  0
   10.1274  -17.8344   25.4894 C   0  0  0  0  0  0  0  0  0  0  0  0
    9.3958  -17.0898   24.4321 C   0  0  2  0  0  0  0  0  0  0  0  0
   10.0586  -17.0480   23.1610 N   0  0  0  0  0  0  0  0  0  0  0  0
    9.2213  -15.6843   24.8918 C   0  0  0  0  0  0  0  0  0  0  0  0
   10.2280  -14.9118   24.8632 O   0  0  0  0  0  0  0  0  0  0  0  0
    6.3422  -11.9041   26.1732 C   0  0  0  0  0  0  0  0  0  0  0  0
    6.3903  -13.4000   25.9243 C   0  0  1  0  0  0  0  0  0  0  0  0
    5.6903  -13.7271   24.7577 O   0  0  0  0  0  0  0  0  0  0  0  0
    7.8420  -13.7783   25.7128 C   0  0  2  0  0  0  0  0  0  0  0  0
    7.9808  -15.1752   25.3586 N   0  0  0  0  0  0  0  0  0  0  0  0
    8.5735  -13.5242   26.9654 C   0  0  0  0  0  0  0  0  0  0  0  0
    8.6759  -12.3728   27.4240 O   0  0  0  0  0  0  0  0  0  0  0  0
    9.1689  -14.5583   27.6700 O   0  0  0  0  0  0  0  0  0  0  0  0
  2  1  1  6
  3  4  1  0
  3  2  1  0
  4  8  1  0
  5  4  2  0
  6  2  1  0
  6  7  2  0
  9 10  1  0
 10 12  1  0
 11 10  2  0
 12 13  1  0
 14 13  1  1
 15 14  1  0
 15  6  1  0
 16 17  2  0
 16 14  1  0
 19 18  1  6
 19 21  1  0
 20 19  1  0
 21 23  1  0
 21 22  1  1
 22 16  1  0
 23 25  1  0
 24 23  2  0
M  END
$$$$
