DQT.pdb
     RDKit          3D

 25 24  0  0  1  0  0  0  0  0999 V2000
   10.4860  -17.8182   16.5073 N   0  0  0  0  0  0  0  0  0  0  0  0
   11.0759  -18.2867   17.7241 C   0  0  1  0  0  0  0  0  0  0  0  0
   12.3512  -19.0248   17.3649 C   0  0  0  0  0  0  0  0  0  0  0  0
   12.0476  -19.8826   16.1850 C   0  0  0  0  0  0  0  0  0  0  0  0
   11.8812  -19.3629   15.0614 O   0  0  0  0  0  0  0  0  0  0  0  0
   11.3634  -17.1794   18.6820 C   0  0  0  0  0  0  0  0  0  0  0  0
   12.5360  -16.7927   18.8292 O   0  0  0  0  0  0  0  0  0  0  0  0
   11.9393  -21.2741   16.2870 O   0  0  0  0  0  0  0  0  0  0  0  0
    7.8953  -12.1243   19.8985 N   0  0  0  0  0  0  0  0  0  0  0  0
    7.4161  -13.4289   19.6129 C   0  0  0  0  0  0  0  0  0  0  0  0
    6.2387  -13.5622   19.2253 O   0  0  0  0  0  0  0  0  0  0  0  0
    8.2830  -14.5942   19.7682 C   0  0  0  0  0  0  0  0  0  0  0  0
    9.6701  -14.3178   20.2419 C   0  0  0  0  0  0  0  0  0  0  0  0
   10.5535  -15.5013   20.4051 C   0  0  2  0  0  0  0  0  0  0  0  0
   10.3453  -16.5419   19.4404 N   0  0  0  0  0  0  0  0  0  0  0  0
   10.3030  -16.0840   21.7523 C   0  0  0  0  0  0  0  0  0  0  0  0
    9.1022  -16.3028   22.1002 O   0  0  0  0  0  0  0  0  0  0  0  0
   10.2120  -19.1156   23.1951 C   0  0  0  0  0  0  0  0  0  0  0  0
   11.3013  -18.4456   24.0115 C   0  0  1  0  0  0  0  0  0  0  0  0
   12.5580  -18.6835   23.4437 O   0  0  0  0  0  0  0  0  0  0  0  0
   11.0494  -16.9524   23.9655 C   0  0  2  0  0  0  0  0  0  0  0  0
   11.3475  -16.4033   22.6594 N   0  0  0  0  0  0  0  0  0  0  0  0
   11.9133  -16.3064   24.9680 C   0  0  0  0  0  0  0  0  0  0  0  0
   12.8271  -15.5364   24.6238 O   0  0  0  0  0  0  0  0  0  0  0  0
   11.7346  -16.5363   26.3228 O   0  0  0  0  0  0  0  0  0  0  0  0
  2  1  1  6
  3  4  1  0
  3  2  1  0
  4  8  1  0
  5  4  2  0
  6  2  1  0
  6  7  2  0
  9 10  1  0
 10 12  1  0
 11 10  2  0
 12 13  1  0
 14 13  1  6
 15 14  1  0
 15  6  1  0
 16 17  2  0
 16 14  1  0
 19 18  1  6
 19 21  1  0
 20 19  1  0
 21 23  1  0
 21 22  1  6
 22 16  1  0
 23 25  1  0
 24 23  2  0
M  END
$$$$
