DQT.pdb
     RDKit          3D

 25 24  0  0  1  0  0  0  0  0999 V2000
   11.2362  -17.6591   19.7173 N   0  0  0  0  0  0  0  0  0  0  0  0
   11.6596  -17.7417   21.0818 C   0  0  1  0  0  0  0  0  0  0  0  0
   12.9005  -16.8829   21.2331 C   0  0  0  0  0  0  0  0  0  0  0  0
   13.9572  -17.4772   20.3669 C   0  0  0  0  0  0  0  0  0  0  0  0
   14.2553  -16.9330   19.2828 O   0  0  0  0  0  0  0  0  0  0  0  0
   10.5994  -17.3032   22.0357 C   0  0  0  0  0  0  0  0  0  0  0  0
    9.5680  -16.7678   21.5933 O   0  0  0  0  0  0  0  0  0  0  0  0
   14.6425  -18.6434   20.7260 O   0  0  0  0  0  0  0  0  0  0  0  0
    8.1413  -21.0931   25.9970 N   0  0  0  0  0  0  0  0  0  0  0  0
    7.6611  -19.8683   26.5284 C   0  0  0  0  0  0  0  0  0  0  0  0
    6.7970  -19.9036   27.4263 O   0  0  0  0  0  0  0  0  0  0  0  0
    8.1679  -18.5900   26.0356 C   0  0  0  0  0  0  0  0  0  0  0  0
    9.2118  -18.6672   24.9731 C   0  0  0  0  0  0  0  0  0  0  0  0
    9.6448  -17.3727   24.3862 C   0  0  2  0  0  0  0  0  0  0  0  0
   10.7188  -17.4727   23.4411 N   0  0  0  0  0  0  0  0  0  0  0  0
   10.1060  -16.4926   25.4954 C   0  0  0  0  0  0  0  0  0  0  0  0
   11.2862  -16.6470   25.9360 O   0  0  0  0  0  0  0  0  0  0  0  0
    9.5468  -12.5130   28.3324 C   0  0  0  0  0  0  0  0  0  0  0  0
    8.8386  -13.4811   27.4033 C   0  0  1  0  0  0  0  0  0  0  0  0
    8.5112  -12.8536   26.1962 O   0  0  0  0  0  0  0  0  0  0  0  0
    9.8080  -14.6030   27.0922 C   0  0  2  0  0  0  0  0  0  0  0  0
    9.2834  -15.4924   26.0775 N   0  0  0  0  0  0  0  0  0  0  0  0
   10.0424  -15.3680   28.3285 C   0  0  0  0  0  0  0  0  0  0  0  0
    9.6673  -16.5493   28.4305 O   0  0  0  0  0  0  0  0  0  0  0  0
   10.6869  -14.7961   29.4138 O   0  0  0  0  0  0  0  0  0  0  0  0
  2  1  1  6
  3  4  1  0
  3  2  1  0
  4  8  1  0
  5  4  2  0
  6  2  1  0
  6  7  2  0
  9 10  1  0
 10 12  1  0
 11 10  2  0
 12 13  1  0
 14 13  1  1
 15 14  1  0
 15  6  1  0
 16 17  2  0
 16 14  1  0
 19 18  1  1
 19 21  1  0
 20 19  1  0
 21 23  1  0
 21 22  1  6
 22 16  1  0
 23 25  1  0
 24 23  2  0
M  END
$$$$
