DQT.pdb
     RDKit          3D

 25 24  0  0  1  0  0  0  0  0999 V2000
    9.2448  -17.3125   19.7647 N   0  0  0  0  0  0  0  0  0  0  0  0
    8.1378  -16.4563   20.0636 C   0  0  1  0  0  0  0  0  0  0  0  0
    6.9552  -16.9250   19.2376 C   0  0  0  0  0  0  0  0  0  0  0  0
    7.5014  -17.6483   18.0550 C   0  0  0  0  0  0  0  0  0  0  0  0
    8.7365  -17.7218   17.8836 O   0  0  0  0  0  0  0  0  0  0  0  0
    7.7946  -16.4533   21.5156 C   0  0  0  0  0  0  0  0  0  0  0  0
    6.6210  -16.6733   21.8628 O   0  0  0  0  0  0  0  0  0  0  0  0
    6.6702  -18.2604   17.1102 O   0  0  0  0  0  0  0  0  0  0  0  0
   11.0699  -19.3335   25.8661 N   0  0  0  0  0  0  0  0  0  0  0  0
   10.1667  -18.5749   26.6548 C   0  0  0  0  0  0  0  0  0  0  0  0
   10.1267  -18.7812   27.8837 O   0  0  0  0  0  0  0  0  0  0  0  0
    9.3005  -17.5710   26.0419 C   0  0  0  0  0  0  0  0  0  0  0  0
    9.4907  -17.3496   24.5792 C   0  0  0  0  0  0  0  0  0  0  0  0
    8.5557  -16.3906   23.9359 C   0  0  2  0  0  0  0  0  0  0  0  0
    8.7601  -16.2075   22.5282 N   0  0  0  0  0  0  0  0  0  0  0  0
    8.7308  -15.0640   24.5893 C   0  0  0  0  0  0  0  0  0  0  0  0
    9.7931  -14.4112   24.3520 O   0  0  0  0  0  0  0  0  0  0  0  0
    6.2173  -11.9516   24.8606 C   0  0  0  0  0  0  0  0  0  0  0  0
    6.6495  -12.4572   26.2243 C   0  0  1  0  0  0  0  0  0  0  0  0
    5.7176  -13.3717   26.7276 O   0  0  0  0  0  0  0  0  0  0  0  0
    7.9627  -13.1901   26.0412 C   0  0  2  0  0  0  0  0  0  0  0  0
    7.7627  -14.5022   25.4628 N   0  0  0  0  0  0  0  0  0  0  0  0
    8.5982  -13.3377   27.3614 C   0  0  0  0  0  0  0  0  0  0  0  0
    8.8803  -14.4614   27.8134 O   0  0  0  0  0  0  0  0  0  0  0  0
    8.9005  -12.2312   28.1389 O   0  0  0  0  0  0  0  0  0  0  0  0
  2  1  1  1
  3  4  1  0
  3  2  1  0
  4  8  1  0
  5  4  2  0
  6  2  1  0
  6  7  2  0
  9 10  1  0
 10 12  1  0
 11 10  2  0
 12 13  1  0
 14 13  1  1
 15 14  1  0
 15  6  1  0
 16 17  2  0
 16 14  1  0
 19 18  1  6
 19 21  1  0
 20 19  1  0
 21 23  1  0
 21 22  1  1
 22 16  1  0
 23 25  1  0
 24 23  2  0
M  END
$$$$
