DQT.pdb
     RDKit          3D

 25 24  0  0  1  0  0  0  0  0999 V2000
    9.5877  -19.4733   15.7832 N   0  0  0  0  0  0  0  0  0  0  0  0
    9.6066  -18.1438   16.3123 C   0  0  1  0  0  0  0  0  0  0  0  0
    8.6344  -17.3097   15.5002 C   0  0  0  0  0  0  0  0  0  0  0  0
    9.2803  -17.0333   14.1862 C   0  0  0  0  0  0  0  0  0  0  0  0
   10.3611  -17.5863   13.8930 O   0  0  0  0  0  0  0  0  0  0  0  0
    9.2508  -18.1010   17.7607 C   0  0  0  0  0  0  0  0  0  0  0  0
    8.0555  -18.1752   18.0950 O   0  0  0  0  0  0  0  0  0  0  0  0
    8.7135  -16.1619   13.2491 O   0  0  0  0  0  0  0  0  0  0  0  0
   12.9725  -20.2680   22.3695 N   0  0  0  0  0  0  0  0  0  0  0  0
   12.0054  -20.9731   21.6073 C   0  0  0  0  0  0  0  0  0  0  0  0
   12.0411  -22.2192   21.6010 O   0  0  0  0  0  0  0  0  0  0  0  0
   10.9868  -20.2556   20.8448 C   0  0  0  0  0  0  0  0  0  0  0  0
   10.9935  -18.7704   20.9821 C   0  0  0  0  0  0  0  0  0  0  0  0
    9.9705  -18.0360   20.1936 C   0  0  2  0  0  0  0  0  0  0  0  0
   10.2285  -17.9779   18.7840 N   0  0  0  0  0  0  0  0  0  0  0  0
    9.9160  -16.6354   20.6962 C   0  0  0  0  0  0  0  0  0  0  0  0
   10.9628  -15.9229   20.6088 O   0  0  0  0  0  0  0  0  0  0  0  0
    7.5215  -13.6498   19.9868 C   0  0  0  0  0  0  0  0  0  0  0  0
    7.4870  -13.9756   21.4683 C   0  0  1  0  0  0  0  0  0  0  0  0
    6.4117  -14.8221   21.7606 O   0  0  0  0  0  0  0  0  0  0  0  0
    8.7640  -14.7207   21.7989 C   0  0  2  0  0  0  0  0  0  0  0  0
    8.7467  -16.0669   21.2664 N   0  0  0  0  0  0  0  0  0  0  0  0
    8.8964  -14.7842   23.2642 C   0  0  0  0  0  0  0  0  0  0  0  0
    8.8945  -15.8758   23.8599 O   0  0  0  0  0  0  0  0  0  0  0  0
    9.0269  -13.6317   24.0226 O   0  0  0  0  0  0  0  0  0  0  0  0
  2  1  1  6
  3  4  1  0
  3  2  1  0
  4  8  1  0
  5  4  2  0
  6  2  1  0
  6  7  2  0
  9 10  1  0
 10 12  1  0
 11 10  2  0
 12 13  1  0
 14 13  1  1
 15 14  1  0
 15  6  1  0
 16 17  2  0
 16 14  1  0
 19 18  1  6
 19 21  1  0
 20 19  1  0
 21 23  1  0
 21 22  1  1
 22 16  1  0
 23 25  1  0
 24 23  2  0
M  END
$$$$
