DQT.pdb
     RDKit          3D

 25 24  0  0  1  0  0  0  0  0999 V2000
   11.3873  -18.3693   18.2578 N   0  0  0  0  0  0  0  0  0  0  0  0
    9.9813  -18.3641   18.5244 C   0  0  1  0  0  0  0  0  0  0  0  0
    9.4002  -19.6482   17.9642 C   0  0  0  0  0  0  0  0  0  0  0  0
    9.7093  -19.6739   16.5068 C   0  0  0  0  0  0  0  0  0  0  0  0
   10.8824  -19.8601   16.1204 O   0  0  0  0  0  0  0  0  0  0  0  0
    9.6770  -18.2425   19.9800 C   0  0  0  0  0  0  0  0  0  0  0  0
    8.5152  -17.9813   20.3379 O   0  0  0  0  0  0  0  0  0  0  0  0
    8.7188  -19.4943   15.5346 O   0  0  0  0  0  0  0  0  0  0  0  0
   11.4727  -21.0927   24.7832 N   0  0  0  0  0  0  0  0  0  0  0  0
   11.3749  -19.8486   25.4584 C   0  0  0  0  0  0  0  0  0  0  0  0
   11.2652  -19.8489   26.7002 O   0  0  0  0  0  0  0  0  0  0  0  0
   11.4028  -18.5910   24.7158 C   0  0  0  0  0  0  0  0  0  0  0  0
   11.5964  -18.7072   23.2415 C   0  0  0  0  0  0  0  0  0  0  0  0
   10.4551  -18.2720   22.3955 C   0  0  2  0  0  0  0  0  0  0  0  0
   10.6670  -18.4141   20.9843 N   0  0  0  0  0  0  0  0  0  0  0  0
   10.2014  -16.8299   22.6665 C   0  0  0  0  0  0  0  0  0  0  0  0
   11.1527  -16.0078   22.4929 O   0  0  0  0  0  0  0  0  0  0  0  0
    7.6607  -14.4282   21.1897 C   0  0  0  0  0  0  0  0  0  0  0  0
    7.4501  -14.4434   22.6922 C   0  0  1  0  0  0  0  0  0  0  0  0
    6.4425  -15.3505   23.0383 O   0  0  0  0  0  0  0  0  0  0  0  0
    8.7400  -14.9224   23.3263 C   0  0  2  0  0  0  0  0  0  0  0  0
    8.9447  -16.3391   23.1089 N   0  0  0  0  0  0  0  0  0  0  0  0
    8.6680  -14.6629   24.7740 C   0  0  0  0  0  0  0  0  0  0  0  0
    8.5428  -13.5053   25.2109 O   0  0  0  0  0  0  0  0  0  0  0  0
    8.7376  -15.6986   25.6921 O   0  0  0  0  0  0  0  0  0  0  0  0
  2  1  1  1
  3  4  1  0
  3  2  1  0
  4  8  1  0
  5  4  2  0
  6  2  1  0
  6  7  2  0
  9 10  1  0
 10 12  1  0
 11 10  2  0
 12 13  1  0
 14 13  1  1
 15 14  1  0
 15  6  1  0
 16 17  2  0
 16 14  1  0
 19 18  1  6
 19 21  1  0
 20 19  1  0
 21 23  1  0
 21 22  1  1
 22 16  1  0
 23 25  1  0
 24 23  2  0
M  END
$$$$
