DQT.pdb
     RDKit          3D

 25 24  0  0  1  0  0  0  0  0999 V2000
   10.3487  -18.3023   20.3381 N   0  0  0  0  0  0  0  0  0  0  0  0
   10.5868  -17.1957   21.2137 C   0  0  1  0  0  0  0  0  0  0  0  0
   11.1759  -16.0699   20.3855 C   0  0  0  0  0  0  0  0  0  0  0  0
   12.6029  -16.4120   20.1268 C   0  0  0  0  0  0  0  0  0  0  0  0
   13.2868  -16.9547   21.0201 O   0  0  0  0  0  0  0  0  0  0  0  0
    9.3474  -16.7414   21.9092 C   0  0  0  0  0  0  0  0  0  0  0  0
    8.3742  -16.3658   21.2325 O   0  0  0  0  0  0  0  0  0  0  0  0
   13.2197  -16.1444   18.8995 O   0  0  0  0  0  0  0  0  0  0  0  0
    6.6884  -19.9130   26.1876 N   0  0  0  0  0  0  0  0  0  0  0  0
    7.9672  -19.3767   26.4880 C   0  0  0  0  0  0  0  0  0  0  0  0
    8.6650  -19.9420   27.3527 O   0  0  0  0  0  0  0  0  0  0  0  0
    8.4592  -18.1865   25.7986 C   0  0  0  0  0  0  0  0  0  0  0  0
    7.4968  -17.5241   24.8714 C   0  0  0  0  0  0  0  0  0  0  0  0
    8.0378  -16.4053   24.0570 C   0  0  2  0  0  0  0  0  0  0  0  0
    9.2303  -16.7193   23.3248 N   0  0  0  0  0  0  0  0  0  0  0  0
    8.3606  -15.2782   24.9749 C   0  0  0  0  0  0  0  0  0  0  0  0
    9.5649  -15.1308   25.3477 O   0  0  0  0  0  0  0  0  0  0  0  0
    6.4825  -11.5215   25.1406 C   0  0  0  0  0  0  0  0  0  0  0  0
    6.6186  -12.2668   26.4552 C   0  0  1  0  0  0  0  0  0  0  0  0
    5.4551  -12.9937   26.7310 O   0  0  0  0  0  0  0  0  0  0  0  0
    7.7551  -13.2566   26.3000 C   0  0  2  0  0  0  0  0  0  0  0  0
    7.3811  -14.3658   25.4481 N   0  0  0  0  0  0  0  0  0  0  0  0
    8.1058  -13.7712   27.6345 C   0  0  0  0  0  0  0  0  0  0  0  0
    7.9846  -14.9786   27.9064 O   0  0  0  0  0  0  0  0  0  0  0  0
    8.5806  -12.9275   28.6259 O   0  0  0  0  0  0  0  0  0  0  0  0
  2  1  1  6
  3  4  1  0
  3  2  1  0
  4  8  1  0
  5  4  2  0
  6  2  1  0
  6  7  2  0
  9 10  1  0
 10 12  1  0
 11 10  2  0
 12 13  1  0
 14 13  1  1
 15 14  1  0
 15  6  1  0
 16 17  2  0
 16 14  1  0
 19 18  1  6
 19 21  1  0
 20 19  1  0
 21 23  1  0
 21 22  1  6
 22 16  1  0
 23 25  1  0
 24 23  2  0
M  END
$$$$
