DQT.pdb
     RDKit          3D

 25 24  0  0  1  0  0  0  0  0999 V2000
   15.9045  -16.2761   19.3765 N   0  0  0  0  0  0  0  0  0  0  0  0
   15.4979  -16.6580   20.6943 C   0  0  1  0  0  0  0  0  0  0  0  0
   16.1915  -15.7346   21.6775 C   0  0  0  0  0  0  0  0  0  0  0  0
   17.6588  -15.9287   21.5060 C   0  0  0  0  0  0  0  0  0  0  0  0
   18.4079  -14.9387   21.3684 O   0  0  0  0  0  0  0  0  0  0  0  0
   14.0180  -16.5988   20.8745 C   0  0  0  0  0  0  0  0  0  0  0  0
   13.3574  -15.7814   20.2099 O   0  0  0  0  0  0  0  0  0  0  0  0
   18.2428  -17.2004   21.4925 O   0  0  0  0  0  0  0  0  0  0  0  0
    9.8731  -20.7360   20.1760 N   0  0  0  0  0  0  0  0  0  0  0  0
    9.1317  -19.8400   20.9889 C   0  0  0  0  0  0  0  0  0  0  0  0
    7.8869  -19.8643   20.9247 O   0  0  0  0  0  0  0  0  0  0  0  0
    9.8109  -18.9072   21.8847 C   0  0  0  0  0  0  0  0  0  0  0  0
   11.2938  -18.8299   21.7449 C   0  0  0  0  0  0  0  0  0  0  0  0
   11.9016  -17.4904   21.9548 C   0  0  2  0  0  0  0  0  0  0  0  0
   13.3245  -17.4443   21.7813 N   0  0  0  0  0  0  0  0  0  0  0  0
   11.6073  -17.0618   23.3502 C   0  0  0  0  0  0  0  0  0  0  0  0
   12.4770  -17.2890   24.2462 O   0  0  0  0  0  0  0  0  0  0  0  0
    9.3707  -13.8434   24.9664 C   0  0  0  0  0  0  0  0  0  0  0  0
    8.8907  -15.2525   25.2602 C   0  0  1  0  0  0  0  0  0  0  0  0
    7.9242  -15.6469   24.3284 O   0  0  0  0  0  0  0  0  0  0  0  0
   10.0809  -16.1778   25.1103 C   0  0  2  0  0  0  0  0  0  0  0  0
   10.3993  -16.4124   23.7176 N   0  0  0  0  0  0  0  0  0  0  0  0
    9.7524  -17.4618   25.7521 C   0  0  0  0  0  0  0  0  0  0  0  0
    9.6945  -18.5121   25.0887 O   0  0  0  0  0  0  0  0  0  0  0  0
    9.4981  -17.5389   27.1122 O   0  0  0  0  0  0  0  0  0  0  0  0
  2  1  1  6
  3  4  1  0
  3  2  1  0
  4  8  1  0
  5  4  2  0
  6  2  1  0
  6  7  2  0
  9 10  1  0
 10 12  1  0
 11 10  2  0
 12 13  1  0
 14 13  1  1
 15 14  1  0
 15  6  1  0
 16 17  2  0
 16 14  1  0
 19 18  1  6
 19 21  1  0
 20 19  1  0
 21 23  1  0
 21 22  1  6
 22 16  1  0
 23 25  1  0
 24 23  2  0
M  END
$$$$
