DQT.pdb
     RDKit          3D

 25 24  0  0  1  0  0  0  0  0999 V2000
    9.4945  -17.0519   20.4861 N   0  0  0  0  0  0  0  0  0  0  0  0
    8.3023  -16.3184   20.1888 C   0  0  1  0  0  0  0  0  0  0  0  0
    7.5403  -17.0866   19.1259 C   0  0  0  0  0  0  0  0  0  0  0  0
    8.4032  -17.1348   17.9121 C   0  0  0  0  0  0  0  0  0  0  0  0
    9.5861  -16.7382   17.9707 O   0  0  0  0  0  0  0  0  0  0  0  0
    7.4487  -16.1043   21.3937 C   0  0  0  0  0  0  0  0  0  0  0  0
    6.3143  -15.6143   21.2552 O   0  0  0  0  0  0  0  0  0  0  0  0
    7.9323  -17.6161   16.6853 O   0  0  0  0  0  0  0  0  0  0  0  0
    6.9243  -19.9199   26.2057 N   0  0  0  0  0  0  0  0  0  0  0  0
    8.1934  -19.3709   25.8877 C   0  0  0  0  0  0  0  0  0  0  0  0
    9.2172  -19.9624   26.2830 O   0  0  0  0  0  0  0  0  0  0  0  0
    8.3013  -18.1379   25.1119 C   0  0  0  0  0  0  0  0  0  0  0  0
    7.0135  -17.4724   24.7608 C   0  0  0  0  0  0  0  0  0  0  0  0
    7.1147  -16.2623   23.9046 C   0  0  2  0  0  0  0  0  0  0  0  0
    7.8804  -16.4395   22.7050 N   0  0  0  0  0  0  0  0  0  0  0  0
    7.7705  -15.1867   24.6987 C   0  0  0  0  0  0  0  0  0  0  0  0
    9.0330  -15.0745   24.6337 O   0  0  0  0  0  0  0  0  0  0  0  0
    6.6988  -11.3003   25.4204 C   0  0  0  0  0  0  0  0  0  0  0  0
    6.8442  -12.1358   26.6786 C   0  0  1  0  0  0  0  0  0  0  0  0
    5.6027  -12.6427   27.0784 O   0  0  0  0  0  0  0  0  0  0  0  0
    7.7362  -13.3129   26.3409 C   0  0  2  0  0  0  0  0  0  0  0  0
    7.0446  -14.2857   25.5216 N   0  0  0  0  0  0  0  0  0  0  0  0
    8.1535  -13.9531   27.5997 C   0  0  0  0  0  0  0  0  0  0  0  0
    7.8776  -15.1428   27.8343 O   0  0  0  0  0  0  0  0  0  0  0  0
    8.8651  -13.2509   28.5594 O   0  0  0  0  0  0  0  0  0  0  0  0
  2  1  1  1
  3  4  1  0
  3  2  1  0
  4  8  1  0
  5  4  2  0
  6  2  1  0
  6  7  2  0
  9 10  1  0
 10 12  1  0
 11 10  2  0
 12 13  1  0
 14 13  1  1
 15 14  1  0
 15  6  1  0
 16 17  2  0
 16 14  1  0
 19 18  1  6
 19 21  1  0
 20 19  1  0
 21 23  1  0
 21 22  1  6
 22 16  1  0
 23 25  1  0
 24 23  2  0
M  END
$$$$
