DQT.pdb
     RDKit          3D

 25 24  0  0  1  0  0  0  0  0999 V2000
   10.4025  -17.0934   20.6513 N   0  0  0  0  0  0  0  0  0  0  0  0
    9.1232  -16.4530   20.6887 C   0  0  1  0  0  0  0  0  0  0  0  0
    8.1871  -17.2385   19.7903 C   0  0  0  0  0  0  0  0  0  0  0  0
    8.9233  -17.5235   18.5267 C   0  0  0  0  0  0  0  0  0  0  0  0
    9.8077  -16.7366   18.1281 O   0  0  0  0  0  0  0  0  0  0  0  0
    8.5701  -16.3636   22.0715 C   0  0  0  0  0  0  0  0  0  0  0  0
    7.3866  -16.0173   22.2312 O   0  0  0  0  0  0  0  0  0  0  0  0
    8.6586  -18.6594   17.7533 O   0  0  0  0  0  0  0  0  0  0  0  0
   11.3388  -18.9469   27.2605 N   0  0  0  0  0  0  0  0  0  0  0  0
   11.1165  -19.4185   25.9408 C   0  0  0  0  0  0  0  0  0  0  0  0
   11.6608  -20.4825   25.5861 O   0  0  0  0  0  0  0  0  0  0  0  0
   10.2667  -18.6745   25.0145 C   0  0  0  0  0  0  0  0  0  0  0  0
    9.6743  -17.4115   25.5424 C   0  0  0  0  0  0  0  0  0  0  0  0
    8.8752  -16.6111   24.5789 C   0  0  2  0  0  0  0  0  0  0  0  0
    9.3450  -16.6601   23.2248 N   0  0  0  0  0  0  0  0  0  0  0  0
    8.9146  -15.1877   25.0145 C   0  0  0  0  0  0  0  0  0  0  0  0
    9.9815  -14.5280   24.8215 O   0  0  0  0  0  0  0  0  0  0  0  0
    6.5562  -12.0168   24.4308 C   0  0  0  0  0  0  0  0  0  0  0  0
    6.6277  -12.4131   25.8937 C   0  0  1  0  0  0  0  0  0  0  0  0
    5.5734  -13.2725   26.2224 O   0  0  0  0  0  0  0  0  0  0  0  0
    7.9226  -13.1733   26.0950 C   0  0  2  0  0  0  0  0  0  0  0  0
    7.8127  -14.5413   25.6341 N   0  0  0  0  0  0  0  0  0  0  0  0
    8.2401  -13.1737   27.5330 C   0  0  0  0  0  0  0  0  0  0  0  0
    8.3696  -14.2404   28.1591 O   0  0  0  0  0  0  0  0  0  0  0  0
    8.4038  -11.9879   28.2311 O   0  0  0  0  0  0  0  0  0  0  0  0
  2  1  1  1
  3  4  1  0
  3  2  1  0
  4  8  1  0
  5  4  2  0
  6  2  1  0
  6  7  2  0
  9 10  1  0
 10 12  1  0
 11 10  2  0
 12 13  1  0
 14 13  1  1
 15 14  1  0
 15  6  1  0
 16 17  2  0
 16 14  1  0
 19 18  1  6
 19 21  1  0
 20 19  1  0
 21 23  1  0
 21 22  1  1
 22 16  1  0
 23 25  1  0
 24 23  2  0
M  END
$$$$
