DQT.pdb
     RDKit          3D

 25 24  0  0  1  0  0  0  0  0999 V2000
   12.0219  -16.6172   19.4684 N   0  0  0  0  0  0  0  0  0  0  0  0
   12.2347  -15.8030   20.6259 C   0  0  1  0  0  0  0  0  0  0  0  0
   12.3091  -14.3591   20.1676 C   0  0  0  0  0  0  0  0  0  0  0  0
   13.6109  -14.1857   19.4637 C   0  0  0  0  0  0  0  0  0  0  0  0
   13.6405  -13.6841   18.3201 O   0  0  0  0  0  0  0  0  0  0  0  0
   11.1618  -15.9736   21.6486 C   0  0  0  0  0  0  0  0  0  0  0  0
    9.9726  -15.8456   21.3085 O   0  0  0  0  0  0  0  0  0  0  0  0
   14.8253  -14.5697   20.0435 O   0  0  0  0  0  0  0  0  0  0  0  0
   10.9776  -20.7644   25.3639 N   0  0  0  0  0  0  0  0  0  0  0  0
   10.5927  -20.5336   24.0179 C   0  0  0  0  0  0  0  0  0  0  0  0
   10.3919  -21.5154   23.2763 O   0  0  0  0  0  0  0  0  0  0  0  0
   10.4332  -19.1738   23.5088 C   0  0  0  0  0  0  0  0  0  0  0  0
   10.6647  -18.0768   24.4925 C   0  0  0  0  0  0  0  0  0  0  0  0
   10.4788  -16.6928   23.9847 C   0  0  2  0  0  0  0  0  0  0  0  0
   11.4431  -16.2788   23.0072 N   0  0  0  0  0  0  0  0  0  0  0  0
   10.5828  -15.7581   25.1391 C   0  0  0  0  0  0  0  0  0  0  0  0
   11.7347  -15.3494   25.4814 O   0  0  0  0  0  0  0  0  0  0  0  0
    8.3633  -12.5104   26.1943 C   0  0  0  0  0  0  0  0  0  0  0  0
    8.3776  -13.5959   27.2544 C   0  0  1  0  0  0  0  0  0  0  0  0
    7.2590  -14.4264   27.1227 O   0  0  0  0  0  0  0  0  0  0  0  0
    9.6115  -14.4431   27.0197 C   0  0  2  0  0  0  0  0  0  0  0  0
    9.4516  -15.3073   25.8693 N   0  0  0  0  0  0  0  0  0  0  0  0
    9.8385  -15.2711   28.2161 C   0  0  0  0  0  0  0  0  0  0  0  0
    9.7963  -16.5123   28.1523 O   0  0  0  0  0  0  0  0  0  0  0  0
   10.1056  -14.6936   29.4472 O   0  0  0  0  0  0  0  0  0  0  0  0
  2  1  1  6
  3  4  1  0
  3  2  1  0
  4  8  1  0
  5  4  2  0
  6  2  1  0
  6  7  2  0
  9 10  1  0
 10 12  1  0
 11 10  2  0
 12 13  1  0
 14 13  1  1
 15 14  1  0
 15  6  1  0
 16 17  2  0
 16 14  1  0
 19 18  1  6
 19 21  1  0
 20 19  1  0
 21 23  1  0
 21 22  1  6
 22 16  1  0
 23 25  1  0
 24 23  2  0
M  END
$$$$
