DQT.pdb
     RDKit          3D

 25 24  0  0  1  0  0  0  0  0999 V2000
    9.9930  -17.7514   20.8771 N   0  0  0  0  0  0  0  0  0  0  0  0
    9.3459  -16.5072   20.5925 C   0  0  1  0  0  0  0  0  0  0  0  0
    8.6316  -16.6516   19.2624 C   0  0  0  0  0  0  0  0  0  0  0  0
    9.6779  -16.8254   18.2158 C   0  0  0  0  0  0  0  0  0  0  0  0
    9.4677  -17.5783   17.2416 O   0  0  0  0  0  0  0  0  0  0  0  0
    8.3860  -16.1056   21.6619 C   0  0  0  0  0  0  0  0  0  0  0  0
    7.5531  -15.2129   21.4264 O   0  0  0  0  0  0  0  0  0  0  0  0
   10.9106  -16.1663   18.2818 O   0  0  0  0  0  0  0  0  0  0  0  0
    6.7894  -19.8901   26.5446 N   0  0  0  0  0  0  0  0  0  0  0  0
    8.0880  -19.3272   26.4443 C   0  0  0  0  0  0  0  0  0  0  0  0
    9.0001  -19.7971   27.1524 O   0  0  0  0  0  0  0  0  0  0  0  0
    8.3538  -18.2196   25.5298 C   0  0  0  0  0  0  0  0  0  0  0  0
    7.1584  -17.6060   24.8822 C   0  0  0  0  0  0  0  0  0  0  0  0
    7.4213  -16.4524   23.9835 C   0  0  2  0  0  0  0  0  0  0  0  0
    8.3827  -16.7050   22.9498 N   0  0  0  0  0  0  0  0  0  0  0  0
    7.9403  -15.3290   24.8118 C   0  0  0  0  0  0  0  0  0  0  0  0
    9.1963  -15.2159   24.9544 O   0  0  0  0  0  0  0  0  0  0  0  0
    6.7118  -11.3584   25.3663 C   0  0  0  0  0  0  0  0  0  0  0  0
    6.6600  -12.2590   26.5863 C   0  0  1  0  0  0  0  0  0  0  0  0
    5.3844  -12.8152   26.7331 O   0  0  0  0  0  0  0  0  0  0  0  0
    7.6348  -13.3951   26.3533 C   0  0  2  0  0  0  0  0  0  0  0  0
    7.0915  -14.3835   25.4456 N   0  0  0  0  0  0  0  0  0  0  0  0
    7.9174  -14.0352   27.6491 C   0  0  0  0  0  0  0  0  0  0  0  0
    7.6508  -15.2345   27.8417 O   0  0  0  0  0  0  0  0  0  0  0  0
    8.4880  -13.3221   28.6913 O   0  0  0  0  0  0  0  0  0  0  0  0
  2  1  1  1
  3  4  1  0
  3  2  1  0
  4  8  1  0
  5  4  2  0
  6  2  1  0
  6  7  2  0
  9 10  1  0
 10 12  1  0
 11 10  2  0
 12 13  1  0
 14 13  1  1
 15 14  1  0
 15  6  1  0
 16 17  2  0
 16 14  1  0
 19 18  1  6
 19 21  1  0
 20 19  1  0
 21 23  1  0
 21 22  1  6
 22 16  1  0
 23 25  1  0
 24 23  2  0
M  END
$$$$
