DQT.pdb
     RDKit          3D

 25 24  0  0  1  0  0  0  0  0999 V2000
   15.2851  -18.5241   22.4327 N   0  0  0  0  0  0  0  0  0  0  0  0
   15.2103  -17.0952   22.4545 C   0  0  1  0  0  0  0  0  0  0  0  0
   15.3900  -16.6015   21.0317 C   0  0  0  0  0  0  0  0  0  0  0  0
   16.7982  -16.1325   20.9015 C   0  0  0  0  0  0  0  0  0  0  0  0
   17.6165  -16.3507   21.8196 O   0  0  0  0  0  0  0  0  0  0  0  0
   13.9226  -16.5998   23.0224 C   0  0  0  0  0  0  0  0  0  0  0  0
   13.8450  -15.4228   23.4155 O   0  0  0  0  0  0  0  0  0  0  0  0
   17.2497  -15.4439   19.7699 O   0  0  0  0  0  0  0  0  0  0  0  0
    8.1848  -19.4362   22.2547 N   0  0  0  0  0  0  0  0  0  0  0  0
    9.1956  -19.0562   21.3343 C   0  0  0  0  0  0  0  0  0  0  0  0
    9.0688  -19.3828   20.1379 O   0  0  0  0  0  0  0  0  0  0  0  0
   10.3623  -18.2967   21.7770 C   0  0  0  0  0  0  0  0  0  0  0  0
   10.3502  -17.8516   23.2005 C   0  0  0  0  0  0  0  0  0  0  0  0
   11.4917  -17.0033   23.6303 C   0  0  2  0  0  0  0  0  0  0  0  0
   12.7702  -17.4231   23.1343 N   0  0  0  0  0  0  0  0  0  0  0  0
   11.5573  -17.0338   25.1176 C   0  0  0  0  0  0  0  0  0  0  0  0
   12.2929  -17.9080   25.6703 O   0  0  0  0  0  0  0  0  0  0  0  0
   11.1732  -13.7609   27.5709 C   0  0  0  0  0  0  0  0  0  0  0  0
   10.3600  -14.9546   28.0357 C   0  0  1  0  0  0  0  0  0  0  0  0
    9.0316  -14.8398   27.6112 O   0  0  0  0  0  0  0  0  0  0  0  0
   10.9488  -16.1874   27.3810 C   0  0  2  0  0  0  0  0  0  0  0  0
   10.8340  -16.1293   25.9389 N   0  0  0  0  0  0  0  0  0  0  0  0
   10.2187  -17.3670   27.8750 C   0  0  0  0  0  0  0  0  0  0  0  0
    9.4674  -18.0146   27.1249 O   0  0  0  0  0  0  0  0  0  0  0  0
   10.3463  -17.7906   29.1882 O   0  0  0  0  0  0  0  0  0  0  0  0
  2  1  1  6
  3  4  1  0
  3  2  1  0
  4  8  1  0
  5  4  2  0
  6  2  1  0
  6  7  2  0
  9 10  1  0
 10 12  1  0
 11 10  2  0
 12 13  1  0
 14 13  1  6
 15 14  1  0
 15  6  1  0
 16 17  2  0
 16 14  1  0
 19 18  1  6
 19 21  1  0
 20 19  1  0
 21 23  1  0
 21 22  1  6
 22 16  1  0
 23 25  1  0
 24 23  2  0
M  END
$$$$
