DQT.pdb
     RDKit          3D

 25 24  0  0  1  0  0  0  0  0999 V2000
   10.7530  -19.1003   17.9265 N   0  0  0  0  0  0  0  0  0  0  0  0
   10.0552  -19.1367   19.1754 C   0  0  1  0  0  0  0  0  0  0  0  0
   10.4624  -20.4081   19.8951 C   0  0  0  0  0  0  0  0  0  0  0  0
    9.9275  -21.5531   19.1057 C   0  0  0  0  0  0  0  0  0  0  0  0
    8.8434  -21.4390   18.4961 O   0  0  0  0  0  0  0  0  0  0  0  0
   10.3386  -17.9415   20.0223 C   0  0  0  0  0  0  0  0  0  0  0  0
   11.4592  -17.8210   20.5474 O   0  0  0  0  0  0  0  0  0  0  0  0
   10.6042  -22.7750   19.0183 O   0  0  0  0  0  0  0  0  0  0  0  0
    6.5682  -12.8349   20.0692 N   0  0  0  0  0  0  0  0  0  0  0  0
    7.5633  -13.1588   19.1111 C   0  0  0  0  0  0  0  0  0  0  0  0
    7.4956  -12.6401   17.9794 O   0  0  0  0  0  0  0  0  0  0  0  0
    8.6472  -14.0806   19.4416 C   0  0  0  0  0  0  0  0  0  0  0  0
    8.6202  -14.6535   20.8184 C   0  0  0  0  0  0  0  0  0  0  0  0
    9.5667  -15.7682   21.0817 C   0  0  2  0  0  0  0  0  0  0  0  0
    9.3738  -16.9254   20.2568 N   0  0  0  0  0  0  0  0  0  0  0  0
    9.3966  -16.1954   22.4980 C   0  0  0  0  0  0  0  0  0  0  0  0
    8.2181  -16.3146   22.9539 O   0  0  0  0  0  0  0  0  0  0  0  0
   10.5881  -18.7395   26.3404 C   0  0  0  0  0  0  0  0  0  0  0  0
   10.7760  -18.3693   24.8810 C   0  0  1  0  0  0  0  0  0  0  0  0
   10.0047  -19.1995   24.0600 O   0  0  0  0  0  0  0  0  0  0  0  0
   10.2742  -16.9507   24.7045 C   0  0  2  0  0  0  0  0  0  0  0  0
   10.4936  -16.4736   23.3554 N   0  0  0  0  0  0  0  0  0  0  0  0
   11.0005  -16.0826   25.6464 C   0  0  0  0  0  0  0  0  0  0  0  0
   10.7619  -16.1214   26.8663 O   0  0  0  0  0  0  0  0  0  0  0  0
   11.9703  -15.1975   25.2031 O   0  0  0  0  0  0  0  0  0  0  0  0
  2  1  1  6
  3  4  1  0
  3  2  1  0
  4  8  1  0
  5  4  2  0
  6  2  1  0
  6  7  2  0
  9 10  1  0
 10 12  1  0
 11 10  2  0
 12 13  1  0
 14 13  1  6
 15 14  1  0
 15  6  1  0
 16 17  2  0
 16 14  1  0
 19 18  1  1
 19 21  1  0
 20 19  1  0
 21 23  1  0
 21 22  1  6
 22 16  1  0
 23 25  1  0
 24 23  2  0
M  END
$$$$
