DQT.pdb
     RDKit          3D

 25 24  0  0  1  0  0  0  0  0999 V2000
   12.9561  -16.1932   17.8777 N   0  0  0  0  0  0  0  0  0  0  0  0
   13.7476  -15.5492   18.8811 C   0  0  1  0  0  0  0  0  0  0  0  0
   14.6099  -14.5091   18.1920 C   0  0  0  0  0  0  0  0  0  0  0  0
   15.5987  -15.2415   17.3518 C   0  0  0  0  0  0  0  0  0  0  0  0
   16.2047  -16.2290   17.8183 O   0  0  0  0  0  0  0  0  0  0  0  0
   12.9152  -14.9176   19.9461 C   0  0  0  0  0  0  0  0  0  0  0  0
   13.4734  -14.2721   20.8505 O   0  0  0  0  0  0  0  0  0  0  0  0
   15.8813  -14.8600   16.0353 O   0  0  0  0  0  0  0  0  0  0  0  0
    7.0587  -12.5859   19.3882 N   0  0  0  0  0  0  0  0  0  0  0  0
    7.4000  -13.8966   18.9655 C   0  0  0  0  0  0  0  0  0  0  0  0
    6.6352  -14.4902   18.1801 O   0  0  0  0  0  0  0  0  0  0  0  0
    8.6231  -14.5398   19.4389 C   0  0  0  0  0  0  0  0  0  0  0  0
    9.4377  -13.7572   20.4129 C   0  0  0  0  0  0  0  0  0  0  0  0
   10.6380  -14.4410   20.9601 C   0  0  2  0  0  0  0  0  0  0  0  0
   11.4987  -15.0230   19.9716 N   0  0  0  0  0  0  0  0  0  0  0  0
   10.1779  -15.5390   21.8547 C   0  0  0  0  0  0  0  0  0  0  0  0
    9.9790  -16.6855   21.3478 O   0  0  0  0  0  0  0  0  0  0  0  0
   11.1443  -16.1278   25.8053 C   0  0  0  0  0  0  0  0  0  0  0  0
    9.6510  -16.1623   25.5384 C   0  0  1  0  0  0  0  0  0  0  0  0
    9.0739  -14.9172   25.8118 O   0  0  0  0  0  0  0  0  0  0  0  0
    9.4604  -16.4451   24.0622 C   0  0  2  0  0  0  0  0  0  0  0  0
    9.9537  -15.3568   23.2448 N   0  0  0  0  0  0  0  0  0  0  0  0
    8.0211  -16.6243   23.8077 C   0  0  0  0  0  0  0  0  0  0  0  0
    7.3950  -15.8278   23.0865 O   0  0  0  0  0  0  0  0  0  0  0  0
    7.3216  -17.6840   24.3629 O   0  0  0  0  0  0  0  0  0  0  0  0
  2  1  1  6
  3  4  1  0
  3  2  1  0
  4  8  1  0
  5  4  2  0
  6  2  1  0
  6  7  2  0
  9 10  1  0
 10 12  1  0
 11 10  2  0
 12 13  1  0
 14 13  1  6
 15 14  1  0
 15  6  1  0
 16 17  2  0
 16 14  1  0
 19 18  1  6
 19 21  1  0
 20 19  1  0
 21 23  1  0
 21 22  1  6
 22 16  1  0
 23 25  1  0
 24 23  2  0
M  END
$$$$
