IFM.pdb
     RDKit          3D

 28 28  0  0  1  0  0  0  0  0999 V2000
   26.0343  -34.9738  -18.8666 C   0  0  0  0  0  0  0  0  0  0  0  0
   25.1488  -33.7631  -18.9585 C   0  0  0  0  0  0  0  0  0  0  0  0
   24.9973  -33.1376  -17.6062 C   0  0  2  0  0  0  0  0  0  0  0  0
   24.5228  -34.1709  -16.5865 C   0  0  0  0  0  0  0  0  0  0  0  0
   24.0714  -31.9463  -17.6158 C   0  0  2  0  0  0  0  0  0  0  0  0
   24.8534  -30.9005  -18.3505 N   0  0  0  0  0  0  0  0  0  0  0  0
   23.8339  -31.3439  -16.2901 C   0  0  0  0  0  0  0  0  0  0  0  0
   24.8241  -30.9364  -15.5818 O   0  0  0  0  0  0  0  0  0  0  0  0
   22.5520  -31.1681  -15.7083 N   0  0  0  0  0  0  0  0  0  0  0  0
   22.3758  -30.6791  -14.3477 C   0  0  1  0  0  0  0  0  0  0  0  0
   21.0611  -30.0420  -14.0952 C   0  0  0  0  0  0  0  0  0  0  0  0
   20.8397  -29.5582  -12.7460 C   0  0  0  0  0  0  0  0  0  0  0  0
   21.4555  -28.4329  -12.2662 C   0  0  0  0  0  0  0  0  0  0  0  0
   21.2324  -27.9798  -10.9854 C   0  0  0  0  0  0  0  0  0  0  0  0
   20.3858  -28.6366  -10.1413 C   0  0  0  0  0  0  0  0  0  0  0  0
   19.7522  -29.7725  -10.5991 C   0  0  0  0  0  0  0  0  0  0  0  0
   19.9851  -30.2239  -11.8991 C   0  0  0  0  0  0  0  0  0  0  0  0
   22.5344  -31.8130  -13.3662 C   0  0  0  0  0  0  0  0  0  0  0  0
   22.0564  -32.9634  -13.6363 O   0  0  0  0  0  0  0  0  0  0  0  0
   26.5378  -31.6276   -7.7733 C   0  0  0  0  0  0  0  0  0  0  0  0
   26.1204  -33.1774   -8.5478 S   0  0  0  0  0  0  0  0  0  0  0  0
   24.3835  -33.3180   -8.9232 C   0  0  0  0  0  0  0  0  0  0  0  0
   23.8109  -32.3261   -9.8569 C   0  0  0  0  0  0  0  0  0  0  0  0
   23.3263  -32.7873  -11.1792 C   0  0  2  0  0  0  0  0  0  0  0  0
   23.1971  -31.6752  -12.1353 N   0  0  0  0  0  0  0  0  0  0  0  0
   22.0366  -33.4892  -11.1491 C   0  0  0  0  0  0  0  0  0  0  0  0
   21.9430  -34.8560  -11.1212 O   0  0  0  0  0  0  0  0  0  0  0  0
   20.9711  -32.8318  -11.1455 O   0  0  0  0  0  0  0  0  0  0  0  0
  2  1  1  0
  3  2  1  0
  3  4  1  1
  5  3  1  0
  5  6  1  6
  7  5  1  0
  8  7  2  0
  9  7  1  0
 10 11  1  6
 10  9  1  0
 11 12  1  0
 12 17  2  0
 13 14  2  0
 13 12  1  0
 14 15  1  0
 15 16  2  0
 17 16  1  0
 18 10  1  0
 18 19  2  0
 20 21  1  0
 22 21  1  0
 22 23  1  0
 24 23  1  1
 24 26  1  0
 24 25  1  0
 25 18  1  0
 26 27  1  0
 28 26  2  0
M  END
$$$$
