IFM.pdb
     RDKit          3D

 28 28  0  0  1  0  0  0  0  0999 V2000
   28.9374  -21.6009  -18.6257 C   0  0  0  0  0  0  0  0  0  0  0  0
   27.5439  -21.4329  -18.0886 C   0  0  0  0  0  0  0  0  0  0  0  0
   27.4962  -21.8546  -16.6524 C   0  0  2  0  0  0  0  0  0  0  0  0
   28.0709  -23.2598  -16.4856 C   0  0  0  0  0  0  0  0  0  0  0  0
   26.1058  -21.7839  -16.0705 C   0  0  2  0  0  0  0  0  0  0  0  0
   25.6600  -20.3910  -16.3961 N   0  0  0  0  0  0  0  0  0  0  0  0
   26.0548  -21.8360  -14.5969 C   0  0  0  0  0  0  0  0  0  0  0  0
   26.0459  -22.9689  -13.9930 O   0  0  0  0  0  0  0  0  0  0  0  0
   26.0145  -20.6940  -13.7560 N   0  0  0  0  0  0  0  0  0  0  0  0
   26.0245  -20.7971  -12.3032 C   0  0  1  0  0  0  0  0  0  0  0  0
   26.8480  -19.7672  -11.6254 C   0  0  0  0  0  0  0  0  0  0  0  0
   26.8949  -19.8446  -10.1780 C   0  0  0  0  0  0  0  0  0  0  0  0
   26.0688  -19.0966   -9.3821 C   0  0  0  0  0  0  0  0  0  0  0  0
   26.1183  -19.1834   -8.0089 C   0  0  0  0  0  0  0  0  0  0  0  0
   26.9956  -20.0214   -7.3855 C   0  0  0  0  0  0  0  0  0  0  0  0
   27.8389  -20.7864   -8.1631 C   0  0  0  0  0  0  0  0  0  0  0  0
   27.7811  -20.6911   -9.5545 C   0  0  0  0  0  0  0  0  0  0  0  0
   24.6190  -20.6891  -11.7675 C   0  0  0  0  0  0  0  0  0  0  0  0
   23.7324  -20.0500  -12.4238 O   0  0  0  0  0  0  0  0  0  0  0  0
   19.3648  -23.6667   -6.5180 C   0  0  0  0  0  0  0  0  0  0  0  0
   21.0683  -23.4185   -6.9788 S   0  0  0  0  0  0  0  0  0  0  0  0
   21.2546  -22.3428   -8.3880 C   0  0  0  0  0  0  0  0  0  0  0  0
   22.6146  -22.1865   -8.9444 C   0  0  0  0  0  0  0  0  0  0  0  0
   22.8020  -21.3343  -10.1421 C   0  0  2  0  0  0  0  0  0  0  0  0
   24.2142  -21.2674  -10.5530 N   0  0  0  0  0  0  0  0  0  0  0  0
   22.3249  -19.9533   -9.9930 C   0  0  0  0  0  0  0  0  0  0  0  0
   21.0061  -19.6106  -10.1380 O   0  0  0  0  0  0  0  0  0  0  0  0
   23.1377  -19.0409   -9.7204 O   0  0  0  0  0  0  0  0  0  0  0  0
  2  1  1  0
  3  2  1  0
  3  4  1  6
  5  3  1  0
  5  6  1  1
  7  5  1  0
  8  7  2  0
  9  7  1  0
 10 11  1  1
 10  9  1  0
 11 12  1  0
 12 17  2  0
 13 14  2  0
 13 12  1  0
 14 15  1  0
 15 16  2  0
 17 16  1  0
 18 10  1  0
 18 19  2  0
 20 21  1  0
 22 21  1  0
 22 23  1  0
 24 23  1  1
 24 26  1  0
 24 25  1  0
 25 18  1  0
 26 27  1  0
 28 26  2  0
M  END
$$$$
