IFM.pdb
     RDKit          3D

 28 28  0  0  1  0  0  0  0  0999 V2000
   29.0422  -21.4509  -20.7179 C   0  0  0  0  0  0  0  0  0  0  0  0
   29.0738  -21.8843  -19.2793 C   0  0  0  0  0  0  0  0  0  0  0  0
   28.5407  -20.7915  -18.4051 C   0  0  2  0  0  0  0  0  0  0  0  0
   29.2590  -19.4748  -18.6927 C   0  0  0  0  0  0  0  0  0  0  0  0
   28.6268  -21.1263  -16.9363 C   0  0  2  0  0  0  0  0  0  0  0  0
   28.1091  -22.5306  -16.8660 N   0  0  0  0  0  0  0  0  0  0  0  0
   27.6991  -20.3642  -16.0787 C   0  0  0  0  0  0  0  0  0  0  0  0
   27.9722  -19.1529  -15.7527 O   0  0  0  0  0  0  0  0  0  0  0  0
   26.4805  -20.8767  -15.5636 N   0  0  0  0  0  0  0  0  0  0  0  0
   25.5717  -20.0659  -14.7649 C   0  0  1  0  0  0  0  0  0  0  0  0
   24.2274  -19.8884  -15.3644 C   0  0  0  0  0  0  0  0  0  0  0  0
   24.1539  -18.9923  -16.5024 C   0  0  0  0  0  0  0  0  0  0  0  0
   24.2960  -19.4377  -17.7897 C   0  0  0  0  0  0  0  0  0  0  0  0
   24.2180  -18.5782  -18.8624 C   0  0  0  0  0  0  0  0  0  0  0  0
   23.9950  -17.2444  -18.6840 C   0  0  0  0  0  0  0  0  0  0  0  0
   23.8478  -16.7692  -17.3980 C   0  0  0  0  0  0  0  0  0  0  0  0
   23.9288  -17.6486  -16.3170 C   0  0  0  0  0  0  0  0  0  0  0  0
   25.3900  -20.6840  -13.4014 C   0  0  0  0  0  0  0  0  0  0  0  0
   25.5735  -21.9348  -13.2373 O   0  0  0  0  0  0  0  0  0  0  0  0
   28.5136  -20.0171   -7.7341 C   0  0  0  0  0  0  0  0  0  0  0  0
   26.7983  -19.7104   -7.3604 S   0  0  0  0  0  0  0  0  0  0  0  0
   25.6889  -20.4561   -8.5397 C   0  0  0  0  0  0  0  0  0  0  0  0
   25.7807  -19.9944   -9.9404 C   0  0  0  0  0  0  0  0  0  0  0  0
   24.8475  -20.5623  -10.9416 C   0  0  2  0  0  0  0  0  0  0  0  0
   25.0202  -19.9436  -12.2663 N   0  0  0  0  0  0  0  0  0  0  0  0
   23.4263  -20.4492  -10.5889 C   0  0  0  0  0  0  0  0  0  0  0  0
   22.5148  -19.8232  -11.3982 O   0  0  0  0  0  0  0  0  0  0  0  0
   23.0118  -20.9391   -9.5139 O   0  0  0  0  0  0  0  0  0  0  0  0
  2  1  1  0
  3  2  1  0
  3  4  1  1
  5  3  1  0
  5  6  1  6
  7  5  1  0
  8  7  2  0
  9  7  1  0
 10 11  1  6
 10  9  1  0
 11 12  1  0
 12 17  2  0
 13 14  2  0
 13 12  1  0
 14 15  1  0
 15 16  2  0
 17 16  1  0
 18 10  1  0
 18 19  2  0
 20 21  1  0
 22 21  1  0
 22 23  1  0
 24 23  1  1
 24 26  1  0
 24 25  1  0
 25 18  1  0
 26 27  1  0
 28 26  2  0
M  END
$$$$
