IFM.pdb
     RDKit          3D

 28 28  0  0  1  0  0  0  0  0999 V2000
   24.5248  -19.0367  -19.7889 C   0  0  0  0  0  0  0  0  0  0  0  0
   23.1881  -19.2756  -19.1451 C   0  0  0  0  0  0  0  0  0  0  0  0
   23.3486  -20.1642  -17.9503 C   0  0  2  0  0  0  0  0  0  0  0  0
   24.0774  -21.4510  -18.3317 C   0  0  0  0  0  0  0  0  0  0  0  0
   22.0344  -20.4839  -17.2815 C   0  0  2  0  0  0  0  0  0  0  0  0
   21.3492  -19.1538  -17.2012 N   0  0  0  0  0  0  0  0  0  0  0  0
   22.1505  -20.9072  -15.8729 C   0  0  0  0  0  0  0  0  0  0  0  0
   22.5881  -22.0799  -15.5874 O   0  0  0  0  0  0  0  0  0  0  0  0
   21.8071  -20.0949  -14.7616 N   0  0  0  0  0  0  0  0  0  0  0  0
   21.7874  -20.6090  -13.3990 C   0  0  1  0  0  0  0  0  0  0  0  0
   21.9166  -19.5663  -12.3529 C   0  0  0  0  0  0  0  0  0  0  0  0
   21.8261  -20.0294  -10.9815 C   0  0  0  0  0  0  0  0  0  0  0  0
   22.8982  -20.5719  -10.3244 C   0  0  0  0  0  0  0  0  0  0  0  0
   22.8017  -21.0022   -9.0202 C   0  0  0  0  0  0  0  0  0  0  0  0
   21.6299  -20.9041   -8.3290 C   0  0  0  0  0  0  0  0  0  0  0  0
   20.5345  -20.3612   -8.9667 C   0  0  0  0  0  0  0  0  0  0  0  0
   20.6424  -19.9280  -10.2892 C   0  0  0  0  0  0  0  0  0  0  0  0
   20.5026  -21.3574  -13.1472 C   0  0  0  0  0  0  0  0  0  0  0  0
   19.3923  -20.8719  -13.5429 O   0  0  0  0  0  0  0  0  0  0  0  0
   20.0222  -27.7981  -12.9618 C   0  0  0  0  0  0  0  0  0  0  0  0
   18.4083  -27.3921  -12.3242 S   0  0  0  0  0  0  0  0  0  0  0  0
   18.2124  -25.6515  -11.9936 C   0  0  0  0  0  0  0  0  0  0  0  0
   19.3829  -24.7818  -12.2325 C   0  0  0  0  0  0  0  0  0  0  0  0
   19.1895  -23.3126  -12.2458 C   0  0  2  0  0  0  0  0  0  0  0  0
   20.4526  -22.5946  -12.4837 N   0  0  0  0  0  0  0  0  0  0  0  0
   18.5979  -22.7608  -11.0200 C   0  0  0  0  0  0  0  0  0  0  0  0
   17.2438  -22.7025  -10.8180 O   0  0  0  0  0  0  0  0  0  0  0  0
   19.3419  -22.3246  -10.1125 O   0  0  0  0  0  0  0  0  0  0  0  0
  2  1  1  0
  3  2  1  0
  3  4  1  6
  5  3  1  0
  5  6  1  1
  7  5  1  0
  8  7  2  0
  9  7  1  0
 10 11  1  1
 10  9  1  0
 11 12  1  0
 12 17  2  0
 13 14  2  0
 13 12  1  0
 14 15  1  0
 15 16  2  0
 17 16  1  0
 18 10  1  0
 18 19  2  0
 20 21  1  0
 22 21  1  0
 22 23  1  0
 24 23  1  1
 24 26  1  0
 24 25  1  0
 25 18  1  0
 26 27  1  0
 28 26  2  0
M  END
$$$$
