IFM.pdb
     RDKit          3D

 28 28  0  0  1  0  0  0  0  0999 V2000
   19.8836  -18.1724  -16.7580 C   0  0  0  0  0  0  0  0  0  0  0  0
   21.2436  -18.0019  -17.3742 C   0  0  0  0  0  0  0  0  0  0  0  0
   22.2635  -18.7540  -16.5760 C   0  0  2  0  0  0  0  0  0  0  0  0
   22.1344  -18.4225  -15.0908 C   0  0  0  0  0  0  0  0  0  0  0  0
   23.6741  -18.5029  -17.0490 C   0  0  2  0  0  0  0  0  0  0  0  0
   23.7103  -19.1469  -18.4014 N   0  0  0  0  0  0  0  0  0  0  0  0
   24.7131  -19.2219  -16.2872 C   0  0  0  0  0  0  0  0  0  0  0  0
   24.7957  -20.5009  -16.3609 O   0  0  0  0  0  0  0  0  0  0  0  0
   25.6688  -18.5943  -15.4471 N   0  0  0  0  0  0  0  0  0  0  0  0
   26.6678  -19.3509  -14.7050 C   0  0  1  0  0  0  0  0  0  0  0  0
   28.0679  -18.9596  -14.9960 C   0  0  0  0  0  0  0  0  0  0  0  0
   28.5153  -19.1718  -16.3591 C   0  0  0  0  0  0  0  0  0  0  0  0
   29.0637  -20.3580  -16.7687 C   0  0  0  0  0  0  0  0  0  0  0  0
   29.4790  -20.5497  -18.0673 C   0  0  0  0  0  0  0  0  0  0  0  0
   29.3597  -19.5616  -19.0001 C   0  0  0  0  0  0  0  0  0  0  0  0
   28.8104  -18.3570  -18.6145 C   0  0  0  0  0  0  0  0  0  0  0  0
   28.3926  -18.1724  -17.2956 C   0  0  0  0  0  0  0  0  0  0  0  0
   26.4429  -19.1891  -13.2226 C   0  0  0  0  0  0  0  0  0  0  0  0
   26.0934  -18.0583  -12.7490 O   0  0  0  0  0  0  0  0  0  0  0  0
   21.3501  -19.9406  -12.2080 C   0  0  0  0  0  0  0  0  0  0  0  0
   21.7073  -20.1313  -10.4725 S   0  0  0  0  0  0  0  0  0  0  0  0
   23.4520  -20.2753  -10.1366 C   0  0  0  0  0  0  0  0  0  0  0  0
   24.3725  -20.1831  -11.2889 C   0  0  0  0  0  0  0  0  0  0  0  0
   25.8292  -20.3147  -11.0510 C   0  0  2  0  0  0  0  0  0  0  0  0
   26.5992  -20.2400  -12.3036 N   0  0  0  0  0  0  0  0  0  0  0  0
   26.2295  -21.5505  -10.3656 C   0  0  0  0  0  0  0  0  0  0  0  0
   26.3882  -21.6198   -9.0063 O   0  0  0  0  0  0  0  0  0  0  0  0
   26.4354  -22.5912  -11.0304 O   0  0  0  0  0  0  0  0  0  0  0  0
  2  1  1  0
  3  2  1  0
  3  4  1  1
  5  3  1  0
  5  6  1  6
  7  5  1  0
  8  7  2  0
  9  7  1  0
 10 11  1  1
 10  9  1  0
 11 12  1  0
 12 17  2  0
 13 14  2  0
 13 12  1  0
 14 15  1  0
 15 16  2  0
 17 16  1  0
 18 10  1  0
 18 19  2  0
 20 21  1  0
 22 21  1  0
 22 23  1  0
 24 23  1  6
 24 26  1  0
 24 25  1  0
 25 18  1  0
 26 27  1  0
 28 26  2  0
M  END
$$$$
