IFM.pdb
     RDKit          3D

 28 28  0  0  1  0  0  0  0  0999 V2000
   26.3259  -23.1038  -20.8413 C   0  0  0  0  0  0  0  0  0  0  0  0
   27.3148  -23.2509  -19.7194 C   0  0  0  0  0  0  0  0  0  0  0  0
   26.6030  -23.2074  -18.4025 C   0  0  2  0  0  0  0  0  0  0  0  0
   25.7485  -21.9461  -18.2951 C   0  0  0  0  0  0  0  0  0  0  0  0
   27.5449  -23.3047  -17.2278 C   0  0  2  0  0  0  0  0  0  0  0  0
   27.9360  -24.7510  -17.2109 N   0  0  0  0  0  0  0  0  0  0  0  0
   26.9087  -23.0952  -15.9131 C   0  0  0  0  0  0  0  0  0  0  0  0
   26.1084  -23.9792  -15.4374 O   0  0  0  0  0  0  0  0  0  0  0  0
   27.1157  -21.9541  -15.0959 N   0  0  0  0  0  0  0  0  0  0  0  0
   26.4293  -21.7735  -13.8241 C   0  0  1  0  0  0  0  0  0  0  0  0
   27.0754  -20.7945  -12.9173 C   0  0  0  0  0  0  0  0  0  0  0  0
   26.4760  -20.6551  -11.6040 C   0  0  0  0  0  0  0  0  0  0  0  0
   26.6733  -21.5787  -10.6123 C   0  0  0  0  0  0  0  0  0  0  0  0
   26.1040  -21.4322   -9.3673 C   0  0  0  0  0  0  0  0  0  0  0  0
   25.3184  -20.3569   -9.0721 C   0  0  0  0  0  0  0  0  0  0  0  0
   25.1034  -19.4114  -10.0524 C   0  0  0  0  0  0  0  0  0  0  0  0
   25.6849  -19.5691  -11.3115 C   0  0  0  0  0  0  0  0  0  0  0  0
   25.0122  -21.3158  -14.0617 C   0  0  0  0  0  0  0  0  0  0  0  0
   24.7890  -20.1999  -14.6363 O   0  0  0  0  0  0  0  0  0  0  0  0
   19.6374  -24.9661  -15.1593 C   0  0  0  0  0  0  0  0  0  0  0  0
   19.1560  -23.2519  -15.0825 S   0  0  0  0  0  0  0  0  0  0  0  0
   20.0811  -22.3267  -13.8718 C   0  0  0  0  0  0  0  0  0  0  0  0
   21.5135  -22.6561  -13.7188 C   0  0  0  0  0  0  0  0  0  0  0  0
   22.5128  -21.5687  -13.8406 C   0  0  2  0  0  0  0  0  0  0  0  0
   23.8887  -22.0665  -13.6775 N   0  0  0  0  0  0  0  0  0  0  0  0
   22.3337  -20.4619  -12.8919 C   0  0  0  0  0  0  0  0  0  0  0  0
   21.8259  -19.2458  -13.2673 O   0  0  0  0  0  0  0  0  0  0  0  0
   22.6482  -20.6165  -11.6900 O   0  0  0  0  0  0  0  0  0  0  0  0
  2  1  1  0
  3  2  1  0
  3  4  1  1
  5  3  1  0
  5  6  1  1
  7  5  1  0
  8  7  2  0
  9  7  1  0
 10 11  1  1
 10  9  1  0
 11 12  1  0
 12 17  2  0
 13 14  2  0
 13 12  1  0
 14 15  1  0
 15 16  2  0
 17 16  1  0
 18 10  1  0
 18 19  2  0
 20 21  1  0
 22 21  1  0
 22 23  1  0
 24 23  1  1
 24 26  1  0
 24 25  1  0
 25 18  1  0
 26 27  1  0
 28 26  2  0
M  END
$$$$
