IFM.pdb
     RDKit          3D

 28 28  0  0  1  0  0  0  0  0999 V2000
   18.4782  -12.8612  -17.1782 C   0  0  0  0  0  0  0  0  0  0  0  0
   18.2623  -11.3936  -16.9375 C   0  0  0  0  0  0  0  0  0  0  0  0
   18.2226  -11.1181  -15.4660 C   0  0  2  0  0  0  0  0  0  0  0  0
   17.1918  -12.0120  -14.7797 C   0  0  0  0  0  0  0  0  0  0  0  0
   17.9510   -9.6675  -15.1521 C   0  0  2  0  0  0  0  0  0  0  0  0
   19.1180   -8.9525  -15.7620 N   0  0  0  0  0  0  0  0  0  0  0  0
   18.0354   -9.3241  -13.7197 C   0  0  0  0  0  0  0  0  0  0  0  0
   17.2633   -9.9026  -12.8728 O   0  0  0  0  0  0  0  0  0  0  0  0
   18.9350   -8.3711  -13.1763 N   0  0  0  0  0  0  0  0  0  0  0  0
   19.0094   -8.0982  -11.7475 C   0  0  1  0  0  0  0  0  0  0  0  0
   20.2610   -7.4283  -11.3199 C   0  0  0  0  0  0  0  0  0  0  0  0
   20.7781   -6.4162  -12.2209 C   0  0  0  0  0  0  0  0  0  0  0  0
   21.6033   -6.7277  -13.2685 C   0  0  0  0  0  0  0  0  0  0  0  0
   22.0828   -5.7588  -14.1210 C   0  0  0  0  0  0  0  0  0  0  0  0
   21.7531   -4.4457  -13.9547 C   0  0  0  0  0  0  0  0  0  0  0  0
   20.9233   -4.1043  -12.9077 C   0  0  0  0  0  0  0  0  0  0  0  0
   20.4425   -5.0939  -12.0488 C   0  0  0  0  0  0  0  0  0  0  0  0
   17.8531   -7.2262  -11.3267 C   0  0  0  0  0  0  0  0  0  0  0  0
   17.3079   -6.4384  -12.1677 O   0  0  0  0  0  0  0  0  0  0  0  0
   11.5019   -6.3574   -6.7388 C   0  0  0  0  0  0  0  0  0  0  0  0
   12.6940   -7.3564   -7.6087 S   0  0  0  0  0  0  0  0  0  0  0  0
   14.0002   -6.3919   -8.3444 C   0  0  0  0  0  0  0  0  0  0  0  0
   15.1237   -7.1307   -8.9571 C   0  0  0  0  0  0  0  0  0  0  0  0
   16.2001   -6.3647   -9.6283 C   0  0  2  0  0  0  0  0  0  0  0  0
   17.3236   -7.2291  -10.0256 N   0  0  0  0  0  0  0  0  0  0  0  0
   16.7570   -5.2632   -8.8322 C   0  0  0  0  0  0  0  0  0  0  0  0
   16.1136   -4.0622   -8.6860 O   0  0  0  0  0  0  0  0  0  0  0  0
   17.8586   -5.4084   -8.2554 O   0  0  0  0  0  0  0  0  0  0  0  0
  2  1  1  0
  3  2  1  0
  3  4  1  1
  5  3  1  0
  5  6  1  6
  7  5  1  0
  8  7  2  0
  9  7  1  0
 10 11  1  6
 10  9  1  0
 11 12  1  0
 12 17  2  0
 13 14  2  0
 13 12  1  0
 14 15  1  0
 15 16  2  0
 17 16  1  0
 18 10  1  0
 18 19  2  0
 20 21  1  0
 22 21  1  0
 22 23  1  0
 24 23  1  1
 24 26  1  0
 24 25  1  0
 25 18  1  0
 26 27  1  0
 28 26  2  0
M  END
$$$$
