IFM.pdb
     RDKit          3D

 28 28  0  0  1  0  0  0  0  0999 V2000
   22.4340  -20.0881  -21.5951 C   0  0  0  0  0  0  0  0  0  0  0  0
   23.8399  -19.8410  -21.1256 C   0  0  0  0  0  0  0  0  0  0  0  0
   24.0928  -20.5911  -19.8543 C   0  0  2  0  0  0  0  0  0  0  0  0
   23.0275  -20.2568  -18.8122 C   0  0  0  0  0  0  0  0  0  0  0  0
   25.4713  -20.3404  -19.2944 C   0  0  2  0  0  0  0  0  0  0  0  0
   26.3723  -21.0763  -20.2387 N   0  0  0  0  0  0  0  0  0  0  0  0
   25.7286  -20.9798  -17.9898 C   0  0  0  0  0  0  0  0  0  0  0  0
   25.9593  -22.2411  -17.9257 O   0  0  0  0  0  0  0  0  0  0  0  0
   25.7448  -20.2909  -16.7496 N   0  0  0  0  0  0  0  0  0  0  0  0
   25.9626  -20.9754  -15.4826 C   0  0  1  0  0  0  0  0  0  0  0  0
   27.1231  -20.4711  -14.7098 C   0  0  0  0  0  0  0  0  0  0  0  0
   27.2555  -19.0289  -14.6332 C   0  0  0  0  0  0  0  0  0  0  0  0
   27.7554  -18.2878  -15.6707 C   0  0  0  0  0  0  0  0  0  0  0  0
   27.8703  -16.9183  -15.5886 C   0  0  0  0  0  0  0  0  0  0  0  0
   27.4890  -16.2437  -14.4661 C   0  0  0  0  0  0  0  0  0  0  0  0
   26.9817  -16.9655  -13.4063 C   0  0  0  0  0  0  0  0  0  0  0  0
   26.8694  -18.3536  -13.4993 C   0  0  0  0  0  0  0  0  0  0  0  0
   24.7388  -20.8502  -14.6103 C   0  0  0  0  0  0  0  0  0  0  0  0
   23.9785  -19.8327  -14.7183 O   0  0  0  0  0  0  0  0  0  0  0  0
   27.5120  -20.7728   -9.5160 C   0  0  0  0  0  0  0  0  0  0  0  0
   25.9606  -20.0666   -8.9960 S   0  0  0  0  0  0  0  0  0  0  0  0
   24.6139  -20.4716  -10.0914 C   0  0  0  0  0  0  0  0  0  0  0  0
   24.9632  -21.0096  -11.4226 C   0  0  0  0  0  0  0  0  0  0  0  0
   23.8723  -21.4557  -12.3207 C   0  0  2  0  0  0  0  0  0  0  0  0
   24.3738  -21.8156  -13.6573 N   0  0  0  0  0  0  0  0  0  0  0  0
   22.7934  -20.4769  -12.5083 C   0  0  0  0  0  0  0  0  0  0  0  0
   22.8216  -19.5314  -13.4997 O   0  0  0  0  0  0  0  0  0  0  0  0
   21.8006  -20.4925  -11.7457 O   0  0  0  0  0  0  0  0  0  0  0  0
  2  1  1  0
  3  2  1  0
  3  4  1  1
  5  3  1  0
  5  6  1  6
  7  5  1  0
  8  7  2  0
  9  7  1  0
 10 11  1  1
 10  9  1  0
 11 12  1  0
 12 17  2  0
 13 14  2  0
 13 12  1  0
 14 15  1  0
 15 16  2  0
 17 16  1  0
 18 10  1  0
 18 19  2  0
 20 21  1  0
 22 21  1  0
 22 23  1  0
 24 23  1  1
 24 26  1  0
 24 25  1  0
 25 18  1  0
 26 27  1  0
 28 26  2  0
M  END
$$$$
