IFM.pdb
     RDKit          3D

 28 28  0  0  1  0  0  0  0  0999 V2000
   24.1289  -36.1497  -17.1879 C   0  0  0  0  0  0  0  0  0  0  0  0
   23.2564  -35.8503  -16.0016 C   0  0  0  0  0  0  0  0  0  0  0  0
   24.0991  -35.7037  -14.7723 C   0  0  2  0  0  0  0  0  0  0  0  0
   24.8983  -36.9791  -14.5135 C   0  0  0  0  0  0  0  0  0  0  0  0
   23.2909  -35.3344  -13.5528 C   0  0  2  0  0  0  0  0  0  0  0  0
   22.8521  -33.9298  -13.8352 N   0  0  0  0  0  0  0  0  0  0  0  0
   24.0766  -35.2160  -12.3096 C   0  0  0  0  0  0  0  0  0  0  0  0
   24.7351  -36.2249  -11.8660 O   0  0  0  0  0  0  0  0  0  0  0  0
   24.1714  -34.0333  -11.5316 N   0  0  0  0  0  0  0  0  0  0  0  0
   24.8508  -34.0020  -10.2437 C   0  0  1  0  0  0  0  0  0  0  0  0
   25.0950  -32.6377   -9.7172 C   0  0  0  0  0  0  0  0  0  0  0  0
   25.6628  -32.5646   -8.3847 C   0  0  0  0  0  0  0  0  0  0  0  0
   24.9112  -32.2262   -7.2910 C   0  0  0  0  0  0  0  0  0  0  0  0
   25.4602  -32.1662   -6.0298 C   0  0  0  0  0  0  0  0  0  0  0  0
   26.7793  -32.4429   -5.8199 C   0  0  0  0  0  0  0  0  0  0  0  0
   27.5590  -32.7868   -6.9039 C   0  0  0  0  0  0  0  0  0  0  0  0
   26.9931  -32.8446   -8.1785 C   0  0  0  0  0  0  0  0  0  0  0  0
   24.0447  -34.7552   -9.2154 C   0  0  0  0  0  0  0  0  0  0  0  0
   22.7930  -34.5418   -9.1033 O   0  0  0  0  0  0  0  0  0  0  0  0
   23.4169  -41.3783   -7.4157 C   0  0  0  0  0  0  0  0  0  0  0  0
   24.0837  -40.3904   -6.0908 S   0  0  0  0  0  0  0  0  0  0  0  0
   23.5815  -38.6823   -6.1806 C   0  0  0  0  0  0  0  0  0  0  0  0
   24.2354  -37.8379   -7.2018 C   0  0  0  0  0  0  0  0  0  0  0  0
   23.8063  -36.4265   -7.3420 C   0  0  2  0  0  0  0  0  0  0  0  0
   24.6055  -35.7068   -8.3475 N   0  0  0  0  0  0  0  0  0  0  0  0
   23.8588  -35.6433   -6.1007 C   0  0  0  0  0  0  0  0  0  0  0  0
   22.7737  -35.4965   -5.2767 O   0  0  0  0  0  0  0  0  0  0  0  0
   24.9266  -35.0833   -5.7638 O   0  0  0  0  0  0  0  0  0  0  0  0
  2  1  1  0
  3  2  1  0
  3  4  1  1
  5  3  1  0
  5  6  1  6
  7  5  1  0
  8  7  2  0
  9  7  1  0
 10 11  1  1
 10  9  1  0
 11 12  1  0
 12 17  2  0
 13 14  2  0
 13 12  1  0
 14 15  1  0
 15 16  2  0
 17 16  1  0
 18 10  1  0
 18 19  2  0
 20 21  1  0
 22 21  1  0
 22 23  1  0
 24 23  1  1
 24 26  1  0
 24 25  1  0
 25 18  1  0
 26 27  1  0
 28 26  2  0
M  END
$$$$
