IFM.pdb
     RDKit          3D

 28 28  0  0  1  0  0  0  0  0999 V2000
   22.3927  -22.1808  -16.6748 C   0  0  0  0  0  0  0  0  0  0  0  0
   23.6117  -21.3284  -16.4610 C   0  0  0  0  0  0  0  0  0  0  0  0
   24.2647  -21.6881  -15.1621 C   0  0  2  0  0  0  0  0  0  0  0  0
   24.3336  -23.2049  -14.9974 C   0  0  0  0  0  0  0  0  0  0  0  0
   23.5794  -21.0618  -13.9726 C   0  0  2  0  0  0  0  0  0  0  0  0
   23.7300  -19.5910  -14.2157 N   0  0  0  0  0  0  0  0  0  0  0  0
   24.2661  -21.2793  -12.6850 C   0  0  0  0  0  0  0  0  0  0  0  0
   24.2306  -22.4334  -12.1238 O   0  0  0  0  0  0  0  0  0  0  0  0
   24.9932  -20.2813  -11.9865 N   0  0  0  0  0  0  0  0  0  0  0  0
   25.5580  -20.5127  -10.6641 C   0  0  1  0  0  0  0  0  0  0  0  0
   26.6031  -19.5381  -10.2692 C   0  0  0  0  0  0  0  0  0  0  0  0
   27.1634  -19.7116   -8.9429 C   0  0  0  0  0  0  0  0  0  0  0  0
   26.7413  -18.9699   -7.8718 C   0  0  0  0  0  0  0  0  0  0  0  0
   27.2764  -19.1483   -6.6158 C   0  0  0  0  0  0  0  0  0  0  0  0
   28.2516  -20.0745   -6.3887 C   0  0  0  0  0  0  0  0  0  0  0  0
   28.6950  -20.8354   -7.4497 C   0  0  0  0  0  0  0  0  0  0  0  0
   28.1463  -20.6469   -8.7192 C   0  0  0  0  0  0  0  0  0  0  0  0
   24.4691  -20.4681   -9.6217 C   0  0  0  0  0  0  0  0  0  0  0  0
   23.5927  -19.5428   -9.6524 O   0  0  0  0  0  0  0  0  0  0  0  0
   18.9466  -22.4699   -9.2274 C   0  0  0  0  0  0  0  0  0  0  0  0
   19.4853  -23.0369   -7.6261 S   0  0  0  0  0  0  0  0  0  0  0  0
   20.9485  -22.1969   -7.0506 C   0  0  0  0  0  0  0  0  0  0  0  0
   22.0889  -22.1073   -7.9859 C   0  0  0  0  0  0  0  0  0  0  0  0
   23.2933  -21.3495   -7.5723 C   0  0  2  0  0  0  0  0  0  0  0  0
   24.3574  -21.4124   -8.5878 N   0  0  0  0  0  0  0  0  0  0  0  0
   23.8809  -21.7801   -6.2970 C   0  0  0  0  0  0  0  0  0  0  0  0
   24.8393  -22.7565   -6.2207 O   0  0  0  0  0  0  0  0  0  0  0  0
   23.5074  -21.2451   -5.2285 O   0  0  0  0  0  0  0  0  0  0  0  0
  2  1  1  0
  3  2  1  0
  3  4  1  1
  5  3  1  0
  5  6  1  6
  7  5  1  0
  8  7  2  0
  9  7  1  0
 10 11  1  1
 10  9  1  0
 11 12  1  0
 12 17  2  0
 13 14  2  0
 13 12  1  0
 14 15  1  0
 15 16  2  0
 17 16  1  0
 18 10  1  0
 18 19  2  0
 20 21  1  0
 22 21  1  0
 22 23  1  0
 24 23  1  6
 24 26  1  0
 24 25  1  0
 25 18  1  0
 26 27  1  0
 28 26  2  0
M  END
$$$$
