IFM.pdb
     RDKit          3D

 28 28  0  0  1  0  0  0  0  0999 V2000
   27.1740  -19.0026  -19.2105 C   0  0  0  0  0  0  0  0  0  0  0  0
   28.0008  -19.8469  -18.2821 C   0  0  0  0  0  0  0  0  0  0  0  0
   27.2061  -20.1895  -17.0598 C   0  0  2  0  0  0  0  0  0  0  0  0
   26.6614  -18.9239  -16.4010 C   0  0  0  0  0  0  0  0  0  0  0  0
   27.9934  -21.0030  -16.0623 C   0  0  2  0  0  0  0  0  0  0  0  0
   28.1170  -22.3426  -16.7221 N   0  0  0  0  0  0  0  0  0  0  0  0
   27.2766  -21.2928  -14.8057 C   0  0  0  0  0  0  0  0  0  0  0  0
   26.2511  -22.0652  -14.8133 O   0  0  0  0  0  0  0  0  0  0  0  0
   27.6397  -20.7704  -13.5376 N   0  0  0  0  0  0  0  0  0  0  0  0
   26.8166  -20.9643  -12.3518 C   0  0  1  0  0  0  0  0  0  0  0  0
   27.4809  -20.5871  -11.0812 C   0  0  0  0  0  0  0  0  0  0  0  0
   26.6194  -20.4953   -9.9182 C   0  0  0  0  0  0  0  0  0  0  0  0
   25.8591  -21.5511   -9.4906 C   0  0  0  0  0  0  0  0  0  0  0  0
   25.0497  -21.4538   -8.3811 C   0  0  0  0  0  0  0  0  0  0  0  0
   24.9736  -20.2975   -7.6616 C   0  0  0  0  0  0  0  0  0  0  0  0
   25.7292  -19.2187   -8.0700 C   0  0  0  0  0  0  0  0  0  0  0  0
   26.5465  -19.3273   -9.1962 C   0  0  0  0  0  0  0  0  0  0  0  0
   25.5478  -20.1571  -12.4656 C   0  0  0  0  0  0  0  0  0  0  0  0
   25.6028  -18.8847  -12.5213 O   0  0  0  0  0  0  0  0  0  0  0  0
   22.4704  -18.7490  -17.0581 C   0  0  0  0  0  0  0  0  0  0  0  0
   21.1004  -18.4310  -15.9635 S   0  0  0  0  0  0  0  0  0  0  0  0
   21.4690  -18.8175  -14.2629 C   0  0  0  0  0  0  0  0  0  0  0  0
   22.7319  -19.5349  -13.9908 C   0  0  0  0  0  0  0  0  0  0  0  0
   23.0392  -19.9354  -12.5975 C   0  0  2  0  0  0  0  0  0  0  0  0
   24.2702  -20.7389  -12.5159 N   0  0  0  0  0  0  0  0  0  0  0  0
   21.9757  -20.6969  -11.9295 C   0  0  0  0  0  0  0  0  0  0  0  0
   21.8955  -22.0632  -11.9967 O   0  0  0  0  0  0  0  0  0  0  0  0
   21.1018  -20.0935  -11.2666 O   0  0  0  0  0  0  0  0  0  0  0  0
  2  1  1  0
  3  2  1  0
  3  4  1  1
  5  3  1  0
  5  6  1  6
  7  5  1  0
  8  7  2  0
  9  7  1  0
 10 11  1  1
 10  9  1  0
 11 12  1  0
 12 17  2  0
 13 14  2  0
 13 12  1  0
 14 15  1  0
 15 16  2  0
 17 16  1  0
 18 10  1  0
 18 19  2  0
 20 21  1  0
 22 21  1  0
 22 23  1  0
 24 23  1  6
 24 26  1  0
 24 25  1  0
 25 18  1  0
 26 27  1  0
 28 26  2  0
M  END
$$$$
