IFM.pdb
     RDKit          3D

 28 28  0  0  1  0  0  0  0  0999 V2000
   27.3816  -20.9214  -19.4730 C   0  0  0  0  0  0  0  0  0  0  0  0
   27.2712  -22.3921  -19.1847 C   0  0  0  0  0  0  0  0  0  0  0  0
   26.5995  -22.6041  -17.8630 C   0  0  2  0  0  0  0  0  0  0  0  0
   25.1708  -22.0652  -17.8939 C   0  0  0  0  0  0  0  0  0  0  0  0
   27.3659  -21.9936  -16.7156 C   0  0  2  0  0  0  0  0  0  0  0  0
   28.5324  -22.9177  -16.5420 N   0  0  0  0  0  0  0  0  0  0  0  0
   26.6719  -22.0523  -15.4149 C   0  0  0  0  0  0  0  0  0  0  0  0
   26.4753  -23.1837  -14.8409 O   0  0  0  0  0  0  0  0  0  0  0  0
   26.1848  -20.9183  -14.7151 N   0  0  0  0  0  0  0  0  0  0  0  0
   25.4476  -21.0338  -13.4643 C   0  0  1  0  0  0  0  0  0  0  0  0
   25.8527  -20.0558  -12.4263 C   0  0  0  0  0  0  0  0  0  0  0  0
   27.0020  -20.4243  -11.6220 C   0  0  0  0  0  0  0  0  0  0  0  0
   28.2821  -20.3436  -12.1019 C   0  0  0  0  0  0  0  0  0  0  0  0
   29.3657  -20.6903  -11.3266 C   0  0  0  0  0  0  0  0  0  0  0  0
   29.2056  -21.1292  -10.0451 C   0  0  0  0  0  0  0  0  0  0  0  0
   27.9271  -21.2197   -9.5365 C   0  0  0  0  0  0  0  0  0  0  0  0
   26.8351  -20.8661  -10.3306 C   0  0  0  0  0  0  0  0  0  0  0  0
   23.9715  -20.8539  -13.7156 C   0  0  0  0  0  0  0  0  0  0  0  0
   23.5611  -19.9025  -14.4582 O   0  0  0  0  0  0  0  0  0  0  0  0
   18.6073  -24.9088  -11.5491 C   0  0  0  0  0  0  0  0  0  0  0  0
   18.4675  -24.3084  -13.2212 S   0  0  0  0  0  0  0  0  0  0  0  0
   19.3395  -22.7756  -13.4815 C   0  0  0  0  0  0  0  0  0  0  0  0
   20.7907  -22.7673  -13.2032 C   0  0  0  0  0  0  0  0  0  0  0  0
   21.5551  -21.5196  -13.4373 C   0  0  2  0  0  0  0  0  0  0  0  0
   22.9912  -21.6962  -13.1653 N   0  0  0  0  0  0  0  0  0  0  0  0
   21.1006  -20.3653  -12.6511 C   0  0  0  0  0  0  0  0  0  0  0  0
   20.0756  -19.5534  -13.0608 O   0  0  0  0  0  0  0  0  0  0  0  0
   21.6561  -20.0979  -11.5614 O   0  0  0  0  0  0  0  0  0  0  0  0
  2  1  1  0
  3  2  1  0
  3  4  1  6
  5  3  1  0
  5  6  1  1
  7  5  1  0
  8  7  2  0
  9  7  1  0
 10 11  1  1
 10  9  1  0
 11 12  1  0
 12 17  2  0
 13 14  2  0
 13 12  1  0
 14 15  1  0
 15 16  2  0
 17 16  1  0
 18 10  1  0
 18 19  2  0
 20 21  1  0
 22 21  1  0
 22 23  1  0
 24 23  1  1
 24 26  1  0
 24 25  1  0
 25 18  1  0
 26 27  1  0
 28 26  2  0
M  END
$$$$
