GRK.pdb
     RDKit          3D

 25 24  0  0  1  0  0  0  0  0999 V2000
   21.7800  -15.1133  -17.5416 N   0  0  0  0  0  0  0  0  0  0  0  0
   22.2915  -15.7951  -16.3635 C   0  0  0  0  0  0  0  0  0  0  0  0
   21.8647  -17.2209  -16.3589 C   0  0  0  0  0  0  0  0  0  0  0  0
   21.0660  -17.6809  -17.2169 O   0  0  0  0  0  0  0  0  0  0  0  0
   25.1026  -22.4984  -12.3218 N   0  0  0  0  0  0  0  0  0  0  0  0
   24.9625  -23.0823  -13.5906 C   0  0  0  0  0  0  0  0  0  0  0  0
   24.6456  -24.3395  -13.7289 N   0  0  0  0  0  0  0  0  0  0  0  0
   25.1665  -22.3301  -14.7722 N   0  0  0  0  0  0  0  0  0  0  0  0
   25.4778  -20.9321  -14.7681 C   0  0  0  0  0  0  0  0  0  0  0  0
   24.3286  -20.1279  -15.3048 C   0  0  0  0  0  0  0  0  0  0  0  0
   23.0219  -20.3039  -14.6268 C   0  0  0  0  0  0  0  0  0  0  0  0
   21.9476  -19.5210  -15.3758 C   0  0  2  0  0  0  0  0  0  0  0  0
   22.3466  -18.1071  -15.3841 N   0  0  0  0  0  0  0  0  0  0  0  0
   20.6945  -19.5825  -14.6252 C   0  0  0  0  0  0  0  0  0  0  0  0
   20.5327  -18.8881  -13.5924 O   0  0  0  0  0  0  0  0  0  0  0  0
   24.6763  -24.7665  -14.6703 N   0  0  0  0  0  0  0  0  0  0  0  0
   19.6379  -20.4204  -15.0530 C   0  0  2  0  0  0  0  0  0  0  0  0
   18.3534  -20.5317  -14.3492 C   0  0  0  0  0  0  0  0  0  0  0  0
   17.5269  -21.5290  -15.0774 C   0  0  0  0  0  0  0  0  0  0  0  0
   16.1340  -21.6557  -14.5173 C   0  0  0  0  0  0  0  0  0  0  0  0
   15.4101  -22.7932  -15.1742 C   0  0  0  0  0  0  0  0  0  0  0  0
   13.9841  -22.8616  -14.6182 N   0  0  0  0  0  0  0  0  0  0  0  0
   13.3159  -24.0441  -15.1065 C   0  0  0  0  0  0  0  0  0  0  0  0
   18.6158  -20.8939  -12.9384 O   0  0  0  0  0  0  0  0  0  0  0  0
   19.5576  -21.8593  -12.6161 O   0  0  0  0  0  0  0  0  0  0  0  0
  1  2  1  0
  3  2  1  0
  4  3  2  0
  5  6  1  0
  6  7  2  0
  6  8  1  0
  8  9  1  0
  9 10  1  0
 11 10  1  0
 12 11  1  1
 12 13  1  0
 13  3  1  0
 14 12  1  0
 14 15  2  0
 16 14  1  0
 17 16  1  0
 17 18  1  6
 19 18  1  0
 20 19  1  0
 20 21  1  0
 21 22  1  0
 23 17  1  0
 24 23  1  0
 25 23  2  0
M  END
$$$$
