GRK.pdb
     RDKit          3D

 25 24  0  0  1  0  0  0  0  0999 V2000
   17.4511  -14.0891  -15.1754 N   0  0  0  0  0  0  0  0  0  0  0  0
   16.8806  -13.3089  -16.2617 C   0  0  0  0  0  0  0  0  0  0  0  0
   17.5509  -11.9837  -16.3607 C   0  0  0  0  0  0  0  0  0  0  0  0
   18.4667  -11.7601  -17.1956 O   0  0  0  0  0  0  0  0  0  0  0  0
   13.4641   -4.4991  -15.5842 N   0  0  0  0  0  0  0  0  0  0  0  0
   13.3658   -5.3733  -16.6780 C   0  0  0  0  0  0  0  0  0  0  0  0
   12.6499   -5.0732  -17.7257 N   0  0  0  0  0  0  0  0  0  0  0  0
   14.0354   -6.6204  -16.6845 N   0  0  0  0  0  0  0  0  0  0  0  0
   14.8225   -7.0937  -15.5855 C   0  0  0  0  0  0  0  0  0  0  0  0
   15.8970   -8.0284  -16.0622 C   0  0  0  0  0  0  0  0  0  0  0  0
   16.7954   -8.5905  -15.0252 C   0  0  0  0  0  0  0  0  0  0  0  0
   17.7556   -9.5879  -15.6666 C   0  0  2  0  0  0  0  0  0  0  0  0
   17.1767  -10.9295  -15.5142 N   0  0  0  0  0  0  0  0  0  0  0  0
   19.0096   -9.6015  -14.9151 C   0  0  0  0  0  0  0  0  0  0  0  0
   19.0402  -10.0106  -13.7291 O   0  0  0  0  0  0  0  0  0  0  0  0
   12.6458   -5.7172  -18.5348 N   0  0  0  0  0  0  0  0  0  0  0  0
   20.2136   -9.1607  -15.5132 C   0  0  2  0  0  0  0  0  0  0  0  0
   21.5139   -9.1781  -14.8301 C   0  0  0  0  0  0  0  0  0  0  0  0
   22.5029   -9.7794  -15.7618 C   0  0  0  0  0  0  0  0  0  0  0  0
   23.8661   -9.9448  -15.1415 C   0  0  0  0  0  0  0  0  0  0  0  0
   24.8050  -10.5954  -16.1134 C   0  0  0  0  0  0  0  0  0  0  0  0
   26.1244  -10.9039  -15.3986 N   0  0  0  0  0  0  0  0  0  0  0  0
   27.0406  -11.5545  -16.3044 C   0  0  0  0  0  0  0  0  0  0  0  0
   21.8503   -7.7974  -14.4164 O   0  0  0  0  0  0  0  0  0  0  0  0
   22.4773   -7.5517  -13.2043 O   0  0  0  0  0  0  0  0  0  0  0  0
  1  2  1  0
  3  2  1  0
  4  3  2  0
  5  6  1  0
  6  7  2  0
  6  8  1  0
  8  9  1  0
  9 10  1  0
 11 10  1  0
 12 11  1  1
 12 13  1  0
 13  3  1  0
 14 12  1  0
 14 15  2  0
 16 14  1  0
 17 16  1  0
 17 18  1  6
 19 18  1  0
 20 19  1  0
 20 21  1  0
 21 22  1  0
 23 17  1  0
 24 23  1  0
 25 23  2  0
M  END
$$$$
