GRK.pdb
     RDKit          3D

 25 24  0  0  1  0  0  0  0  0999 V2000
   23.4545  -20.4098   -8.1093 N   0  0  0  0  0  0  0  0  0  0  0  0
   24.4278  -21.0213   -8.9998 C   0  0  0  0  0  0  0  0  0  0  0  0
   24.3704  -20.3920  -10.3473 C   0  0  0  0  0  0  0  0  0  0  0  0
   23.5474  -19.4795  -10.6228 O   0  0  0  0  0  0  0  0  0  0  0  0
   27.3530  -20.8393  -17.7692 N   0  0  0  0  0  0  0  0  0  0  0  0
   27.9920  -21.5625  -16.7499 C   0  0  0  0  0  0  0  0  0  0  0  0
   28.2355  -22.8377  -16.8714 N   0  0  0  0  0  0  0  0  0  0  0  0
   28.3922  -20.9368  -15.5450 N   0  0  0  0  0  0  0  0  0  0  0  0
   28.0883  -19.5728  -15.2309 C   0  0  0  0  0  0  0  0  0  0  0  0
   26.7885  -19.4738  -14.4851 C   0  0  0  0  0  0  0  0  0  0  0  0
   26.6626  -20.2983  -13.2592 C   0  0  0  0  0  0  0  0  0  0  0  0
   25.2658  -20.1274  -12.6693 C   0  0  2  0  0  0  0  0  0  0  0  0
   25.2440  -20.8030  -11.3649 N   0  0  0  0  0  0  0  0  0  0  0  0
   24.2988  -20.8351  -13.5067 C   0  0  0  0  0  0  0  0  0  0  0  0
   24.2656  -22.0895  -13.5251 O   0  0  0  0  0  0  0  0  0  0  0  0
   28.7052  -23.3373  -16.0973 N   0  0  0  0  0  0  0  0  0  0  0  0
   23.3772  -20.1192  -14.3066 C   0  0  1  0  0  0  0  0  0  0  0  0
   22.2804  -20.7547  -15.0487 C   0  0  0  0  0  0  0  0  0  0  0  0
   21.0172  -20.0841  -14.6455 C   0  0  0  0  0  0  0  0  0  0  0  0
   20.0850  -20.9966  -13.8915 C   0  0  0  0  0  0  0  0  0  0  0  0
   18.7735  -20.3123  -13.6444 C   0  0  0  0  0  0  0  0  0  0  0  0
   17.8809  -21.2362  -12.8096 N   0  0  0  0  0  0  0  0  0  0  0  0
   16.6122  -20.5995  -12.5485 C   0  0  0  0  0  0  0  0  0  0  0  0
   22.5691  -20.6569  -16.4971 O   0  0  0  0  0  0  0  0  0  0  0  0
   22.0825  -21.6050  -17.3842 O   0  0  0  0  0  0  0  0  0  0  0  0
  1  2  1  0
  3  2  1  0
  4  3  2  0
  5  6  1  0
  6  7  2  0
  6  8  1  0
  8  9  1  0
  9 10  1  0
 11 10  1  0
 12 11  1  6
 12 13  1  0
 13  3  1  0
 14 12  1  0
 14 15  2  0
 16 14  1  0
 17 16  1  0
 17 18  1  6
 19 18  1  0
 20 19  1  0
 20 21  1  0
 21 22  1  0
 23 17  1  0
 24 23  1  0
 25 23  2  0
M  END
$$$$
