GRK.pdb
     RDKit          3D

 25 24  0  0  1  0  0  0  0  0999 V2000
   18.7372  -21.9731  -10.9088 N   0  0  0  0  0  0  0  0  0  0  0  0
   19.9175  -22.4387  -11.6189 C   0  0  0  0  0  0  0  0  0  0  0  0
   20.6231  -21.2975  -12.2633 C   0  0  0  0  0  0  0  0  0  0  0  0
   20.1394  -20.1349  -12.2748 O   0  0  0  0  0  0  0  0  0  0  0  0
   27.5961  -22.9326  -16.5140 N   0  0  0  0  0  0  0  0  0  0  0  0
   26.6538  -23.9084  -16.1532 C   0  0  0  0  0  0  0  0  0  0  0  0
   26.5756  -25.0451  -16.7871 N   0  0  0  0  0  0  0  0  0  0  0  0
   25.7448  -23.6941  -15.0895 N   0  0  0  0  0  0  0  0  0  0  0  0
   25.7059  -22.4852  -14.3224 C   0  0  0  0  0  0  0  0  0  0  0  0
   24.2911  -22.0183  -14.1334 C   0  0  0  0  0  0  0  0  0  0  0  0
   24.1062  -20.7373  -13.4102 C   0  0  0  0  0  0  0  0  0  0  0  0
   22.6299  -20.3519  -13.4218 C   0  0  2  0  0  0  0  0  0  0  0  0
   21.8658  -21.4865  -12.8859 N   0  0  0  0  0  0  0  0  0  0  0  0
   22.1863  -20.1835  -14.8046 C   0  0  0  0  0  0  0  0  0  0  0  0
   21.8068  -21.1712  -15.4794 O   0  0  0  0  0  0  0  0  0  0  0  0
   25.8862  -25.7499  -16.4752 N   0  0  0  0  0  0  0  0  0  0  0  0
   22.1696  -18.9030  -15.4058 C   0  0  2  0  0  0  0  0  0  0  0  0
   21.5606  -18.6274  -16.7138 C   0  0  0  0  0  0  0  0  0  0  0  0
   21.3493  -17.1598  -16.8109 C   0  0  0  0  0  0  0  0  0  0  0  0
   20.6091  -16.7564  -18.0597 C   0  0  0  0  0  0  0  0  0  0  0  0
   20.5405  -15.2619  -18.1646 C   0  0  0  0  0  0  0  0  0  0  0  0
   19.7585  -14.8880  -19.4278 N   0  0  0  0  0  0  0  0  0  0  0  0
   19.5882  -13.4567  -19.5021 C   0  0  0  0  0  0  0  0  0  0  0  0
   22.4417  -19.1722  -17.7710 O   0  0  0  0  0  0  0  0  0  0  0  0
   21.9163  -19.6149  -18.9754 O   0  0  0  0  0  0  0  0  0  0  0  0
  1  2  1  0
  3  2  1  0
  4  3  2  0
  5  6  1  0
  6  7  2  0
  6  8  1  0
  8  9  1  0
  9 10  1  0
 11 10  1  0
 12 11  1  6
 12 13  1  0
 13  3  1  0
 14 12  1  0
 14 15  2  0
 16 14  1  0
 17 16  1  0
 17 18  1  1
 19 18  1  0
 20 19  1  0
 20 21  1  0
 21 22  1  0
 23 17  1  0
 24 23  1  0
 25 23  2  0
M  END
$$$$
