GRK.pdb
     RDKit          3D

 25 24  0  0  1  0  0  0  0  0999 V2000
   14.0696  -14.1744  -16.1510 N   0  0  0  0  0  0  0  0  0  0  0  0
   14.7456  -13.1894  -16.9799 C   0  0  0  0  0  0  0  0  0  0  0  0
   15.2470  -12.0622  -16.1473 C   0  0  0  0  0  0  0  0  0  0  0  0
   14.6131  -11.6402  -15.1444 O   0  0  0  0  0  0  0  0  0  0  0  0
   23.1650   -7.6225  -15.2307 N   0  0  0  0  0  0  0  0  0  0  0  0
   22.1709   -7.1753  -14.3464 C   0  0  0  0  0  0  0  0  0  0  0  0
   22.3864   -6.1850  -13.5260 N   0  0  0  0  0  0  0  0  0  0  0  0
   20.8950   -7.7870  -14.3050 N   0  0  0  0  0  0  0  0  0  0  0  0
   20.4626   -8.7646  -15.2583 C   0  0  0  0  0  0  0  0  0  0  0  0
   19.0028   -9.0710  -15.0836 C   0  0  0  0  0  0  0  0  0  0  0  0
   18.4535  -10.1748  -15.9070 C   0  0  0  0  0  0  0  0  0  0  0  0
   16.9514  -10.2937  -15.6664 C   0  0  2  0  0  0  0  0  0  0  0  0
   16.4582  -11.4274  -16.4601 N   0  0  0  0  0  0  0  0  0  0  0  0
   16.2825   -9.1074  -16.1981 C   0  0  0  0  0  0  0  0  0  0  0  0
   16.2808   -8.8725  -17.4308 O   0  0  0  0  0  0  0  0  0  0  0  0
   21.6483   -5.9183  -12.8527 N   0  0  0  0  0  0  0  0  0  0  0  0
   15.6183   -8.2057  -15.3336 C   0  0  2  0  0  0  0  0  0  0  0  0
   14.9401   -6.9874  -15.7958 C   0  0  0  0  0  0  0  0  0  0  0  0
   13.5756   -6.9820  -15.2076 C   0  0  0  0  0  0  0  0  0  0  0  0
   12.7865   -5.7510  -15.5710 C   0  0  0  0  0  0  0  0  0  0  0  0
   11.4548   -5.7636  -14.8811 C   0  0  0  0  0  0  0  0  0  0  0  0
   10.7034   -4.4744  -15.2283 N   0  0  0  0  0  0  0  0  0  0  0  0
    9.4860   -4.3854  -14.4580 C   0  0  0  0  0  0  0  0  0  0  0  0
   15.7576   -5.8151  -15.4112 O   0  0  0  0  0  0  0  0  0  0  0  0
   16.8480   -5.9557  -14.5662 O   0  0  0  0  0  0  0  0  0  0  0  0
  1  2  1  0
  3  2  1  0
  4  3  2  0
  5  6  1  0
  6  7  2  0
  6  8  1  0
  8  9  1  0
  9 10  1  0
 11 10  1  0
 12 11  1  6
 12 13  1  0
 13  3  1  0
 14 12  1  0
 14 15  2  0
 16 14  1  0
 17 16  1  0
 17 18  1  1
 19 18  1  0
 20 19  1  0
 20 21  1  0
 21 22  1  0
 23 17  1  0
 24 23  1  0
 25 23  2  0
M  END
$$$$
