GRK.pdb
     RDKit          3D

 25 24  0  0  1  0  0  0  0  0999 V2000
   19.2539  -21.2392  -11.6463 N   0  0  0  0  0  0  0  0  0  0  0  0
   20.1251  -21.7084  -12.7117 C   0  0  0  0  0  0  0  0  0  0  0  0
   21.1911  -20.7086  -12.9930 C   0  0  0  0  0  0  0  0  0  0  0  0
   20.9243  -19.5389  -13.3755 O   0  0  0  0  0  0  0  0  0  0  0  0
   28.5804  -20.4537  -12.5738 N   0  0  0  0  0  0  0  0  0  0  0  0
   28.0309  -20.9150  -11.3673 C   0  0  0  0  0  0  0  0  0  0  0  0
   28.3992  -22.0506  -10.8430 N   0  0  0  0  0  0  0  0  0  0  0  0
   27.0486  -20.1679  -10.6741 N   0  0  0  0  0  0  0  0  0  0  0  0
   25.8202  -20.7340  -10.2031 C   0  0  0  0  0  0  0  0  0  0  0  0
   24.6770  -20.3472  -11.0970 C   0  0  0  0  0  0  0  0  0  0  0  0
   24.8883  -20.5158  -12.5548 C   0  0  0  0  0  0  0  0  0  0  0  0
   23.6104  -20.1475  -13.3027 C   0  0  2  0  0  0  0  0  0  0  0  0
   22.5441  -21.0450  -12.8380 N   0  0  0  0  0  0  0  0  0  0  0  0
   23.7857  -20.4318  -14.7260 C   0  0  0  0  0  0  0  0  0  0  0  0
   23.2447  -21.4361  -15.2491 O   0  0  0  0  0  0  0  0  0  0  0  0
   27.8893  -22.4152  -10.0206 N   0  0  0  0  0  0  0  0  0  0  0  0
   24.5624  -19.5761  -15.5420 C   0  0  1  0  0  0  0  0  0  0  0  0
   24.0911  -19.0220  -16.8182 C   0  0  0  0  0  0  0  0  0  0  0  0
   22.7949  -18.3424  -16.5618 C   0  0  0  0  0  0  0  0  0  0  0  0
   21.6851  -18.8448  -17.4485 C   0  0  0  0  0  0  0  0  0  0  0  0
   20.6228  -19.5116  -16.6261 C   0  0  0  0  0  0  0  0  0  0  0  0
   19.5467  -20.0696  -17.5629 N   0  0  0  0  0  0  0  0  0  0  0  0
   18.5054  -20.7123  -16.7975 C   0  0  0  0  0  0  0  0  0  0  0  0
   25.1358  -18.1243  -17.3597 O   0  0  0  0  0  0  0  0  0  0  0  0
   25.7616  -17.1910  -16.5472 O   0  0  0  0  0  0  0  0  0  0  0  0
  1  2  1  0
  3  2  1  0
  4  3  2  0
  5  6  1  0
  6  7  2  0
  6  8  1  0
  8  9  1  0
  9 10  1  0
 11 10  1  0
 12 11  1  1
 12 13  1  0
 13  3  1  0
 14 12  1  0
 14 15  2  0
 16 14  1  0
 17 16  1  0
 17 18  1  6
 19 18  1  0
 20 19  1  0
 20 21  1  0
 21 22  1  0
 23 17  1  0
 24 23  1  0
 25 23  2  0
M  END
$$$$
