GRK.pdb
     RDKit          3D

 25 24  0  0  1  0  0  0  0  0999 V2000
   19.8147  -28.0600   -0.9705 N   0  0  0  0  0  0  0  0  0  0  0  0
   18.9899  -28.2952   -2.1447 C   0  0  0  0  0  0  0  0  0  0  0  0
   18.3409  -27.0315   -2.5886 C   0  0  0  0  0  0  0  0  0  0  0  0
   18.3525  -25.9909   -1.8795 O   0  0  0  0  0  0  0  0  0  0  0  0
   19.3804  -24.4300   -8.9476 N   0  0  0  0  0  0  0  0  0  0  0  0
   18.1117  -24.8375   -9.3887 C   0  0  0  0  0  0  0  0  0  0  0  0
   17.9490  -25.4244  -10.5416 N   0  0  0  0  0  0  0  0  0  0  0  0
   16.9555  -24.6212   -8.6012 N   0  0  0  0  0  0  0  0  0  0  0  0
   16.9730  -23.9003   -7.3636 C   0  0  0  0  0  0  0  0  0  0  0  0
   16.1788  -24.6232   -6.3138 C   0  0  0  0  0  0  0  0  0  0  0  0
   16.7652  -25.8782   -5.7853 C   0  0  0  0  0  0  0  0  0  0  0  0
   17.0889  -25.7073   -4.3040 C   0  0  2  0  0  0  0  0  0  0  0  0
   17.6877  -26.9616   -3.8280 N   0  0  0  0  0  0  0  0  0  0  0  0
   15.8445  -25.5439   -3.5542 C   0  0  0  0  0  0  0  0  0  0  0  0
   15.0865  -26.5233   -3.3514 O   0  0  0  0  0  0  0  0  0  0  0  0
   16.9909  -25.6317  -10.8711 N   0  0  0  0  0  0  0  0  0  0  0  0
   15.4750  -24.2801   -3.0368 C   0  0  2  0  0  0  0  0  0  0  0  0
   14.2953  -24.0627   -2.1889 C   0  0  0  0  0  0  0  0  0  0  0  0
   14.4648  -22.7515   -1.5107 C   0  0  0  0  0  0  0  0  0  0  0  0
   14.9784  -22.8840   -0.1004 C   0  0  0  0  0  0  0  0  0  0  0  0
   15.0320  -21.5399    0.5628 C   0  0  0  0  0  0  0  0  0  0  0  0
   15.6645  -21.6952    1.9494 N   0  0  0  0  0  0  0  0  0  0  0  0
   15.7060  -20.4193    2.6230 C   0  0  0  0  0  0  0  0  0  0  0  0
   13.0830  -24.1421   -3.0342 O   0  0  0  0  0  0  0  0  0  0  0  0
   11.8442  -24.4184   -2.4758 O   0  0  0  0  0  0  0  0  0  0  0  0
  1  2  1  0
  3  2  1  0
  4  3  2  0
  5  6  1  0
  6  7  2  0
  6  8  1  0
  8  9  1  0
  9 10  1  0
 11 10  1  0
 12 11  1  6
 12 13  1  0
 13  3  1  0
 14 12  1  0
 14 15  2  0
 16 14  1  0
 17 16  1  0
 17 18  1  1
 19 18  1  0
 20 19  1  0
 20 21  1  0
 21 22  1  0
 23 17  1  0
 24 23  1  0
 25 23  2  0
M  END
$$$$
