GRK.pdb
     RDKit          3D

 25 24  0  0  1  0  0  0  0  0999 V2000
   14.6308  -12.4970  -11.5866 N   0  0  0  0  0  0  0  0  0  0  0  0
   15.1700  -11.6983  -10.4978 C   0  0  0  0  0  0  0  0  0  0  0  0
   15.5498  -10.3434  -10.9825 C   0  0  0  0  0  0  0  0  0  0  0  0
   15.4115  -10.0029  -12.1870 O   0  0  0  0  0  0  0  0  0  0  0  0
   13.6456   -3.7670   -6.2105 N   0  0  0  0  0  0  0  0  0  0  0  0
   12.8309   -4.7351   -6.8184 C   0  0  0  0  0  0  0  0  0  0  0  0
   11.5478   -4.7830   -6.5919 N   0  0  0  0  0  0  0  0  0  0  0  0
   13.3719   -5.7036   -7.6976 N   0  0  0  0  0  0  0  0  0  0  0  0
   14.7721   -5.8130   -7.9784 C   0  0  0  0  0  0  0  0  0  0  0  0
   15.0226   -6.8299   -9.0549 C   0  0  0  0  0  0  0  0  0  0  0  0
   16.4403   -7.1068   -9.3889 C   0  0  0  0  0  0  0  0  0  0  0  0
   16.5086   -8.0684  -10.5716 C   0  0  2  0  0  0  0  0  0  0  0  0
   16.0809   -9.3920  -10.0990 N   0  0  0  0  0  0  0  0  0  0  0  0
   17.9012   -8.2198  -10.9902 C   0  0  0  0  0  0  0  0  0  0  0  0
   18.7478   -8.7362  -10.2212 O   0  0  0  0  0  0  0  0  0  0  0  0
   10.9861   -5.5326   -7.0301 N   0  0  0  0  0  0  0  0  0  0  0  0
   18.3191   -7.7937  -12.2729 C   0  0  1  0  0  0  0  0  0  0  0  0
   19.6875   -7.9628  -12.7794 C   0  0  0  0  0  0  0  0  0  0  0  0
   19.6036   -8.7136  -14.0588 C   0  0  0  0  0  0  0  0  0  0  0  0
   20.9487   -8.9200  -14.7056 C   0  0  0  0  0  0  0  0  0  0  0  0
   20.8075   -9.7477  -15.9484 C   0  0  0  0  0  0  0  0  0  0  0  0
   22.1872   -9.9152  -16.5929 N   0  0  0  0  0  0  0  0  0  0  0  0
   22.1182  -10.8675  -17.6753 C   0  0  0  0  0  0  0  0  0  0  0  0
   20.3114   -6.6274  -12.9139 O   0  0  0  0  0  0  0  0  0  0  0  0
   21.6835   -6.4687  -12.7926 O   0  0  0  0  0  0  0  0  0  0  0  0
  1  2  1  0
  3  2  1  0
  4  3  2  0
  5  6  1  0
  6  7  2  0
  6  8  1  0
  8  9  1  0
  9 10  1  0
 11 10  1  0
 12 11  1  1
 12 13  1  0
 13  3  1  0
 14 12  1  0
 14 15  2  0
 16 14  1  0
 17 16  1  0
 17 18  1  1
 19 18  1  0
 20 19  1  0
 20 21  1  0
 21 22  1  0
 23 17  1  0
 24 23  1  0
 25 23  2  0
M  END
$$$$
