GRK.pdb
     RDKit          3D

 25 24  0  0  1  0  0  0  0  0999 V2000
   25.7851  -26.6507  -16.8980 N   0  0  0  0  0  0  0  0  0  0  0  0
   25.5383  -25.2275  -17.0657 C   0  0  0  0  0  0  0  0  0  0  0  0
   24.7315  -24.7003  -15.9315 C   0  0  0  0  0  0  0  0  0  0  0  0
   23.8805  -25.4090  -15.3322 O   0  0  0  0  0  0  0  0  0  0  0  0
   23.9069  -20.4117   -9.1981 N   0  0  0  0  0  0  0  0  0  0  0  0
   25.2375  -20.5593   -9.6201 C   0  0  0  0  0  0  0  0  0  0  0  0
   26.1734  -20.9409   -8.7963 N   0  0  0  0  0  0  0  0  0  0  0  0
   25.6182  -20.2928  -10.9571 N   0  0  0  0  0  0  0  0  0  0  0  0
   24.6899  -19.8938  -11.9722 C   0  0  0  0  0  0  0  0  0  0  0  0
   24.0953  -21.0932  -12.6528 C   0  0  0  0  0  0  0  0  0  0  0  0
   24.8487  -21.6435  -13.8052 C   0  0  0  0  0  0  0  0  0  0  0  0
   24.0972  -22.8388  -14.3837 C   0  0  2  0  0  0  0  0  0  0  0  0
   24.8978  -23.3791  -15.4907 N   0  0  0  0  0  0  0  0  0  0  0  0
   22.8440  -22.3781  -14.9792 C   0  0  0  0  0  0  0  0  0  0  0  0
   22.8510  -21.5745  -15.9430 O   0  0  0  0  0  0  0  0  0  0  0  0
   27.1551  -20.9567   -9.1209 N   0  0  0  0  0  0  0  0  0  0  0  0
   21.5997  -22.8353  -14.4848 C   0  0  2  0  0  0  0  0  0  0  0  0
   20.3039  -22.4253  -15.0420 C   0  0  0  0  0  0  0  0  0  0  0  0
   19.2653  -23.3214  -14.4707 C   0  0  0  0  0  0  0  0  0  0  0  0
   17.8817  -23.0144  -14.9822 C   0  0  0  0  0  0  0  0  0  0  0  0
   16.8630  -23.8431  -14.2577 C   0  0  0  0  0  0  0  0  0  0  0  0
   17.1136  -25.3221  -14.5690 N   0  0  0  0  0  0  0  0  0  0  0  0
   16.1071  -26.1410  -13.9367 C   0  0  0  0  0  0  0  0  0  0  0  0
   20.0877  -20.9937  -14.7349 O   0  0  0  0  0  0  0  0  0  0  0  0
   19.2679  -20.2115  -15.5342 O   0  0  0  0  0  0  0  0  0  0  0  0
  1  2  1  0
  3  2  1  0
  4  3  2  0
  5  6  1  0
  6  7  2  0
  6  8  1  0
  8  9  1  0
  9 10  1  0
 11 10  1  0
 12 11  1  6
 12 13  1  0
 13  3  1  0
 14 12  1  0
 14 15  2  0
 16 14  1  0
 17 16  1  0
 17 18  1  6
 19 18  1  0
 20 19  1  0
 20 21  1  0
 21 22  1  0
 23 17  1  0
 24 23  1  0
 25 23  2  0
M  END
$$$$
