GRK.pdb
     RDKit          3D

 25 24  0  0  1  0  0  0  0  0999 V2000
   21.6484   -6.5342  -13.6825 N   0  0  0  0  0  0  0  0  0  0  0  0
   21.1968   -7.4172  -12.6191 C   0  0  0  0  0  0  0  0  0  0  0  0
   19.7592   -7.1777  -12.3170 C   0  0  0  0  0  0  0  0  0  0  0  0
   19.1209   -6.2197  -12.8273 O   0  0  0  0  0  0  0  0  0  0  0  0
   12.8679  -12.4055   -9.7764 N   0  0  0  0  0  0  0  0  0  0  0  0
   12.4962  -11.0521   -9.7948 C   0  0  0  0  0  0  0  0  0  0  0  0
   11.2656  -10.6821   -9.5738 N   0  0  0  0  0  0  0  0  0  0  0  0
   13.4426  -10.0338  -10.0613 N   0  0  0  0  0  0  0  0  0  0  0  0
   14.8567  -10.2610  -10.0740 C   0  0  0  0  0  0  0  0  0  0  0  0
   15.5916   -9.0270  -10.5129 C   0  0  0  0  0  0  0  0  0  0  0  0
   17.0508   -9.1675  -10.7343 C   0  0  0  0  0  0  0  0  0  0  0  0
   17.6346   -7.8245  -11.1632 C   0  0  2  0  0  0  0  0  0  0  0  0
   19.0631   -8.0247  -11.4418 N   0  0  0  0  0  0  0  0  0  0  0  0
   17.5692   -6.8898  -10.0410 C   0  0  0  0  0  0  0  0  0  0  0  0
   18.1633   -7.1403   -8.9644 O   0  0  0  0  0  0  0  0  0  0  0  0
   11.0310   -9.6751   -9.5913 N   0  0  0  0  0  0  0  0  0  0  0  0
   16.8410   -5.6817  -10.1501 C   0  0  2  0  0  0  0  0  0  0  0  0
   16.7125   -4.7090   -9.0570 C   0  0  0  0  0  0  0  0  0  0  0  0
   16.3771   -3.3942   -9.6625 C   0  0  0  0  0  0  0  0  0  0  0  0
   16.0344   -2.3469   -8.6350 C   0  0  0  0  0  0  0  0  0  0  0  0
   17.1662   -1.3743   -8.4852 C   0  0  0  0  0  0  0  0  0  0  0  0
   16.7738   -0.3106   -7.4548 N   0  0  0  0  0  0  0  0  0  0  0  0
   17.8462    0.6412   -7.2893 C   0  0  0  0  0  0  0  0  0  0  0  0
   15.6939   -5.2007   -8.1024 O   0  0  0  0  0  0  0  0  0  0  0  0
   15.8179   -4.9572   -6.7430 O   0  0  0  0  0  0  0  0  0  0  0  0
  1  2  1  0
  3  2  1  0
  4  3  2  0
  5  6  1  0
  6  7  2  0
  6  8  1  0
  8  9  1  0
  9 10  1  0
 11 10  1  0
 12 11  1  1
 12 13  1  0
 13  3  1  0
 14 12  1  0
 14 15  2  0
 16 14  1  0
 17 16  1  0
 17 18  1  6
 19 18  1  0
 20 19  1  0
 20 21  1  0
 21 22  1  0
 23 17  1  0
 24 23  1  0
 25 23  2  0
M  END
$$$$
