GRK.pdb
     RDKit          3D

 25 24  0  0  1  0  0  0  0  0999 V2000
   21.5005  -21.9283  -11.1503 N   0  0  0  0  0  0  0  0  0  0  0  0
   21.4101  -20.9834  -12.2517 C   0  0  0  0  0  0  0  0  0  0  0  0
   22.7469  -20.4015  -12.5515 C   0  0  0  0  0  0  0  0  0  0  0  0
   22.8770  -19.2619  -13.0711 O   0  0  0  0  0  0  0  0  0  0  0  0
   31.4491  -22.0947  -10.4589 N   0  0  0  0  0  0  0  0  0  0  0  0
   30.3551  -21.6856   -9.6803 C   0  0  0  0  0  0  0  0  0  0  0  0
   30.4898  -21.4015   -8.4149 N   0  0  0  0  0  0  0  0  0  0  0  0
   29.0587  -21.5717  -10.2371 N   0  0  0  0  0  0  0  0  0  0  0  0
   28.7856  -21.7496  -11.6318 C   0  0  0  0  0  0  0  0  0  0  0  0
   27.6372  -20.8844  -12.0653 C   0  0  0  0  0  0  0  0  0  0  0  0
   26.2754  -21.4052  -11.7957 C   0  0  0  0  0  0  0  0  0  0  0  0
   25.2454  -20.5419  -12.5182 C   0  0  2  0  0  0  0  0  0  0  0  0
   23.9181  -21.1162  -12.2598 N   0  0  0  0  0  0  0  0  0  0  0  0
   25.4562  -20.6458  -13.9612 C   0  0  0  0  0  0  0  0  0  0  0  0
   25.3471  -21.7509  -14.5458 O   0  0  0  0  0  0  0  0  0  0  0  0
   29.6618  -21.0961   -7.8758 N   0  0  0  0  0  0  0  0  0  0  0  0
   25.7800  -19.5011  -14.7270 C   0  0  2  0  0  0  0  0  0  0  0  0
   25.9794  -19.5268  -16.1821 C   0  0  0  0  0  0  0  0  0  0  0  0
   25.5783  -18.1986  -16.7141 C   0  0  0  0  0  0  0  0  0  0  0  0
   24.4879  -18.2882  -17.7502 C   0  0  0  0  0  0  0  0  0  0  0  0
   24.1588  -16.9239  -18.2790 C   0  0  0  0  0  0  0  0  0  0  0  0
   22.9548  -17.0333  -19.2201 N   0  0  0  0  0  0  0  0  0  0  0  0
   22.6473  -15.7419  -19.7866 C   0  0  0  0  0  0  0  0  0  0  0  0
   27.3901  -19.8772  -16.4609 O   0  0  0  0  0  0  0  0  0  0  0  0
   27.7348  -20.5797  -17.6056 O   0  0  0  0  0  0  0  0  0  0  0  0
  1  2  1  0
  3  2  1  0
  4  3  2  0
  5  6  1  0
  6  7  2  0
  6  8  1  0
  8  9  1  0
  9 10  1  0
 11 10  1  0
 12 11  1  1
 12 13  1  0
 13  3  1  0
 14 12  1  0
 14 15  2  0
 16 14  1  0
 17 16  1  0
 17 18  1  1
 19 18  1  0
 20 19  1  0
 20 21  1  0
 21 22  1  0
 23 17  1  0
 24 23  1  0
 25 23  2  0
M  END
$$$$
