GRK.pdb
     RDKit          3D

 25 24  0  0  1  0  0  0  0  0999 V2000
   20.9104   -8.0291  -11.4082 N   0  0  0  0  0  0  0  0  0  0  0  0
   19.6766   -8.4744  -10.7808 C   0  0  0  0  0  0  0  0  0  0  0  0
   18.5750   -7.5115  -11.0538 C   0  0  0  0  0  0  0  0  0  0  0  0
   18.7512   -6.4758  -11.7481 O   0  0  0  0  0  0  0  0  0  0  0  0
   10.8819   -9.3273  -10.5669 N   0  0  0  0  0  0  0  0  0  0  0  0
   11.7079  -10.4614  -10.5239 C   0  0  0  0  0  0  0  0  0  0  0  0
   11.3173  -11.5653   -9.9502 N   0  0  0  0  0  0  0  0  0  0  0  0
   13.0023  -10.4498  -11.0965 N   0  0  0  0  0  0  0  0  0  0  0  0
   13.5161   -9.3466  -11.8516 C   0  0  0  0  0  0  0  0  0  0  0  0
   14.5389   -8.5863  -11.0571 C   0  0  0  0  0  0  0  0  0  0  0  0
   15.2114   -7.4594  -11.7472 C   0  0  0  0  0  0  0  0  0  0  0  0
   16.1936   -6.7878  -10.7920 C   0  0  2  0  0  0  0  0  0  0  0  0
   17.2895   -7.7327  -10.5378 N   0  0  0  0  0  0  0  0  0  0  0  0
   15.5402   -6.5709   -9.5023 C   0  0  0  0  0  0  0  0  0  0  0  0
   15.6911   -7.3894   -8.5630 O   0  0  0  0  0  0  0  0  0  0  0  0
   11.9586  -12.3763   -9.9283 N   0  0  0  0  0  0  0  0  0  0  0  0
   14.7313   -5.4305   -9.2863 C   0  0  1  0  0  0  0  0  0  0  0  0
   14.0034   -5.1756   -8.0361 C   0  0  0  0  0  0  0  0  0  0  0  0
   14.2866   -3.7749   -7.6288 C   0  0  0  0  0  0  0  0  0  0  0  0
   13.4110   -3.3065   -6.4957 C   0  0  0  0  0  0  0  0  0  0  0  0
   14.1410   -2.3020   -5.6545 C   0  0  0  0  0  0  0  0  0  0  0  0
   13.2407   -1.8833   -4.4878 N   0  0  0  0  0  0  0  0  0  0  0  0
   13.9897   -1.0934   -3.5400 C   0  0  0  0  0  0  0  0  0  0  0  0
   12.5664   -5.4504   -8.2599 O   0  0  0  0  0  0  0  0  0  0  0  0
   12.0527   -5.5444   -9.5444 O   0  0  0  0  0  0  0  0  0  0  0  0
  1  2  1  0
  3  2  1  0
  4  3  2  0
  5  6  1  0
  6  7  2  0
  6  8  1  0
  8  9  1  0
  9 10  1  0
 11 10  1  0
 12 11  1  6
 12 13  1  0
 13  3  1  0
 14 12  1  0
 14 15  2  0
 16 14  1  0
 17 16  1  0
 17 18  1  6
 19 18  1  0
 20 19  1  0
 20 21  1  0
 21 22  1  0
 23 17  1  0
 24 23  1  0
 25 23  2  0
M  END
$$$$
