GRK.pdb
     RDKit          3D

 25 24  0  0  1  0  0  0  0  0999 V2000
   27.8524  -22.5584  -15.5313 N   0  0  0  0  0  0  0  0  0  0  0  0
   27.6565  -21.4319  -14.6330 C   0  0  0  0  0  0  0  0  0  0  0  0
   26.4934  -21.6750  -13.7367 C   0  0  0  0  0  0  0  0  0  0  0  0
   25.7539  -22.6863  -13.8630 O   0  0  0  0  0  0  0  0  0  0  0  0
   20.9080  -20.3679   -8.6301 N   0  0  0  0  0  0  0  0  0  0  0  0
   21.6037  -21.3503   -7.9081 C   0  0  0  0  0  0  0  0  0  0  0  0
   21.0898  -21.9044   -6.8456 N   0  0  0  0  0  0  0  0  0  0  0  0
   22.8956  -21.7743   -8.3014 N   0  0  0  0  0  0  0  0  0  0  0  0
   24.0107  -20.8836   -8.4220 C   0  0  0  0  0  0  0  0  0  0  0  0
   23.9967  -20.1882   -9.7530 C   0  0  0  0  0  0  0  0  0  0  0  0
   25.2517  -20.2379  -10.5408 C   0  0  0  0  0  0  0  0  0  0  0  0
   24.9989  -20.9612  -11.8603 C   0  0  2  0  0  0  0  0  0  0  0  0
   26.1823  -20.7712  -12.7100 N   0  0  0  0  0  0  0  0  0  0  0  0
   23.8910  -20.3136  -12.5606 C   0  0  0  0  0  0  0  0  0  0  0  0
   23.9196  -19.0827  -12.8030 O   0  0  0  0  0  0  0  0  0  0  0  0
   21.6380  -22.6156   -6.3326 N   0  0  0  0  0  0  0  0  0  0  0  0
   22.7690  -21.0638  -12.9848 C   0  0  2  0  0  0  0  0  0  0  0  0
   21.7198  -20.5301  -13.8635 C   0  0  0  0  0  0  0  0  0  0  0  0
   21.3877  -21.5831  -14.8578 C   0  0  0  0  0  0  0  0  0  0  0  0
   22.5576  -21.9515  -15.7330 C   0  0  0  0  0  0  0  0  0  0  0  0
   23.1059  -23.2891  -15.3336 C   0  0  0  0  0  0  0  0  0  0  0  0
   24.2615  -23.6523  -16.2715 N   0  0  0  0  0  0  0  0  0  0  0  0
   24.7894  -24.9516  -15.9305 C   0  0  0  0  0  0  0  0  0  0  0  0
   20.5691  -20.1157  -13.0300 O   0  0  0  0  0  0  0  0  0  0  0  0
   19.7484  -19.0689  -13.4218 O   0  0  0  0  0  0  0  0  0  0  0  0
  1  2  1  0
  3  2  1  0
  4  3  2  0
  5  6  1  0
  6  7  2  0
  6  8  1  0
  8  9  1  0
  9 10  1  0
 11 10  1  0
 12 11  1  1
 12 13  1  0
 13  3  1  0
 14 12  1  0
 14 15  2  0
 16 14  1  0
 17 16  1  0
 17 18  1  1
 19 18  1  0
 20 19  1  0
 20 21  1  0
 21 22  1  0
 23 17  1  0
 24 23  1  0
 25 23  2  0
M  END
$$$$
