GRK.pdb
     RDKit          3D

 25 24  0  0  1  0  0  0  0  0999 V2000
   27.4410  -14.9580  -16.3967 N   0  0  0  0  0  0  0  0  0  0  0  0
   26.4891  -15.2442  -15.3355 C   0  0  0  0  0  0  0  0  0  0  0  0
   26.1066  -16.6825  -15.3512 C   0  0  0  0  0  0  0  0  0  0  0  0
   26.1773  -17.3801  -16.3972 O   0  0  0  0  0  0  0  0  0  0  0  0
   28.2823  -22.2374  -12.9892 N   0  0  0  0  0  0  0  0  0  0  0  0
   28.3315  -21.4842  -11.8057 C   0  0  0  0  0  0  0  0  0  0  0  0
   29.4672  -21.1262  -11.2746 N   0  0  0  0  0  0  0  0  0  0  0  0
   27.1483  -21.0886  -11.1370 N   0  0  0  0  0  0  0  0  0  0  0  0
   25.8400  -21.5037  -11.5458 C   0  0  0  0  0  0  0  0  0  0  0  0
   25.4033  -20.7585  -12.7744 C   0  0  0  0  0  0  0  0  0  0  0  0
   25.7420  -19.3161  -12.8309 C   0  0  0  0  0  0  0  0  0  0  0  0
   25.3040  -18.7402  -14.1743 C   0  0  2  0  0  0  0  0  0  0  0  0
   25.6491  -17.3122  -14.1842 N   0  0  0  0  0  0  0  0  0  0  0  0
   23.8468  -18.8041  -14.2742 C   0  0  0  0  0  0  0  0  0  0  0  0
   23.1228  -18.1140  -13.5163 O   0  0  0  0  0  0  0  0  0  0  0  0
   29.4628  -20.5548  -10.4127 N   0  0  0  0  0  0  0  0  0  0  0  0
   23.2255  -19.6394  -15.2321 C   0  0  2  0  0  0  0  0  0  0  0  0
   21.7693  -19.7575  -15.3847 C   0  0  0  0  0  0  0  0  0  0  0  0
   21.5064  -20.4222  -16.6873 C   0  0  0  0  0  0  0  0  0  0  0  0
   20.0377  -20.6276  -16.9537 C   0  0  0  0  0  0  0  0  0  0  0  0
   19.8388  -21.3177  -18.2703 C   0  0  0  0  0  0  0  0  0  0  0  0
   18.3371  -21.4972  -18.5151 N   0  0  0  0  0  0  0  0  0  0  0  0
   18.1089  -22.0337  -19.8354 C   0  0  0  0  0  0  0  0  0  0  0  0
   21.2292  -20.4957  -14.2211 O   0  0  0  0  0  0  0  0  0  0  0  0
   19.9509  -20.2400  -13.7485 O   0  0  0  0  0  0  0  0  0  0  0  0
  1  2  1  0
  3  2  1  0
  4  3  2  0
  5  6  1  0
  6  7  2  0
  6  8  1  0
  8  9  1  0
  9 10  1  0
 11 10  1  0
 12 11  1  1
 12 13  1  0
 13  3  1  0
 14 12  1  0
 14 15  2  0
 16 14  1  0
 17 16  1  0
 17 18  1  6
 19 18  1  0
 20 19  1  0
 20 21  1  0
 21 22  1  0
 23 17  1  0
 24 23  1  0
 25 23  2  0
M  END
$$$$
