DME.pdb
     RDKit          3D

 26 25  0  0  1  0  0  0  0  0999 V2000
    6.8422  -16.8274   20.4014 N   0  0  0  0  0  0  0  0  0  0  0  0
    8.0346  -16.0649   20.3044 C   0  0  1  0  0  0  0  0  0  0  0  0
    7.8853  -15.0175   19.2382 C   0  0  0  0  0  0  0  0  0  0  0  0
    8.0123  -15.5350   17.8547 C   0  0  0  0  0  0  0  0  0  0  0  0
    8.1869  -16.7860   17.6440 O   0  0  0  0  0  0  0  0  0  0  0  0
    8.5655  -15.5560   21.5874 C   0  0  0  0  0  0  0  0  0  0  0  0
    9.7143  -15.0401   21.6321 O   0  0  0  0  0  0  0  0  0  0  0  0
    7.9575  -14.7582   16.7115 O   0  0  0  0  0  0  0  0  0  0  0  0
    5.8772  -11.1699   26.5817 C   0  0  0  0  0  0  0  0  0  0  0  0
    6.3648  -12.8989   26.6170 S   0  0  0  0  0  0  0  0  0  0  0  0
    6.8379  -13.4922   24.9646 C   0  0  0  0  0  0  0  0  0  0  0  0
    7.3358  -14.9151   25.1104 C   0  0  0  0  0  0  0  0  0  0  0  0
    8.3694  -15.2853   24.0901 C   0  0  2  0  0  0  0  0  0  0  0  0
    7.8636  -15.6012   22.8034 N   0  0  0  0  0  0  0  0  0  0  0  0
    9.2456  -16.3260   24.6634 C   0  0  0  0  0  0  0  0  0  0  0  0
    8.8579  -17.5112   24.6712 O   0  0  0  0  0  0  0  0  0  0  0  0
   10.5072  -16.0092   25.2015 N   0  0  0  0  0  0  0  0  0  0  0  0
   11.3891  -17.0682   25.7725 C   0  0  1  0  0  0  0  0  0  0  0  0
   12.8135  -16.6571   25.5938 C   0  0  0  0  0  0  0  0  0  0  0  0
   13.6116  -17.6188   24.8157 C   0  0  0  0  0  0  0  0  0  0  0  0
   14.8565  -17.0947   24.2373 C   0  0  0  0  0  0  0  0  0  0  0  0
   14.8675  -16.5450   23.1160 O   0  0  0  0  0  0  0  0  0  0  0  0
   10.9627  -17.1924   27.1726 C   0  0  0  0  0  0  0  0  0  0  0  0
   11.3866  -18.2754   27.9168 O   0  0  0  0  0  0  0  0  0  0  0  0
   16.0838  -17.1843   24.9073 O   0  0  0  0  0  0  0  0  0  0  0  0
   10.2287  -16.3439   27.7001 O   0  0  0  0  0  0  0  0  0  0  0  0
  2  1  1  1
  2  3  1  0
  3  4  1  0
  4  8  1  0
  5  4  2  0
  6  2  1  0
  7  6  2  0
 10  9  1  0
 10 11  1  0
 11 12  1  0
 13 12  1  1
 13 14  1  0
 14  6  1  0
 15 13  1  0
 15 16  2  0
 17 15  1  0
 18 17  1  0
 18 19  1  1
 20 19  1  0
 20 21  1  0
 21 25  1  0
 22 21  2  0
 23 18  1  0
 24 23  1  0
 26 23  2  0
M  END
$$$$
