DME.pdb
     RDKit          3D

 26 25  0  0  1  0  0  0  0  0999 V2000
    7.5251  -15.9413   19.4958 N   0  0  0  0  0  0  0  0  0  0  0  0
    8.4777  -16.6466   20.2753 C   0  0  1  0  0  0  0  0  0  0  0  0
    9.6041  -17.1183   19.4008 C   0  0  0  0  0  0  0  0  0  0  0  0
    9.1662  -17.7833   18.1501 C   0  0  0  0  0  0  0  0  0  0  0  0
    8.2151  -18.6405   18.1706 O   0  0  0  0  0  0  0  0  0  0  0  0
    8.9128  -15.9631   21.5124 C   0  0  0  0  0  0  0  0  0  0  0  0
   10.1361  -15.7302   21.7050 O   0  0  0  0  0  0  0  0  0  0  0  0
    9.7130  -17.5559   16.9001 O   0  0  0  0  0  0  0  0  0  0  0  0
    6.6907  -11.7168   27.8870 C   0  0  0  0  0  0  0  0  0  0  0  0
    6.2939  -12.5372   26.3384 S   0  0  0  0  0  0  0  0  0  0  0  0
    7.6980  -13.5146   25.7227 C   0  0  0  0  0  0  0  0  0  0  0  0
    7.3257  -14.0455   24.3539 C   0  0  0  0  0  0  0  0  0  0  0  0
    8.3921  -14.9045   23.7448 C   0  0  2  0  0  0  0  0  0  0  0  0
    8.0380  -15.5346   22.5246 N   0  0  0  0  0  0  0  0  0  0  0  0
    8.8956  -15.8328   24.7764 C   0  0  0  0  0  0  0  0  0  0  0  0
    8.1219  -16.6830   25.2596 O   0  0  0  0  0  0  0  0  0  0  0  0
   10.2284  -15.7781   25.2262 N   0  0  0  0  0  0  0  0  0  0  0  0
   10.8562  -16.9409   25.9183 C   0  0  1  0  0  0  0  0  0  0  0  0
   12.1394  -17.2749   25.2316 C   0  0  0  0  0  0  0  0  0  0  0  0
   13.1834  -16.2510   25.4021 C   0  0  0  0  0  0  0  0  0  0  0  0
   14.2413  -16.2422   24.3826 C   0  0  0  0  0  0  0  0  0  0  0  0
   14.2543  -17.0803   23.4566 O   0  0  0  0  0  0  0  0  0  0  0  0
   11.0077  -16.5062   27.3132 C   0  0  0  0  0  0  0  0  0  0  0  0
   10.5860  -15.2435   27.6794 O   0  0  0  0  0  0  0  0  0  0  0  0
   15.2806  -15.3025   24.3965 O   0  0  0  0  0  0  0  0  0  0  0  0
   11.5076  -17.2508   28.1692 O   0  0  0  0  0  0  0  0  0  0  0  0
  2  1  1  6
  2  3  1  0
  3  4  1  0
  4  8  1  0
  5  4  2  0
  6  2  1  0
  7  6  2  0
 10  9  1  0
 10 11  1  0
 11 12  1  0
 13 12  1  1
 13 14  1  0
 14  6  1  0
 15 13  1  0
 15 16  2  0
 17 15  1  0
 18 17  1  0
 18 19  1  6
 20 19  1  0
 20 21  1  0
 21 25  1  0
 22 21  2  0
 23 18  1  0
 24 23  1  0
 26 23  2  0
M  END
$$$$
