DME.pdb
     RDKit          3D

 26 25  0  0  1  0  0  0  0  0999 V2000
    8.1461  -14.9413   19.4497 N   0  0  0  0  0  0  0  0  0  0  0  0
    7.6451  -15.6255   20.5870 C   0  0  1  0  0  0  0  0  0  0  0  0
    7.4554  -17.0802   20.2649 C   0  0  0  0  0  0  0  0  0  0  0  0
    6.5506  -17.3369   19.1188 C   0  0  0  0  0  0  0  0  0  0  0  0
    6.6908  -16.6874   18.0242 O   0  0  0  0  0  0  0  0  0  0  0  0
    8.3731  -15.3714   21.8489 C   0  0  0  0  0  0  0  0  0  0  0  0
    9.6279  -15.2573   21.8388 O   0  0  0  0  0  0  0  0  0  0  0  0
    5.5174  -18.2566   19.1173 O   0  0  0  0  0  0  0  0  0  0  0  0
    6.7375  -10.3734   26.4961 C   0  0  0  0  0  0  0  0  0  0  0  0
    6.7035  -12.1673   26.5929 S   0  0  0  0  0  0  0  0  0  0  0  0
    7.5169  -12.9282   25.1558 C   0  0  0  0  0  0  0  0  0  0  0  0
    7.6263  -14.4153   25.4213 C   0  0  0  0  0  0  0  0  0  0  0  0
    8.3954  -15.1478   24.3639 C   0  0  2  0  0  0  0  0  0  0  0  0
    7.7533  -15.2393   23.1027 N   0  0  0  0  0  0  0  0  0  0  0  0
    8.8298  -16.4476   24.9126 C   0  0  0  0  0  0  0  0  0  0  0  0
    8.0168  -17.3923   24.9554 O   0  0  0  0  0  0  0  0  0  0  0  0
   10.1401  -16.6428   25.3886 N   0  0  0  0  0  0  0  0  0  0  0  0
   10.5996  -17.9844   25.8515 C   0  0  1  0  0  0  0  0  0  0  0  0
   12.0341  -18.1587   25.4749 C   0  0  0  0  0  0  0  0  0  0  0  0
   12.6364  -19.3940   26.0024 C   0  0  0  0  0  0  0  0  0  0  0  0
   14.0682  -19.5745   25.7263 C   0  0  0  0  0  0  0  0  0  0  0  0
   14.4604  -20.1099   24.6683 O   0  0  0  0  0  0  0  0  0  0  0  0
   10.3458  -17.9861   27.2982 C   0  0  0  0  0  0  0  0  0  0  0  0
   10.3037  -16.7864   27.9804 O   0  0  0  0  0  0  0  0  0  0  0  0
   15.0579  -19.1598   26.6273 O   0  0  0  0  0  0  0  0  0  0  0  0
   10.1690  -19.0440   27.9199 O   0  0  0  0  0  0  0  0  0  0  0  0
  2  1  1  6
  2  3  1  0
  3  4  1  0
  4  8  1  0
  5  4  2  0
  6  2  1  0
  7  6  2  0
 10  9  1  0
 10 11  1  0
 11 12  1  0
 13 12  1  1
 13 14  1  0
 14  6  1  0
 15 13  1  0
 15 16  2  0
 17 15  1  0
 18 17  1  0
 18 19  1  1
 20 19  1  0
 20 21  1  0
 21 25  1  0
 22 21  2  0
 23 18  1  0
 24 23  1  0
 26 23  2  0
M  END
$$$$
