DME.pdb
     RDKit          3D

 26 25  0  0  1  0  0  0  0  0999 V2000
    7.6744  -16.8908   20.6114 N   0  0  0  0  0  0  0  0  0  0  0  0
    9.0477  -16.6028   20.8206 C   0  0  1  0  0  0  0  0  0  0  0  0
    9.5592  -15.7246   19.7147 C   0  0  0  0  0  0  0  0  0  0  0  0
    9.4134  -16.3063   18.3587 C   0  0  0  0  0  0  0  0  0  0  0  0
    9.9011  -15.7042   17.3393 O   0  0  0  0  0  0  0  0  0  0  0  0
    9.3954  -16.1348   22.1797 C   0  0  0  0  0  0  0  0  0  0  0  0
   10.5827  -15.8090   22.4478 O   0  0  0  0  0  0  0  0  0  0  0  0
    8.7691  -17.4968   18.0738 O   0  0  0  0  0  0  0  0  0  0  0  0
    6.5541  -11.0294   26.4364 C   0  0  0  0  0  0  0  0  0  0  0  0
    6.4552  -12.8206   26.3362 S   0  0  0  0  0  0  0  0  0  0  0  0
    7.7836  -13.5049   25.3004 C   0  0  0  0  0  0  0  0  0  0  0  0
    7.6621  -15.0143   25.3318 C   0  0  0  0  0  0  0  0  0  0  0  0
    8.7607  -15.7097   24.5863 C   0  0  2  0  0  0  0  0  0  0  0  0
    8.4724  -16.0176   23.2323 N   0  0  0  0  0  0  0  0  0  0  0  0
    9.2109  -16.8681   25.3831 C   0  0  0  0  0  0  0  0  0  0  0  0
    8.5011  -17.8927   25.4218 O   0  0  0  0  0  0  0  0  0  0  0  0
   10.4220  -16.8403   26.0999 N   0  0  0  0  0  0  0  0  0  0  0  0
   10.9227  -18.0506   26.8138 C   0  0  1  0  0  0  0  0  0  0  0  0
   12.3777  -18.2154   26.5210 C   0  0  0  0  0  0  0  0  0  0  0  0
   12.6896  -19.4274   25.7458 C   0  0  0  0  0  0  0  0  0  0  0  0
   14.1066  -19.6232   25.4101 C   0  0  0  0  0  0  0  0  0  0  0  0
   14.9891  -18.8625   25.8601 O   0  0  0  0  0  0  0  0  0  0  0  0
   10.6107  -17.8043   28.2278 C   0  0  0  0  0  0  0  0  0  0  0  0
   10.8508  -18.7963   29.1578 O   0  0  0  0  0  0  0  0  0  0  0  0
   14.5369  -20.6631   24.5754 O   0  0  0  0  0  0  0  0  0  0  0  0
   10.1350  -16.7229   28.6036 O   0  0  0  0  0  0  0  0  0  0  0  0
  2  1  1  1
  2  3  1  0
  3  4  1  0
  4  8  1  0
  5  4  2  0
  6  2  1  0
  7  6  2  0
 10  9  1  0
 10 11  1  0
 11 12  1  0
 13 12  1  1
 13 14  1  0
 14  6  1  0
 15 13  1  0
 15 16  2  0
 17 15  1  0
 18 17  1  0
 18 19  1  1
 20 19  1  0
 20 21  1  0
 21 25  1  0
 22 21  2  0
 23 18  1  0
 24 23  1  0
 26 23  2  0
M  END
$$$$
