DME.pdb
     RDKit          3D

 26 25  0  0  1  0  0  0  0  0999 V2000
    7.7165  -16.7828   20.0850 N   0  0  0  0  0  0  0  0  0  0  0  0
    9.0925  -16.7002   20.4202 C   0  0  1  0  0  0  0  0  0  0  0  0
    9.8690  -16.1518   19.2573 C   0  0  0  0  0  0  0  0  0  0  0  0
    9.6787  -16.8996   17.9914 C   0  0  0  0  0  0  0  0  0  0  0  0
    8.8708  -17.8918   17.9399 O   0  0  0  0  0  0  0  0  0  0  0  0
    9.3900  -16.0470   21.7131 C   0  0  0  0  0  0  0  0  0  0  0  0
   10.5861  -15.8805   22.0728 O   0  0  0  0  0  0  0  0  0  0  0  0
   10.3217  -16.6150   16.8002 O   0  0  0  0  0  0  0  0  0  0  0  0
    6.8512  -11.7066   27.8677 C   0  0  0  0  0  0  0  0  0  0  0  0
    6.5869  -12.3956   26.2294 S   0  0  0  0  0  0  0  0  0  0  0  0
    7.8223  -13.6699   25.8347 C   0  0  0  0  0  0  0  0  0  0  0  0
    7.6264  -14.0699   24.3871 C   0  0  0  0  0  0  0  0  0  0  0  0
    8.6158  -15.0938   23.9193 C   0  0  2  0  0  0  0  0  0  0  0  0
    8.4090  -15.5777   22.6024 N   0  0  0  0  0  0  0  0  0  0  0  0
    8.7142  -16.1550   24.9408 C   0  0  0  0  0  0  0  0  0  0  0  0
    7.7141  -16.8588   25.1853 O   0  0  0  0  0  0  0  0  0  0  0  0
    9.9108  -16.3884   25.6445 N   0  0  0  0  0  0  0  0  0  0  0  0
   10.0741  -17.5937   26.5081 C   0  0  1  0  0  0  0  0  0  0  0  0
   11.0873  -18.4978   25.8869 C   0  0  0  0  0  0  0  0  0  0  0  0
   12.4400  -17.9193   25.8338 C   0  0  0  0  0  0  0  0  0  0  0  0
   13.3757  -18.5682   24.9053 C   0  0  0  0  0  0  0  0  0  0  0  0
   13.0211  -19.5372   24.2016 O   0  0  0  0  0  0  0  0  0  0  0  0
   10.4581  -17.0609   27.8219 C   0  0  0  0  0  0  0  0  0  0  0  0
   10.5700  -17.9213   28.8960 O   0  0  0  0  0  0  0  0  0  0  0  0
   14.7016  -18.1380   24.7631 O   0  0  0  0  0  0  0  0  0  0  0  0
   10.6836  -15.8530   27.9862 O   0  0  0  0  0  0  0  0  0  0  0  0
  2  1  1  6
  2  3  1  0
  3  4  1  0
  4  8  1  0
  5  4  2  0
  6  2  1  0
  7  6  2  0
 10  9  1  0
 10 11  1  0
 11 12  1  0
 13 12  1  1
 13 14  1  0
 14  6  1  0
 15 13  1  0
 15 16  2  0
 17 15  1  0
 18 17  1  0
 18 19  1  6
 20 19  1  0
 20 21  1  0
 21 25  1  0
 22 21  2  0
 23 18  1  0
 24 23  1  0
 26 23  2  0
M  END
$$$$
