DME.pdb
     RDKit          3D

 26 25  0  0  1  0  0  0  0  0999 V2000
    8.0549  -17.4385   20.5105 N   0  0  0  0  0  0  0  0  0  0  0  0
    9.3207  -16.8086   20.6275 C   0  0  1  0  0  0  0  0  0  0  0  0
    9.6582  -16.0995   19.3472 C   0  0  0  0  0  0  0  0  0  0  0  0
    9.2211  -16.8126   18.1230 C   0  0  0  0  0  0  0  0  0  0  0  0
    8.0310  -16.6618   17.6751 O   0  0  0  0  0  0  0  0  0  0  0  0
    9.5092  -15.9900   21.8446 C   0  0  0  0  0  0  0  0  0  0  0  0
   10.6165  -15.4281   22.0591 O   0  0  0  0  0  0  0  0  0  0  0  0
   10.0145  -17.6682   17.3801 O   0  0  0  0  0  0  0  0  0  0  0  0
    6.4185  -11.5837   27.5776 C   0  0  0  0  0  0  0  0  0  0  0  0
    6.1994  -12.6632   26.1580 S   0  0  0  0  0  0  0  0  0  0  0  0
    7.6663  -13.6998   25.8758 C   0  0  0  0  0  0  0  0  0  0  0  0
    7.4197  -14.5178   24.6252 C   0  0  0  0  0  0  0  0  0  0  0  0
    8.6685  -15.1270   24.0636 C   0  0  2  0  0  0  0  0  0  0  0  0
    8.5143  -15.7793   22.8138 N   0  0  0  0  0  0  0  0  0  0  0  0
    9.2936  -15.9652   25.1057 C   0  0  0  0  0  0  0  0  0  0  0  0
    8.6489  -16.9173   25.5886 O   0  0  0  0  0  0  0  0  0  0  0  0
   10.5997  -15.7125   25.5659 N   0  0  0  0  0  0  0  0  0  0  0  0
   11.3142  -16.6936   26.4332 C   0  0  1  0  0  0  0  0  0  0  0  0
   12.7828  -16.5689   26.1930 C   0  0  0  0  0  0  0  0  0  0  0  0
   13.1717  -16.7892   24.7904 C   0  0  0  0  0  0  0  0  0  0  0  0
   14.6073  -16.6721   24.5002 C   0  0  0  0  0  0  0  0  0  0  0  0
   15.1161  -15.5761   24.1844 O   0  0  0  0  0  0  0  0  0  0  0  0
   10.8906  -16.3602   27.7995 C   0  0  0  0  0  0  0  0  0  0  0  0
    9.9992  -15.3249   27.9993 O   0  0  0  0  0  0  0  0  0  0  0  0
   15.4712  -17.7735   24.5616 O   0  0  0  0  0  0  0  0  0  0  0  0
   11.3181  -16.9899   28.7781 O   0  0  0  0  0  0  0  0  0  0  0  0
  2  1  1  6
  2  3  1  0
  3  4  1  0
  4  8  1  0
  5  4  2  0
  6  2  1  0
  7  6  2  0
 10  9  1  0
 10 11  1  0
 11 12  1  0
 13 12  1  1
 13 14  1  0
 14  6  1  0
 15 13  1  0
 15 16  2  0
 17 15  1  0
 18 17  1  0
 18 19  1  1
 20 19  1  0
 20 21  1  0
 21 25  1  0
 22 21  2  0
 23 18  1  0
 24 23  1  0
 26 23  2  0
M  END
$$$$
