DME.pdb
     RDKit          3D

 26 25  0  0  1  0  0  0  0  0999 V2000
    8.4197  -16.6418   20.6733 N   0  0  0  0  0  0  0  0  0  0  0  0
    9.7360  -16.4518   21.1674 C   0  0  1  0  0  0  0  0  0  0  0  0
   10.5071  -15.5610   20.2359 C   0  0  0  0  0  0  0  0  0  0  0  0
   10.7015  -16.1231   18.8778 C   0  0  0  0  0  0  0  0  0  0  0  0
   10.9977  -17.3595   18.7244 O   0  0  0  0  0  0  0  0  0  0  0  0
    9.8267  -16.0667   22.5923 C   0  0  0  0  0  0  0  0  0  0  0  0
   10.9545  -15.8826   23.1232 O   0  0  0  0  0  0  0  0  0  0  0  0
   10.5880  -15.4053   17.7009 O   0  0  0  0  0  0  0  0  0  0  0  0
    6.5617  -10.9435   26.0192 C   0  0  0  0  0  0  0  0  0  0  0  0
    6.7826  -12.6801   26.4238 S   0  0  0  0  0  0  0  0  0  0  0  0
    7.2461  -13.6524   24.9589 C   0  0  0  0  0  0  0  0  0  0  0  0
    7.4830  -15.0793   25.4081 C   0  0  0  0  0  0  0  0  0  0  0  0
    8.7307  -15.6787   24.8336 C   0  0  2  0  0  0  0  0  0  0  0  0
    8.7145  -15.8801   23.4299 N   0  0  0  0  0  0  0  0  0  0  0  0
    9.0738  -16.8865   25.6100 C   0  0  0  0  0  0  0  0  0  0  0  0
    8.2840  -17.8516   25.6144 O   0  0  0  0  0  0  0  0  0  0  0  0
   10.2712  -16.9716   26.3451 N   0  0  0  0  0  0  0  0  0  0  0  0
   10.5868  -18.1759   27.1668 C   0  0  1  0  0  0  0  0  0  0  0  0
   11.9635  -18.6440   26.8266 C   0  0  0  0  0  0  0  0  0  0  0  0
   12.2191  -18.7216   25.3789 C   0  0  0  0  0  0  0  0  0  0  0  0
   13.5542  -19.1969   24.9911 C   0  0  0  0  0  0  0  0  0  0  0  0
   14.5777  -18.5270   25.2431 O   0  0  0  0  0  0  0  0  0  0  0  0
   10.4213  -17.7318   28.5570 C   0  0  0  0  0  0  0  0  0  0  0  0
   10.0801  -16.4186   28.8131 O   0  0  0  0  0  0  0  0  0  0  0  0
   13.7462  -20.4142   24.3244 O   0  0  0  0  0  0  0  0  0  0  0  0
   10.5825  -18.5129   29.5062 O   0  0  0  0  0  0  0  0  0  0  0  0
  2  1  1  6
  2  3  1  0
  3  4  1  0
  4  8  1  0
  5  4  2  0
  6  2  1  0
  7  6  2  0
 10  9  1  0
 10 11  1  0
 11 12  1  0
 13 12  1  1
 13 14  1  0
 14  6  1  0
 15 13  1  0
 15 16  2  0
 17 15  1  0
 18 17  1  0
 18 19  1  1
 20 19  1  0
 20 21  1  0
 21 25  1  0
 22 21  2  0
 23 18  1  0
 24 23  1  0
 26 23  2  0
M  END
$$$$
