DME.pdb
     RDKit          3D

 26 25  0  0  1  0  0  0  0  0999 V2000
    6.5849  -16.6039   19.9134 N   0  0  0  0  0  0  0  0  0  0  0  0
    7.9822  -16.4282   20.0848 C   0  0  1  0  0  0  0  0  0  0  0  0
    8.5693  -15.7842   18.8615 C   0  0  0  0  0  0  0  0  0  0  0  0
    8.3088  -16.5208   17.6014 C   0  0  0  0  0  0  0  0  0  0  0  0
    7.5624  -17.5613   17.6013 O   0  0  0  0  0  0  0  0  0  0  0  0
    8.3882  -15.7972   21.3592 C   0  0  0  0  0  0  0  0  0  0  0  0
    9.5735  -15.3986   21.5137 O   0  0  0  0  0  0  0  0  0  0  0  0
    8.8197  -16.1754   16.3632 O   0  0  0  0  0  0  0  0  0  0  0  0
    7.4025  -11.8288   27.7210 C   0  0  0  0  0  0  0  0  0  0  0  0
    6.9393  -12.4335   26.0937 S   0  0  0  0  0  0  0  0  0  0  0  0
    7.1288  -14.2379   25.9739 C   0  0  0  0  0  0  0  0  0  0  0  0
    6.7170  -14.6534   24.5769 C   0  0  0  0  0  0  0  0  0  0  0  0
    7.8716  -15.0916   23.7278 C   0  0  2  0  0  0  0  0  0  0  0  0
    7.5247  -15.5971   22.4490 N   0  0  0  0  0  0  0  0  0  0  0  0
    8.7227  -15.9994   24.5221 C   0  0  0  0  0  0  0  0  0  0  0  0
    8.2764  -17.1148   24.8564 O   0  0  0  0  0  0  0  0  0  0  0  0
   10.0251  -15.6328   24.9105 N   0  0  0  0  0  0  0  0  0  0  0  0
   11.0451  -16.6649   25.2562 C   0  0  1  0  0  0  0  0  0  0  0  0
   12.3823  -16.1984   24.7827 C   0  0  0  0  0  0  0  0  0  0  0  0
   13.4910  -17.0785   25.1869 C   0  0  0  0  0  0  0  0  0  0  0  0
   14.8273  -16.6723   24.7305 C   0  0  0  0  0  0  0  0  0  0  0  0
   15.8379  -16.8605   25.4398 O   0  0  0  0  0  0  0  0  0  0  0  0
   10.9363  -16.8225   26.7125 C   0  0  0  0  0  0  0  0  0  0  0  0
   11.3228  -18.0126   27.2963 O   0  0  0  0  0  0  0  0  0  0  0  0
   15.0347  -16.0585   23.4882 O   0  0  0  0  0  0  0  0  0  0  0  0
   10.5034  -15.9079   27.4288 O   0  0  0  0  0  0  0  0  0  0  0  0
  2  1  1  6
  2  3  1  0
  3  4  1  0
  4  8  1  0
  5  4  2  0
  6  2  1  0
  7  6  2  0
 10  9  1  0
 10 11  1  0
 11 12  1  0
 13 12  1  1
 13 14  1  0
 14  6  1  0
 15 13  1  0
 15 16  2  0
 17 15  1  0
 18 17  1  0
 18 19  1  1
 20 19  1  0
 20 21  1  0
 21 25  1  0
 22 21  2  0
 23 18  1  0
 24 23  1  0
 26 23  2  0
M  END
$$$$
