DME.pdb
     RDKit          3D

 26 25  0  0  1  0  0  0  0  0999 V2000
    7.0067  -16.3965   20.8281 N   0  0  0  0  0  0  0  0  0  0  0  0
    8.3037  -15.8291   20.9204 C   0  0  1  0  0  0  0  0  0  0  0  0
    8.4226  -14.6705   19.9719 C   0  0  0  0  0  0  0  0  0  0  0  0
    8.3214  -15.0430   18.5404 C   0  0  0  0  0  0  0  0  0  0  0  0
    8.0471  -16.2471   18.2018 O   0  0  0  0  0  0  0  0  0  0  0  0
    8.7718  -15.5421   22.2935 C   0  0  0  0  0  0  0  0  0  0  0  0
    9.9827  -15.2606   22.4990 O   0  0  0  0  0  0  0  0  0  0  0  0
    8.5036  -14.1717   17.4816 O   0  0  0  0  0  0  0  0  0  0  0  0
    6.7505  -10.5167   26.3670 C   0  0  0  0  0  0  0  0  0  0  0  0
    6.9782  -12.2572   26.7508 S   0  0  0  0  0  0  0  0  0  0  0  0
    7.0731  -13.2661   25.2411 C   0  0  0  0  0  0  0  0  0  0  0  0
    7.3469  -14.6961   25.6582 C   0  0  0  0  0  0  0  0  0  0  0  0
    8.3433  -15.3866   24.7770 C   0  0  2  0  0  0  0  0  0  0  0  0
    7.9424  -15.5560   23.4272 N   0  0  0  0  0  0  0  0  0  0  0  0
    8.7710  -16.6354   25.4379 C   0  0  0  0  0  0  0  0  0  0  0  0
    7.9490  -17.5630   25.5762 O   0  0  0  0  0  0  0  0  0  0  0  0
   10.0848  -16.8009   25.9156 N   0  0  0  0  0  0  0  0  0  0  0  0
   10.5234  -18.0853   26.5346 C   0  0  1  0  0  0  0  0  0  0  0  0
   11.8054  -18.5131   25.8996 C   0  0  0  0  0  0  0  0  0  0  0  0
   11.7133  -18.6811   24.4400 C   0  0  0  0  0  0  0  0  0  0  0  0
   12.9200  -18.3288   23.6795 C   0  0  0  0  0  0  0  0  0  0  0  0
   12.9310  -18.3635   22.4311 O   0  0  0  0  0  0  0  0  0  0  0  0
   10.6238  -17.7913   27.9702 C   0  0  0  0  0  0  0  0  0  0  0  0
   10.3973  -16.5043   28.4161 O   0  0  0  0  0  0  0  0  0  0  0  0
   14.1096  -17.9399   24.3095 O   0  0  0  0  0  0  0  0  0  0  0  0
   10.9088  -18.6762   28.7905 O   0  0  0  0  0  0  0  0  0  0  0  0
  2  1  1  1
  2  3  1  0
  3  4  1  0
  4  8  1  0
  5  4  2  0
  6  2  1  0
  7  6  2  0
 10  9  1  0
 10 11  1  0
 11 12  1  0
 13 12  1  1
 13 14  1  0
 14  6  1  0
 15 13  1  0
 15 16  2  0
 17 15  1  0
 18 17  1  0
 18 19  1  6
 20 19  1  0
 20 21  1  0
 21 25  1  0
 22 21  2  0
 23 18  1  0
 24 23  1  0
 26 23  2  0
M  END
$$$$
