DME.pdb
     RDKit          3D

 26 25  0  0  1  0  0  0  0  0999 V2000
    6.8675  -16.7463   19.9419 N   0  0  0  0  0  0  0  0  0  0  0  0
    8.2362  -16.3775   20.0019 C   0  0  1  0  0  0  0  0  0  0  0  0
    8.6330  -15.6808   18.7318 C   0  0  0  0  0  0  0  0  0  0  0  0
    8.3614  -16.4597   17.4999 C   0  0  0  0  0  0  0  0  0  0  0  0
    7.7574  -17.5869   17.5657 O   0  0  0  0  0  0  0  0  0  0  0  0
    8.6478  -15.6743   21.2360 C   0  0  0  0  0  0  0  0  0  0  0  0
    9.8680  -15.4459   21.4522 O   0  0  0  0  0  0  0  0  0  0  0  0
    8.7150  -16.0668   16.2216 O   0  0  0  0  0  0  0  0  0  0  0  0
    6.4419  -11.3012   27.5102 C   0  0  0  0  0  0  0  0  0  0  0  0
    5.9953  -12.2717   26.0655 S   0  0  0  0  0  0  0  0  0  0  0  0
    7.4203  -13.1961   25.4168 C   0  0  0  0  0  0  0  0  0  0  0  0
    6.9838  -13.8784   24.1370 C   0  0  0  0  0  0  0  0  0  0  0  0
    8.0863  -14.6464   23.4728 C   0  0  2  0  0  0  0  0  0  0  0  0
    7.7532  -15.2220   22.2202 N   0  0  0  0  0  0  0  0  0  0  0  0
    8.6443  -15.6062   24.4458 C   0  0  0  0  0  0  0  0  0  0  0  0
    8.0268  -16.6642   24.6795 O   0  0  0  0  0  0  0  0  0  0  0  0
    9.8564  -15.3526   25.1152 N   0  0  0  0  0  0  0  0  0  0  0  0
   10.7281  -16.4703   25.5801 C   0  0  1  0  0  0  0  0  0  0  0  0
   12.1120  -16.2482   25.0650 C   0  0  0  0  0  0  0  0  0  0  0  0
   13.0856  -17.2441   25.5420 C   0  0  0  0  0  0  0  0  0  0  0  0
   14.4708  -17.0488   25.0925 C   0  0  0  0  0  0  0  0  0  0  0  0
   14.7250  -16.6286   23.9441 O   0  0  0  0  0  0  0  0  0  0  0  0
   10.6129  -16.4477   27.0443 C   0  0  0  0  0  0  0  0  0  0  0  0
   10.0418  -15.3532   27.6625 O   0  0  0  0  0  0  0  0  0  0  0  0
   15.5675  -17.3216   25.9207 O   0  0  0  0  0  0  0  0  0  0  0  0
   11.0191  -17.3923   27.7370 O   0  0  0  0  0  0  0  0  0  0  0  0
  2  1  1  1
  2  3  1  0
  3  4  1  0
  4  8  1  0
  5  4  2  0
  6  2  1  0
  7  6  2  0
 10  9  1  0
 10 11  1  0
 11 12  1  0
 13 12  1  1
 13 14  1  0
 14  6  1  0
 15 13  1  0
 15 16  2  0
 17 15  1  0
 18 17  1  0
 18 19  1  1
 20 19  1  0
 20 21  1  0
 21 25  1  0
 22 21  2  0
 23 18  1  0
 24 23  1  0
 26 23  2  0
M  END
$$$$
