DME.pdb
     RDKit          3D

 26 25  0  0  1  0  0  0  0  0999 V2000
    8.3467  -17.0103   20.1184 N   0  0  0  0  0  0  0  0  0  0  0  0
    9.6938  -16.7124   20.4490 C   0  0  1  0  0  0  0  0  0  0  0  0
   10.3611  -16.0197   19.2953 C   0  0  0  0  0  0  0  0  0  0  0  0
   10.3319  -16.7855   18.0261 C   0  0  0  0  0  0  0  0  0  0  0  0
    9.2779  -16.7951   17.2991 O   0  0  0  0  0  0  0  0  0  0  0  0
    9.8920  -16.0478   21.7551 C   0  0  0  0  0  0  0  0  0  0  0  0
   11.0486  -15.7005   22.1147 O   0  0  0  0  0  0  0  0  0  0  0  0
   11.3864  -17.5280   17.5259 O   0  0  0  0  0  0  0  0  0  0  0  0
    6.7355  -11.6620   27.4522 C   0  0  0  0  0  0  0  0  0  0  0  0
    6.4288  -12.9530   26.2408 S   0  0  0  0  0  0  0  0  0  0  0  0
    7.9557  -13.8428   25.8135 C   0  0  0  0  0  0  0  0  0  0  0  0
    7.7752  -14.4309   24.4295 C   0  0  0  0  0  0  0  0  0  0  0  0
    8.9828  -15.1728   23.9421 C   0  0  2  0  0  0  0  0  0  0  0  0
    8.8546  -15.7600   22.6576 N   0  0  0  0  0  0  0  0  0  0  0  0
    9.4125  -16.1157   24.9936 C   0  0  0  0  0  0  0  0  0  0  0  0
    8.6908  -17.0963   25.2635 O   0  0  0  0  0  0  0  0  0  0  0  0
   10.6174  -15.9313   25.6977 N   0  0  0  0  0  0  0  0  0  0  0  0
   11.2246  -17.0404   26.4892 C   0  0  1  0  0  0  0  0  0  0  0  0
   12.6934  -17.0750   26.2219 C   0  0  0  0  0  0  0  0  0  0  0  0
   13.0647  -17.9229   25.0773 C   0  0  0  0  0  0  0  0  0  0  0  0
   14.2927  -17.5370   24.3688 C   0  0  0  0  0  0  0  0  0  0  0  0
   14.4970  -17.8910   23.1886 O   0  0  0  0  0  0  0  0  0  0  0  0
   10.8664  -16.7429   27.8822 C   0  0  0  0  0  0  0  0  0  0  0  0
   11.2178  -17.6331   28.8774 O   0  0  0  0  0  0  0  0  0  0  0  0
   15.2885  -16.7597   24.9749 O   0  0  0  0  0  0  0  0  0  0  0  0
   10.2538  -15.7079   28.1828 O   0  0  0  0  0  0  0  0  0  0  0  0
  2  1  1  6
  2  3  1  0
  3  4  1  0
  4  8  1  0
  5  4  2  0
  6  2  1  0
  7  6  2  0
 10  9  1  0
 10 11  1  0
 11 12  1  0
 13 12  1  1
 13 14  1  0
 14  6  1  0
 15 13  1  0
 15 16  2  0
 17 15  1  0
 18 17  1  0
 18 19  1  1
 20 19  1  0
 20 21  1  0
 21 25  1  0
 22 21  2  0
 23 18  1  0
 24 23  1  0
 26 23  2  0
M  END
$$$$
