DME.pdb
     RDKit          3D

 26 25  0  0  1  0  0  0  0  0999 V2000
    7.8829  -16.9697   19.9625 N   0  0  0  0  0  0  0  0  0  0  0  0
    9.2533  -16.7870   20.2809 C   0  0  1  0  0  0  0  0  0  0  0  0
    9.9734  -16.1838   19.1089 C   0  0  0  0  0  0  0  0  0  0  0  0
   10.0449  -17.0653   17.9190 C   0  0  0  0  0  0  0  0  0  0  0  0
    9.3909  -18.1657   17.8873 O   0  0  0  0  0  0  0  0  0  0  0  0
    9.5183  -16.1135   21.5705 C   0  0  0  0  0  0  0  0  0  0  0  0
   10.7049  -15.9413   21.9576 O   0  0  0  0  0  0  0  0  0  0  0  0
   10.7869  -16.8006   16.7820 O   0  0  0  0  0  0  0  0  0  0  0  0
    6.6418  -11.6584   27.5121 C   0  0  0  0  0  0  0  0  0  0  0  0
    6.4005  -12.5166   25.9520 S   0  0  0  0  0  0  0  0  0  0  0  0
    7.8147  -13.5882   25.5548 C   0  0  0  0  0  0  0  0  0  0  0  0
    7.5637  -14.1966   24.1907 C   0  0  0  0  0  0  0  0  0  0  0  0
    8.6974  -15.0500   23.7083 C   0  0  2  0  0  0  0  0  0  0  0  0
    8.5152  -15.6304   22.4272 N   0  0  0  0  0  0  0  0  0  0  0  0
    9.0380  -16.0225   24.7656 C   0  0  0  0  0  0  0  0  0  0  0  0
    8.2707  -16.9819   24.9798 O   0  0  0  0  0  0  0  0  0  0  0  0
   10.2082  -15.8894   25.5365 N   0  0  0  0  0  0  0  0  0  0  0  0
   10.7259  -17.0252   26.3533 C   0  0  1  0  0  0  0  0  0  0  0  0
   12.2089  -17.0967   26.1938 C   0  0  0  0  0  0  0  0  0  0  0  0
   12.6635  -18.2669   25.4249 C   0  0  0  0  0  0  0  0  0  0  0  0
   13.9050  -18.0853   24.6604 C   0  0  0  0  0  0  0  0  0  0  0  0
   13.8847  -17.9297   23.4213 O   0  0  0  0  0  0  0  0  0  0  0  0
   10.2743  -16.7363   27.7208 C   0  0  0  0  0  0  0  0  0  0  0  0
    9.5721  -15.5743   27.9716 O   0  0  0  0  0  0  0  0  0  0  0  0
   15.1637  -18.0779   25.2758 O   0  0  0  0  0  0  0  0  0  0  0  0
   10.5116  -17.5154   28.6556 O   0  0  0  0  0  0  0  0  0  0  0  0
  2  1  1  6
  2  3  1  0
  3  4  1  0
  4  8  1  0
  5  4  2  0
  6  2  1  0
  7  6  2  0
 10  9  1  0
 10 11  1  0
 11 12  1  0
 13 12  1  1
 13 14  1  0
 14  6  1  0
 15 13  1  0
 15 16  2  0
 17 15  1  0
 18 17  1  0
 18 19  1  1
 20 19  1  0
 20 21  1  0
 21 25  1  0
 22 21  2  0
 23 18  1  0
 24 23  1  0
 26 23  2  0
M  END
$$$$
