DME.pdb
     RDKit          3D

 26 25  0  0  1  0  0  0  0  0999 V2000
    7.5402  -16.8969   20.9631 N   0  0  0  0  0  0  0  0  0  0  0  0
    8.7281  -16.1234   21.0207 C   0  0  1  0  0  0  0  0  0  0  0  0
    8.8113  -15.2256   19.8195 C   0  0  0  0  0  0  0  0  0  0  0  0
    8.7635  -15.9400   18.5212 C   0  0  0  0  0  0  0  0  0  0  0  0
    8.7320  -17.2197   18.4863 O   0  0  0  0  0  0  0  0  0  0  0  0
    8.9760  -15.4409   22.3090 C   0  0  0  0  0  0  0  0  0  0  0  0
   10.0929  -14.9009   22.5296 O   0  0  0  0  0  0  0  0  0  0  0  0
    8.7485  -15.3271   17.2812 O   0  0  0  0  0  0  0  0  0  0  0  0
    6.5130  -10.3773   26.2680 C   0  0  0  0  0  0  0  0  0  0  0  0
    6.0295  -12.0378   26.7553 S   0  0  0  0  0  0  0  0  0  0  0  0
    7.3563  -13.2393   26.4362 C   0  0  0  0  0  0  0  0  0  0  0  0
    7.1019  -13.8577   25.0773 C   0  0  0  0  0  0  0  0  0  0  0  0
    8.2184  -14.7439   24.6146 C   0  0  2  0  0  0  0  0  0  0  0  0
    8.0294  -15.3410   23.3421 N   0  0  0  0  0  0  0  0  0  0  0  0
    8.5322  -15.7063   25.6892 C   0  0  0  0  0  0  0  0  0  0  0  0
    8.4683  -15.3335   26.8775 O   0  0  0  0  0  0  0  0  0  0  0  0
    8.9024  -17.0335   25.4014 N   0  0  0  0  0  0  0  0  0  0  0  0
    9.1411  -18.0209   26.4939 C   0  0  1  0  0  0  0  0  0  0  0  0
    8.6723  -19.3641   26.0402 C   0  0  0  0  0  0  0  0  0  0  0  0
    7.2921  -19.3651   25.5282 C   0  0  0  0  0  0  0  0  0  0  0  0
    6.7879  -20.6614   25.0547 C   0  0  0  0  0  0  0  0  0  0  0  0
    7.3889  -21.7243   25.3175 O   0  0  0  0  0  0  0  0  0  0  0  0
   10.5829  -17.9380   26.7619 C   0  0  0  0  0  0  0  0  0  0  0  0
   11.1126  -18.6211   27.8386 O   0  0  0  0  0  0  0  0  0  0  0  0
    5.6185  -20.7711   24.2908 O   0  0  0  0  0  0  0  0  0  0  0  0
   11.3345  -17.2661   26.0404 O   0  0  0  0  0  0  0  0  0  0  0  0
  2  1  1  1
  2  3  1  0
  3  4  1  0
  4  8  1  0
  5  4  2  0
  6  2  1  0
  7  6  2  0
 10  9  1  0
 10 11  1  0
 11 12  1  0
 13 12  1  1
 13 14  1  0
 14  6  1  0
 15 13  1  0
 15 16  2  0
 17 15  1  0
 18 17  1  0
 18 19  1  6
 20 19  1  0
 20 21  1  0
 21 25  1  0
 22 21  2  0
 23 18  1  0
 24 23  1  0
 26 23  2  0
M  END
$$$$
