DME.pdb
     RDKit          3D

 26 25  0  0  1  0  0  0  0  0999 V2000
    7.0129  -16.5815   20.9732 N   0  0  0  0  0  0  0  0  0  0  0  0
    8.3143  -16.0164   20.9782 C   0  0  1  0  0  0  0  0  0  0  0  0
    8.3940  -14.9098   19.9658 C   0  0  0  0  0  0  0  0  0  0  0  0
    8.3893  -15.3722   18.5571 C   0  0  0  0  0  0  0  0  0  0  0  0
    8.3139  -16.6212   18.2851 O   0  0  0  0  0  0  0  0  0  0  0  0
    8.8435  -15.6601   22.3124 C   0  0  0  0  0  0  0  0  0  0  0  0
   10.0706  -15.4127   22.4564 O   0  0  0  0  0  0  0  0  0  0  0  0
    8.4618  -14.5431   17.4522 O   0  0  0  0  0  0  0  0  0  0  0  0
    7.6417  -11.2008   27.2566 C   0  0  0  0  0  0  0  0  0  0  0  0
    6.4431  -12.3132   26.5119 S   0  0  0  0  0  0  0  0  0  0  0  0
    7.1760  -13.2673   25.1486 C   0  0  0  0  0  0  0  0  0  0  0  0
    7.5748  -14.6221   25.6958 C   0  0  0  0  0  0  0  0  0  0  0  0
    8.5174  -15.3659   24.7988 C   0  0  2  0  0  0  0  0  0  0  0  0
    8.0571  -15.5693   23.4729 N   0  0  0  0  0  0  0  0  0  0  0  0
    8.9423  -16.6027   25.4837 C   0  0  0  0  0  0  0  0  0  0  0  0
    8.1547  -17.5679   25.5406 O   0  0  0  0  0  0  0  0  0  0  0  0
   10.2153  -16.7151   26.0739 N   0  0  0  0  0  0  0  0  0  0  0  0
   10.6870  -18.0090   26.6473 C   0  0  1  0  0  0  0  0  0  0  0  0
   12.0893  -18.2532   26.1960 C   0  0  0  0  0  0  0  0  0  0  0  0
   12.2484  -18.2410   24.7326 C   0  0  0  0  0  0  0  0  0  0  0  0
   13.6075  -18.4963   24.2361 C   0  0  0  0  0  0  0  0  0  0  0  0
   14.5718  -18.6128   25.0214 O   0  0  0  0  0  0  0  0  0  0  0  0
   10.5340  -17.8502   28.0995 C   0  0  0  0  0  0  0  0  0  0  0  0
   10.8025  -18.9197   28.9304 O   0  0  0  0  0  0  0  0  0  0  0  0
   13.8895  -18.6207   22.8693 O   0  0  0  0  0  0  0  0  0  0  0  0
   10.1678  -16.7743   28.5948 O   0  0  0  0  0  0  0  0  0  0  0  0
  2  1  1  1
  2  3  1  0
  3  4  1  0
  4  8  1  0
  5  4  2  0
  6  2  1  0
  7  6  2  0
 10  9  1  0
 10 11  1  0
 11 12  1  0
 13 12  1  1
 13 14  1  0
 14  6  1  0
 15 13  1  0
 15 16  2  0
 17 15  1  0
 18 17  1  0
 18 19  1  1
 20 19  1  0
 20 21  1  0
 21 25  1  0
 22 21  2  0
 23 18  1  0
 24 23  1  0
 26 23  2  0
M  END
$$$$
