MHP.pdb
     RDKit          3D

 26 27  0  0  1  0  0  0  0  0999 V2000
    7.6024  -11.8073   27.0702 C   0  0  0  0  0  0  0  0  0  0  0  0
    6.0602  -12.6229   26.5219 S   0  0  0  0  0  0  0  0  0  0  0  0
    6.1591  -14.3463   27.1369 C   0  0  0  0  0  0  0  0  0  0  0  0
    7.1569  -15.0683   26.2934 C   0  0  0  0  0  0  0  0  0  0  0  0
    6.5401  -15.6673   25.0549 C   0  0  2  0  0  0  0  0  0  0  0  0
    5.6318  -16.7366   25.3213 N   0  0  0  0  0  0  0  0  0  0  0  0
    7.5766  -16.1103   24.0915 C   0  0  0  0  0  0  0  0  0  0  0  0
    7.8326  -17.3307   23.9336 O   0  0  0  0  0  0  0  0  0  0  0  0
    8.2978  -15.1505   23.3302 N   0  0  0  0  0  0  0  0  0  0  0  0
    9.3027  -15.5379   22.3351 C   0  0  1  0  0  0  0  0  0  0  0  0
    9.5917  -14.3513   21.4502 C   0  0  0  0  0  0  0  0  0  0  0  0
    8.5722  -14.1937   20.4135 C   0  0  0  0  0  0  0  0  0  0  0  0
    7.5192  -15.0056   20.0640 C   0  0  0  0  0  0  0  0  0  0  0  0
    6.8556  -14.4802   19.0254 N   0  0  0  0  0  0  0  0  0  0  0  0
    7.4775  -13.3375   18.7084 C   0  0  0  0  0  0  0  0  0  0  0  0
    8.5159  -13.1539   19.5401 N   0  0  0  0  0  0  0  0  0  0  0  0
   10.5058  -16.0883   22.9418 C   0  0  0  0  0  0  0  0  0  0  0  0
   10.9390  -15.4604   23.9740 O   0  0  0  0  0  0  0  0  0  0  0  0
   11.2127  -17.2174   22.5054 N   0  0  0  0  0  0  0  0  0  0  0  0
   10.9601  -18.1065   21.4067 C   0  0  0  0  0  0  0  0  0  0  0  0
   12.3088  -18.8288   21.2289 C   0  0  0  0  0  0  0  0  0  0  0  0
   12.6429  -19.0916   22.7006 C   0  0  0  0  0  0  0  0  0  0  0  0
   12.4304  -17.6664   23.2240 C   0  0  1  0  0  0  0  0  0  0  0  0
   13.5544  -16.8442   22.7235 C   0  0  0  0  0  0  0  0  0  0  0  0
   13.4290  -16.0912   21.7098 O   0  0  0  0  0  0  0  0  0  0  0  0
   14.8072  -16.8478   23.3305 O   0  0  0  0  0  0  0  0  0  0  0  0
  2  1  1  0
  3  2  1  0
  4  5  1  0
  4  3  1  0
  5  7  1  0
  5  6  1  1
  7  8  2  0
  9 10  1  0
  9  7  1  0
 11 12  1  0
 10 11  1  1
 12 16  1  0
 13 12  2  0
 13 14  1  0
 14 15  1  0
 16 15  2  0
 17 18  2  0
 17 10  1  0
 19 17  1  0
 20 19  1  0
 20 21  1  0
 22 21  1  0
 23 22  1  0
 23 19  1  0
 23 24  1  6
 25 24  2  0
 26 24  1  0
M  END
$$$$
