MHP.pdb
     RDKit          3D

 26 27  0  0  1  0  0  0  0  0999 V2000
    7.6133  -11.3124   19.6174 C   0  0  0  0  0  0  0  0  0  0  0  0
    8.3048  -12.7496   20.5120 S   0  0  0  0  0  0  0  0  0  0  0  0
    8.3404  -14.1239   19.3004 C   0  0  0  0  0  0  0  0  0  0  0  0
    8.8915  -15.3237   19.9971 C   0  0  0  0  0  0  0  0  0  0  0  0
    7.8135  -16.2804   20.4393 C   0  0  2  0  0  0  0  0  0  0  0  0
    6.6117  -16.1907   19.6730 N   0  0  0  0  0  0  0  0  0  0  0  0
    7.5080  -16.1256   21.8820 C   0  0  0  0  0  0  0  0  0  0  0  0
    6.4294  -15.6039   22.2617 O   0  0  0  0  0  0  0  0  0  0  0  0
    8.4405  -16.5696   22.8588 N   0  0  0  0  0  0  0  0  0  0  0  0
    8.0884  -16.6896   24.2772 C   0  0  1  0  0  0  0  0  0  0  0  0
    7.9222  -18.1504   24.6138 C   0  0  0  0  0  0  0  0  0  0  0  0
    7.6504  -18.3458   26.0375 C   0  0  0  0  0  0  0  0  0  0  0  0
    6.6579  -17.8305   26.8373 C   0  0  0  0  0  0  0  0  0  0  0  0
    6.8133  -18.2561   28.0983 N   0  0  0  0  0  0  0  0  0  0  0  0
    7.8987  -19.0401   28.1099 C   0  0  0  0  0  0  0  0  0  0  0  0
    8.4128  -19.1018   26.8706 N   0  0  0  0  0  0  0  0  0  0  0  0
    9.0440  -16.0211   25.1481 C   0  0  0  0  0  0  0  0  0  0  0  0
   10.2687  -16.3739   24.9957 O   0  0  0  0  0  0  0  0  0  0  0  0
    8.7474  -15.0493   26.1138 N   0  0  0  0  0  0  0  0  0  0  0  0
    7.5028  -14.4135   26.4428 C   0  0  0  0  0  0  0  0  0  0  0  0
    7.7791  -13.8104   27.8328 C   0  0  0  0  0  0  0  0  0  0  0  0
    9.1806  -13.2453   27.5815 C   0  0  0  0  0  0  0  0  0  0  0  0
    9.8157  -14.5090   26.9898 C   0  0  1  0  0  0  0  0  0  0  0  0
    9.9911  -15.4716   28.1000 C   0  0  0  0  0  0  0  0  0  0  0  0
    9.2369  -16.4840   28.2291 O   0  0  0  0  0  0  0  0  0  0  0  0
   10.9867  -15.3249   29.0619 O   0  0  0  0  0  0  0  0  0  0  0  0
  2  1  1  0
  3  2  1  0
  4  5  1  0
  4  3  1  0
  5  7  1  0
  5  6  1  6
  7  8  2  0
  9 10  1  0
  9  7  1  0
 11 12  1  0
 10 11  1  1
 12 16  1  0
 13 12  2  0
 13 14  1  0
 14 15  1  0
 16 15  2  0
 17 18  2  0
 17 10  1  0
 19 17  1  0
 20 19  1  0
 20 21  1  0
 22 21  1  0
 23 22  1  0
 23 19  1  0
 23 24  1  1
 25 24  2  0
 26 24  1  0
M  END
$$$$
