MHP.pdb
     RDKit          3D

 26 27  0  0  1  0  0  0  0  0999 V2000
    9.1595  -11.6584   20.0848 C   0  0  0  0  0  0  0  0  0  0  0  0
    8.3857  -12.2776   18.5479 S   0  0  0  0  0  0  0  0  0  0  0  0
    8.2113  -14.0883   18.7693 C   0  0  0  0  0  0  0  0  0  0  0  0
    7.5300  -14.3179   20.0776 C   0  0  0  0  0  0  0  0  0  0  0  0
    7.5224  -15.7717   20.4771 C   0  0  2  0  0  0  0  0  0  0  0  0
    6.6936  -16.5927   19.6536 N   0  0  0  0  0  0  0  0  0  0  0  0
    7.1490  -15.9415   21.9020 C   0  0  0  0  0  0  0  0  0  0  0  0
    5.9453  -15.9111   22.2626 O   0  0  0  0  0  0  0  0  0  0  0  0
    8.1578  -16.1420   22.8834 N   0  0  0  0  0  0  0  0  0  0  0  0
    7.8378  -16.4090   24.2893 C   0  0  1  0  0  0  0  0  0  0  0  0
    8.1211  -17.8608   24.5840 C   0  0  0  0  0  0  0  0  0  0  0  0
    7.9366  -18.1668   26.0021 C   0  0  0  0  0  0  0  0  0  0  0  0
    6.8176  -18.5706   26.6915 C   0  0  0  0  0  0  0  0  0  0  0  0
    7.1011  -18.7047   27.9942 N   0  0  0  0  0  0  0  0  0  0  0  0
    8.3940  -18.3894   28.1422 C   0  0  0  0  0  0  0  0  0  0  0  0
    8.9091  -18.0628   26.9456 N   0  0  0  0  0  0  0  0  0  0  0  0
    8.5299  -15.5089   25.2000 C   0  0  0  0  0  0  0  0  0  0  0  0
    9.8079  -15.4835   25.0840 O   0  0  0  0  0  0  0  0  0  0  0  0
    7.9337  -14.6884   26.1676 N   0  0  0  0  0  0  0  0  0  0  0  0
    6.5591  -14.5627   26.5625 C   0  0  0  0  0  0  0  0  0  0  0  0
    6.6540  -13.8490   27.9241 C   0  0  0  0  0  0  0  0  0  0  0  0
    7.7184  -12.8025   27.5795 C   0  0  0  0  0  0  0  0  0  0  0  0
    8.7574  -13.7501   26.9688 C   0  0  1  0  0  0  0  0  0  0  0  0
    9.3436  -14.5317   28.0802 C   0  0  0  0  0  0  0  0  0  0  0  0
    9.0560  -15.7548   28.2585 O   0  0  0  0  0  0  0  0  0  0  0  0
   10.2389  -13.9759   28.9899 O   0  0  0  0  0  0  0  0  0  0  0  0
  2  1  1  0
  3  2  1  0
  4  5  1  0
  4  3  1  0
  5  7  1  0
  5  6  1  6
  7  8  2  0
  9 10  1  0
  9  7  1  0
 11 12  1  0
 10 11  1  1
 12 16  1  0
 13 12  2  0
 13 14  1  0
 14 15  1  0
 16 15  2  0
 17 18  2  0
 17 10  1  0
 19 17  1  0
 20 19  1  0
 20 21  1  0
 22 21  1  0
 23 22  1  0
 23 19  1  0
 23 24  1  1
 25 24  2  0
 26 24  1  0
M  END
$$$$
