MHP.pdb
     RDKit          3D

 26 27  0  0  1  0  0  0  0  0999 V2000
    7.6018  -11.7240   19.6693 C   0  0  0  0  0  0  0  0  0  0  0  0
    8.6295  -12.8307   18.6381 S   0  0  0  0  0  0  0  0  0  0  0  0
    7.9452  -14.5141   18.8747 C   0  0  0  0  0  0  0  0  0  0  0  0
    7.6144  -14.6659   20.3225 C   0  0  0  0  0  0  0  0  0  0  0  0
    7.0604  -16.0298   20.6482 C   0  0  2  0  0  0  0  0  0  0  0  0
    5.8728  -16.3582   19.9264 N   0  0  0  0  0  0  0  0  0  0  0  0
    6.8297  -16.1889   22.1042 C   0  0  0  0  0  0  0  0  0  0  0  0
    5.6741  -16.0934   22.5895 O   0  0  0  0  0  0  0  0  0  0  0  0
    7.9228  -16.4532   22.9737 N   0  0  0  0  0  0  0  0  0  0  0  0
    7.7450  -16.6424   24.4169 C   0  0  1  0  0  0  0  0  0  0  0  0
    7.9213  -18.1051   24.7397 C   0  0  0  0  0  0  0  0  0  0  0  0
    7.8689  -18.3470   26.1811 C   0  0  0  0  0  0  0  0  0  0  0  0
    8.8766  -18.5902   27.0842 C   0  0  0  0  0  0  0  0  0  0  0  0
    8.3638  -18.7877   28.3063 N   0  0  0  0  0  0  0  0  0  0  0  0
    7.0349  -18.6723   28.1904 C   0  0  0  0  0  0  0  0  0  0  0  0
    6.7242  -18.4060   26.9112 N   0  0  0  0  0  0  0  0  0  0  0  0
    8.6211  -15.7872   25.2041 C   0  0  0  0  0  0  0  0  0  0  0  0
    9.8781  -15.9991   25.0539 O   0  0  0  0  0  0  0  0  0  0  0  0
    8.2182  -14.7775   26.0891 N   0  0  0  0  0  0  0  0  0  0  0  0
    6.9038  -14.3326   26.4573 C   0  0  0  0  0  0  0  0  0  0  0  0
    7.1578  -13.5364   27.7512 C   0  0  0  0  0  0  0  0  0  0  0  0
    8.4145  -12.7705   27.3258 C   0  0  0  0  0  0  0  0  0  0  0  0
    9.2269  -13.9648   26.8121 C   0  0  1  0  0  0  0  0  0  0  0  0
    9.6463  -14.7498   27.9944 C   0  0  0  0  0  0  0  0  0  0  0  0
    9.1221  -15.8726   28.2685 O   0  0  0  0  0  0  0  0  0  0  0  0
   10.6337  -14.3067   28.8700 O   0  0  0  0  0  0  0  0  0  0  0  0
  2  1  1  0
  3  2  1  0
  4  5  1  0
  4  3  1  0
  5  7  1  0
  5  6  1  6
  7  8  2  0
  9 10  1  0
  9  7  1  0
 11 12  1  0
 10 11  1  6
 12 16  1  0
 13 12  2  0
 13 14  1  0
 14 15  1  0
 16 15  2  0
 17 18  2  0
 17 10  1  0
 19 17  1  0
 20 19  1  0
 20 21  1  0
 22 21  1  0
 23 22  1  0
 23 19  1  0
 23 24  1  1
 25 24  2  0
 26 24  1  0
M  END
$$$$
