MHP.pdb
     RDKit          3D

 26 27  0  0  1  0  0  0  0  0999 V2000
    8.9342  -11.8389   20.2206 C   0  0  0  0  0  0  0  0  0  0  0  0
    7.7586  -12.3521   18.9173 S   0  0  0  0  0  0  0  0  0  0  0  0
    7.2474  -14.0584   19.3476 C   0  0  0  0  0  0  0  0  0  0  0  0
    8.4839  -14.8312   19.6677 C   0  0  0  0  0  0  0  0  0  0  0  0
    8.1847  -16.2387   20.1178 C   0  0  2  0  0  0  0  0  0  0  0  0
    7.3234  -16.9570   19.2338 N   0  0  0  0  0  0  0  0  0  0  0  0
    7.6338  -16.2633   21.4942 C   0  0  0  0  0  0  0  0  0  0  0  0
    6.4124  -16.4793   21.6976 O   0  0  0  0  0  0  0  0  0  0  0  0
    8.4892  -16.0407   22.6076 N   0  0  0  0  0  0  0  0  0  0  0  0
    8.0502  -16.2692   23.9879 C   0  0  1  0  0  0  0  0  0  0  0  0
    8.2221  -17.7312   24.3160 C   0  0  0  0  0  0  0  0  0  0  0  0
    7.8824  -18.0122   25.7104 C   0  0  0  0  0  0  0  0  0  0  0  0
    8.6757  -18.4055   26.7623 C   0  0  0  0  0  0  0  0  0  0  0  0
    7.9310  -18.5794   27.8625 N   0  0  0  0  0  0  0  0  0  0  0  0
    6.6669  -18.2998   27.5211 C   0  0  0  0  0  0  0  0  0  0  0  0
    6.6252  -17.9559   26.2235 N   0  0  0  0  0  0  0  0  0  0  0  0
    8.7263  -15.4000   24.9398 C   0  0  0  0  0  0  0  0  0  0  0  0
   10.0035  -15.5199   24.9844 O   0  0  0  0  0  0  0  0  0  0  0  0
    8.1161  -14.4669   25.7895 N   0  0  0  0  0  0  0  0  0  0  0  0
    6.7315  -14.1254   25.9557 C   0  0  0  0  0  0  0  0  0  0  0  0
    6.7171  -13.3864   27.3069 C   0  0  0  0  0  0  0  0  0  0  0  0
    7.9689  -12.5216   27.1276 C   0  0  0  0  0  0  0  0  0  0  0  0
    8.9354  -13.6333   26.7030 C   0  0  1  0  0  0  0  0  0  0  0  0
    9.2131  -14.4536   27.9029 C   0  0  0  0  0  0  0  0  0  0  0  0
    8.7306  -15.6195   28.0389 O   0  0  0  0  0  0  0  0  0  0  0  0
   10.0143  -13.9986   28.9465 O   0  0  0  0  0  0  0  0  0  0  0  0
  2  1  1  0
  3  2  1  0
  4  5  1  0
  4  3  1  0
  5  7  1  0
  5  6  1  6
  7  8  2  0
  9 10  1  0
  9  7  1  0
 11 12  1  0
 10 11  1  1
 12 16  1  0
 13 12  2  0
 13 14  1  0
 14 15  1  0
 16 15  2  0
 17 18  2  0
 17 10  1  0
 19 17  1  0
 20 19  1  0
 20 21  1  0
 22 21  1  0
 23 22  1  0
 23 19  1  0
 23 24  1  1
 25 24  2  0
 26 24  1  0
M  END
$$$$
