MHP.pdb
     RDKit          3D

 26 27  0  0  1  0  0  0  0  0999 V2000
   11.1323  -17.4432   17.3787 C   0  0  0  0  0  0  0  0  0  0  0  0
   12.6561  -17.2883   18.3779 S   0  0  0  0  0  0  0  0  0  0  0  0
   12.3749  -18.2995   19.8800 C   0  0  0  0  0  0  0  0  0  0  0  0
   12.2386  -17.3624   21.0341 C   0  0  0  0  0  0  0  0  0  0  0  0
   10.9341  -17.5378   21.7693 C   0  0  2  0  0  0  0  0  0  0  0  0
    9.9300  -18.2130   21.0109 N   0  0  0  0  0  0  0  0  0  0  0  0
   10.4106  -16.2416   22.2637 C   0  0  0  0  0  0  0  0  0  0  0  0
   11.1882  -15.2924   22.5363 O   0  0  0  0  0  0  0  0  0  0  0  0
    9.0115  -16.0579   22.4361 N   0  0  0  0  0  0  0  0  0  0  0  0
    8.4541  -14.8665   23.0843 C   0  0  1  0  0  0  0  0  0  0  0  0
    7.2117  -14.4458   22.3399 C   0  0  0  0  0  0  0  0  0  0  0  0
    7.5284  -13.9625   20.9964 C   0  0  0  0  0  0  0  0  0  0  0  0
    6.8470  -14.1056   19.8109 C   0  0  0  0  0  0  0  0  0  0  0  0
    7.5267  -13.5226   18.8142 N   0  0  0  0  0  0  0  0  0  0  0  0
    8.6382  -13.0077   19.3547 C   0  0  0  0  0  0  0  0  0  0  0  0
    8.6502  -13.2672   20.6724 N   0  0  0  0  0  0  0  0  0  0  0  0
    8.2130  -15.0657   24.5058 C   0  0  0  0  0  0  0  0  0  0  0  0
    8.3614  -16.2692   24.9264 O   0  0  0  0  0  0  0  0  0  0  0  0
    7.8423  -14.0794   25.4303 N   0  0  0  0  0  0  0  0  0  0  0  0
    7.4714  -12.7071   25.2289 C   0  0  0  0  0  0  0  0  0  0  0  0
    6.7795  -12.3374   26.5543 C   0  0  0  0  0  0  0  0  0  0  0  0
    7.7538  -12.9999   27.5334 C   0  0  0  0  0  0  0  0  0  0  0  0
    7.7999  -14.3865   26.8811 C   0  0  1  0  0  0  0  0  0  0  0  0
    6.4981  -15.0382   27.1461 C   0  0  0  0  0  0  0  0  0  0  0  0
    5.5782  -15.0684   26.2724 O   0  0  0  0  0  0  0  0  0  0  0  0
    6.2070  -15.6528   28.3609 O   0  0  0  0  0  0  0  0  0  0  0  0
  2  1  1  0
  3  2  1  0
  4  5  1  0
  4  3  1  0
  5  7  1  0
  5  6  1  6
  7  8  2  0
  9 10  1  0
  9  7  1  0
 11 12  1  0
 10 11  1  6
 12 16  1  0
 13 12  2  0
 13 14  1  0
 14 15  1  0
 16 15  2  0
 17 18  2  0
 17 10  1  0
 19 17  1  0
 20 19  1  0
 20 21  1  0
 22 21  1  0
 23 22  1  0
 23 19  1  0
 23 24  1  6
 25 24  2  0
 26 24  1  0
M  END
$$$$
