MHP.pdb
     RDKit          3D

 26 27  0  0  1  0  0  0  0  0999 V2000
   10.3176  -18.9044   26.5587 C   0  0  0  0  0  0  0  0  0  0  0  0
   11.5939  -17.6537   26.1702 S   0  0  0  0  0  0  0  0  0  0  0  0
   12.2902  -18.1365   24.5454 C   0  0  0  0  0  0  0  0  0  0  0  0
   11.1504  -18.2770   23.5915 C   0  0  0  0  0  0  0  0  0  0  0  0
   11.2138  -17.2768   22.4651 C   0  0  2  0  0  0  0  0  0  0  0  0
   12.5397  -16.9993   22.0130 N   0  0  0  0  0  0  0  0  0  0  0  0
   10.5243  -16.0133   22.8211 C   0  0  0  0  0  0  0  0  0  0  0  0
   11.1575  -15.0514   23.3247 O   0  0  0  0  0  0  0  0  0  0  0  0
    9.1276  -15.8761   22.5945 N   0  0  0  0  0  0  0  0  0  0  0  0
    8.3876  -14.6716   22.9840 C   0  0  1  0  0  0  0  0  0  0  0  0
    7.1687  -14.5455   22.1048 C   0  0  0  0  0  0  0  0  0  0  0  0
    7.5338  -14.2483   20.7202 C   0  0  0  0  0  0  0  0  0  0  0  0
    7.8306  -13.0521   20.1107 C   0  0  0  0  0  0  0  0  0  0  0  0
    8.0790  -13.2463   18.8085 N   0  0  0  0  0  0  0  0  0  0  0  0
    7.9432  -14.5589   18.5813 C   0  0  0  0  0  0  0  0  0  0  0  0
    7.6139  -15.1743   19.7288 N   0  0  0  0  0  0  0  0  0  0  0  0
    8.0581  -14.6529   24.4016 C   0  0  0  0  0  0  0  0  0  0  0  0
    8.3291  -15.7303   25.0444 O   0  0  0  0  0  0  0  0  0  0  0  0
    7.4849  -13.5850   25.1059 N   0  0  0  0  0  0  0  0  0  0  0  0
    6.9266  -12.3501   24.6317 C   0  0  0  0  0  0  0  0  0  0  0  0
    6.1029  -11.8576   25.8364 C   0  0  0  0  0  0  0  0  0  0  0  0
    7.1000  -12.1646   26.9581 C   0  0  0  0  0  0  0  0  0  0  0  0
    7.3952  -13.6223   26.5862 C   0  0  1  0  0  0  0  0  0  0  0  0
    6.1912  -14.4130   26.9255 C   0  0  0  0  0  0  0  0  0  0  0  0
    5.3643  -14.7819   26.0364 O   0  0  0  0  0  0  0  0  0  0  0  0
    5.8961  -14.7964   28.2309 O   0  0  0  0  0  0  0  0  0  0  0  0
  2  1  1  0
  3  2  1  0
  4  5  1  0
  4  3  1  0
  5  7  1  0
  5  6  1  1
  7  8  2  0
  9 10  1  0
  9  7  1  0
 11 12  1  0
 10 11  1  6
 12 16  1  0
 13 12  2  0
 13 14  1  0
 14 15  1  0
 16 15  2  0
 17 18  2  0
 17 10  1  0
 19 17  1  0
 20 19  1  0
 20 21  1  0
 22 21  1  0
 23 22  1  0
 23 19  1  0
 23 24  1  6
 25 24  2  0
 26 24  1  0
M  END
$$$$
