MHP.pdb
     RDKit          3D

 26 27  0  0  1  0  0  0  0  0999 V2000
    8.2441  -11.9375   20.0257 C   0  0  0  0  0  0  0  0  0  0  0  0
    8.3182  -12.8348   18.4340 S   0  0  0  0  0  0  0  0  0  0  0  0
    8.1687  -14.6123   18.8537 C   0  0  0  0  0  0  0  0  0  0  0  0
    7.6764  -14.7025   20.2602 C   0  0  0  0  0  0  0  0  0  0  0  0
    7.5303  -16.1275   20.7303 C   0  0  2  0  0  0  0  0  0  0  0  0
    6.6127  -16.9002   19.9554 N   0  0  0  0  0  0  0  0  0  0  0  0
    7.1618  -16.1911   22.1651 C   0  0  0  0  0  0  0  0  0  0  0  0
    5.9588  -16.1413   22.5261 O   0  0  0  0  0  0  0  0  0  0  0  0
    8.1744  -16.3099   23.1558 N   0  0  0  0  0  0  0  0  0  0  0  0
    7.8688  -16.3040   24.5899 C   0  0  1  0  0  0  0  0  0  0  0  0
    8.2547  -17.6400   25.1736 C   0  0  0  0  0  0  0  0  0  0  0  0
    7.4092  -18.7159   24.6574 C   0  0  0  0  0  0  0  0  0  0  0  0
    6.2442  -19.2531   25.1519 C   0  0  0  0  0  0  0  0  0  0  0  0
    5.8256  -20.2527   24.3640 N   0  0  0  0  0  0  0  0  0  0  0  0
    6.7154  -20.3581   23.3689 C   0  0  0  0  0  0  0  0  0  0  0  0
    7.6764  -19.4349   23.5356 N   0  0  0  0  0  0  0  0  0  0  0  0
    8.4907  -15.1887   25.2885 C   0  0  0  0  0  0  0  0  0  0  0  0
    9.7531  -15.0550   25.0991 O   0  0  0  0  0  0  0  0  0  0  0  0
    7.8437  -14.2717   26.1286 N   0  0  0  0  0  0  0  0  0  0  0  0
    6.4505  -14.1156   26.4384 C   0  0  0  0  0  0  0  0  0  0  0  0
    6.4743  -13.2552   27.7156 C   0  0  0  0  0  0  0  0  0  0  0  0
    7.5511  -12.2436   27.3105 C   0  0  0  0  0  0  0  0  0  0  0  0
    8.6228  -13.2434   26.8608 C   0  0  1  0  0  0  0  0  0  0  0  0
    9.1549  -13.8922   28.0797 C   0  0  0  0  0  0  0  0  0  0  0  0
    9.8974  -13.2669   28.8970 O   0  0  0  0  0  0  0  0  0  0  0  0
    8.8747  -15.2177   28.4000 O   0  0  0  0  0  0  0  0  0  0  0  0
  2  1  1  0
  3  2  1  0
  4  5  1  0
  4  3  1  0
  5  7  1  0
  5  6  1  6
  7  8  2  0
  9 10  1  0
  9  7  1  0
 11 12  1  0
 10 11  1  1
 12 16  1  0
 13 12  2  0
 13 14  1  0
 14 15  1  0
 16 15  2  0
 17 18  2  0
 17 10  1  0
 19 17  1  0
 20 19  1  0
 20 21  1  0
 22 21  1  0
 23 22  1  0
 23 19  1  0
 23 24  1  1
 25 24  2  0
 26 24  1  0
M  END
$$$$
