MHP.pdb
     RDKit          3D

 26 27  0  0  1  0  0  0  0  0999 V2000
    7.8806  -13.3622   24.9134 C   0  0  0  0  0  0  0  0  0  0  0  0
    7.7271  -12.5373   23.2885 S   0  0  0  0  0  0  0  0  0  0  0  0
    6.3772  -13.4105   22.4091 C   0  0  0  0  0  0  0  0  0  0  0  0
    6.9820  -14.1082   21.2360 C   0  0  0  0  0  0  0  0  0  0  0  0
    7.7592  -15.3375   21.6332 C   0  0  2  0  0  0  0  0  0  0  0  0
    8.7965  -15.0838   22.5814 N   0  0  0  0  0  0  0  0  0  0  0  0
    8.3143  -16.0356   20.4487 C   0  0  0  0  0  0  0  0  0  0  0  0
    7.5567  -16.5216   19.5713 O   0  0  0  0  0  0  0  0  0  0  0  0
    9.7214  -16.1636   20.2922 N   0  0  0  0  0  0  0  0  0  0  0  0
   10.3231  -16.7648   19.0978 C   0  0  1  0  0  0  0  0  0  0  0  0
   10.6590  -15.6675   18.1191 C   0  0  0  0  0  0  0  0  0  0  0  0
    9.5555  -15.4182   17.1923 C   0  0  0  0  0  0  0  0  0  0  0  0
    8.3481  -16.0594   17.0464 C   0  0  0  0  0  0  0  0  0  0  0  0
    7.6527  -15.5115   16.0408 N   0  0  0  0  0  0  0  0  0  0  0  0
    8.4075  -14.5240   15.5427 C   0  0  0  0  0  0  0  0  0  0  0  0
    9.5593  -14.4582   16.2304 N   0  0  0  0  0  0  0  0  0  0  0  0
   11.4706  -17.6030   19.4125 C   0  0  0  0  0  0  0  0  0  0  0  0
   12.3086  -17.0999   20.2444 O   0  0  0  0  0  0  0  0  0  0  0  0
   11.7308  -18.8805   18.8973 N   0  0  0  0  0  0  0  0  0  0  0  0
   10.9957  -19.6692   17.9492 C   0  0  0  0  0  0  0  0  0  0  0  0
   12.0243  -20.7271   17.5075 C   0  0  0  0  0  0  0  0  0  0  0  0
   12.6265  -21.0699   18.8739 C   0  0  0  0  0  0  0  0  0  0  0  0
   12.9265  -19.6399   19.3381 C   0  0  1  0  0  0  0  0  0  0  0  0
   14.0689  -19.1498   18.5352 C   0  0  0  0  0  0  0  0  0  0  0  0
   13.9122  -18.3077   17.5988 O   0  0  0  0  0  0  0  0  0  0  0  0
   15.3740  -19.5801   18.7577 O   0  0  0  0  0  0  0  0  0  0  0  0
  2  1  1  0
  3  2  1  0
  4  5  1  0
  4  3  1  0
  5  7  1  0
  5  6  1  1
  7  8  2  0
  9 10  1  0
  9  7  1  0
 11 12  1  0
 10 11  1  6
 12 16  1  0
 13 12  2  0
 13 14  1  0
 14 15  1  0
 16 15  2  0
 17 18  2  0
 17 10  1  0
 19 17  1  0
 20 19  1  0
 20 21  1  0
 22 21  1  0
 23 22  1  0
 23 19  1  0
 23 24  1  6
 25 24  2  0
 26 24  1  0
M  END
$$$$
