MHP.pdb
     RDKit          3D

 26 27  0  0  1  0  0  0  0  0999 V2000
    8.7995  -11.7878   19.7317 C   0  0  0  0  0  0  0  0  0  0  0  0
    8.4203  -12.7069   18.1969 S   0  0  0  0  0  0  0  0  0  0  0  0
    8.3484  -14.4741   18.6762 C   0  0  0  0  0  0  0  0  0  0  0  0
    7.8727  -14.5377   20.0898 C   0  0  0  0  0  0  0  0  0  0  0  0
    7.8200  -15.9488   20.6182 C   0  0  2  0  0  0  0  0  0  0  0  0
    7.0353  -16.8355   19.8199 N   0  0  0  0  0  0  0  0  0  0  0  0
    7.3530  -15.9850   22.0251 C   0  0  0  0  0  0  0  0  0  0  0  0
    6.1321  -15.8771   22.3036 O   0  0  0  0  0  0  0  0  0  0  0  0
    8.2900  -16.1434   23.0824 N   0  0  0  0  0  0  0  0  0  0  0  0
    7.8775  -16.2125   24.4878 C   0  0  1  0  0  0  0  0  0  0  0  0
    8.1107  -17.6142   24.9934 C   0  0  0  0  0  0  0  0  0  0  0  0
    7.2328  -18.5774   24.3298 C   0  0  0  0  0  0  0  0  0  0  0  0
    5.9216  -18.9098   24.5762 C   0  0  0  0  0  0  0  0  0  0  0  0
    5.5241  -19.8749   23.7360 N   0  0  0  0  0  0  0  0  0  0  0  0
    6.5725  -20.1618   22.9540 C   0  0  0  0  0  0  0  0  0  0  0  0
    7.6104  -19.3842   23.3034 N   0  0  0  0  0  0  0  0  0  0  0  0
    8.5307  -15.2058   25.3115 C   0  0  0  0  0  0  0  0  0  0  0  0
    9.8131  -15.1980   25.2584 O   0  0  0  0  0  0  0  0  0  0  0  0
    7.8937  -14.2681   26.1361 N   0  0  0  0  0  0  0  0  0  0  0  0
    6.4980  -14.0509   26.3933 C   0  0  0  0  0  0  0  0  0  0  0  0
    6.5109  -13.2046   27.6802 C   0  0  0  0  0  0  0  0  0  0  0  0
    7.6478  -12.2400   27.3287 C   0  0  0  0  0  0  0  0  0  0  0  0
    8.6896  -13.2837   26.9097 C   0  0  1  0  0  0  0  0  0  0  0  0
    9.1432  -13.9680   28.1409 C   0  0  0  0  0  0  0  0  0  0  0  0
    9.8990  -13.3930   28.9825 O   0  0  0  0  0  0  0  0  0  0  0  0
    8.7704  -15.2739   28.4470 O   0  0  0  0  0  0  0  0  0  0  0  0
  2  1  1  0
  3  2  1  0
  4  5  1  0
  4  3  1  0
  5  7  1  0
  5  6  1  6
  7  8  2  0
  9 10  1  0
  9  7  1  0
 11 12  1  0
 10 11  1  1
 12 16  1  0
 13 12  2  0
 13 14  1  0
 14 15  1  0
 16 15  2  0
 17 18  2  0
 17 10  1  0
 19 17  1  0
 20 19  1  0
 20 21  1  0
 22 21  1  0
 23 22  1  0
 23 19  1  0
 23 24  1  1
 25 24  2  0
 26 24  1  0
M  END
$$$$
