MHP.pdb
     RDKit          3D

 26 27  0  0  1  0  0  0  0  0999 V2000
   11.8990  -21.5340   17.5469 C   0  0  0  0  0  0  0  0  0  0  0  0
   12.3832  -20.7632   15.9608 S   0  0  0  0  0  0  0  0  0  0  0  0
   11.4296  -19.2022   15.8510 C   0  0  0  0  0  0  0  0  0  0  0  0
   11.7266  -18.5862   14.5239 C   0  0  0  0  0  0  0  0  0  0  0  0
   10.9087  -17.3459   14.2673 C   0  0  2  0  0  0  0  0  0  0  0  0
   11.3088  -16.6207   13.1039 N   0  0  0  0  0  0  0  0  0  0  0  0
   10.8993  -16.4475   15.4468 C   0  0  0  0  0  0  0  0  0  0  0  0
   11.9608  -15.9213   15.8667 O   0  0  0  0  0  0  0  0  0  0  0  0
    9.6788  -16.1700   16.1208 N   0  0  0  0  0  0  0  0  0  0  0  0
    9.6179  -15.3011   17.3004 C   0  0  1  0  0  0  0  0  0  0  0  0
    8.1939  -14.8429   17.4924 C   0  0  0  0  0  0  0  0  0  0  0  0
    8.0684  -13.9466   18.6412 C   0  0  0  0  0  0  0  0  0  0  0  0
    8.2054  -12.5814   18.7294 C   0  0  0  0  0  0  0  0  0  0  0  0
    8.0346  -12.1810   19.9966 N   0  0  0  0  0  0  0  0  0  0  0  0
    7.7891  -13.2813   20.7192 C   0  0  0  0  0  0  0  0  0  0  0  0
    7.8070  -14.3539   19.9111 N   0  0  0  0  0  0  0  0  0  0  0  0
   10.1655  -15.9360   18.4902 C   0  0  0  0  0  0  0  0  0  0  0  0
    9.9084  -17.1873   18.6146 O   0  0  0  0  0  0  0  0  0  0  0  0
   10.9306  -15.3123   19.4855 N   0  0  0  0  0  0  0  0  0  0  0  0
   11.2944  -13.9335   19.6527 C   0  0  0  0  0  0  0  0  0  0  0  0
   11.7386  -13.8690   21.1261 C   0  0  0  0  0  0  0  0  0  0  0  0
   12.5625  -15.1589   21.1912 C   0  0  0  0  0  0  0  0  0  0  0  0
   11.5186  -16.1078   20.5910 C   0  0  1  0  0  0  0  0  0  0  0  0
   10.4563  -16.2878   21.6054 C   0  0  0  0  0  0  0  0  0  0  0  0
    9.2799  -15.8482   21.4230 O   0  0  0  0  0  0  0  0  0  0  0  0
   10.6826  -16.9453   22.8114 O   0  0  0  0  0  0  0  0  0  0  0  0
  2  1  1  0
  3  2  1  0
  4  5  1  0
  4  3  1  0
  5  7  1  0
  5  6  1  6
  7  8  2  0
  9 10  1  0
  9  7  1  0
 11 12  1  0
 10 11  1  1
 12 16  1  0
 13 12  2  0
 13 14  1  0
 14 15  1  0
 16 15  2  0
 17 18  2  0
 17 10  1  0
 19 17  1  0
 20 19  1  0
 20 21  1  0
 22 21  1  0
 23 22  1  0
 23 19  1  0
 23 24  1  1
 25 24  2  0
 26 24  1  0
M  END
$$$$
