MHP.pdb
     RDKit          3D

 26 27  0  0  1  0  0  0  0  0999 V2000
    8.4617  -11.3182   20.1007 C   0  0  0  0  0  0  0  0  0  0  0  0
    8.4224  -13.0758   19.5974 S   0  0  0  0  0  0  0  0  0  0  0  0
    6.7899  -13.7136   20.1323 C   0  0  0  0  0  0  0  0  0  0  0  0
    6.6822  -15.1259   19.6607 C   0  0  0  0  0  0  0  0  0  0  0  0
    7.5739  -16.0628   20.4356 C   0  0  2  0  0  0  0  0  0  0  0  0
    7.5686  -17.4036   19.9443 N   0  0  0  0  0  0  0  0  0  0  0  0
    7.2479  -16.0511   21.8820 C   0  0  0  0  0  0  0  0  0  0  0  0
    6.0700  -15.8611   22.2773 O   0  0  0  0  0  0  0  0  0  0  0  0
    8.2735  -16.2563   22.8447 N   0  0  0  0  0  0  0  0  0  0  0  0
    7.9806  -16.4581   24.2673 C   0  0  1  0  0  0  0  0  0  0  0  0
    8.0515  -17.9333   24.5727 C   0  0  0  0  0  0  0  0  0  0  0  0
    7.8347  -18.1983   25.9945 C   0  0  0  0  0  0  0  0  0  0  0  0
    8.7266  -18.2583   27.0391 C   0  0  0  0  0  0  0  0  0  0  0  0
    8.0866  -18.5639   28.1759 N   0  0  0  0  0  0  0  0  0  0  0  0
    6.7913  -18.6995   27.8650 C   0  0  0  0  0  0  0  0  0  0  0  0
    6.6271  -18.4810   26.5501 N   0  0  0  0  0  0  0  0  0  0  0  0
    8.8429  -15.6665   25.1324 C   0  0  0  0  0  0  0  0  0  0  0  0
   10.0985  -15.9136   25.0337 O   0  0  0  0  0  0  0  0  0  0  0  0
    8.4284  -14.6823   26.0405 N   0  0  0  0  0  0  0  0  0  0  0  0
    7.1241  -14.1366   26.2905 C   0  0  0  0  0  0  0  0  0  0  0  0
    7.2911  -13.4551   27.6616 C   0  0  0  0  0  0  0  0  0  0  0  0
    8.6529  -12.7890   27.4408 C   0  0  0  0  0  0  0  0  0  0  0  0
    9.4115  -14.0206   26.9328 C   0  0  1  0  0  0  0  0  0  0  0  0
    9.6146  -14.9182   28.0917 C   0  0  0  0  0  0  0  0  0  0  0  0
    8.9691  -16.0038   28.2145 O   0  0  0  0  0  0  0  0  0  0  0  0
   10.5194  -14.6272   29.1089 O   0  0  0  0  0  0  0  0  0  0  0  0
  2  1  1  0
  3  2  1  0
  4  5  1  0
  4  3  1  0
  5  7  1  0
  5  6  1  6
  7  8  2  0
  9 10  1  0
  9  7  1  0
 11 12  1  0
 10 11  1  1
 12 16  1  0
 13 12  2  0
 13 14  1  0
 14 15  1  0
 16 15  2  0
 17 18  2  0
 17 10  1  0
 19 17  1  0
 20 19  1  0
 20 21  1  0
 22 21  1  0
 23 22  1  0
 23 19  1  0
 23 24  1  1
 25 24  2  0
 26 24  1  0
M  END
$$$$
