MHP.pdb
     RDKit          3D

 26 27  0  0  1  0  0  0  0  0999 V2000
    9.1738  -11.9880   20.1305 C   0  0  0  0  0  0  0  0  0  0  0  0
    7.6990  -12.2377   19.0784 S   0  0  0  0  0  0  0  0  0  0  0  0
    6.9968  -13.8555   19.5762 C   0  0  0  0  0  0  0  0  0  0  0  0
    8.1363  -14.8005   19.7686 C   0  0  0  0  0  0  0  0  0  0  0  0
    7.6816  -16.1753   20.1883 C   0  0  2  0  0  0  0  0  0  0  0  0
    6.6271  -16.7054   19.3842 N   0  0  0  0  0  0  0  0  0  0  0  0
    7.2933  -16.2059   21.6189 C   0  0  0  0  0  0  0  0  0  0  0  0
    6.1009  -16.0172   21.9689 O   0  0  0  0  0  0  0  0  0  0  0  0
    8.2745  -16.4510   22.6180 N   0  0  0  0  0  0  0  0  0  0  0  0
    7.9294  -16.5764   24.0376 C   0  0  1  0  0  0  0  0  0  0  0  0
    8.2591  -17.9751   24.4953 C   0  0  0  0  0  0  0  0  0  0  0  0
    7.9259  -18.1711   25.9057 C   0  0  0  0  0  0  0  0  0  0  0  0
    8.7288  -18.4697   26.9812 C   0  0  0  0  0  0  0  0  0  0  0  0
    7.9881  -18.5904   28.0911 N   0  0  0  0  0  0  0  0  0  0  0  0
    6.7168  -18.3709   27.7325 C   0  0  0  0  0  0  0  0  0  0  0  0
    6.6669  -18.1166   26.4147 N   0  0  0  0  0  0  0  0  0  0  0  0
    8.5644  -15.5559   24.8586 C   0  0  0  0  0  0  0  0  0  0  0  0
    9.8477  -15.5510   24.8365 O   0  0  0  0  0  0  0  0  0  0  0  0
    7.9095  -14.6025   25.6505 N   0  0  0  0  0  0  0  0  0  0  0  0
    6.5146  -14.4402   25.9491 C   0  0  0  0  0  0  0  0  0  0  0  0
    6.5297  -13.5169   27.1819 C   0  0  0  0  0  0  0  0  0  0  0  0
    7.6010  -12.5198   26.7292 C   0  0  0  0  0  0  0  0  0  0  0  0
    8.6802  -13.5338   26.3322 C   0  0  1  0  0  0  0  0  0  0  0  0
    9.2134  -14.1176   27.5831 C   0  0  0  0  0  0  0  0  0  0  0  0
    9.7433  -13.3956   28.4821 O   0  0  0  0  0  0  0  0  0  0  0  0
    9.1658  -15.4838   27.8463 O   0  0  0  0  0  0  0  0  0  0  0  0
  2  1  1  0
  3  2  1  0
  4  5  1  0
  4  3  1  0
  5  7  1  0
  5  6  1  6
  7  8  2  0
  9 10  1  0
  9  7  1  0
 11 12  1  0
 10 11  1  1
 12 16  1  0
 13 12  2  0
 13 14  1  0
 14 15  1  0
 16 15  2  0
 17 18  2  0
 17 10  1  0
 19 17  1  0
 20 19  1  0
 20 21  1  0
 22 21  1  0
 23 22  1  0
 23 19  1  0
 23 24  1  1
 25 24  2  0
 26 24  1  0
M  END
$$$$
