MHP.pdb
     RDKit          3D

 26 27  0  0  1  0  0  0  0  0999 V2000
    8.4115  -11.5776   19.5659 C   0  0  0  0  0  0  0  0  0  0  0  0
    8.5194  -12.7095   18.1336 S   0  0  0  0  0  0  0  0  0  0  0  0
    8.8612  -14.3691   18.8315 C   0  0  0  0  0  0  0  0  0  0  0  0
    7.9385  -14.5696   19.9878 C   0  0  0  0  0  0  0  0  0  0  0  0
    8.0943  -15.9286   20.6218 C   0  0  2  0  0  0  0  0  0  0  0  0
    7.7561  -17.0123   19.7556 N   0  0  0  0  0  0  0  0  0  0  0  0
    7.3252  -16.0300   21.8854 C   0  0  0  0  0  0  0  0  0  0  0  0
    6.0708  -16.1101   21.8736 O   0  0  0  0  0  0  0  0  0  0  0  0
    8.0047  -16.0374   23.1340 N   0  0  0  0  0  0  0  0  0  0  0  0
    7.3156  -15.7682   24.4001 C   0  0  1  0  0  0  0  0  0  0  0  0
    6.8494  -17.0772   24.9865 C   0  0  0  0  0  0  0  0  0  0  0  0
    7.7978  -18.1563   24.7124 C   0  0  0  0  0  0  0  0  0  0  0  0
    8.2584  -18.6604   23.5191 C   0  0  0  0  0  0  0  0  0  0  0  0
    9.1008  -19.6782   23.7420 N   0  0  0  0  0  0  0  0  0  0  0  0
    9.1819  -19.8281   25.0701 C   0  0  0  0  0  0  0  0  0  0  0  0
    8.3991  -18.9144   25.6668 N   0  0  0  0  0  0  0  0  0  0  0  0
    8.1326  -15.0000   25.3279 C   0  0  0  0  0  0  0  0  0  0  0  0
    9.3739  -15.3240   25.3673 O   0  0  0  0  0  0  0  0  0  0  0  0
    7.6895  -13.9627   26.1603 N   0  0  0  0  0  0  0  0  0  0  0  0
    6.3882  -13.3724   26.2995 C   0  0  0  0  0  0  0  0  0  0  0  0
    6.4872  -12.6297   27.6452 C   0  0  0  0  0  0  0  0  0  0  0  0
    7.8787  -12.0101   27.4822 C   0  0  0  0  0  0  0  0  0  0  0  0
    8.6325  -13.2838   27.0825 C   0  0  1  0  0  0  0  0  0  0  0  0
    8.7359  -14.1291   28.2928 C   0  0  0  0  0  0  0  0  0  0  0  0
    9.5210  -13.8350   29.2454 O   0  0  0  0  0  0  0  0  0  0  0  0
    7.9836  -15.2888   28.4572 O   0  0  0  0  0  0  0  0  0  0  0  0
  2  1  1  0
  3  2  1  0
  4  5  1  0
  4  3  1  0
  5  7  1  0
  5  6  1  6
  7  8  2  0
  9 10  1  0
  9  7  1  0
 11 12  1  0
 10 11  1  1
 12 16  1  0
 13 12  2  0
 13 14  1  0
 14 15  1  0
 16 15  2  0
 17 18  2  0
 17 10  1  0
 19 17  1  0
 20 19  1  0
 20 21  1  0
 22 21  1  0
 23 22  1  0
 23 19  1  0
 23 24  1  1
 25 24  2  0
 26 24  1  0
M  END
$$$$
