QSQ.pdb
     RDKit          3D

 25 24  0  0  1  0  0  0  0  0999 V2000
   16.0532  -12.7452  -19.3872 N   0  0  0  0  0  0  0  0  0  0  0  0
   16.2427  -11.4158  -18.9297 C   0  0  0  0  0  0  0  0  0  0  0  0
   16.6709  -10.4852  -19.6211 O   0  0  0  0  0  0  0  0  0  0  0  0
   15.9008  -11.1160  -17.5087 C   0  0  0  0  0  0  0  0  0  0  0  0
   16.9952  -10.3512  -16.8685 C   0  0  0  0  0  0  0  0  0  0  0  0
   18.0454  -11.2148  -16.2408 C   0  0  2  0  0  0  0  0  0  0  0  0
   17.2844  -12.0753  -15.2554 N   0  0  0  0  0  0  0  0  0  0  0  0
   18.9884  -10.3305  -15.4934 C   0  0  0  0  0  0  0  0  0  0  0  0
   18.6425   -9.7262  -14.4586 O   0  0  0  0  0  0  0  0  0  0  0  0
   23.0504   -9.7487  -16.6613 O   0  0  0  0  0  0  0  0  0  0  0  0
   22.6066   -9.8026  -15.3360 C   0  0  0  0  0  0  0  0  0  0  0  0
   21.2126   -9.2868  -15.1920 C   0  0  2  0  0  0  0  0  0  0  0  0
   20.3324  -10.1639  -15.9608 N   0  0  0  0  0  0  0  0  0  0  0  0
   20.9927   -7.8712  -15.5967 C   0  0  0  0  0  0  0  0  0  0  0  0
   20.5727   -7.5734  -16.7217 O   0  0  0  0  0  0  0  0  0  0  0  0
   18.9698   -4.0478  -16.9577 N   0  0  0  0  0  0  0  0  0  0  0  0
   19.3138   -2.9987  -16.0836 C   0  0  0  0  0  0  0  0  0  0  0  0
   19.1516   -1.8096  -16.4643 O   0  0  0  0  0  0  0  0  0  0  0  0
   19.8603   -3.3700  -14.7424 C   0  0  0  0  0  0  0  0  0  0  0  0
   19.9412   -4.8475  -14.5753 C   0  0  0  0  0  0  0  0  0  0  0  0
   21.3143   -5.4381  -14.7974 C   0  0  2  0  0  0  0  0  0  0  0  0
   21.2834   -6.8366  -14.6655 N   0  0  0  0  0  0  0  0  0  0  0  0
   22.3044   -4.6605  -14.0037 C   0  0  0  0  0  0  0  0  0  0  0  0
   22.4117   -5.0153  -12.7591 O   0  0  0  0  0  0  0  0  0  0  0  0
   23.1141   -3.6314  -14.4261 O   0  0  0  0  0  0  0  0  0  0  0  0
  1  2  1  0
  2  3  2  0
  4  5  1  0
  4  2  1  0
  6  8  1  0
  6  5  1  0
  6  7  1  1
  8  9  2  0
 11 10  1  0
 12 11  1  6
 13 12  1  0
 13  8  1  0
 14 15  2  0
 14 12  1  0
 16 17  1  0
 17 19  1  0
 18 17  2  0
 19 20  1  0
 21 20  1  1
 21 22  1  0
 21 23  1  0
 22 14  1  0
 23 25  1  0
 24 23  2  0
M  END
$$$$
