QSQ.pdb
     RDKit          3D

 25 24  0  0  1  0  0  0  0  0999 V2000
   25.5091  -20.9844   -9.5886 N   0  0  0  0  0  0  0  0  0  0  0  0
   24.2733  -21.0145  -10.2845 C   0  0  0  0  0  0  0  0  0  0  0  0
   23.1609  -20.9320   -9.7523 O   0  0  0  0  0  0  0  0  0  0  0  0
   24.3166  -21.1564  -11.7691 C   0  0  0  0  0  0  0  0  0  0  0  0
   25.7170  -21.2922  -12.2305 C   0  0  0  0  0  0  0  0  0  0  0  0
   25.8541  -21.3801  -13.7192 C   0  0  2  0  0  0  0  0  0  0  0  0
   27.3389  -21.5614  -13.9496 N   0  0  0  0  0  0  0  0  0  0  0  0
   25.4232  -20.0751  -14.3033 C   0  0  0  0  0  0  0  0  0  0  0  0
   25.8637  -18.9879  -13.8798 O   0  0  0  0  0  0  0  0  0  0  0  0
   24.5357  -17.3597  -17.8393 O   0  0  0  0  0  0  0  0  0  0  0  0
   24.8415  -18.5780  -17.2241 C   0  0  0  0  0  0  0  0  0  0  0  0
   24.1123  -18.7504  -15.9324 C   0  0  2  0  0  0  0  0  0  0  0  0
   24.4821  -20.0531  -15.3834 N   0  0  0  0  0  0  0  0  0  0  0  0
   22.6298  -18.6323  -15.9961 C   0  0  0  0  0  0  0  0  0  0  0  0
   21.9158  -19.5790  -16.3496 O   0  0  0  0  0  0  0  0  0  0  0  0
   20.5889  -12.7524  -16.1383 N   0  0  0  0  0  0  0  0  0  0  0  0
   19.3280  -13.3541  -15.9628 C   0  0  0  0  0  0  0  0  0  0  0  0
   18.3056  -12.6218  -15.9038 O   0  0  0  0  0  0  0  0  0  0  0  0
   19.2846  -14.8446  -15.8526 C   0  0  0  0  0  0  0  0  0  0  0  0
   20.6526  -15.4327  -15.8561 C   0  0  0  0  0  0  0  0  0  0  0  0
   20.6970  -16.9395  -15.7488 C   0  0  2  0  0  0  0  0  0  0  0  0
   22.0229  -17.3939  -15.6498 N   0  0  0  0  0  0  0  0  0  0  0  0
   19.8116  -17.5205  -16.7943 C   0  0  0  0  0  0  0  0  0  0  0  0
   20.2628  -17.4309  -18.0088 O   0  0  0  0  0  0  0  0  0  0  0  0
   18.5940  -18.1398  -16.6305 O   0  0  0  0  0  0  0  0  0  0  0  0
  1  2  1  0
  2  3  2  0
  4  5  1  0
  4  2  1  0
  6  8  1  0
  6  5  1  0
  6  7  1  1
  8  9  2  0
 11 10  1  0
 12 11  1  6
 13 12  1  0
 13  8  1  0
 14 15  2  0
 14 12  1  0
 16 17  1  0
 17 19  1  0
 18 17  2  0
 19 20  1  0
 21 20  1  6
 21 22  1  0
 21 23  1  0
 22 14  1  0
 23 25  1  0
 24 23  2  0
M  END
$$$$
