QSQ.pdb
     RDKit          3D

 25 24  0  0  1  0  0  0  0  0999 V2000
   12.1133  -10.9807   -9.4509 N   0  0  0  0  0  0  0  0  0  0  0  0
   12.5861  -11.9736  -10.3470 C   0  0  0  0  0  0  0  0  0  0  0  0
   11.9411  -12.9643  -10.7076 O   0  0  0  0  0  0  0  0  0  0  0  0
   13.9639  -11.8128  -10.8965 C   0  0  0  0  0  0  0  0  0  0  0  0
   14.5996  -10.5975  -10.3384 C   0  0  0  0  0  0  0  0  0  0  0  0
   15.9933  -10.3656  -10.8349 C   0  0  2  0  0  0  0  0  0  0  0  0
   16.7845  -11.5367  -10.2935 N   0  0  0  0  0  0  0  0  0  0  0  0
   16.5019   -9.1038  -10.2192 C   0  0  0  0  0  0  0  0  0  0  0  0
   16.8616   -9.0530   -9.0260 O   0  0  0  0  0  0  0  0  0  0  0  0
   17.7817   -5.7846  -12.4090 O   0  0  0  0  0  0  0  0  0  0  0  0
   18.1346   -6.0937  -11.0914 C   0  0  0  0  0  0  0  0  0  0  0  0
   16.9918   -6.6800  -10.3296 C   0  0  2  0  0  0  0  0  0  0  0  0
   16.5904   -7.9107  -11.0074 N   0  0  0  0  0  0  0  0  0  0  0  0
   15.8075   -5.7977  -10.1430 C   0  0  0  0  0  0  0  0  0  0  0  0
   14.8714   -5.7845  -10.9519 O   0  0  0  0  0  0  0  0  0  0  0  0
   13.4336   -4.3654   -4.7569 N   0  0  0  0  0  0  0  0  0  0  0  0
   12.8547   -3.2965   -5.4677 C   0  0  0  0  0  0  0  0  0  0  0  0
   11.9733   -2.5957   -4.9044 O   0  0  0  0  0  0  0  0  0  0  0  0
   13.3284   -3.0617   -6.8662 C   0  0  0  0  0  0  0  0  0  0  0  0
   14.3537   -4.0627   -7.2711 C   0  0  0  0  0  0  0  0  0  0  0  0
   14.9006   -3.8831   -8.6684 C   0  0  2  0  0  0  0  0  0  0  0  0
   15.7592   -4.9420   -9.0083 N   0  0  0  0  0  0  0  0  0  0  0  0
   15.3867   -2.4843   -8.8165 C   0  0  0  0  0  0  0  0  0  0  0  0
   16.6368   -2.3020   -8.5158 O   0  0  0  0  0  0  0  0  0  0  0  0
   14.6833   -1.3787   -9.2357 O   0  0  0  0  0  0  0  0  0  0  0  0
  1  2  1  0
  2  3  2  0
  4  5  1  0
  4  2  1  0
  6  8  1  0
  6  5  1  0
  6  7  1  1
  8  9  2  0
 11 10  1  0
 12 11  1  6
 13 12  1  0
 13  8  1  0
 14 15  2  0
 14 12  1  0
 16 17  1  0
 17 19  1  0
 18 17  2  0
 19 20  1  0
 21 20  1  1
 21 22  1  0
 21 23  1  0
 22 14  1  0
 23 25  1  0
 24 23  2  0
M  END
$$$$
