QSQ.pdb
     RDKit          3D

 25 24  0  0  1  0  0  0  0  0999 V2000
   15.1304  -15.0226  -16.2981 N   0  0  0  0  0  0  0  0  0  0  0  0
   15.2315  -13.7258  -15.7318 C   0  0  0  0  0  0  0  0  0  0  0  0
   14.4979  -13.2856  -14.8399 O   0  0  0  0  0  0  0  0  0  0  0  0
   16.3016  -12.8243  -16.2496 C   0  0  0  0  0  0  0  0  0  0  0  0
   16.9260  -12.0766  -15.1345 C   0  0  0  0  0  0  0  0  0  0  0  0
   17.9128  -11.0426  -15.5815 C   0  0  2  0  0  0  0  0  0  0  0  0
   19.1235  -11.8411  -16.0141 N   0  0  0  0  0  0  0  0  0  0  0  0
   18.2749  -10.2045  -14.3999 C   0  0  0  0  0  0  0  0  0  0  0  0
   19.1867  -10.5336  -13.6151 O   0  0  0  0  0  0  0  0  0  0  0  0
   19.0577   -6.1316  -12.4347 O   0  0  0  0  0  0  0  0  0  0  0  0
   18.6891   -6.9854  -13.4794 C   0  0  0  0  0  0  0  0  0  0  0  0
   17.9707   -8.1971  -12.9839 C   0  0  2  0  0  0  0  0  0  0  0  0
   17.5692   -8.9833  -14.1483 N   0  0  0  0  0  0  0  0  0  0  0  0
   16.7901   -7.9480  -12.1121 C   0  0  0  0  0  0  0  0  0  0  0  0
   15.6601   -8.3504  -12.4155 O   0  0  0  0  0  0  0  0  0  0  0  0
   13.2546   -9.6193   -8.8659 N   0  0  0  0  0  0  0  0  0  0  0  0
   12.9749   -8.3313   -8.3703 C   0  0  0  0  0  0  0  0  0  0  0  0
   11.9483   -8.1601   -7.6617 O   0  0  0  0  0  0  0  0  0  0  0  0
   13.9265   -7.2342   -8.7253 C   0  0  0  0  0  0  0  0  0  0  0  0
   15.0761   -7.7447   -9.5222 C   0  0  0  0  0  0  0  0  0  0  0  0
   16.0482   -6.6850   -9.9868 C   0  0  2  0  0  0  0  0  0  0  0  0
   16.9686   -7.2196  -10.9039 N   0  0  0  0  0  0  0  0  0  0  0  0
   16.5588   -5.9493   -8.7982 C   0  0  0  0  0  0  0  0  0  0  0  0
   15.6627   -5.2780   -8.1403 O   0  0  0  0  0  0  0  0  0  0  0  0
   17.8460   -5.9023   -8.3146 O   0  0  0  0  0  0  0  0  0  0  0  0
  1  2  1  0
  2  3  2  0
  4  5  1  0
  4  2  1  0
  6  8  1  0
  6  5  1  0
  6  7  1  1
  8  9  2  0
 11 10  1  0
 12 11  1  6
 13 12  1  0
 13  8  1  0
 14 15  2  0
 14 12  1  0
 16 17  1  0
 17 19  1  0
 18 17  2  0
 19 20  1  0
 21 20  1  1
 21 22  1  0
 21 23  1  0
 22 14  1  0
 23 25  1  0
 24 23  2  0
M  END
$$$$
