QSQ.pdb
     RDKit          3D

 25 24  0  0  1  0  0  0  0  0999 V2000
   14.6930  -11.7924  -16.7368 N   0  0  0  0  0  0  0  0  0  0  0  0
   15.4366  -12.9834  -16.9392 C   0  0  0  0  0  0  0  0  0  0  0  0
   14.9465  -14.1138  -17.0376 O   0  0  0  0  0  0  0  0  0  0  0  0
   16.9204  -12.8659  -17.0409 C   0  0  0  0  0  0  0  0  0  0  0  0
   17.3243  -11.4415  -17.0222 C   0  0  0  0  0  0  0  0  0  0  0  0
   18.0152  -11.0286  -15.7593 C   0  0  2  0  0  0  0  0  0  0  0  0
   17.0072  -11.3177  -14.6680 N   0  0  0  0  0  0  0  0  0  0  0  0
   18.2599   -9.5569  -15.8233 C   0  0  0  0  0  0  0  0  0  0  0  0
   19.1274   -9.0668  -16.5735 O   0  0  0  0  0  0  0  0  0  0  0  0
   16.7409   -5.1154  -14.6767 O   0  0  0  0  0  0  0  0  0  0  0  0
   16.5501   -6.5009  -14.6584 C   0  0  0  0  0  0  0  0  0  0  0  0
   17.7680   -7.2387  -15.1084 C   0  0  2  0  0  0  0  0  0  0  0  0
   17.4829   -8.6686  -15.0111 N   0  0  0  0  0  0  0  0  0  0  0  0
   19.0293   -6.9254  -14.3825 C   0  0  0  0  0  0  0  0  0  0  0  0
   19.5195   -7.7095  -13.5605 O   0  0  0  0  0  0  0  0  0  0  0  0
   23.7500   -7.4205  -16.6979 N   0  0  0  0  0  0  0  0  0  0  0  0
   24.3352   -6.5348  -15.7728 C   0  0  0  0  0  0  0  0  0  0  0  0
   25.5903   -6.4827  -15.6881 O   0  0  0  0  0  0  0  0  0  0  0  0
   23.4152   -5.7042  -14.9366 C   0  0  0  0  0  0  0  0  0  0  0  0
   21.9878   -6.0370  -15.1997 C   0  0  0  0  0  0  0  0  0  0  0  0
   20.9901   -5.2469  -14.3848 C   0  0  2  0  0  0  0  0  0  0  0  0
   19.6798   -5.6868  -14.6369 N   0  0  0  0  0  0  0  0  0  0  0  0
   21.3029   -3.7980  -14.5184 C   0  0  0  0  0  0  0  0  0  0  0  0
   20.6319   -3.1733  -15.4382 O   0  0  0  0  0  0  0  0  0  0  0  0
   22.1983   -3.0498  -13.7894 O   0  0  0  0  0  0  0  0  0  0  0  0
  1  2  1  0
  2  3  2  0
  4  5  1  0
  4  2  1  0
  6  8  1  0
  6  5  1  0
  6  7  1  1
  8  9  2  0
 11 10  1  0
 12 11  1  1
 13 12  1  0
 13  8  1  0
 14 15  2  0
 14 12  1  0
 16 17  1  0
 17 19  1  0
 18 17  2  0
 19 20  1  0
 21 20  1  6
 21 22  1  0
 21 23  1  0
 22 14  1  0
 23 25  1  0
 24 23  2  0
M  END
$$$$
