QSQ.pdb
     RDKit          3D

 25 24  0  0  1  0  0  0  0  0999 V2000
   25.7595  -21.1648   -9.8001 N   0  0  0  0  0  0  0  0  0  0  0  0
   27.0773  -21.0721  -10.3170 C   0  0  0  0  0  0  0  0  0  0  0  0
   28.0934  -21.4685   -9.7357 O   0  0  0  0  0  0  0  0  0  0  0  0
   27.2528  -20.4499  -11.6616 C   0  0  0  0  0  0  0  0  0  0  0  0
   25.9547  -19.9488  -12.1680 C   0  0  0  0  0  0  0  0  0  0  0  0
   25.1978  -20.9533  -12.9808 C   0  0  2  0  0  0  0  0  0  0  0  0
   26.2379  -21.5495  -13.9045 N   0  0  0  0  0  0  0  0  0  0  0  0
   24.1813  -20.2218  -13.7942 C   0  0  0  0  0  0  0  0  0  0  0  0
   23.2526  -19.5804  -13.2635 O   0  0  0  0  0  0  0  0  0  0  0  0
   24.7732  -19.9892  -17.7071 O   0  0  0  0  0  0  0  0  0  0  0  0
   23.6690  -19.2319  -17.3025 C   0  0  0  0  0  0  0  0  0  0  0  0
   23.1465  -19.6711  -15.9743 C   0  0  2  0  0  0  0  0  0  0  0  0
   24.2627  -20.2428  -15.2244 N   0  0  0  0  0  0  0  0  0  0  0  0
   22.0118  -20.6341  -16.0025 C   0  0  0  0  0  0  0  0  0  0  0  0
   22.1905  -21.8541  -15.8992 O   0  0  0  0  0  0  0  0  0  0  0  0
   19.2825  -22.6021  -12.2077 N   0  0  0  0  0  0  0  0  0  0  0  0
   18.1049  -22.7338  -12.9684 C   0  0  0  0  0  0  0  0  0  0  0  0
   17.1469  -23.4021  -12.4986 O   0  0  0  0  0  0  0  0  0  0  0  0
   18.0691  -22.0649  -14.3050 C   0  0  0  0  0  0  0  0  0  0  0  0
   19.3294  -21.3200  -14.5771 C   0  0  0  0  0  0  0  0  0  0  0  0
   19.4328  -20.7309  -15.9650 C   0  0  2  0  0  0  0  0  0  0  0  0
   20.6899  -20.1351  -16.1619 N   0  0  0  0  0  0  0  0  0  0  0  0
   18.2060  -19.9344  -16.2398 C   0  0  0  0  0  0  0  0  0  0  0  0
   18.3614  -18.6466  -16.1783 O   0  0  0  0  0  0  0  0  0  0  0  0
   16.9473  -20.3917  -16.5550 O   0  0  0  0  0  0  0  0  0  0  0  0
  1  2  1  0
  2  3  2  0
  4  5  1  0
  4  2  1  0
  6  8  1  0
  6  5  1  0
  6  7  1  6
  8  9  2  0
 11 10  1  0
 12 11  1  6
 13 12  1  0
 13  8  1  0
 14 15  2  0
 14 12  1  0
 16 17  1  0
 17 19  1  0
 18 17  2  0
 19 20  1  0
 21 20  1  1
 21 22  1  0
 21 23  1  0
 22 14  1  0
 23 25  1  0
 24 23  2  0
M  END
$$$$
