QSQ.pdb
     RDKit          3D

 25 24  0  0  1  0  0  0  0  0999 V2000
   16.5150  -12.2975  -17.5760 N   0  0  0  0  0  0  0  0  0  0  0  0
   17.5431  -13.1492  -17.0963 C   0  0  0  0  0  0  0  0  0  0  0  0
   17.4069  -14.3536  -16.8544 O   0  0  0  0  0  0  0  0  0  0  0  0
   18.8896  -12.5494  -16.8657 C   0  0  0  0  0  0  0  0  0  0  0  0
   18.8691  -11.1044  -17.1885 C   0  0  0  0  0  0  0  0  0  0  0  0
   20.1731  -10.4129  -16.9354 C   0  0  2  0  0  0  0  0  0  0  0  0
   21.0177  -11.4510  -16.2286 N   0  0  0  0  0  0  0  0  0  0  0  0
   19.9209   -9.2711  -16.0066 C   0  0  0  0  0  0  0  0  0  0  0  0
   19.2598   -8.2730  -16.3562 O   0  0  0  0  0  0  0  0  0  0  0  0
   20.1006   -7.5045  -11.5237 O   0  0  0  0  0  0  0  0  0  0  0  0
   20.2232   -8.5786  -12.4111 C   0  0  0  0  0  0  0  0  0  0  0  0
   20.2421   -8.1280  -13.8347 C   0  0  2  0  0  0  0  0  0  0  0  0
   20.4411   -9.3087  -14.6722 N   0  0  0  0  0  0  0  0  0  0  0  0
   21.2508   -7.0890  -14.1797 C   0  0  0  0  0  0  0  0  0  0  0  0
   22.4281   -7.3804  -14.4244 O   0  0  0  0  0  0  0  0  0  0  0  0
   22.1490   -4.0628  -18.6181 N   0  0  0  0  0  0  0  0  0  0  0  0
   22.8099   -3.1085  -17.8211 C   0  0  0  0  0  0  0  0  0  0  0  0
   23.5228   -2.2346  -18.3810 O   0  0  0  0  0  0  0  0  0  0  0  0
   22.6227   -3.1980  -16.3404 C   0  0  0  0  0  0  0  0  0  0  0  0
   21.7810   -4.3679  -15.9659 C   0  0  0  0  0  0  0  0  0  0  0  0
   21.5627   -4.5445  -14.4810 C   0  0  2  0  0  0  0  0  0  0  0  0
   20.8484   -5.7257  -14.2187 N   0  0  0  0  0  0  0  0  0  0  0  0
   21.0673   -3.2610  -13.9136 C   0  0  0  0  0  0  0  0  0  0  0  0
   21.9437   -2.3036  -13.8724 O   0  0  0  0  0  0  0  0  0  0  0  0
   19.8083   -2.9685  -13.4421 O   0  0  0  0  0  0  0  0  0  0  0  0
  1  2  1  0
  2  3  2  0
  4  5  1  0
  4  2  1  0
  6  8  1  0
  6  5  1  0
  6  7  1  1
  8  9  2  0
 11 10  1  0
 12 11  1  1
 13 12  1  0
 13  8  1  0
 14 15  2  0
 14 12  1  0
 16 17  1  0
 17 19  1  0
 18 17  2  0
 19 20  1  0
 21 20  1  6
 21 22  1  0
 21 23  1  0
 22 14  1  0
 23 25  1  0
 24 23  2  0
M  END
$$$$
