QSQ.pdb
     RDKit          3D

 25 24  0  0  1  0  0  0  0  0999 V2000
   17.5815  -15.7113  -14.8237 N   0  0  0  0  0  0  0  0  0  0  0  0
   17.1447  -15.5940  -16.1682 C   0  0  0  0  0  0  0  0  0  0  0  0
   16.3701  -16.3763  -16.7299 O   0  0  0  0  0  0  0  0  0  0  0  0
   17.6570  -14.4420  -16.9660 C   0  0  0  0  0  0  0  0  0  0  0  0
   18.3993  -13.5039  -16.0933 C   0  0  0  0  0  0  0  0  0  0  0  0
   17.9188  -12.0885  -16.1853 C   0  0  2  0  0  0  0  0  0  0  0  0
   17.8850  -11.7991  -17.6704 N   0  0  0  0  0  0  0  0  0  0  0  0
   18.9372  -11.2092  -15.5376 C   0  0  0  0  0  0  0  0  0  0  0  0
   19.4709  -11.5109  -14.4514 O   0  0  0  0  0  0  0  0  0  0  0  0
   22.6626   -9.3030  -14.8716 O   0  0  0  0  0  0  0  0  0  0  0  0
   21.5800  -10.0249  -15.3846 C   0  0  0  0  0  0  0  0  0  0  0  0
   20.3550   -9.1803  -15.5116 C   0  0  2  0  0  0  0  0  0  0  0  0
   19.3271   -9.9839  -16.1695 N   0  0  0  0  0  0  0  0  0  0  0  0
   20.5220   -7.8879  -16.2310 C   0  0  0  0  0  0  0  0  0  0  0  0
   20.7585   -7.8440  -17.4447 O   0  0  0  0  0  0  0  0  0  0  0  0
   17.1952   -3.0507  -14.9790 N   0  0  0  0  0  0  0  0  0  0  0  0
   18.2162   -2.3380  -15.6365 C   0  0  0  0  0  0  0  0  0  0  0  0
   18.0461   -1.1147  -15.8808 O   0  0  0  0  0  0  0  0  0  0  0  0
   19.4523   -3.0915  -16.0103 C   0  0  0  0  0  0  0  0  0  0  0  0
   19.4100   -4.4933  -15.5099 C   0  0  0  0  0  0  0  0  0  0  0  0
   20.6132   -5.3336  -15.8705 C   0  0  2  0  0  0  0  0  0  0  0  0
   20.4155   -6.6739  -15.4982 N   0  0  0  0  0  0  0  0  0  0  0  0
   21.8426   -4.6315  -15.4120 C   0  0  0  0  0  0  0  0  0  0  0  0
   22.2098   -4.9029  -14.1963 O   0  0  0  0  0  0  0  0  0  0  0  0
   22.6304   -3.7486  -16.1140 O   0  0  0  0  0  0  0  0  0  0  0  0
  1  2  1  0
  2  3  2  0
  4  5  1  0
  4  2  1  0
  6  8  1  0
  6  5  1  0
  6  7  1  6
  8  9  2  0
 11 10  1  0
 12 11  1  6
 13 12  1  0
 13  8  1  0
 14 15  2  0
 14 12  1  0
 16 17  1  0
 17 19  1  0
 18 17  2  0
 19 20  1  0
 21 20  1  1
 21 22  1  0
 21 23  1  0
 22 14  1  0
 23 25  1  0
 24 23  2  0
M  END
$$$$
