QSQ.pdb
     RDKit          3D

 25 24  0  0  1  0  0  0  0  0999 V2000
   19.9680  -32.2359   -6.1707 N   0  0  0  0  0  0  0  0  0  0  0  0
   20.2342  -32.3130   -4.7794 C   0  0  0  0  0  0  0  0  0  0  0  0
   21.0082  -33.1194   -4.2521 O   0  0  0  0  0  0  0  0  0  0  0  0
   19.5286  -31.3506   -3.8838 C   0  0  0  0  0  0  0  0  0  0  0  0
   18.6449  -30.4658   -4.6769 C   0  0  0  0  0  0  0  0  0  0  0  0
   17.8335  -29.5225   -3.8435 C   0  0  2  0  0  0  0  0  0  0  0  0
   16.7476  -30.3899   -3.2442 N   0  0  0  0  0  0  0  0  0  0  0  0
   17.2105  -28.5163   -4.7541 C   0  0  0  0  0  0  0  0  0  0  0  0
   16.7547  -28.8336   -5.8708 O   0  0  0  0  0  0  0  0  0  0  0  0
   16.9983  -24.2841   -3.9175 O   0  0  0  0  0  0  0  0  0  0  0  0
   15.9955  -25.0489   -4.5224 C   0  0  0  0  0  0  0  0  0  0  0  0
   16.5578  -26.1922   -5.3013 C   0  0  2  0  0  0  0  0  0  0  0  0
   17.1215  -27.1453   -4.3479 N   0  0  0  0  0  0  0  0  0  0  0  0
   17.5761  -25.8460   -6.3304 C   0  0  0  0  0  0  0  0  0  0  0  0
   18.7390  -26.2629   -6.2617 O   0  0  0  0  0  0  0  0  0  0  0  0
   19.7236  -27.7666  -10.5462 N   0  0  0  0  0  0  0  0  0  0  0  0
   20.0605  -26.4972  -11.0543 C   0  0  0  0  0  0  0  0  0  0  0  0
   20.8932  -26.4182  -11.9953 O   0  0  0  0  0  0  0  0  0  0  0  0
   19.4009  -25.3084  -10.4323 C   0  0  0  0  0  0  0  0  0  0  0  0
   18.5398  -25.7006   -9.2825 C   0  0  0  0  0  0  0  0  0  0  0  0
   17.9129  -24.5465   -8.5350 C   0  0  2  0  0  0  0  0  0  0  0  0
   17.2006  -25.0058   -7.4143 N   0  0  0  0  0  0  0  0  0  0  0  0
   17.2258  -23.6592   -9.5125 C   0  0  0  0  0  0  0  0  0  0  0  0
   15.9559  -23.8857   -9.6625 O   0  0  0  0  0  0  0  0  0  0  0  0
   17.7647  -22.6370  -10.2592 O   0  0  0  0  0  0  0  0  0  0  0  0
  1  2  1  0
  2  3  2  0
  4  5  1  0
  4  2  1  0
  6  8  1  0
  6  5  1  0
  6  7  1  6
  8  9  2  0
 11 10  1  0
 12 11  1  1
 13 12  1  0
 13  8  1  0
 14 15  2  0
 14 12  1  0
 16 17  1  0
 17 19  1  0
 18 17  2  0
 19 20  1  0
 21 20  1  6
 21 22  1  0
 21 23  1  0
 22 14  1  0
 23 25  1  0
 24 23  2  0
M  END
$$$$
