QSQ.pdb
     RDKit          3D

 25 24  0  0  1  0  0  0  0  0999 V2000
   15.2565   -8.5120  -17.9175 N   0  0  0  0  0  0  0  0  0  0  0  0
   14.7729   -9.6416  -17.2086 C   0  0  0  0  0  0  0  0  0  0  0  0
   13.5795   -9.8887  -17.0032 O   0  0  0  0  0  0  0  0  0  0  0  0
   15.7772  -10.6043  -16.6695 C   0  0  0  0  0  0  0  0  0  0  0  0
   17.1441  -10.1933  -17.0635 C   0  0  0  0  0  0  0  0  0  0  0  0
   18.2149  -11.1194  -16.5752 C   0  0  2  0  0  0  0  0  0  0  0  0
   17.4690  -12.1719  -15.7837 N   0  0  0  0  0  0  0  0  0  0  0  0
   19.1068  -10.3539  -15.6542 C   0  0  0  0  0  0  0  0  0  0  0  0
   18.7590  -10.0649  -14.4918 O   0  0  0  0  0  0  0  0  0  0  0  0
   23.5388   -8.6624  -14.7477 O   0  0  0  0  0  0  0  0  0  0  0  0
   22.6612   -9.3846  -15.5629 C   0  0  0  0  0  0  0  0  0  0  0  0
   21.2369   -9.1957  -15.1559 C   0  0  2  0  0  0  0  0  0  0  0  0
   20.4027   -9.9361  -16.0998 N   0  0  0  0  0  0  0  0  0  0  0  0
   20.7638   -7.7874  -15.0616 C   0  0  0  0  0  0  0  0  0  0  0  0
   20.4061   -7.1524  -16.0614 O   0  0  0  0  0  0  0  0  0  0  0  0
   17.9793   -5.7302  -10.0182 N   0  0  0  0  0  0  0  0  0  0  0  0
   18.2157   -4.4723  -10.6053 C   0  0  0  0  0  0  0  0  0  0  0  0
   17.7148   -3.4470  -10.0733 O   0  0  0  0  0  0  0  0  0  0  0  0
   19.0552   -4.4354  -11.8420 C   0  0  0  0  0  0  0  0  0  0  0  0
   19.5697   -5.7878  -12.1935 C   0  0  0  0  0  0  0  0  0  0  0  0
   20.4721   -5.8295  -13.4051 C   0  0  2  0  0  0  0  0  0  0  0  0
   20.7327   -7.1561  -13.7878 N   0  0  0  0  0  0  0  0  0  0  0  0
   21.6168   -4.9051  -13.1818 C   0  0  0  0  0  0  0  0  0  0  0  0
   22.6224   -5.4198  -12.5413 O   0  0  0  0  0  0  0  0  0  0  0  0
   21.7394   -3.5921  -13.5743 O   0  0  0  0  0  0  0  0  0  0  0  0
  1  2  1  0
  2  3  2  0
  4  5  1  0
  4  2  1  0
  6  8  1  0
  6  5  1  0
  6  7  1  1
  8  9  2  0
 11 10  1  0
 12 11  1  6
 13 12  1  0
 13  8  1  0
 14 15  2  0
 14 12  1  0
 16 17  1  0
 17 19  1  0
 18 17  2  0
 19 20  1  0
 21 20  1  1
 21 22  1  0
 21 23  1  0
 22 14  1  0
 23 25  1  0
 24 23  2  0
M  END
$$$$
