QSQ.pdb
     RDKit          3D

 25 24  0  0  1  0  0  0  0  0999 V2000
   28.8644  -17.9447  -17.8070 N   0  0  0  0  0  0  0  0  0  0  0  0
   27.8895  -17.5412  -16.8588 C   0  0  0  0  0  0  0  0  0  0  0  0
   26.8233  -16.9814  -17.1367 O   0  0  0  0  0  0  0  0  0  0  0  0
   28.1694  -17.8113  -15.4184 C   0  0  0  0  0  0  0  0  0  0  0  0
   27.1449  -18.7225  -14.8591 C   0  0  0  0  0  0  0  0  0  0  0  0
   27.6977  -20.0317  -14.3869 C   0  0  2  0  0  0  0  0  0  0  0  0
   28.0466  -20.7729  -15.6594 N   0  0  0  0  0  0  0  0  0  0  0  0
   26.6096  -20.7656  -13.6747 C   0  0  0  0  0  0  0  0  0  0  0  0
   25.7814  -21.4692  -14.2868 O   0  0  0  0  0  0  0  0  0  0  0  0
   25.6483  -19.9752   -9.5848 O   0  0  0  0  0  0  0  0  0  0  0  0
   25.5080  -21.2441  -10.1561 C   0  0  0  0  0  0  0  0  0  0  0  0
   25.2755  -21.1710  -11.6294 C   0  0  2  0  0  0  0  0  0  0  0  0
   26.5021  -20.6742  -12.2490 N   0  0  0  0  0  0  0  0  0  0  0  0
   24.1178  -20.3455  -12.0699 C   0  0  0  0  0  0  0  0  0  0  0  0
   24.1447  -19.1094  -12.0243 O   0  0  0  0  0  0  0  0  0  0  0  0
   21.6571  -19.7068  -17.0695 N   0  0  0  0  0  0  0  0  0  0  0  0
   20.4811  -19.3294  -16.3932 C   0  0  0  0  0  0  0  0  0  0  0  0
   19.5389  -18.8133  -17.0498 O   0  0  0  0  0  0  0  0  0  0  0  0
   20.4279  -19.5661  -14.9179 C   0  0  0  0  0  0  0  0  0  0  0  0
   21.6701  -20.2228  -14.4249 C   0  0  0  0  0  0  0  0  0  0  0  0
   21.6932  -20.5062  -12.9406 C   0  0  2  0  0  0  0  0  0  0  0  0
   22.9483  -20.9994  -12.5462 N   0  0  0  0  0  0  0  0  0  0  0  0
   20.4706  -21.2745  -12.5805 C   0  0  0  0  0  0  0  0  0  0  0  0
   20.6033  -22.5660  -12.6135 O   0  0  0  0  0  0  0  0  0  0  0  0
   19.2370  -20.7881  -12.2138 O   0  0  0  0  0  0  0  0  0  0  0  0
  1  2  1  0
  2  3  2  0
  4  5  1  0
  4  2  1  0
  6  8  1  0
  6  5  1  0
  6  7  1  6
  8  9  2  0
 11 10  1  0
 12 11  1  1
 13 12  1  0
 13  8  1  0
 14 15  2  0
 14 12  1  0
 16 17  1  0
 17 19  1  0
 18 17  2  0
 19 20  1  0
 21 20  1  6
 21 22  1  0
 21 23  1  0
 22 14  1  0
 23 25  1  0
 24 23  2  0
M  END
$$$$
