QSQ.pdb
     RDKit          3D

 25 24  0  0  1  0  0  0  0  0999 V2000
   28.3672  -22.5002  -19.0088 N   0  0  0  0  0  0  0  0  0  0  0  0
   29.1870  -21.3544  -18.8423 C   0  0  0  0  0  0  0  0  0  0  0  0
   30.0667  -20.9947  -19.6323 O   0  0  0  0  0  0  0  0  0  0  0  0
   28.9737  -20.5201  -17.6239 C   0  0  0  0  0  0  0  0  0  0  0  0
   27.8245  -21.0349  -16.8448 C   0  0  0  0  0  0  0  0  0  0  0  0
   28.2108  -21.6351  -15.5283 C   0  0  2  0  0  0  0  0  0  0  0  0
   28.8514  -22.9572  -15.8918 N   0  0  0  0  0  0  0  0  0  0  0  0
   26.9621  -21.8926  -14.7509 C   0  0  0  0  0  0  0  0  0  0  0  0
   26.1401  -22.7643  -15.0973 O   0  0  0  0  0  0  0  0  0  0  0  0
   26.0501  -20.5713  -10.6363 O   0  0  0  0  0  0  0  0  0  0  0  0
   25.9727  -21.7534  -11.3799 C   0  0  0  0  0  0  0  0  0  0  0  0
   25.5161  -21.5041  -12.7797 C   0  0  2  0  0  0  0  0  0  0  0  0
   26.6873  -21.1301  -13.5695 N   0  0  0  0  0  0  0  0  0  0  0  0
   24.4470  -20.4821  -12.9480 C   0  0  0  0  0  0  0  0  0  0  0  0
   24.7113  -19.2914  -13.1556 O   0  0  0  0  0  0  0  0  0  0  0  0
   22.3893  -18.1500  -16.5286 N   0  0  0  0  0  0  0  0  0  0  0  0
   21.0311  -18.2117  -16.1621 C   0  0  0  0  0  0  0  0  0  0  0  0
   20.2226  -17.3955  -16.6774 O   0  0  0  0  0  0  0  0  0  0  0  0
   20.6318  -19.2548  -15.1682 C   0  0  0  0  0  0  0  0  0  0  0  0
   21.8053  -20.0461  -14.7054 C   0  0  0  0  0  0  0  0  0  0  0  0
   21.8904  -20.2412  -13.2093 C   0  0  2  0  0  0  0  0  0  0  0  0
   23.0871  -20.8879  -12.8576 N   0  0  0  0  0  0  0  0  0  0  0  0
   20.5991  -20.8002  -12.7249 C   0  0  0  0  0  0  0  0  0  0  0  0
   20.5283  -22.0970  -12.7210 O   0  0  0  0  0  0  0  0  0  0  0  0
   19.4903  -20.1184  -12.2791 O   0  0  0  0  0  0  0  0  0  0  0  0
  1  2  1  0
  2  3  2  0
  4  5  1  0
  4  2  1  0
  6  8  1  0
  6  5  1  0
  6  7  1  6
  8  9  2  0
 11 10  1  0
 12 11  1  1
 13 12  1  0
 13  8  1  0
 14 15  2  0
 14 12  1  0
 16 17  1  0
 17 19  1  0
 18 17  2  0
 19 20  1  0
 21 20  1  6
 21 22  1  0
 21 23  1  0
 22 14  1  0
 23 25  1  0
 24 23  2  0
M  END
$$$$
