QSQ.pdb
     RDKit          3D

 25 24  0  0  1  0  0  0  0  0999 V2000
   27.3896  -11.4196  -16.1470 N   0  0  0  0  0  0  0  0  0  0  0  0
   27.3963  -12.8057  -15.8453 C   0  0  0  0  0  0  0  0  0  0  0  0
   28.3720  -13.4299  -15.4142 O   0  0  0  0  0  0  0  0  0  0  0  0
   26.1332  -13.5693  -16.0639 C   0  0  0  0  0  0  0  0  0  0  0  0
   25.0481  -12.6549  -16.4870 C   0  0  0  0  0  0  0  0  0  0  0  0
   23.6923  -13.0646  -16.0007 C   0  0  2  0  0  0  0  0  0  0  0  0
   23.3923  -14.3413  -16.7561 N   0  0  0  0  0  0  0  0  0  0  0  0
   22.7147  -12.0122  -16.4088 C   0  0  0  0  0  0  0  0  0  0  0  0
   22.0863  -12.0801  -17.4840 O   0  0  0  0  0  0  0  0  0  0  0  0
   19.0283   -9.9923  -16.3120 O   0  0  0  0  0  0  0  0  0  0  0  0
   20.1529  -10.7926  -16.0863 C   0  0  0  0  0  0  0  0  0  0  0  0
   21.3930   -9.9784  -15.9151 C   0  0  2  0  0  0  0  0  0  0  0  0
   22.4763  -10.8892  -15.5517 N   0  0  0  0  0  0  0  0  0  0  0  0
   21.3159   -8.8670  -14.9278 C   0  0  0  0  0  0  0  0  0  0  0  0
   21.4701   -9.0610  -13.7156 O   0  0  0  0  0  0  0  0  0  0  0  0
   23.5309   -3.4626  -16.3287 N   0  0  0  0  0  0  0  0  0  0  0  0
   22.8514   -3.0425  -15.1691 C   0  0  0  0  0  0  0  0  0  0  0  0
   23.0996   -1.9023  -14.6961 O   0  0  0  0  0  0  0  0  0  0  0  0
   21.8679   -3.9922  -14.5641 C   0  0  0  0  0  0  0  0  0  0  0  0
   21.8128   -5.2753  -15.3176 C   0  0  0  0  0  0  0  0  0  0  0  0
   20.9086   -6.3269  -14.7172 C   0  0  2  0  0  0  0  0  0  0  0  0
   21.0483   -7.5504  -15.3937 N   0  0  0  0  0  0  0  0  0  0  0  0
   19.5482   -5.7481  -14.5467 C   0  0  0  0  0  0  0  0  0  0  0  0
   19.4097   -4.9619  -13.5224 O   0  0  0  0  0  0  0  0  0  0  0  0
   18.4379   -5.9365  -15.3371 O   0  0  0  0  0  0  0  0  0  0  0  0
  1  2  1  0
  2  3  2  0
  4  5  1  0
  4  2  1  0
  6  8  1  0
  6  5  1  0
  6  7  1  6
  8  9  2  0
 11 10  1  0
 12 11  1  1
 13 12  1  0
 13  8  1  0
 14 15  2  0
 14 12  1  0
 16 17  1  0
 17 19  1  0
 18 17  2  0
 19 20  1  0
 21 20  1  6
 21 22  1  0
 21 23  1  0
 22 14  1  0
 23 25  1  0
 24 23  2  0
M  END
$$$$
