QSQ.pdb
     RDKit          3D

 25 24  0  0  1  0  0  0  0  0999 V2000
   18.0093  -28.9638   -6.5231 N   0  0  0  0  0  0  0  0  0  0  0  0
   17.6518  -28.7223   -7.8746 C   0  0  0  0  0  0  0  0  0  0  0  0
   17.5809  -29.5897   -8.7521 O   0  0  0  0  0  0  0  0  0  0  0  0
   17.3379  -27.3180   -8.2687 C   0  0  0  0  0  0  0  0  0  0  0  0
   17.4515  -26.4192   -7.0974 C   0  0  0  0  0  0  0  0  0  0  0  0
   17.2975  -24.9684   -7.4352 C   0  0  2  0  0  0  0  0  0  0  0  0
   18.6928  -24.5209   -7.8139 N   0  0  0  0  0  0  0  0  0  0  0  0
   16.8695  -24.2467   -6.2000 C   0  0  0  0  0  0  0  0  0  0  0  0
   17.6949  -23.7233   -5.4252 O   0  0  0  0  0  0  0  0  0  0  0  0
   12.9607  -22.9588   -5.6374 O   0  0  0  0  0  0  0  0  0  0  0  0
   14.0935  -22.3786   -5.0574 C   0  0  0  0  0  0  0  0  0  0  0  0
   15.1120  -23.4017   -4.6755 C   0  0  2  0  0  0  0  0  0  0  0  0
   15.4764  -24.1388   -5.8834 N   0  0  0  0  0  0  0  0  0  0  0  0
   14.7131  -24.3550   -3.6040 C   0  0  0  0  0  0  0  0  0  0  0  0
   14.1510  -25.4266   -3.8620 O   0  0  0  0  0  0  0  0  0  0  0  0
   17.1044  -23.3512    2.0948 N   0  0  0  0  0  0  0  0  0  0  0  0
   16.1896  -24.3599    2.4533 C   0  0  0  0  0  0  0  0  0  0  0  0
   16.1544  -24.7547    3.6484 O   0  0  0  0  0  0  0  0  0  0  0  0
   15.3092  -24.9069    1.3759 C   0  0  0  0  0  0  0  0  0  0  0  0
   15.5456  -24.2202    0.0759 C   0  0  0  0  0  0  0  0  0  0  0  0
   14.6134  -24.6326   -1.0397 C   0  0  2  0  0  0  0  0  0  0  0  0
   14.9787  -24.0167   -2.2486 N   0  0  0  0  0  0  0  0  0  0  0  0
   13.2096  -24.5077   -0.5618 C   0  0  0  0  0  0  0  0  0  0  0  0
   12.8408  -25.4049    0.3016 O   0  0  0  0  0  0  0  0  0  0  0  0
   12.2716  -23.5645   -0.9133 O   0  0  0  0  0  0  0  0  0  0  0  0
  1  2  1  0
  2  3  2  0
  4  5  1  0
  4  2  1  0
  6  8  1  0
  6  5  1  0
  6  7  1  1
  8  9  2  0
 11 10  1  0
 12 11  1  6
 13 12  1  0
 13  8  1  0
 14 15  2  0
 14 12  1  0
 16 17  1  0
 17 19  1  0
 18 17  2  0
 19 20  1  0
 21 20  1  1
 21 22  1  0
 21 23  1  0
 22 14  1  0
 23 25  1  0
 24 23  2  0
M  END
$$$$
