QSQ.pdb
     RDKit          3D

 25 24  0  0  1  0  0  0  0  0999 V2000
   15.3751  -12.6607  -12.5418 N   0  0  0  0  0  0  0  0  0  0  0  0
   14.3936  -13.4789  -11.9256 C   0  0  0  0  0  0  0  0  0  0  0  0
   14.4126  -14.7146  -11.9104 O   0  0  0  0  0  0  0  0  0  0  0  0
   13.2526  -12.8001  -11.2449 C   0  0  0  0  0  0  0  0  0  0  0  0
   13.4308  -11.3308  -11.2878 C   0  0  0  0  0  0  0  0  0  0  0  0
   13.4906  -10.6923   -9.9345 C   0  0  2  0  0  0  0  0  0  0  0  0
   12.0481  -10.6410   -9.4794 N   0  0  0  0  0  0  0  0  0  0  0  0
   14.0022   -9.2992  -10.1003 C   0  0  0  0  0  0  0  0  0  0  0  0
   13.6157   -8.5633  -11.0301 O   0  0  0  0  0  0  0  0  0  0  0  0
   15.6267   -5.3314   -8.2087 O   0  0  0  0  0  0  0  0  0  0  0  0
   15.0334   -6.5979   -8.2005 C   0  0  0  0  0  0  0  0  0  0  0  0
   15.4349   -7.4108   -9.3871 C   0  0  2  0  0  0  0  0  0  0  0  0
   14.9600   -8.7759   -9.1722 N   0  0  0  0  0  0  0  0  0  0  0  0
   16.8882   -7.4271   -9.7087 C   0  0  0  0  0  0  0  0  0  0  0  0
   17.7415   -7.6922   -8.8529 O   0  0  0  0  0  0  0  0  0  0  0  0
   19.5192   -9.6998  -14.5317 N   0  0  0  0  0  0  0  0  0  0  0  0
   20.5280   -8.7461  -14.2966 C   0  0  0  0  0  0  0  0  0  0  0  0
   21.6006   -8.8185  -14.9520 O   0  0  0  0  0  0  0  0  0  0  0  0
   20.2580   -7.6963  -13.2668 C   0  0  0  0  0  0  0  0  0  0  0  0
   18.9229   -7.8823  -12.6342 C   0  0  0  0  0  0  0  0  0  0  0  0
   18.5693   -6.8564  -11.5824 C   0  0  2  0  0  0  0  0  0  0  0  0
   17.3030   -7.1201  -11.0338 N   0  0  0  0  0  0  0  0  0  0  0  0
   18.8528   -5.4990  -12.1228 C   0  0  0  0  0  0  0  0  0  0  0  0
   20.1102   -5.2335  -12.3102 O   0  0  0  0  0  0  0  0  0  0  0  0
   17.9555   -4.5091  -12.4510 O   0  0  0  0  0  0  0  0  0  0  0  0
  1  2  1  0
  2  3  2  0
  4  5  1  0
  4  2  1  0
  6  8  1  0
  6  5  1  0
  6  7  1  6
  8  9  2  0
 11 10  1  0
 12 11  1  1
 13 12  1  0
 13  8  1  0
 14 15  2  0
 14 12  1  0
 16 17  1  0
 17 19  1  0
 18 17  2  0
 19 20  1  0
 21 20  1  6
 21 22  1  0
 21 23  1  0
 22 14  1  0
 23 25  1  0
 24 23  2  0
M  END
$$$$
