RHM.pdb
     RDKit          3D

 30 30  0  0  1  0  0  0  0  0999 V2000
    9.6246  -12.6177   18.8012 N   0  0  0  0  0  0  0  0  0  0  0  0
    8.8787  -13.3027   17.8021 C   0  0  0  0  0  0  0  0  0  0  0  0
    8.9189  -12.8304   16.5987 N   0  0  0  0  0  0  0  0  0  0  0  0
    8.1121  -14.4623   18.1022 N   0  0  0  0  0  0  0  0  0  0  0  0
    7.9586  -14.8953   19.4486 C   0  0  0  0  0  0  0  0  0  0  0  0
    7.1173  -16.1057   19.6597 C   0  0  0  0  0  0  0  0  0  0  0  0
    6.8825  -16.4750   21.0912 C   0  0  0  0  0  0  0  0  0  0  0  0
    7.4200  -17.8811   21.3246 C   0  0  2  0  0  0  0  0  0  0  0  0
    6.4120  -18.8277   21.1397 N   0  0  0  0  0  0  0  0  0  0  0  0
    8.0652  -18.0305   22.6442 C   0  0  0  0  0  0  0  0  0  0  0  0
    7.3857  -18.0263   23.6905 O   0  0  0  0  0  0  0  0  0  0  0  0
    8.3667  -13.2102   15.8022 N   0  0  0  0  0  0  0  0  0  0  0  0
    9.4685  -18.1793   22.7210 C   0  0  2  0  0  0  0  0  0  0  0  0
   10.2178  -18.1903   23.9619 C   0  0  0  0  0  0  0  0  0  0  0  0
   11.6118  -18.6363   23.7195 C   0  0  0  0  0  0  0  0  0  0  0  0
   12.4769  -18.6896   24.9130 C   0  0  0  0  0  0  0  0  0  0  0  0
   12.3305  -19.6376   25.8931 N   0  0  0  0  0  0  0  0  0  0  0  0
   13.2627  -19.4097   26.8231 C   0  0  0  0  0  0  0  0  0  0  0  0
   13.9696  -18.3428   26.4239 N   0  0  0  0  0  0  0  0  0  0  0  0
   13.4926  -17.8987   25.2560 C   0  0  0  0  0  0  0  0  0  0  0  0
   10.0953  -16.8999   24.6857 O   0  0  0  0  0  0  0  0  0  0  0  0
   10.2693  -15.8237   24.0629 C   0  0  0  0  0  0  0  0  0  0  0  0
    6.1605  -11.5504   28.1965 S   0  0  0  0  0  0  0  0  0  0  0  0
    6.4208  -13.0213   27.2281 C   0  0  0  0  0  0  0  0  0  0  0  0
    7.8736  -13.9567   27.6576 C   0  0  0  0  0  0  0  0  0  0  0  0
    8.1646  -15.1543   26.8361 C   0  0  1  0  0  0  0  0  0  0  0  0
    9.5948  -15.5946   26.8095 N   0  0  0  0  0  0  0  0  0  0  0  0
    9.7848  -16.8312   26.0762 C   0  0  0  0  0  0  0  0  0  0  0  0
   10.2099  -15.7786   28.1430 O   0  0  0  0  0  0  0  0  0  0  0  0
   10.7570  -14.7561   28.9046 O   0  0  0  0  0  0  0  0  0  0  0  0
  2  4  1  0
  2  1  1  0
  3  2  2  0
  5  4  1  0
  6  5  1  0
  7  6  1  0
  8  7  1  0
  8  9  1  1
 10  8  1  0
 10 11  2  0
 12 10  1  0
 13 12  1  0
 13 14  1  6
 15 16  2  0
 15 14  1  0
 17 16  1  0
 18 19  2  0
 18 17  1  0
 19 15  1  0
 20 13  1  0
 21 20  2  0
 23 22  1  0
 23 24  1  0
 24 25  1  0
 26 25  1  6
 26 27  1  0
 27 20  1  0
 28 26  1  0
 28 29  1  0
 30 28  2  0
M  END
$$$$
