RHM.pdb
     RDKit          3D

 30 30  0  0  1  0  0  0  0  0999 V2000
    8.2587  -12.5791   17.0139 N   0  0  0  0  0  0  0  0  0  0  0  0
    8.1026  -12.9345   18.3824 C   0  0  0  0  0  0  0  0  0  0  0  0
    8.2035  -11.9893   19.2595 N   0  0  0  0  0  0  0  0  0  0  0  0
    7.8476  -14.2745   18.7845 N   0  0  0  0  0  0  0  0  0  0  0  0
    7.4354  -15.2462   17.8307 C   0  0  0  0  0  0  0  0  0  0  0  0
    7.0815  -16.5889   18.3688 C   0  0  0  0  0  0  0  0  0  0  0  0
    6.9121  -16.6539   19.8546 C   0  0  0  0  0  0  0  0  0  0  0  0
    6.6566  -18.1022   20.2515 C   0  0  2  0  0  0  0  0  0  0  0  0
    5.6289  -18.6472   19.4813 N   0  0  0  0  0  0  0  0  0  0  0  0
    6.3891  -18.2565   21.6953 C   0  0  0  0  0  0  0  0  0  0  0  0
    5.2514  -18.0409   22.1597 O   0  0  0  0  0  0  0  0  0  0  0  0
    8.1563  -12.1384   20.2887 N   0  0  0  0  0  0  0  0  0  0  0  0
    7.4349  -18.6525   22.5595 C   0  0  1  0  0  0  0  0  0  0  0  0
    7.3416  -18.6420   24.0061 C   0  0  0  0  0  0  0  0  0  0  0  0
    7.6396  -19.9886   24.5526 C   0  0  0  0  0  0  0  0  0  0  0  0
    7.6685  -20.0833   26.0243 C   0  0  0  0  0  0  0  0  0  0  0  0
    8.7284  -20.6164   26.7122 N   0  0  0  0  0  0  0  0  0  0  0  0
    8.4418  -20.5524   28.0159 C   0  0  0  0  0  0  0  0  0  0  0  0
    7.2296  -19.9910   28.1291 N   0  0  0  0  0  0  0  0  0  0  0  0
    6.7525  -19.7023   26.9134 C   0  0  0  0  0  0  0  0  0  0  0  0
    8.1422  -17.5403   24.5973 O   0  0  0  0  0  0  0  0  0  0  0  0
    9.2580  -17.2518   24.0992 C   0  0  0  0  0  0  0  0  0  0  0  0
    6.6524  -10.5792   26.4570 S   0  0  0  0  0  0  0  0  0  0  0  0
    6.4484  -12.2441   27.0532 C   0  0  0  0  0  0  0  0  0  0  0  0
    7.7496  -13.3705   26.5972 C   0  0  0  0  0  0  0  0  0  0  0  0
    7.6382  -14.7593   27.0997 C   0  0  2  0  0  0  0  0  0  0  0  0
    8.4817  -15.7765   26.3968 N   0  0  0  0  0  0  0  0  0  0  0  0
    7.6910  -16.7873   25.7216 C   0  0  0  0  0  0  0  0  0  0  0  0
    9.4475  -16.4856   27.2656 O   0  0  0  0  0  0  0  0  0  0  0  0
   10.6763  -15.9739   27.6571 O   0  0  0  0  0  0  0  0  0  0  0  0
  2  4  1  0
  2  1  1  0
  3  2  2  0
  5  4  1  0
  6  5  1  0
  7  6  1  0
  8  7  1  0
  8  9  1  6
 10  8  1  0
 10 11  2  0
 12 10  1  0
 13 12  1  0
 13 14  1  1
 15 16  2  0
 15 14  1  0
 17 16  1  0
 18 19  2  0
 18 17  1  0
 19 15  1  0
 20 13  1  0
 21 20  2  0
 23 22  1  0
 23 24  1  0
 24 25  1  0
 26 25  1  6
 26 27  1  0
 27 20  1  0
 28 26  1  0
 28 29  1  0
 30 28  2  0
M  END
$$$$
