RHM.pdb
     RDKit          3D

 30 30  0  0  1  0  0  0  0  0999 V2000
    8.4506  -11.8050   17.9800 N   0  0  0  0  0  0  0  0  0  0  0  0
    7.9826  -12.9553   17.2861 C   0  0  0  0  0  0  0  0  0  0  0  0
    8.2251  -13.0266   16.0176 N   0  0  0  0  0  0  0  0  0  0  0  0
    7.2720  -13.9933   17.9494 N   0  0  0  0  0  0  0  0  0  0  0  0
    7.4184  -14.1839   19.3515 C   0  0  0  0  0  0  0  0  0  0  0  0
    7.9293  -15.5134   19.7861 C   0  0  0  0  0  0  0  0  0  0  0  0
    8.0324  -15.7016   21.2675 C   0  0  0  0  0  0  0  0  0  0  0  0
    8.4477  -17.1404   21.5466 C   0  0  2  0  0  0  0  0  0  0  0  0
    7.4811  -18.0293   21.0757 N   0  0  0  0  0  0  0  0  0  0  0  0
    8.7504  -17.3776   22.9721 C   0  0  0  0  0  0  0  0  0  0  0  0
    7.8351  -17.6027   23.7895 O   0  0  0  0  0  0  0  0  0  0  0  0
    7.9080  -13.8054   15.4040 N   0  0  0  0  0  0  0  0  0  0  0  0
   10.0925  -17.3484   23.4139 C   0  0  2  0  0  0  0  0  0  0  0  0
   10.4985  -17.5379   24.7926 C   0  0  0  0  0  0  0  0  0  0  0  0
   11.6891  -18.4200   24.8637 C   0  0  0  0  0  0  0  0  0  0  0  0
   11.4363  -19.8487   24.5978 C   0  0  0  0  0  0  0  0  0  0  0  0
   10.1768  -20.3547   24.4018 N   0  0  0  0  0  0  0  0  0  0  0  0
   10.2943  -21.6683   24.1860 C   0  0  0  0  0  0  0  0  0  0  0  0
   11.6002  -21.9657   24.2476 N   0  0  0  0  0  0  0  0  0  0  0  0
   12.3028  -20.8558   24.4994 C   0  0  0  0  0  0  0  0  0  0  0  0
   10.6419  -16.2422   25.5030 O   0  0  0  0  0  0  0  0  0  0  0  0
   11.3274  -15.3266   24.9851 C   0  0  0  0  0  0  0  0  0  0  0  0
    5.9383  -11.9184   25.8333 S   0  0  0  0  0  0  0  0  0  0  0  0
    6.7103  -12.7842   27.1836 C   0  0  0  0  0  0  0  0  0  0  0  0
    8.3324  -13.4295   26.8336 C   0  0  0  0  0  0  0  0  0  0  0  0
    9.0482  -14.0823   27.9539 C   0  0  2  0  0  0  0  0  0  0  0  0
   10.2936  -14.8266   27.5861 N   0  0  0  0  0  0  0  0  0  0  0  0
   10.0260  -15.9914   26.7649 C   0  0  0  0  0  0  0  0  0  0  0  0
   11.1051  -15.2809   28.7374 O   0  0  0  0  0  0  0  0  0  0  0  0
   11.8141  -14.4381   29.5813 O   0  0  0  0  0  0  0  0  0  0  0  0
  2  4  1  0
  2  1  1  0
  3  2  2  0
  5  4  1  0
  6  5  1  0
  7  6  1  0
  8  7  1  0
  8  9  1  1
 10  8  1  0
 10 11  2  0
 12 10  1  0
 13 12  1  0
 13 14  1  6
 15 16  2  0
 15 14  1  0
 17 16  1  0
 18 19  2  0
 18 17  1  0
 19 15  1  0
 20 13  1  0
 21 20  2  0
 23 22  1  0
 23 24  1  0
 24 25  1  0
 26 25  1  6
 26 27  1  0
 27 20  1  0
 28 26  1  0
 28 29  1  0
 30 28  2  0
M  END
$$$$
