RHM.pdb
     RDKit          3D

 30 30  0  0  1  0  0  0  0  0999 V2000
    8.9345  -15.4930   15.2070 N   0  0  0  0  0  0  0  0  0  0  0  0
    8.2442  -14.3841   14.6436 C   0  0  0  0  0  0  0  0  0  0  0  0
    7.8107  -14.5047   13.4310 N   0  0  0  0  0  0  0  0  0  0  0  0
    8.0342  -13.1821   15.3740 N   0  0  0  0  0  0  0  0  0  0  0  0
    8.2543  -13.1457   16.7790 C   0  0  0  0  0  0  0  0  0  0  0  0
    7.6357  -14.2442   17.5716 C   0  0  0  0  0  0  0  0  0  0  0  0
    7.4028  -13.9321   19.0169 C   0  0  0  0  0  0  0  0  0  0  0  0
    8.7156  -14.1076   19.7695 C   0  0  2  0  0  0  0  0  0  0  0  0
    9.7049  -14.6030   18.9196 N   0  0  0  0  0  0  0  0  0  0  0  0
    8.5707  -14.9465   20.9758 C   0  0  0  0  0  0  0  0  0  0  0  0
    7.6377  -14.7506   21.7805 O   0  0  0  0  0  0  0  0  0  0  0  0
    7.4133  -13.7223   12.8709 N   0  0  0  0  0  0  0  0  0  0  0  0
    9.5007  -15.9821   21.2202 C   0  0  1  0  0  0  0  0  0  0  0  0
    9.4129  -16.9073   22.3328 C   0  0  0  0  0  0  0  0  0  0  0  0
   10.2489  -18.1055   22.0754 C   0  0  0  0  0  0  0  0  0  0  0  0
   10.2299  -19.1313   23.1351 C   0  0  0  0  0  0  0  0  0  0  0  0
    9.0677  -19.6733   23.6215 N   0  0  0  0  0  0  0  0  0  0  0  0
    9.3959  -20.5646   24.5615 C   0  0  0  0  0  0  0  0  0  0  0  0
   10.7334  -20.5719   24.6525 N   0  0  0  0  0  0  0  0  0  0  0  0
   11.2481  -19.6966   23.7819 C   0  0  0  0  0  0  0  0  0  0  0  0
    9.6779  -16.2313   23.6278 O   0  0  0  0  0  0  0  0  0  0  0  0
   10.6782  -15.4808   23.7392 C   0  0  0  0  0  0  0  0  0  0  0  0
    6.3497  -11.0017   26.2723 S   0  0  0  0  0  0  0  0  0  0  0  0
    6.3850  -12.7162   26.7500 C   0  0  0  0  0  0  0  0  0  0  0  0
    7.7890  -13.6341   26.1532 C   0  0  0  0  0  0  0  0  0  0  0  0
    7.8944  -15.0480   26.5815 C   0  0  2  0  0  0  0  0  0  0  0  0
    9.0791  -15.8002   26.0609 N   0  0  0  0  0  0  0  0  0  0  0  0
    8.8332  -16.4016   24.7645 C   0  0  0  0  0  0  0  0  0  0  0  0
    9.5714  -16.8729   26.9538 O   0  0  0  0  0  0  0  0  0  0  0  0
   10.4781  -16.6824   27.9865 O   0  0  0  0  0  0  0  0  0  0  0  0
  2  4  1  0
  2  1  1  0
  3  2  2  0
  5  4  1  0
  6  5  1  0
  7  6  1  0
  8  7  1  0
  8  9  1  6
 10  8  1  0
 10 11  2  0
 12 10  1  0
 13 12  1  0
 13 14  1  1
 15 16  2  0
 15 14  1  0
 17 16  1  0
 18 19  2  0
 18 17  1  0
 19 15  1  0
 20 13  1  0
 21 20  2  0
 23 22  1  0
 23 24  1  0
 24 25  1  0
 26 25  1  6
 26 27  1  0
 27 20  1  0
 28 26  1  0
 28 29  1  0
 30 28  2  0
M  END
$$$$
