RHM.pdb
     RDKit          3D

 30 30  0  0  1  0  0  0  0  0999 V2000
   14.0146  -19.5466   16.4090 N   0  0  0  0  0  0  0  0  0  0  0  0
   13.9639  -20.6364   17.3220 C   0  0  0  0  0  0  0  0  0  0  0  0
   14.2208  -21.8160   16.8578 N   0  0  0  0  0  0  0  0  0  0  0  0
   13.6421  -20.4500   18.6946 N   0  0  0  0  0  0  0  0  0  0  0  0
   13.2129  -19.1787   19.1672 C   0  0  0  0  0  0  0  0  0  0  0  0
   11.8644  -18.7309   18.7217 C   0  0  0  0  0  0  0  0  0  0  0  0
   11.4637  -17.3644   19.1829 C   0  0  0  0  0  0  0  0  0  0  0  0
   10.8656  -17.4789   20.5792 C   0  0  2  0  0  0  0  0  0  0  0  0
    9.6737  -18.2031   20.5435 N   0  0  0  0  0  0  0  0  0  0  0  0
   10.6796  -16.1651   21.2267 C   0  0  0  0  0  0  0  0  0  0  0  0
   11.6188  -15.3463   21.2893 O   0  0  0  0  0  0  0  0  0  0  0  0
   14.2007  -22.6866   17.4283 N   0  0  0  0  0  0  0  0  0  0  0  0
    9.4229  -15.8333   21.7817 C   0  0  1  0  0  0  0  0  0  0  0  0
    9.1028  -14.5400   22.3529 C   0  0  0  0  0  0  0  0  0  0  0  0
    7.7568  -14.0993   21.9113 C   0  0  0  0  0  0  0  0  0  0  0  0
    7.5843  -13.9529   20.4537 C   0  0  0  0  0  0  0  0  0  0  0  0
    6.5908  -14.5918   19.7569 N   0  0  0  0  0  0  0  0  0  0  0  0
    6.7099  -14.2490   18.4707 C   0  0  0  0  0  0  0  0  0  0  0  0
    7.7558  -13.4155   18.3769 N   0  0  0  0  0  0  0  0  0  0  0  0
    8.2940  -13.2313   19.5874 C   0  0  0  0  0  0  0  0  0  0  0  0
    9.3101  -14.5254   23.8229 O   0  0  0  0  0  0  0  0  0  0  0  0
    8.8409  -13.5802   24.5032 C   0  0  0  0  0  0  0  0  0  0  0  0
   10.9392  -13.8557   30.3300 S   0  0  0  0  0  0  0  0  0  0  0  0
   10.0696  -13.6975   28.7848 C   0  0  0  0  0  0  0  0  0  0  0  0
    9.2849  -15.1880   28.2078 C   0  0  0  0  0  0  0  0  0  0  0  0
    9.0716  -15.3088   26.7471 C   0  0  2  0  0  0  0  0  0  0  0  0
   10.2996  -15.5537   25.9271 N   0  0  0  0  0  0  0  0  0  0  0  0
   10.0292  -15.5529   24.5025 C   0  0  0  0  0  0  0  0  0  0  0  0
   11.0079  -16.8158   26.2365 O   0  0  0  0  0  0  0  0  0  0  0  0
   11.6697  -17.0746   27.4283 O   0  0  0  0  0  0  0  0  0  0  0  0
  2  4  1  0
  2  1  1  0
  3  2  2  0
  5  4  1  0
  6  5  1  0
  7  6  1  0
  8  7  1  0
  8  9  1  6
 10  8  1  0
 10 11  2  0
 12 10  1  0
 13 12  1  0
 13 14  1  1
 15 16  2  0
 15 14  1  0
 17 16  1  0
 18 19  2  0
 18 17  1  0
 19 15  1  0
 20 13  1  0
 21 20  2  0
 23 22  1  0
 23 24  1  0
 24 25  1  0
 26 25  1  6
 26 27  1  0
 27 20  1  0
 28 26  1  0
 28 29  1  0
 30 28  2  0
M  END
$$$$
