RHM.pdb
     RDKit          3D

 30 30  0  0  1  0  0  0  0  0999 V2000
    7.8738  -12.8296   16.5408 N   0  0  0  0  0  0  0  0  0  0  0  0
    7.7978  -14.0681   15.8451 C   0  0  0  0  0  0  0  0  0  0  0  0
    6.7971  -14.2421   15.0444 N   0  0  0  0  0  0  0  0  0  0  0  0
    8.7768  -15.0852   16.0162 N   0  0  0  0  0  0  0  0  0  0  0  0
    8.4027  -16.3710   16.4964 C   0  0  0  0  0  0  0  0  0  0  0  0
    9.1093  -16.8499   17.7166 C   0  0  0  0  0  0  0  0  0  0  0  0
    9.7279  -15.7757   18.5558 C   0  0  0  0  0  0  0  0  0  0  0  0
   10.4436  -16.4291   19.7311 C   0  0  2  0  0  0  0  0  0  0  0  0
   10.8785  -17.7098   19.3890 N   0  0  0  0  0  0  0  0  0  0  0  0
    9.6215  -16.4478   20.9573 C   0  0  0  0  0  0  0  0  0  0  0  0
    9.0868  -15.4039   21.3826 O   0  0  0  0  0  0  0  0  0  0  0  0
    6.6023  -15.1290   14.5351 N   0  0  0  0  0  0  0  0  0  0  0  0
    9.4397  -17.6627   21.6560 C   0  0  1  0  0  0  0  0  0  0  0  0
    8.6617  -17.7921   22.8724 C   0  0  0  0  0  0  0  0  0  0  0  0
    8.7404  -19.1799   23.3906 C   0  0  0  0  0  0  0  0  0  0  0  0
    7.9737  -19.4407   24.6234 C   0  0  0  0  0  0  0  0  0  0  0  0
    6.8675  -18.7111   24.9767 N   0  0  0  0  0  0  0  0  0  0  0  0
    6.4109  -19.1979   26.1344 C   0  0  0  0  0  0  0  0  0  0  0  0
    7.2195  -20.2074   26.4874 N   0  0  0  0  0  0  0  0  0  0  0  0
    8.1771  -20.3596   25.5662 C   0  0  0  0  0  0  0  0  0  0  0  0
    9.0114  -16.7395   23.8592 O   0  0  0  0  0  0  0  0  0  0  0  0
   10.2192  -16.5018   24.1066 C   0  0  0  0  0  0  0  0  0  0  0  0
    6.4056  -10.2923   27.8438 S   0  0  0  0  0  0  0  0  0  0  0  0
    6.0895  -11.6167   26.6971 C   0  0  0  0  0  0  0  0  0  0  0  0
    7.3919  -12.8236   26.5650 C   0  0  0  0  0  0  0  0  0  0  0  0
    7.2017  -13.9064   25.5725 C   0  0  1  0  0  0  0  0  0  0  0  0
    8.3152  -14.9015   25.4722 N   0  0  0  0  0  0  0  0  0  0  0  0
    8.0203  -15.9782   24.5467 C   0  0  0  0  0  0  0  0  0  0  0  0
    8.7053  -15.5243   26.7568 O   0  0  0  0  0  0  0  0  0  0  0  0
    8.5613  -16.8721   27.0532 O   0  0  0  0  0  0  0  0  0  0  0  0
  2  4  1  0
  2  1  1  0
  3  2  2  0
  5  4  1  0
  6  5  1  0
  7  6  1  0
  8  7  1  0
  8  9  1  6
 10  8  1  0
 10 11  2  0
 12 10  1  0
 13 12  1  0
 13 14  1  1
 15 16  2  0
 15 14  1  0
 17 16  1  0
 18 19  2  0
 18 17  1  0
 19 15  1  0
 20 13  1  0
 21 20  2  0
 23 22  1  0
 23 24  1  0
 24 25  1  0
 26 25  1  6
 26 27  1  0
 27 20  1  0
 28 26  1  0
 28 29  1  0
 30 28  2  0
M  END
$$$$
