RHM.pdb
     RDKit          3D

 30 30  0  0  1  0  0  0  0  0999 V2000
   10.1409  -13.4165   18.2566 N   0  0  0  0  0  0  0  0  0  0  0  0
    8.9160  -12.6937   18.2274 C   0  0  0  0  0  0  0  0  0  0  0  0
    8.9630  -11.4291   18.4951 N   0  0  0  0  0  0  0  0  0  0  0  0
    7.6799  -13.3257   17.9194 N   0  0  0  0  0  0  0  0  0  0  0  0
    6.9325  -13.9801   18.9377 C   0  0  0  0  0  0  0  0  0  0  0  0
    7.7025  -14.8668   19.8534 C   0  0  0  0  0  0  0  0  0  0  0  0
    6.8767  -15.6356   20.8371 C   0  0  0  0  0  0  0  0  0  0  0  0
    7.2992  -17.0983   20.7881 C   0  0  2  0  0  0  0  0  0  0  0  0
    6.2314  -17.9035   20.3911 N   0  0  0  0  0  0  0  0  0  0  0  0
    7.8819  -17.5640   22.0622 C   0  0  0  0  0  0  0  0  0  0  0  0
    7.1534  -17.8076   23.0453 O   0  0  0  0  0  0  0  0  0  0  0  0
    8.1313  -10.8032   18.5121 N   0  0  0  0  0  0  0  0  0  0  0  0
    9.2808  -17.7347   22.1677 C   0  0  2  0  0  0  0  0  0  0  0  0
    9.9777  -17.9811   23.4148 C   0  0  0  0  0  0  0  0  0  0  0  0
   11.3478  -18.4847   23.1500 C   0  0  0  0  0  0  0  0  0  0  0  0
   12.0988  -18.9333   24.3376 C   0  0  0  0  0  0  0  0  0  0  0  0
   11.5502  -19.7419   25.2998 N   0  0  0  0  0  0  0  0  0  0  0  0
   12.4851  -19.9616   26.2291 C   0  0  0  0  0  0  0  0  0  0  0  0
   13.5878  -19.3016   25.8470 N   0  0  0  0  0  0  0  0  0  0  0  0
   13.3564  -18.6710   24.6905 C   0  0  0  0  0  0  0  0  0  0  0  0
    9.9117  -16.8056   24.3191 O   0  0  0  0  0  0  0  0  0  0  0  0
   10.1489  -15.6606   23.8617 C   0  0  0  0  0  0  0  0  0  0  0  0
    6.1544  -11.6751   26.3052 S   0  0  0  0  0  0  0  0  0  0  0  0
    6.3727  -13.1534   27.2726 C   0  0  0  0  0  0  0  0  0  0  0  0
    8.0061  -13.8591   27.2089 C   0  0  0  0  0  0  0  0  0  0  0  0
    8.1119  -15.2580   26.7339 C   0  0  2  0  0  0  0  0  0  0  0  0
    9.5007  -15.8044   26.6198 N   0  0  0  0  0  0  0  0  0  0  0  0
    9.5865  -16.9245   25.7029 C   0  0  0  0  0  0  0  0  0  0  0  0
   10.1003  -16.2412   27.9005 O   0  0  0  0  0  0  0  0  0  0  0  0
   10.7174  -15.3940   28.8094 O   0  0  0  0  0  0  0  0  0  0  0  0
  2  4  1  0
  2  1  1  0
  3  2  2  0
  5  4  1  0
  6  5  1  0
  7  6  1  0
  8  7  1  0
  8  9  1  1
 10  8  1  0
 10 11  2  0
 12 10  1  0
 13 12  1  0
 13 14  1  6
 15 16  2  0
 15 14  1  0
 17 16  1  0
 18 19  2  0
 18 17  1  0
 19 15  1  0
 20 13  1  0
 21 20  2  0
 23 22  1  0
 23 24  1  0
 24 25  1  0
 26 25  1  6
 26 27  1  0
 27 20  1  0
 28 26  1  0
 28 29  1  0
 30 28  2  0
M  END
$$$$
