RHM.pdb
     RDKit          3D

 30 30  0  0  1  0  0  0  0  0999 V2000
    9.2557  -16.3451   15.1255 N   0  0  0  0  0  0  0  0  0  0  0  0
    8.1854  -15.4315   14.9168 C   0  0  0  0  0  0  0  0  0  0  0  0
    7.7186  -15.3238   13.7154 N   0  0  0  0  0  0  0  0  0  0  0  0
    7.6418  -14.6585   15.9795 N   0  0  0  0  0  0  0  0  0  0  0  0
    8.4661  -13.7574   16.7090 C   0  0  0  0  0  0  0  0  0  0  0  0
    7.8129  -13.0276   17.8307 C   0  0  0  0  0  0  0  0  0  0  0  0
    7.5962  -13.8340   19.0731 C   0  0  0  0  0  0  0  0  0  0  0  0
    8.8784  -13.8137   19.8953 C   0  0  2  0  0  0  0  0  0  0  0  0
    9.9864  -14.0478   19.0804 N   0  0  0  0  0  0  0  0  0  0  0  0
    8.8378  -14.7528   21.0338 C   0  0  0  0  0  0  0  0  0  0  0  0
    7.9310  -14.6809   21.8877 O   0  0  0  0  0  0  0  0  0  0  0  0
    6.9473  -14.6801   13.4427 N   0  0  0  0  0  0  0  0  0  0  0  0
    9.8384  -15.7432   21.1564 C   0  0  1  0  0  0  0  0  0  0  0  0
    9.9520  -16.6487   22.2828 C   0  0  0  0  0  0  0  0  0  0  0  0
   10.9527  -17.7058   21.9967 C   0  0  0  0  0  0  0  0  0  0  0  0
   11.1402  -18.7067   23.0639 C   0  0  0  0  0  0  0  0  0  0  0  0
   10.0952  -19.3891   23.6322 N   0  0  0  0  0  0  0  0  0  0  0  0
   10.6003  -20.2128   24.5555 C   0  0  0  0  0  0  0  0  0  0  0  0
   11.9300  -20.0413   24.5560 N   0  0  0  0  0  0  0  0  0  0  0  0
   12.2651  -19.1209   23.6453 C   0  0  0  0  0  0  0  0  0  0  0  0
   10.1703  -15.9142   23.5544 O   0  0  0  0  0  0  0  0  0  0  0  0
   11.1177  -15.0946   23.6392 C   0  0  0  0  0  0  0  0  0  0  0  0
    5.6011  -12.0615   27.0591 S   0  0  0  0  0  0  0  0  0  0  0  0
    7.3719  -11.9618   27.2113 C   0  0  0  0  0  0  0  0  0  0  0  0
    8.2130  -13.5308   27.2449 C   0  0  0  0  0  0  0  0  0  0  0  0
    8.3510  -14.2430   25.9537 C   0  0  1  0  0  0  0  0  0  0  0  0
    9.4111  -15.2984   25.9015 N   0  0  0  0  0  0  0  0  0  0  0  0
    9.3387  -16.1036   24.6977 C   0  0  0  0  0  0  0  0  0  0  0  0
    9.4125  -16.2306   27.0511 O   0  0  0  0  0  0  0  0  0  0  0  0
    9.1375  -17.5877   26.9636 O   0  0  0  0  0  0  0  0  0  0  0  0
  2  4  1  0
  2  1  1  0
  3  2  2  0
  5  4  1  0
  6  5  1  0
  7  6  1  0
  8  7  1  0
  8  9  1  6
 10  8  1  0
 10 11  2  0
 12 10  1  0
 13 12  1  0
 13 14  1  1
 15 16  2  0
 15 14  1  0
 17 16  1  0
 18 19  2  0
 18 17  1  0
 19 15  1  0
 20 13  1  0
 21 20  2  0
 23 22  1  0
 23 24  1  0
 24 25  1  0
 26 25  1  6
 26 27  1  0
 27 20  1  0
 28 26  1  0
 28 29  1  0
 30 28  2  0
M  END
$$$$
