RHM.pdb
     RDKit          3D

 30 30  0  0  1  0  0  0  0  0999 V2000
    8.6096  -16.0128   16.2796 N   0  0  0  0  0  0  0  0  0  0  0  0
    8.3531  -14.7372   15.7044 C   0  0  0  0  0  0  0  0  0  0  0  0
    8.2498  -14.6732   14.4167 N   0  0  0  0  0  0  0  0  0  0  0  0
    8.2158  -13.5687   16.5033 N   0  0  0  0  0  0  0  0  0  0  0  0
    8.5563  -13.5966   17.8842 C   0  0  0  0  0  0  0  0  0  0  0  0
    7.4389  -13.3738   18.8430 C   0  0  0  0  0  0  0  0  0  0  0  0
    7.4045  -14.3125   20.0085 C   0  0  0  0  0  0  0  0  0  0  0  0
    8.8244  -14.4911   20.5305 C   0  0  2  0  0  0  0  0  0  0  0  0
    9.6625  -14.9612   19.5191 N   0  0  0  0  0  0  0  0  0  0  0  0
    8.8852  -15.3544   21.7267 C   0  0  0  0  0  0  0  0  0  0  0  0
    8.0773  -15.2019   22.6650 O   0  0  0  0  0  0  0  0  0  0  0  0
    8.1675  -13.7853   13.8796 N   0  0  0  0  0  0  0  0  0  0  0  0
    9.8709  -16.3639   21.8082 C   0  0  1  0  0  0  0  0  0  0  0  0
   10.1185  -17.1643   22.9912 C   0  0  0  0  0  0  0  0  0  0  0  0
   11.0061  -18.3073   22.6649 C   0  0  0  0  0  0  0  0  0  0  0  0
   10.7566  -18.9518   21.3618 C   0  0  0  0  0  0  0  0  0  0  0  0
    9.7274  -18.5793   20.5355 N   0  0  0  0  0  0  0  0  0  0  0  0
    9.7805  -19.3505   19.4454 C   0  0  0  0  0  0  0  0  0  0  0  0
   10.8216  -20.1815   19.5969 N   0  0  0  0  0  0  0  0  0  0  0  0
   11.4219  -19.9414   20.7677 C   0  0  0  0  0  0  0  0  0  0  0  0
   10.5745  -16.3289   24.1306 O   0  0  0  0  0  0  0  0  0  0  0  0
   11.1785  -15.2519   23.9037 C   0  0  0  0  0  0  0  0  0  0  0  0
    6.9136  -12.1711   28.2691 S   0  0  0  0  0  0  0  0  0  0  0  0
    7.9809  -13.1082   27.1959 C   0  0  0  0  0  0  0  0  0  0  0  0
    7.3688  -14.7186   26.7465 C   0  0  0  0  0  0  0  0  0  0  0  0
    8.2278  -15.5368   25.8598 C   0  0  2  0  0  0  0  0  0  0  0  0
    9.5536  -15.9387   26.4263 N   0  0  0  0  0  0  0  0  0  0  0  0
   10.3526  -16.7039   25.4889 C   0  0  0  0  0  0  0  0  0  0  0  0
    9.4784  -16.7237   27.6787 O   0  0  0  0  0  0  0  0  0  0  0  0
    9.8759  -16.2581   28.9238 O   0  0  0  0  0  0  0  0  0  0  0  0
  2  4  1  0
  2  1  1  0
  3  2  2  0
  5  4  1  0
  6  5  1  0
  7  6  1  0
  8  7  1  0
  8  9  1  6
 10  8  1  0
 10 11  2  0
 12 10  1  0
 13 12  1  0
 13 14  1  1
 15 16  2  0
 15 14  1  0
 17 16  1  0
 18 19  2  0
 18 17  1  0
 19 15  1  0
 20 13  1  0
 21 20  2  0
 23 22  1  0
 23 24  1  0
 24 25  1  0
 26 25  1  6
 26 27  1  0
 27 20  1  0
 28 26  1  0
 28 29  1  0
 30 28  2  0
M  END
$$$$
