RHM.pdb
     RDKit          3D

 30 30  0  0  1  0  0  0  0  0999 V2000
    9.9131  -15.4071   14.9942 N   0  0  0  0  0  0  0  0  0  0  0  0
    9.0770  -14.2923   15.2803 C   0  0  0  0  0  0  0  0  0  0  0  0
    8.2305  -13.9325   14.3710 N   0  0  0  0  0  0  0  0  0  0  0  0
    9.1602  -13.5900   16.5141 N   0  0  0  0  0  0  0  0  0  0  0  0
    8.0489  -13.5598   17.4017 C   0  0  0  0  0  0  0  0  0  0  0  0
    7.2947  -14.8344   17.5568 C   0  0  0  0  0  0  0  0  0  0  0  0
    6.8996  -15.1725   18.9605 C   0  0  0  0  0  0  0  0  0  0  0  0
    8.1056  -15.7696   19.6742 C   0  0  2  0  0  0  0  0  0  0  0  0
    8.5632  -16.9016   18.9992 N   0  0  0  0  0  0  0  0  0  0  0  0
    7.8367  -16.0612   21.0963 C   0  0  0  0  0  0  0  0  0  0  0  0
    7.3621  -15.1860   21.8482 O   0  0  0  0  0  0  0  0  0  0  0  0
    7.5067  -13.1961   14.5037 N   0  0  0  0  0  0  0  0  0  0  0  0
    8.1215  -17.3466   21.6102 C   0  0  2  0  0  0  0  0  0  0  0  0
    7.9481  -17.7232   22.9993 C   0  0  0  0  0  0  0  0  0  0  0  0
    8.4207  -19.1119   23.2207 C   0  0  0  0  0  0  0  0  0  0  0  0
    8.2803  -19.6170   24.5994 C   0  0  0  0  0  0  0  0  0  0  0  0
    7.1015  -19.5499   25.2971 N   0  0  0  0  0  0  0  0  0  0  0  0
    7.3096  -20.0897   26.5017 C   0  0  0  0  0  0  0  0  0  0  0  0
    8.5910  -20.4817   26.5454 N   0  0  0  0  0  0  0  0  0  0  0  0
    9.1889  -20.1946   25.3840 C   0  0  0  0  0  0  0  0  0  0  0  0
    8.5344  -16.7137   23.9164 O   0  0  0  0  0  0  0  0  0  0  0  0
    9.7131  -16.3226   23.7319 C   0  0  0  0  0  0  0  0  0  0  0  0
    6.7526   -9.9593   27.4935 S   0  0  0  0  0  0  0  0  0  0  0  0
    6.2335  -11.4722   26.7121 C   0  0  0  0  0  0  0  0  0  0  0  0
    7.4840  -12.7360   26.6160 C   0  0  0  0  0  0  0  0  0  0  0  0
    7.1653  -13.9312   25.8013 C   0  0  1  0  0  0  0  0  0  0  0  0
    8.2194  -14.9930   25.7616 N   0  0  0  0  0  0  0  0  0  0  0  0
    7.8054  -16.1632   25.0120 C   0  0  0  0  0  0  0  0  0  0  0  0
    8.6738  -15.4630   27.0894 O   0  0  0  0  0  0  0  0  0  0  0  0
    9.5410  -14.7640   27.9167 O   0  0  0  0  0  0  0  0  0  0  0  0
  2  4  1  0
  2  1  1  0
  3  2  2  0
  5  4  1  0
  6  5  1  0
  7  6  1  0
  8  7  1  0
  8  9  1  6
 10  8  1  0
 10 11  2  0
 12 10  1  0
 13 12  1  0
 13 14  1  6
 15 16  2  0
 15 14  1  0
 17 16  1  0
 18 19  2  0
 18 17  1  0
 19 15  1  0
 20 13  1  0
 21 20  2  0
 23 22  1  0
 23 24  1  0
 24 25  1  0
 26 25  1  6
 26 27  1  0
 27 20  1  0
 28 26  1  0
 28 29  1  0
 30 28  2  0
M  END
$$$$
