DED.pdb
     RDKit          3D

 26 25  0  0  1  0  0  0  0  0999 V2000
   16.4942  -10.9341  -14.8119 N   0  0  0  0  0  0  0  0  0  0  0  0
   16.8800   -9.7874  -15.5987 C   0  0  1  0  0  0  0  0  0  0  0  0
   15.7876   -8.7559  -15.4291 C   0  0  0  0  0  0  0  0  0  0  0  0
   14.5998   -9.0023  -16.2529 C   0  0  0  0  0  0  0  0  0  0  0  0
   14.5641   -9.8310  -17.1893 O   0  0  0  0  0  0  0  0  0  0  0  0
   18.1759   -9.2586  -15.1655 C   0  0  0  0  0  0  0  0  0  0  0  0
   18.3906   -8.7141  -14.0582 O   0  0  0  0  0  0  0  0  0  0  0  0
   13.4201   -8.2838  -16.0019 O   0  0  0  0  0  0  0  0  0  0  0  0
   19.3075   -9.3561  -16.0553 N   0  0  0  0  0  0  0  0  0  0  0  0
   20.6182   -8.9338  -15.6056 C   0  0  1  0  0  0  0  0  0  0  0  0
   21.6469   -9.5403  -16.5321 C   0  0  0  0  0  0  0  0  0  0  0  0
   21.8464  -10.9737  -16.1838 C   0  0  0  0  0  0  0  0  0  0  0  0
   22.8220  -11.6568  -17.0648 C   0  0  0  0  0  0  0  0  0  0  0  0
   22.4935  -12.5093  -17.9156 O   0  0  0  0  0  0  0  0  0  0  0  0
   20.6498   -7.4461  -15.6874 C   0  0  0  0  0  0  0  0  0  0  0  0
   20.0371   -6.8239  -16.5921 O   0  0  0  0  0  0  0  0  0  0  0  0
   24.1579  -11.3303  -16.9336 O   0  0  0  0  0  0  0  0  0  0  0  0
   21.3889   -6.6779  -14.7244 N   0  0  0  0  0  0  0  0  0  0  0  0
   21.3502   -5.2322  -14.8087 C   0  0  1  0  0  0  0  0  0  0  0  0
   19.9337   -4.7127  -14.7635 C   0  0  0  0  0  0  0  0  0  0  0  0
   19.8685   -3.2461  -14.7263 C   0  0  0  0  0  0  0  0  0  0  0  0
   20.6288   -2.4720  -15.3604 O   0  0  0  0  0  0  0  0  0  0  0  0
   22.2073   -4.6306  -13.7688 C   0  0  0  0  0  0  0  0  0  0  0  0
   22.6027   -3.3019  -13.8317 O   0  0  0  0  0  0  0  0  0  0  0  0
   18.8931   -2.6508  -13.9310 O   0  0  0  0  0  0  0  0  0  0  0  0
   22.5829   -5.3404  -12.8103 O   0  0  0  0  0  0  0  0  0  0  0  0
  2  1  1  1
  2  3  1  0
  3  4  1  0
  4  8  1  0
  5  4  2  0
  6  2  1  0
  6  9  1  0
  7  6  2  0
 10  9  1  0
 11 12  1  0
 10 11  1  6
 12 13  1  0
 13 17  1  0
 14 13  2  0
 15 16  2  0
 15 10  1  0
 18 15  1  0
 19 18  1  0
 19 20  1  1
 21 20  1  0
 21 22  2  0
 23 19  1  0
 24 23  1  0
 25 21  1  0
 26 23  2  0
M  END
$$$$
