DED.pdb
     RDKit          3D

 26 25  0  0  1  0  0  0  0  0999 V2000
   15.6170  -12.9784  -13.9824 N   0  0  0  0  0  0  0  0  0  0  0  0
   15.2264  -11.5918  -13.8962 C   0  0  1  0  0  0  0  0  0  0  0  0
   13.7423  -11.5749  -13.6080 C   0  0  0  0  0  0  0  0  0  0  0  0
   12.9086  -11.9879  -14.7413 C   0  0  0  0  0  0  0  0  0  0  0  0
   12.3429  -13.1010  -14.8178 O   0  0  0  0  0  0  0  0  0  0  0  0
   15.9749  -10.8941  -12.8476 C   0  0  0  0  0  0  0  0  0  0  0  0
   16.1311  -11.3184  -11.6796 O   0  0  0  0  0  0  0  0  0  0  0  0
   12.7146  -11.1072  -15.8173 O   0  0  0  0  0  0  0  0  0  0  0  0
   16.5887   -9.6237  -13.1492 N   0  0  0  0  0  0  0  0  0  0  0  0
   17.4387   -8.9813  -12.1678 C   0  0  1  0  0  0  0  0  0  0  0  0
   18.6588   -8.4495  -12.8841 C   0  0  0  0  0  0  0  0  0  0  0  0
   19.6050   -7.8696  -11.8919 C   0  0  0  0  0  0  0  0  0  0  0  0
   20.8942   -7.4532  -12.4910 C   0  0  0  0  0  0  0  0  0  0  0  0
   21.5186   -6.4351  -12.1277 O   0  0  0  0  0  0  0  0  0  0  0  0
   16.6515   -7.8651  -11.5716 C   0  0  0  0  0  0  0  0  0  0  0  0
   16.0552   -7.0234  -12.2907 O   0  0  0  0  0  0  0  0  0  0  0  0
   21.4256   -8.2331  -13.4998 O   0  0  0  0  0  0  0  0  0  0  0  0
   16.5535   -7.7216  -10.1456 N   0  0  0  0  0  0  0  0  0  0  0  0
   15.7823   -6.6195   -9.6078 C   0  0  1  0  0  0  0  0  0  0  0  0
   14.9842   -7.0406   -8.3978 C   0  0  0  0  0  0  0  0  0  0  0  0
   14.1336   -5.9631   -7.8764 C   0  0  0  0  0  0  0  0  0  0  0  0
   13.8166   -4.9227   -8.5063 O   0  0  0  0  0  0  0  0  0  0  0  0
   16.6560   -5.4618   -9.3349 C   0  0  0  0  0  0  0  0  0  0  0  0
   18.0318   -5.5344   -9.5007 O   0  0  0  0  0  0  0  0  0  0  0  0
   13.6306   -6.0886   -6.5843 O   0  0  0  0  0  0  0  0  0  0  0  0
   16.1380   -4.3925   -8.9453 O   0  0  0  0  0  0  0  0  0  0  0  0
  2  1  1  1
  2  3  1  0
  3  4  1  0
  4  8  1  0
  5  4  2  0
  6  2  1  0
  6  9  1  0
  7  6  2  0
 10  9  1  0
 11 12  1  0
 10 11  1  6
 12 13  1  0
 13 17  1  0
 14 13  2  0
 15 16  2  0
 15 10  1  0
 18 15  1  0
 19 18  1  0
 19 20  1  1
 21 20  1  0
 21 22  2  0
 23 19  1  0
 24 23  1  0
 25 21  1  0
 26 23  2  0
M  END
$$$$
