DED.pdb
     RDKit          3D

 26 25  0  0  1  0  0  0  0  0999 V2000
   21.6468  -12.6697  -18.2277 N   0  0  0  0  0  0  0  0  0  0  0  0
   21.3213  -11.3151  -18.6044 C   0  0  1  0  0  0  0  0  0  0  0  0
   19.8128  -11.2130  -18.6011 C   0  0  0  0  0  0  0  0  0  0  0  0
   19.1785  -11.6932  -19.8328 C   0  0  0  0  0  0  0  0  0  0  0  0
   19.1713  -12.8926  -20.1880 O   0  0  0  0  0  0  0  0  0  0  0  0
   21.9169  -10.3491  -17.6776 C   0  0  0  0  0  0  0  0  0  0  0  0
   21.7277  -10.3377  -16.4396 O   0  0  0  0  0  0  0  0  0  0  0  0
   18.5346  -10.7804  -20.6831 O   0  0  0  0  0  0  0  0  0  0  0  0
   22.7892   -9.3236  -18.1963 N   0  0  0  0  0  0  0  0  0  0  0  0
   23.4084   -8.3768  -17.2915 C   0  0  1  0  0  0  0  0  0  0  0  0
   24.6559   -7.8428  -17.9572 C   0  0  0  0  0  0  0  0  0  0  0  0
   25.3049   -6.8414  -17.0673 C   0  0  0  0  0  0  0  0  0  0  0  0
   26.5530   -6.2804  -17.6348 C   0  0  0  0  0  0  0  0  0  0  0  0
   26.9868   -5.1469  -17.3422 O   0  0  0  0  0  0  0  0  0  0  0  0
   22.4239   -7.2811  -17.0648 C   0  0  0  0  0  0  0  0  0  0  0  0
   21.7417   -6.8045  -18.0074 O   0  0  0  0  0  0  0  0  0  0  0  0
   27.2663   -7.0535  -18.5302 O   0  0  0  0  0  0  0  0  0  0  0  0
   22.2281   -6.7366  -15.7499 N   0  0  0  0  0  0  0  0  0  0  0  0
   21.2065   -5.7275  -15.5590 C   0  0  1  0  0  0  0  0  0  0  0  0
   19.8672   -6.3482  -15.2436 C   0  0  0  0  0  0  0  0  0  0  0  0
   18.8247   -5.3467  -14.9853 C   0  0  0  0  0  0  0  0  0  0  0  0
   18.4868   -4.4330  -15.7793 O   0  0  0  0  0  0  0  0  0  0  0  0
   21.6310   -4.7486  -14.5393 C   0  0  0  0  0  0  0  0  0  0  0  0
   20.9143   -3.5831  -14.3077 O   0  0  0  0  0  0  0  0  0  0  0  0
   18.1479   -5.3999  -13.7698 O   0  0  0  0  0  0  0  0  0  0  0  0
   22.6621   -4.9808  -13.8712 O   0  0  0  0  0  0  0  0  0  0  0  0
  2  1  1  1
  2  3  1  0
  3  4  1  0
  4  8  1  0
  5  4  2  0
  6  2  1  0
  6  9  1  0
  7  6  2  0
 10  9  1  0
 11 12  1  0
 10 11  1  6
 12 13  1  0
 13 17  1  0
 14 13  2  0
 15 16  2  0
 15 10  1  0
 18 15  1  0
 19 18  1  0
 19 20  1  1
 21 20  1  0
 21 22  2  0
 23 19  1  0
 24 23  1  0
 25 21  1  0
 26 23  2  0
M  END
$$$$
