DED.pdb
     RDKit          3D

 26 25  0  0  1  0  0  0  0  0999 V2000
   15.9946  -12.5882  -15.0957 N   0  0  0  0  0  0  0  0  0  0  0  0
   16.3642  -11.3630  -15.7630 C   0  0  1  0  0  0  0  0  0  0  0  0
   15.3956  -10.3018  -15.2922 C   0  0  0  0  0  0  0  0  0  0  0  0
   13.9943  -10.5846  -15.6184 C   0  0  0  0  0  0  0  0  0  0  0  0
   13.0456  -10.3989  -14.8246 O   0  0  0  0  0  0  0  0  0  0  0  0
   17.7469  -10.9881  -15.4558 C   0  0  0  0  0  0  0  0  0  0  0  0
   18.2565  -11.0150  -14.3121 O   0  0  0  0  0  0  0  0  0  0  0  0
   13.6658  -11.0931  -16.8851 O   0  0  0  0  0  0  0  0  0  0  0  0
   18.6107  -10.5514  -16.5258 N   0  0  0  0  0  0  0  0  0  0  0  0
   20.0016  -10.2513  -16.2542 C   0  0  1  0  0  0  0  0  0  0  0  0
   20.8148  -10.6843  -17.4524 C   0  0  0  0  0  0  0  0  0  0  0  0
   22.2640  -10.5135  -17.1581 C   0  0  0  0  0  0  0  0  0  0  0  0
   23.1381  -10.9105  -18.2863 C   0  0  0  0  0  0  0  0  0  0  0  0
   23.7667  -11.9886  -18.3163 O   0  0  0  0  0  0  0  0  0  0  0  0
   20.1001   -8.7773  -16.0573 C   0  0  0  0  0  0  0  0  0  0  0  0
   19.4284   -7.9744  -16.7537 O   0  0  0  0  0  0  0  0  0  0  0  0
   23.2593  -10.0414  -19.3533 O   0  0  0  0  0  0  0  0  0  0  0  0
   20.9743   -8.2317  -15.0564 N   0  0  0  0  0  0  0  0  0  0  0  0
   21.0374   -6.7934  -14.8958 C   0  0  1  0  0  0  0  0  0  0  0  0
   21.8517   -6.4066  -13.6852 C   0  0  0  0  0  0  0  0  0  0  0  0
   21.8923   -4.9546  -13.4693 C   0  0  0  0  0  0  0  0  0  0  0  0
   22.8935   -4.2215  -13.6685 O   0  0  0  0  0  0  0  0  0  0  0  0
   21.5260   -6.1560  -16.1340 C   0  0  0  0  0  0  0  0  0  0  0  0
   20.9184   -5.0233  -16.6572 O   0  0  0  0  0  0  0  0  0  0  0  0
   20.7392   -4.3254  -13.0079 O   0  0  0  0  0  0  0  0  0  0  0  0
   22.5118   -6.6531  -16.7211 O   0  0  0  0  0  0  0  0  0  0  0  0
  2  1  1  1
  2  3  1  0
  3  4  1  0
  4  8  1  0
  5  4  2  0
  6  2  1  0
  6  9  1  0
  7  6  2  0
 10  9  1  0
 11 12  1  0
 10 11  1  6
 12 13  1  0
 13 17  1  0
 14 13  2  0
 15 16  2  0
 15 10  1  0
 18 15  1  0
 19 18  1  0
 19 20  1  1
 21 20  1  0
 21 22  2  0
 23 19  1  0
 24 23  1  0
 25 21  1  0
 26 23  2  0
M  END
$$$$
