DED.pdb
     RDKit          3D

 26 25  0  0  1  0  0  0  0  0999 V2000
   15.5174  -10.6023  -14.9222 N   0  0  0  0  0  0  0  0  0  0  0  0
   16.7045  -10.4845  -14.1099 C   0  0  1  0  0  0  0  0  0  0  0  0
   17.7855  -11.2850  -14.8005 C   0  0  0  0  0  0  0  0  0  0  0  0
   17.5971  -12.7370  -14.7208 C   0  0  0  0  0  0  0  0  0  0  0  0
   18.4140  -13.5689  -15.1739 O   0  0  0  0  0  0  0  0  0  0  0  0
   17.1041   -9.0835  -13.9547 C   0  0  0  0  0  0  0  0  0  0  0  0
   16.9965   -8.2079  -14.8437 O   0  0  0  0  0  0  0  0  0  0  0  0
   16.4453  -13.2546  -14.1074 O   0  0  0  0  0  0  0  0  0  0  0  0
   17.6662   -8.6481  -12.6992 N   0  0  0  0  0  0  0  0  0  0  0  0
   18.1326   -7.2847  -12.5510 C   0  0  1  0  0  0  0  0  0  0  0  0
   18.1107   -6.9417  -11.0791 C   0  0  0  0  0  0  0  0  0  0  0  0
   16.7823   -6.3737  -10.7204 C   0  0  0  0  0  0  0  0  0  0  0  0
   16.6830   -5.9794   -9.2959 C   0  0  0  0  0  0  0  0  0  0  0  0
   17.5861   -6.1984   -8.4624 O   0  0  0  0  0  0  0  0  0  0  0  0
   19.5250   -7.2393  -13.0803 C   0  0  0  0  0  0  0  0  0  0  0  0
   20.3612   -8.1384  -12.8095 O   0  0  0  0  0  0  0  0  0  0  0  0
   15.5332   -5.3390   -8.8761 O   0  0  0  0  0  0  0  0  0  0  0  0
   19.9508   -6.1557  -13.9218 N   0  0  0  0  0  0  0  0  0  0  0  0
   21.3351   -6.1054  -14.3458 C   0  0  1  0  0  0  0  0  0  0  0  0
   21.4887   -6.5291  -15.7864 C   0  0  0  0  0  0  0  0  0  0  0  0
   22.8742   -6.4284  -16.2625 C   0  0  0  0  0  0  0  0  0  0  0  0
   23.8823   -6.8648  -15.6519 O   0  0  0  0  0  0  0  0  0  0  0  0
   21.9077   -4.7706  -14.0841 C   0  0  0  0  0  0  0  0  0  0  0  0
   21.1109   -3.6990  -13.7065 O   0  0  0  0  0  0  0  0  0  0  0  0
   23.1063   -5.8034  -17.4847 O   0  0  0  0  0  0  0  0  0  0  0  0
   23.1413   -4.6076  -14.2072 O   0  0  0  0  0  0  0  0  0  0  0  0
  2  1  1  6
  2  3  1  0
  3  4  1  0
  4  8  1  0
  5  4  2  0
  6  2  1  0
  6  9  1  0
  7  6  2  0
 10  9  1  0
 11 12  1  0
 10 11  1  1
 12 13  1  0
 13 17  1  0
 14 13  2  0
 15 16  2  0
 15 10  1  0
 18 15  1  0
 19 18  1  0
 19 20  1  6
 21 20  1  0
 21 22  2  0
 23 19  1  0
 24 23  1  0
 25 21  1  0
 26 23  2  0
M  END
$$$$
