DED.pdb
     RDKit          3D

 26 25  0  0  1  0  0  0  0  0999 V2000
   18.8424  -32.4647  -14.1372 N   0  0  0  0  0  0  0  0  0  0  0  0
   20.0617  -32.3962  -13.3680 C   0  0  1  0  0  0  0  0  0  0  0  0
   20.5853  -30.9846  -13.5072 C   0  0  0  0  0  0  0  0  0  0  0  0
   21.1003  -30.6672  -14.8429 C   0  0  0  0  0  0  0  0  0  0  0  0
   21.6142  -29.5676  -15.1455 O   0  0  0  0  0  0  0  0  0  0  0  0
   19.8218  -32.7331  -11.9624 C   0  0  0  0  0  0  0  0  0  0  0  0
   18.7996  -32.4093  -11.3153 O   0  0  0  0  0  0  0  0  0  0  0  0
   21.0274  -31.6304  -15.8617 O   0  0  0  0  0  0  0  0  0  0  0  0
   20.8155  -33.4918  -11.2422 N   0  0  0  0  0  0  0  0  0  0  0  0
   20.5461  -33.9336   -9.8893 C   0  0  1  0  0  0  0  0  0  0  0  0
   19.9317  -35.3126   -9.9626 C   0  0  0  0  0  0  0  0  0  0  0  0
   19.6238  -35.7939   -8.5880 C   0  0  0  0  0  0  0  0  0  0  0  0
   19.9699  -37.2190   -8.3788 C   0  0  0  0  0  0  0  0  0  0  0  0
   20.7772  -37.6048   -7.5083 O   0  0  0  0  0  0  0  0  0  0  0  0
   21.8536  -33.9784   -9.1757 C   0  0  0  0  0  0  0  0  0  0  0  0
   22.9394  -34.0952   -9.7989 O   0  0  0  0  0  0  0  0  0  0  0  0
   19.3669  -38.1613   -9.1893 O   0  0  0  0  0  0  0  0  0  0  0  0
   21.9065  -33.8883   -7.7429 N   0  0  0  0  0  0  0  0  0  0  0  0
   23.1925  -33.9970   -7.0850 C   0  0  1  0  0  0  0  0  0  0  0  0
   23.5878  -32.6989   -6.4240 C   0  0  0  0  0  0  0  0  0  0  0  0
   24.4104  -32.9009   -5.2244 C   0  0  0  0  0  0  0  0  0  0  0  0
   24.7339  -34.0184   -4.7489 O   0  0  0  0  0  0  0  0  0  0  0  0
   23.1981  -35.1354   -6.1458 C   0  0  0  0  0  0  0  0  0  0  0  0
   22.0229  -35.6362   -5.6036 O   0  0  0  0  0  0  0  0  0  0  0  0
   24.8767  -31.7761   -4.5492 O   0  0  0  0  0  0  0  0  0  0  0  0
   24.2912  -35.6570   -5.8350 O   0  0  0  0  0  0  0  0  0  0  0  0
  2  1  1  6
  2  3  1  0
  3  4  1  0
  4  8  1  0
  5  4  2  0
  6  2  1  0
  6  9  1  0
  7  6  2  0
 10  9  1  0
 11 12  1  0
 10 11  1  6
 12 13  1  0
 13 17  1  0
 14 13  2  0
 15 16  2  0
 15 10  1  0
 18 15  1  0
 19 18  1  0
 19 20  1  1
 21 20  1  0
 21 22  2  0
 23 19  1  0
 24 23  1  0
 25 21  1  0
 26 23  2  0
M  END
$$$$
