DED.pdb
     RDKit          3D

 26 25  0  0  1  0  0  0  0  0999 V2000
   13.3657  -11.6090  -10.8446 N   0  0  0  0  0  0  0  0  0  0  0  0
   14.7621  -11.2728  -10.7031 C   0  0  1  0  0  0  0  0  0  0  0  0
   15.5203  -12.1436  -11.6793 C   0  0  0  0  0  0  0  0  0  0  0  0
   15.3897  -13.5816  -11.4238 C   0  0  0  0  0  0  0  0  0  0  0  0
   16.1502  -14.4456  -11.9136 O   0  0  0  0  0  0  0  0  0  0  0  0
   14.9956   -9.8519  -10.9731 C   0  0  0  0  0  0  0  0  0  0  0  0
   14.4980   -9.2160  -11.9306 O   0  0  0  0  0  0  0  0  0  0  0  0
   14.3636  -14.0472  -10.5864 O   0  0  0  0  0  0  0  0  0  0  0  0
   15.8564   -9.1013  -10.0913 N   0  0  0  0  0  0  0  0  0  0  0  0
   16.0477   -7.6814  -10.3051 C   0  0  1  0  0  0  0  0  0  0  0  0
   15.6446   -6.9607   -9.0392 C   0  0  0  0  0  0  0  0  0  0  0  0
   15.9629   -5.5123   -9.1685 C   0  0  0  0  0  0  0  0  0  0  0  0
   15.4451   -4.6995   -8.0434 C   0  0  0  0  0  0  0  0  0  0  0  0
   14.8047   -5.1854   -7.0883 O   0  0  0  0  0  0  0  0  0  0  0  0
   17.4958   -7.4736  -10.5895 C   0  0  0  0  0  0  0  0  0  0  0  0
   18.3846   -8.1319   -9.9914 O   0  0  0  0  0  0  0  0  0  0  0  0
   15.6856   -3.3393   -8.0579 O   0  0  0  0  0  0  0  0  0  0  0  0
   17.9165   -6.5058  -11.5643 N   0  0  0  0  0  0  0  0  0  0  0  0
   19.2947   -6.5202  -12.0104 C   0  0  1  0  0  0  0  0  0  0  0  0
   19.7252   -7.9034  -12.4340 C   0  0  0  0  0  0  0  0  0  0  0  0
   21.1036   -7.9386  -12.9391 C   0  0  0  0  0  0  0  0  0  0  0  0
   22.0743   -7.3185  -12.4362 O   0  0  0  0  0  0  0  0  0  0  0  0
   19.5062   -5.5127  -13.0679 C   0  0  0  0  0  0  0  0  0  0  0  0
   20.7544   -4.9517  -13.2984 O   0  0  0  0  0  0  0  0  0  0  0  0
   21.3731   -8.7153  -14.0626 O   0  0  0  0  0  0  0  0  0  0  0  0
   18.5333   -5.1603  -13.7700 O   0  0  0  0  0  0  0  0  0  0  0  0
  2  1  1  6
  2  3  1  0
  3  4  1  0
  4  8  1  0
  5  4  2  0
  6  2  1  0
  6  9  1  0
  7  6  2  0
 10  9  1  0
 11 12  1  0
 10 11  1  1
 12 13  1  0
 13 17  1  0
 14 13  2  0
 15 16  2  0
 15 10  1  0
 18 15  1  0
 19 18  1  0
 19 20  1  6
 21 20  1  0
 21 22  2  0
 23 19  1  0
 24 23  1  0
 25 21  1  0
 26 23  2  0
M  END
$$$$
