DED.pdb
     RDKit          3D

 26 25  0  0  1  0  0  0  0  0999 V2000
   14.6543  -14.8920  -15.1299 N   0  0  0  0  0  0  0  0  0  0  0  0
   15.5783  -13.8810  -14.6750 C   0  0  1  0  0  0  0  0  0  0  0  0
   16.9674  -14.3861  -14.9934 C   0  0  0  0  0  0  0  0  0  0  0  0
   17.3505  -15.5902  -14.2496 C   0  0  0  0  0  0  0  0  0  0  0  0
   17.1052  -15.7636  -13.0353 O   0  0  0  0  0  0  0  0  0  0  0  0
   15.3222  -12.5954  -15.3294 C   0  0  0  0  0  0  0  0  0  0  0  0
   15.2032  -12.4350  -16.5658 O   0  0  0  0  0  0  0  0  0  0  0  0
   18.0323  -16.6254  -14.9088 O   0  0  0  0  0  0  0  0  0  0  0  0
   15.1926  -11.4082  -14.5196 N   0  0  0  0  0  0  0  0  0  0  0  0
   14.8858  -10.1379  -15.1445 C   0  0  1  0  0  0  0  0  0  0  0  0
   13.6763   -9.5561  -14.4493 C   0  0  0  0  0  0  0  0  0  0  0  0
   12.4373  -10.0474  -15.1122 C   0  0  0  0  0  0  0  0  0  0  0  0
   11.1997   -9.4856  -14.5230 C   0  0  0  0  0  0  0  0  0  0  0  0
   10.0556   -9.7925  -14.9172 O   0  0  0  0  0  0  0  0  0  0  0  0
   16.0743   -9.2591  -14.9543 C   0  0  0  0  0  0  0  0  0  0  0  0
   16.8549   -9.4102  -13.9802 O   0  0  0  0  0  0  0  0  0  0  0  0
   11.3244   -8.5791  -13.4881 O   0  0  0  0  0  0  0  0  0  0  0  0
   16.3606   -8.2064  -15.8890 N   0  0  0  0  0  0  0  0  0  0  0  0
   17.4609   -7.3066  -15.6093 C   0  0  1  0  0  0  0  0  0  0  0  0
   18.0599   -6.7528  -16.8792 C   0  0  0  0  0  0  0  0  0  0  0  0
   19.1206   -5.7698  -16.6243 C   0  0  0  0  0  0  0  0  0  0  0  0
   18.9871   -4.5230  -16.7097 O   0  0  0  0  0  0  0  0  0  0  0  0
   17.0367   -6.2466  -14.6741 C   0  0  0  0  0  0  0  0  0  0  0  0
   15.7161   -6.1228  -14.2661 O   0  0  0  0  0  0  0  0  0  0  0  0
   20.3789   -6.2396  -16.2580 O   0  0  0  0  0  0  0  0  0  0  0  0
   17.8927   -5.4437  -14.2424 O   0  0  0  0  0  0  0  0  0  0  0  0
  2  1  1  6
  2  3  1  0
  3  4  1  0
  4  8  1  0
  5  4  2  0
  6  2  1  0
  6  9  1  0
  7  6  2  0
 10  9  1  0
 11 12  1  0
 10 11  1  1
 12 13  1  0
 13 17  1  0
 14 13  2  0
 15 16  2  0
 15 10  1  0
 18 15  1  0
 19 18  1  0
 19 20  1  6
 21 20  1  0
 21 22  2  0
 23 19  1  0
 24 23  1  0
 25 21  1  0
 26 23  2  0
M  END
$$$$
