DED.pdb
     RDKit          3D

 26 25  0  0  1  0  0  0  0  0999 V2000
   19.1042  -14.4242  -17.8744 N   0  0  0  0  0  0  0  0  0  0  0  0
   18.8544  -13.2492  -17.0746 C   0  0  1  0  0  0  0  0  0  0  0  0
   18.7380  -13.7153  -15.6410 C   0  0  0  0  0  0  0  0  0  0  0  0
   17.4754  -14.3947  -15.3341 C   0  0  0  0  0  0  0  0  0  0  0  0
   16.5589  -14.5666  -16.1680 O   0  0  0  0  0  0  0  0  0  0  0  0
   19.9315  -12.2673  -17.2237 C   0  0  0  0  0  0  0  0  0  0  0  0
   21.0731  -12.5224  -17.6712 O   0  0  0  0  0  0  0  0  0  0  0  0
   17.2516  -14.8921  -14.0404 O   0  0  0  0  0  0  0  0  0  0  0  0
   19.6929  -10.8982  -16.8358 N   0  0  0  0  0  0  0  0  0  0  0  0
   20.7149   -9.8960  -17.0583 C   0  0  1  0  0  0  0  0  0  0  0  0
   20.5901   -9.4111  -18.4844 C   0  0  0  0  0  0  0  0  0  0  0  0
   19.1767   -9.0334  -18.7595 C   0  0  0  0  0  0  0  0  0  0  0  0
   18.9744   -8.4873  -20.1217 C   0  0  0  0  0  0  0  0  0  0  0  0
   19.4060   -7.3725  -20.4813 O   0  0  0  0  0  0  0  0  0  0  0  0
   20.4528   -8.7845  -16.1007 C   0  0  0  0  0  0  0  0  0  0  0  0
   19.3366   -8.6512  -15.5374 O   0  0  0  0  0  0  0  0  0  0  0  0
   18.2736   -9.2533  -21.0329 O   0  0  0  0  0  0  0  0  0  0  0  0
   21.4798   -7.8279  -15.7944 N   0  0  0  0  0  0  0  0  0  0  0  0
   21.1687   -6.7361  -14.8945 C   0  0  1  0  0  0  0  0  0  0  0  0
   22.4007   -5.9357  -14.5482 C   0  0  0  0  0  0  0  0  0  0  0  0
   22.1280   -4.8646  -13.5814 C   0  0  0  0  0  0  0  0  0  0  0  0
   21.0127   -4.6383  -13.0481 O   0  0  0  0  0  0  0  0  0  0  0  0
   20.0879   -5.8994  -15.4511 C   0  0  0  0  0  0  0  0  0  0  0  0
   19.9091   -5.7588  -16.8200 O   0  0  0  0  0  0  0  0  0  0  0  0
   23.1769   -4.0251  -13.2161 O   0  0  0  0  0  0  0  0  0  0  0  0
   19.3179   -5.3054  -14.6650 O   0  0  0  0  0  0  0  0  0  0  0  0
  2  1  1  6
  2  3  1  0
  3  4  1  0
  4  8  1  0
  5  4  2  0
  6  2  1  0
  6  9  1  0
  7  6  2  0
 10  9  1  0
 11 12  1  0
 10 11  1  6
 12 13  1  0
 13 17  1  0
 14 13  2  0
 15 16  2  0
 15 10  1  0
 18 15  1  0
 19 18  1  0
 19 20  1  6
 21 20  1  0
 21 22  2  0
 23 19  1  0
 24 23  1  0
 25 21  1  0
 26 23  2  0
M  END
$$$$
