DED.pdb
     RDKit          3D

 26 25  0  0  1  0  0  0  0  0999 V2000
   19.4727  -12.3800  -15.9279 N   0  0  0  0  0  0  0  0  0  0  0  0
   19.0310  -11.0103  -16.0359 C   0  0  1  0  0  0  0  0  0  0  0  0
   17.7139  -10.9184  -15.2991 C   0  0  0  0  0  0  0  0  0  0  0  0
   16.6633  -11.7850  -15.8426 C   0  0  0  0  0  0  0  0  0  0  0  0
   16.4047  -11.8808  -17.0628 O   0  0  0  0  0  0  0  0  0  0  0  0
   20.0180  -10.0884  -15.4678 C   0  0  0  0  0  0  0  0  0  0  0  0
   20.5816  -10.2401  -14.3598 O   0  0  0  0  0  0  0  0  0  0  0  0
   15.8862  -12.5639  -14.9707 O   0  0  0  0  0  0  0  0  0  0  0  0
   20.3897   -8.9103  -16.2133 N   0  0  0  0  0  0  0  0  0  0  0  0
   21.4688   -8.0673  -15.7408 C   0  0  1  0  0  0  0  0  0  0  0  0
   22.6864   -8.3478  -16.5912 C   0  0  0  0  0  0  0  0  0  0  0  0
   23.8252   -7.5128  -16.1202 C   0  0  0  0  0  0  0  0  0  0  0  0
   25.0673   -7.7301  -16.8977 C   0  0  0  0  0  0  0  0  0  0  0  0
   25.4521   -8.8584  -17.2683 O   0  0  0  0  0  0  0  0  0  0  0  0
   21.0251   -6.6545  -15.9084 C   0  0  0  0  0  0  0  0  0  0  0  0
   20.7928   -6.1684  -17.0445 O   0  0  0  0  0  0  0  0  0  0  0  0
   25.8321   -6.6273  -17.2249 O   0  0  0  0  0  0  0  0  0  0  0  0
   20.8499   -5.8040  -14.7639 N   0  0  0  0  0  0  0  0  0  0  0  0
   20.5027   -4.4137  -14.9759 C   0  0  1  0  0  0  0  0  0  0  0  0
   19.6007   -3.8953  -13.8823 C   0  0  0  0  0  0  0  0  0  0  0  0
   19.2299   -2.4872  -14.0728 C   0  0  0  0  0  0  0  0  0  0  0  0
   19.6252   -1.7563  -15.0158 O   0  0  0  0  0  0  0  0  0  0  0  0
   21.7203   -3.5960  -15.1406 C   0  0  0  0  0  0  0  0  0  0  0  0
   22.9459   -4.0075  -14.6364 O   0  0  0  0  0  0  0  0  0  0  0  0
   18.3736   -1.9008  -13.1448 O   0  0  0  0  0  0  0  0  0  0  0  0
   21.6391   -2.5073  -15.7503 O   0  0  0  0  0  0  0  0  0  0  0  0
  2  1  1  1
  2  3  1  0
  3  4  1  0
  4  8  1  0
  5  4  2  0
  6  2  1  0
  6  9  1  0
  7  6  2  0
 10  9  1  0
 11 12  1  0
 10 11  1  6
 12 13  1  0
 13 17  1  0
 14 13  2  0
 15 16  2  0
 15 10  1  0
 18 15  1  0
 19 18  1  0
 19 20  1  1
 21 20  1  0
 21 22  2  0
 23 19  1  0
 24 23  1  0
 25 21  1  0
 26 23  2  0
M  END
$$$$
