DED.pdb
     RDKit          3D

 26 25  0  0  1  0  0  0  0  0999 V2000
   20.9836  -12.7493  -18.3787 N   0  0  0  0  0  0  0  0  0  0  0  0
   21.7527  -11.8728  -17.5284 C   0  0  1  0  0  0  0  0  0  0  0  0
   23.0584  -11.6084  -18.2433 C   0  0  0  0  0  0  0  0  0  0  0  0
   24.0205  -12.7115  -18.1581 C   0  0  0  0  0  0  0  0  0  0  0  0
   23.6959  -13.9194  -18.1838 O   0  0  0  0  0  0  0  0  0  0  0  0
   21.0335  -10.6236  -17.2654 C   0  0  0  0  0  0  0  0  0  0  0  0
   21.0300   -9.6284  -18.0257 O   0  0  0  0  0  0  0  0  0  0  0  0
   25.3908  -12.4297  -18.0404 O   0  0  0  0  0  0  0  0  0  0  0  0
   20.2641  -10.4981  -16.0513 N   0  0  0  0  0  0  0  0  0  0  0  0
   19.3907   -9.3575  -15.8646 C   0  0  1  0  0  0  0  0  0  0  0  0
   18.1844   -9.8176  -15.0788 C   0  0  0  0  0  0  0  0  0  0  0  0
   17.3656  -10.7361  -15.9166 C   0  0  0  0  0  0  0  0  0  0  0  0
   16.7492  -11.8377  -15.1412 C   0  0  0  0  0  0  0  0  0  0  0  0
   16.1264  -11.6564  -14.0745 O   0  0  0  0  0  0  0  0  0  0  0  0
   20.1608   -8.3387  -15.0964 C   0  0  0  0  0  0  0  0  0  0  0  0
   20.8052   -8.6444  -14.0609 O   0  0  0  0  0  0  0  0  0  0  0  0
   16.8732  -13.1248  -15.6270 O   0  0  0  0  0  0  0  0  0  0  0  0
   20.1860   -6.9676  -15.5245 N   0  0  0  0  0  0  0  0  0  0  0  0
   20.9682   -6.0147  -14.7638 C   0  0  1  0  0  0  0  0  0  0  0  0
   21.9253   -5.2528  -15.6480 C   0  0  0  0  0  0  0  0  0  0  0  0
   22.6294   -4.1819  -14.9312 C   0  0  0  0  0  0  0  0  0  0  0  0
   23.2940   -4.3338  -13.8753 O   0  0  0  0  0  0  0  0  0  0  0  0
   20.0845   -5.1241  -13.9865 C   0  0  0  0  0  0  0  0  0  0  0  0
   20.5227   -4.4936  -12.8305 O   0  0  0  0  0  0  0  0  0  0  0  0
   22.5657   -2.8911  -15.4490 O   0  0  0  0  0  0  0  0  0  0  0  0
   18.9139   -4.9371  -14.3842 O   0  0  0  0  0  0  0  0  0  0  0  0
  2  1  1  6
  2  3  1  0
  3  4  1  0
  4  8  1  0
  5  4  2  0
  6  2  1  0
  6  9  1  0
  7  6  2  0
 10  9  1  0
 11 12  1  0
 10 11  1  1
 12 13  1  0
 13 17  1  0
 14 13  2  0
 15 16  2  0
 15 10  1  0
 18 15  1  0
 19 18  1  0
 19 20  1  6
 21 20  1  0
 21 22  2  0
 23 19  1  0
 24 23  1  0
 25 21  1  0
 26 23  2  0
M  END
$$$$
