DED.pdb
     RDKit          3D

 26 25  0  0  1  0  0  0  0  0999 V2000
   17.1024  -11.8953  -16.4003 N   0  0  0  0  0  0  0  0  0  0  0  0
   18.3343  -12.1854  -15.7066 C   0  0  1  0  0  0  0  0  0  0  0  0
   18.6044  -13.6607  -15.8980 C   0  0  0  0  0  0  0  0  0  0  0  0
   17.6193  -14.5368  -15.2562 C   0  0  0  0  0  0  0  0  0  0  0  0
   16.6740  -14.1194  -14.5512 O   0  0  0  0  0  0  0  0  0  0  0  0
   19.4391  -11.3756  -16.2265 C   0  0  0  0  0  0  0  0  0  0  0  0
   20.6391  -11.5072  -15.8929 O   0  0  0  0  0  0  0  0  0  0  0  0
   17.7147  -15.9275  -15.4229 O   0  0  0  0  0  0  0  0  0  0  0  0
   19.1586  -10.3428  -17.1942 N   0  0  0  0  0  0  0  0  0  0  0  0
   20.2258   -9.4819  -17.6614 C   0  0  1  0  0  0  0  0  0  0  0  0
   19.9365   -9.1191  -19.0998 C   0  0  0  0  0  0  0  0  0  0  0  0
   20.4698  -10.1802  -19.9974 C   0  0  0  0  0  0  0  0  0  0  0  0
   20.2272   -9.9050  -21.4327 C   0  0  0  0  0  0  0  0  0  0  0  0
   19.2806   -9.2018  -21.8425 O   0  0  0  0  0  0  0  0  0  0  0  0
   20.2146   -8.2655  -16.8004 C   0  0  0  0  0  0  0  0  0  0  0  0
   19.1501   -7.8281  -16.2938 O   0  0  0  0  0  0  0  0  0  0  0  0
   21.0936  -10.4559  -22.3569 O   0  0  0  0  0  0  0  0  0  0  0  0
   21.4325   -7.5552  -16.5249 N   0  0  0  0  0  0  0  0  0  0  0  0
   21.3890   -6.4210  -15.6247 C   0  0  1  0  0  0  0  0  0  0  0  0
   22.4923   -6.4874  -14.5968 C   0  0  0  0  0  0  0  0  0  0  0  0
   22.5321   -5.3026  -13.7302 C   0  0  0  0  0  0  0  0  0  0  0  0
   21.9180   -5.1829  -12.6401 O   0  0  0  0  0  0  0  0  0  0  0  0
   21.3995   -5.1564  -16.3856 C   0  0  0  0  0  0  0  0  0  0  0  0
   20.7982   -4.0068  -15.8931 O   0  0  0  0  0  0  0  0  0  0  0  0
   23.3064   -4.2181  -14.1333 O   0  0  0  0  0  0  0  0  0  0  0  0
   21.9655   -5.1266  -17.5002 O   0  0  0  0  0  0  0  0  0  0  0  0
  2  1  1  6
  2  3  1  0
  3  4  1  0
  4  8  1  0
  5  4  2  0
  6  2  1  0
  6  9  1  0
  7  6  2  0
 10  9  1  0
 11 12  1  0
 10 11  1  6
 12 13  1  0
 13 17  1  0
 14 13  2  0
 15 16  2  0
 15 10  1  0
 18 15  1  0
 19 18  1  0
 19 20  1  1
 21 20  1  0
 21 22  2  0
 23 19  1  0
 24 23  1  0
 25 21  1  0
 26 23  2  0
M  END
$$$$
