DED.pdb
     RDKit          3D

 26 25  0  0  1  0  0  0  0  0999 V2000
   16.5776  -12.6218  -14.1558 N   0  0  0  0  0  0  0  0  0  0  0  0
   16.0752  -11.4822  -14.8850 C   0  0  1  0  0  0  0  0  0  0  0  0
   14.5947  -11.3956  -14.5907 C   0  0  0  0  0  0  0  0  0  0  0  0
   13.8339  -12.5807  -14.9988 C   0  0  0  0  0  0  0  0  0  0  0  0
   13.9530  -13.1315  -16.1156 O   0  0  0  0  0  0  0  0  0  0  0  0
   16.7644  -10.2521  -14.4870 C   0  0  0  0  0  0  0  0  0  0  0  0
   16.8841   -9.8508  -13.3067 O   0  0  0  0  0  0  0  0  0  0  0  0
   12.9117  -13.1538  -14.1088 O   0  0  0  0  0  0  0  0  0  0  0  0
   17.3593   -9.4194  -15.5042 N   0  0  0  0  0  0  0  0  0  0  0  0
   18.1882   -8.2944  -15.1228 C   0  0  1  0  0  0  0  0  0  0  0  0
   19.4498   -8.3416  -15.9539 C   0  0  0  0  0  0  0  0  0  0  0  0
   20.4740   -9.1670  -15.2570 C   0  0  0  0  0  0  0  0  0  0  0  0
   21.7336   -9.3025  -16.0249 C   0  0  0  0  0  0  0  0  0  0  0  0
   22.2155  -10.4053  -16.3567 O   0  0  0  0  0  0  0  0  0  0  0  0
   17.4102   -7.0582  -15.4187 C   0  0  0  0  0  0  0  0  0  0  0  0
   16.4797   -7.0534  -16.2643 O   0  0  0  0  0  0  0  0  0  0  0  0
   22.4023   -8.1495  -16.3879 O   0  0  0  0  0  0  0  0  0  0  0  0
   17.7073   -5.8286  -14.7379 N   0  0  0  0  0  0  0  0  0  0  0  0
   16.9570   -4.6398  -15.0878 C   0  0  1  0  0  0  0  0  0  0  0  0
   15.6052   -4.6207  -14.4166 C   0  0  0  0  0  0  0  0  0  0  0  0
   14.9144   -3.3338  -14.5691 C   0  0  0  0  0  0  0  0  0  0  0  0
   14.9100   -2.4098  -13.7171 O   0  0  0  0  0  0  0  0  0  0  0  0
   17.7479   -3.4268  -14.8027 C   0  0  0  0  0  0  0  0  0  0  0  0
   18.8377   -3.4548  -13.9441 O   0  0  0  0  0  0  0  0  0  0  0  0
   14.2042   -3.1033  -15.7441 O   0  0  0  0  0  0  0  0  0  0  0  0
   17.4232   -2.3511  -15.3512 O   0  0  0  0  0  0  0  0  0  0  0  0
  2  1  1  1
  2  3  1  0
  3  4  1  0
  4  8  1  0
  5  4  2  0
  6  2  1  0
  6  9  1  0
  7  6  2  0
 10  9  1  0
 11 12  1  0
 10 11  1  6
 12 13  1  0
 13 17  1  0
 14 13  2  0
 15 16  2  0
 15 10  1  0
 18 15  1  0
 19 18  1  0
 19 20  1  1
 21 20  1  0
 21 22  2  0
 23 19  1  0
 24 23  1  0
 25 21  1  0
 26 23  2  0
M  END
$$$$
