EEQ.pdb
     RDKit          3D

 28 27  0  0  1  0  0  0  0  0999 V2000
   17.7489   -9.9197  -17.3631 N   0  0  0  0  0  0  0  0  0  0  0  0
   17.2802   -9.5978  -16.0644 C   0  0  1  0  0  0  0  0  0  0  0  0
   17.1588  -10.7490  -15.1209 C   0  0  0  0  0  0  0  0  0  0  0  0
   16.5636  -11.9721  -15.7262 C   0  0  0  0  0  0  0  0  0  0  0  0
   16.4735  -13.1187  -14.8168 C   0  0  0  0  0  0  0  0  0  0  0  0
   17.4888  -13.6634  -14.3389 O   0  0  0  0  0  0  0  0  0  0  0  0
   18.2646   -8.6213  -15.4567 C   0  0  0  0  0  0  0  0  0  0  0  0
   18.0970   -8.2316  -14.2939 O   0  0  0  0  0  0  0  0  0  0  0  0
   15.2533  -13.6748  -14.4270 O   0  0  0  0  0  0  0  0  0  0  0  0
   19.3800   -8.1428  -16.1965 N   0  0  0  0  0  0  0  0  0  0  0  0
   20.3814   -7.2489  -15.6867 C   0  0  1  0  0  0  0  0  0  0  0  0
   21.7709   -7.7418  -15.8464 C   0  0  0  0  0  0  0  0  0  0  0  0
   22.1466   -9.0157  -15.1977 C   0  0  0  0  0  0  0  0  0  0  0  0
   23.5066   -9.5170  -15.4272 C   0  0  0  0  0  0  0  0  0  0  0  0
   24.2648   -8.9398  -16.2361 O   0  0  0  0  0  0  0  0  0  0  0  0
   20.2645   -5.8551  -16.1559 C   0  0  0  0  0  0  0  0  0  0  0  0
   20.3070   -5.5572  -17.3936 O   0  0  0  0  0  0  0  0  0  0  0  0
   23.9942  -10.6309  -14.7679 O   0  0  0  0  0  0  0  0  0  0  0  0
   16.3634   -3.7153  -14.3186 N   0  0  0  0  0  0  0  0  0  0  0  0
   16.4699   -3.8316  -15.7246 C   0  0  0  0  0  0  0  0  0  0  0  0
   15.4980   -4.3264  -16.3498 O   0  0  0  0  0  0  0  0  0  0  0  0
   17.7072   -3.3776  -16.4544 C   0  0  0  0  0  0  0  0  0  0  0  0
   18.7041   -2.8197  -15.4381 C   0  0  0  0  0  0  0  0  0  0  0  0
   20.1050   -3.3733  -15.7500 C   0  0  2  0  0  0  0  0  0  0  0  0
   20.0957   -4.7533  -15.2685 N   0  0  0  0  0  0  0  0  0  0  0  0
   21.0328   -2.5124  -14.9875 C   0  0  0  0  0  0  0  0  0  0  0  0
   21.2331   -1.1868  -15.3195 O   0  0  0  0  0  0  0  0  0  0  0  0
   21.6564   -2.9880  -14.0154 O   0  0  0  0  0  0  0  0  0  0  0  0
  2  1  1  6
  2  7  1  0
  2  3  1  0
  4  3  1  0
  4  5  1  0
  5  6  2  0
  7  8  2  0
  9  5  1  0
 10 11  1  0
 10  7  1  0
 11 12  1  6
 12 13  1  0
 13 14  1  0
 14 15  2  0
 14 18  1  0
 16 11  1  0
 17 16  2  0
 20 22  1  0
 20 19  1  0
 21 20  2  0
 23 22  1  0
 24 23  1  1
 24 25  1  0
 25 16  1  0
 26 24  1  0
 27 26  1  0
 28 26  2  0
M  END
$$$$
