EEQ.pdb
     RDKit          3D

 28 27  0  0  1  0  0  0  0  0999 V2000
   18.6876  -12.9466  -17.8681 N   0  0  0  0  0  0  0  0  0  0  0  0
   18.0400  -12.1919  -16.8577 C   0  0  1  0  0  0  0  0  0  0  0  0
   18.5102  -12.4473  -15.4634 C   0  0  0  0  0  0  0  0  0  0  0  0
   18.1935  -13.8100  -14.9542 C   0  0  0  0  0  0  0  0  0  0  0  0
   16.8441  -13.9534  -14.3988 C   0  0  0  0  0  0  0  0  0  0  0  0
   16.0824  -12.9762  -14.2550 O   0  0  0  0  0  0  0  0  0  0  0  0
   18.2901  -10.7287  -17.1547 C   0  0  0  0  0  0  0  0  0  0  0  0
   19.3898  -10.3769  -17.6006 O   0  0  0  0  0  0  0  0  0  0  0  0
   16.3241  -15.1852  -13.9958 O   0  0  0  0  0  0  0  0  0  0  0  0
   17.2846   -9.7491  -16.9316 N   0  0  0  0  0  0  0  0  0  0  0  0
   17.4346   -8.3445  -17.1892 C   0  0  1  0  0  0  0  0  0  0  0  0
   16.1587   -7.6387  -17.4596 C   0  0  0  0  0  0  0  0  0  0  0  0
   16.2040   -6.1961  -17.7779 C   0  0  0  0  0  0  0  0  0  0  0  0
   14.9295   -5.5241  -18.0571 C   0  0  0  0  0  0  0  0  0  0  0  0
   14.0197   -6.1238  -18.6693 O   0  0  0  0  0  0  0  0  0  0  0  0
   18.2341   -7.6129  -16.1882 C   0  0  0  0  0  0  0  0  0  0  0  0
   18.1022   -7.8235  -14.9389 O   0  0  0  0  0  0  0  0  0  0  0  0
   14.6900   -4.2208  -17.6604 O   0  0  0  0  0  0  0  0  0  0  0  0
   21.6667   -7.3882  -13.3623 N   0  0  0  0  0  0  0  0  0  0  0  0
   22.2967   -6.1265  -13.4760 C   0  0  0  0  0  0  0  0  0  0  0  0
   22.9166   -5.6855  -12.4752 O   0  0  0  0  0  0  0  0  0  0  0  0
   22.2298   -5.3323  -14.7545 C   0  0  0  0  0  0  0  0  0  0  0  0
   21.4057   -6.1129  -15.7789 C   0  0  0  0  0  0  0  0  0  0  0  0
   19.9107   -5.8516  -15.5278 C   0  0  2  0  0  0  0  0  0  0  0  0
   19.2025   -6.6297  -16.5423 N   0  0  0  0  0  0  0  0  0  0  0  0
   19.7431   -4.3949  -15.7103 C   0  0  0  0  0  0  0  0  0  0  0  0
   19.0146   -3.8732  -16.7614 O   0  0  0  0  0  0  0  0  0  0  0  0
   20.2708   -3.6073  -14.8970 O   0  0  0  0  0  0  0  0  0  0  0  0
  2  1  1  6
  2  7  1  0
  2  3  1  0
  4  3  1  0
  4  5  1  0
  5  6  2  0
  7  8  2  0
  9  5  1  0
 10 11  1  0
 10  7  1  0
 11 12  1  1
 12 13  1  0
 13 14  1  0
 14 15  2  0
 14 18  1  0
 16 11  1  0
 17 16  2  0
 20 22  1  0
 20 19  1  0
 21 20  2  0
 23 22  1  0
 24 23  1  6
 24 25  1  0
 25 16  1  0
 26 24  1  0
 27 26  1  0
 28 26  2  0
M  END
$$$$
