EEQ.pdb
     RDKit          3D

 28 27  0  0  1  0  0  0  0  0999 V2000
   17.1299  -11.9033  -18.3926 N   0  0  0  0  0  0  0  0  0  0  0  0
   16.9288  -11.0813  -17.2551 C   0  0  1  0  0  0  0  0  0  0  0  0
   17.0445  -11.7705  -15.9353 C   0  0  0  0  0  0  0  0  0  0  0  0
   16.0523  -12.8611  -15.7289 C   0  0  0  0  0  0  0  0  0  0  0  0
   16.1210  -13.5050  -14.4134 C   0  0  0  0  0  0  0  0  0  0  0  0
   15.4175  -13.1261  -13.4556 O   0  0  0  0  0  0  0  0  0  0  0  0
   17.9835   -9.9958  -17.2885 C   0  0  0  0  0  0  0  0  0  0  0  0
   19.1639  -10.2998  -17.5034 O   0  0  0  0  0  0  0  0  0  0  0  0
   16.9729  -14.5786  -14.1457 O   0  0  0  0  0  0  0  0  0  0  0  0
   17.6439   -8.6317  -17.0781 N   0  0  0  0  0  0  0  0  0  0  0  0
   18.5771   -7.5405  -17.0966 C   0  0  1  0  0  0  0  0  0  0  0  0
   17.9613   -6.2219  -17.3817 C   0  0  0  0  0  0  0  0  0  0  0  0
   18.8460   -5.0468  -17.5278 C   0  0  0  0  0  0  0  0  0  0  0  0
   18.2095   -3.7450  -17.7598 C   0  0  0  0  0  0  0  0  0  0  0  0
   16.9638   -3.6448  -17.7776 O   0  0  0  0  0  0  0  0  0  0  0  0
   19.4604   -7.4606  -15.9178 C   0  0  0  0  0  0  0  0  0  0  0  0
   18.9964   -7.4195  -14.7323 O   0  0  0  0  0  0  0  0  0  0  0  0
   18.9523   -2.5964  -17.9655 O   0  0  0  0  0  0  0  0  0  0  0  0
   25.2354   -9.4929  -15.8441 N   0  0  0  0  0  0  0  0  0  0  0  0
   24.0987  -10.2063  -15.3959 C   0  0  0  0  0  0  0  0  0  0  0  0
   24.1683  -11.4609  -15.3575 O   0  0  0  0  0  0  0  0  0  0  0  0
   22.8418   -9.4894  -14.9765 C   0  0  0  0  0  0  0  0  0  0  0  0
   23.0422   -7.9859  -15.1698 C   0  0  0  0  0  0  0  0  0  0  0  0
   21.7289   -7.2559  -14.8400 C   0  0  2  0  0  0  0  0  0  0  0  0
   20.8812   -7.4257  -16.0185 N   0  0  0  0  0  0  0  0  0  0  0  0
   22.1208   -5.8481  -14.6209 C   0  0  0  0  0  0  0  0  0  0  0  0
   22.7575   -5.4426  -13.4643 O   0  0  0  0  0  0  0  0  0  0  0  0
   21.8737   -4.9958  -15.4999 O   0  0  0  0  0  0  0  0  0  0  0  0
  2  1  1  6
  2  7  1  0
  2  3  1  0
  4  3  1  0
  4  5  1  0
  5  6  2  0
  7  8  2  0
  9  5  1  0
 10 11  1  0
 10  7  1  0
 11 12  1  1
 12 13  1  0
 13 14  1  0
 14 15  2  0
 14 18  1  0
 16 11  1  0
 17 16  2  0
 20 22  1  0
 20 19  1  0
 21 20  2  0
 23 22  1  0
 24 23  1  6
 24 25  1  0
 25 16  1  0
 26 24  1  0
 27 26  1  0
 28 26  2  0
M  END
$$$$
