EEQ.pdb
     RDKit          3D

 28 27  0  0  1  0  0  0  0  0999 V2000
   33.2907  -34.2707   -4.0217 N   0  0  0  0  0  0  0  0  0  0  0  0
   32.6285  -35.2747   -4.7721 C   0  0  1  0  0  0  0  0  0  0  0  0
   33.3571  -36.5728   -4.8930 C   0  0  0  0  0  0  0  0  0  0  0  0
   33.9897  -37.0359   -3.6274 C   0  0  0  0  0  0  0  0  0  0  0  0
   34.6787  -38.3263   -3.7285 C   0  0  0  0  0  0  0  0  0  0  0  0
   34.2183  -39.3627   -3.2093 O   0  0  0  0  0  0  0  0  0  0  0  0
   31.3119  -35.5618   -4.0822 C   0  0  0  0  0  0  0  0  0  0  0  0
   30.5158  -36.3582   -4.5960 O   0  0  0  0  0  0  0  0  0  0  0  0
   35.8888  -38.4810   -4.4081 O   0  0  0  0  0  0  0  0  0  0  0  0
   30.9716  -34.9338   -2.8532 N   0  0  0  0  0  0  0  0  0  0  0  0
   29.7529  -35.1558   -2.1271 C   0  0  1  0  0  0  0  0  0  0  0  0
   29.9439  -35.3546   -0.6699 C   0  0  0  0  0  0  0  0  0  0  0  0
   28.7480  -35.5268    0.1814 C   0  0  0  0  0  0  0  0  0  0  0  0
   28.9615  -35.6830    1.6250 C   0  0  0  0  0  0  0  0  0  0  0  0
   30.1158  -35.6341    2.1021 O   0  0  0  0  0  0  0  0  0  0  0  0
   28.6894  -34.1663   -2.3842 C   0  0  0  0  0  0  0  0  0  0  0  0
   28.9551  -32.9582   -2.6884 O   0  0  0  0  0  0  0  0  0  0  0  0
   27.9098  -35.8881    2.4997 O   0  0  0  0  0  0  0  0  0  0  0  0
   26.5461  -33.8825   -7.1659 N   0  0  0  0  0  0  0  0  0  0  0  0
   25.6901  -32.9015   -6.6122 C   0  0  0  0  0  0  0  0  0  0  0  0
   25.0848  -32.1342   -7.4029 O   0  0  0  0  0  0  0  0  0  0  0  0
   25.5060  -32.7766   -5.1222 C   0  0  0  0  0  0  0  0  0  0  0  0
   26.5171  -33.6844   -4.4212 C   0  0  0  0  0  0  0  0  0  0  0  0
   26.2849  -33.6189   -2.9019 C   0  0  2  0  0  0  0  0  0  0  0  0
   27.3030  -34.4869   -2.3135 N   0  0  0  0  0  0  0  0  0  0  0  0
   24.9149  -34.1357   -2.7037 C   0  0  0  0  0  0  0  0  0  0  0  0
   23.8033  -33.3358   -2.8831 O   0  0  0  0  0  0  0  0  0  0  0  0
   24.7486  -35.3264   -2.3651 O   0  0  0  0  0  0  0  0  0  0  0  0
  2  1  1  1
  2  7  1  0
  2  3  1  0
  4  3  1  0
  4  5  1  0
  5  6  2  0
  7  8  2  0
  9  5  1  0
 10 11  1  0
 10  7  1  0
 11 12  1  1
 12 13  1  0
 13 14  1  0
 14 15  2  0
 14 18  1  0
 16 11  1  0
 17 16  2  0
 20 22  1  0
 20 19  1  0
 21 20  2  0
 23 22  1  0
 24 23  1  6
 24 25  1  0
 25 16  1  0
 26 24  1  0
 27 26  1  0
 28 26  2  0
M  END
$$$$
