EEQ.pdb
     RDKit          3D

 28 27  0  0  1  0  0  0  0  0999 V2000
   18.3031  -12.4480  -15.2146 N   0  0  0  0  0  0  0  0  0  0  0  0
   18.3859  -11.5159  -16.2795 C   0  0  1  0  0  0  0  0  0  0  0  0
   17.0787  -11.0026  -16.7878 C   0  0  0  0  0  0  0  0  0  0  0  0
   16.2266  -12.0395  -17.4322 C   0  0  0  0  0  0  0  0  0  0  0  0
   14.9642  -11.5343  -17.9810 C   0  0  0  0  0  0  0  0  0  0  0  0
   14.7625  -11.4575  -19.2095 O   0  0  0  0  0  0  0  0  0  0  0  0
   19.1717  -10.3233  -15.7776 C   0  0  0  0  0  0  0  0  0  0  0  0
   18.8984   -9.8345  -14.6737 O   0  0  0  0  0  0  0  0  0  0  0  0
   13.9098  -11.1076  -17.1709 O   0  0  0  0  0  0  0  0  0  0  0  0
   20.2196   -9.7531  -16.5502 N   0  0  0  0  0  0  0  0  0  0  0  0
   20.9924   -8.6053  -16.1664 C   0  0  1  0  0  0  0  0  0  0  0  0
   22.4376   -8.7159  -16.4804 C   0  0  0  0  0  0  0  0  0  0  0  0
   23.3226   -7.5825  -16.1384 C   0  0  0  0  0  0  0  0  0  0  0  0
   24.7629   -7.7579  -16.3588 C   0  0  0  0  0  0  0  0  0  0  0  0
   25.5386   -6.7814  -16.2748 O   0  0  0  0  0  0  0  0  0  0  0  0
   20.4545   -7.3126  -16.6308 C   0  0  0  0  0  0  0  0  0  0  0  0
   19.9633   -7.1695  -17.7974 O   0  0  0  0  0  0  0  0  0  0  0  0
   25.3091   -8.9914  -16.6642 O   0  0  0  0  0  0  0  0  0  0  0  0
   15.6640   -4.8938  -16.0229 N   0  0  0  0  0  0  0  0  0  0  0  0
   16.2954   -3.6876  -16.4075 C   0  0  0  0  0  0  0  0  0  0  0  0
   15.5644   -2.7144  -16.7216 O   0  0  0  0  0  0  0  0  0  0  0  0
   17.7969   -3.5680  -16.4407 C   0  0  0  0  0  0  0  0  0  0  0  0
   18.4089   -4.9181  -16.0658 C   0  0  0  0  0  0  0  0  0  0  0  0
   19.9266   -4.8694  -16.3121 C   0  0  2  0  0  0  0  0  0  0  0  0
   20.4437   -6.1435  -15.8165 N   0  0  0  0  0  0  0  0  0  0  0  0
   20.4037   -3.7167  -15.5203 C   0  0  0  0  0  0  0  0  0  0  0  0
   21.1738   -3.8830  -14.3859 O   0  0  0  0  0  0  0  0  0  0  0  0
   20.1076   -2.5576  -15.8795 O   0  0  0  0  0  0  0  0  0  0  0  0
  2  1  1  1
  2  7  1  0
  2  3  1  0
  4  3  1  0
  4  5  1  0
  5  6  2  0
  7  8  2  0
  9  5  1  0
 10 11  1  0
 10  7  1  0
 11 12  1  6
 12 13  1  0
 13 14  1  0
 14 15  2  0
 14 18  1  0
 16 11  1  0
 17 16  2  0
 20 22  1  0
 20 19  1  0
 21 20  2  0
 23 22  1  0
 24 23  1  1
 24 25  1  0
 25 16  1  0
 26 24  1  0
 27 26  1  0
 28 26  2  0
M  END
$$$$
