EEQ.pdb
     RDKit          3D

 28 27  0  0  1  0  0  0  0  0999 V2000
   18.7760  -12.6601  -15.7162 N   0  0  0  0  0  0  0  0  0  0  0  0
   19.4887  -11.6290  -16.3785 C   0  0  1  0  0  0  0  0  0  0  0  0
   19.1970  -11.4792  -17.8355 C   0  0  0  0  0  0  0  0  0  0  0  0
   17.9230  -12.1154  -18.2698 C   0  0  0  0  0  0  0  0  0  0  0  0
   17.6505  -12.0122  -19.7069 C   0  0  0  0  0  0  0  0  0  0  0  0
   16.5940  -12.4428  -20.2108 O   0  0  0  0  0  0  0  0  0  0  0  0
   19.1195  -10.3217  -15.7103 C   0  0  0  0  0  0  0  0  0  0  0  0
   17.9849  -10.1788  -15.2368 O   0  0  0  0  0  0  0  0  0  0  0  0
   18.5495  -11.4289  -20.6023 O   0  0  0  0  0  0  0  0  0  0  0  0
   20.0523   -9.2534  -15.6153 N   0  0  0  0  0  0  0  0  0  0  0  0
   19.8076   -8.0062  -14.9471 C   0  0  1  0  0  0  0  0  0  0  0  0
   21.0382   -7.2673  -14.5744 C   0  0  0  0  0  0  0  0  0  0  0  0
   20.9009   -5.9989  -13.8280 C   0  0  0  0  0  0  0  0  0  0  0  0
   22.1345   -5.3104  -13.4305 C   0  0  0  0  0  0  0  0  0  0  0  0
   22.7364   -4.5736  -14.2412 O   0  0  0  0  0  0  0  0  0  0  0  0
   18.8499   -7.1153  -15.6293 C   0  0  0  0  0  0  0  0  0  0  0  0
   18.8998   -6.9113  -16.8856 O   0  0  0  0  0  0  0  0  0  0  0  0
   22.6708   -5.4488  -12.1631 O   0  0  0  0  0  0  0  0  0  0  0  0
   12.9154   -6.1895  -14.2966 N   0  0  0  0  0  0  0  0  0  0  0  0
   13.1372   -5.1285  -15.2060 C   0  0  0  0  0  0  0  0  0  0  0  0
   12.1421   -4.4610  -15.5861 O   0  0  0  0  0  0  0  0  0  0  0  0
   14.5210   -4.8047  -15.7059 C   0  0  0  0  0  0  0  0  0  0  0  0
   15.5104   -5.8030  -15.1040 C   0  0  0  0  0  0  0  0  0  0  0  0
   16.9225   -5.4921  -15.6291 C   0  0  2  0  0  0  0  0  0  0  0  0
   17.8099   -6.4271  -14.9402 N   0  0  0  0  0  0  0  0  0  0  0  0
   17.1704   -4.0869  -15.2453 C   0  0  0  0  0  0  0  0  0  0  0  0
   16.6698   -3.0326  -15.9839 O   0  0  0  0  0  0  0  0  0  0  0  0
   17.8495   -3.8369  -14.2272 O   0  0  0  0  0  0  0  0  0  0  0  0
  2  1  1  1
  2  7  1  0
  2  3  1  0
  4  3  1  0
  4  5  1  0
  5  6  2  0
  7  8  2  0
  9  5  1  0
 10 11  1  0
 10  7  1  0
 11 12  1  6
 12 13  1  0
 13 14  1  0
 14 15  2  0
 14 18  1  0
 16 11  1  0
 17 16  2  0
 20 22  1  0
 20 19  1  0
 21 20  2  0
 23 22  1  0
 24 23  1  1
 24 25  1  0
 25 16  1  0
 26 24  1  0
 27 26  1  0
 28 26  2  0
M  END
$$$$
