EEQ.pdb
     RDKit          3D

 28 27  0  0  1  0  0  0  0  0999 V2000
   19.7522  -12.9107  -20.3689 N   0  0  0  0  0  0  0  0  0  0  0  0
   19.9388  -13.2249  -18.9992 C   0  0  1  0  0  0  0  0  0  0  0  0
   20.6885  -14.4872  -18.7253 C   0  0  0  0  0  0  0  0  0  0  0  0
   21.1206  -15.2163  -19.9494 C   0  0  0  0  0  0  0  0  0  0  0  0
   21.7373  -16.5218  -19.6938 C   0  0  0  0  0  0  0  0  0  0  0  0
   21.8827  -16.9681  -18.5382 O   0  0  0  0  0  0  0  0  0  0  0  0
   20.7266  -12.0913  -18.3776 C   0  0  0  0  0  0  0  0  0  0  0  0
   20.8737  -12.0536  -17.1492 O   0  0  0  0  0  0  0  0  0  0  0  0
   22.2007  -17.3479  -20.7199 O   0  0  0  0  0  0  0  0  0  0  0  0
   21.3021  -11.0679  -19.1787 N   0  0  0  0  0  0  0  0  0  0  0  0
   21.9013   -9.8660  -18.6703 C   0  0  1  0  0  0  0  0  0  0  0  0
   22.5761   -9.0423  -19.7025 C   0  0  0  0  0  0  0  0  0  0  0  0
   23.3483   -7.8595  -19.2675 C   0  0  0  0  0  0  0  0  0  0  0  0
   24.0065   -7.0607  -20.3079 C   0  0  0  0  0  0  0  0  0  0  0  0
   24.9391   -7.5474  -20.9830 O   0  0  0  0  0  0  0  0  0  0  0  0
   21.0115   -9.0343  -17.8379 C   0  0  0  0  0  0  0  0  0  0  0  0
   19.7495   -9.0207  -18.0100 O   0  0  0  0  0  0  0  0  0  0  0  0
   23.6267   -5.7582  -20.5769 O   0  0  0  0  0  0  0  0  0  0  0  0
   18.1946  -10.1798  -13.6937 N   0  0  0  0  0  0  0  0  0  0  0  0
   18.0079   -8.7964  -13.4633 C   0  0  0  0  0  0  0  0  0  0  0  0
   17.1500   -8.4517  -12.6116 O   0  0  0  0  0  0  0  0  0  0  0  0
   18.8102   -7.7645  -14.2126 C   0  0  0  0  0  0  0  0  0  0  0  0
   19.7467   -8.4786  -15.1877 C   0  0  0  0  0  0  0  0  0  0  0  0
   20.5835   -7.4310  -15.9417 C   0  0  2  0  0  0  0  0  0  0  0  0
   21.4937   -8.1962  -16.7914 N   0  0  0  0  0  0  0  0  0  0  0  0
   21.2912   -6.6776  -14.8858 C   0  0  0  0  0  0  0  0  0  0  0  0
   20.6326   -5.7817  -14.0665 O   0  0  0  0  0  0  0  0  0  0  0  0
   22.5176   -6.8496  -14.7229 O   0  0  0  0  0  0  0  0  0  0  0  0
  2  1  1  6
  2  7  1  0
  2  3  1  0
  4  3  1  0
  4  5  1  0
  5  6  2  0
  7  8  2  0
  9  5  1  0
 10 11  1  0
 10  7  1  0
 11 12  1  6
 12 13  1  0
 13 14  1  0
 14 15  2  0
 14 18  1  0
 16 11  1  0
 17 16  2  0
 20 22  1  0
 20 19  1  0
 21 20  2  0
 23 22  1  0
 24 23  1  1
 24 25  1  0
 25 16  1  0
 26 24  1  0
 27 26  1  0
 28 26  2  0
M  END
$$$$
