EEQ.pdb
     RDKit          3D

 28 27  0  0  1  0  0  0  0  0999 V2000
   26.0756  -22.5286  -14.0092 N   0  0  0  0  0  0  0  0  0  0  0  0
   25.8707  -21.7673  -15.1874 C   0  0  1  0  0  0  0  0  0  0  0  0
   26.2023  -22.4616  -16.4674 C   0  0  0  0  0  0  0  0  0  0  0  0
   26.9345  -23.7459  -16.2914 C   0  0  0  0  0  0  0  0  0  0  0  0
   26.0788  -24.8973  -15.9880 C   0  0  0  0  0  0  0  0  0  0  0  0
   26.0700  -25.4347  -14.8624 O   0  0  0  0  0  0  0  0  0  0  0  0
   24.4023  -21.4032  -15.2418 C   0  0  0  0  0  0  0  0  0  0  0  0
   23.9789  -20.7181  -16.1817 O   0  0  0  0  0  0  0  0  0  0  0  0
   25.2217  -25.4662  -16.9324 O   0  0  0  0  0  0  0  0  0  0  0  0
   23.4983  -21.8340  -14.2330 N   0  0  0  0  0  0  0  0  0  0  0  0
   22.0885  -21.5617  -14.2225 C   0  0  1  0  0  0  0  0  0  0  0  0
   21.3243  -22.3630  -13.2360 C   0  0  0  0  0  0  0  0  0  0  0  0
   19.8522  -22.2332  -13.2101 C   0  0  0  0  0  0  0  0  0  0  0  0
   19.1194  -23.0322  -12.2210 C   0  0  0  0  0  0  0  0  0  0  0  0
   17.8914  -22.8652  -12.0582 O   0  0  0  0  0  0  0  0  0  0  0  0
   21.7341  -20.1332  -14.1218 C   0  0  0  0  0  0  0  0  0  0  0  0
   22.0892  -19.4215  -13.1269 O   0  0  0  0  0  0  0  0  0  0  0  0
   19.7498  -23.9857  -11.4422 O   0  0  0  0  0  0  0  0  0  0  0  0
   21.0911  -16.1120  -18.7754 N   0  0  0  0  0  0  0  0  0  0  0  0
   20.8717  -15.3020  -17.6364 C   0  0  0  0  0  0  0  0  0  0  0  0
   20.8965  -14.0542  -17.7876 O   0  0  0  0  0  0  0  0  0  0  0  0
   20.6157  -15.9109  -16.2824 C   0  0  0  0  0  0  0  0  0  0  0  0
   20.8518  -17.4192  -16.3658 C   0  0  0  0  0  0  0  0  0  0  0  0
   20.6172  -18.0437  -14.9797 C   0  0  2  0  0  0  0  0  0  0  0  0
   20.9786  -19.4529  -15.1200 N   0  0  0  0  0  0  0  0  0  0  0  0
   19.1765  -17.8509  -14.7144 C   0  0  0  0  0  0  0  0  0  0  0  0
   18.2176  -18.6685  -15.2797 O   0  0  0  0  0  0  0  0  0  0  0  0
   18.8072  -16.9264  -13.9599 O   0  0  0  0  0  0  0  0  0  0  0  0
  2  1  1  1
  2  7  1  0
  2  3  1  0
  4  3  1  0
  4  5  1  0
  5  6  2  0
  7  8  2  0
  9  5  1  0
 10 11  1  0
 10  7  1  0
 11 12  1  1
 12 13  1  0
 13 14  1  0
 14 15  2  0
 14 18  1  0
 16 11  1  0
 17 16  2  0
 20 22  1  0
 20 19  1  0
 21 20  2  0
 23 22  1  0
 24 23  1  6
 24 25  1  0
 25 16  1  0
 26 24  1  0
 27 26  1  0
 28 26  2  0
M  END
$$$$
