EEQ.pdb
     RDKit          3D

 28 27  0  0  1  0  0  0  0  0999 V2000
   15.1181  -12.6403  -15.6769 N   0  0  0  0  0  0  0  0  0  0  0  0
   16.3817  -12.7466  -15.0431 C   0  0  1  0  0  0  0  0  0  0  0  0
   17.0679  -14.0645  -15.1941 C   0  0  0  0  0  0  0  0  0  0  0  0
   16.8385  -14.7231  -16.5094 C   0  0  0  0  0  0  0  0  0  0  0  0
   17.5376  -16.0007  -16.6801 C   0  0  0  0  0  0  0  0  0  0  0  0
   18.2118  -16.5116  -15.7635 O   0  0  0  0  0  0  0  0  0  0  0  0
   17.2853  -11.6975  -15.6553 C   0  0  0  0  0  0  0  0  0  0  0  0
   18.4632  -11.6164  -15.2840 O   0  0  0  0  0  0  0  0  0  0  0  0
   17.4962  -16.7267  -17.8723 O   0  0  0  0  0  0  0  0  0  0  0  0
   16.8067  -10.8025  -16.6505 N   0  0  0  0  0  0  0  0  0  0  0  0
   17.5670   -9.7270  -17.2222 C   0  0  1  0  0  0  0  0  0  0  0  0
   17.1364   -9.3400  -18.5875 C   0  0  0  0  0  0  0  0  0  0  0  0
   17.8964   -8.2883  -19.2955 C   0  0  0  0  0  0  0  0  0  0  0  0
   17.4077   -7.8721  -20.6152 C   0  0  0  0  0  0  0  0  0  0  0  0
   17.0329   -6.6954  -20.8081 O   0  0  0  0  0  0  0  0  0  0  0  0
   17.7023   -8.5373  -16.3604 C   0  0  0  0  0  0  0  0  0  0  0  0
   16.7008   -8.0206  -15.7666 O   0  0  0  0  0  0  0  0  0  0  0  0
   17.3431   -8.7526  -21.6799 O   0  0  0  0  0  0  0  0  0  0  0  0
   23.2114   -6.0111  -14.4745 N   0  0  0  0  0  0  0  0  0  0  0  0
   22.2630   -5.1904  -13.8200 C   0  0  0  0  0  0  0  0  0  0  0  0
   22.6913   -4.3020  -13.0405 O   0  0  0  0  0  0  0  0  0  0  0  0
   20.7846   -5.3712  -14.0470 C   0  0  0  0  0  0  0  0  0  0  0  0
   20.5698   -6.5625  -14.9810 C   0  0  0  0  0  0  0  0  0  0  0  0
   19.0626   -6.7422  -15.2305 C   0  0  2  0  0  0  0  0  0  0  0  0
   18.9496   -7.8881  -16.1307 N   0  0  0  0  0  0  0  0  0  0  0  0
   18.6283   -5.4791  -15.8624 C   0  0  0  0  0  0  0  0  0  0  0  0
   18.1725   -4.4113  -15.1142 O   0  0  0  0  0  0  0  0  0  0  0  0
   18.6713   -5.3654  -17.1055 O   0  0  0  0  0  0  0  0  0  0  0  0
  2  1  1  6
  2  7  1  0
  2  3  1  0
  4  3  1  0
  4  5  1  0
  5  6  2  0
  7  8  2  0
  9  5  1  0
 10 11  1  0
 10  7  1  0
 11 12  1  6
 12 13  1  0
 13 14  1  0
 14 15  2  0
 14 18  1  0
 16 11  1  0
 17 16  2  0
 20 22  1  0
 20 19  1  0
 21 20  2  0
 23 22  1  0
 24 23  1  6
 24 25  1  0
 25 16  1  0
 26 24  1  0
 27 26  1  0
 28 26  2  0
M  END
$$$$
