EEQ.pdb
     RDKit          3D

 28 27  0  0  1  0  0  0  0  0999 V2000
   25.1152  -20.7129  -13.6089 N   0  0  0  0  0  0  0  0  0  0  0  0
   23.9389  -20.6081  -14.3933 C   0  0  1  0  0  0  0  0  0  0  0  0
   23.8432  -21.5610  -15.5392 C   0  0  0  0  0  0  0  0  0  0  0  0
   24.5638  -22.8460  -15.3243 C   0  0  0  0  0  0  0  0  0  0  0  0
   25.8413  -22.9534  -16.0358 C   0  0  0  0  0  0  0  0  0  0  0  0
   26.3086  -22.0065  -16.6997 O   0  0  0  0  0  0  0  0  0  0  0  0
   22.7611  -20.8820  -13.4824 C   0  0  0  0  0  0  0  0  0  0  0  0
   22.9172  -21.5948  -12.4826 O   0  0  0  0  0  0  0  0  0  0  0  0
   26.6159  -24.1152  -16.0186 O   0  0  0  0  0  0  0  0  0  0  0  0
   21.4774  -20.3352  -13.7530 N   0  0  0  0  0  0  0  0  0  0  0  0
   20.3040  -20.5605  -12.9567 C   0  0  1  0  0  0  0  0  0  0  0  0
   19.1983  -19.6092  -13.2249 C   0  0  0  0  0  0  0  0  0  0  0  0
   17.9763  -19.6965  -12.3981 C   0  0  0  0  0  0  0  0  0  0  0  0
   16.8403  -18.8482  -12.7773 C   0  0  0  0  0  0  0  0  0  0  0  0
   16.9039  -18.1242  -13.7942 O   0  0  0  0  0  0  0  0  0  0  0  0
   19.8097  -21.9504  -12.9611 C   0  0  0  0  0  0  0  0  0  0  0  0
   19.7511  -22.6392  -14.0310 O   0  0  0  0  0  0  0  0  0  0  0  0
   15.6737  -18.8169  -12.0349 O   0  0  0  0  0  0  0  0  0  0  0  0
   19.0349  -25.2977   -7.7150 N   0  0  0  0  0  0  0  0  0  0  0  0
   18.1059  -24.2958   -8.0822 C   0  0  0  0  0  0  0  0  0  0  0  0
   17.3491  -23.8385   -7.1886 O   0  0  0  0  0  0  0  0  0  0  0  0
   18.0224  -23.7893   -9.4986 C   0  0  0  0  0  0  0  0  0  0  0  0
   19.0818  -24.5002  -10.3413 C   0  0  0  0  0  0  0  0  0  0  0  0
   18.9699  -24.0228  -11.7994 C   0  0  2  0  0  0  0  0  0  0  0  0
   19.3684  -22.6167  -11.7815 N   0  0  0  0  0  0  0  0  0  0  0  0
   17.5464  -24.2049  -12.1512 C   0  0  0  0  0  0  0  0  0  0  0  0
   17.0300  -25.4450  -12.4724 O   0  0  0  0  0  0  0  0  0  0  0  0
   16.7828  -23.2165  -12.1607 O   0  0  0  0  0  0  0  0  0  0  0  0
  2  1  1  1
  2  7  1  0
  2  3  1  0
  4  3  1  0
  4  5  1  0
  5  6  2  0
  7  8  2  0
  9  5  1  0
 10 11  1  0
 10  7  1  0
 11 12  1  6
 12 13  1  0
 13 14  1  0
 14 15  2  0
 14 18  1  0
 16 11  1  0
 17 16  2  0
 20 22  1  0
 20 19  1  0
 21 20  2  0
 23 22  1  0
 24 23  1  1
 24 25  1  0
 25 16  1  0
 26 24  1  0
 27 26  1  0
 28 26  2  0
M  END
$$$$
