EEQ.pdb
     RDKit          3D

 28 27  0  0  1  0  0  0  0  0999 V2000
   20.6222  -13.1512  -15.5271 N   0  0  0  0  0  0  0  0  0  0  0  0
   20.6560  -12.7777  -16.8943 C   0  0  1  0  0  0  0  0  0  0  0  0
   19.5604  -13.3373  -17.7409 C   0  0  0  0  0  0  0  0  0  0  0  0
   18.7054  -14.3390  -17.0463 C   0  0  0  0  0  0  0  0  0  0  0  0
   17.5831  -13.7655  -16.2970 C   0  0  0  0  0  0  0  0  0  0  0  0
   17.7563  -13.0930  -15.2609 O   0  0  0  0  0  0  0  0  0  0  0  0
   20.5438  -11.2692  -16.9547 C   0  0  0  0  0  0  0  0  0  0  0  0
   21.1084  -10.6525  -17.8672 O   0  0  0  0  0  0  0  0  0  0  0  0
   16.2535  -13.9324  -16.6899 O   0  0  0  0  0  0  0  0  0  0  0  0
   19.8009  -10.5460  -15.9824 N   0  0  0  0  0  0  0  0  0  0  0  0
   19.5342   -9.1360  -16.0341 C   0  0  1  0  0  0  0  0  0  0  0  0
   18.2453   -8.7405  -15.4163 C   0  0  0  0  0  0  0  0  0  0  0  0
   17.8567   -7.3147  -15.4459 C   0  0  0  0  0  0  0  0  0  0  0  0
   16.6189   -6.9359  -14.7545 C   0  0  0  0  0  0  0  0  0  0  0  0
   16.2079   -5.7562  -14.7953 O   0  0  0  0  0  0  0  0  0  0  0  0
   20.6318   -8.2795  -15.5462 C   0  0  0  0  0  0  0  0  0  0  0  0
   21.3772   -8.6309  -14.5750 O   0  0  0  0  0  0  0  0  0  0  0  0
   15.8713   -7.8555  -14.0413 O   0  0  0  0  0  0  0  0  0  0  0  0
   24.8938   -2.4287  -17.3850 N   0  0  0  0  0  0  0  0  0  0  0  0
   23.8896   -3.4169  -17.5143 C   0  0  0  0  0  0  0  0  0  0  0  0
   23.2787   -3.4957  -18.6102 O   0  0  0  0  0  0  0  0  0  0  0  0
   23.5590   -4.3482  -16.3772 C   0  0  0  0  0  0  0  0  0  0  0  0
   22.4181   -5.2701  -16.8087 C   0  0  0  0  0  0  0  0  0  0  0  0
   22.0512   -6.1996  -15.6391 C   0  0  2  0  0  0  0  0  0  0  0  0
   20.9355   -7.0116  -16.1208 N   0  0  0  0  0  0  0  0  0  0  0  0
   21.6601   -5.2923  -14.5404 C   0  0  0  0  0  0  0  0  0  0  0  0
   22.5662   -4.8747  -13.5853 O   0  0  0  0  0  0  0  0  0  0  0  0
   20.4808   -4.8876  -14.4658 O   0  0  0  0  0  0  0  0  0  0  0  0
  2  1  1  1
  2  7  1  0
  2  3  1  0
  4  3  1  0
  4  5  1  0
  5  6  2  0
  7  8  2  0
  9  5  1  0
 10 11  1  0
 10  7  1  0
 11 12  1  1
 12 13  1  0
 13 14  1  0
 14 15  2  0
 14 18  1  0
 16 11  1  0
 17 16  2  0
 20 22  1  0
 20 19  1  0
 21 20  2  0
 23 22  1  0
 24 23  1  6
 24 25  1  0
 25 16  1  0
 26 24  1  0
 27 26  1  0
 28 26  2  0
M  END
$$$$
