EEQ.pdb
     RDKit          3D

 28 27  0  0  1  0  0  0  0  0999 V2000
   17.7079  -12.2163  -14.9406 N   0  0  0  0  0  0  0  0  0  0  0  0
   17.5719  -10.8373  -15.2397 C   0  0  1  0  0  0  0  0  0  0  0  0
   16.1888  -10.3859  -15.5770 C   0  0  0  0  0  0  0  0  0  0  0  0
   15.6518  -10.9615  -16.8407 C   0  0  0  0  0  0  0  0  0  0  0  0
   14.3240  -10.4671  -17.2182 C   0  0  0  0  0  0  0  0  0  0  0  0
   13.7156   -9.6207  -16.5333 O   0  0  0  0  0  0  0  0  0  0  0  0
   18.0106  -10.0627  -14.0152 C   0  0  0  0  0  0  0  0  0  0  0  0
   17.7629  -10.5125  -12.8889 O   0  0  0  0  0  0  0  0  0  0  0  0
   13.6553  -10.9077  -18.3623 O   0  0  0  0  0  0  0  0  0  0  0  0
   18.7031   -8.8272  -14.1337 N   0  0  0  0  0  0  0  0  0  0  0  0
   19.1304   -8.0156  -13.0288 C   0  0  1  0  0  0  0  0  0  0  0  0
   20.2773   -7.1277  -13.3376 C   0  0  0  0  0  0  0  0  0  0  0  0
   20.8489   -6.3086  -12.2480 C   0  0  0  0  0  0  0  0  0  0  0  0
   22.0135   -5.4748  -12.5674 C   0  0  0  0  0  0  0  0  0  0  0  0
   22.2398   -4.4303  -11.9193 O   0  0  0  0  0  0  0  0  0  0  0  0
   18.0525   -7.2629  -12.3596 C   0  0  0  0  0  0  0  0  0  0  0  0
   17.3221   -6.4314  -12.9903 O   0  0  0  0  0  0  0  0  0  0  0  0
   22.8918   -5.8070  -13.5831 O   0  0  0  0  0  0  0  0  0  0  0  0
   13.8835   -9.4543   -8.6964 N   0  0  0  0  0  0  0  0  0  0  0  0
   13.5790   -8.0766   -8.5924 C   0  0  0  0  0  0  0  0  0  0  0  0
   12.5012   -7.7524   -8.0323 O   0  0  0  0  0  0  0  0  0  0  0  0
   14.5140   -7.0269   -9.1341 C   0  0  0  0  0  0  0  0  0  0  0  0
   15.7584   -7.7154   -9.6955 C   0  0  0  0  0  0  0  0  0  0  0  0
   16.6715   -6.6586  -10.3404 C   0  0  2  0  0  0  0  0  0  0  0  0
   17.7521   -7.4110  -10.9747 N   0  0  0  0  0  0  0  0  0  0  0  0
   17.1442   -5.8262   -9.2147 C   0  0  0  0  0  0  0  0  0  0  0  0
   16.4397   -4.7193   -8.7834 O   0  0  0  0  0  0  0  0  0  0  0  0
   18.2080   -6.1245   -8.6321 O   0  0  0  0  0  0  0  0  0  0  0  0
  2  1  1  1
  2  7  1  0
  2  3  1  0
  4  3  1  0
  4  5  1  0
  5  6  2  0
  7  8  2  0
  9  5  1  0
 10 11  1  0
 10  7  1  0
 11 12  1  6
 12 13  1  0
 13 14  1  0
 14 15  2  0
 14 18  1  0
 16 11  1  0
 17 16  2  0
 20 22  1  0
 20 19  1  0
 21 20  2  0
 23 22  1  0
 24 23  1  1
 24 25  1  0
 25 16  1  0
 26 24  1  0
 27 26  1  0
 28 26  2  0
M  END
$$$$
