CAS.pdb
     RDKit          3D

 18 17  0  0  1  0  0  0  0  0999 V2000
    7.5477  -15.6869   16.7951 N   0  0  0  0  0  0  0  0  0  0  0  0
    8.8377  -15.2961   17.3113 C   0  0  1  0  0  0  0  0  0  0  0  0
    8.7092  -14.3435   18.4752 C   0  0  0  0  0  0  0  0  0  0  0  0
    7.8715  -12.8462   17.8733 S   0  0  0  0  0  0  0  0  0  0  0  0
    9.6734  -16.4757   17.6302 C   0  0  0  0  0  0  0  0  0  0  0  0
    9.1433  -17.4204   18.2695 O   0  0  0  0  0  0  0  0  0  0  0  0
   13.2046  -17.5262   16.9116 C   0  0  0  0  0  0  0  0  0  0  0  0
   11.8322  -17.7937   17.5429 C   0  0  2  0  0  0  0  0  0  0  0  0
   11.0283  -16.6246   17.2706 N   0  0  0  0  0  0  0  0  0  0  0  0
   12.0837  -17.9677   19.0042 C   0  0  0  0  0  0  0  0  0  0  0  0
   12.2645  -16.9588   19.7318 O   0  0  0  0  0  0  0  0  0  0  0  0
   10.7093  -21.1776   20.9935 O   0  0  0  0  0  0  0  0  0  0  0  0
   11.1514  -20.0704   21.7158 C   0  0  0  0  0  0  0  0  0  0  0  0
   12.3477  -19.4518   21.0339 C   0  0  2  0  0  0  0  0  0  0  0  0
   12.1284  -19.2470   19.6192 N   0  0  0  0  0  0  0  0  0  0  0  0
   13.4874  -20.3954   21.1883 C   0  0  0  0  0  0  0  0  0  0  0  0
   14.0160  -20.9708   20.1917 O   0  0  0  0  0  0  0  0  0  0  0  0
   14.0432  -20.7051   22.4309 O   0  0  0  0  0  0  0  0  0  0  0  0
  2  1  1  1
  2  3  1  0
  4  3  1  0
  5  2  1  0
  6  5  2  0
  8  7  1  6
  8  9  1  0
  9  5  1  0
 10  8  1  0
 10 15  1  0
 11 10  2  0
 13 12  1  0
 14 13  1  6
 14 15  1  0
 14 16  1  0
 16 18  1  0
 17 16  2  0
M  END
$$$$
