CAS.pdb
     RDKit          3D

 18 17  0  0  1  0  0  0  0  0999 V2000
    7.9261  -13.1690   16.3371 N   0  0  0  0  0  0  0  0  0  0  0  0
    7.6895  -14.3141   17.1833 C   0  0  1  0  0  0  0  0  0  0  0  0
    8.0251  -15.6075   16.4809 C   0  0  0  0  0  0  0  0  0  0  0  0
    7.9255  -16.9446   17.7091 S   0  0  0  0  0  0  0  0  0  0  0  0
    8.3802  -14.1773   18.4855 C   0  0  0  0  0  0  0  0  0  0  0  0
    9.6214  -13.9725   18.4778 O   0  0  0  0  0  0  0  0  0  0  0  0
    7.3424  -14.1054   22.0868 C   0  0  0  0  0  0  0  0  0  0  0  0
    8.4356  -14.2100   21.0155 C   0  0  2  0  0  0  0  0  0  0  0  0
    7.7510  -14.2591   19.7442 N   0  0  0  0  0  0  0  0  0  0  0  0
    9.1665  -15.4797   21.3029 C   0  0  0  0  0  0  0  0  0  0  0  0
    8.6624  -16.5809   20.9668 O   0  0  0  0  0  0  0  0  0  0  0  0
   13.0469  -15.3785   22.8001 O   0  0  0  0  0  0  0  0  0  0  0  0
   12.6356  -16.5529   22.1719 C   0  0  0  0  0  0  0  0  0  0  0  0
   11.1394  -16.7095   22.2963 C   0  0  2  0  0  0  0  0  0  0  0  0
   10.4297  -15.4976   21.9514 N   0  0  0  0  0  0  0  0  0  0  0  0
   10.8401  -17.0259   23.7188 C   0  0  0  0  0  0  0  0  0  0  0  0
   10.0653  -16.3041   24.4134 O   0  0  0  0  0  0  0  0  0  0  0  0
   11.3891  -18.1293   24.3746 O   0  0  0  0  0  0  0  0  0  0  0  0
  2  1  1  6
  2  3  1  0
  4  3  1  0
  5  2  1  0
  6  5  2  0
  8  7  1  1
  8  9  1  0
  9  5  1  0
 10  8  1  0
 10 15  1  0
 11 10  2  0
 13 12  1  0
 14 13  1  1
 14 15  1  0
 14 16  1  0
 16 18  1  0
 17 16  2  0
M  END
$$$$
