CAS.pdb
     RDKit          3D

 18 17  0  0  1  0  0  0  0  0999 V2000
    7.2117  -13.7637   18.1637 N   0  0  0  0  0  0  0  0  0  0  0  0
    8.4622  -13.8910   18.8731 C   0  0  1  0  0  0  0  0  0  0  0  0
    9.1823  -12.5684   18.9791 C   0  0  0  0  0  0  0  0  0  0  0  0
   10.7479  -12.8611   19.8561 S   0  0  0  0  0  0  0  0  0  0  0  0
    8.2750  -14.5445   20.1881 C   0  0  0  0  0  0  0  0  0  0  0  0
    7.4219  -14.0578   20.9741 O   0  0  0  0  0  0  0  0  0  0  0  0
    8.5500  -17.7805   21.6694 C   0  0  0  0  0  0  0  0  0  0  0  0
    8.8288  -16.2946   21.9304 C   0  0  2  0  0  0  0  0  0  0  0  0
    8.9836  -15.6791   20.6326 N   0  0  0  0  0  0  0  0  0  0  0  0
   10.0946  -16.2511   22.7210 C   0  0  0  0  0  0  0  0  0  0  0  0
   10.8525  -15.2522   22.6330 O   0  0  0  0  0  0  0  0  0  0  0  0
   10.9684  -16.3374   27.0813 O   0  0  0  0  0  0  0  0  0  0  0  0
   10.3402  -16.3438   25.8370 C   0  0  0  0  0  0  0  0  0  0  0  0
   11.1762  -17.1082   24.8393 C   0  0  2  0  0  0  0  0  0  0  0  0
   10.4866  -17.3085   23.5840 N   0  0  0  0  0  0  0  0  0  0  0  0
   11.4581  -18.4464   25.4250 C   0  0  0  0  0  0  0  0  0  0  0  0
   12.2863  -18.5989   26.3709 O   0  0  0  0  0  0  0  0  0  0  0  0
   10.8336  -19.6106   24.9740 O   0  0  0  0  0  0  0  0  0  0  0  0
  2  1  1  1
  2  3  1  0
  4  3  1  0
  5  2  1  0
  6  5  2  0
  8  7  1  6
  8  9  1  0
  9  5  1  0
 10  8  1  0
 10 15  1  0
 11 10  2  0
 13 12  1  0
 14 13  1  1
 14 15  1  0
 14 16  1  0
 16 18  1  0
 17 16  2  0
M  END
$$$$
