CAS.pdb
     RDKit          3D

 18 17  0  0  1  0  0  0  0  0999 V2000
    8.0269  -14.5023   17.4886 N   0  0  0  0  0  0  0  0  0  0  0  0
    8.5868  -13.9958   18.7187 C   0  0  1  0  0  0  0  0  0  0  0  0
    8.1251  -12.5875   19.0054 C   0  0  0  0  0  0  0  0  0  0  0  0
    9.4382  -11.4543   18.4600 S   0  0  0  0  0  0  0  0  0  0  0  0
    8.3354  -14.9187   19.8486 C   0  0  0  0  0  0  0  0  0  0  0  0
    7.1646  -15.3492   20.0111 O   0  0  0  0  0  0  0  0  0  0  0  0
    9.9105  -17.4524   21.7288 C   0  0  0  0  0  0  0  0  0  0  0  0
    9.0540  -16.1931   21.9137 C   0  0  2  0  0  0  0  0  0  0  0  0
    9.3132  -15.3567   20.7646 N   0  0  0  0  0  0  0  0  0  0  0  0
    9.5286  -15.5608   23.1802 C   0  0  0  0  0  0  0  0  0  0  0  0
   10.6804  -15.0605   23.2356 O   0  0  0  0  0  0  0  0  0  0  0  0
    6.8302  -14.3708   25.9603 O   0  0  0  0  0  0  0  0  0  0  0  0
    8.1160  -13.8407   26.0531 C   0  0  0  0  0  0  0  0  0  0  0  0
    9.1286  -14.8525   25.5739 C   0  0  2  0  0  0  0  0  0  0  0  0
    8.7206  -15.4989   24.3464 N   0  0  0  0  0  0  0  0  0  0  0  0
    9.2462  -15.8989   26.6248 C   0  0  0  0  0  0  0  0  0  0  0  0
    9.6595  -15.6288   27.7910 O   0  0  0  0  0  0  0  0  0  0  0  0
    8.9115  -17.2347   26.3958 O   0  0  0  0  0  0  0  0  0  0  0  0
  2  1  1  6
  2  3  1  0
  4  3  1  0
  5  2  1  0
  6  5  2  0
  8  7  1  6
  8  9  1  0
  9  5  1  0
 10  8  1  0
 10 15  1  0
 11 10  2  0
 13 12  1  0
 14 13  1  1
 14 15  1  0
 14 16  1  0
 16 18  1  0
 17 16  2  0
M  END
$$$$
