CAS.pdb
     RDKit          3D

 18 17  0  0  1  0  0  0  0  0999 V2000
    8.1325  -15.5572   21.2560 N   0  0  0  0  0  0  0  0  0  0  0  0
    7.4013  -15.7020   22.4919 C   0  0  1  0  0  0  0  0  0  0  0  0
    7.0384  -17.1423   22.7618 C   0  0  0  0  0  0  0  0  0  0  0  0
    6.2000  -17.2076   24.3738 S   0  0  0  0  0  0  0  0  0  0  0  0
    8.1204  -15.0742   23.6235 C   0  0  0  0  0  0  0  0  0  0  0  0
    9.3218  -15.3959   23.8119 O   0  0  0  0  0  0  0  0  0  0  0  0
    7.2131  -12.6688   26.3592 C   0  0  0  0  0  0  0  0  0  0  0  0
    8.1896  -13.6693   25.7274 C   0  0  2  0  0  0  0  0  0  0  0  0
    7.5597  -14.1363   24.5140 N   0  0  0  0  0  0  0  0  0  0  0  0
    8.3519  -14.7660   26.7273 C   0  0  0  0  0  0  0  0  0  0  0  0
    7.3578  -15.4585   27.0624 O   0  0  0  0  0  0  0  0  0  0  0  0
   11.8924  -16.5180   27.2498 O   0  0  0  0  0  0  0  0  0  0  0  0
   10.8001  -17.1468   27.8451 C   0  0  0  0  0  0  0  0  0  0  0  0
    9.7961  -16.1166   28.3027 C   0  0  2  0  0  0  0  0  0  0  0  0
    9.6035  -15.0664   27.3274 N   0  0  0  0  0  0  0  0  0  0  0  0
   10.3285  -15.4951   29.5451 C   0  0  0  0  0  0  0  0  0  0  0  0
   10.4839  -14.2427   29.6501 O   0  0  0  0  0  0  0  0  0  0  0  0
   10.6881  -16.2455   30.6660 O   0  0  0  0  0  0  0  0  0  0  0  0
  2  1  1  6
  2  3  1  0
  4  3  1  0
  5  2  1  0
  6  5  2  0
  8  7  1  1
  8  9  1  0
  9  5  1  0
 10  8  1  0
 10 15  1  0
 11 10  2  0
 13 12  1  0
 14 13  1  6
 14 15  1  0
 14 16  1  0
 16 18  1  0
 17 16  2  0
M  END
$$$$
