CAS.pdb
     RDKit          3D

 18 17  0  0  1  0  0  0  0  0999 V2000
    7.1801  -15.0514   19.8266 N   0  0  0  0  0  0  0  0  0  0  0  0
    8.2128  -14.4259   20.6176 C   0  0  1  0  0  0  0  0  0  0  0  0
    7.9882  -12.9396   20.7562 C   0  0  0  0  0  0  0  0  0  0  0  0
    8.4834  -12.1581   19.1910 S   0  0  0  0  0  0  0  0  0  0  0  0
    8.3779  -15.1014   21.9245 C   0  0  0  0  0  0  0  0  0  0  0  0
    7.3561  -15.2612   22.6406 O   0  0  0  0  0  0  0  0  0  0  0  0
   10.8120  -17.3610   23.4594 C   0  0  0  0  0  0  0  0  0  0  0  0
    9.7571  -16.2721   23.6943 C   0  0  2  0  0  0  0  0  0  0  0  0
    9.6006  -15.5836   22.4339 N   0  0  0  0  0  0  0  0  0  0  0  0
   10.3221  -15.3794   24.7493 C   0  0  0  0  0  0  0  0  0  0  0  0
   11.2310  -14.5624   24.4556 O   0  0  0  0  0  0  0  0  0  0  0  0
    8.1542  -13.7096   27.4419 O   0  0  0  0  0  0  0  0  0  0  0  0
    9.4881  -13.3227   27.3235 C   0  0  0  0  0  0  0  0  0  0  0  0
   10.3641  -14.5372   27.1326 C   0  0  2  0  0  0  0  0  0  0  0  0
    9.8689  -15.4139   26.0947 N   0  0  0  0  0  0  0  0  0  0  0  0
   10.3610  -15.2958   28.4123 C   0  0  0  0  0  0  0  0  0  0  0  0
   10.7435  -14.7706   29.4993 O   0  0  0  0  0  0  0  0  0  0  0  0
    9.9400  -16.6241   28.4973 O   0  0  0  0  0  0  0  0  0  0  0  0
  2  1  1  1
  2  3  1  0
  4  3  1  0
  5  2  1  0
  6  5  2  0
  8  7  1  6
  8  9  1  0
  9  5  1  0
 10  8  1  0
 10 15  1  0
 11 10  2  0
 13 12  1  0
 14 13  1  1
 14 15  1  0
 14 16  1  0
 16 18  1  0
 17 16  2  0
M  END
$$$$
