CAS.pdb
     RDKit          3D

 18 17  0  0  1  0  0  0  0  0999 V2000
    9.2026  -14.9302   14.9647 N   0  0  0  0  0  0  0  0  0  0  0  0
    8.2917  -15.3547   16.0007 C   0  0  1  0  0  0  0  0  0  0  0  0
    7.9714  -16.8262   15.8954 C   0  0  0  0  0  0  0  0  0  0  0  0
    6.9830  -17.2815   17.3520 S   0  0  0  0  0  0  0  0  0  0  0  0
    8.7836  -14.9735   17.3439 C   0  0  0  0  0  0  0  0  0  0  0  0
    9.9183  -15.3859   17.6970 O   0  0  0  0  0  0  0  0  0  0  0  0
    7.4080  -13.0299   20.2454 C   0  0  0  0  0  0  0  0  0  0  0  0
    8.5377  -13.8358   19.5912 C   0  0  2  0  0  0  0  0  0  0  0  0
    8.0742  -14.1780   18.2663 N   0  0  0  0  0  0  0  0  0  0  0  0
    8.7216  -15.0461   20.4459 C   0  0  0  0  0  0  0  0  0  0  0  0
    7.8782  -15.9769   20.4010 O   0  0  0  0  0  0  0  0  0  0  0  0
   12.4087  -16.1555   21.7667 O   0  0  0  0  0  0  0  0  0  0  0  0
   11.3547  -17.0676   21.7566 C   0  0  0  0  0  0  0  0  0  0  0  0
   10.0661  -16.3733   22.1258 C   0  0  2  0  0  0  0  0  0  0  0  0
    9.8283  -15.1940   21.3234 N   0  0  0  0  0  0  0  0  0  0  0  0
   10.1804  -15.9451   23.5459 C   0  0  0  0  0  0  0  0  0  0  0  0
   10.4142  -16.7733   24.4750 O   0  0  0  0  0  0  0  0  0  0  0  0
   10.0387  -14.6143   23.9431 O   0  0  0  0  0  0  0  0  0  0  0  0
  2  1  1  6
  2  3  1  0
  4  3  1  0
  5  2  1  0
  6  5  2  0
  8  7  1  1
  8  9  1  0
  9  5  1  0
 10  8  1  0
 10 15  1  0
 11 10  2  0
 13 12  1  0
 14 13  1  6
 14 15  1  0
 14 16  1  0
 16 18  1  0
 17 16  2  0
M  END
$$$$
