CAS.pdb
     RDKit          3D

 18 17  0  0  1  0  0  0  0  0999 V2000
    7.6230  -14.0488   18.4653 N   0  0  0  0  0  0  0  0  0  0  0  0
    8.9403  -13.8974   19.0355 C   0  0  1  0  0  0  0  0  0  0  0  0
    9.0075  -12.7257   19.9849 C   0  0  0  0  0  0  0  0  0  0  0  0
    8.8880  -11.2054   18.9947 S   0  0  0  0  0  0  0  0  0  0  0  0
    9.4117  -15.1579   19.6522 C   0  0  0  0  0  0  0  0  0  0  0  0
    8.5912  -15.8266   20.3320 O   0  0  0  0  0  0  0  0  0  0  0  0
   12.3352  -17.4004   19.2537 C   0  0  0  0  0  0  0  0  0  0  0  0
   11.1773  -16.9068   20.1309 C   0  0  2  0  0  0  0  0  0  0  0  0
   10.7190  -15.6723   19.5366 N   0  0  0  0  0  0  0  0  0  0  0  0
   11.7600  -16.6879   21.4880 C   0  0  0  0  0  0  0  0  0  0  0  0
   12.3218  -15.5965   21.7584 O   0  0  0  0  0  0  0  0  0  0  0  0
   10.1652  -17.5983   24.9405 O   0  0  0  0  0  0  0  0  0  0  0  0
   11.4350  -18.1716   24.8949 C   0  0  0  0  0  0  0  0  0  0  0  0
   12.2664  -17.5031   23.8269 C   0  0  2  0  0  0  0  0  0  0  0  0
   11.7060  -17.6774   22.5053 N   0  0  0  0  0  0  0  0  0  0  0  0
   13.6100  -18.1416   23.8420 C   0  0  0  0  0  0  0  0  0  0  0  0
   13.9976  -18.9010   22.9057 O   0  0  0  0  0  0  0  0  0  0  0  0
   14.5228  -17.9467   24.8801 O   0  0  0  0  0  0  0  0  0  0  0  0
  2  1  1  1
  2  3  1  0
  4  3  1  0
  5  2  1  0
  6  5  2  0
  8  7  1  6
  8  9  1  0
  9  5  1  0
 10  8  1  0
 10 15  1  0
 11 10  2  0
 13 12  1  0
 14 13  1  1
 14 15  1  0
 14 16  1  0
 16 18  1  0
 17 16  2  0
M  END
$$$$
