CAS.pdb
     RDKit          3D

 18 17  0  0  1  0  0  0  0  0999 V2000
    9.6761  -15.9483   15.4761 N   0  0  0  0  0  0  0  0  0  0  0  0
    8.5922  -16.0090   16.4272 C   0  0  1  0  0  0  0  0  0  0  0  0
    8.2764  -17.4304   16.8255 C   0  0  0  0  0  0  0  0  0  0  0  0
    7.0844  -18.0894   15.6210 S   0  0  0  0  0  0  0  0  0  0  0  0
    8.8455  -15.1335   17.5938 C   0  0  0  0  0  0  0  0  0  0  0  0
   10.0314  -15.0127   17.9958 O   0  0  0  0  0  0  0  0  0  0  0  0
    6.7687  -12.8342   19.7065 C   0  0  0  0  0  0  0  0  0  0  0  0
    8.1072  -13.5162   19.3950 C   0  0  2  0  0  0  0  0  0  0  0  0
    7.8539  -14.4185   18.2955 N   0  0  0  0  0  0  0  0  0  0  0  0
    8.4896  -14.2485   20.6386 C   0  0  0  0  0  0  0  0  0  0  0  0
    8.8059  -13.6047   21.6708 O   0  0  0  0  0  0  0  0  0  0  0  0
    8.9996  -18.4560   20.7495 O   0  0  0  0  0  0  0  0  0  0  0  0
    8.3065  -17.8560   21.7996 C   0  0  0  0  0  0  0  0  0  0  0  0
    8.7173  -16.4094   21.9311 C   0  0  2  0  0  0  0  0  0  0  0  0
    8.5121  -15.6668   20.7073 N   0  0  0  0  0  0  0  0  0  0  0  0
   10.1717  -16.3846   22.2428 C   0  0  0  0  0  0  0  0  0  0  0  0
   11.0164  -15.8838   21.4431 O   0  0  0  0  0  0  0  0  0  0  0  0
   10.6953  -16.9072   23.4268 O   0  0  0  0  0  0  0  0  0  0  0  0
  2  1  1  6
  2  3  1  0
  4  3  1  0
  5  2  1  0
  6  5  2  0
  8  7  1  1
  8  9  1  0
  9  5  1  0
 10  8  1  0
 10 15  1  0
 11 10  2  0
 13 12  1  0
 14 13  1  6
 14 15  1  0
 14 16  1  0
 16 18  1  0
 17 16  2  0
M  END
$$$$
