CAS.pdb
     RDKit          3D

 18 17  0  0  1  0  0  0  0  0999 V2000
    9.0484  -15.7857   14.9741 N   0  0  0  0  0  0  0  0  0  0  0  0
    8.1808  -15.7994   16.1274 C   0  0  1  0  0  0  0  0  0  0  0  0
    7.8882  -17.2061   16.5906 C   0  0  0  0  0  0  0  0  0  0  0  0
    7.0685  -18.0786   15.2222 S   0  0  0  0  0  0  0  0  0  0  0  0
    8.7078  -14.9407   17.2120 C   0  0  0  0  0  0  0  0  0  0  0  0
    9.9514  -14.9230   17.4007 O   0  0  0  0  0  0  0  0  0  0  0  0
    7.2301  -12.5392   19.6880 C   0  0  0  0  0  0  0  0  0  0  0  0
    8.4292  -13.3219   19.1374 C   0  0  2  0  0  0  0  0  0  0  0  0
    7.9189  -14.1344   18.0572 N   0  0  0  0  0  0  0  0  0  0  0  0
    8.9271  -14.1545   20.2722 C   0  0  0  0  0  0  0  0  0  0  0  0
    9.5050  -13.6053   21.2439 O   0  0  0  0  0  0  0  0  0  0  0  0
    8.5258  -18.2448   22.7900 O   0  0  0  0  0  0  0  0  0  0  0  0
    8.0748  -17.4003   21.7769 C   0  0  0  0  0  0  0  0  0  0  0  0
    9.1428  -16.3913   21.4306 C   0  0  2  0  0  0  0  0  0  0  0  0
    8.7734  -15.5660   20.3021 N   0  0  0  0  0  0  0  0  0  0  0  0
   10.3695  -17.1480   21.0620 C   0  0  0  0  0  0  0  0  0  0  0  0
   10.6857  -17.3571   19.8537 O   0  0  0  0  0  0  0  0  0  0  0  0
   11.2439  -17.6721   22.0157 O   0  0  0  0  0  0  0  0  0  0  0  0
  2  1  1  6
  2  3  1  0
  4  3  1  0
  5  2  1  0
  6  5  2  0
  8  7  1  1
  8  9  1  0
  9  5  1  0
 10  8  1  0
 10 15  1  0
 11 10  2  0
 13 12  1  0
 14 13  1  6
 14 15  1  0
 14 16  1  0
 16 18  1  0
 17 16  2  0
M  END
$$$$
