QTW.pdb
     RDKit          3D

 31 32  0  0  1  0  0  0  0  0999 V2000
    7.0544  -12.8535   16.6509 N   0  0  0  0  0  0  0  0  0  0  0  0
    8.1064  -13.6653   16.1200 C   0  0  0  0  0  0  0  0  0  0  0  0
    8.1270  -13.7485   14.8652 O   0  0  0  0  0  0  0  0  0  0  0  0
    9.0429  -14.3196   17.0167 C   0  0  0  0  0  0  0  0  0  0  0  0
    8.8481  -14.1197   18.4853 C   0  0  0  0  0  0  0  0  0  0  0  0
    9.8368  -14.8966   19.2774 C   0  0  2  0  0  0  0  0  0  0  0  0
   10.3888  -15.9574   18.4830 N   0  0  0  0  0  0  0  0  0  0  0  0
    9.2325  -15.4516   20.5368 C   0  0  0  0  0  0  0  0  0  0  0  0
    8.5494  -14.6845   21.2463 O   0  0  0  0  0  0  0  0  0  0  0  0
    8.0600  -19.3542   20.9046 C   0  0  0  0  0  0  0  0  0  0  0  0
    8.9505  -18.8967   22.0186 C   0  0  1  0  0  0  0  0  0  0  0  0
   10.2426  -19.3450   21.7415 O   0  0  0  0  0  0  0  0  0  0  0  0
    8.9260  -17.3691   22.1581 C   0  0  2  0  0  0  0  0  0  0  0  0
    9.4056  -16.7904   20.9411 N   0  0  0  0  0  0  0  0  0  0  0  0
    9.7215  -16.9890   23.3430 C   0  0  0  0  0  0  0  0  0  0  0  0
   10.9456  -16.7093   23.2734 O   0  0  0  0  0  0  0  0  0  0  0  0
    9.1668  -16.9083   24.6505 N   0  0  0  0  0  0  0  0  0  0  0  0
    9.9121  -16.6287   25.8448 C   0  0  1  0  0  0  0  0  0  0  0  0
    9.7215  -15.2864   26.4138 C   0  0  0  0  0  0  0  0  0  0  0  0
    8.3016  -14.8891   26.3061 C   0  0  0  0  0  0  0  0  0  0  0  0
    7.1619  -15.6310   26.0850 C   0  0  0  0  0  0  0  0  0  0  0  0
    6.0696  -14.8483   26.0439 N   0  0  0  0  0  0  0  0  0  0  0  0
    6.4460  -13.5764   26.2344 C   0  0  0  0  0  0  0  0  0  0  0  0
    5.7037  -12.4030   26.2779 C   0  0  0  0  0  0  0  0  0  0  0  0
    6.3638  -11.2194   26.4901 C   0  0  0  0  0  0  0  0  0  0  0  0
    7.7280  -11.2074   26.6544 C   0  0  0  0  0  0  0  0  0  0  0  0
    8.4635  -12.3857   26.6096 C   0  0  0  0  0  0  0  0  0  0  0  0
    7.8151  -13.5747   26.3983 C   0  0  0  0  0  0  0  0  0  0  0  0
    9.5650  -17.6475   26.8632 C   0  0  0  0  0  0  0  0  0  0  0  0
   10.3193  -17.7209   28.0192 O   0  0  0  0  0  0  0  0  0  0  0  0
    8.6196  -18.4173   26.6846 O   0  0  0  0  0  0  0  0  0  0  0  0
  2  1  1  0
  3  2  2  0
  4  2  1  0
  5  6  1  0
  5  4  1  0
  6  8  1  0
  6  7  1  6
  8  9  2  0
 11 13  1  0
 11 10  1  6
 12 11  1  0
 13 15  1  0
 14  8  1  0
 13 14  1  6
 15 16  2  0
 17 18  1  0
 17 15  1  0
 18 29  1  0
 18 19  1  1
 20 19  1  0
 20 21  2  0
 22 21  1  0
 23 22  1  0
 24 23  2  0
 25 24  1  0
 26 25  2  0
 26 27  1  0
 27 28  2  0
 28 23  1  0
 28 20  1  0
 29 30  1  0
 31 29  2  0
M  END
$$$$
