QTW.pdb
     RDKit          3D

 31 32  0  0  1  0  0  0  0  0999 V2000
    6.6409  -13.1511   17.1119 N   0  0  0  0  0  0  0  0  0  0  0  0
    7.9324  -13.5731   16.6631 C   0  0  0  0  0  0  0  0  0  0  0  0
    8.0701  -13.6128   15.4136 O   0  0  0  0  0  0  0  0  0  0  0  0
    8.9601  -13.9196   17.6289 C   0  0  0  0  0  0  0  0  0  0  0  0
    8.5128  -14.4182   18.9653 C   0  0  0  0  0  0  0  0  0  0  0  0
    9.6684  -14.7665   19.8323 C   0  0  2  0  0  0  0  0  0  0  0  0
   10.6345  -15.5286   19.0929 N   0  0  0  0  0  0  0  0  0  0  0  0
    9.2398  -15.5221   21.0589 C   0  0  0  0  0  0  0  0  0  0  0  0
    8.1512  -15.2137   21.5865 O   0  0  0  0  0  0  0  0  0  0  0  0
    9.9342  -19.4724   21.4329 C   0  0  0  0  0  0  0  0  0  0  0  0
   10.3684  -18.7090   22.6461 C   0  0  1  0  0  0  0  0  0  0  0  0
   11.7473  -18.5148   22.5554 O   0  0  0  0  0  0  0  0  0  0  0  0
    9.6379  -17.3636   22.7471 C   0  0  2  0  0  0  0  0  0  0  0  0
   10.0116  -16.5545   21.6283 N   0  0  0  0  0  0  0  0  0  0  0  0
    9.9580  -16.7477   24.0507 C   0  0  0  0  0  0  0  0  0  0  0  0
   10.8823  -15.9067   24.1917 O   0  0  0  0  0  0  0  0  0  0  0  0
    9.2473  -17.0555   25.2441 N   0  0  0  0  0  0  0  0  0  0  0  0
    9.5359  -16.5066   26.5385 C   0  0  1  0  0  0  0  0  0  0  0  0
    8.3662  -16.1105   27.3365 C   0  0  0  0  0  0  0  0  0  0  0  0
    7.4610  -15.2707   26.5235 C   0  0  0  0  0  0  0  0  0  0  0  0
    6.4060  -15.6000   25.7008 C   0  0  0  0  0  0  0  0  0  0  0  0
    5.8668  -14.5055   25.1360 N   0  0  0  0  0  0  0  0  0  0  0  0
    6.5396  -13.4276   25.5615 C   0  0  0  0  0  0  0  0  0  0  0  0
    6.3767  -12.0787   25.2721 C   0  0  0  0  0  0  0  0  0  0  0  0
    7.2270  -11.1768   25.8597 C   0  0  0  0  0  0  0  0  0  0  0  0
    8.2131  -11.6096   26.7131 C   0  0  0  0  0  0  0  0  0  0  0  0
    8.3695  -12.9609   26.9977 C   0  0  0  0  0  0  0  0  0  0  0  0
    7.5259  -13.8718   26.4166 C   0  0  0  0  0  0  0  0  0  0  0  0
   10.3370  -17.4946   27.2985 C   0  0  0  0  0  0  0  0  0  0  0  0
   10.8781  -17.1224   28.5149 O   0  0  0  0  0  0  0  0  0  0  0  0
   10.5187  -18.6300   26.8555 O   0  0  0  0  0  0  0  0  0  0  0  0
  2  1  1  0
  3  2  2  0
  4  2  1  0
  5  6  1  0
  5  4  1  0
  6  8  1  0
  6  7  1  6
  8  9  2  0
 11 13  1  0
 11 10  1  6
 12 11  1  0
 13 15  1  0
 14  8  1  0
 13 14  1  6
 15 16  2  0
 17 18  1  0
 17 15  1  0
 18 29  1  0
 18 19  1  1
 20 19  1  0
 20 21  2  0
 22 21  1  0
 23 22  1  0
 24 23  2  0
 25 24  1  0
 26 25  2  0
 26 27  1  0
 27 28  2  0
 28 23  1  0
 28 20  1  0
 29 30  1  0
 31 29  2  0
M  END
$$$$
