QTW.pdb
     RDKit          3D

 31 32  0  0  1  0  0  0  0  0999 V2000
    6.9501  -14.0087   15.9068 N   0  0  0  0  0  0  0  0  0  0  0  0
    8.2305  -13.6229   16.4161 C   0  0  0  0  0  0  0  0  0  0  0  0
    9.1991  -13.8733   15.6539 O   0  0  0  0  0  0  0  0  0  0  0  0
    8.3349  -12.9985   17.7231 C   0  0  0  0  0  0  0  0  0  0  0  0
    7.7477  -13.7298   18.8873 C   0  0  0  0  0  0  0  0  0  0  0  0
    8.8010  -14.3745   19.7140 C   0  0  2  0  0  0  0  0  0  0  0  0
    9.8091  -14.9551   18.8728 N   0  0  0  0  0  0  0  0  0  0  0  0
    8.2298  -15.4164   20.6346 C   0  0  0  0  0  0  0  0  0  0  0  0
    7.0656  -15.8129   20.4202 O   0  0  0  0  0  0  0  0  0  0  0  0
    8.7026  -18.5758   20.3630 C   0  0  0  0  0  0  0  0  0  0  0  0
    9.3052  -18.3401   21.7137 C   0  0  1  0  0  0  0  0  0  0  0  0
   10.6673  -18.0954   21.5348 O   0  0  0  0  0  0  0  0  0  0  0  0
    8.6319  -17.1586   22.4241 C   0  0  2  0  0  0  0  0  0  0  0  0
    8.9517  -15.9568   21.7175 N   0  0  0  0  0  0  0  0  0  0  0  0
    9.0675  -17.1441   23.8353 C   0  0  0  0  0  0  0  0  0  0  0  0
    8.8788  -18.1162   24.6105 O   0  0  0  0  0  0  0  0  0  0  0  0
    9.7334  -16.0340   24.4252 N   0  0  0  0  0  0  0  0  0  0  0  0
   10.1802  -15.9716   25.7878 C   0  0  1  0  0  0  0  0  0  0  0  0
    9.1288  -16.0960   26.8081 C   0  0  0  0  0  0  0  0  0  0  0  0
    7.9458  -15.3020   26.4138 C   0  0  0  0  0  0  0  0  0  0  0  0
    6.7217  -15.6805   25.9072 C   0  0  0  0  0  0  0  0  0  0  0  0
    5.9393  -14.6130   25.6710 N   0  0  0  0  0  0  0  0  0  0  0  0
    6.6121  -13.5048   26.0098 C   0  0  0  0  0  0  0  0  0  0  0  0
    6.2486  -12.1652   25.9545 C   0  0  0  0  0  0  0  0  0  0  0  0
    7.1553  -11.2241   26.3717 C   0  0  0  0  0  0  0  0  0  0  0  0
    8.3913  -11.6098   26.8317 C   0  0  0  0  0  0  0  0  0  0  0  0
    8.7474  -12.9521   26.8840 C   0  0  0  0  0  0  0  0  0  0  0  0
    7.8499  -13.9018   26.4698 C   0  0  0  0  0  0  0  0  0  0  0  0
   11.1952  -17.0306   25.9971 C   0  0  0  0  0  0  0  0  0  0  0  0
   11.8169  -17.1264   27.2280 O   0  0  0  0  0  0  0  0  0  0  0  0
   11.4815  -17.8141   25.0903 O   0  0  0  0  0  0  0  0  0  0  0  0
  2  1  1  0
  3  2  2  0
  4  2  1  0
  5  6  1  0
  5  4  1  0
  6  8  1  0
  6  7  1  6
  8  9  2  0
 11 13  1  0
 11 10  1  6
 12 11  1  0
 13 15  1  0
 14  8  1  0
 13 14  1  6
 15 16  2  0
 17 18  1  0
 17 15  1  0
 18 29  1  0
 18 19  1  1
 20 19  1  0
 20 21  2  0
 22 21  1  0
 23 22  1  0
 24 23  2  0
 25 24  1  0
 26 25  2  0
 26 27  1  0
 27 28  2  0
 28 23  1  0
 28 20  1  0
 29 30  1  0
 31 29  2  0
M  END
$$$$
