QTW.pdb
     RDKit          3D

 31 32  0  0  1  0  0  0  0  0999 V2000
    7.7677  -15.9040   16.0162 N   0  0  0  0  0  0  0  0  0  0  0  0
    8.4589  -17.1185   15.7083 C   0  0  0  0  0  0  0  0  0  0  0  0
    7.7748  -17.9728   15.0886 O   0  0  0  0  0  0  0  0  0  0  0  0
    9.8430  -17.2899   16.1135 C   0  0  0  0  0  0  0  0  0  0  0  0
   10.5011  -16.1514   16.8244 C   0  0  0  0  0  0  0  0  0  0  0  0
   10.9255  -16.5368   18.1955 C   0  0  2  0  0  0  0  0  0  0  0  0
   10.7923  -17.9544   18.3785 N   0  0  0  0  0  0  0  0  0  0  0  0
   10.1461  -15.8017   19.2497 C   0  0  0  0  0  0  0  0  0  0  0  0
   10.1862  -14.5539   19.2447 O   0  0  0  0  0  0  0  0  0  0  0  0
    6.5809  -15.7286   20.3931 C   0  0  0  0  0  0  0  0  0  0  0  0
    7.3749  -16.2501   21.5510 C   0  0  1  0  0  0  0  0  0  0  0  0
    7.2225  -17.6369   21.5810 O   0  0  0  0  0  0  0  0  0  0  0  0
    8.8562  -15.8712   21.4248 C   0  0  2  0  0  0  0  0  0  0  0  0
    9.3797  -16.4610   20.2314 N   0  0  0  0  0  0  0  0  0  0  0  0
    9.5607  -16.2999   22.6500 C   0  0  0  0  0  0  0  0  0  0  0  0
   10.4628  -17.1759   22.6391 O   0  0  0  0  0  0  0  0  0  0  0  0
    9.2758  -15.7560   23.9334 N   0  0  0  0  0  0  0  0  0  0  0  0
    9.8773  -16.1891   25.1626 C   0  0  1  0  0  0  0  0  0  0  0  0
    9.6294  -15.3292   26.3293 C   0  0  0  0  0  0  0  0  0  0  0  0
    8.2468  -14.8076   26.2877 C   0  0  0  0  0  0  0  0  0  0  0  0
    7.0369  -15.4452   26.1207 C   0  0  0  0  0  0  0  0  0  0  0  0
    6.0173  -14.5687   26.1301 N   0  0  0  0  0  0  0  0  0  0  0  0
    6.5133  -13.3358   26.3019 C   0  0  0  0  0  0  0  0  0  0  0  0
    5.8805  -12.1015   26.3792 C   0  0  0  0  0  0  0  0  0  0  0  0
    6.6519  -10.9816   26.5593 C   0  0  0  0  0  0  0  0  0  0  0  0
    8.0180  -11.0908   26.6597 C   0  0  0  0  0  0  0  0  0  0  0  0
    8.6435  -12.3294   26.5815 C   0  0  0  0  0  0  0  0  0  0  0  0
    7.8833  -13.4557   26.4016 C   0  0  0  0  0  0  0  0  0  0  0  0
    9.4063  -17.5629   25.4562 C   0  0  0  0  0  0  0  0  0  0  0  0
   10.0276  -18.2820   26.4601 O   0  0  0  0  0  0  0  0  0  0  0  0
    8.4761  -18.0579   24.8176 O   0  0  0  0  0  0  0  0  0  0  0  0
  2  1  1  0
  3  2  2  0
  4  2  1  0
  5  6  1  0
  5  4  1  0
  6  8  1  0
  6  7  1  1
  8  9  2  0
 11 13  1  0
 11 10  1  6
 12 11  1  0
 13 15  1  0
 14  8  1  0
 13 14  1  6
 15 16  2  0
 17 18  1  0
 17 15  1  0
 18 29  1  0
 18 19  1  1
 20 19  1  0
 20 21  2  0
 22 21  1  0
 23 22  1  0
 24 23  2  0
 25 24  1  0
 26 25  2  0
 26 27  1  0
 27 28  2  0
 28 23  1  0
 28 20  1  0
 29 30  1  0
 31 29  2  0
M  END
$$$$
