QTW.pdb
     RDKit          3D

 31 32  0  0  1  0  0  0  0  0999 V2000
    7.5222  -14.6471   15.4123 N   0  0  0  0  0  0  0  0  0  0  0  0
    8.1112  -13.4155   15.8410 C   0  0  0  0  0  0  0  0  0  0  0  0
    8.4750  -12.6521   14.9101 O   0  0  0  0  0  0  0  0  0  0  0  0
    8.2533  -13.1323   17.2583 C   0  0  0  0  0  0  0  0  0  0  0  0
    7.6808  -14.1218   18.2216 C   0  0  0  0  0  0  0  0  0  0  0  0
    8.6884  -15.1374   18.6237 C   0  0  2  0  0  0  0  0  0  0  0  0
    8.9363  -16.0488   17.5425 N   0  0  0  0  0  0  0  0  0  0  0  0
    8.2624  -15.8923   19.8517 C   0  0  0  0  0  0  0  0  0  0  0  0
    7.2221  -16.5793   19.7856 O   0  0  0  0  0  0  0  0  0  0  0  0
    8.2575  -18.6175   20.6253 C   0  0  0  0  0  0  0  0  0  0  0  0
    9.1488  -18.1608   21.7388 C   0  0  1  0  0  0  0  0  0  0  0  0
   10.4666  -18.2324   21.2853 O   0  0  0  0  0  0  0  0  0  0  0  0
    8.8039  -16.7312   22.1760 C   0  0  2  0  0  0  0  0  0  0  0  0
    8.9859  -15.8547   21.0604 N   0  0  0  0  0  0  0  0  0  0  0  0
    9.6382  -16.3786   23.3426 C   0  0  0  0  0  0  0  0  0  0  0  0
   10.7976  -15.9055   23.2257 O   0  0  0  0  0  0  0  0  0  0  0  0
    9.1965  -16.5444   24.6847 N   0  0  0  0  0  0  0  0  0  0  0  0
    9.9506  -16.1797   25.8502 C   0  0  1  0  0  0  0  0  0  0  0  0
    9.1588  -15.7338   27.0061 C   0  0  0  0  0  0  0  0  0  0  0  0
    7.9096  -15.0915   26.5452 C   0  0  0  0  0  0  0  0  0  0  0  0
    6.7158  -15.6263   26.1124 C   0  0  0  0  0  0  0  0  0  0  0  0
    5.8448  -14.6619   25.7678 N   0  0  0  0  0  0  0  0  0  0  0  0
    6.4267  -13.4701   25.9590 C   0  0  0  0  0  0  0  0  0  0  0  0
    5.9524  -12.1807   25.7531 C   0  0  0  0  0  0  0  0  0  0  0  0
    6.7820  -11.1259   26.0371 C   0  0  0  0  0  0  0  0  0  0  0  0
    8.0508  -11.3520   26.5138 C   0  0  0  0  0  0  0  0  0  0  0  0
    8.5179  -12.6450   26.7173 C   0  0  0  0  0  0  0  0  0  0  0  0
    7.6982  -13.7072   26.4371 C   0  0  0  0  0  0  0  0  0  0  0  0
   10.7895  -17.3351   26.2460 C   0  0  0  0  0  0  0  0  0  0  0  0
   11.7479  -17.1603   27.2268 O   0  0  0  0  0  0  0  0  0  0  0  0
   10.6367  -18.4347   25.7114 O   0  0  0  0  0  0  0  0  0  0  0  0
  2  1  1  0
  3  2  2  0
  4  2  1  0
  5  6  1  0
  5  4  1  0
  6  8  1  0
  6  7  1  6
  8  9  2  0
 11 13  1  0
 11 10  1  6
 12 11  1  0
 13 15  1  0
 14  8  1  0
 13 14  1  6
 15 16  2  0
 17 18  1  0
 17 15  1  0
 18 29  1  0
 18 19  1  1
 20 19  1  0
 20 21  2  0
 22 21  1  0
 23 22  1  0
 24 23  2  0
 25 24  1  0
 26 25  2  0
 26 27  1  0
 27 28  2  0
 28 23  1  0
 28 20  1  0
 29 30  1  0
 31 29  2  0
M  END
$$$$
