QTW.pdb
     RDKit          3D

 31 32  0  0  1  0  0  0  0  0999 V2000
    6.9090  -13.9499   15.8622 N   0  0  0  0  0  0  0  0  0  0  0  0
    8.1309  -13.2264   16.0384 C   0  0  0  0  0  0  0  0  0  0  0  0
    8.5698  -12.6706   14.9991 O   0  0  0  0  0  0  0  0  0  0  0  0
    8.7671  -13.1808   17.3431 C   0  0  0  0  0  0  0  0  0  0  0  0
    8.1579  -13.9963   18.4379 C   0  0  0  0  0  0  0  0  0  0  0  0
    8.8552  -15.2986   18.6006 C   0  0  2  0  0  0  0  0  0  0  0  0
    8.5636  -16.1620   17.4913 N   0  0  0  0  0  0  0  0  0  0  0  0
    8.4880  -15.9721   19.8932 C   0  0  0  0  0  0  0  0  0  0  0  0
    7.2904  -15.9514   20.2450 O   0  0  0  0  0  0  0  0  0  0  0  0
    8.5662  -19.3927   20.8014 C   0  0  0  0  0  0  0  0  0  0  0  0
    9.4597  -18.7578   21.8221 C   0  0  1  0  0  0  0  0  0  0  0  0
   10.7796  -18.9640   21.4188 O   0  0  0  0  0  0  0  0  0  0  0  0
    9.1648  -17.2589   21.9633 C   0  0  2  0  0  0  0  0  0  0  0  0
    9.4343  -16.6193   20.7126 N   0  0  0  0  0  0  0  0  0  0  0  0
    9.9655  -16.7222   23.0823 C   0  0  0  0  0  0  0  0  0  0  0  0
   11.1585  -16.3499   22.9417 O   0  0  0  0  0  0  0  0  0  0  0  0
    9.4511  -16.5836   24.4015 N   0  0  0  0  0  0  0  0  0  0  0  0
   10.2169  -16.1748   25.5446 C   0  0  1  0  0  0  0  0  0  0  0  0
    9.9033  -14.8402   26.0759 C   0  0  0  0  0  0  0  0  0  0  0  0
    8.4558  -14.5708   25.9425 C   0  0  0  0  0  0  0  0  0  0  0  0
    7.3820  -15.4188   25.7814 C   0  0  0  0  0  0  0  0  0  0  0  0
    6.2289  -14.7343   25.6844 N   0  0  0  0  0  0  0  0  0  0  0  0
    6.4985  -13.4249   25.7771 C   0  0  0  0  0  0  0  0  0  0  0  0
    5.6617  -12.3169   25.7338 C   0  0  0  0  0  0  0  0  0  0  0  0
    6.2211  -11.0701   25.8540 C   0  0  0  0  0  0  0  0  0  0  0  0
    7.5791  -10.9332   26.0131 C   0  0  0  0  0  0  0  0  0  0  0  0
    8.4096  -12.0468   26.0554 C   0  0  0  0  0  0  0  0  0  0  0  0
    7.8622  -13.2978   25.9364 C   0  0  0  0  0  0  0  0  0  0  0  0
   10.0369  -17.1841   26.6144 C   0  0  0  0  0  0  0  0  0  0  0  0
   10.8469  -17.1240   27.7329 O   0  0  0  0  0  0  0  0  0  0  0  0
    9.1795  -18.0629   26.5110 O   0  0  0  0  0  0  0  0  0  0  0  0
  2  1  1  0
  3  2  2  0
  4  2  1  0
  5  6  1  0
  5  4  1  0
  6  8  1  0
  6  7  1  6
  8  9  2  0
 11 13  1  0
 11 10  1  6
 12 11  1  0
 13 15  1  0
 14  8  1  0
 13 14  1  6
 15 16  2  0
 17 18  1  0
 17 15  1  0
 18 29  1  0
 18 19  1  1
 20 19  1  0
 20 21  2  0
 22 21  1  0
 23 22  1  0
 24 23  2  0
 25 24  1  0
 26 25  2  0
 26 27  1  0
 27 28  2  0
 28 23  1  0
 28 20  1  0
 29 30  1  0
 31 29  2  0
M  END
$$$$
