QTW.pdb
     RDKit          3D

 31 32  0  0  1  0  0  0  0  0999 V2000
   16.3526  -14.6284   20.0191 N   0  0  0  0  0  0  0  0  0  0  0  0
   15.5252  -14.4501   18.8653 C   0  0  0  0  0  0  0  0  0  0  0  0
   16.1431  -14.4332   17.7700 O   0  0  0  0  0  0  0  0  0  0  0  0
   14.0885  -14.3012   19.0170 C   0  0  0  0  0  0  0  0  0  0  0  0
   13.2114  -15.2247   18.2343 C   0  0  0  0  0  0  0  0  0  0  0  0
   12.7441  -16.3662   19.0632 C   0  0  2  0  0  0  0  0  0  0  0  0
   12.1738  -17.3867   18.2299 N   0  0  0  0  0  0  0  0  0  0  0  0
   11.7513  -15.9316   20.1048 C   0  0  0  0  0  0  0  0  0  0  0  0
   12.0694  -14.9905   20.8608 O   0  0  0  0  0  0  0  0  0  0  0  0
    7.6514  -16.7035   19.6987 C   0  0  0  0  0  0  0  0  0  0  0  0
    8.2640  -17.0659   21.0165 C   0  0  1  0  0  0  0  0  0  0  0  0
    8.5532  -18.4308   20.9899 O   0  0  0  0  0  0  0  0  0  0  0  0
    9.5348  -16.2485   21.2822 C   0  0  2  0  0  0  0  0  0  0  0  0
   10.4890  -16.5394   20.2571 N   0  0  0  0  0  0  0  0  0  0  0  0
   10.0208  -16.5576   22.6422 C   0  0  0  0  0  0  0  0  0  0  0  0
   11.0908  -17.1846   22.8510 O   0  0  0  0  0  0  0  0  0  0  0  0
    9.3199  -16.1700   23.8180 N   0  0  0  0  0  0  0  0  0  0  0  0
    9.8171  -16.3122   25.1569 C   0  0  1  0  0  0  0  0  0  0  0  0
    9.5868  -15.1639   26.0460 C   0  0  0  0  0  0  0  0  0  0  0  0
    8.1648  -14.7630   25.9953 C   0  0  0  0  0  0  0  0  0  0  0  0
    7.0173  -15.4983   25.7933 C   0  0  0  0  0  0  0  0  0  0  0  0
    5.9254  -14.7140   25.8080 N   0  0  0  0  0  0  0  0  0  0  0  0
    6.3099  -13.4476   26.0179 C   0  0  0  0  0  0  0  0  0  0  0  0
    5.5712  -12.2751   26.1155 C   0  0  0  0  0  0  0  0  0  0  0  0
    6.2398  -11.0977   26.3355 C   0  0  0  0  0  0  0  0  0  0  0  0
    7.6087  -11.0909   26.4549 C   0  0  0  0  0  0  0  0  0  0  0  0
    8.3406  -12.2682   26.3562 C   0  0  0  0  0  0  0  0  0  0  0  0
    7.6837  -13.4510   26.1365 C   0  0  0  0  0  0  0  0  0  0  0  0
    9.2123  -17.5254   25.7551 C   0  0  0  0  0  0  0  0  0  0  0  0
    8.2513  -18.2151   25.0398 O   0  0  0  0  0  0  0  0  0  0  0  0
    9.5592  -17.9150   26.8713 O   0  0  0  0  0  0  0  0  0  0  0  0
  2  1  1  0
  3  2  2  0
  4  2  1  0
  5  6  1  0
  5  4  1  0
  6  8  1  0
  6  7  1  6
  8  9  2  0
 11 13  1  0
 11 10  1  6
 12 11  1  0
 13 15  1  0
 14  8  1  0
 13 14  1  6
 15 16  2  0
 17 18  1  0
 17 15  1  0
 18 29  1  0
 18 19  1  1
 20 19  1  0
 20 21  2  0
 22 21  1  0
 23 22  1  0
 24 23  2  0
 25 24  1  0
 26 25  2  0
 26 27  1  0
 27 28  2  0
 28 23  1  0
 28 20  1  0
 29 30  1  0
 31 29  2  0
M  END
$$$$
