QTW.pdb
     RDKit          3D

 31 32  0  0  1  0  0  0  0  0999 V2000
    7.4612  -12.6008   15.6041 N   0  0  0  0  0  0  0  0  0  0  0  0
    8.3081  -13.7131   15.2988 C   0  0  0  0  0  0  0  0  0  0  0  0
    9.0677  -13.5427   14.3110 O   0  0  0  0  0  0  0  0  0  0  0  0
    8.2425  -14.9194   16.1048 C   0  0  0  0  0  0  0  0  0  0  0  0
    8.1006  -14.7556   17.5839 C   0  0  0  0  0  0  0  0  0  0  0  0
    9.1963  -15.4424   18.3163 C   0  0  2  0  0  0  0  0  0  0  0  0
    9.6623  -16.5754   17.5681 N   0  0  0  0  0  0  0  0  0  0  0  0
    8.7674  -15.8696   19.6921 C   0  0  0  0  0  0  0  0  0  0  0  0
    7.8950  -15.1899   20.2713 O   0  0  0  0  0  0  0  0  0  0  0  0
    8.0594  -19.6168   20.5532 C   0  0  0  0  0  0  0  0  0  0  0  0
    8.9863  -19.0405   21.5788 C   0  0  1  0  0  0  0  0  0  0  0  0
   10.2818  -19.4478   21.2578 O   0  0  0  0  0  0  0  0  0  0  0  0
    8.8935  -17.5096   21.6141 C   0  0  2  0  0  0  0  0  0  0  0  0
    9.3065  -16.9964   20.3445 N   0  0  0  0  0  0  0  0  0  0  0  0
    9.7069  -17.0118   22.7419 C   0  0  0  0  0  0  0  0  0  0  0  0
   10.9409  -16.7920   22.6395 O   0  0  0  0  0  0  0  0  0  0  0  0
    9.1596  -16.7415   24.0270 N   0  0  0  0  0  0  0  0  0  0  0  0
    9.9138  -16.3039   25.1671 C   0  0  1  0  0  0  0  0  0  0  0  0
    9.7329  -14.8949   25.5464 C   0  0  0  0  0  0  0  0  0  0  0  0
    8.3001  -14.5357   25.4869 C   0  0  0  0  0  0  0  0  0  0  0  0
    7.1776  -15.3007   25.2566 C   0  0  0  0  0  0  0  0  0  0  0  0
    6.0625  -14.5498   25.2742 N   0  0  0  0  0  0  0  0  0  0  0  0
    6.4062  -13.2771   25.5140 C   0  0  0  0  0  0  0  0  0  0  0  0
    5.6315  -12.1294   25.6263 C   0  0  0  0  0  0  0  0  0  0  0  0
    6.2619  -10.9373   25.8777 C   0  0  0  0  0  0  0  0  0  0  0  0
    7.6285  -10.8920   26.0135 C   0  0  0  0  0  0  0  0  0  0  0  0
    8.3965  -12.0446   25.8999 C   0  0  0  0  0  0  0  0  0  0  0  0
    7.7781  -13.2418   25.6487 C   0  0  0  0  0  0  0  0  0  0  0  0
    9.5684  -17.1706   26.3182 C   0  0  0  0  0  0  0  0  0  0  0  0
   10.3266  -17.0844   27.4708 O   0  0  0  0  0  0  0  0  0  0  0  0
    8.6209  -17.9555   26.2513 O   0  0  0  0  0  0  0  0  0  0  0  0
  2  1  1  0
  3  2  2  0
  4  2  1  0
  5  6  1  0
  5  4  1  0
  6  8  1  0
  6  7  1  6
  8  9  2  0
 11 13  1  0
 11 10  1  6
 12 11  1  0
 13 15  1  0
 14  8  1  0
 13 14  1  6
 15 16  2  0
 17 18  1  0
 17 15  1  0
 18 29  1  0
 18 19  1  1
 20 19  1  0
 20 21  2  0
 22 21  1  0
 23 22  1  0
 24 23  2  0
 25 24  1  0
 26 25  2  0
 26 27  1  0
 27 28  2  0
 28 23  1  0
 28 20  1  0
 29 30  1  0
 31 29  2  0
M  END
$$$$
