QTW.pdb
     RDKit          3D

 31 32  0  0  1  0  0  0  0  0999 V2000
    7.5842  -12.4197   16.8424 N   0  0  0  0  0  0  0  0  0  0  0  0
    8.0642  -13.4488   15.9717 C   0  0  0  0  0  0  0  0  0  0  0  0
    7.8879  -13.2283   14.7462 O   0  0  0  0  0  0  0  0  0  0  0  0
    8.6931  -14.6349   16.5257 C   0  0  0  0  0  0  0  0  0  0  0  0
    8.8181  -14.7202   18.0130 C   0  0  0  0  0  0  0  0  0  0  0  0
    9.5314  -15.9553   18.4305 C   0  0  2  0  0  0  0  0  0  0  0  0
    9.3323  -16.9970   17.4629 N   0  0  0  0  0  0  0  0  0  0  0  0
    9.0948  -16.4204   19.7914 C   0  0  0  0  0  0  0  0  0  0  0  0
    7.9698  -16.0647   20.1992 O   0  0  0  0  0  0  0  0  0  0  0  0
    9.3075  -20.0535   20.9261 C   0  0  0  0  0  0  0  0  0  0  0  0
    9.9808  -19.2218   21.9740 C   0  0  1  0  0  0  0  0  0  0  0  0
   11.3586  -19.3256   21.7789 O   0  0  0  0  0  0  0  0  0  0  0  0
    9.5318  -17.7570   21.8943 C   0  0  2  0  0  0  0  0  0  0  0  0
    9.8985  -17.2347   20.6142 N   0  0  0  0  0  0  0  0  0  0  0  0
   10.1290  -17.0166   23.0241 C   0  0  0  0  0  0  0  0  0  0  0  0
   11.2037  -16.3722   22.9169 O   0  0  0  0  0  0  0  0  0  0  0  0
    9.5365  -16.9733   24.3168 N   0  0  0  0  0  0  0  0  0  0  0  0
   10.1303  -16.3668   25.4742 C   0  0  1  0  0  0  0  0  0  0  0  0
    9.8413  -14.9374   25.6621 C   0  0  0  0  0  0  0  0  0  0  0  0
    8.3860  -14.7333   25.8234 C   0  0  0  0  0  0  0  0  0  0  0  0
    7.3235  -15.5997   25.6863 C   0  0  0  0  0  0  0  0  0  0  0  0
    6.1533  -14.9773   25.9117 N   0  0  0  0  0  0  0  0  0  0  0  0
    6.3998  -13.6927   26.2023 C   0  0  0  0  0  0  0  0  0  0  0  0
    5.5389  -12.6457   26.5070 C   0  0  0  0  0  0  0  0  0  0  0  0
    6.0773  -11.4106   26.7644 C   0  0  0  0  0  0  0  0  0  0  0  0
    7.4381  -11.2255   26.7190 C   0  0  0  0  0  0  0  0  0  0  0  0
    8.2927  -12.2780   26.4136 C   0  0  0  0  0  0  0  0  0  0  0  0
    7.7666  -13.5170   26.1545 C   0  0  0  0  0  0  0  0  0  0  0  0
    9.6922  -17.1182   26.6739 C   0  0  0  0  0  0  0  0  0  0  0  0
   10.2794  -16.8330   27.8923 O   0  0  0  0  0  0  0  0  0  0  0  0
    8.8187  -17.9830   26.5889 O   0  0  0  0  0  0  0  0  0  0  0  0
  2  1  1  0
  3  2  2  0
  4  2  1  0
  5  6  1  0
  5  4  1  0
  6  8  1  0
  6  7  1  6
  8  9  2  0
 11 13  1  0
 11 10  1  6
 12 11  1  0
 13 15  1  0
 14  8  1  0
 13 14  1  6
 15 16  2  0
 17 18  1  0
 17 15  1  0
 18 29  1  0
 18 19  1  1
 20 19  1  0
 20 21  2  0
 22 21  1  0
 23 22  1  0
 24 23  2  0
 25 24  1  0
 26 25  2  0
 26 27  1  0
 27 28  2  0
 28 23  1  0
 28 20  1  0
 29 30  1  0
 31 29  2  0
M  END
$$$$
