QTW.pdb
     RDKit          3D

 31 32  0  0  1  0  0  0  0  0999 V2000
    9.4499  -14.0705   14.6388 N   0  0  0  0  0  0  0  0  0  0  0  0
    8.2245  -13.9386   15.3659 C   0  0  0  0  0  0  0  0  0  0  0  0
    7.2298  -14.4895   14.8284 O   0  0  0  0  0  0  0  0  0  0  0  0
    8.1987  -13.2073   16.6204 C   0  0  0  0  0  0  0  0  0  0  0  0
    7.7705  -13.9504   17.8448 C   0  0  0  0  0  0  0  0  0  0  0  0
    8.8247  -14.8890   18.3099 C   0  0  2  0  0  0  0  0  0  0  0  0
    9.1589  -15.8188   17.2683 N   0  0  0  0  0  0  0  0  0  0  0  0
    8.4082  -15.6274   19.5510 C   0  0  0  0  0  0  0  0  0  0  0  0
    7.2679  -16.1349   19.5760 O   0  0  0  0  0  0  0  0  0  0  0  0
    8.3259  -18.4888   20.2120 C   0  0  0  0  0  0  0  0  0  0  0  0
    9.2987  -18.0983   21.2817 C   0  0  1  0  0  0  0  0  0  0  0  0
   10.5840  -18.2170   20.7514 O   0  0  0  0  0  0  0  0  0  0  0  0
    9.0442  -16.6658   21.7684 C   0  0  2  0  0  0  0  0  0  0  0  0
    9.2478  -15.7674   20.6741 N   0  0  0  0  0  0  0  0  0  0  0  0
    9.9245  -16.3946   22.9229 C   0  0  0  0  0  0  0  0  0  0  0  0
   11.1525  -16.1557   22.7947 O   0  0  0  0  0  0  0  0  0  0  0  0
    9.4533  -16.3809   24.2652 N   0  0  0  0  0  0  0  0  0  0  0  0
   10.2520  -16.0626   25.4145 C   0  0  1  0  0  0  0  0  0  0  0  0
    9.9418  -14.7835   26.0700 C   0  0  0  0  0  0  0  0  0  0  0  0
    8.4796  -14.5664   26.0872 C   0  0  0  0  0  0  0  0  0  0  0  0
    7.4259  -15.4511   26.0140 C   0  0  0  0  0  0  0  0  0  0  0  0
    6.2453  -14.8089   26.0478 N   0  0  0  0  0  0  0  0  0  0  0  0
    6.4759  -13.4924   26.1434 C   0  0  0  0  0  0  0  0  0  0  0  0
    5.6000  -12.4160   26.2091 C   0  0  0  0  0  0  0  0  0  0  0  0
    6.1239  -11.1516   26.3018 C   0  0  0  0  0  0  0  0  0  0  0  0
    7.4852  -10.9666   26.3283 C   0  0  0  0  0  0  0  0  0  0  0  0
    8.3549  -12.0486   26.2623 C   0  0  0  0  0  0  0  0  0  0  0  0
    7.8433  -13.3169   26.1695 C   0  0  0  0  0  0  0  0  0  0  0  0
   10.1184  -17.1632   26.3975 C   0  0  0  0  0  0  0  0  0  0  0  0
   10.9696  -17.1938   27.4862 O   0  0  0  0  0  0  0  0  0  0  0  0
    9.2630  -18.0375   26.2490 O   0  0  0  0  0  0  0  0  0  0  0  0
  2  1  1  0
  3  2  2  0
  4  2  1  0
  5  6  1  0
  5  4  1  0
  6  8  1  0
  6  7  1  6
  8  9  2  0
 11 13  1  0
 11 10  1  6
 12 11  1  0
 13 15  1  0
 14  8  1  0
 13 14  1  6
 15 16  2  0
 17 18  1  0
 17 15  1  0
 18 29  1  0
 18 19  1  1
 20 19  1  0
 20 21  2  0
 22 21  1  0
 23 22  1  0
 24 23  2  0
 25 24  1  0
 26 25  2  0
 26 27  1  0
 27 28  2  0
 28 23  1  0
 28 20  1  0
 29 30  1  0
 31 29  2  0
M  END
$$$$
