EAN.pdb
     RDKit          3D

 23 22  0  0  1  0  0  0  0  0999 V2000
   27.1497  -34.2087   -2.2414 N   0  0  0  0  0  0  0  0  0  0  0  0
   27.0362  -34.7934   -0.9126 C   0  0  1  0  0  0  0  0  0  0  0  0
   28.3448  -35.4336   -0.5723 C   0  0  0  0  0  0  0  0  0  0  0  0
   28.6197  -36.7188   -1.2867 C   0  0  0  0  0  0  0  0  0  0  0  0
   29.9344  -37.3190   -0.9601 C   0  0  0  0  0  0  0  0  0  0  0  0
   30.3133  -38.3772   -1.4940 O   0  0  0  0  0  0  0  0  0  0  0  0
   26.8146  -33.7022    0.1029 C   0  0  0  0  0  0  0  0  0  0  0  0
   27.3117  -32.5711   -0.1190 O   0  0  0  0  0  0  0  0  0  0  0  0
   30.8012  -36.7273   -0.0442 O   0  0  0  0  0  0  0  0  0  0  0  0
   24.5585  -33.1221    3.0497 C   0  0  0  0  0  0  0  0  0  0  0  0
   25.8481  -32.9039    2.2897 C   0  0  2  0  0  0  0  0  0  0  0  0
   26.0786  -33.8913    1.2848 N   0  0  0  0  0  0  0  0  0  0  0  0
   26.9497  -32.7953    3.2672 C   0  0  0  0  0  0  0  0  0  0  0  0
   26.9837  -31.8970    4.1437 O   0  0  0  0  0  0  0  0  0  0  0  0
   28.9120  -32.3906    6.7349 N   0  0  0  0  0  0  0  0  0  0  0  0
   28.6366  -33.7803    6.7043 C   0  0  0  0  0  0  0  0  0  0  0  0
   28.3405  -34.3327    7.7883 O   0  0  0  0  0  0  0  0  0  0  0  0
   28.6947  -34.5496    5.4512 C   0  0  0  0  0  0  0  0  0  0  0  0
   29.0769  -33.6796    4.2704 C   0  0  2  0  0  0  0  0  0  0  0  0
   28.0496  -33.7265    3.2599 N   0  0  0  0  0  0  0  0  0  0  0  0
   30.3752  -34.0680    3.7086 C   0  0  0  0  0  0  0  0  0  0  0  0
   31.5602  -33.4012    3.9815 O   0  0  0  0  0  0  0  0  0  0  0  0
   30.4471  -35.0536    2.9359 O   0  0  0  0  0  0  0  0  0  0  0  0
  2  1  1  6
  3  2  1  0
  4  3  1  0
  4  5  1  0
  5  6  2  0
  7  2  1  0
  8  7  2  0
  9  5  1  0
 11 10  1  1
 11 12  1  0
 11 13  1  0
 12  7  1  0
 13 20  1  0
 14 13  2  0
 16 17  2  0
 16 15  1  0
 18 16  1  0
 19 18  1  1
 19 21  1  0
 20 19  1  0
 21 23  2  0
 21 22  1  0
M  END
$$$$
