EAN.pdb
     RDKit          3D

 23 22  0  0  1  0  0  0  0  0999 V2000
   18.2088  -11.4875  -17.8915 N   0  0  0  0  0  0  0  0  0  0  0  0
   17.2894  -10.6048  -17.1873 C   0  0  1  0  0  0  0  0  0  0  0  0
   17.1853  -11.0750  -15.7710 C   0  0  0  0  0  0  0  0  0  0  0  0
   16.5177  -12.4024  -15.5975 C   0  0  0  0  0  0  0  0  0  0  0  0
   16.4325  -12.8530  -14.1885 C   0  0  0  0  0  0  0  0  0  0  0  0
   16.7348  -12.0965  -13.2479 O   0  0  0  0  0  0  0  0  0  0  0  0
   17.8638   -9.2124  -17.1369 C   0  0  0  0  0  0  0  0  0  0  0  0
   19.1103   -9.0838  -17.0641 O   0  0  0  0  0  0  0  0  0  0  0  0
   16.0120  -14.1386  -13.8559 O   0  0  0  0  0  0  0  0  0  0  0  0
   16.4519   -5.6803  -17.2340 C   0  0  0  0  0  0  0  0  0  0  0  0
   17.5557   -6.7107  -17.1438 C   0  0  2  0  0  0  0  0  0  0  0  0
   17.0705   -8.0531  -17.1673 N   0  0  0  0  0  0  0  0  0  0  0  0
   18.3781   -6.4064  -15.9557 C   0  0  0  0  0  0  0  0  0  0  0  0
   18.3484   -7.1142  -14.9190 O   0  0  0  0  0  0  0  0  0  0  0  0
   22.1824   -4.7907  -12.9210 N   0  0  0  0  0  0  0  0  0  0  0  0
   22.1361   -6.0002  -13.6577 C   0  0  0  0  0  0  0  0  0  0  0  0
   23.0007   -6.8673  -13.3962 O   0  0  0  0  0  0  0  0  0  0  0  0
   21.1144   -6.2343  -14.6907 C   0  0  0  0  0  0  0  0  0  0  0  0
   20.1747   -5.0538  -14.8347 C   0  0  2  0  0  0  0  0  0  0  0  0
   19.2634   -5.2695  -15.9310 N   0  0  0  0  0  0  0  0  0  0  0  0
   20.9079   -3.7954  -15.0096 C   0  0  0  0  0  0  0  0  0  0  0  0
   21.3356   -3.3207  -16.2404 O   0  0  0  0  0  0  0  0  0  0  0  0
   21.1766   -3.0896  -14.0079 O   0  0  0  0  0  0  0  0  0  0  0  0
  2  1  1  6
  3  2  1  0
  4  3  1  0
  4  5  1  0
  5  6  2  0
  7  2  1  0
  8  7  2  0
  9  5  1  0
 11 10  1  1
 11 12  1  0
 11 13  1  0
 12  7  1  0
 13 20  1  0
 14 13  2  0
 16 17  2  0
 16 15  1  0
 18 16  1  0
 19 18  1  6
 19 21  1  0
 20 19  1  0
 21 23  2  0
 21 22  1  0
M  END
$$$$
