EAN.pdb
     RDKit          3D

 23 22  0  0  1  0  0  0  0  0999 V2000
   26.4998  -34.3121  -11.7762 N   0  0  0  0  0  0  0  0  0  0  0  0
   25.1108  -34.5043  -11.3838 C   0  0  1  0  0  0  0  0  0  0  0  0
   24.7754  -35.9525  -11.5526 C   0  0  0  0  0  0  0  0  0  0  0  0
   25.4947  -36.6374  -12.6712 C   0  0  0  0  0  0  0  0  0  0  0  0
   24.6881  -37.6715  -13.3607 C   0  0  0  0  0  0  0  0  0  0  0  0
   25.1542  -38.3308  -14.3076 O   0  0  0  0  0  0  0  0  0  0  0  0
   24.9518  -34.1943   -9.9176 C   0  0  0  0  0  0  0  0  0  0  0  0
   23.7978  -33.9720   -9.4768 O   0  0  0  0  0  0  0  0  0  0  0  0
   23.3774  -37.9503  -12.9809 O   0  0  0  0  0  0  0  0  0  0  0  0
   25.7687  -31.7938   -8.3660 C   0  0  0  0  0  0  0  0  0  0  0  0
   26.2017  -33.1890   -7.9732 C   0  0  2  0  0  0  0  0  0  0  0  0
   26.0334  -34.1426   -9.0221 N   0  0  0  0  0  0  0  0  0  0  0  0
   25.4997  -33.5589   -6.7278 C   0  0  0  0  0  0  0  0  0  0  0  0
   25.6354  -32.9093   -5.6619 O   0  0  0  0  0  0  0  0  0  0  0  0
   21.5268  -32.9598   -7.0084 N   0  0  0  0  0  0  0  0  0  0  0  0
   21.9792  -33.5148   -5.7856 C   0  0  0  0  0  0  0  0  0  0  0  0
   21.9999  -32.7629   -4.7846 O   0  0  0  0  0  0  0  0  0  0  0  0
   22.4094  -34.9188   -5.6894 C   0  0  0  0  0  0  0  0  0  0  0  0
   23.9045  -35.0389   -5.4715 C   0  0  2  0  0  0  0  0  0  0  0  0
   24.6160  -34.6962   -6.6777 N   0  0  0  0  0  0  0  0  0  0  0  0
   24.2792  -36.3806   -5.0115 C   0  0  0  0  0  0  0  0  0  0  0  0
   23.9290  -37.5458   -5.6768 O   0  0  0  0  0  0  0  0  0  0  0  0
   24.9535  -36.5107   -3.9617 O   0  0  0  0  0  0  0  0  0  0  0  0
  2  1  1  1
  3  2  1  0
  4  3  1  0
  4  5  1  0
  5  6  2  0
  7  2  1  0
  8  7  2  0
  9  5  1  0
 11 10  1  6
 11 12  1  0
 11 13  1  0
 12  7  1  0
 13 20  1  0
 14 13  2  0
 16 17  2  0
 16 15  1  0
 18 16  1  0
 19 18  1  6
 19 21  1  0
 20 19  1  0
 21 23  2  0
 21 22  1  0
M  END
$$$$
