EAN.pdb
     RDKit          3D

 23 22  0  0  1  0  0  0  0  0999 V2000
   17.5974  -13.4571  -16.0992 N   0  0  0  0  0  0  0  0  0  0  0  0
   16.8963  -12.1847  -16.0023 C   0  0  1  0  0  0  0  0  0  0  0  0
   16.4574  -12.0016  -14.5839 C   0  0  0  0  0  0  0  0  0  0  0  0
   15.2841  -12.8357  -14.1771 C   0  0  0  0  0  0  0  0  0  0  0  0
   13.9845  -12.3300  -14.6779 C   0  0  0  0  0  0  0  0  0  0  0  0
   13.6096  -12.5520  -15.8435 O   0  0  0  0  0  0  0  0  0  0  0  0
   17.8495  -11.0575  -16.3061 C   0  0  0  0  0  0  0  0  0  0  0  0
   19.0186  -11.1272  -15.8545 O   0  0  0  0  0  0  0  0  0  0  0  0
   13.1281  -11.5867  -13.8691 O   0  0  0  0  0  0  0  0  0  0  0  0
   17.8164   -8.0176  -18.5664 C   0  0  0  0  0  0  0  0  0  0  0  0
   18.3626   -8.8649  -17.4386 C   0  0  2  0  0  0  0  0  0  0  0  0
   17.4913   -9.9340  -17.0701 N   0  0  0  0  0  0  0  0  0  0  0  0
   18.7040   -7.9733  -16.3120 C   0  0  0  0  0  0  0  0  0  0  0  0
   17.9324   -7.7969  -15.3374 O   0  0  0  0  0  0  0  0  0  0  0  0
   21.1703   -4.7169  -13.1302 N   0  0  0  0  0  0  0  0  0  0  0  0
   22.1512   -5.3406  -13.9405 C   0  0  0  0  0  0  0  0  0  0  0  0
   23.3512   -5.0813  -13.6944 O   0  0  0  0  0  0  0  0  0  0  0  0
   21.7807   -6.2580  -15.0299 C   0  0  0  0  0  0  0  0  0  0  0  0
   20.2776   -6.3667  -15.1914 C   0  0  2  0  0  0  0  0  0  0  0  0
   19.9534   -7.2558  -16.2790 N   0  0  0  0  0  0  0  0  0  0  0  0
   19.6577   -5.0525  -15.3932 C   0  0  0  0  0  0  0  0  0  0  0  0
   19.0243   -4.3397  -14.3862 O   0  0  0  0  0  0  0  0  0  0  0  0
   19.6872   -4.5204  -16.5288 O   0  0  0  0  0  0  0  0  0  0  0  0
  2  1  1  1
  3  2  1  0
  4  3  1  0
  4  5  1  0
  5  6  2  0
  7  2  1  0
  8  7  2  0
  9  5  1  0
 11 10  1  6
 11 12  1  0
 11 13  1  0
 12  7  1  0
 13 20  1  0
 14 13  2  0
 16 17  2  0
 16 15  1  0
 18 16  1  0
 19 18  1  6
 19 21  1  0
 20 19  1  0
 21 23  2  0
 21 22  1  0
M  END
$$$$
