EAN.pdb
     RDKit          3D

 23 22  0  0  1  0  0  0  0  0999 V2000
   22.4004  -13.8670  -17.7693 N   0  0  0  0  0  0  0  0  0  0  0  0
   21.7537  -12.6387  -18.2088 C   0  0  1  0  0  0  0  0  0  0  0  0
   20.5406  -12.4218  -17.3606 C   0  0  0  0  0  0  0  0  0  0  0  0
   19.4295  -13.3960  -17.5931 C   0  0  0  0  0  0  0  0  0  0  0  0
   18.1846  -13.0752  -16.8564 C   0  0  0  0  0  0  0  0  0  0  0  0
   17.1333  -12.7874  -17.4568 O   0  0  0  0  0  0  0  0  0  0  0  0
   22.6685  -11.4676  -17.9580 C   0  0  0  0  0  0  0  0  0  0  0  0
   23.3989  -11.4894  -16.9374 O   0  0  0  0  0  0  0  0  0  0  0  0
   18.1362  -13.0815  -15.4644 O   0  0  0  0  0  0  0  0  0  0  0  0
   23.9830   -8.6289  -20.0370 C   0  0  0  0  0  0  0  0  0  0  0  0
   23.6822   -9.2849  -18.7076 C   0  0  2  0  0  0  0  0  0  0  0  0
   22.7420  -10.3541  -18.8118 N   0  0  0  0  0  0  0  0  0  0  0  0
   23.2707   -8.2345  -17.7547 C   0  0  0  0  0  0  0  0  0  0  0  0
   24.0205   -7.2755  -17.4472 O   0  0  0  0  0  0  0  0  0  0  0  0
   20.9305   -5.2549  -14.3506 N   0  0  0  0  0  0  0  0  0  0  0  0
   22.1461   -5.9638  -14.1845 C   0  0  0  0  0  0  0  0  0  0  0  0
   22.8496   -5.6756  -13.1896 O   0  0  0  0  0  0  0  0  0  0  0  0
   22.5708   -6.9992  -15.1402 C   0  0  0  0  0  0  0  0  0  0  0  0
   21.5490   -7.2072  -16.2402 C   0  0  2  0  0  0  0  0  0  0  0  0
   21.9741   -8.2620  -17.1263 N   0  0  0  0  0  0  0  0  0  0  0  0
   21.2987   -5.9705  -16.9885 C   0  0  0  0  0  0  0  0  0  0  0  0
   20.4213   -4.9826  -16.5672 O   0  0  0  0  0  0  0  0  0  0  0  0
   21.8974   -5.7691  -18.0723 O   0  0  0  0  0  0  0  0  0  0  0  0
  2  1  1  1
  3  2  1  0
  4  3  1  0
  4  5  1  0
  5  6  2  0
  7  2  1  0
  8  7  2  0
  9  5  1  0
 11 10  1  6
 11 12  1  0
 11 13  1  0
 12  7  1  0
 13 20  1  0
 14 13  2  0
 16 17  2  0
 16 15  1  0
 18 16  1  0
 19 18  1  1
 19 21  1  0
 20 19  1  0
 21 23  2  0
 21 22  1  0
M  END
$$$$
