EAN.pdb
     RDKit          3D

 23 22  0  0  1  0  0  0  0  0999 V2000
   17.5006  -11.5712  -14.7935 N   0  0  0  0  0  0  0  0  0  0  0  0
   18.7118  -11.1642  -15.4919 C   0  0  1  0  0  0  0  0  0  0  0  0
   18.3345  -10.7610  -16.8823 C   0  0  0  0  0  0  0  0  0  0  0  0
   18.0580  -11.8990  -17.8129 C   0  0  0  0  0  0  0  0  0  0  0  0
   16.9484  -12.7779  -17.3749 C   0  0  0  0  0  0  0  0  0  0  0  0
   17.1637  -13.9236  -16.9396 O   0  0  0  0  0  0  0  0  0  0  0  0
   19.2895   -9.9393  -14.8308 C   0  0  0  0  0  0  0  0  0  0  0  0
   18.5284   -8.9659  -14.6099 O   0  0  0  0  0  0  0  0  0  0  0  0
   15.6202  -12.3620  -17.4307 O   0  0  0  0  0  0  0  0  0  0  0  0
   22.6446   -8.9603  -13.3440 C   0  0  0  0  0  0  0  0  0  0  0  0
   21.2563   -8.6839  -13.8774 C   0  0  2  0  0  0  0  0  0  0  0  0
   20.6383   -9.8359  -14.4508 N   0  0  0  0  0  0  0  0  0  0  0  0
   21.3359   -7.5389  -14.8064 C   0  0  0  0  0  0  0  0  0  0  0  0
   21.5519   -7.6842  -16.0347 O   0  0  0  0  0  0  0  0  0  0  0  0
   21.2666   -2.8878  -16.9771 N   0  0  0  0  0  0  0  0  0  0  0  0
   20.0161   -3.4131  -16.5668 C   0  0  0  0  0  0  0  0  0  0  0  0
   18.9850   -2.8661  -17.0200 O   0  0  0  0  0  0  0  0  0  0  0  0
   19.9261   -4.5564  -15.6447 C   0  0  0  0  0  0  0  0  0  0  0  0
   21.2950   -5.0637  -15.2371 C   0  0  2  0  0  0  0  0  0  0  0  0
   21.1673   -6.1855  -14.3406 N   0  0  0  0  0  0  0  0  0  0  0  0
   22.1071   -4.0039  -14.6296 C   0  0  0  0  0  0  0  0  0  0  0  0
   23.0625   -3.2760  -15.3229 O   0  0  0  0  0  0  0  0  0  0  0  0
   21.9499   -3.7192  -13.4180 O   0  0  0  0  0  0  0  0  0  0  0  0
  2  1  1  1
  3  2  1  0
  4  3  1  0
  4  5  1  0
  5  6  2  0
  7  2  1  0
  8  7  2  0
  9  5  1  0
 11 10  1  6
 11 12  1  0
 11 13  1  0
 12  7  1  0
 13 20  1  0
 14 13  2  0
 16 17  2  0
 16 15  1  0
 18 16  1  0
 19 18  1  1
 19 21  1  0
 20 19  1  0
 21 23  2  0
 21 22  1  0
M  END
$$$$
