EAN.pdb
     RDKit          3D

 23 22  0  0  1  0  0  0  0  0999 V2000
   23.4420  -14.5797  -18.0748 N   0  0  0  0  0  0  0  0  0  0  0  0
   22.8457  -13.4460  -18.7673 C   0  0  1  0  0  0  0  0  0  0  0  0
   21.3637  -13.6479  -18.8009 C   0  0  0  0  0  0  0  0  0  0  0  0
   20.9030  -14.7742  -19.6710 C   0  0  0  0  0  0  0  0  0  0  0  0
   21.0868  -14.5280  -21.1205 C   0  0  0  0  0  0  0  0  0  0  0  0
   20.8039  -13.4291  -21.6312 O   0  0  0  0  0  0  0  0  0  0  0  0
   23.0900  -12.1857  -17.9779 C   0  0  0  0  0  0  0  0  0  0  0  0
   22.8478  -12.1970  -16.7464 O   0  0  0  0  0  0  0  0  0  0  0  0
   21.5826  -15.5121  -21.9724 O   0  0  0  0  0  0  0  0  0  0  0  0
   24.3929   -8.6951  -18.7439 C   0  0  0  0  0  0  0  0  0  0  0  0
   23.7342   -9.7506  -17.8835 C   0  0  2  0  0  0  0  0  0  0  0  0
   23.5755  -11.0002  -18.5553 N   0  0  0  0  0  0  0  0  0  0  0  0
   22.4663   -9.2003  -17.3638 C   0  0  0  0  0  0  0  0  0  0  0  0
   21.3893   -9.2737  -18.0051 O   0  0  0  0  0  0  0  0  0  0  0  0
   18.6783   -7.3927  -14.4885 N   0  0  0  0  0  0  0  0  0  0  0  0
   19.6150   -8.0494  -13.6524 C   0  0  0  0  0  0  0  0  0  0  0  0
   19.2656   -8.2908  -12.4745 O   0  0  0  0  0  0  0  0  0  0  0  0
   20.9478   -8.4350  -14.1430 C   0  0  0  0  0  0  0  0  0  0  0  0
   21.1707   -7.9988  -15.5774 C   0  0  2  0  0  0  0  0  0  0  0  0
   22.4058   -8.5457  -16.0813 N   0  0  0  0  0  0  0  0  0  0  0  0
   21.1588   -6.5377  -15.7077 C   0  0  0  0  0  0  0  0  0  0  0  0
   19.9978   -5.7836  -15.7877 O   0  0  0  0  0  0  0  0  0  0  0  0
   22.2440   -5.9099  -15.7516 O   0  0  0  0  0  0  0  0  0  0  0  0
  2  1  1  1
  3  2  1  0
  4  3  1  0
  4  5  1  0
  5  6  2  0
  7  2  1  0
  8  7  2  0
  9  5  1  0
 11 10  1  6
 11 12  1  0
 11 13  1  0
 12  7  1  0
 13 20  1  0
 14 13  2  0
 16 17  2  0
 16 15  1  0
 18 16  1  0
 19 18  1  1
 19 21  1  0
 20 19  1  0
 21 23  2  0
 21 22  1  0
M  END
$$$$
