EAN.pdb
     RDKit          3D

 23 22  0  0  1  0  0  0  0  0999 V2000
   18.9340  -11.0281  -16.7107 N   0  0  0  0  0  0  0  0  0  0  0  0
   19.6711   -9.9788  -17.4005 C   0  0  1  0  0  0  0  0  0  0  0  0
   18.8440   -9.5109  -18.5559 C   0  0  0  0  0  0  0  0  0  0  0  0
   17.3664   -9.5443  -18.3247 C   0  0  0  0  0  0  0  0  0  0  0  0
   16.5685   -9.0219  -19.4586 C   0  0  0  0  0  0  0  0  0  0  0  0
   17.1155   -8.5402  -20.4671 O   0  0  0  0  0  0  0  0  0  0  0  0
   19.8400   -8.7936  -16.4849 C   0  0  0  0  0  0  0  0  0  0  0  0
   18.8253   -8.3435  -15.8989 O   0  0  0  0  0  0  0  0  0  0  0  0
   15.1759   -9.0467  -19.4457 O   0  0  0  0  0  0  0  0  0  0  0  0
   22.7636   -6.8235  -15.0890 C   0  0  0  0  0  0  0  0  0  0  0  0
   21.3010   -7.0474  -15.4036 C   0  0  2  0  0  0  0  0  0  0  0  0
   21.0783   -8.1699  -16.2569 N   0  0  0  0  0  0  0  0  0  0  0  0
   20.7432   -5.7879  -15.9357 C   0  0  0  0  0  0  0  0  0  0  0  0
   20.7688   -5.5058  -17.1589 O   0  0  0  0  0  0  0  0  0  0  0  0
   17.4391   -1.8402  -16.8106 N   0  0  0  0  0  0  0  0  0  0  0  0
   17.5436   -2.1466  -15.4312 C   0  0  0  0  0  0  0  0  0  0  0  0
   17.0832   -1.3120  -14.6193 O   0  0  0  0  0  0  0  0  0  0  0  0
   18.1678   -3.3950  -14.9646 C   0  0  0  0  0  0  0  0  0  0  0  0
   19.5308   -3.6143  -15.5902 C   0  0  2  0  0  0  0  0  0  0  0  0
   20.1364   -4.8128  -15.0651 N   0  0  0  0  0  0  0  0  0  0  0  0
   20.4112   -2.4580  -15.3907 C   0  0  0  0  0  0  0  0  0  0  0  0
   20.3445   -1.3017  -16.1534 O   0  0  0  0  0  0  0  0  0  0  0  0
   21.2815   -2.4893  -14.4878 O   0  0  0  0  0  0  0  0  0  0  0  0
  2  1  1  1
  3  2  1  0
  4  3  1  0
  4  5  1  0
  5  6  2  0
  7  2  1  0
  8  7  2  0
  9  5  1  0
 11 10  1  6
 11 12  1  0
 11 13  1  0
 12  7  1  0
 13 20  1  0
 14 13  2  0
 16 17  2  0
 16 15  1  0
 18 16  1  0
 19 18  1  1
 19 21  1  0
 20 19  1  0
 21 23  2  0
 21 22  1  0
M  END
$$$$
