EAN.pdb
     RDKit          3D

 23 22  0  0  1  0  0  0  0  0999 V2000
   18.7436  -11.6894  -17.8363 N   0  0  0  0  0  0  0  0  0  0  0  0
   18.4248  -11.4025  -16.4448 C   0  0  1  0  0  0  0  0  0  0  0  0
   18.3895  -12.6985  -15.6984 C   0  0  0  0  0  0  0  0  0  0  0  0
   17.2019  -13.5597  -15.9913 C   0  0  0  0  0  0  0  0  0  0  0  0
   16.2010  -13.5952  -14.8994 C   0  0  0  0  0  0  0  0  0  0  0  0
   16.5077  -13.9674  -13.7523 O   0  0  0  0  0  0  0  0  0  0  0  0
   19.5306  -10.5829  -15.8310 C   0  0  0  0  0  0  0  0  0  0  0  0
   19.4056  -10.2107  -14.6388 O   0  0  0  0  0  0  0  0  0  0  0  0
   14.8774  -13.2149  -15.1079 O   0  0  0  0  0  0  0  0  0  0  0  0
   23.0050   -9.4574  -16.8406 C   0  0  0  0  0  0  0  0  0  0  0  0
   21.7258   -9.3618  -16.0389 C   0  0  2  0  0  0  0  0  0  0  0  0
   20.6932  -10.2165  -16.5299 N   0  0  0  0  0  0  0  0  0  0  0  0
   21.3268   -7.9418  -15.9700 C   0  0  0  0  0  0  0  0  0  0  0  0
   20.7519   -7.3587  -16.9219 O   0  0  0  0  0  0  0  0  0  0  0  0
   20.3540   -3.1102  -14.6677 N   0  0  0  0  0  0  0  0  0  0  0  0
   19.4475   -4.1261  -14.2752 C   0  0  0  0  0  0  0  0  0  0  0  0
   18.3166   -3.7662  -13.8760 O   0  0  0  0  0  0  0  0  0  0  0  0
   19.8146   -5.5501  -14.3324 C   0  0  0  0  0  0  0  0  0  0  0  0
   21.2582   -5.7458  -14.7507 C   0  0  2  0  0  0  0  0  0  0  0  0
   21.5818   -7.1501  -14.7930 N   0  0  0  0  0  0  0  0  0  0  0  0
   22.1813   -5.0272  -13.8656 C   0  0  0  0  0  0  0  0  0  0  0  0
   22.7749   -3.8178  -14.1943 O   0  0  0  0  0  0  0  0  0  0  0  0
   22.4673   -5.5100  -12.7437 O   0  0  0  0  0  0  0  0  0  0  0  0
  2  1  1  6
  3  2  1  0
  4  3  1  0
  4  5  1  0
  5  6  2  0
  7  2  1  0
  8  7  2  0
  9  5  1  0
 11 10  1  6
 11 12  1  0
 11 13  1  0
 12  7  1  0
 13 20  1  0
 14 13  2  0
 16 17  2  0
 16 15  1  0
 18 16  1  0
 19 18  1  1
 19 21  1  0
 20 19  1  0
 21 23  2  0
 21 22  1  0
M  END
$$$$
