EAN.pdb
     RDKit          3D

 23 22  0  0  1  0  0  0  0  0999 V2000
   24.0420  -24.0896  -13.4357 N   0  0  0  0  0  0  0  0  0  0  0  0
   23.8274  -22.8322  -14.1379 C   0  0  1  0  0  0  0  0  0  0  0  0
   24.8338  -22.7370  -15.2407 C   0  0  0  0  0  0  0  0  0  0  0  0
   25.6954  -21.5148  -15.2007 C   0  0  0  0  0  0  0  0  0  0  0  0
   25.2475  -20.4335  -16.1093 C   0  0  0  0  0  0  0  0  0  0  0  0
   25.8761  -19.3635  -16.2010 O   0  0  0  0  0  0  0  0  0  0  0  0
   22.4706  -22.8444  -14.7939 C   0  0  0  0  0  0  0  0  0  0  0  0
   22.3842  -22.4796  -15.9918 O   0  0  0  0  0  0  0  0  0  0  0  0
   24.1072  -20.5665  -16.8982 O   0  0  0  0  0  0  0  0  0  0  0  0
   20.8580  -25.4580  -15.0887 C   0  0  0  0  0  0  0  0  0  0  0  0
   20.3018  -24.1208  -14.6520 C   0  0  2  0  0  0  0  0  0  0  0  0
   21.2996  -23.2445  -14.1283 N   0  0  0  0  0  0  0  0  0  0  0  0
   19.1877  -24.3660  -13.7143 C   0  0  0  0  0  0  0  0  0  0  0  0
   18.1963  -25.0736  -14.0194 O   0  0  0  0  0  0  0  0  0  0  0  0
   19.6102  -24.8712   -8.6877 N   0  0  0  0  0  0  0  0  0  0  0  0
   18.6379  -24.7760   -9.7141 C   0  0  0  0  0  0  0  0  0  0  0  0
   18.1916  -25.8466  -10.1857 O   0  0  0  0  0  0  0  0  0  0  0  0
   18.1670  -23.4731  -10.2105 C   0  0  0  0  0  0  0  0  0  0  0  0
   17.9545  -23.4827  -11.7112 C   0  0  2  0  0  0  0  0  0  0  0  0
   19.1868  -23.7976  -12.3899 N   0  0  0  0  0  0  0  0  0  0  0  0
   17.4100  -22.2073  -12.1897 C   0  0  0  0  0  0  0  0  0  0  0  0
   18.1852  -21.2044  -12.7522 O   0  0  0  0  0  0  0  0  0  0  0  0
   16.1789  -21.9846  -12.0974 O   0  0  0  0  0  0  0  0  0  0  0  0
  2  1  1  6
  3  2  1  0
  4  3  1  0
  4  5  1  0
  5  6  2  0
  7  2  1  0
  8  7  2  0
  9  5  1  0
 11 10  1  1
 11 12  1  0
 11 13  1  0
 12  7  1  0
 13 20  1  0
 14 13  2  0
 16 17  2  0
 16 15  1  0
 18 16  1  0
 19 18  1  1
 19 21  1  0
 20 19  1  0
 21 23  2  0
 21 22  1  0
M  END
$$$$
