EAN.pdb
     RDKit          3D

 23 22  0  0  1  0  0  0  0  0999 V2000
   13.7004  -10.5517  -10.5675 N   0  0  0  0  0  0  0  0  0  0  0  0
   15.1092  -10.2052  -10.4435 C   0  0  1  0  0  0  0  0  0  0  0  0
   15.8090  -10.6474  -11.6896 C   0  0  0  0  0  0  0  0  0  0  0  0
   15.8827  -12.1299  -11.8758 C   0  0  0  0  0  0  0  0  0  0  0  0
   16.5686  -12.5459  -13.1216 C   0  0  0  0  0  0  0  0  0  0  0  0
   15.9765  -13.2007  -13.9985 O   0  0  0  0  0  0  0  0  0  0  0  0
   15.2576   -8.7069  -10.3759 C   0  0  0  0  0  0  0  0  0  0  0  0
   14.8961   -8.0266  -11.3668 O   0  0  0  0  0  0  0  0  0  0  0  0
   17.9016  -12.2235  -13.3652 O   0  0  0  0  0  0  0  0  0  0  0  0
   15.5983   -6.0881   -7.7786 C   0  0  0  0  0  0  0  0  0  0  0  0
   15.9681   -6.6264   -9.1431 C   0  0  2  0  0  0  0  0  0  0  0  0
   15.7809   -8.0370   -9.2571 N   0  0  0  0  0  0  0  0  0  0  0  0
   17.3442   -6.1915   -9.4558 C   0  0  0  0  0  0  0  0  0  0  0  0
   18.3244   -6.4910   -8.7306 O   0  0  0  0  0  0  0  0  0  0  0  0
   21.5233   -5.1330  -12.2311 N   0  0  0  0  0  0  0  0  0  0  0  0
   20.9450   -6.4066  -12.0044 C   0  0  0  0  0  0  0  0  0  0  0  0
   21.5937   -7.4090  -12.3812 O   0  0  0  0  0  0  0  0  0  0  0  0
   19.6339   -6.5521  -11.3521 C   0  0  0  0  0  0  0  0  0  0  0  0
   18.9795   -5.2099  -11.0916 C   0  0  2  0  0  0  0  0  0  0  0  0
   17.6290   -5.3936  -10.6217 N   0  0  0  0  0  0  0  0  0  0  0  0
   19.0024   -4.3552  -12.2836 C   0  0  0  0  0  0  0  0  0  0  0  0
   20.0275   -3.4667  -12.5716 O   0  0  0  0  0  0  0  0  0  0  0  0
   18.0555   -4.4102  -13.1047 O   0  0  0  0  0  0  0  0  0  0  0  0
  2  1  1  6
  3  2  1  0
  4  3  1  0
  4  5  1  0
  5  6  2  0
  7  2  1  0
  8  7  2  0
  9  5  1  0
 11 10  1  1
 11 12  1  0
 11 13  1  0
 12  7  1  0
 13 20  1  0
 14 13  2  0
 16 17  2  0
 16 15  1  0
 18 16  1  0
 19 18  1  6
 19 21  1  0
 20 19  1  0
 21 23  2  0
 21 22  1  0
M  END
$$$$
