EAN.pdb
     RDKit          3D

 23 22  0  0  1  0  0  0  0  0999 V2000
   14.2730   -8.8370   -9.2291 N   0  0  0  0  0  0  0  0  0  0  0  0
   14.4054   -7.3877   -9.2756 C   0  0  1  0  0  0  0  0  0  0  0  0
   15.0941   -6.9426   -8.0243 C   0  0  0  0  0  0  0  0  0  0  0  0
   14.5780   -5.6640   -7.4443 C   0  0  0  0  0  0  0  0  0  0  0  0
   13.2058   -5.7640   -6.8942 C   0  0  0  0  0  0  0  0  0  0  0  0
   12.6611   -4.7956   -6.3339 O   0  0  0  0  0  0  0  0  0  0  0  0
   15.3028   -6.9982  -10.4220 C   0  0  0  0  0  0  0  0  0  0  0  0
   16.2542   -7.7607  -10.7202 O   0  0  0  0  0  0  0  0  0  0  0  0
   12.4677   -6.9422   -6.9795 O   0  0  0  0  0  0  0  0  0  0  0  0
   15.4102   -4.1467  -12.9393 C   0  0  0  0  0  0  0  0  0  0  0  0
   15.8579   -5.4624  -12.3419 C   0  0  2  0  0  0  0  0  0  0  0  0
   15.1245   -5.8232  -11.1716 N   0  0  0  0  0  0  0  0  0  0  0  0
   17.3168   -5.3993  -12.1222 C   0  0  0  0  0  0  0  0  0  0  0  0
   17.8185   -5.2585  -10.9799 O   0  0  0  0  0  0  0  0  0  0  0  0
   22.4254   -5.6298  -12.6523 N   0  0  0  0  0  0  0  0  0  0  0  0
   21.6766   -6.8314  -12.5940 C   0  0  0  0  0  0  0  0  0  0  0  0
   22.3091   -7.8956  -12.4065 O   0  0  0  0  0  0  0  0  0  0  0  0
   20.2129   -6.8351  -12.7469 C   0  0  0  0  0  0  0  0  0  0  0  0
   19.6678   -5.4451  -13.0077 C   0  0  2  0  0  0  0  0  0  0  0  0
   18.2431   -5.4975  -13.2219 N   0  0  0  0  0  0  0  0  0  0  0  0
   20.3399   -4.8034  -14.1429 C   0  0  0  0  0  0  0  0  0  0  0  0
   21.4334   -3.9608  -14.0113 O   0  0  0  0  0  0  0  0  0  0  0  0
   19.9238   -5.0106  -15.3081 O   0  0  0  0  0  0  0  0  0  0  0  0
  2  1  1  1
  3  2  1  0
  4  3  1  0
  4  5  1  0
  5  6  2  0
  7  2  1  0
  8  7  2  0
  9  5  1  0
 11 10  1  1
 11 12  1  0
 11 13  1  0
 12  7  1  0
 13 20  1  0
 14 13  2  0
 16 17  2  0
 16 15  1  0
 18 16  1  0
 19 18  1  6
 19 21  1  0
 20 19  1  0
 21 23  2  0
 21 22  1  0
M  END
$$$$
