EAN.pdb
     RDKit          3D

 23 22  0  0  1  0  0  0  0  0999 V2000
   16.7659  -10.4114  -19.0456 N   0  0  0  0  0  0  0  0  0  0  0  0
   16.0827   -9.5521  -18.0890 C   0  0  1  0  0  0  0  0  0  0  0  0
   16.0655  -10.2498  -16.7657 C   0  0  0  0  0  0  0  0  0  0  0  0
   15.2901  -11.5288  -16.7402 C   0  0  0  0  0  0  0  0  0  0  0  0
   15.3207  -12.2244  -15.4323 C   0  0  0  0  0  0  0  0  0  0  0  0
   14.3207  -12.8207  -14.9931 O   0  0  0  0  0  0  0  0  0  0  0  0
   16.8718   -8.2828  -17.8955 C   0  0  0  0  0  0  0  0  0  0  0  0
   18.0845   -8.2794  -18.2194 O   0  0  0  0  0  0  0  0  0  0  0  0
   16.4659  -12.2416  -14.6397 O   0  0  0  0  0  0  0  0  0  0  0  0
   16.0954   -4.7367  -16.7692 C   0  0  0  0  0  0  0  0  0  0  0  0
   17.0108   -5.8773  -17.1557 C   0  0  2  0  0  0  0  0  0  0  0  0
   16.3144   -7.1048  -17.3703 N   0  0  0  0  0  0  0  0  0  0  0  0
   18.0782   -5.9796  -16.1405 C   0  0  0  0  0  0  0  0  0  0  0  0
   18.8288   -5.0143  -15.8554 O   0  0  0  0  0  0  0  0  0  0  0  0
   21.0371   -7.5262  -12.2109 N   0  0  0  0  0  0  0  0  0  0  0  0
   19.8446   -8.2913  -12.1907 C   0  0  0  0  0  0  0  0  0  0  0  0
   19.6702   -9.0604  -11.2182 O   0  0  0  0  0  0  0  0  0  0  0  0
   18.8464   -8.1905  -13.2673 C   0  0  0  0  0  0  0  0  0  0  0  0
   19.3183   -7.2934  -14.3942 C   0  0  2  0  0  0  0  0  0  0  0  0
   18.3104   -7.2068  -15.4215 N   0  0  0  0  0  0  0  0  0  0  0  0
   20.5931   -7.7534  -14.9557 C   0  0  0  0  0  0  0  0  0  0  0  0
   21.8275   -7.2550  -14.5671 O   0  0  0  0  0  0  0  0  0  0  0  0
   20.5967   -8.6458  -15.8373 O   0  0  0  0  0  0  0  0  0  0  0  0
  2  1  1  6
  3  2  1  0
  4  3  1  0
  4  5  1  0
  5  6  2  0
  7  2  1  0
  8  7  2  0
  9  5  1  0
 11 10  1  1
 11 12  1  0
 11 13  1  0
 12  7  1  0
 13 20  1  0
 14 13  2  0
 16 17  2  0
 16 15  1  0
 18 16  1  0
 19 18  1  1
 19 21  1  0
 20 19  1  0
 21 23  2  0
 21 22  1  0
M  END
$$$$
