ENV.pdb
     RDKit          3D

 25 24  0  0  1  0  0  0  0  0999 V2000
    9.6054  -17.7595   20.5315 N   0  0  0  0  0  0  0  0  0  0  0  0
    8.8419  -16.5890   20.2354 C   0  0  1  0  0  0  0  0  0  0  0  0
    7.8303  -16.7610   19.1590 C   0  0  0  0  0  0  0  0  0  0  0  0
    8.0062  -17.8806   18.2084 C   0  0  0  0  0  0  0  0  0  0  0  0
    6.9965  -17.9147   17.1595 C   0  0  0  0  0  0  0  0  0  0  0  0
    5.8551  -18.4015   17.2039 O   0  0  0  0  0  0  0  0  0  0  0  0
    8.0585  -16.2349   21.4837 C   0  0  0  0  0  0  0  0  0  0  0  0
    7.2751  -15.2795   21.4241 O   0  0  0  0  0  0  0  0  0  0  0  0
    7.3399  -17.3229   15.9237 O   0  0  0  0  0  0  0  0  0  0  0  0
    6.6158  -20.0405   23.7303 N   0  0  0  0  0  0  0  0  0  0  0  0
    6.2514  -18.7345   24.1257 C   0  0  0  0  0  0  0  0  0  0  0  0
    5.0943  -18.3339   23.9591 O   0  0  0  0  0  0  0  0  0  0  0  0
    7.2753  -17.8620   24.7390 C   0  0  0  0  0  0  0  0  0  0  0  0
    7.5834  -16.6748   23.8895 C   0  0  2  0  0  0  0  0  0  0  0  0
    8.2389  -16.9914   22.6630 N   0  0  0  0  0  0  0  0  0  0  0  0
    8.3302  -15.6653   24.7181 C   0  0  0  0  0  0  0  0  0  0  0  0
    9.5637  -15.7805   24.7945 O   0  0  0  0  0  0  0  0  0  0  0  0
    6.2410  -12.7558   27.1740 C   0  0  0  0  0  0  0  0  0  0  0  0
    7.4992  -12.4165   26.4436 C   0  0  2  0  0  0  0  0  0  0  0  0
    7.2742  -11.7075   25.1352 C   0  0  0  0  0  0  0  0  0  0  0  0
    8.3098  -13.6703   26.2195 C   0  0  2  0  0  0  0  0  0  0  0  0
    7.6338  -14.6233   25.3826 N   0  0  0  0  0  0  0  0  0  0  0  0
    8.6182  -14.2939   27.5281 C   0  0  0  0  0  0  0  0  0  0  0  0
    8.0949  -15.3582   27.9371 O   0  0  0  0  0  0  0  0  0  0  0  0
    9.5443  -13.6945   28.3947 O   0  0  0  0  0  0  0  0  0  0  0  0
  2  1  1  1
  2  7  1  0
  3  4  1  0
  3  2  1  0
  5  4  1  0
  6  5  2  0
  7  8  2  0
  9  5  1  0
 11 10  1  0
 11 12  2  0
 14 13  1  1
 13 11  1  0
 15  7  1  0
 15 14  1  0
 16 14  1  0
 16 17  2  0
 19 18  1  6
 19 21  1  0
 20 19  1  0
 21 23  1  0
 21 22  1  6
 22 16  1  0
 23 25  1  0
 24 23  2  0
M  END
$$$$
