ENV.pdb
     RDKit          3D

 25 24  0  0  1  0  0  0  0  0999 V2000
   10.3639  -16.7317   20.0262 N   0  0  0  0  0  0  0  0  0  0  0  0
    9.2027  -15.9199   19.8441 C   0  0  1  0  0  0  0  0  0  0  0  0
    8.2192  -16.4508   18.8629 C   0  0  0  0  0  0  0  0  0  0  0  0
    8.7318  -17.0000   17.5886 C   0  0  0  0  0  0  0  0  0  0  0  0
    7.6947  -17.5864   16.7512 C   0  0  0  0  0  0  0  0  0  0  0  0
    7.1689  -18.7072   16.8468 O   0  0  0  0  0  0  0  0  0  0  0  0
    8.4740  -15.8721   21.1723 C   0  0  0  0  0  0  0  0  0  0  0  0
    7.4434  -15.1918   21.2433 O   0  0  0  0  0  0  0  0  0  0  0  0
    7.2104  -16.7943   15.6866 O   0  0  0  0  0  0  0  0  0  0  0  0
    6.3918  -18.0716   25.6723 N   0  0  0  0  0  0  0  0  0  0  0  0
    7.7884  -17.8779   25.5906 C   0  0  0  0  0  0  0  0  0  0  0  0
    8.4501  -17.6790   26.6153 O   0  0  0  0  0  0  0  0  0  0  0  0
    8.4388  -17.9177   24.2635 C   0  0  0  0  0  0  0  0  0  0  0  0
    8.3324  -16.6135   23.5466 C   0  0  2  0  0  0  0  0  0  0  0  0
    8.9807  -16.5932   22.2764 N   0  0  0  0  0  0  0  0  0  0  0  0
    8.7931  -15.5151   24.4657 C   0  0  0  0  0  0  0  0  0  0  0  0
   10.0142  -15.3101   24.5531 O   0  0  0  0  0  0  0  0  0  0  0  0
    5.9951  -13.2389   26.9089 C   0  0  0  0  0  0  0  0  0  0  0  0
    7.1583  -12.6216   26.2036 C   0  0  2  0  0  0  0  0  0  0  0  0
    6.8121  -12.0117   24.8719 C   0  0  0  0  0  0  0  0  0  0  0  0
    8.2517  -13.6486   26.0333 C   0  0  2  0  0  0  0  0  0  0  0  0
    7.8517  -14.7489   25.1997 N   0  0  0  0  0  0  0  0  0  0  0  0
    8.6549  -14.1593   27.3649 C   0  0  0  0  0  0  0  0  0  0  0  0
    8.4375  -15.3297   27.7610 O   0  0  0  0  0  0  0  0  0  0  0  0
    9.3218  -13.3205   28.2702 O   0  0  0  0  0  0  0  0  0  0  0  0
  2  1  1  1
  2  7  1  0
  3  4  1  0
  3  2  1  0
  5  4  1  0
  6  5  2  0
  7  8  2  0
  9  5  1  0
 11 10  1  0
 11 12  2  0
 14 13  1  1
 13 11  1  0
 15  7  1  0
 15 14  1  0
 16 14  1  0
 16 17  2  0
 19 18  1  6
 19 21  1  0
 20 19  1  0
 21 23  1  0
 21 22  1  6
 22 16  1  0
 23 25  1  0
 24 23  2  0
M  END
$$$$
