ENV.pdb
     RDKit          3D

 25 24  0  0  1  0  0  0  0  0999 V2000
    9.8351  -16.9361   19.6844 N   0  0  0  0  0  0  0  0  0  0  0  0
   10.0457  -17.4534   20.9992 C   0  0  1  0  0  0  0  0  0  0  0  0
   11.4544  -17.8178   21.3070 C   0  0  0  0  0  0  0  0  0  0  0  0
   12.1046  -18.8542   20.4756 C   0  0  0  0  0  0  0  0  0  0  0  0
   13.4624  -18.5102   20.0770 C   0  0  0  0  0  0  0  0  0  0  0  0
   14.1115  -17.4885   20.3538 O   0  0  0  0  0  0  0  0  0  0  0  0
    9.6813  -16.3556   21.9786 C   0  0  0  0  0  0  0  0  0  0  0  0
    9.2362  -15.2960   21.5215 O   0  0  0  0  0  0  0  0  0  0  0  0
   14.1475  -19.4465   19.2712 O   0  0  0  0  0  0  0  0  0  0  0  0
    5.6835  -15.2684   25.5893 N   0  0  0  0  0  0  0  0  0  0  0  0
    6.9911  -14.9511   25.1602 C   0  0  0  0  0  0  0  0  0  0  0  0
    7.5538  -13.9336   25.5788 O   0  0  0  0  0  0  0  0  0  0  0  0
    7.6689  -15.8548   24.2063 C   0  0  0  0  0  0  0  0  0  0  0  0
    9.1532  -15.8147   24.3526 C   0  0  2  0  0  0  0  0  0  0  0  0
    9.8557  -16.5661   23.3646 N   0  0  0  0  0  0  0  0  0  0  0  0
    9.5131  -16.2032   25.7608 C   0  0  0  0  0  0  0  0  0  0  0  0
    9.5256  -17.4125   26.0404 O   0  0  0  0  0  0  0  0  0  0  0  0
    9.7430  -14.2188   29.5835 C   0  0  0  0  0  0  0  0  0  0  0  0
   10.9387  -14.2538   28.6887 C   0  0  2  0  0  0  0  0  0  0  0  0
   11.1649  -12.9793   27.9208 C   0  0  0  0  0  0  0  0  0  0  0  0
   10.8250  -15.4187   27.7351 C   0  0  2  0  0  0  0  0  0  0  0  0
    9.8254  -15.2097   26.7238 N   0  0  0  0  0  0  0  0  0  0  0  0
   10.5044  -16.6472   28.4996 C   0  0  0  0  0  0  0  0  0  0  0  0
    9.3827  -17.2088   28.4837 O   0  0  0  0  0  0  0  0  0  0  0  0
   11.4817  -17.2540   29.3024 O   0  0  0  0  0  0  0  0  0  0  0  0
  2  1  1  6
  2  7  1  0
  3  4  1  0
  3  2  1  0
  5  4  1  0
  6  5  2  0
  7  8  2  0
  9  5  1  0
 11 10  1  0
 11 12  2  0
 14 13  1  6
 13 11  1  0
 15  7  1  0
 15 14  1  0
 16 14  1  0
 16 17  2  0
 19 18  1  6
 19 21  1  0
 20 19  1  0
 21 23  1  0
 21 22  1  6
 22 16  1  0
 23 25  1  0
 24 23  2  0
M  END
$$$$
