ENV.pdb
     RDKit          3D

 25 24  0  0  1  0  0  0  0  0999 V2000
    9.6342  -16.3241   19.6943 N   0  0  0  0  0  0  0  0  0  0  0  0
    8.2468  -16.3129   20.0341 C   0  0  1  0  0  0  0  0  0  0  0  0
    7.4545  -17.4300   19.4543 C   0  0  0  0  0  0  0  0  0  0  0  0
    7.7796  -17.8776   18.0824 C   0  0  0  0  0  0  0  0  0  0  0  0
    6.9486  -18.9805   17.6201 C   0  0  0  0  0  0  0  0  0  0  0  0
    5.7950  -18.9373   17.1626 O   0  0  0  0  0  0  0  0  0  0  0  0
    8.1502  -16.4770   21.5377 C   0  0  0  0  0  0  0  0  0  0  0  0
    7.0226  -16.5201   22.0443 O   0  0  0  0  0  0  0  0  0  0  0  0
    7.5083  -20.2754   17.6929 O   0  0  0  0  0  0  0  0  0  0  0  0
   11.1336  -19.7062   22.9868 N   0  0  0  0  0  0  0  0  0  0  0  0
   10.1586  -19.0809   23.7949 C   0  0  0  0  0  0  0  0  0  0  0  0
    9.1421  -19.6971   24.1331 O   0  0  0  0  0  0  0  0  0  0  0  0
   10.3770  -17.6835   24.2254 C   0  0  0  0  0  0  0  0  0  0  0  0
    9.3116  -16.7679   23.7226 C   0  0  2  0  0  0  0  0  0  0  0  0
    9.3293  -16.5752   22.3095 N   0  0  0  0  0  0  0  0  0  0  0  0
    9.3722  -15.4801   24.4980 C   0  0  0  0  0  0  0  0  0  0  0  0
   10.3724  -14.7611   24.3453 O   0  0  0  0  0  0  0  0  0  0  0  0
    6.7485  -12.7436   24.7506 C   0  0  0  0  0  0  0  0  0  0  0  0
    7.0693  -13.1515   26.1514 C   0  0  2  0  0  0  0  0  0  0  0  0
    7.1375  -12.0032   27.1220 C   0  0  0  0  0  0  0  0  0  0  0  0
    8.3671  -13.9226   26.1709 C   0  0  2  0  0  0  0  0  0  0  0  0
    8.3142  -15.1142   25.3691 N   0  0  0  0  0  0  0  0  0  0  0  0
    8.7011  -14.2829   27.5691 C   0  0  0  0  0  0  0  0  0  0  0  0
    8.4686  -15.4062   28.0772 O   0  0  0  0  0  0  0  0  0  0  0  0
    9.3146  -13.3447   28.4124 O   0  0  0  0  0  0  0  0  0  0  0  0
  2  1  1  6
  2  7  1  0
  3  4  1  0
  3  2  1  0
  5  4  1  0
  6  5  2  0
  7  8  2  0
  9  5  1  0
 11 10  1  0
 11 12  2  0
 14 13  1  1
 13 11  1  0
 15  7  1  0
 15 14  1  0
 16 14  1  0
 16 17  2  0
 19 18  1  6
 19 21  1  0
 20 19  1  0
 21 23  1  0
 21 22  1  6
 22 16  1  0
 23 25  1  0
 24 23  2  0
M  END
$$$$
