ENV.pdb
     RDKit          3D

 25 24  0  0  1  0  0  0  0  0999 V2000
    7.7044  -14.3067   18.5160 N   0  0  0  0  0  0  0  0  0  0  0  0
    8.6947  -14.5750   19.5100 C   0  0  1  0  0  0  0  0  0  0  0  0
    9.6030  -13.4356   19.8077 C   0  0  0  0  0  0  0  0  0  0  0  0
   10.7751  -13.2296   18.9290 C   0  0  0  0  0  0  0  0  0  0  0  0
   11.7687  -14.2894   19.0297 C   0  0  0  0  0  0  0  0  0  0  0  0
   11.6372  -15.4965   18.7699 O   0  0  0  0  0  0  0  0  0  0  0  0
    7.9644  -14.8683   20.8053 C   0  0  0  0  0  0  0  0  0  0  0  0
    6.8674  -14.3266   20.9872 O   0  0  0  0  0  0  0  0  0  0  0  0
   13.0552  -13.9175   19.4790 O   0  0  0  0  0  0  0  0  0  0  0  0
    5.8897  -18.0053   24.5888 N   0  0  0  0  0  0  0  0  0  0  0  0
    7.2989  -17.9547   24.5098 C   0  0  0  0  0  0  0  0  0  0  0  0
    7.9874  -18.2021   25.5058 O   0  0  0  0  0  0  0  0  0  0  0  0
    7.9298  -17.6021   23.2200 C   0  0  0  0  0  0  0  0  0  0  0  0
    7.8702  -16.1363   22.9479 C   0  0  2  0  0  0  0  0  0  0  0  0
    8.5442  -15.7380   21.7557 N   0  0  0  0  0  0  0  0  0  0  0  0
    8.3395  -15.3958   24.1706 C   0  0  0  0  0  0  0  0  0  0  0  0
    9.5584  -15.1941   24.2906 O   0  0  0  0  0  0  0  0  0  0  0  0
    5.7895  -12.6606   25.6814 C   0  0  0  0  0  0  0  0  0  0  0  0
    6.5799  -13.3115   26.7691 C   0  0  2  0  0  0  0  0  0  0  0  0
    7.0268  -12.3646   27.8503 C   0  0  0  0  0  0  0  0  0  0  0  0
    7.7742  -14.0186   26.1751 C   0  0  2  0  0  0  0  0  0  0  0  0
    7.4084  -14.9497   25.1432 N   0  0  0  0  0  0  0  0  0  0  0  0
    8.5034  -14.7336   27.2492 C   0  0  0  0  0  0  0  0  0  0  0  0
    9.1639  -14.1600   28.1485 O   0  0  0  0  0  0  0  0  0  0  0  0
    8.4825  -16.1351   27.3043 O   0  0  0  0  0  0  0  0  0  0  0  0
  2  1  1  6
  2  7  1  0
  3  4  1  0
  3  2  1  0
  5  4  1  0
  6  5  2  0
  7  8  2  0
  9  5  1  0
 11 10  1  0
 11 12  2  0
 14 13  1  1
 13 11  1  0
 15  7  1  0
 15 14  1  0
 16 14  1  0
 16 17  2  0
 19 18  1  6
 19 21  1  0
 20 19  1  0
 21 23  1  0
 21 22  1  6
 22 16  1  0
 23 25  1  0
 24 23  2  0
M  END
$$$$
