ENV.pdb
     RDKit          3D

 25 24  0  0  1  0  0  0  0  0999 V2000
    8.0944  -13.0900   19.0616 N   0  0  0  0  0  0  0  0  0  0  0  0
    8.4312  -14.4213   19.4551 C   0  0  1  0  0  0  0  0  0  0  0  0
    9.8895  -14.6813   19.5881 C   0  0  0  0  0  0  0  0  0  0  0  0
   10.7859  -13.5275   19.8187 C   0  0  0  0  0  0  0  0  0  0  0  0
   12.1967  -13.8870   19.8529 C   0  0  0  0  0  0  0  0  0  0  0  0
   13.1350  -13.3886   19.2102 O   0  0  0  0  0  0  0  0  0  0  0  0
    7.8459  -14.6446   20.8352 C   0  0  0  0  0  0  0  0  0  0  0  0
    7.2655  -13.6969   21.3783 O   0  0  0  0  0  0  0  0  0  0  0  0
   12.5670  -14.9360   20.7234 O   0  0  0  0  0  0  0  0  0  0  0  0
    6.2622  -16.8032   25.1300 N   0  0  0  0  0  0  0  0  0  0  0  0
    6.6718  -17.9054   24.3476 C   0  0  0  0  0  0  0  0  0  0  0  0
    6.5009  -19.0583   24.7588 O   0  0  0  0  0  0  0  0  0  0  0  0
    7.3049  -17.6541   23.0355 C   0  0  0  0  0  0  0  0  0  0  0  0
    7.4182  -16.1967   22.7365 C   0  0  2  0  0  0  0  0  0  0  0  0
    7.9749  -15.9071   21.4557 N   0  0  0  0  0  0  0  0  0  0  0  0
    8.1487  -15.5244   23.8669 C   0  0  0  0  0  0  0  0  0  0  0  0
    9.3891  -15.5702   23.8605 O   0  0  0  0  0  0  0  0  0  0  0  0
    6.5827  -12.1813   25.3253 C   0  0  0  0  0  0  0  0  0  0  0  0
    7.1794  -12.9760   26.4406 C   0  0  2  0  0  0  0  0  0  0  0  0
    7.9258  -12.1468   27.4508 C   0  0  0  0  0  0  0  0  0  0  0  0
    8.0866  -14.0421   25.8752 C   0  0  2  0  0  0  0  0  0  0  0  0
    7.4300  -14.8647   24.8967 N   0  0  0  0  0  0  0  0  0  0  0  0
    8.5881  -14.8937   26.9796 C   0  0  0  0  0  0  0  0  0  0  0  0
    8.1610  -16.0480   27.2229 O   0  0  0  0  0  0  0  0  0  0  0  0
    9.6002  -14.4237   27.8296 O   0  0  0  0  0  0  0  0  0  0  0  0
  2  1  1  1
  2  7  1  0
  3  4  1  0
  3  2  1  0
  5  4  1  0
  6  5  2  0
  7  8  2  0
  9  5  1  0
 11 10  1  0
 11 12  2  0
 14 13  1  1
 13 11  1  0
 15  7  1  0
 15 14  1  0
 16 14  1  0
 16 17  2  0
 19 18  1  6
 19 21  1  0
 20 19  1  0
 21 23  1  0
 21 22  1  6
 22 16  1  0
 23 25  1  0
 24 23  2  0
M  END
$$$$
