ENV.pdb
     RDKit          3D

 25 24  0  0  1  0  0  0  0  0999 V2000
    9.9292  -13.4859   19.4600 N   0  0  0  0  0  0  0  0  0  0  0  0
    8.5067  -13.4997   19.5908 C   0  0  1  0  0  0  0  0  0  0  0  0
    7.7803  -14.0822   18.4311 C   0  0  0  0  0  0  0  0  0  0  0  0
    8.5539  -14.3996   17.2109 C   0  0  0  0  0  0  0  0  0  0  0  0
    7.7321  -14.8967   16.1163 C   0  0  0  0  0  0  0  0  0  0  0  0
    7.1446  -15.9870   16.0270 O   0  0  0  0  0  0  0  0  0  0  0  0
    8.1720  -14.3864   20.7735 C   0  0  0  0  0  0  0  0  0  0  0  0
    6.9825  -14.5011   21.0929 O   0  0  0  0  0  0  0  0  0  0  0  0
    7.5695  -14.0438   15.0021 O   0  0  0  0  0  0  0  0  0  0  0  0
    8.3185  -18.0161   21.1144 N   0  0  0  0  0  0  0  0  0  0  0  0
    9.5937  -17.9693   21.7198 C   0  0  0  0  0  0  0  0  0  0  0  0
   10.4915  -18.7286   21.3394 O   0  0  0  0  0  0  0  0  0  0  0  0
    9.8315  -16.9999   22.8105 C   0  0  0  0  0  0  0  0  0  0  0  0
    8.9834  -15.7801   22.6725 C   0  0  2  0  0  0  0  0  0  0  0  0
    9.2081  -15.0483   21.4692 N   0  0  0  0  0  0  0  0  0  0  0  0
    9.1321  -14.9423   23.9133 C   0  0  0  0  0  0  0  0  0  0  0  0
   10.2274  -14.3927   24.1105 O   0  0  0  0  0  0  0  0  0  0  0  0
    6.6016  -12.3511   25.0174 C   0  0  0  0  0  0  0  0  0  0  0  0
    6.9125  -13.1522   26.2392 C   0  0  2  0  0  0  0  0  0  0  0  0
    7.0821  -12.3255   27.4855 C   0  0  0  0  0  0  0  0  0  0  0  0
    8.1487  -13.9849   25.9991 C   0  0  2  0  0  0  0  0  0  0  0  0
    8.0482  -14.7952   24.8163 N   0  0  0  0  0  0  0  0  0  0  0  0
    8.3883  -14.8551   27.1746 C   0  0  0  0  0  0  0  0  0  0  0  0
    8.1516  -16.0870   27.1936 O   0  0  0  0  0  0  0  0  0  0  0  0
    8.9101  -14.3136   28.3589 O   0  0  0  0  0  0  0  0  0  0  0  0
  2  1  1  6
  2  7  1  0
  3  4  1  0
  3  2  1  0
  5  4  1  0
  6  5  2  0
  7  8  2  0
  9  5  1  0
 11 10  1  0
 11 12  2  0
 14 13  1  1
 13 11  1  0
 15  7  1  0
 15 14  1  0
 16 14  1  0
 16 17  2  0
 19 18  1  6
 19 21  1  0
 20 19  1  0
 21 23  1  0
 21 22  1  6
 22 16  1  0
 23 25  1  0
 24 23  2  0
M  END
$$$$
