ENV.pdb
     RDKit          3D

 25 24  0  0  1  0  0  0  0  0999 V2000
   11.0083  -14.1896   19.4974 N   0  0  0  0  0  0  0  0  0  0  0  0
    9.6922  -13.6751   19.7063 C   0  0  1  0  0  0  0  0  0  0  0  0
    8.7403  -13.9285   18.5921 C   0  0  0  0  0  0  0  0  0  0  0  0
    9.2480  -14.6114   17.3822 C   0  0  0  0  0  0  0  0  0  0  0  0
    8.2214  -14.8504   16.3774 C   0  0  0  0  0  0  0  0  0  0  0  0
    7.4597  -14.0282   15.8429 O   0  0  0  0  0  0  0  0  0  0  0  0
    9.1151  -14.3908   20.9113 C   0  0  0  0  0  0  0  0  0  0  0  0
    7.9511  -14.1290   21.2377 O   0  0  0  0  0  0  0  0  0  0  0  0
    8.0542  -16.1832   15.9404 O   0  0  0  0  0  0  0  0  0  0  0  0
   11.6673  -18.2689   21.3376 N   0  0  0  0  0  0  0  0  0  0  0  0
   10.3478  -18.0809   21.8050 C   0  0  0  0  0  0  0  0  0  0  0  0
    9.3934  -18.5623   21.1848 O   0  0  0  0  0  0  0  0  0  0  0  0
   10.1326  -17.3019   23.0430 C   0  0  0  0  0  0  0  0  0  0  0  0
    9.4383  -16.0080   22.7788 C   0  0  2  0  0  0  0  0  0  0  0  0
    9.9066  -15.3226   21.6189 N   0  0  0  0  0  0  0  0  0  0  0  0
    9.4874  -15.1671   24.0253 C   0  0  0  0  0  0  0  0  0  0  0  0
   10.5945  -14.7407   24.3905 O   0  0  0  0  0  0  0  0  0  0  0  0
    6.7357  -12.5109   24.6897 C   0  0  0  0  0  0  0  0  0  0  0  0
    7.0119  -13.2009   25.9855 C   0  0  2  0  0  0  0  0  0  0  0  0
    7.0772  -12.2742   27.1697 C   0  0  0  0  0  0  0  0  0  0  0  0
    8.2934  -13.9915   25.8764 C   0  0  2  0  0  0  0  0  0  0  0  0
    8.3004  -14.8800   24.7468 N   0  0  0  0  0  0  0  0  0  0  0  0
    8.4937  -14.7725   27.1200 C   0  0  0  0  0  0  0  0  0  0  0  0
    8.1200  -15.9609   27.2681 O   0  0  0  0  0  0  0  0  0  0  0  0
    9.1346  -14.1902   28.2236 O   0  0  0  0  0  0  0  0  0  0  0  0
  2  1  1  6
  2  7  1  0
  3  4  1  0
  3  2  1  0
  5  4  1  0
  6  5  2  0
  7  8  2  0
  9  5  1  0
 11 10  1  0
 11 12  2  0
 14 13  1  1
 13 11  1  0
 15  7  1  0
 15 14  1  0
 16 14  1  0
 16 17  2  0
 19 18  1  6
 19 21  1  0
 20 19  1  0
 21 23  1  0
 21 22  1  6
 22 16  1  0
 23 25  1  0
 24 23  2  0
M  END
$$$$
