ENV.pdb
     RDKit          3D

 25 24  0  0  1  0  0  0  0  0999 V2000
    8.8649  -16.7644   19.1358 N   0  0  0  0  0  0  0  0  0  0  0  0
    9.5605  -17.1109   20.3344 C   0  0  1  0  0  0  0  0  0  0  0  0
   10.8988  -16.4794   20.4826 C   0  0  0  0  0  0  0  0  0  0  0  0
   11.6613  -16.7429   21.7225 C   0  0  0  0  0  0  0  0  0  0  0  0
   12.9133  -16.0033   21.8015 C   0  0  0  0  0  0  0  0  0  0  0  0
   13.7735  -15.8474   20.9197 O   0  0  0  0  0  0  0  0  0  0  0  0
    8.7339  -16.6012   21.4981 C   0  0  0  0  0  0  0  0  0  0  0  0
    8.1555  -15.5158   21.3661 O   0  0  0  0  0  0  0  0  0  0  0  0
   13.2062  -15.3740   23.0318 O   0  0  0  0  0  0  0  0  0  0  0  0
    5.9113  -16.3873   25.6455 N   0  0  0  0  0  0  0  0  0  0  0  0
    6.3870  -17.7171   25.6525 C   0  0  0  0  0  0  0  0  0  0  0  0
    6.0069  -18.5095   26.5215 O   0  0  0  0  0  0  0  0  0  0  0  0
    7.3425  -18.1395   24.6064 C   0  0  0  0  0  0  0  0  0  0  0  0
    7.8166  -16.9901   23.7816 C   0  0  2  0  0  0  0  0  0  0  0  0
    8.6456  -17.3649   22.6832 N   0  0  0  0  0  0  0  0  0  0  0  0
    8.4557  -15.9732   24.6876 C   0  0  0  0  0  0  0  0  0  0  0  0
    9.6620  -16.1085   24.9467 O   0  0  0  0  0  0  0  0  0  0  0  0
    6.0916  -13.0938   26.8422 C   0  0  0  0  0  0  0  0  0  0  0  0
    7.3903  -12.6869   26.2264 C   0  0  2  0  0  0  0  0  0  0  0  0
    7.2453  -11.9746   24.9085 C   0  0  0  0  0  0  0  0  0  0  0  0
    8.2769  -13.8981   26.0647 C   0  0  2  0  0  0  0  0  0  0  0  0
    7.6923  -14.9021   25.2187 N   0  0  0  0  0  0  0  0  0  0  0  0
    8.5589  -14.4795   27.3985 C   0  0  0  0  0  0  0  0  0  0  0  0
    8.1685  -15.6143   27.7642 O   0  0  0  0  0  0  0  0  0  0  0  0
    9.3029  -13.7548   28.3413 O   0  0  0  0  0  0  0  0  0  0  0  0
  2  1  1  6
  2  7  1  0
  3  4  1  0
  3  2  1  0
  5  4  1  0
  6  5  2  0
  7  8  2  0
  9  5  1  0
 11 10  1  0
 11 12  2  0
 14 13  1  1
 13 11  1  0
 15  7  1  0
 15 14  1  0
 16 14  1  0
 16 17  2  0
 19 18  1  6
 19 21  1  0
 20 19  1  0
 21 23  1  0
 21 22  1  6
 22 16  1  0
 23 25  1  0
 24 23  2  0
M  END
$$$$
