ENV.pdb
     RDKit          3D

 25 24  0  0  1  0  0  0  0  0999 V2000
    9.5917  -12.7609   19.6877 N   0  0  0  0  0  0  0  0  0  0  0  0
    8.2145  -12.9626   19.3663 C   0  0  1  0  0  0  0  0  0  0  0  0
    7.9722  -13.6840   18.0885 C   0  0  0  0  0  0  0  0  0  0  0  0
    8.8276  -14.8485   17.7716 C   0  0  0  0  0  0  0  0  0  0  0  0
    8.4286  -15.5480   16.5582 C   0  0  0  0  0  0  0  0  0  0  0  0
    7.5129  -15.2624   15.7696 O   0  0  0  0  0  0  0  0  0  0  0  0
    7.6224  -13.8388   20.4521 C   0  0  0  0  0  0  0  0  0  0  0  0
    6.4186  -14.1142   20.3819 O   0  0  0  0  0  0  0  0  0  0  0  0
    9.1657  -16.7033   16.2160 O   0  0  0  0  0  0  0  0  0  0  0  0
    8.1323  -18.4710   24.0137 N   0  0  0  0  0  0  0  0  0  0  0  0
    7.4928  -17.3000   23.5506 C   0  0  0  0  0  0  0  0  0  0  0  0
    6.4426  -16.9151   24.0760 O   0  0  0  0  0  0  0  0  0  0  0  0
    8.1011  -16.5487   22.4319 C   0  0  0  0  0  0  0  0  0  0  0  0
    7.9398  -15.0741   22.5923 C   0  0  2  0  0  0  0  0  0  0  0  0
    8.4455  -14.3111   21.4986 N   0  0  0  0  0  0  0  0  0  0  0  0
    8.5175  -14.6639   23.9195 C   0  0  0  0  0  0  0  0  0  0  0  0
    9.7468  -14.7528   24.0660 O   0  0  0  0  0  0  0  0  0  0  0  0
    5.9399  -13.1892   27.0118 C   0  0  0  0  0  0  0  0  0  0  0  0
    7.3378  -12.6845   26.8613 C   0  0  2  0  0  0  0  0  0  0  0  0
    7.4435  -11.4000   26.0840 C   0  0  0  0  0  0  0  0  0  0  0  0
    8.1954  -13.7487   26.2202 C   0  0  2  0  0  0  0  0  0  0  0  0
    7.6728  -14.1933   24.9574 N   0  0  0  0  0  0  0  0  0  0  0  0
    8.3108  -14.9043   27.1410 C   0  0  0  0  0  0  0  0  0  0  0  0
    7.7655  -16.0162   26.9406 O   0  0  0  0  0  0  0  0  0  0  0  0
    9.0644  -14.7954   28.3191 O   0  0  0  0  0  0  0  0  0  0  0  0
  2  1  1  1
  2  7  1  0
  3  4  1  0
  3  2  1  0
  5  4  1  0
  6  5  2  0
  7  8  2  0
  9  5  1  0
 11 10  1  0
 11 12  2  0
 14 13  1  6
 13 11  1  0
 15  7  1  0
 15 14  1  0
 16 14  1  0
 16 17  2  0
 19 18  1  6
 19 21  1  0
 20 19  1  0
 21 23  1  0
 21 22  1  6
 22 16  1  0
 23 25  1  0
 24 23  2  0
M  END
$$$$
