ENV.pdb
     RDKit          3D

 25 24  0  0  1  0  0  0  0  0999 V2000
   10.2304  -16.3771   19.4765 N   0  0  0  0  0  0  0  0  0  0  0  0
    8.9533  -15.7376   19.4548 C   0  0  1  0  0  0  0  0  0  0  0  0
    7.9396  -16.4001   18.5915 C   0  0  0  0  0  0  0  0  0  0  0  0
    8.3309  -17.6350   17.8774 C   0  0  0  0  0  0  0  0  0  0  0  0
    7.2611  -18.1999   17.0669 C   0  0  0  0  0  0  0  0  0  0  0  0
    6.5221  -19.1629   17.3284 O   0  0  0  0  0  0  0  0  0  0  0  0
    8.3962  -15.7968   20.8631 C   0  0  0  0  0  0  0  0  0  0  0  0
    7.2663  -15.3333   21.0589 O   0  0  0  0  0  0  0  0  0  0  0  0
    7.0157  -17.5878   15.8176 O   0  0  0  0  0  0  0  0  0  0  0  0
   11.0269  -18.0206   25.4747 N   0  0  0  0  0  0  0  0  0  0  0  0
   10.5680  -17.8021   24.1570 C   0  0  0  0  0  0  0  0  0  0  0  0
   11.3754  -17.6362   23.2362 O   0  0  0  0  0  0  0  0  0  0  0  0
    9.1118  -17.7761   23.9028 C   0  0  0  0  0  0  0  0  0  0  0  0
    8.6813  -16.5149   23.2317 C   0  0  2  0  0  0  0  0  0  0  0  0
    9.1674  -16.3700   21.8987 N   0  0  0  0  0  0  0  0  0  0  0  0
    9.0265  -15.3502   24.1193 C   0  0  0  0  0  0  0  0  0  0  0  0
   10.1800  -14.8966   24.0534 O   0  0  0  0  0  0  0  0  0  0  0  0
    5.9891  -13.2972   26.4122 C   0  0  0  0  0  0  0  0  0  0  0  0
    7.2294  -12.6643   25.8713 C   0  0  2  0  0  0  0  0  0  0  0  0
    7.0580  -12.0514   24.5074 C   0  0  0  0  0  0  0  0  0  0  0  0
    8.3470  -13.6789   25.8453 C   0  0  2  0  0  0  0  0  0  0  0  0
    8.0557  -14.8006   24.9953 N   0  0  0  0  0  0  0  0  0  0  0  0
    8.6047  -14.1581   27.2239 C   0  0  0  0  0  0  0  0  0  0  0  0
    8.3270  -15.3133   27.6269 O   0  0  0  0  0  0  0  0  0  0  0  0
    9.1927  -13.3048   28.1693 O   0  0  0  0  0  0  0  0  0  0  0  0
  2  1  1  1
  2  7  1  0
  3  4  1  0
  3  2  1  0
  5  4  1  0
  6  5  2  0
  7  8  2  0
  9  5  1  0
 11 10  1  0
 11 12  2  0
 14 13  1  1
 13 11  1  0
 15  7  1  0
 15 14  1  0
 16 14  1  0
 16 17  2  0
 19 18  1  6
 19 21  1  0
 20 19  1  0
 21 23  1  0
 21 22  1  6
 22 16  1  0
 23 25  1  0
 24 23  2  0
M  END
$$$$
