ENV.pdb
     RDKit          3D

 25 24  0  0  1  0  0  0  0  0999 V2000
    7.4436  -17.3551   19.3228 N   0  0  0  0  0  0  0  0  0  0  0  0
    7.9526  -17.7095   20.6096 C   0  0  1  0  0  0  0  0  0  0  0  0
    9.4029  -18.0376   20.6370 C   0  0  0  0  0  0  0  0  0  0  0  0
    9.9716  -18.7822   19.4923 C   0  0  0  0  0  0  0  0  0  0  0  0
   11.3880  -18.5210   19.2767 C   0  0  0  0  0  0  0  0  0  0  0  0
   12.3628  -19.0432   19.8413 O   0  0  0  0  0  0  0  0  0  0  0  0
    7.7874  -16.4999   21.5079 C   0  0  0  0  0  0  0  0  0  0  0  0
    8.6748  -15.6385   21.4884 O   0  0  0  0  0  0  0  0  0  0  0  0
   11.7171  -17.5514   18.3036 O   0  0  0  0  0  0  0  0  0  0  0  0
    8.1389  -18.9420   26.0861 N   0  0  0  0  0  0  0  0  0  0  0  0
    7.0155  -18.2771   25.5471 C   0  0  0  0  0  0  0  0  0  0  0  0
    6.1128  -17.8776   26.2906 O   0  0  0  0  0  0  0  0  0  0  0  0
    6.9416  -18.0698   24.0851 C   0  0  0  0  0  0  0  0  0  0  0  0
    6.6756  -16.6446   23.7328 C   0  0  2  0  0  0  0  0  0  0  0  0
    6.6441  -16.3881   22.3301 N   0  0  0  0  0  0  0  0  0  0  0  0
    7.6505  -15.7708   24.4741 C   0  0  0  0  0  0  0  0  0  0  0  0
    8.8607  -16.0069   24.3317 O   0  0  0  0  0  0  0  0  0  0  0  0
    6.2338  -12.4974   26.8791 C   0  0  0  0  0  0  0  0  0  0  0  0
    7.5286  -12.4366   26.1367 C   0  0  2  0  0  0  0  0  0  0  0  0
    7.4314  -11.7671   24.7922 C   0  0  0  0  0  0  0  0  0  0  0  0
    8.0903  -13.8293   25.9812 C   0  0  2  0  0  0  0  0  0  0  0  0
    7.1865  -14.7173   25.3029 N   0  0  0  0  0  0  0  0  0  0  0  0
    8.4114  -14.3794   27.3194 C   0  0  0  0  0  0  0  0  0  0  0  0
    7.8007  -15.3403   27.8463 O   0  0  0  0  0  0  0  0  0  0  0  0
    9.4524  -13.8251   28.0791 O   0  0  0  0  0  0  0  0  0  0  0  0
  2  1  1  6
  2  7  1  0
  3  4  1  0
  3  2  1  0
  5  4  1  0
  6  5  2  0
  7  8  2  0
  9  5  1  0
 11 10  1  0
 11 12  2  0
 14 13  1  6
 13 11  1  0
 15  7  1  0
 15 14  1  0
 16 14  1  0
 16 17  2  0
 19 18  1  6
 19 21  1  0
 20 19  1  0
 21 23  1  0
 21 22  1  1
 22 16  1  0
 23 25  1  0
 24 23  2  0
M  END
$$$$
