ENV.pdb
     RDKit          3D

 25 24  0  0  1  0  0  0  0  0999 V2000
    8.3271  -13.4167   18.8400 N   0  0  0  0  0  0  0  0  0  0  0  0
    8.9037  -14.4891   19.5870 C   0  0  1  0  0  0  0  0  0  0  0  0
   10.3154  -14.2712   20.0012 C   0  0  0  0  0  0  0  0  0  0  0  0
   11.3710  -14.3906   18.9719 C   0  0  0  0  0  0  0  0  0  0  0  0
   12.7122  -14.1513   19.4864 C   0  0  0  0  0  0  0  0  0  0  0  0
   13.3517  -13.0871   19.5063 O   0  0  0  0  0  0  0  0  0  0  0  0
    8.1127  -14.6181   20.8734 C   0  0  0  0  0  0  0  0  0  0  0  0
    7.5282  -13.6137   21.2970 O   0  0  0  0  0  0  0  0  0  0  0  0
   13.3911  -15.2601   20.0386 O   0  0  0  0  0  0  0  0  0  0  0  0
    6.1086  -16.4031   25.1676 N   0  0  0  0  0  0  0  0  0  0  0  0
    6.3151  -17.5641   24.3903 C   0  0  0  0  0  0  0  0  0  0  0  0
    5.9189  -18.6626   24.7949 O   0  0  0  0  0  0  0  0  0  0  0  0
    7.0102  -17.4399   23.0914 C   0  0  0  0  0  0  0  0  0  0  0  0
    7.4093  -16.0320   22.8004 C   0  0  2  0  0  0  0  0  0  0  0  0
    8.0629  -15.8602   21.5444 N   0  0  0  0  0  0  0  0  0  0  0  0
    8.2066  -15.5033   23.9615 C   0  0  0  0  0  0  0  0  0  0  0  0
    9.3709  -15.9122   24.0959 O   0  0  0  0  0  0  0  0  0  0  0  0
    6.3984  -13.0877   27.0586 C   0  0  0  0  0  0  0  0  0  0  0  0
    7.7407  -12.7466   26.4991 C   0  0  2  0  0  0  0  0  0  0  0  0
    7.7098  -11.6659   25.4519 C   0  0  0  0  0  0  0  0  0  0  0  0
    8.3882  -13.9902   25.9394 C   0  0  2  0  0  0  0  0  0  0  0  0
    7.6333  -14.5698   24.8626 N   0  0  0  0  0  0  0  0  0  0  0  0
    8.5483  -14.9884   27.0232 C   0  0  0  0  0  0  0  0  0  0  0  0
    7.9094  -16.0665   27.0819 O   0  0  0  0  0  0  0  0  0  0  0  0
    9.4566  -14.7573   28.0670 O   0  0  0  0  0  0  0  0  0  0  0  0
  2  1  1  1
  2  7  1  0
  3  4  1  0
  3  2  1  0
  5  4  1  0
  6  5  2  0
  7  8  2  0
  9  5  1  0
 11 10  1  0
 11 12  2  0
 14 13  1  1
 13 11  1  0
 15  7  1  0
 15 14  1  0
 16 14  1  0
 16 17  2  0
 19 18  1  6
 19 21  1  0
 20 19  1  0
 21 23  1  0
 21 22  1  6
 22 16  1  0
 23 25  1  0
 24 23  2  0
M  END
$$$$
