ENV.pdb
     RDKit          3D

 25 24  0  0  1  0  0  0  0  0999 V2000
    9.3942  -17.2355   19.3251 N   0  0  0  0  0  0  0  0  0  0  0  0
    9.9354  -17.5979   20.5964 C   0  0  1  0  0  0  0  0  0  0  0  0
   11.2130  -16.9212   20.9453 C   0  0  0  0  0  0  0  0  0  0  0  0
   12.4105  -17.2298   20.1337 C   0  0  0  0  0  0  0  0  0  0  0  0
   13.6129  -16.5476   20.5916 C   0  0  0  0  0  0  0  0  0  0  0  0
   14.3577  -16.8500   21.5380 O   0  0  0  0  0  0  0  0  0  0  0  0
    8.9378  -17.1626   21.6511 C   0  0  0  0  0  0  0  0  0  0  0  0
    8.0099  -16.4236   21.3006 O   0  0  0  0  0  0  0  0  0  0  0  0
   13.9995  -15.3897   19.8807 O   0  0  0  0  0  0  0  0  0  0  0  0
    5.9823  -17.0412   25.6639 N   0  0  0  0  0  0  0  0  0  0  0  0
    6.6831  -18.2622   25.7763 C   0  0  0  0  0  0  0  0  0  0  0  0
    6.3377  -19.1033   26.6134 O   0  0  0  0  0  0  0  0  0  0  0  0
    7.8305  -18.5126   24.8783 C   0  0  0  0  0  0  0  0  0  0  0  0
    8.1198  -17.3436   23.9974 C   0  0  2  0  0  0  0  0  0  0  0  0
    9.0893  -17.6043   22.9844 N   0  0  0  0  0  0  0  0  0  0  0  0
    8.4655  -16.1599   24.8593 C   0  0  0  0  0  0  0  0  0  0  0  0
    9.6190  -16.0937   25.3129 O   0  0  0  0  0  0  0  0  0  0  0  0
    6.1582  -12.6705   24.8314 C   0  0  0  0  0  0  0  0  0  0  0  0
    6.5774  -13.1452   26.1843 C   0  0  2  0  0  0  0  0  0  0  0  0
    6.9122  -12.0358   27.1447 C   0  0  0  0  0  0  0  0  0  0  0  0
    7.7510  -14.0854   26.0511 C   0  0  2  0  0  0  0  0  0  0  0  0
    7.4954  -15.1622   25.1341 N   0  0  0  0  0  0  0  0  0  0  0  0
    8.0865  -14.6409   27.3835 C   0  0  0  0  0  0  0  0  0  0  0  0
    7.6026  -15.7043   27.8407 O   0  0  0  0  0  0  0  0  0  0  0  0
    8.9944  -13.9728   28.2185 O   0  0  0  0  0  0  0  0  0  0  0  0
  2  1  1  6
  2  7  1  0
  3  4  1  0
  3  2  1  0
  5  4  1  0
  6  5  2  0
  7  8  2  0
  9  5  1  0
 11 10  1  0
 11 12  2  0
 14 13  1  1
 13 11  1  0
 15  7  1  0
 15 14  1  0
 16 14  1  0
 16 17  2  0
 19 18  1  6
 19 21  1  0
 20 19  1  0
 21 23  1  0
 21 22  1  6
 22 16  1  0
 23 25  1  0
 24 23  2  0
M  END
$$$$
