ENV.pdb
     RDKit          3D

 25 24  0  0  1  0  0  0  0  0999 V2000
    9.4737  -17.1755   20.0274 N   0  0  0  0  0  0  0  0  0  0  0  0
    9.7178  -15.8751   20.5659 C   0  0  1  0  0  0  0  0  0  0  0  0
    9.3842  -14.7499   19.6524 C   0  0  0  0  0  0  0  0  0  0  0  0
   10.0732  -14.6847   18.3450 C   0  0  0  0  0  0  0  0  0  0  0  0
   11.5236  -14.6192   18.4566 C   0  0  0  0  0  0  0  0  0  0  0  0
   12.2956  -15.4468   18.9676 O   0  0  0  0  0  0  0  0  0  0  0  0
    8.8129  -15.7094   21.7704 C   0  0  0  0  0  0  0  0  0  0  0  0
    8.2923  -14.6027   21.9558 O   0  0  0  0  0  0  0  0  0  0  0  0
   12.1539  -13.4743   17.9205 O   0  0  0  0  0  0  0  0  0  0  0  0
    7.3111  -20.0151   22.9208 N   0  0  0  0  0  0  0  0  0  0  0  0
    6.6705  -18.8989   23.5025 C   0  0  0  0  0  0  0  0  0  0  0  0
    5.4854  -18.6584   23.2472 O   0  0  0  0  0  0  0  0  0  0  0  0
    7.4409  -18.0295   24.4171 C   0  0  0  0  0  0  0  0  0  0  0  0
    7.7676  -16.7121   23.7975 C   0  0  2  0  0  0  0  0  0  0  0  0
    8.5899  -16.8035   22.6357 N   0  0  0  0  0  0  0  0  0  0  0  0
    8.3339  -15.8048   24.8555 C   0  0  0  0  0  0  0  0  0  0  0  0
    9.5378  -15.9235   25.1335 O   0  0  0  0  0  0  0  0  0  0  0  0
    6.3272  -12.3093   25.6989 C   0  0  0  0  0  0  0  0  0  0  0  0
    7.0054  -12.8948   26.8941 C   0  0  2  0  0  0  0  0  0  0  0  0
    7.6436  -11.8731   27.7964 C   0  0  0  0  0  0  0  0  0  0  0  0
    8.0342  -13.9061   26.4492 C   0  0  2  0  0  0  0  0  0  0  0  0
    7.5073  -14.8513   25.5035 N   0  0  0  0  0  0  0  0  0  0  0  0
    8.5529  -14.6300   27.6339 C   0  0  0  0  0  0  0  0  0  0  0  0
    8.1436  -15.7582   27.9994 O   0  0  0  0  0  0  0  0  0  0  0  0
    9.5618  -14.0592   28.4238 O   0  0  0  0  0  0  0  0  0  0  0  0
  2  1  1  6
  2  7  1  0
  3  4  1  0
  3  2  1  0
  5  4  1  0
  6  5  2  0
  7  8  2  0
  9  5  1  0
 11 10  1  0
 11 12  2  0
 14 13  1  1
 13 11  1  0
 15  7  1  0
 15 14  1  0
 16 14  1  0
 16 17  2  0
 19 18  1  6
 19 21  1  0
 20 19  1  0
 21 23  1  0
 21 22  1  6
 22 16  1  0
 23 25  1  0
 24 23  2  0
M  END
$$$$
