ENV.pdb
     RDKit          3D

 25 24  0  0  1  0  0  0  0  0999 V2000
    8.7037  -13.2402   18.8873 N   0  0  0  0  0  0  0  0  0  0  0  0
    8.9727  -14.4504   19.5969 C   0  0  1  0  0  0  0  0  0  0  0  0
   10.3956  -14.6421   19.9846 C   0  0  0  0  0  0  0  0  0  0  0  0
   11.4141  -13.7760   19.3515 C   0  0  0  0  0  0  0  0  0  0  0  0
   12.7768  -14.0929   19.7554 C   0  0  0  0  0  0  0  0  0  0  0  0
   13.1552  -14.7974   20.7053 O   0  0  0  0  0  0  0  0  0  0  0  0
    8.1962  -14.3919   20.8973 C   0  0  0  0  0  0  0  0  0  0  0  0
    7.7996  -13.2865   21.2857 O   0  0  0  0  0  0  0  0  0  0  0  0
   13.8180  -13.5370   18.9793 O   0  0  0  0  0  0  0  0  0  0  0  0
    5.9388  -16.9199   20.8314 N   0  0  0  0  0  0  0  0  0  0  0  0
    5.9755  -17.5838   22.0775 C   0  0  0  0  0  0  0  0  0  0  0  0
    5.4297  -18.6843   22.2126 O   0  0  0  0  0  0  0  0  0  0  0  0
    6.6755  -16.9401   23.2095 C   0  0  0  0  0  0  0  0  0  0  0  0
    7.2179  -15.5988   22.8449 C   0  0  2  0  0  0  0  0  0  0  0  0
    7.9487  -15.5800   21.6203 N   0  0  0  0  0  0  0  0  0  0  0  0
    7.9995  -15.0577   24.0109 C   0  0  0  0  0  0  0  0  0  0  0  0
    9.2285  -15.2321   24.0125 O   0  0  0  0  0  0  0  0  0  0  0  0
    6.0295  -13.0263   27.3082 C   0  0  0  0  0  0  0  0  0  0  0  0
    7.3580  -12.6093   26.7672 C   0  0  2  0  0  0  0  0  0  0  0  0
    7.2845  -11.4965   25.7566 C   0  0  0  0  0  0  0  0  0  0  0  0
    8.0605  -13.8047   26.1698 C   0  0  2  0  0  0  0  0  0  0  0  0
    7.3399  -14.3736   25.0640 N   0  0  0  0  0  0  0  0  0  0  0  0
    8.2500  -14.8351   27.2180 C   0  0  0  0  0  0  0  0  0  0  0  0
    7.6314  -15.9262   27.2470 O   0  0  0  0  0  0  0  0  0  0  0  0
    9.1648  -14.6220   28.2599 O   0  0  0  0  0  0  0  0  0  0  0  0
  2  1  1  1
  2  7  1  0
  3  4  1  0
  3  2  1  0
  5  4  1  0
  6  5  2  0
  7  8  2  0
  9  5  1  0
 11 10  1  0
 11 12  2  0
 14 13  1  1
 13 11  1  0
 15  7  1  0
 15 14  1  0
 16 14  1  0
 16 17  2  0
 19 18  1  6
 19 21  1  0
 20 19  1  0
 21 23  1  0
 21 22  1  6
 22 16  1  0
 23 25  1  0
 24 23  2  0
M  END
$$$$
