YDA.pdb
     RDKit          3D

 26 26  0  0  1  0  0  0  0  0999 V2000
   30.6061  -13.0077  -17.1107 O   0  0  0  0  0  0  0  0  0  0  0  0
   29.4517  -12.2175  -17.0892 C   0  0  0  0  0  0  0  0  0  0  0  0
   29.1369  -11.3701  -18.1308 C   0  0  0  0  0  0  0  0  0  0  0  0
   27.9979  -10.5896  -18.1115 C   0  0  0  0  0  0  0  0  0  0  0  0
   27.1160  -10.6187  -17.0467 C   0  0  0  0  0  0  0  0  0  0  0  0
   25.8966   -9.7687  -17.0536 C   0  0  0  0  0  0  0  0  0  0  0  0
   24.6364  -10.5967  -17.1736 C   0  0  2  0  0  0  0  0  0  0  0  0
   24.6367  -11.3594  -18.3900 N   0  0  0  0  0  0  0  0  0  0  0  0
   23.4911   -9.6277  -17.1262 C   0  0  0  0  0  0  0  0  0  0  0  0
   23.0262   -9.2152  -18.2207 O   0  0  0  0  0  0  0  0  0  0  0  0
   27.4271  -11.4638  -16.0041 C   0  0  0  0  0  0  0  0  0  0  0  0
   28.5772  -12.2520  -16.0234 C   0  0  0  0  0  0  0  0  0  0  0  0
   22.9243   -9.1684  -15.9335 N   0  0  0  0  0  0  0  0  0  0  0  0
   21.7610   -8.2471  -15.9514 C   0  0  1  0  0  0  0  0  0  0  0  0
   20.7137   -8.9846  -15.1546 C   0  0  0  0  0  0  0  0  0  0  0  0
   19.4517   -8.2713  -14.9806 C   0  0  0  0  0  0  0  0  0  0  0  0
   18.8784   -7.7593  -15.9704 O   0  0  0  0  0  0  0  0  0  0  0  0
   22.1534   -6.9933  -15.3147 C   0  0  0  0  0  0  0  0  0  0  0  0
   22.8133   -7.0222  -14.2346 O   0  0  0  0  0  0  0  0  0  0  0  0
   18.8901   -8.1627  -13.7172 O   0  0  0  0  0  0  0  0  0  0  0  0
   21.9867   -3.2760  -15.9573 C   0  0  0  0  0  0  0  0  0  0  0  0
   22.2603   -4.5074  -15.1016 C   0  0  2  0  0  0  0  0  0  0  0  0
   21.8492   -5.7130  -15.8278 N   0  0  0  0  0  0  0  0  0  0  0  0
   21.5489   -4.3490  -13.8497 C   0  0  0  0  0  0  0  0  0  0  0  0
   20.4257   -4.9307  -13.7076 O   0  0  0  0  0  0  0  0  0  0  0  0
   21.9865   -3.6106  -12.7742 O   0  0  0  0  0  0  0  0  0  0  0  0
  2  1  1  0
  2  3  2  0
  4  3  1  0
  5  4  2  0
  6  5  1  0
  7  6  1  0
  7  9  1  0
  7  8  1  6
  9 10  2  0
  9 13  1  0
 11 12  2  0
 11  5  1  0
 12  2  1  0
 13 14  1  0
 14 15  1  1
 15 16  1  0
 16 17  2  0
 16 20  1  0
 18 14  1  0
 18 23  1  0
 19 18  2  0
 22 21  1  6
 22 23  1  0
 22 24  1  0
 24 26  1  0
 25 24  2  0
M  END
$$$$
