YDA.pdb
     RDKit          3D

 26 26  0  0  1  0  0  0  0  0999 V2000
   25.1782  -31.3447  -10.3409 O   0  0  0  0  0  0  0  0  0  0  0  0
   25.4152  -32.2304   -9.2840 C   0  0  0  0  0  0  0  0  0  0  0  0
   26.0479  -33.4396   -9.4830 C   0  0  0  0  0  0  0  0  0  0  0  0
   26.2829  -34.3149   -8.4411 C   0  0  0  0  0  0  0  0  0  0  0  0
   25.8955  -34.0226   -7.1462 C   0  0  0  0  0  0  0  0  0  0  0  0
   26.1629  -34.9832   -6.0438 C   0  0  0  0  0  0  0  0  0  0  0  0
   27.6329  -35.3249   -5.9418 C   0  0  2  0  0  0  0  0  0  0  0  0
   28.0518  -36.1291   -7.0550 N   0  0  0  0  0  0  0  0  0  0  0  0
   27.8066  -36.0481   -4.6380 C   0  0  0  0  0  0  0  0  0  0  0  0
   27.5754  -37.2851   -4.6183 O   0  0  0  0  0  0  0  0  0  0  0  0
   25.2629  -32.8157   -6.9434 C   0  0  0  0  0  0  0  0  0  0  0  0
   25.0255  -31.9317   -7.9953 C   0  0  0  0  0  0  0  0  0  0  0  0
   28.2094  -35.4154   -3.4582 N   0  0  0  0  0  0  0  0  0  0  0  0
   28.4019  -36.1918   -2.2082 C   0  0  1  0  0  0  0  0  0  0  0  0
   29.6347  -35.5751   -1.5952 C   0  0  0  0  0  0  0  0  0  0  0  0
   30.1142  -36.2265   -0.3797 C   0  0  0  0  0  0  0  0  0  0  0  0
   29.4729  -37.1829    0.1147 O   0  0  0  0  0  0  0  0  0  0  0  0
   27.2225  -36.0143   -1.3663 C   0  0  0  0  0  0  0  0  0  0  0  0
   26.8027  -34.8455   -1.1196 O   0  0  0  0  0  0  0  0  0  0  0  0
   31.2810  -35.7836    0.2250 O   0  0  0  0  0  0  0  0  0  0  0  0
   24.5079  -38.0692    0.2388 C   0  0  0  0  0  0  0  0  0  0  0  0
   25.3332  -36.7994    0.0657 C   0  0  2  0  0  0  0  0  0  0  0  0
   26.4891  -37.0764   -0.7929 N   0  0  0  0  0  0  0  0  0  0  0  0
   25.7229  -36.3366    1.3819 C   0  0  0  0  0  0  0  0  0  0  0  0
   26.9302  -36.4957    1.7526 O   0  0  0  0  0  0  0  0  0  0  0  0
   24.8885  -35.7256    2.2895 O   0  0  0  0  0  0  0  0  0  0  0  0
  2  1  1  0
  2  3  2  0
  4  3  1  0
  5  4  2  0
  6  5  1  0
  7  6  1  0
  7  9  1  0
  7  8  1  6
  9 10  2  0
  9 13  1  0
 11 12  2  0
 11  5  1  0
 12  2  1  0
 13 14  1  0
 14 15  1  1
 15 16  1  0
 16 17  2  0
 16 20  1  0
 18 14  1  0
 18 23  1  0
 19 18  2  0
 22 21  1  1
 22 23  1  0
 22 24  1  0
 24 26  1  0
 25 24  2  0
M  END
$$$$
