YDA.pdb
     RDKit          3D

 26 26  0  0  1  0  0  0  0  0999 V2000
   19.0346  -14.5354  -17.8076 O   0  0  0  0  0  0  0  0  0  0  0  0
   19.2097  -13.2373  -17.3156 C   0  0  0  0  0  0  0  0  0  0  0  0
   19.7131  -12.2266  -18.1074 C   0  0  0  0  0  0  0  0  0  0  0  0
   19.8863  -10.9448  -17.6237 C   0  0  0  0  0  0  0  0  0  0  0  0
   19.5637  -10.6107  -16.3211 C   0  0  0  0  0  0  0  0  0  0  0  0
   19.7592   -9.2222  -15.8279 C   0  0  0  0  0  0  0  0  0  0  0  0
   21.2247   -8.8889  -15.6568 C   0  0  2  0  0  0  0  0  0  0  0  0
   21.8450   -9.7713  -14.7090 N   0  0  0  0  0  0  0  0  0  0  0  0
   21.2801   -7.4592  -15.2029 C   0  0  0  0  0  0  0  0  0  0  0  0
   21.0754   -7.2226  -13.9839 O   0  0  0  0  0  0  0  0  0  0  0  0
   19.0607  -11.6178  -15.5269 C   0  0  0  0  0  0  0  0  0  0  0  0
   18.8857  -12.9122  -16.0152 C   0  0  0  0  0  0  0  0  0  0  0  0
   21.5461   -6.3911  -16.0649 N   0  0  0  0  0  0  0  0  0  0  0  0
   21.6241   -5.0015  -15.5499 C   0  0  1  0  0  0  0  0  0  0  0  0
   22.9284   -4.4899  -16.1092 C   0  0  0  0  0  0  0  0  0  0  0  0
   24.1188   -4.8759  -15.3571 C   0  0  0  0  0  0  0  0  0  0  0  0
   24.9859   -5.6091  -15.8873 O   0  0  0  0  0  0  0  0  0  0  0  0
   20.4778   -4.2540  -16.0584 C   0  0  0  0  0  0  0  0  0  0  0  0
   20.2600   -4.2182  -17.3051 O   0  0  0  0  0  0  0  0  0  0  0  0
   24.2864   -4.4286  -14.0551 O   0  0  0  0  0  0  0  0  0  0  0  0
   17.1261   -3.3899  -15.3388 C   0  0  0  0  0  0  0  0  0  0  0  0
   18.4452   -2.8187  -15.8460 C   0  0  2  0  0  0  0  0  0  0  0  0
   19.5633   -3.5512  -15.2431 N   0  0  0  0  0  0  0  0  0  0  0  0
   18.4742   -1.4067  -15.5239 C   0  0  0  0  0  0  0  0  0  0  0  0
   18.0709   -0.5727  -16.3969 O   0  0  0  0  0  0  0  0  0  0  0  0
   18.9072   -0.8713  -14.3326 O   0  0  0  0  0  0  0  0  0  0  0  0
  2  1  1  0
  2  3  2  0
  4  3  1  0
  5  4  2  0
  6  5  1  0
  7  6  1  0
  7  9  1  0
  7  8  1  1
  9 10  2  0
  9 13  1  0
 11 12  2  0
 11  5  1  0
 12  2  1  0
 13 14  1  0
 14 15  1  6
 15 16  1  0
 16 17  2  0
 16 20  1  0
 18 14  1  0
 18 23  1  0
 19 18  2  0
 22 21  1  1
 22 23  1  0
 22 24  1  0
 24 26  1  0
 25 24  2  0
M  END
$$$$
