YDA.pdb
     RDKit          3D

 26 26  0  0  1  0  0  0  0  0999 V2000
   32.7914   10.3154    1.1162 O   0  0  0  0  0  0  0  0  0  0  0  0
   32.5272    8.9986    0.7239 C   0  0  0  0  0  0  0  0  0  0  0  0
   31.2630    8.4560    0.8203 C   0  0  0  0  0  0  0  0  0  0  0  0
   31.0002    7.1567    0.4333 C   0  0  0  0  0  0  0  0  0  0  0  0
   31.9917    6.3348   -0.0703 C   0  0  0  0  0  0  0  0  0  0  0  0
   31.6797    4.9406   -0.4806 C   0  0  0  0  0  0  0  0  0  0  0  0
   31.2706    4.8621   -1.9347 C   0  0  2  0  0  0  0  0  0  0  0  0
   29.8641    5.1073   -2.0866 N   0  0  0  0  0  0  0  0  0  0  0  0
   31.6482    3.4872   -2.4037 C   0  0  0  0  0  0  0  0  0  0  0  0
   30.8024    2.5661   -2.2614 O   0  0  0  0  0  0  0  0  0  0  0  0
   33.2561    6.8731   -0.1679 C   0  0  0  0  0  0  0  0  0  0  0  0
   33.5217    8.1850    0.2228 C   0  0  0  0  0  0  0  0  0  0  0  0
   32.8840    3.1880   -2.9850 N   0  0  0  0  0  0  0  0  0  0  0  0
   33.1840    1.8168   -3.4669 C   0  0  1  0  0  0  0  0  0  0  0  0
   33.2886    1.9827   -4.9626 C   0  0  0  0  0  0  0  0  0  0  0  0
   33.5566    0.7542   -5.7048 C   0  0  0  0  0  0  0  0  0  0  0  0
   33.7103   -0.3283   -5.0924 O   0  0  0  0  0  0  0  0  0  0  0  0
   34.4451    1.3828   -2.8730 C   0  0  0  0  0  0  0  0  0  0  0  0
   35.4572    2.1409   -2.9352 O   0  0  0  0  0  0  0  0  0  0  0  0
   33.6400    0.7896   -7.0887 O   0  0  0  0  0  0  0  0  0  0  0  0
   35.8406   -1.5008   -0.8755 C   0  0  0  0  0  0  0  0  0  0  0  0
   35.9564   -0.2451   -1.7317 C   0  0  2  0  0  0  0  0  0  0  0  0
   34.6277    0.1486   -2.2109 N   0  0  0  0  0  0  0  0  0  0  0  0
   36.8724   -0.5275   -2.8179 C   0  0  0  0  0  0  0  0  0  0  0  0
   36.4109   -0.6043   -4.0017 O   0  0  0  0  0  0  0  0  0  0  0  0
   38.2277   -0.7243   -2.6846 O   0  0  0  0  0  0  0  0  0  0  0  0
  2  1  1  0
  2  3  2  0
  4  3  1  0
  5  4  2  0
  6  5  1  0
  7  6  1  0
  7  9  1  0
  7  8  1  1
  9 10  2  0
  9 13  1  0
 11 12  2  0
 11  5  1  0
 12  2  1  0
 13 14  1  0
 14 15  1  6
 15 16  1  0
 16 17  2  0
 16 20  1  0
 18 14  1  0
 18 23  1  0
 19 18  2  0
 22 21  1  1
 22 23  1  0
 22 24  1  0
 24 26  1  0
 25 24  2  0
M  END
$$$$
