YDA.pdb
     RDKit          3D

 26 26  0  0  1  0  0  0  0  0999 V2000
   20.7119  -11.6982  -22.2102 O   0  0  0  0  0  0  0  0  0  0  0  0
   20.3237  -10.6186  -21.4093 C   0  0  0  0  0  0  0  0  0  0  0  0
   19.2362  -10.6998  -20.5650 C   0  0  0  0  0  0  0  0  0  0  0  0
   18.8517   -9.6354  -19.7736 C   0  0  0  0  0  0  0  0  0  0  0  0
   19.5380   -8.4350  -19.7883 C   0  0  0  0  0  0  0  0  0  0  0  0
   19.1025   -7.3065  -18.9244 C   0  0  0  0  0  0  0  0  0  0  0  0
   19.9445   -7.2012  -17.6722 C   0  0  2  0  0  0  0  0  0  0  0  0
   19.7663   -8.3538  -16.8349 N   0  0  0  0  0  0  0  0  0  0  0  0
   19.5133   -5.9407  -16.9808 C   0  0  0  0  0  0  0  0  0  0  0  0
   18.4818   -5.9899  -16.2614 O   0  0  0  0  0  0  0  0  0  0  0  0
   20.6248   -8.3498  -20.6306 C   0  0  0  0  0  0  0  0  0  0  0  0
   21.0132   -9.4245  -21.4298 C   0  0  0  0  0  0  0  0  0  0  0  0
   20.1993   -4.7283  -17.0992 N   0  0  0  0  0  0  0  0  0  0  0  0
   19.6926   -3.5016  -16.4352 C   0  0  1  0  0  0  0  0  0  0  0  0
   20.7571   -3.1872  -15.4135 C   0  0  0  0  0  0  0  0  0  0  0  0
   20.5029   -2.0027  -14.5986 C   0  0  0  0  0  0  0  0  0  0  0  0
   19.4714   -1.3177  -14.7915 O   0  0  0  0  0  0  0  0  0  0  0  0
   19.5676   -2.4493  -17.4395 C   0  0  0  0  0  0  0  0  0  0  0  0
   20.4928   -2.2839  -18.2878 O   0  0  0  0  0  0  0  0  0  0  0  0
   21.4062   -1.6389  -13.6111 O   0  0  0  0  0  0  0  0  0  0  0  0
   16.9990    0.0185  -18.6790 C   0  0  0  0  0  0  0  0  0  0  0  0
   18.3962   -0.5882  -18.6230 C   0  0  2  0  0  0  0  0  0  0  0  0
   18.4600   -1.5792  -17.5441 N   0  0  0  0  0  0  0  0  0  0  0  0
   19.3449    0.4906  -18.4367 C   0  0  0  0  0  0  0  0  0  0  0  0
   19.7900    0.7172  -17.2659 O   0  0  0  0  0  0  0  0  0  0  0  0
   19.8209    1.3119  -19.4328 O   0  0  0  0  0  0  0  0  0  0  0  0
  2  1  1  0
  2  3  2  0
  4  3  1  0
  5  4  2  0
  6  5  1  0
  7  6  1  0
  7  9  1  0
  7  8  1  1
  9 10  2  0
  9 13  1  0
 11 12  2  0
 11  5  1  0
 12  2  1  0
 13 14  1  0
 14 15  1  1
 15 16  1  0
 16 17  2  0
 16 20  1  0
 18 14  1  0
 18 23  1  0
 19 18  2  0
 22 21  1  1
 22 23  1  0
 22 24  1  0
 24 26  1  0
 25 24  2  0
M  END
$$$$
