YDA.pdb
     RDKit          3D

 26 26  0  0  1  0  0  0  0  0999 V2000
   24.7933  -20.5118   -8.0128 O   0  0  0  0  0  0  0  0  0  0  0  0
   24.8519  -20.4305   -9.4083 C   0  0  0  0  0  0  0  0  0  0  0  0
   23.7371  -20.1280  -10.1617 C   0  0  0  0  0  0  0  0  0  0  0  0
   23.7931  -20.0470  -11.5391 C   0  0  0  0  0  0  0  0  0  0  0  0
   24.9698  -20.2653  -12.2318 C   0  0  0  0  0  0  0  0  0  0  0  0
   25.0011  -20.1700  -13.7148 C   0  0  0  0  0  0  0  0  0  0  0  0
   24.4989  -21.4379  -14.3692 C   0  0  2  0  0  0  0  0  0  0  0  0
   25.5928  -22.2753  -14.7736 N   0  0  0  0  0  0  0  0  0  0  0  0
   23.6682  -21.0049  -15.5419 C   0  0  0  0  0  0  0  0  0  0  0  0
   24.2691  -20.6938  -16.6032 O   0  0  0  0  0  0  0  0  0  0  0  0
   26.0857  -20.5680  -11.4827 C   0  0  0  0  0  0  0  0  0  0  0  0
   26.0294  -20.6499  -10.0919 C   0  0  0  0  0  0  0  0  0  0  0  0
   22.2724  -20.9327  -15.5078 N   0  0  0  0  0  0  0  0  0  0  0  0
   21.5057  -20.4951  -16.7006 C   0  0  1  0  0  0  0  0  0  0  0  0
   20.8165  -21.7560  -17.1600 C   0  0  0  0  0  0  0  0  0  0  0  0
   19.9381  -21.5960  -18.3152 C   0  0  0  0  0  0  0  0  0  0  0  0
   18.8103  -22.1423  -18.3266 O   0  0  0  0  0  0  0  0  0  0  0  0
   20.5536  -19.4681  -16.2881 C   0  0  0  0  0  0  0  0  0  0  0  0
   20.0311  -19.5286  -15.1364 O   0  0  0  0  0  0  0  0  0  0  0  0
   20.3558  -20.8378  -19.3988 O   0  0  0  0  0  0  0  0  0  0  0  0
   19.2568  -16.1465  -17.5172 C   0  0  0  0  0  0  0  0  0  0  0  0
   19.2985  -17.3253  -16.5516 C   0  0  2  0  0  0  0  0  0  0  0  0
   20.1624  -18.3776  -17.0960 N   0  0  0  0  0  0  0  0  0  0  0  0
   17.9393  -17.7811  -16.3437 C   0  0  0  0  0  0  0  0  0  0  0  0
   17.4690  -18.6738  -17.1197 O   0  0  0  0  0  0  0  0  0  0  0  0
   17.0899  -17.3276  -15.3608 O   0  0  0  0  0  0  0  0  0  0  0  0
  2  1  1  0
  2  3  2  0
  4  3  1  0
  5  4  2  0
  6  5  1  0
  7  6  1  0
  7  9  1  0
  7  8  1  6
  9 10  2  0
  9 13  1  0
 11 12  2  0
 11  5  1  0
 12  2  1  0
 13 14  1  0
 14 15  1  1
 15 16  1  0
 16 17  2  0
 16 20  1  0
 18 14  1  0
 18 23  1  0
 19 18  2  0
 22 21  1  6
 22 23  1  0
 22 24  1  0
 24 26  1  0
 25 24  2  0
M  END
$$$$
