YDA.pdb
     RDKit          3D

 26 26  0  0  1  0  0  0  0  0999 V2000
   30.6247  -13.3530  -17.1024 O   0  0  0  0  0  0  0  0  0  0  0  0
   29.5035  -12.5167  -17.0728 C   0  0  0  0  0  0  0  0  0  0  0  0
   28.6281  -12.5196  -16.0071 C   0  0  0  0  0  0  0  0  0  0  0  0
   27.5211  -11.6947  -15.9759 C   0  0  0  0  0  0  0  0  0  0  0  0
   27.2349  -10.8245  -17.0118 C   0  0  0  0  0  0  0  0  0  0  0  0
   26.0369   -9.9468  -16.9506 C   0  0  0  0  0  0  0  0  0  0  0  0
   24.7676  -10.7076  -17.2636 C   0  0  2  0  0  0  0  0  0  0  0  0
   24.8592  -11.3561  -18.5413 N   0  0  0  0  0  0  0  0  0  0  0  0
   23.6552   -9.7004  -17.2308 C   0  0  0  0  0  0  0  0  0  0  0  0
   23.2286   -9.2618  -18.3306 O   0  0  0  0  0  0  0  0  0  0  0  0
   28.1069  -10.8187  -18.0784 C   0  0  0  0  0  0  0  0  0  0  0  0
   29.2248  -11.6517  -18.1101 C   0  0  0  0  0  0  0  0  0  0  0  0
   23.0786   -9.2334  -16.0459 N   0  0  0  0  0  0  0  0  0  0  0  0
   21.9308   -8.2933  -16.0794 C   0  0  1  0  0  0  0  0  0  0  0  0
   20.8535   -9.0232  -15.3162 C   0  0  0  0  0  0  0  0  0  0  0  0
   19.5721   -8.3280  -15.2358 C   0  0  0  0  0  0  0  0  0  0  0  0
   19.2100   -7.5696  -16.1654 O   0  0  0  0  0  0  0  0  0  0  0  0
   22.3280   -7.0536  -15.4185 C   0  0  0  0  0  0  0  0  0  0  0  0
   22.9119   -7.1047  -14.2962 O   0  0  0  0  0  0  0  0  0  0  0  0
   18.7578   -8.5099  -14.1280 O   0  0  0  0  0  0  0  0  0  0  0  0
   22.4520   -3.3519  -16.1491 C   0  0  0  0  0  0  0  0  0  0  0  0
   22.6342   -4.5799  -15.2646 C   0  0  2  0  0  0  0  0  0  0  0  0
   22.1094   -5.7641  -15.9518 N   0  0  0  0  0  0  0  0  0  0  0  0
   21.9604   -4.3290  -14.0070 C   0  0  0  0  0  0  0  0  0  0  0  0
   20.7964   -4.8131  -13.8305 O   0  0  0  0  0  0  0  0  0  0  0  0
   22.4753   -3.5989  -12.9605 O   0  0  0  0  0  0  0  0  0  0  0  0
  2  1  1  0
  2  3  2  0
  4  3  1  0
  5  4  2  0
  6  5  1  0
  7  6  1  0
  7  9  1  0
  7  8  1  6
  9 10  2  0
  9 13  1  0
 11 12  2  0
 11  5  1  0
 12  2  1  0
 13 14  1  0
 14 15  1  1
 15 16  1  0
 16 17  2  0
 16 20  1  0
 18 14  1  0
 18 23  1  0
 19 18  2  0
 22 21  1  6
 22 23  1  0
 22 24  1  0
 24 26  1  0
 25 24  2  0
M  END
$$$$
