YDA.pdb
     RDKit          3D

 26 26  0  0  1  0  0  0  0  0999 V2000
   21.1132  -19.4181  -11.5069 O   0  0  0  0  0  0  0  0  0  0  0  0
   20.8321  -18.4742  -12.5008 C   0  0  0  0  0  0  0  0  0  0  0  0
   19.9763  -17.4173  -12.2719 C   0  0  0  0  0  0  0  0  0  0  0  0
   19.6979  -16.4846  -13.2515 C   0  0  0  0  0  0  0  0  0  0  0  0
   20.2635  -16.5639  -14.5109 C   0  0  0  0  0  0  0  0  0  0  0  0
   19.9469  -15.5447  -15.5455 C   0  0  0  0  0  0  0  0  0  0  0  0
   18.6432  -15.8471  -16.2505 C   0  0  2  0  0  0  0  0  0  0  0  0
   18.7796  -16.9837  -17.1172 N   0  0  0  0  0  0  0  0  0  0  0  0
   18.2811  -14.6068  -17.0143 C   0  0  0  0  0  0  0  0  0  0  0  0
   18.8239  -14.4294  -18.1359 O   0  0  0  0  0  0  0  0  0  0  0  0
   21.1188  -17.6185  -14.7435 C   0  0  0  0  0  0  0  0  0  0  0  0
   21.4000  -18.5604  -13.7546 C   0  0  0  0  0  0  0  0  0  0  0  0
   17.3778  -13.6509  -16.5403 N   0  0  0  0  0  0  0  0  0  0  0  0
   16.9933  -12.4884  -17.3788 C   0  0  1  0  0  0  0  0  0  0  0  0
   15.5658  -12.2170  -16.9736 C   0  0  0  0  0  0  0  0  0  0  0  0
   14.9471  -11.0633  -17.6201 C   0  0  0  0  0  0  0  0  0  0  0  0
   15.1981  -10.8072  -18.8209 O   0  0  0  0  0  0  0  0  0  0  0  0
   17.8773  -11.3721  -17.0562 C   0  0  0  0  0  0  0  0  0  0  0  0
   18.1718  -11.1391  -15.8471 O   0  0  0  0  0  0  0  0  0  0  0  0
   14.0812  -10.2528  -16.9013 O   0  0  0  0  0  0  0  0  0  0  0  0
   19.8595   -8.6834  -18.8253 C   0  0  0  0  0  0  0  0  0  0  0  0
   19.3214   -9.4078  -17.5967 C   0  0  2  0  0  0  0  0  0  0  0  0
   18.4500  -10.5096  -18.0169 N   0  0  0  0  0  0  0  0  0  0  0  0
   18.6263   -8.4383  -16.7749 C   0  0  0  0  0  0  0  0  0  0  0  0
   17.3769   -8.2713  -16.9522 O   0  0  0  0  0  0  0  0  0  0  0  0
   19.2059   -7.6635  -15.7966 O   0  0  0  0  0  0  0  0  0  0  0  0
  2  1  1  0
  2  3  2  0
  4  3  1  0
  5  4  2  0
  6  5  1  0
  7  6  1  0
  7  9  1  0
  7  8  1  6
  9 10  2  0
  9 13  1  0
 11 12  2  0
 11  5  1  0
 12  2  1  0
 13 14  1  0
 14 15  1  1
 15 16  1  0
 16 17  2  0
 16 20  1  0
 18 14  1  0
 18 23  1  0
 19 18  2  0
 22 21  1  6
 22 23  1  0
 22 24  1  0
 24 26  1  0
 25 24  2  0
M  END
$$$$
