YDA.pdb
     RDKit          3D

 26 26  0  0  1  0  0  0  0  0999 V2000
   28.3622  -19.9306   -5.7369 O   0  0  0  0  0  0  0  0  0  0  0  0
   27.9279  -19.9918   -7.0655 C   0  0  0  0  0  0  0  0  0  0  0  0
   28.8193  -20.0973   -8.1126 C   0  0  0  0  0  0  0  0  0  0  0  0
   28.3926  -20.1581   -9.4246 C   0  0  0  0  0  0  0  0  0  0  0  0
   27.0501  -20.1162   -9.7539 C   0  0  0  0  0  0  0  0  0  0  0  0
   26.6195  -20.1852  -11.1749 C   0  0  0  0  0  0  0  0  0  0  0  0
   26.3168  -21.6046  -11.6010 C   0  0  2  0  0  0  0  0  0  0  0  0
   27.5258  -22.3235  -11.8890 N   0  0  0  0  0  0  0  0  0  0  0  0
   25.4316  -21.5010  -12.8088 C   0  0  0  0  0  0  0  0  0  0  0  0
   25.9842  -21.3546  -13.9300 O   0  0  0  0  0  0  0  0  0  0  0  0
   26.1566  -20.0106   -8.7107 C   0  0  0  0  0  0  0  0  0  0  0  0
   26.5872  -19.9491   -7.3859 C   0  0  0  0  0  0  0  0  0  0  0  0
   24.0363  -21.5592  -12.7438 N   0  0  0  0  0  0  0  0  0  0  0  0
   23.2188  -21.5746  -13.9823 C   0  0  1  0  0  0  0  0  0  0  0  0
   22.0728  -22.4932  -13.6380 C   0  0  0  0  0  0  0  0  0  0  0  0
   21.0486  -22.6199  -14.6709 C   0  0  0  0  0  0  0  0  0  0  0  0
   19.8408  -22.7111  -14.3495 O   0  0  0  0  0  0  0  0  0  0  0  0
   22.7681  -20.2134  -14.2567 C   0  0  0  0  0  0  0  0  0  0  0  0
   22.2848  -19.5153  -13.3176 O   0  0  0  0  0  0  0  0  0  0  0  0
   21.4170  -22.6387  -16.0079 O   0  0  0  0  0  0  0  0  0  0  0  0
   22.8947  -17.6363  -16.9858 C   0  0  0  0  0  0  0  0  0  0  0  0
   22.3033  -18.2427  -15.7185 C   0  0  2  0  0  0  0  0  0  0  0  0
   22.8357  -19.5951  -15.5248 N   0  0  0  0  0  0  0  0  0  0  0  0
   20.8606  -18.2320  -15.8489 C   0  0  0  0  0  0  0  0  0  0  0  0
   20.2828  -19.2611  -16.3258 O   0  0  0  0  0  0  0  0  0  0  0  0
   20.0378  -17.1872  -15.4957 O   0  0  0  0  0  0  0  0  0  0  0  0
  2  1  1  0
  2  3  2  0
  4  3  1  0
  5  4  2  0
  6  5  1  0
  7  6  1  0
  7  9  1  0
  7  8  1  6
  9 10  2  0
  9 13  1  0
 11 12  2  0
 11  5  1  0
 12  2  1  0
 13 14  1  0
 14 15  1  1
 15 16  1  0
 16 17  2  0
 16 20  1  0
 18 14  1  0
 18 23  1  0
 19 18  2  0
 22 21  1  6
 22 23  1  0
 22 24  1  0
 24 26  1  0
 25 24  2  0
M  END
$$$$
