YDA.pdb
     RDKit          3D

 26 26  0  0  1  0  0  0  0  0999 V2000
   18.2086  -17.3267  -15.3884 O   0  0  0  0  0  0  0  0  0  0  0  0
   18.7806  -16.0505  -15.4324 C   0  0  0  0  0  0  0  0  0  0  0  0
   18.1171  -14.9806  -15.9955 C   0  0  0  0  0  0  0  0  0  0  0  0
   18.6800  -13.7203  -16.0395 C   0  0  0  0  0  0  0  0  0  0  0  0
   19.9369  -13.4682  -15.5211 C   0  0  0  0  0  0  0  0  0  0  0  0
   20.5173  -12.1011  -15.5809 C   0  0  0  0  0  0  0  0  0  0  0  0
   20.9237  -11.7253  -16.9886 C   0  0  2  0  0  0  0  0  0  0  0  0
   22.0287  -12.5259  -17.4354 N   0  0  0  0  0  0  0  0  0  0  0  0
   21.2752  -10.2666  -16.9492 C   0  0  0  0  0  0  0  0  0  0  0  0
   22.4263   -9.9514  -16.5495 O   0  0  0  0  0  0  0  0  0  0  0  0
   20.6030  -14.5346  -14.9579 C   0  0  0  0  0  0  0  0  0  0  0  0
   20.0349  -15.8072  -14.9133 C   0  0  0  0  0  0  0  0  0  0  0  0
   20.3905   -9.2542  -17.3325 N   0  0  0  0  0  0  0  0  0  0  0  0
   20.8376   -7.8407  -17.3993 C   0  0  1  0  0  0  0  0  0  0  0  0
   20.0089   -7.2604  -18.5183 C   0  0  0  0  0  0  0  0  0  0  0  0
   20.2630   -5.8528  -18.8115 C   0  0  0  0  0  0  0  0  0  0  0  0
   19.5685   -5.2543  -19.6659 O   0  0  0  0  0  0  0  0  0  0  0  0
   20.5521   -7.2035  -16.1171 C   0  0  0  0  0  0  0  0  0  0  0  0
   19.4953   -7.5093  -15.4904 O   0  0  0  0  0  0  0  0  0  0  0  0
   21.2747   -5.1812  -18.1416 O   0  0  0  0  0  0  0  0  0  0  0  0
   22.2266   -4.9068  -13.6366 C   0  0  0  0  0  0  0  0  0  0  0  0
   21.0460   -5.6994  -14.1858 C   0  0  2  0  0  0  0  0  0  0  0  0
   21.3903   -6.2480  -15.5013 N   0  0  0  0  0  0  0  0  0  0  0  0
   19.9003   -4.8146  -14.2406 C   0  0  0  0  0  0  0  0  0  0  0  0
   19.5554   -4.3309  -15.3664 O   0  0  0  0  0  0  0  0  0  0  0  0
   19.1319   -4.4406  -13.1622 O   0  0  0  0  0  0  0  0  0  0  0  0
  2  1  1  0
  2  3  2  0
  4  3  1  0
  5  4  2  0
  6  5  1  0
  7  6  1  0
  7  9  1  0
  7  8  1  1
  9 10  2  0
  9 13  1  0
 11 12  2  0
 11  5  1  0
 12  2  1  0
 13 14  1  0
 14 15  1  6
 15 16  1  0
 16 17  2  0
 16 20  1  0
 18 14  1  0
 18 23  1  0
 19 18  2  0
 22 21  1  6
 22 23  1  0
 22 24  1  0
 24 26  1  0
 25 24  2  0
M  END
$$$$
