YDA.pdb
     RDKit          3D

 26 26  0  0  1  0  0  0  0  0999 V2000
   29.0638  -11.1441  -16.4509 O   0  0  0  0  0  0  0  0  0  0  0  0
   27.8202  -10.5129  -16.5627 C   0  0  0  0  0  0  0  0  0  0  0  0
   26.7177  -10.9604  -15.8655 C   0  0  0  0  0  0  0  0  0  0  0  0
   25.4896  -10.3385  -15.9744 C   0  0  0  0  0  0  0  0  0  0  0  0
   25.3039   -9.2358  -16.7880 C   0  0  0  0  0  0  0  0  0  0  0  0
   23.9709   -8.5854  -16.8845 C   0  0  0  0  0  0  0  0  0  0  0  0
   22.9347   -9.5151  -17.4761 C   0  0  2  0  0  0  0  0  0  0  0  0
   23.3207   -9.9446  -18.7906 N   0  0  0  0  0  0  0  0  0  0  0  0
   21.6455   -8.7468  -17.4995 C   0  0  0  0  0  0  0  0  0  0  0  0
   21.3529   -8.1240  -18.5533 O   0  0  0  0  0  0  0  0  0  0  0  0
   26.4029   -8.7858  -17.4863 C   0  0  0  0  0  0  0  0  0  0  0  0
   27.6432   -9.4137  -17.3766 C   0  0  0  0  0  0  0  0  0  0  0  0
   20.7653   -8.6930  -16.4146 N   0  0  0  0  0  0  0  0  0  0  0  0
   19.5021   -7.9187  -16.4996 C   0  0  1  0  0  0  0  0  0  0  0  0
   18.4656   -8.8729  -15.9603 C   0  0  0  0  0  0  0  0  0  0  0  0
   17.0931   -8.3756  -15.9859 C   0  0  0  0  0  0  0  0  0  0  0  0
   16.7657   -7.4779  -16.7966 O   0  0  0  0  0  0  0  0  0  0  0  0
   19.6340   -6.7248  -15.6698 C   0  0  0  0  0  0  0  0  0  0  0  0
   18.6141   -6.0118  -15.4366 O   0  0  0  0  0  0  0  0  0  0  0  0
   16.1538   -8.9001  -15.1107 O   0  0  0  0  0  0  0  0  0  0  0  0
   22.1670   -4.9850  -13.4995 C   0  0  0  0  0  0  0  0  0  0  0  0
   20.9033   -5.0261  -14.3508 C   0  0  2  0  0  0  0  0  0  0  0  0
   20.8455   -6.2935  -15.0859 N   0  0  0  0  0  0  0  0  0  0  0  0
   20.9214   -3.8777  -15.2336 C   0  0  0  0  0  0  0  0  0  0  0  0
   20.9185   -4.0739  -16.4912 O   0  0  0  0  0  0  0  0  0  0  0  0
   20.9412   -2.5630  -14.8280 O   0  0  0  0  0  0  0  0  0  0  0  0
  2  1  1  0
  2  3  2  0
  4  3  1  0
  5  4  2  0
  6  5  1  0
  7  6  1  0
  7  9  1  0
  7  8  1  6
  9 10  2  0
  9 13  1  0
 11 12  2  0
 11  5  1  0
 12  2  1  0
 13 14  1  0
 14 15  1  1
 15 16  1  0
 16 17  2  0
 16 20  1  0
 18 14  1  0
 18 23  1  0
 19 18  2  0
 22 21  1  6
 22 23  1  0
 22 24  1  0
 24 26  1  0
 25 24  2  0
M  END
$$$$
