YDA.pdb
     RDKit          3D

 26 26  0  0  1  0  0  0  0  0999 V2000
   34.1059  -25.0854  -18.7377 O   0  0  0  0  0  0  0  0  0  0  0  0
   32.8867  -25.2246  -18.0656 C   0  0  0  0  0  0  0  0  0  0  0  0
   32.3104  -26.4611  -17.8634 C   0  0  0  0  0  0  0  0  0  0  0  0
   31.1073  -26.6005  -17.2001 C   0  0  0  0  0  0  0  0  0  0  0  0
   30.4202  -25.5071  -16.7054 C   0  0  0  0  0  0  0  0  0  0  0  0
   29.1277  -25.6871  -15.9939 C   0  0  0  0  0  0  0  0  0  0  0  0
   27.9470  -25.5217  -16.9249 C   0  0  2  0  0  0  0  0  0  0  0  0
   28.2825  -25.9352  -18.2583 N   0  0  0  0  0  0  0  0  0  0  0  0
   27.5707  -24.0697  -16.8722 C   0  0  0  0  0  0  0  0  0  0  0  0
   28.4615  -23.2227  -17.1424 O   0  0  0  0  0  0  0  0  0  0  0  0
   30.9926  -24.2701  -16.9056 C   0  0  0  0  0  0  0  0  0  0  0  0
   32.2074  -24.1291  -17.5754 C   0  0  0  0  0  0  0  0  0  0  0  0
   26.2887  -23.6216  -16.5399 N   0  0  0  0  0  0  0  0  0  0  0  0
   25.9461  -22.1795  -16.6126 C   0  0  1  0  0  0  0  0  0  0  0  0
   26.0043  -21.8764  -18.0892 C   0  0  0  0  0  0  0  0  0  0  0  0
   25.6048  -20.5217  -18.4597 C   0  0  0  0  0  0  0  0  0  0  0  0
   24.8516  -20.3365  -19.4440 O   0  0  0  0  0  0  0  0  0  0  0  0
   24.6050  -21.9940  -16.0664 C   0  0  0  0  0  0  0  0  0  0  0  0
   23.6803  -22.7923  -16.3989 O   0  0  0  0  0  0  0  0  0  0  0  0
   26.0614  -19.4419  -17.7188 O   0  0  0  0  0  0  0  0  0  0  0  0
   22.8335  -19.8267  -13.5311 C   0  0  0  0  0  0  0  0  0  0  0  0
   22.8973  -20.9095  -14.6021 C   0  0  2  0  0  0  0  0  0  0  0  0
   24.2498  -20.9656  -15.1657 N   0  0  0  0  0  0  0  0  0  0  0  0
   21.8953  -20.6073  -15.6036 C   0  0  0  0  0  0  0  0  0  0  0  0
   22.2705  -20.1021  -16.7100 O   0  0  0  0  0  0  0  0  0  0  0  0
   20.5431  -20.8220  -15.4659 O   0  0  0  0  0  0  0  0  0  0  0  0
  2  1  1  0
  2  3  2  0
  4  3  1  0
  5  4  2  0
  6  5  1  0
  7  6  1  0
  7  9  1  0
  7  8  1  6
  9 10  2  0
  9 13  1  0
 11 12  2  0
 11  5  1  0
 12  2  1  0
 13 14  1  0
 14 15  1  6
 15 16  1  0
 16 17  2  0
 16 20  1  0
 18 14  1  0
 18 23  1  0
 19 18  2  0
 22 21  1  1
 22 23  1  0
 22 24  1  0
 24 26  1  0
 25 24  2  0
M  END
$$$$
