KTG.pdb
     RDKit          3D

 21 20  0  0  1  0  0  0  0  0999 V2000
    7.3643  -16.0171   18.2836 N   0  0  0  0  0  0  0  0  0  0  0  0
    7.2997  -16.8780   19.4346 C   0  0  1  0  0  0  0  0  0  0  0  0
    7.5091  -18.2812   19.0618 C   0  0  0  0  0  0  0  0  0  0  0  0
    6.7769  -18.6510   17.8182 C   0  0  0  0  0  0  0  0  0  0  0  0
    7.2331  -19.8757   17.0977 C   0  0  0  0  0  0  0  0  0  0  0  0
    6.3298  -20.1179   15.8610 C   0  0  0  0  0  0  0  0  0  0  0  0
    6.8385  -21.2215   15.0875 N   0  0  0  0  0  0  0  0  0  0  0  0
    8.1938  -16.3512   20.4800 C   0  0  0  0  0  0  0  0  0  0  0  0
    9.3703  -16.0869   20.1313 O   0  0  0  0  0  0  0  0  0  0  0  0
    7.9070  -13.3048   22.5822 C   0  0  0  0  0  0  0  0  0  0  0  0
    8.2246  -14.4246   23.5214 C   0  0  1  0  0  0  0  0  0  0  0  0
    7.0649  -14.7390   24.2321 O   0  0  0  0  0  0  0  0  0  0  0  0
    8.7474  -15.6587   22.7674 C   0  0  2  0  0  0  0  0  0  0  0  0
    7.7888  -16.1361   21.8306 N   0  0  0  0  0  0  0  0  0  0  0  0
    9.2093  -16.6502   23.7400 C   0  0  0  0  0  0  0  0  0  0  0  0
    8.3939  -17.5374   24.0928 O   0  0  0  0  0  0  0  0  0  0  0  0
   10.5029  -16.6999   24.3236 N   0  0  0  0  0  0  0  0  0  0  0  0
   10.9186  -17.7883   25.1833 C   0  0  0  0  0  0  0  0  0  0  0  0
   10.6004  -17.5146   26.6072 C   0  0  0  0  0  0  0  0  0  0  0  0
   10.9825  -18.4586   27.5475 O   0  0  0  0  0  0  0  0  0  0  0  0
   10.0088  -16.4864   27.0182 O   0  0  0  0  0  0  0  0  0  0  0  0
  2  1  1  6
  3  2  1  0
  4  3  1  0
  5  6  1  0
  5  4  1  0
  7  6  1  0
  8  2  1  0
  8  9  2  0
 11 10  1  6
 11 12  1  0
 13 14  1  1
 13 11  1  0
 14  8  1  0
 15 13  1  0
 16 15  2  0
 17 15  1  0
 18 17  1  0
 19 18  1  0
 19 20  1  0
 21 19  2  0
M  END
$$$$
