KTG.pdb
     RDKit          3D

 21 20  0  0  1  0  0  0  0  0999 V2000
   -2.2838  -27.0759   26.5754 N   0  0  0  0  0  0  0  0  0  0  0  0
   -3.7137  -27.2267   26.6278 C   0  0  1  0  0  0  0  0  0  0  0  0
   -4.0968  -28.3908   27.4339 C   0  0  0  0  0  0  0  0  0  0  0  0
   -2.9168  -29.0809   28.0265 C   0  0  0  0  0  0  0  0  0  0  0  0
   -2.7704  -29.0267   29.5106 C   0  0  0  0  0  0  0  0  0  0  0  0
   -1.6716  -30.0236   29.9612 C   0  0  0  0  0  0  0  0  0  0  0  0
   -1.5292  -29.9855   31.3942 N   0  0  0  0  0  0  0  0  0  0  0  0
   -4.3183  -25.9435   27.0253 C   0  0  0  0  0  0  0  0  0  0  0  0
   -3.6124  -25.1867   27.7355 O   0  0  0  0  0  0  0  0  0  0  0  0
   -5.8635  -23.5420   24.5874 C   0  0  0  0  0  0  0  0  0  0  0  0
   -6.7499  -23.5396   25.7920 C   0  0  1  0  0  0  0  0  0  0  0  0
   -7.9395  -24.1897   25.4587 O   0  0  0  0  0  0  0  0  0  0  0  0
   -6.0736  -24.2301   26.9881 C   0  0  2  0  0  0  0  0  0  0  0  0
   -5.6328  -25.5393   26.6471 N   0  0  0  0  0  0  0  0  0  0  0  0
   -6.9667  -24.1597   28.1456 C   0  0  0  0  0  0  0  0  0  0  0  0
   -7.5119  -25.2266   28.5209 O   0  0  0  0  0  0  0  0  0  0  0  0
   -7.2740  -22.9878   28.8863 N   0  0  0  0  0  0  0  0  0  0  0  0
   -8.1376  -23.0155   30.0481 C   0  0  0  0  0  0  0  0  0  0  0  0
   -8.1687  -21.7024   30.7398 C   0  0  0  0  0  0  0  0  0  0  0  0
   -9.0620  -21.5453   31.7879 O   0  0  0  0  0  0  0  0  0  0  0  0
   -7.4411  -20.7241   30.4403 O   0  0  0  0  0  0  0  0  0  0  0  0
  2  1  1  1
  3  2  1  0
  4  3  1  0
  5  6  1  0
  5  4  1  0
  7  6  1  0
  8  2  1  0
  8  9  2  0
 11 10  1  6
 11 12  1  0
 13 14  1  6
 13 11  1  0
 14  8  1  0
 15 13  1  0
 16 15  2  0
 17 15  1  0
 18 17  1  0
 19 18  1  0
 19 20  1  0
 21 19  2  0
M  END
$$$$
