KTG.pdb
     RDKit          3D

 21 20  0  0  1  0  0  0  0  0999 V2000
    6.5727  -15.9045   21.1854 N   0  0  0  0  0  0  0  0  0  0  0  0
    7.8366  -15.3370   21.5736 C   0  0  1  0  0  0  0  0  0  0  0  0
    7.6968  -13.9213   21.9313 C   0  0  0  0  0  0  0  0  0  0  0  0
    7.9849  -13.0171   20.7828 C   0  0  0  0  0  0  0  0  0  0  0  0
    8.0817  -13.6424   19.4312 C   0  0  0  0  0  0  0  0  0  0  0  0
    8.2893  -12.5391   18.3618 C   0  0  0  0  0  0  0  0  0  0  0  0
    8.4164  -13.1353   17.0566 N   0  0  0  0  0  0  0  0  0  0  0  0
    8.4574  -16.1988   22.5944 C   0  0  0  0  0  0  0  0  0  0  0  0
    7.7311  -16.5366   23.5608 O   0  0  0  0  0  0  0  0  0  0  0  0
   10.4664  -19.3718   21.6350 C   0  0  0  0  0  0  0  0  0  0  0  0
   11.1650  -18.6723   22.7573 C   0  0  1  0  0  0  0  0  0  0  0  0
   12.2963  -18.0396   22.2390 O   0  0  0  0  0  0  0  0  0  0  0  0
   10.2421  -17.6518   23.4441 C   0  0  2  0  0  0  0  0  0  0  0  0
    9.8087  -16.6507   22.5305 N   0  0  0  0  0  0  0  0  0  0  0  0
   10.9038  -17.1465   24.6479 C   0  0  0  0  0  0  0  0  0  0  0  0
   11.3792  -15.9853   24.6021 O   0  0  0  0  0  0  0  0  0  0  0  0
   11.0574  -17.8543   25.8693 N   0  0  0  0  0  0  0  0  0  0  0  0
   11.6452  -17.2448   27.0438 C   0  0  0  0  0  0  0  0  0  0  0  0
   11.6879  -18.1891   28.1885 C   0  0  0  0  0  0  0  0  0  0  0  0
   12.2084  -17.7278   29.3874 O   0  0  0  0  0  0  0  0  0  0  0  0
   11.2847  -19.3772   28.1449 O   0  0  0  0  0  0  0  0  0  0  0  0
  2  1  1  1
  3  2  1  0
  4  3  1  0
  5  6  1  0
  5  4  1  0
  7  6  1  0
  8  2  1  0
  8  9  2  0
 11 10  1  6
 11 12  1  0
 13 14  1  6
 13 11  1  0
 14  8  1  0
 15 13  1  0
 16 15  2  0
 17 15  1  0
 18 17  1  0
 19 18  1  0
 19 20  1  0
 21 19  2  0
M  END
$$$$
