KTG.pdb
     RDKit          3D

 21 20  0  0  1  0  0  0  0  0999 V2000
    8.8492  -17.4597   16.5894 N   0  0  0  0  0  0  0  0  0  0  0  0
    8.0364  -17.3531   17.7718 C   0  0  1  0  0  0  0  0  0  0  0  0
    7.6083  -18.6743   18.2440 C   0  0  0  0  0  0  0  0  0  0  0  0
    7.3014  -19.6037   17.1209 C   0  0  0  0  0  0  0  0  0  0  0  0
    5.9610  -20.2599   17.1266 C   0  0  0  0  0  0  0  0  0  0  0  0
    5.8718  -21.2699   15.9535 C   0  0  0  0  0  0  0  0  0  0  0  0
    4.5867  -21.9207   15.9601 N   0  0  0  0  0  0  0  0  0  0  0  0
    8.7337  -16.5128   18.7606 C   0  0  0  0  0  0  0  0  0  0  0  0
    9.9883  -16.5470   18.7408 O   0  0  0  0  0  0  0  0  0  0  0  0
    7.4140  -12.8574   20.1998 C   0  0  0  0  0  0  0  0  0  0  0  0
    7.9826  -13.7769   21.2332 C   0  0  1  0  0  0  0  0  0  0  0  0
    6.9228  -14.3305   21.9539 O   0  0  0  0  0  0  0  0  0  0  0  0
    8.8362  -14.8835   20.5917 C   0  0  2  0  0  0  0  0  0  0  0  0
    8.0613  -15.6877   19.7099 N   0  0  0  0  0  0  0  0  0  0  0  0
    9.5340  -15.6186   21.6475 C   0  0  0  0  0  0  0  0  0  0  0  0
    9.1144  -16.7689   21.9255 O   0  0  0  0  0  0  0  0  0  0  0  0
   10.6486  -15.1462   22.3899 N   0  0  0  0  0  0  0  0  0  0  0  0
   11.2590  -15.9286   23.4442 C   0  0  0  0  0  0  0  0  0  0  0  0
   12.7366  -15.7860   23.4476 C   0  0  0  0  0  0  0  0  0  0  0  0
   13.4357  -16.3293   24.5140 O   0  0  0  0  0  0  0  0  0  0  0  0
   13.3967  -15.2067   22.5504 O   0  0  0  0  0  0  0  0  0  0  0  0
  2  1  1  6
  3  2  1  0
  4  3  1  0
  5  6  1  0
  5  4  1  0
  7  6  1  0
  8  2  1  0
  8  9  2  0
 11 10  1  6
 11 12  1  0
 13 14  1  1
 13 11  1  0
 14  8  1  0
 15 13  1  0
 16 15  2  0
 17 15  1  0
 18 17  1  0
 19 18  1  0
 19 20  1  0
 21 19  2  0
M  END
$$$$
