KTG.pdb
     RDKit          3D

 21 20  0  0  1  0  0  0  0  0999 V2000
    5.3610  -18.4104   20.0530 N   0  0  0  0  0  0  0  0  0  0  0  0
    4.9533  -17.7332   21.2553 C   0  0  1  0  0  0  0  0  0  0  0  0
    3.8303  -18.4228   21.8995 C   0  0  0  0  0  0  0  0  0  0  0  0
    2.8203  -18.9008   20.9141 C   0  0  0  0  0  0  0  0  0  0  0  0
    1.6286  -19.6189   21.4540 C   0  0  0  0  0  0  0  0  0  0  0  0
    0.6760  -19.9937   20.2894 C   0  0  0  0  0  0  0  0  0  0  0  0
   -0.5454  -20.5509   20.8116 N   0  0  0  0  0  0  0  0  0  0  0  0
    6.1363  -17.5029   22.1023 C   0  0  0  0  0  0  0  0  0  0  0  0
    7.1540  -18.1910   21.8440 O   0  0  0  0  0  0  0  0  0  0  0  0
    8.0999  -14.4292   22.5561 C   0  0  0  0  0  0  0  0  0  0  0  0
    7.8348  -14.9395   23.9367 C   0  0  1  0  0  0  0  0  0  0  0  0
    6.8604  -14.1283   24.5212 O   0  0  0  0  0  0  0  0  0  0  0  0
    7.3742  -16.4065   23.9144 C   0  0  2  0  0  0  0  0  0  0  0  0
    6.1707  -16.5587   23.1707 N   0  0  0  0  0  0  0  0  0  0  0  0
    7.3208  -16.9095   25.2879 C   0  0  0  0  0  0  0  0  0  0  0  0
    6.2453  -16.7578   25.9178 O   0  0  0  0  0  0  0  0  0  0  0  0
    8.3807  -17.5569   25.9762 N   0  0  0  0  0  0  0  0  0  0  0  0
    8.2424  -18.0222   27.3403 C   0  0  0  0  0  0  0  0  0  0  0  0
    9.5257  -18.5426   27.8750 C   0  0  0  0  0  0  0  0  0  0  0  0
    9.5318  -19.0422   29.1679 O   0  0  0  0  0  0  0  0  0  0  0  0
   10.6063  -18.5613   27.2361 O   0  0  0  0  0  0  0  0  0  0  0  0
  2  1  1  6
  3  2  1  0
  4  3  1  0
  5  6  1  0
  5  4  1  0
  7  6  1  0
  8  2  1  0
  8  9  2  0
 11 10  1  6
 11 12  1  0
 13 14  1  1
 13 11  1  0
 14  8  1  0
 15 13  1  0
 16 15  2  0
 17 15  1  0
 18 17  1  0
 19 18  1  0
 19 20  1  0
 21 19  2  0
M  END
$$$$
