KTG.pdb
     RDKit          3D

 21 20  0  0  1  0  0  0  0  0999 V2000
    4.3903  -18.4710   19.7300 N   0  0  0  0  0  0  0  0  0  0  0  0
    4.5513  -17.5011   20.7806 C   0  0  1  0  0  0  0  0  0  0  0  0
    3.8878  -17.9376   22.0139 C   0  0  0  0  0  0  0  0  0  0  0  0
    2.6745  -18.7585   21.7428 C   0  0  0  0  0  0  0  0  0  0  0  0
    2.4344  -19.9332   22.6314 C   0  0  0  0  0  0  0  0  0  0  0  0
    1.0728  -20.5842   22.2758 C   0  0  0  0  0  0  0  0  0  0  0  0
    0.8940  -21.7973   23.0317 N   0  0  0  0  0  0  0  0  0  0  0  0
    5.9790  -17.1603   20.9057 C   0  0  0  0  0  0  0  0  0  0  0  0
    6.7993  -18.0344   20.5333 O   0  0  0  0  0  0  0  0  0  0  0  0
    7.4077  -13.9939   19.5343 C   0  0  0  0  0  0  0  0  0  0  0  0
    8.1200  -14.2279   20.8284 C   0  0  1  0  0  0  0  0  0  0  0  0
    7.6950  -13.2602   21.7406 O   0  0  0  0  0  0  0  0  0  0  0  0
    7.8469  -15.6401   21.3724 C   0  0  2  0  0  0  0  0  0  0  0  0
    6.4517  -15.9156   21.4170 N   0  0  0  0  0  0  0  0  0  0  0  0
    8.5511  -15.8042   22.6450 C   0  0  0  0  0  0  0  0  0  0  0  0
    7.8690  -15.7322   23.6967 O   0  0  0  0  0  0  0  0  0  0  0  0
    9.9431  -16.0389   22.7987 N   0  0  0  0  0  0  0  0  0  0  0  0
   10.5799  -16.0697   24.0987 C   0  0  0  0  0  0  0  0  0  0  0  0
   12.0404  -16.3118   23.9883 C   0  0  0  0  0  0  0  0  0  0  0  0
   12.8007  -16.2127   25.1430 O   0  0  0  0  0  0  0  0  0  0  0  0
   12.6341  -16.6003   22.9205 O   0  0  0  0  0  0  0  0  0  0  0  0
  2  1  1  6
  3  2  1  0
  4  3  1  0
  5  6  1  0
  5  4  1  0
  7  6  1  0
  8  2  1  0
  8  9  2  0
 11 10  1  6
 11 12  1  0
 13 14  1  1
 13 11  1  0
 14  8  1  0
 15 13  1  0
 16 15  2  0
 17 15  1  0
 18 17  1  0
 19 18  1  0
 19 20  1  0
 21 19  2  0
M  END
$$$$
