KTG.pdb
     RDKit          3D

 21 20  0  0  1  0  0  0  0  0999 V2000
    9.8429  -17.9525   18.2677 N   0  0  0  0  0  0  0  0  0  0  0  0
    9.3032  -18.1074   19.5924 C   0  0  1  0  0  0  0  0  0  0  0  0
    9.2637  -19.5190   19.9892 C   0  0  0  0  0  0  0  0  0  0  0  0
    8.9127  -20.4159   18.8525 C   0  0  0  0  0  0  0  0  0  0  0  0
    8.8577  -21.8807   19.1324 C   0  0  0  0  0  0  0  0  0  0  0  0
    8.3532  -22.6319   17.8734 C   0  0  0  0  0  0  0  0  0  0  0  0
    8.4505  -24.0548   18.0762 N   0  0  0  0  0  0  0  0  0  0  0  0
   10.0154  -17.2021   20.5108 C   0  0  0  0  0  0  0  0  0  0  0  0
   11.1497  -16.8092   20.1439 O   0  0  0  0  0  0  0  0  0  0  0  0
    8.4657  -14.1098   22.5813 C   0  0  0  0  0  0  0  0  0  0  0  0
    9.3417  -14.9811   23.4241 C   0  0  1  0  0  0  0  0  0  0  0  0
    8.5223  -15.7633   24.2399 O   0  0  0  0  0  0  0  0  0  0  0  0
   10.2490  -15.8706   22.5579 C   0  0  2  0  0  0  0  0  0  0  0  0
    9.4842  -16.7677   21.7611 N   0  0  0  0  0  0  0  0  0  0  0  0
   11.2517  -16.5050   23.4149 C   0  0  0  0  0  0  0  0  0  0  0  0
   10.8780  -17.4712   24.1244 O   0  0  0  0  0  0  0  0  0  0  0  0
   12.6161  -16.1248   23.5171 N   0  0  0  0  0  0  0  0  0  0  0  0
   13.5371  -16.7941   24.4115 C   0  0  0  0  0  0  0  0  0  0  0  0
   14.8756  -16.1522   24.4014 C   0  0  0  0  0  0  0  0  0  0  0  0
   15.8397  -16.6549   25.2610 O   0  0  0  0  0  0  0  0  0  0  0  0
   15.1942  -15.1849   23.6672 O   0  0  0  0  0  0  0  0  0  0  0  0
  2  1  1  6
  3  2  1  0
  4  3  1  0
  5  6  1  0
  5  4  1  0
  7  6  1  0
  8  2  1  0
  8  9  2  0
 11 10  1  6
 11 12  1  0
 13 14  1  1
 13 11  1  0
 14  8  1  0
 15 13  1  0
 16 15  2  0
 17 15  1  0
 18 17  1  0
 19 18  1  0
 19 20  1  0
 21 19  2  0
M  END
$$$$
