KTG.pdb
     RDKit          3D

 21 20  0  0  1  0  0  0  0  0999 V2000
    7.8748  -16.2519   15.7404 N   0  0  0  0  0  0  0  0  0  0  0  0
    7.7260  -16.8897   17.0215 C   0  0  1  0  0  0  0  0  0  0  0  0
    8.0575  -18.3167   16.9472 C   0  0  0  0  0  0  0  0  0  0  0  0
    7.2597  -19.1328   17.9047 C   0  0  0  0  0  0  0  0  0  0  0  0
    5.8799  -19.5183   17.4865 C   0  0  0  0  0  0  0  0  0  0  0  0
    5.2025  -20.3337   18.6180 C   0  0  0  0  0  0  0  0  0  0  0  0
    3.8711  -20.7149   18.2217 N   0  0  0  0  0  0  0  0  0  0  0  0
    8.4606  -16.1119   18.0342 C   0  0  0  0  0  0  0  0  0  0  0  0
    9.6244  -15.7527   17.7304 O   0  0  0  0  0  0  0  0  0  0  0  0
    7.4566  -12.8754   19.7114 C   0  0  0  0  0  0  0  0  0  0  0  0
    7.9094  -13.8139   20.7844 C   0  0  1  0  0  0  0  0  0  0  0  0
    6.7804  -14.2788   21.4612 O   0  0  0  0  0  0  0  0  0  0  0  0
    8.7116  -14.9890   20.2008 C   0  0  2  0  0  0  0  0  0  0  0  0
    7.9193  -15.7615   19.3064 N   0  0  0  0  0  0  0  0  0  0  0  0
    9.3184  -15.7428   21.2989 C   0  0  0  0  0  0  0  0  0  0  0  0
    8.6015  -16.5924   21.8825 O   0  0  0  0  0  0  0  0  0  0  0  0
   10.6516  -15.5994   21.7664 N   0  0  0  0  0  0  0  0  0  0  0  0
   11.1375  -16.3024   22.9352 C   0  0  0  0  0  0  0  0  0  0  0  0
   12.5889  -16.0747   23.1481 C   0  0  0  0  0  0  0  0  0  0  0  0
   13.1418  -16.5050   24.3441 O   0  0  0  0  0  0  0  0  0  0  0  0
   13.3501  -15.5189   22.3188 O   0  0  0  0  0  0  0  0  0  0  0  0
  2  1  1  6
  3  2  1  0
  4  3  1  0
  5  6  1  0
  5  4  1  0
  7  6  1  0
  8  2  1  0
  8  9  2  0
 11 10  1  6
 11 12  1  0
 13 14  1  1
 13 11  1  0
 14  8  1  0
 15 13  1  0
 16 15  2  0
 17 15  1  0
 18 17  1  0
 19 18  1  0
 19 20  1  0
 21 19  2  0
M  END
$$$$
