KTG.pdb
     RDKit          3D

 21 20  0  0  1  0  0  0  0  0999 V2000
    8.1208  -12.6416   17.6455 N   0  0  0  0  0  0  0  0  0  0  0  0
    8.3334  -14.0273   17.9696 C   0  0  1  0  0  0  0  0  0  0  0  0
    9.1505  -14.6929   16.9493 C   0  0  0  0  0  0  0  0  0  0  0  0
    8.3385  -15.1587   15.7903 C   0  0  0  0  0  0  0  0  0  0  0  0
    9.0194  -16.0288   14.7872 C   0  0  0  0  0  0  0  0  0  0  0  0
    7.9964  -16.4849   13.7151 C   0  0  0  0  0  0  0  0  0  0  0  0
    8.6533  -17.2911   12.7183 N   0  0  0  0  0  0  0  0  0  0  0  0
    8.8278  -14.1270   19.3536 C   0  0  0  0  0  0  0  0  0  0  0  0
    9.8189  -13.4152   19.6482 O   0  0  0  0  0  0  0  0  0  0  0  0
    6.9032  -13.6606   22.6357 C   0  0  0  0  0  0  0  0  0  0  0  0
    7.6901  -14.9295   22.7227 C   0  0  1  0  0  0  0  0  0  0  0  0
    6.8081  -16.0004   22.5677 O   0  0  0  0  0  0  0  0  0  0  0  0
    8.7943  -14.9798   21.6536 C   0  0  2  0  0  0  0  0  0  0  0  0
    8.2436  -14.9738   20.3416 N   0  0  0  0  0  0  0  0  0  0  0  0
    9.6876  -16.1021   21.9446 C   0  0  0  0  0  0  0  0  0  0  0  0
    9.7053  -17.0543   21.1264 O   0  0  0  0  0  0  0  0  0  0  0  0
   10.5406  -16.2122   23.0746 N   0  0  0  0  0  0  0  0  0  0  0  0
   11.3325  -17.3973   23.3291 C   0  0  0  0  0  0  0  0  0  0  0  0
   12.2001  -17.2314   24.5222 C   0  0  0  0  0  0  0  0  0  0  0  0
   12.9659  -18.3161   24.9200 O   0  0  0  0  0  0  0  0  0  0  0  0
   12.2878  -16.1756   25.1957 O   0  0  0  0  0  0  0  0  0  0  0  0
  2  1  1  6
  3  2  1  0
  4  3  1  0
  5  6  1  0
  5  4  1  0
  7  6  1  0
  8  2  1  0
  8  9  2  0
 11 10  1  6
 11 12  1  0
 13 14  1  6
 13 11  1  0
 14  8  1  0
 15 13  1  0
 16 15  2  0
 17 15  1  0
 18 17  1  0
 19 18  1  0
 19 20  1  0
 21 19  2  0
M  END
$$$$
