KTG.pdb
     RDKit          3D

 21 20  0  0  1  0  0  0  0  0999 V2000
    4.2457  -18.6746   19.6340 N   0  0  0  0  0  0  0  0  0  0  0  0
    4.2594  -17.5585   20.5419 C   0  0  1  0  0  0  0  0  0  0  0  0
    3.5188  -17.8633   21.7708 C   0  0  0  0  0  0  0  0  0  0  0  0
    2.8870  -19.2119   21.7302 C   0  0  0  0  0  0  0  0  0  0  0  0
    2.0480  -19.6066   22.8996 C   0  0  0  0  0  0  0  0  0  0  0  0
    1.4102  -20.9952   22.6366 C   0  0  0  0  0  0  0  0  0  0  0  0
    0.6718  -21.4260   23.7960 N   0  0  0  0  0  0  0  0  0  0  0  0
    5.6488  -17.1049   20.7254 C   0  0  0  0  0  0  0  0  0  0  0  0
    6.5170  -17.9999   20.8696 O   0  0  0  0  0  0  0  0  0  0  0  0
    7.0038  -12.9524   21.1973 C   0  0  0  0  0  0  0  0  0  0  0  0
    7.7148  -13.9913   20.3898 C   0  0  1  0  0  0  0  0  0  0  0  0
    9.0846  -13.7294   20.4524 O   0  0  0  0  0  0  0  0  0  0  0  0
    7.4113  -15.4080   20.9052 C   0  0  2  0  0  0  0  0  0  0  0  0
    6.0351  -15.7320   20.7452 N   0  0  0  0  0  0  0  0  0  0  0  0
    7.9229  -15.5374   22.2704 C   0  0  0  0  0  0  0  0  0  0  0  0
    7.1093  -15.3669   23.2114 O   0  0  0  0  0  0  0  0  0  0  0  0
    9.2632  -15.8399   22.6290 N   0  0  0  0  0  0  0  0  0  0  0  0
    9.6908  -15.9236   24.0098 C   0  0  0  0  0  0  0  0  0  0  0  0
   11.1670  -16.0338   24.1210 C   0  0  0  0  0  0  0  0  0  0  0  0
   11.7188  -16.0610   25.3922 O   0  0  0  0  0  0  0  0  0  0  0  0
   11.9501  -16.1041   23.1422 O   0  0  0  0  0  0  0  0  0  0  0  0
  2  1  1  6
  3  2  1  0
  4  3  1  0
  5  6  1  0
  5  4  1  0
  7  6  1  0
  8  2  1  0
  8  9  2  0
 11 10  1  1
 11 12  1  0
 13 14  1  1
 13 11  1  0
 14  8  1  0
 15 13  1  0
 16 15  2  0
 17 15  1  0
 18 17  1  0
 19 18  1  0
 19 20  1  0
 21 19  2  0
M  END
$$$$
