KTG.pdb
     RDKit          3D

 21 20  0  0  1  0  0  0  0  0999 V2000
    5.0441  -18.8622   20.4050 N   0  0  0  0  0  0  0  0  0  0  0  0
    5.1302  -17.6483   21.1726 C   0  0  1  0  0  0  0  0  0  0  0  0
    4.6173  -17.8417   22.5332 C   0  0  0  0  0  0  0  0  0  0  0  0
    4.9225  -19.1997   23.0645 C   0  0  0  0  0  0  0  0  0  0  0  0
    6.3307  -19.4683   23.4791 C   0  0  0  0  0  0  0  0  0  0  0  0
    6.4448  -20.9150   24.0252 C   0  0  0  0  0  0  0  0  0  0  0  0
    7.8255  -21.2393   24.2770 N   0  0  0  0  0  0  0  0  0  0  0  0
    6.4987  -17.1122   21.0726 C   0  0  0  0  0  0  0  0  0  0  0  0
    7.4166  -17.9478   20.8863 O   0  0  0  0  0  0  0  0  0  0  0  0
    7.2951  -13.5363   19.3969 C   0  0  0  0  0  0  0  0  0  0  0  0
    8.2138  -13.8242   20.5414 C   0  0  1  0  0  0  0  0  0  0  0  0
    7.8480  -13.0043   21.6104 O   0  0  0  0  0  0  0  0  0  0  0  0
    8.1535  -15.3052   20.9511 C   0  0  2  0  0  0  0  0  0  0  0  0
    6.8125  -15.7247   21.1758 N   0  0  0  0  0  0  0  0  0  0  0  0
    9.0673  -15.5263   22.0728 C   0  0  0  0  0  0  0  0  0  0  0  0
    8.5772  -15.5154   23.2287 O   0  0  0  0  0  0  0  0  0  0  0  0
   10.4654  -15.7532   21.9716 N   0  0  0  0  0  0  0  0  0  0  0  0
   11.2919  -15.9986   23.1348 C   0  0  0  0  0  0  0  0  0  0  0  0
   12.7221  -16.1538   22.7685 C   0  0  0  0  0  0  0  0  0  0  0  0
   13.6301  -16.3794   23.7912 O   0  0  0  0  0  0  0  0  0  0  0  0
   13.1657  -16.0946   21.5956 O   0  0  0  0  0  0  0  0  0  0  0  0
  2  1  1  1
  3  2  1  0
  4  3  1  0
  5  6  1  0
  5  4  1  0
  7  6  1  0
  8  2  1  0
  8  9  2  0
 11 10  1  6
 11 12  1  0
 13 14  1  1
 13 11  1  0
 14  8  1  0
 15 13  1  0
 16 15  2  0
 17 15  1  0
 18 17  1  0
 19 18  1  0
 19 20  1  0
 21 19  2  0
M  END
$$$$
