KTG.pdb
     RDKit          3D

 21 20  0  0  1  0  0  0  0  0999 V2000
    7.4132  -18.4585   17.9023 N   0  0  0  0  0  0  0  0  0  0  0  0
    7.3644  -18.5110   19.3394 C   0  0  1  0  0  0  0  0  0  0  0  0
    7.6107  -19.8710   19.8308 C   0  0  0  0  0  0  0  0  0  0  0  0
    6.3522  -20.5696   20.2150 C   0  0  0  0  0  0  0  0  0  0  0  0
    6.2732  -21.1178   21.6008 C   0  0  0  0  0  0  0  0  0  0  0  0
    5.0100  -22.0065   21.7369 C   0  0  0  0  0  0  0  0  0  0  0  0
    4.8590  -22.4429   23.1014 N   0  0  0  0  0  0  0  0  0  0  0  0
    8.2399  -17.4614   19.8889 C   0  0  0  0  0  0  0  0  0  0  0  0
    9.4249  -17.4457   19.4754 O   0  0  0  0  0  0  0  0  0  0  0  0
    7.5580  -13.5232   20.6747 C   0  0  0  0  0  0  0  0  0  0  0  0
    8.1094  -14.2809   21.8404 C   0  0  1  0  0  0  0  0  0  0  0  0
    7.0636  -14.5319   22.7306 O   0  0  0  0  0  0  0  0  0  0  0  0
    8.7669  -15.5974   21.3942 C   0  0  2  0  0  0  0  0  0  0  0  0
    7.8083  -16.4925   20.8424 N   0  0  0  0  0  0  0  0  0  0  0  0
    9.5509  -16.1384   22.5056 C   0  0  0  0  0  0  0  0  0  0  0  0
    8.9326  -16.7771   23.3922 O   0  0  0  0  0  0  0  0  0  0  0  0
   10.9548  -16.0055   22.6726 N   0  0  0  0  0  0  0  0  0  0  0  0
   11.6455  -16.5309   23.8316 C   0  0  0  0  0  0  0  0  0  0  0  0
   13.1131  -16.3309   23.7327 C   0  0  0  0  0  0  0  0  0  0  0  0
   13.8895  -16.6945   24.8219 O   0  0  0  0  0  0  0  0  0  0  0  0
   13.6994  -15.8548   22.7299 O   0  0  0  0  0  0  0  0  0  0  0  0
  2  1  1  6
  3  2  1  0
  4  3  1  0
  5  6  1  0
  5  4  1  0
  7  6  1  0
  8  2  1  0
  8  9  2  0
 11 10  1  6
 11 12  1  0
 13 14  1  1
 13 11  1  0
 14  8  1  0
 15 13  1  0
 16 15  2  0
 17 15  1  0
 18 17  1  0
 19 18  1  0
 19 20  1  0
 21 19  2  0
M  END
$$$$
