KTG.pdb
     RDKit          3D

 21 20  0  0  1  0  0  0  0  0999 V2000
    6.0539  -20.0525   23.8786 N   0  0  0  0  0  0  0  0  0  0  0  0
    6.7544  -18.9731   24.5223 C   0  0  1  0  0  0  0  0  0  0  0  0
    7.5818  -19.4618   25.6307 C   0  0  0  0  0  0  0  0  0  0  0  0
    6.7624  -19.9879   26.7582 C   0  0  0  0  0  0  0  0  0  0  0  0
    7.4968  -20.5327   27.9377 C   0  0  0  0  0  0  0  0  0  0  0  0
    6.4882  -21.1645   28.9314 C   0  0  0  0  0  0  0  0  0  0  0  0
    7.1951  -21.8063   30.0100 N   0  0  0  0  0  0  0  0  0  0  0  0
    7.4557  -18.1775   23.4999 C   0  0  0  0  0  0  0  0  0  0  0  0
    7.8209  -18.7888   22.4662 O   0  0  0  0  0  0  0  0  0  0  0  0
    6.5529  -15.4871   21.2898 C   0  0  0  0  0  0  0  0  0  0  0  0
    7.7953  -14.9987   21.9642 C   0  0  1  0  0  0  0  0  0  0  0  0
    7.4317  -14.0195   22.8905 O   0  0  0  0  0  0  0  0  0  0  0  0
    8.5459  -16.1473   22.6586 C   0  0  2  0  0  0  0  0  0  0  0  0
    7.7279  -16.7839   23.6335 N   0  0  0  0  0  0  0  0  0  0  0  0
    9.8269  -15.6454   23.1579 C   0  0  0  0  0  0  0  0  0  0  0  0
    9.8226  -15.0454   24.2608 O   0  0  0  0  0  0  0  0  0  0  0  0
   11.0808  -15.7762   22.5043 N   0  0  0  0  0  0  0  0  0  0  0  0
   12.2903  -15.1807   23.0324 C   0  0  0  0  0  0  0  0  0  0  0  0
   13.4693  -15.4910   22.1855 C   0  0  0  0  0  0  0  0  0  0  0  0
   13.2982  -16.3895   21.1441 O   0  0  0  0  0  0  0  0  0  0  0  0
   14.6112  -14.9951   22.3480 O   0  0  0  0  0  0  0  0  0  0  0  0
  2  1  1  6
  3  2  1  0
  4  3  1  0
  5  6  1  0
  5  4  1  0
  7  6  1  0
  8  2  1  0
  8  9  2  0
 11 10  1  1
 11 12  1  0
 13 14  1  1
 13 11  1  0
 14  8  1  0
 15 13  1  0
 16 15  2  0
 17 15  1  0
 18 17  1  0
 19 18  1  0
 19 20  1  0
 21 19  2  0
M  END
$$$$
