KTG.pdb
     RDKit          3D

 21 20  0  0  1  0  0  0  0  0999 V2000
    1.1359  -25.0641   21.9969 N   0  0  0  0  0  0  0  0  0  0  0  0
    1.0703  -23.8852   22.8192 C   0  0  1  0  0  0  0  0  0  0  0  0
    1.1715  -24.2233   24.2430 C   0  0  0  0  0  0  0  0  0  0  0  0
    0.0044  -25.0172   24.7196 C   0  0  0  0  0  0  0  0  0  0  0  0
    0.0206  -25.4647   26.1432 C   0  0  0  0  0  0  0  0  0  0  0  0
   -1.2834  -26.2420   26.4586 C   0  0  0  0  0  0  0  0  0  0  0  0
   -1.2820  -26.6694   27.8342 N   0  0  0  0  0  0  0  0  0  0  0  0
    2.0446  -22.8980   22.3230 C   0  0  0  0  0  0  0  0  0  0  0  0
    3.1644  -23.3426   21.9710 O   0  0  0  0  0  0  0  0  0  0  0  0
    1.9998  -20.8268   19.2895 C   0  0  0  0  0  0  0  0  0  0  0  0
    2.2248  -19.8972   20.4393 C   0  0  1  0  0  0  0  0  0  0  0  0
    1.0124  -19.2730   20.7383 O   0  0  0  0  0  0  0  0  0  0  0  0
    2.7648  -20.6458   21.6692 C   0  0  2  0  0  0  0  0  0  0  0  0
    1.7748  -21.5006   22.2295 N   0  0  0  0  0  0  0  0  0  0  0  0
    3.3439  -19.6762   22.6002 C   0  0  0  0  0  0  0  0  0  0  0  0
    2.5761  -19.1597   23.4488 O   0  0  0  0  0  0  0  0  0  0  0  0
    4.7026  -19.2645   22.6307 N   0  0  0  0  0  0  0  0  0  0  0  0
    5.2143  -18.3725   23.6499 C   0  0  0  0  0  0  0  0  0  0  0  0
    6.6506  -18.0633   23.4374 C   0  0  0  0  0  0  0  0  0  0  0  0
    7.2860  -17.2670   24.3772 O   0  0  0  0  0  0  0  0  0  0  0  0
    7.3293  -18.4739   22.4643 O   0  0  0  0  0  0  0  0  0  0  0  0
  2  1  1  6
  3  2  1  0
  4  3  1  0
  5  6  1  0
  5  4  1  0
  7  6  1  0
  8  2  1  0
  8  9  2  0
 11 10  1  6
 11 12  1  0
 13 14  1  1
 13 11  1  0
 14  8  1  0
 15 13  1  0
 16 15  2  0
 17 15  1  0
 18 17  1  0
 19 18  1  0
 19 20  1  0
 21 19  2  0
M  END
$$$$
