KTG.pdb
     RDKit          3D

 21 20  0  0  1  0  0  0  0  0999 V2000
    4.5283  -19.0129   19.7051 N   0  0  0  0  0  0  0  0  0  0  0  0
    4.4247  -17.8826   20.5893 C   0  0  1  0  0  0  0  0  0  0  0  0
    3.7898  -18.2559   21.8579 C   0  0  0  0  0  0  0  0  0  0  0  0
    2.4839  -18.9437   21.6554 C   0  0  0  0  0  0  0  0  0  0  0  0
    1.7813  -19.4438   22.8734 C   0  0  0  0  0  0  0  0  0  0  0  0
    0.4179  -20.0620   22.4699 C   0  0  0  0  0  0  0  0  0  0  0  0
   -0.2675  -20.5499   23.6392 N   0  0  0  0  0  0  0  0  0  0  0  0
    5.7430  -17.2341   20.6975 C   0  0  0  0  0  0  0  0  0  0  0  0
    6.7444  -17.9903   20.6673 O   0  0  0  0  0  0  0  0  0  0  0  0
    8.6955  -13.2883   20.7346 C   0  0  0  0  0  0  0  0  0  0  0  0
    7.3380  -13.8633   20.4828 C   0  0  1  0  0  0  0  0  0  0  0  0
    7.0882  -13.8054   19.1105 O   0  0  0  0  0  0  0  0  0  0  0  0
    7.2389  -15.3118   20.9894 C   0  0  2  0  0  0  0  0  0  0  0  0
    5.9214  -15.8254   20.8310 N   0  0  0  0  0  0  0  0  0  0  0  0
    7.7686  -15.3766   22.3523 C   0  0  0  0  0  0  0  0  0  0  0  0
    6.9781  -15.1180   23.2928 O   0  0  0  0  0  0  0  0  0  0  0  0
    9.1028  -15.7073   22.7090 N   0  0  0  0  0  0  0  0  0  0  0  0
    9.5331  -15.7892   24.0890 C   0  0  0  0  0  0  0  0  0  0  0  0
   10.9764  -16.1201   24.1947 C   0  0  0  0  0  0  0  0  0  0  0  0
   11.5484  -16.1205   25.4573 O   0  0  0  0  0  0  0  0  0  0  0  0
   11.7146  -16.3998   23.2185 O   0  0  0  0  0  0  0  0  0  0  0  0
  2  1  1  6
  3  2  1  0
  4  3  1  0
  5  6  1  0
  5  4  1  0
  7  6  1  0
  8  2  1  0
  8  9  2  0
 11 10  1  6
 11 12  1  0
 13 14  1  1
 13 11  1  0
 14  8  1  0
 15 13  1  0
 16 15  2  0
 17 15  1  0
 18 17  1  0
 19 18  1  0
 19 20  1  0
 21 19  2  0
M  END
$$$$
