LPN.pdb
     RDKit          3D

 24 24  0  0  1  0  0  0  0  0999 V2000
   22.7978  -22.4607  -13.1616 C   0  0  0  0  0  0  0  0  0  0  0  0
   24.2029  -22.1330  -12.6611 C   0  0  2  0  0  0  0  0  0  0  0  0
   24.9864  -23.4265  -12.6820 C   0  0  0  0  0  0  0  0  0  0  0  0
   24.1076  -21.6616  -11.2473 C   0  0  0  0  0  0  0  0  0  0  0  0
   25.4099  -21.0614  -10.7495 C   0  0  2  0  0  0  0  0  0  0  0  0
   25.0862  -20.3731   -9.4907 N   0  0  0  0  0  0  0  0  0  0  0  0
   25.8869  -20.0751  -11.7532 C   0  0  0  0  0  0  0  0  0  0  0  0
   25.2305  -18.9793  -11.8371 O   0  0  0  0  0  0  0  0  0  0  0  0
   26.9934  -20.2510  -12.6061 N   0  0  0  0  0  0  0  0  0  0  0  0
   27.8565  -21.3901  -12.6297 C   0  0  0  0  0  0  0  0  0  0  0  0
   29.2045  -20.8094  -12.9843 C   0  0  0  0  0  0  0  0  0  0  0  0
   28.9528  -19.4210  -13.4760 C   0  0  0  0  0  0  0  0  0  0  0  0
   27.4297  -19.3360  -13.6129 C   0  0  1  0  0  0  0  0  0  0  0  0
   26.9638  -19.6368  -14.9751 C   0  0  0  0  0  0  0  0  0  0  0  0
   26.8236  -20.8700  -15.2692 O   0  0  0  0  0  0  0  0  0  0  0  0
   22.5965  -16.4431  -16.1888 N   0  0  0  0  0  0  0  0  0  0  0  0
   23.0442  -17.7787  -15.8655 C   0  0  0  0  0  0  0  0  0  0  0  0
   22.1891  -18.7007  -16.0064 O   0  0  0  0  0  0  0  0  0  0  0  0
   24.4296  -18.0067  -15.4011 C   0  0  0  0  0  0  0  0  0  0  0  0
   25.3336  -18.4901  -16.5043 C   0  0  2  0  0  0  0  0  0  0  0  0
   26.6690  -18.6882  -15.9572 N   0  0  0  0  0  0  0  0  0  0  0  0
   25.3584  -17.4112  -17.5416 C   0  0  0  0  0  0  0  0  0  0  0  0
   26.0306  -16.3611  -17.3382 O   0  0  0  0  0  0  0  0  0  0  0  0
   24.6723  -17.4928  -18.7430 O   0  0  0  0  0  0  0  0  0  0  0  0
  2  1  1  1
  3  2  1  0
  4  5  1  0
  4  2  1  0
  5  7  1  0
  5  6  1  1
  7  9  1  0
  7  8  2  0
  9 10  1  0
 10 11  1  0
 12 11  1  0
 13  9  1  0
 13 12  1  0
 14 15  2  0
 13 14  1  6
 16 17  1  0
 17 18  2  0
 17 19  1  0
 20 19  1  1
 20 21  1  0
 20 22  1  0
 21 14  1  0
 22 24  1  0
 23 22  2  0
M  END
$$$$
