LPN.pdb
     RDKit          3D

 24 24  0  0  1  0  0  0  0  0999 V2000
   28.2299  -16.7526  -15.3105 C   0  0  0  0  0  0  0  0  0  0  0  0
   26.8350  -16.4750  -15.8667 C   0  0  2  0  0  0  0  0  0  0  0  0
   26.4412  -15.0952  -15.3885 C   0  0  0  0  0  0  0  0  0  0  0  0
   25.8829  -17.4664  -15.2831 C   0  0  0  0  0  0  0  0  0  0  0  0
   26.2754  -18.8986  -15.5978 C   0  0  2  0  0  0  0  0  0  0  0  0
   26.2314  -19.0205  -17.0628 N   0  0  0  0  0  0  0  0  0  0  0  0
   25.2698  -19.8064  -14.9876 C   0  0  0  0  0  0  0  0  0  0  0  0
   24.2531  -20.1021  -15.7070 O   0  0  0  0  0  0  0  0  0  0  0  0
   25.3508  -20.3611  -13.6959 N   0  0  0  0  0  0  0  0  0  0  0  0
   26.3276  -20.0320  -12.7057 C   0  0  0  0  0  0  0  0  0  0  0  0
   26.5398  -21.3320  -11.9675 C   0  0  0  0  0  0  0  0  0  0  0  0
   25.4167  -22.2341  -12.3645 C   0  0  0  0  0  0  0  0  0  0  0  0
   24.4569  -21.3277  -13.1411 C   0  0  1  0  0  0  0  0  0  0  0  0
   23.3866  -20.7768  -12.2960 C   0  0  0  0  0  0  0  0  0  0  0  0
   23.4663  -21.0199  -11.0464 O   0  0  0  0  0  0  0  0  0  0  0  0
   18.6421  -20.3050  -10.8610 N   0  0  0  0  0  0  0  0  0  0  0  0
   18.9128  -19.1330  -11.6624 C   0  0  0  0  0  0  0  0  0  0  0  0
   18.0932  -18.1765  -11.5424 O   0  0  0  0  0  0  0  0  0  0  0  0
   20.0904  -19.0990  -12.5561 C   0  0  0  0  0  0  0  0  0  0  0  0
   20.9160  -20.3554  -12.4674 C   0  0  2  0  0  0  0  0  0  0  0  0
   22.3046  -20.0198  -12.7518 N   0  0  0  0  0  0  0  0  0  0  0  0
   20.3890  -21.2891  -13.5120 C   0  0  0  0  0  0  0  0  0  0  0  0
   19.4857  -22.1199  -13.2123 O   0  0  0  0  0  0  0  0  0  0  0  0
   20.8412  -21.3009  -14.8220 O   0  0  0  0  0  0  0  0  0  0  0  0
  2  1  1  1
  3  2  1  0
  4  5  1  0
  4  2  1  0
  5  7  1  0
  5  6  1  6
  7  9  1  0
  7  8  2  0
  9 10  1  0
 10 11  1  0
 12 11  1  0
 13  9  1  0
 13 12  1  0
 14 15  2  0
 13 14  1  1
 16 17  1  0
 17 18  2  0
 17 19  1  0
 20 19  1  6
 20 21  1  0
 20 22  1  0
 21 14  1  0
 22 24  1  0
 23 22  2  0
M  END
$$$$
