LPN.pdb
     RDKit          3D

 24 24  0  0  1  0  0  0  0  0999 V2000
   19.7206   -7.8593  -18.1886 C   0  0  0  0  0  0  0  0  0  0  0  0
   18.7449   -8.8565  -17.5675 C   0  0  2  0  0  0  0  0  0  0  0  0
   17.3933   -8.5916  -18.1925 C   0  0  0  0  0  0  0  0  0  0  0  0
   18.6497   -8.5814  -16.1028 C   0  0  0  0  0  0  0  0  0  0  0  0
   19.9585   -8.8429  -15.3797 C   0  0  2  0  0  0  0  0  0  0  0  0
   20.1698  -10.2974  -15.4333 N   0  0  0  0  0  0  0  0  0  0  0  0
   19.8098   -8.4084  -13.9667 C   0  0  0  0  0  0  0  0  0  0  0  0
   19.3065   -9.2606  -13.1547 O   0  0  0  0  0  0  0  0  0  0  0  0
   20.1782   -7.1477  -13.4590 N   0  0  0  0  0  0  0  0  0  0  0  0
   20.6135   -6.0296  -14.2357 C   0  0  0  0  0  0  0  0  0  0  0  0
   21.6154   -5.3410  -13.3402 C   0  0  0  0  0  0  0  0  0  0  0  0
   21.4324   -5.9195  -11.9747 C   0  0  0  0  0  0  0  0  0  0  0  0
   20.1556   -6.7582  -12.0846 C   0  0  1  0  0  0  0  0  0  0  0  0
   18.9540   -6.0221  -11.6632 C   0  0  0  0  0  0  0  0  0  0  0  0
   18.3602   -5.3396  -12.5625 O   0  0  0  0  0  0  0  0  0  0  0  0
   14.5144   -4.8969   -9.1827 N   0  0  0  0  0  0  0  0  0  0  0  0
   15.2947   -5.7734   -8.3391 C   0  0  0  0  0  0  0  0  0  0  0  0
   14.7513   -6.1276   -7.2526 O   0  0  0  0  0  0  0  0  0  0  0  0
   16.6445   -6.2050   -8.7620 C   0  0  0  0  0  0  0  0  0  0  0  0
   17.0646   -5.5821  -10.0671 C   0  0  2  0  0  0  0  0  0  0  0  0
   18.4225   -6.0127  -10.3714 N   0  0  0  0  0  0  0  0  0  0  0  0
   17.0293   -4.0994   -9.8652 C   0  0  0  0  0  0  0  0  0  0  0  0
   18.0692   -3.4939   -9.4804 O   0  0  0  0  0  0  0  0  0  0  0  0
   15.8981   -3.3276  -10.0788 O   0  0  0  0  0  0  0  0  0  0  0  0
  2  1  1  6
  3  2  1  0
  4  5  1  0
  4  2  1  0
  5  7  1  0
  5  6  1  1
  7  9  1  0
  7  8  2  0
  9 10  1  0
 10 11  1  0
 12 11  1  0
 13  9  1  0
 13 12  1  0
 14 15  2  0
 13 14  1  6
 16 17  1  0
 17 18  2  0
 17 19  1  0
 20 19  1  1
 20 21  1  0
 20 22  1  0
 21 14  1  0
 22 24  1  0
 23 22  2  0
M  END
$$$$
