LPN.pdb
     RDKit          3D

 24 24  0  0  1  0  0  0  0  0999 V2000
   22.0478  -23.5522  -13.0442 C   0  0  0  0  0  0  0  0  0  0  0  0
   22.5955  -22.1534  -13.3192 C   0  0  2  0  0  0  0  0  0  0  0  0
   24.0240  -22.3278  -13.7848 C   0  0  0  0  0  0  0  0  0  0  0  0
   22.6068  -21.3853  -12.0387 C   0  0  0  0  0  0  0  0  0  0  0  0
   24.0019  -21.2572  -11.4542 C   0  0  2  0  0  0  0  0  0  0  0  0
   23.8193  -20.9120  -10.0362 N   0  0  0  0  0  0  0  0  0  0  0  0
   24.7051  -20.1512  -12.1541 C   0  0  0  0  0  0  0  0  0  0  0  0
   24.2283  -18.9744  -11.9907 O   0  0  0  0  0  0  0  0  0  0  0  0
   25.8428  -20.2970  -12.9708 N   0  0  0  0  0  0  0  0  0  0  0  0
   26.5934  -21.5001  -13.1498 C   0  0  0  0  0  0  0  0  0  0  0  0
   28.0106  -21.0128  -13.3340 C   0  0  0  0  0  0  0  0  0  0  0  0
   27.9245  -19.5432  -13.5897 C   0  0  0  0  0  0  0  0  0  0  0  0
   26.4285  -19.2774  -13.7823 C   0  0  1  0  0  0  0  0  0  0  0  0
   26.0256  -19.2956  -15.1967 C   0  0  0  0  0  0  0  0  0  0  0  0
   25.1963  -20.2018  -15.5404 O   0  0  0  0  0  0  0  0  0  0  0  0
   23.6777  -16.0201  -18.2696 N   0  0  0  0  0  0  0  0  0  0  0  0
   23.7931  -15.8921  -16.8346 C   0  0  0  0  0  0  0  0  0  0  0  0
   23.0212  -15.0515  -16.2879 O   0  0  0  0  0  0  0  0  0  0  0  0
   24.7701  -16.7160  -16.0906 C   0  0  0  0  0  0  0  0  0  0  0  0
   25.5850  -17.6002  -16.9973 C   0  0  2  0  0  0  0  0  0  0  0  0
   26.4767  -18.4097  -16.1780 N   0  0  0  0  0  0  0  0  0  0  0  0
   26.3822  -16.6908  -17.8794 C   0  0  0  0  0  0  0  0  0  0  0  0
   26.2215  -16.7326  -19.1318 O   0  0  0  0  0  0  0  0  0  0  0  0
   27.3104  -15.7817  -17.3971 O   0  0  0  0  0  0  0  0  0  0  0  0
  2  1  1  1
  3  2  1  0
  4  5  1  0
  4  2  1  0
  5  7  1  0
  5  6  1  1
  7  9  1  0
  7  8  2  0
  9 10  1  0
 10 11  1  0
 12 11  1  0
 13  9  1  0
 13 12  1  0
 14 15  2  0
 13 14  1  6
 16 17  1  0
 17 18  2  0
 17 19  1  0
 20 19  1  1
 20 21  1  0
 20 22  1  0
 21 14  1  0
 22 24  1  0
 23 22  2  0
M  END
$$$$
