LPN.pdb
     RDKit          3D

 24 24  0  0  1  0  0  0  0  0999 V2000
   18.9109  -12.8241  -19.3844 C   0  0  0  0  0  0  0  0  0  0  0  0
   17.7844  -12.0540  -18.6986 C   0  0  2  0  0  0  0  0  0  0  0  0
   17.1132  -11.2193  -19.7665 C   0  0  0  0  0  0  0  0  0  0  0  0
   18.3833  -11.1333  -17.6868 C   0  0  0  0  0  0  0  0  0  0  0  0
   18.7828  -11.8560  -16.4131 C   0  0  2  0  0  0  0  0  0  0  0  0
   17.5442  -12.4280  -15.8637 N   0  0  0  0  0  0  0  0  0  0  0  0
   19.3410  -10.8596  -15.4626 C   0  0  0  0  0  0  0  0  0  0  0  0
   18.5271  -10.3646  -14.6075 O   0  0  0  0  0  0  0  0  0  0  0  0
   20.6803  -10.4263  -15.4300 N   0  0  0  0  0  0  0  0  0  0  0  0
   21.7032  -10.8053  -16.3536 C   0  0  0  0  0  0  0  0  0  0  0  0
   22.9546  -10.8327  -15.5091 C   0  0  0  0  0  0  0  0  0  0  0  0
   22.6201  -10.1339  -14.2314 C   0  0  0  0  0  0  0  0  0  0  0  0
   21.2433   -9.5133  -14.4862 C   0  0  1  0  0  0  0  0  0  0  0  0
   21.3246   -8.1166  -14.9396 C   0  0  0  0  0  0  0  0  0  0  0  0
   21.5585   -7.9337  -16.1801 O   0  0  0  0  0  0  0  0  0  0  0  0
   20.7135   -3.0398  -15.5742 N   0  0  0  0  0  0  0  0  0  0  0  0
   19.7029   -3.6033  -14.7081 C   0  0  0  0  0  0  0  0  0  0  0  0
   18.7053   -2.8642  -14.4641 O   0  0  0  0  0  0  0  0  0  0  0  0
   19.8679   -4.9679  -14.1625 C   0  0  0  0  0  0  0  0  0  0  0  0
   21.1331   -5.6295  -14.6415 C   0  0  2  0  0  0  0  0  0  0  0  0
   21.1687   -6.9916  -14.1263 N   0  0  0  0  0  0  0  0  0  0  0  0
   22.2709   -4.8373  -14.0775 C   0  0  0  0  0  0  0  0  0  0  0  0
   22.5309   -4.9048  -12.8430 O   0  0  0  0  0  0  0  0  0  0  0  0
   23.0790   -4.0119  -14.8435 O   0  0  0  0  0  0  0  0  0  0  0  0
  2  1  1  6
  3  2  1  0
  4  5  1  0
  4  2  1  0
  5  7  1  0
  5  6  1  1
  7  9  1  0
  7  8  2  0
  9 10  1  0
 10 11  1  0
 12 11  1  0
 13  9  1  0
 13 12  1  0
 14 15  2  0
 13 14  1  6
 16 17  1  0
 17 18  2  0
 17 19  1  0
 20 19  1  1
 20 21  1  0
 20 22  1  0
 21 14  1  0
 22 24  1  0
 23 22  2  0
M  END
$$$$
