LPN.pdb
     RDKit          3D

 24 24  0  0  1  0  0  0  0  0999 V2000
   25.3015  -16.3519  -15.5291 C   0  0  0  0  0  0  0  0  0  0  0  0
   26.2892  -17.4250  -15.0760 C   0  0  2  0  0  0  0  0  0  0  0  0
   27.5026  -16.7012  -14.5361 C   0  0  0  0  0  0  0  0  0  0  0  0
   26.7066  -18.2225  -16.2675 C   0  0  0  0  0  0  0  0  0  0  0  0
   27.3376  -19.5484  -15.8829 C   0  0  2  0  0  0  0  0  0  0  0  0
   27.6457  -20.2347  -17.1467 N   0  0  0  0  0  0  0  0  0  0  0  0
   26.3415  -20.3372  -15.1126 C   0  0  0  0  0  0  0  0  0  0  0  0
   25.3987  -20.8831  -15.7849 O   0  0  0  0  0  0  0  0  0  0  0  0
   26.3572  -20.5295  -13.7178 N   0  0  0  0  0  0  0  0  0  0  0  0
   27.2726  -19.9245  -12.8019 C   0  0  0  0  0  0  0  0  0  0  0  0
   27.4600  -20.9777  -11.7363 C   0  0  0  0  0  0  0  0  0  0  0  0
   26.3727  -21.9828  -11.9367 C   0  0  0  0  0  0  0  0  0  0  0  0
   25.4462  -21.3397  -12.9730 C   0  0  1  0  0  0  0  0  0  0  0  0
   24.3232  -20.6150  -12.3591 C   0  0  0  0  0  0  0  0  0  0  0  0
   24.6049  -19.5131  -11.7814 O   0  0  0  0  0  0  0  0  0  0  0  0
   19.8472  -18.5047  -13.6368 N   0  0  0  0  0  0  0  0  0  0  0  0
   20.9523  -18.7758  -14.5280 C   0  0  0  0  0  0  0  0  0  0  0  0
   20.8847  -18.2447  -15.6745 O   0  0  0  0  0  0  0  0  0  0  0  0
   22.0746  -19.6296  -14.0827 C   0  0  0  0  0  0  0  0  0  0  0  0
   21.8744  -20.1609  -12.6879 C   0  0  2  0  0  0  0  0  0  0  0  0
   22.9914  -21.0364  -12.3595 N   0  0  0  0  0  0  0  0  0  0  0  0
   20.5978  -20.9423  -12.7061 C   0  0  0  0  0  0  0  0  0  0  0  0
   20.5403  -22.0349  -13.3377 O   0  0  0  0  0  0  0  0  0  0  0  0
   19.4437  -20.5325  -12.0573 O   0  0  0  0  0  0  0  0  0  0  0  0
  2  1  1  6
  3  2  1  0
  4  5  1  0
  4  2  1  0
  5  7  1  0
  5  6  1  6
  7  9  1  0
  7  8  2  0
  9 10  1  0
 10 11  1  0
 12 11  1  0
 13  9  1  0
 13 12  1  0
 14 15  2  0
 13 14  1  1
 16 17  1  0
 17 18  2  0
 17 19  1  0
 20 19  1  6
 20 21  1  0
 20 22  1  0
 21 14  1  0
 22 24  1  0
 23 22  2  0
M  END
$$$$
