LPN.pdb
     RDKit          3D

 24 24  0  0  1  0  0  0  0  0999 V2000
   21.9055  -13.0458  -20.3250 C   0  0  0  0  0  0  0  0  0  0  0  0
   20.4977  -12.5313  -20.0321 C   0  0  2  0  0  0  0  0  0  0  0  0
   20.0483  -11.7677  -21.2579 C   0  0  0  0  0  0  0  0  0  0  0  0
   20.5671  -11.5804  -18.8828 C   0  0  0  0  0  0  0  0  0  0  0  0
   20.7240  -12.2934  -17.5519 C   0  0  2  0  0  0  0  0  0  0  0  0
   19.5374  -13.1500  -17.4063 N   0  0  0  0  0  0  0  0  0  0  0  0
   20.7432  -11.2735  -16.4716 C   0  0  0  0  0  0  0  0  0  0  0  0
   19.6071  -10.9055  -16.0104 O   0  0  0  0  0  0  0  0  0  0  0  0
   21.9012  -10.6906  -15.9220 N   0  0  0  0  0  0  0  0  0  0  0  0
   23.2385  -10.8959  -16.3829 C   0  0  0  0  0  0  0  0  0  0  0  0
   24.0656  -10.8260  -15.1217 C   0  0  0  0  0  0  0  0  0  0  0  0
   23.1824  -10.2438  -14.0664 C   0  0  0  0  0  0  0  0  0  0  0  0
   21.9393   -9.7733  -14.8274 C   0  0  1  0  0  0  0  0  0  0  0  0
   22.0071   -8.3532  -15.2039 C   0  0  0  0  0  0  0  0  0  0  0  0
   22.6685   -8.0752  -16.2587 O   0  0  0  0  0  0  0  0  0  0  0  0
   18.6479   -3.3348  -15.4939 N   0  0  0  0  0  0  0  0  0  0  0  0
   19.9203   -4.0201  -15.4794 C   0  0  0  0  0  0  0  0  0  0  0  0
   20.8897   -3.4032  -16.0093 O   0  0  0  0  0  0  0  0  0  0  0  0
   20.0351   -5.3625  -14.8699 C   0  0  0  0  0  0  0  0  0  0  0  0
   21.4310   -5.9197  -14.9651 C   0  0  2  0  0  0  0  0  0  0  0  0
   21.4121   -7.3012  -14.5036 N   0  0  0  0  0  0  0  0  0  0  0  0
   22.2869   -5.0881  -14.0616 C   0  0  0  0  0  0  0  0  0  0  0  0
   22.9489   -4.1233  -14.5379 O   0  0  0  0  0  0  0  0  0  0  0  0
   22.4029   -5.3152  -12.6993 O   0  0  0  0  0  0  0  0  0  0  0  0
  2  1  1  6
  3  2  1  0
  4  5  1  0
  4  2  1  0
  5  7  1  0
  5  6  1  1
  7  9  1  0
  7  8  2  0
  9 10  1  0
 10 11  1  0
 12 11  1  0
 13  9  1  0
 13 12  1  0
 14 15  2  0
 13 14  1  6
 16 17  1  0
 17 18  2  0
 17 19  1  0
 20 19  1  1
 20 21  1  0
 20 22  1  0
 21 14  1  0
 22 24  1  0
 23 22  2  0
M  END
$$$$
