LPN.pdb
     RDKit          3D

 24 24  0  0  1  0  0  0  0  0999 V2000
   19.2280  -16.5856  -16.3846 C   0  0  0  0  0  0  0  0  0  0  0  0
   20.7435  -16.5626  -16.1975 C   0  0  2  0  0  0  0  0  0  0  0  0
   21.0489  -15.4244  -15.2494 C   0  0  0  0  0  0  0  0  0  0  0  0
   21.3820  -16.2646  -17.5140 C   0  0  0  0  0  0  0  0  0  0  0  0
   22.7389  -16.9288  -17.6614 C   0  0  2  0  0  0  0  0  0  0  0  0
   23.2366  -16.5477  -18.9920 N   0  0  0  0  0  0  0  0  0  0  0  0
   22.5509  -18.4013  -17.5981 C   0  0  0  0  0  0  0  0  0  0  0  0
   21.9615  -18.9474  -18.5946 O   0  0  0  0  0  0  0  0  0  0  0  0
   22.9687  -19.2311  -16.5400 N   0  0  0  0  0  0  0  0  0  0  0  0
   23.5377  -18.7878  -15.3060 C   0  0  0  0  0  0  0  0  0  0  0  0
   24.5169  -19.8811  -14.9511 C   0  0  0  0  0  0  0  0  0  0  0  0
   24.1936  -21.0434  -15.8327 C   0  0  0  0  0  0  0  0  0  0  0  0
   22.8725  -20.6561  -16.5038 C   0  0  1  0  0  0  0  0  0  0  0  0
   21.6980  -21.1855  -15.7943 C   0  0  0  0  0  0  0  0  0  0  0  0
   21.8920  -22.2079  -15.0566 O   0  0  0  0  0  0  0  0  0  0  0  0
   18.0258  -22.6759  -12.6734 N   0  0  0  0  0  0  0  0  0  0  0  0
   18.4498  -21.2961  -12.7464 C   0  0  0  0  0  0  0  0  0  0  0  0
   17.8037  -20.4776  -12.0297 O   0  0  0  0  0  0  0  0  0  0  0  0
   19.5778  -20.9101  -13.6214 C   0  0  0  0  0  0  0  0  0  0  0  0
   19.2905  -21.1678  -15.0770 C   0  0  2  0  0  0  0  0  0  0  0  0
   20.4049  -20.6620  -15.8671 N   0  0  0  0  0  0  0  0  0  0  0  0
   18.0417  -20.4115  -15.4077 C   0  0  0  0  0  0  0  0  0  0  0  0
   18.1150  -19.1954  -15.7416 O   0  0  0  0  0  0  0  0  0  0  0  0
   16.7762  -20.9754  -15.3697 O   0  0  0  0  0  0  0  0  0  0  0  0
  2  1  1  6
  3  2  1  0
  4  5  1  0
  4  2  1  0
  5  7  1  0
  5  6  1  6
  7  9  1  0
  7  8  2  0
  9 10  1  0
 10 11  1  0
 12 11  1  0
 13  9  1  0
 13 12  1  0
 14 15  2  0
 13 14  1  1
 16 17  1  0
 17 18  2  0
 17 19  1  0
 20 19  1  1
 20 21  1  0
 20 22  1  0
 21 14  1  0
 22 24  1  0
 23 22  2  0
M  END
$$$$
