LPN.pdb
     RDKit          3D

 24 24  0  0  1  0  0  0  0  0999 V2000
   28.1485  -16.3989  -16.1436 C   0  0  0  0  0  0  0  0  0  0  0  0
   26.7090  -16.9077  -16.1778 C   0  0  2  0  0  0  0  0  0  0  0  0
   25.8145  -15.6964  -16.0353 C   0  0  0  0  0  0  0  0  0  0  0  0
   26.4897  -17.7977  -14.9990 C   0  0  0  0  0  0  0  0  0  0  0  0
   26.9291  -19.2262  -15.2640 C   0  0  2  0  0  0  0  0  0  0  0  0
   27.0668  -19.3459  -16.7235 N   0  0  0  0  0  0  0  0  0  0  0  0
   25.8633  -20.1429  -14.7830 C   0  0  0  0  0  0  0  0  0  0  0  0
   25.1588  -20.7239  -15.6802 O   0  0  0  0  0  0  0  0  0  0  0  0
   25.5749  -20.4195  -13.4328 N   0  0  0  0  0  0  0  0  0  0  0  0
   26.2230  -19.8306  -12.3031 C   0  0  0  0  0  0  0  0  0  0  0  0
   26.2262  -20.9375  -11.2761 C   0  0  0  0  0  0  0  0  0  0  0  0
   25.2729  -21.9771  -11.7692 C   0  0  0  0  0  0  0  0  0  0  0  0
   24.5683  -21.3146  -12.9569 C   0  0  1  0  0  0  0  0  0  0  0  0
   23.2953  -20.6810  -12.5811 C   0  0  0  0  0  0  0  0  0  0  0  0
   23.3740  -19.5587  -11.9800 O   0  0  0  0  0  0  0  0  0  0  0  0
   19.9249  -17.4776  -14.5307 N   0  0  0  0  0  0  0  0  0  0  0  0
   20.1702  -18.8155  -15.0191 C   0  0  0  0  0  0  0  0  0  0  0  0
   19.3823  -19.2323  -15.9172 O   0  0  0  0  0  0  0  0  0  0  0  0
   21.2884  -19.6136  -14.4718 C   0  0  0  0  0  0  0  0  0  0  0  0
   20.8903  -20.3986  -13.2498 C   0  0  2  0  0  0  0  0  0  0  0  0
   22.0254  -21.2081  -12.8276 N   0  0  0  0  0  0  0  0  0  0  0  0
   19.7537  -21.2822  -13.6597 C   0  0  0  0  0  0  0  0  0  0  0  0
   19.9812  -22.3205  -14.3424 O   0  0  0  0  0  0  0  0  0  0  0  0
   18.4321  -21.0269  -13.3294 O   0  0  0  0  0  0  0  0  0  0  0  0
  2  1  1  1
  3  2  1  0
  4  5  1  0
  4  2  1  0
  5  7  1  0
  5  6  1  6
  7  9  1  0
  7  8  2  0
  9 10  1  0
 10 11  1  0
 12 11  1  0
 13  9  1  0
 13 12  1  0
 14 15  2  0
 13 14  1  1
 16 17  1  0
 17 18  2  0
 17 19  1  0
 20 19  1  6
 20 21  1  0
 20 22  1  0
 21 14  1  0
 22 24  1  0
 23 22  2  0
M  END
$$$$
