LPN.pdb
     RDKit          3D

 24 24  0  0  1  0  0  0  0  0999 V2000
   28.0420  -17.0732  -14.8531 C   0  0  0  0  0  0  0  0  0  0  0  0
   27.7935  -18.1417  -15.9156 C   0  0  2  0  0  0  0  0  0  0  0  0
   27.1241  -17.4498  -17.0821 C   0  0  0  0  0  0  0  0  0  0  0  0
   26.8468  -19.1546  -15.3610 C   0  0  0  0  0  0  0  0  0  0  0  0
   27.5573  -20.2351  -14.5662 C   0  0  2  0  0  0  0  0  0  0  0  0
   28.3354  -21.0133  -15.5420 N   0  0  0  0  0  0  0  0  0  0  0  0
   26.5319  -21.1043  -13.9333 C   0  0  0  0  0  0  0  0  0  0  0  0
   26.3038  -22.2287  -14.5012 O   0  0  0  0  0  0  0  0  0  0  0  0
   25.8034  -20.7903  -12.7700 N   0  0  0  0  0  0  0  0  0  0  0  0
   25.9856  -19.6273  -11.9593 C   0  0  0  0  0  0  0  0  0  0  0  0
   25.6838  -20.1148  -10.5624 C   0  0  0  0  0  0  0  0  0  0  0  0
   25.0156  -21.4429  -10.7113 C   0  0  0  0  0  0  0  0  0  0  0  0
   24.7392  -21.5638  -12.2129 C   0  0  1  0  0  0  0  0  0  0  0  0
   23.3857  -21.1200  -12.5791 C   0  0  0  0  0  0  0  0  0  0  0  0
   23.2122  -19.8619  -12.6985 O   0  0  0  0  0  0  0  0  0  0  0  0
   18.8839  -21.0658  -15.1505 N   0  0  0  0  0  0  0  0  0  0  0  0
   19.2909  -22.4419  -14.9779 C   0  0  0  0  0  0  0  0  0  0  0  0
   18.5671  -23.3107  -15.5457 O   0  0  0  0  0  0  0  0  0  0  0  0
   20.4900  -22.7678  -14.1762 C   0  0  0  0  0  0  0  0  0  0  0  0
   21.1042  -21.5492  -13.5392 C   0  0  2  0  0  0  0  0  0  0  0  0
   22.2914  -21.9593  -12.8014 N   0  0  0  0  0  0  0  0  0  0  0  0
   20.0805  -20.9958  -12.5978 C   0  0  0  0  0  0  0  0  0  0  0  0
   20.0681  -21.3732  -11.3923 O   0  0  0  0  0  0  0  0  0  0  0  0
   19.1193  -20.0711  -12.9745 O   0  0  0  0  0  0  0  0  0  0  0  0
  2  1  1  1
  3  2  1  0
  4  5  1  0
  4  2  1  0
  5  7  1  0
  5  6  1  6
  7  9  1  0
  7  8  2  0
  9 10  1  0
 10 11  1  0
 12 11  1  0
 13  9  1  0
 13 12  1  0
 14 15  2  0
 13 14  1  1
 16 17  1  0
 17 18  2  0
 17 19  1  0
 20 19  1  1
 20 21  1  0
 20 22  1  0
 21 14  1  0
 22 24  1  0
 23 22  2  0
M  END
$$$$
