LPN.pdb
     RDKit          3D

 24 24  0  0  1  0  0  0  0  0999 V2000
   13.4662  -10.4056  -16.6504 C   0  0  0  0  0  0  0  0  0  0  0  0
   13.1674  -11.3513  -15.4891 C   0  0  2  0  0  0  0  0  0  0  0  0
   11.7355  -11.0951  -15.0749 C   0  0  0  0  0  0  0  0  0  0  0  0
   14.0600  -10.9985  -14.3451 C   0  0  0  0  0  0  0  0  0  0  0  0
   15.5169  -11.3152  -14.6302 C   0  0  2  0  0  0  0  0  0  0  0  0
   15.6264  -12.7817  -14.6109 N   0  0  0  0  0  0  0  0  0  0  0  0
   16.3458  -10.7351  -13.5420 C   0  0  0  0  0  0  0  0  0  0  0  0
   16.6733  -11.5237  -12.5883 O   0  0  0  0  0  0  0  0  0  0  0  0
   16.7946   -9.4018  -13.4823 N   0  0  0  0  0  0  0  0  0  0  0  0
   16.5005   -8.3784  -14.4357 C   0  0  0  0  0  0  0  0  0  0  0  0
   17.7491   -7.5294  -14.4450 C   0  0  0  0  0  0  0  0  0  0  0  0
   18.5426   -7.9279  -13.2432 C   0  0  0  0  0  0  0  0  0  0  0  0
   17.5982   -8.8333  -12.4468 C   0  0  1  0  0  0  0  0  0  0  0  0
   16.8551   -8.1052  -11.4073 C   0  0  0  0  0  0  0  0  0  0  0  0
   16.0483   -7.2033  -11.8108 O   0  0  0  0  0  0  0  0  0  0  0  0
   14.7885   -6.0427   -7.1980 N   0  0  0  0  0  0  0  0  0  0  0  0
   15.7543   -5.3913   -8.0535 C   0  0  0  0  0  0  0  0  0  0  0  0
   15.8394   -4.1340   -7.9387 O   0  0  0  0  0  0  0  0  0  0  0  0
   16.5730   -6.1882   -8.9924 C   0  0  0  0  0  0  0  0  0  0  0  0
   16.1473   -7.6318   -9.0438 C   0  0  2  0  0  0  0  0  0  0  0  0
   16.9652   -8.3223  -10.0317 N   0  0  0  0  0  0  0  0  0  0  0  0
   14.7121   -7.6404   -9.4689 C   0  0  0  0  0  0  0  0  0  0  0  0
   14.3750   -7.0808  -10.5503 O   0  0  0  0  0  0  0  0  0  0  0  0
   13.7022   -8.2388   -8.7321 O   0  0  0  0  0  0  0  0  0  0  0  0
  2  1  1  6
  3  2  1  0
  4  5  1  0
  4  2  1  0
  5  7  1  0
  5  6  1  1
  7  9  1  0
  7  8  2  0
  9 10  1  0
 10 11  1  0
 12 11  1  0
 13  9  1  0
 13 12  1  0
 14 15  2  0
 13 14  1  1
 16 17  1  0
 17 18  2  0
 17 19  1  0
 20 19  1  6
 20 21  1  0
 20 22  1  0
 21 14  1  0
 22 24  1  0
 23 22  2  0
M  END
$$$$
