LPN.pdb
     RDKit          3D

 24 24  0  0  1  0  0  0  0  0999 V2000
   20.4376  -13.1102  -20.0273 C   0  0  0  0  0  0  0  0  0  0  0  0
   19.2982  -12.1767  -19.6242 C   0  0  2  0  0  0  0  0  0  0  0  0
   19.0087  -11.2991  -20.8215 C   0  0  0  0  0  0  0  0  0  0  0  0
   19.7673  -11.3076  -18.5042 C   0  0  0  0  0  0  0  0  0  0  0  0
   19.8644  -12.0610  -17.1900 C   0  0  2  0  0  0  0  0  0  0  0  0
   18.5168  -12.5852  -16.9206 N   0  0  0  0  0  0  0  0  0  0  0  0
   20.2521  -11.1003  -16.1249 C   0  0  0  0  0  0  0  0  0  0  0  0
   19.2969  -10.5410  -15.4819 O   0  0  0  0  0  0  0  0  0  0  0  0
   21.5733  -10.7648  -15.7721 N   0  0  0  0  0  0  0  0  0  0  0  0
   22.7574  -11.2781  -16.3863 C   0  0  0  0  0  0  0  0  0  0  0  0
   23.7505  -11.3407  -15.2506 C   0  0  0  0  0  0  0  0  0  0  0  0
   23.1696  -10.5358  -14.1337 C   0  0  0  0  0  0  0  0  0  0  0  0
   21.9600   -9.8346  -14.7590 C   0  0  1  0  0  0  0  0  0  0  0  0
   22.2741   -8.4808  -15.2404 C   0  0  0  0  0  0  0  0  0  0  0  0
   22.4860   -8.3569  -16.4921 O   0  0  0  0  0  0  0  0  0  0  0  0
   20.9780   -3.5422  -15.7154 N   0  0  0  0  0  0  0  0  0  0  0  0
   20.0681   -4.6650  -15.7018 C   0  0  0  0  0  0  0  0  0  0  0  0
   18.8910   -4.4311  -16.1029 O   0  0  0  0  0  0  0  0  0  0  0  0
   20.5299   -5.9910  -15.2378 C   0  0  0  0  0  0  0  0  0  0  0  0
   21.9998   -6.0056  -14.9105 C   0  0  2  0  0  0  0  0  0  0  0  0
   22.3582   -7.3375  -14.4422 N   0  0  0  0  0  0  0  0  0  0  0  0
   22.2052   -5.0043  -13.8169 C   0  0  0  0  0  0  0  0  0  0  0  0
   21.7363   -5.2282  -12.6655 O   0  0  0  0  0  0  0  0  0  0  0  0
   22.8952   -3.8151  -13.9918 O   0  0  0  0  0  0  0  0  0  0  0  0
  2  1  1  6
  3  2  1  0
  4  5  1  0
  4  2  1  0
  5  7  1  0
  5  6  1  1
  7  9  1  0
  7  8  2  0
  9 10  1  0
 10 11  1  0
 12 11  1  0
 13  9  1  0
 13 12  1  0
 14 15  2  0
 13 14  1  6
 16 17  1  0
 17 18  2  0
 17 19  1  0
 20 19  1  1
 20 21  1  0
 20 22  1  0
 21 14  1  0
 22 24  1  0
 23 22  2  0
M  END
$$$$
