LPN.pdb
     RDKit          3D

 24 24  0  0  1  0  0  0  0  0999 V2000
   18.1013  -13.9617  -14.6826 C   0  0  0  0  0  0  0  0  0  0  0  0
   18.3976  -12.9838  -15.8176 C   0  0  2  0  0  0  0  0  0  0  0  0
   19.7518  -13.3607  -16.3760 C   0  0  0  0  0  0  0  0  0  0  0  0
   18.4885  -11.6062  -15.2484 C   0  0  0  0  0  0  0  0  0  0  0  0
   17.1253  -11.0285  -14.9137 C   0  0  2  0  0  0  0  0  0  0  0  0
   16.3671  -11.0168  -16.1740 N   0  0  0  0  0  0  0  0  0  0  0  0
   17.3111   -9.6373  -14.4261 C   0  0  0  0  0  0  0  0  0  0  0  0
   17.3389   -8.7170  -15.3156 O   0  0  0  0  0  0  0  0  0  0  0  0
   17.4544   -9.2590  -13.0774 N   0  0  0  0  0  0  0  0  0  0  0  0
   17.5021  -10.1502  -11.9609 C   0  0  0  0  0  0  0  0  0  0  0  0
   16.8327   -9.3717  -10.8538 C   0  0  0  0  0  0  0  0  0  0  0  0
   16.7531   -7.9542  -11.3195 C   0  0  0  0  0  0  0  0  0  0  0  0
   17.6040   -7.9235  -12.5926 C   0  0  1  0  0  0  0  0  0  0  0  0
   18.9901   -7.5018  -12.3397 C   0  0  0  0  0  0  0  0  0  0  0  0
   19.7765   -8.3869  -11.8649 O   0  0  0  0  0  0  0  0  0  0  0  0
   23.2278   -5.5435  -14.4662 N   0  0  0  0  0  0  0  0  0  0  0  0
   22.2204   -6.3334  -15.1370 C   0  0  0  0  0  0  0  0  0  0  0  0
   22.5144   -6.7376  -16.2995 O   0  0  0  0  0  0  0  0  0  0  0  0
   20.9361   -6.6269  -14.4652 C   0  0  0  0  0  0  0  0  0  0  0  0
   20.8367   -5.9817  -13.1080 C   0  0  2  0  0  0  0  0  0  0  0  0
   19.5028   -6.2239  -12.5752 N   0  0  0  0  0  0  0  0  0  0  0  0
   21.0485   -4.5144  -13.3146 C   0  0  0  0  0  0  0  0  0  0  0  0
   20.1012   -3.7988  -13.7464 O   0  0  0  0  0  0  0  0  0  0  0  0
   22.2499   -3.8736  -13.0558 O   0  0  0  0  0  0  0  0  0  0  0  0
  2  1  1  1
  3  2  1  0
  4  5  1  0
  4  2  1  0
  5  7  1  0
  5  6  1  6
  7  9  1  0
  7  8  2  0
  9 10  1  0
 10 11  1  0
 12 11  1  0
 13  9  1  0
 13 12  1  0
 14 15  2  0
 13 14  1  1
 16 17  1  0
 17 18  2  0
 17 19  1  0
 20 19  1  6
 20 21  1  0
 20 22  1  0
 21 14  1  0
 22 24  1  0
 23 22  2  0
M  END
$$$$
