LPN.pdb
     RDKit          3D

 24 24  0  0  1  0  0  0  0  0999 V2000
   16.4874   -9.4057  -18.5038 C   0  0  0  0  0  0  0  0  0  0  0  0
   17.2237  -10.6835  -18.1072 C   0  0  2  0  0  0  0  0  0  0  0  0
   16.2499  -11.8251  -18.2970 C   0  0  0  0  0  0  0  0  0  0  0  0
   17.5770  -10.6002  -16.6587 C   0  0  0  0  0  0  0  0  0  0  0  0
   19.0764  -10.6448  -16.4263 C   0  0  2  0  0  0  0  0  0  0  0  0
   19.4455  -12.0685  -16.4198 N   0  0  0  0  0  0  0  0  0  0  0  0
   19.3642  -10.0449  -15.0978 C   0  0  0  0  0  0  0  0  0  0  0  0
   19.2185  -10.8082  -14.0804 O   0  0  0  0  0  0  0  0  0  0  0  0
   19.7823   -8.7188  -14.8760 N   0  0  0  0  0  0  0  0  0  0  0  0
   20.0207   -7.7382  -15.8883 C   0  0  0  0  0  0  0  0  0  0  0  0
   21.1543   -6.9137  -15.3269 C   0  0  0  0  0  0  0  0  0  0  0  0
   21.2598   -7.2670  -13.8789 C   0  0  0  0  0  0  0  0  0  0  0  0
   20.0146   -8.1148  -13.6023 C   0  0  1  0  0  0  0  0  0  0  0  0
   18.8942   -7.3230  -13.0722 C   0  0  0  0  0  0  0  0  0  0  0  0
   18.0879   -6.8326  -13.9304 O   0  0  0  0  0  0  0  0  0  0  0  0
   15.2096   -5.3200   -9.9796 N   0  0  0  0  0  0  0  0  0  0  0  0
   16.1623   -6.0107   -9.1404 C   0  0  0  0  0  0  0  0  0  0  0  0
   15.9142   -6.0079   -7.8996 O   0  0  0  0  0  0  0  0  0  0  0  0
   17.3432   -6.6677   -9.7410 C   0  0  0  0  0  0  0  0  0  0  0  0
   17.4268   -6.4513  -11.2289 C   0  0  2  0  0  0  0  0  0  0  0  0
   18.6507   -7.0698  -11.7202 N   0  0  0  0  0  0  0  0  0  0  0  0
   17.4773   -4.9709  -11.4445 C   0  0  0  0  0  0  0  0  0  0  0  0
   18.5938   -4.3815  -11.4893 O   0  0  0  0  0  0  0  0  0  0  0  0
   16.3471   -4.1843  -11.6019 O   0  0  0  0  0  0  0  0  0  0  0  0
  2  1  1  1
  3  2  1  0
  4  5  1  0
  4  2  1  0
  5  7  1  0
  5  6  1  1
  7  9  1  0
  7  8  2  0
  9 10  1  0
 10 11  1  0
 12 11  1  0
 13  9  1  0
 13 12  1  0
 14 15  2  0
 13 14  1  6
 16 17  1  0
 17 18  2  0
 17 19  1  0
 20 19  1  1
 20 21  1  0
 20 22  1  0
 21 14  1  0
 22 24  1  0
 23 22  2  0
M  END
$$$$
