ILT.pdb
     RDKit          3D

 24 23  0  0  1  0  0  0  0  0999 V2000
    6.9145  -12.2967   19.1664 C   0  0  0  0  0  0  0  0  0  0  0  0
    6.9946  -13.6482   19.7965 C   0  0  0  0  0  0  0  0  0  0  0  0
    8.3185  -13.8588   20.5357 C   0  0  2  0  0  0  0  0  0  0  0  0
    9.4709  -13.7905   19.5960 C   0  0  0  0  0  0  0  0  0  0  0  0
    8.2298  -15.1417   21.3393 C   0  0  2  0  0  0  0  0  0  0  0  0
    6.8517  -15.6513   21.1505 N   0  0  0  0  0  0  0  0  0  0  0  0
    8.5315  -14.9855   22.7627 C   0  0  0  0  0  0  0  0  0  0  0  0
    9.7394  -14.7103   23.0902 O   0  0  0  0  0  0  0  0  0  0  0  0
    8.1533  -12.1963   26.2621 C   0  0  0  0  0  0  0  0  0  0  0  0
    6.8709  -12.9392   25.8425 C   0  0  2  0  0  0  0  0  0  0  0  0
    5.7574  -12.3915   26.7049 C   0  0  0  0  0  0  0  0  0  0  0  0
    7.1043  -14.3790   26.1223 C   0  0  0  0  0  0  0  0  0  0  0  0
    8.0565  -15.0950   25.2370 C   0  0  2  0  0  0  0  0  0  0  0  0
    7.6356  -15.1018   23.8428 N   0  0  0  0  0  0  0  0  0  0  0  0
    8.4164  -16.4373   25.6702 C   0  0  0  0  0  0  0  0  0  0  0  0
    7.5558  -17.3096   26.0414 O   0  0  0  0  0  0  0  0  0  0  0  0
   11.8293  -19.9806   25.5025 C   0  0  0  0  0  0  0  0  0  0  0  0
   11.3214  -18.5988   25.1981 C   0  0  1  0  0  0  0  0  0  0  0  0
   10.8601  -18.5046   23.8908 O   0  0  0  0  0  0  0  0  0  0  0  0
   10.1164  -18.2430   26.0948 C   0  0  2  0  0  0  0  0  0  0  0  0
    9.7653  -16.8984   25.7139 N   0  0  0  0  0  0  0  0  0  0  0  0
   10.5917  -18.2466   27.4880 C   0  0  0  0  0  0  0  0  0  0  0  0
   10.5507  -19.4094   28.2316 O   0  0  0  0  0  0  0  0  0  0  0  0
   11.0459  -17.2115   28.0514 O   0  0  0  0  0  0  0  0  0  0  0  0
  1  2  1  0
  3  2  1  0
  3  4  1  6
  5  6  1  1
  5  3  1  0
  7  5  1  0
  8  7  2  0
 10 11  1  1
 10  9  1  0
 12 10  1  0
 13 12  1  1
 13 14  1  0
 14  7  1  0
 15 13  1  0
 16 15  2  0
 18 17  1  1
 18 19  1  0
 20 18  1  0
 20 21  1  6
 21 15  1  0
 22 23  1  0
 22 20  1  0
 24 22  2  0
M  END
$$$$
