ILT.pdb
     RDKit          3D

 24 23  0  0  1  0  0  0  0  0999 V2000
    4.7009  -20.8813   22.2163 C   0  0  0  0  0  0  0  0  0  0  0  0
    5.5061  -20.4213   23.3868 C   0  0  0  0  0  0  0  0  0  0  0  0
    6.1438  -19.0515   23.1416 C   0  0  2  0  0  0  0  0  0  0  0  0
    6.8529  -19.0197   21.8332 C   0  0  0  0  0  0  0  0  0  0  0  0
    7.0031  -18.6922   24.3383 C   0  0  2  0  0  0  0  0  0  0  0  0
    6.1004  -18.7074   25.5128 N   0  0  0  0  0  0  0  0  0  0  0  0
    7.6840  -17.4016   24.2277 C   0  0  0  0  0  0  0  0  0  0  0  0
    8.6717  -17.3153   23.4159 O   0  0  0  0  0  0  0  0  0  0  0  0
    5.4970  -13.0013   26.4045 C   0  0  0  0  0  0  0  0  0  0  0  0
    7.0054  -13.2818   26.2687 C   0  0  2  0  0  0  0  0  0  0  0  0
    7.7081  -11.9638   26.4977 C   0  0  0  0  0  0  0  0  0  0  0  0
    7.2227  -13.7693   24.8828 C   0  0  0  0  0  0  0  0  0  0  0  0
    8.0917  -14.9605   24.7125 C   0  0  2  0  0  0  0  0  0  0  0  0
    7.3791  -16.2137   24.9196 N   0  0  0  0  0  0  0  0  0  0  0  0
    9.3280  -14.9411   25.4807 C   0  0  0  0  0  0  0  0  0  0  0  0
   10.2651  -14.0917   25.2813 O   0  0  0  0  0  0  0  0  0  0  0  0
   10.3268  -13.8100   28.5731 C   0  0  0  0  0  0  0  0  0  0  0  0
   10.4943  -15.3024   28.6403 C   0  0  1  0  0  0  0  0  0  0  0  0
    9.3145  -15.9284   29.0235 O   0  0  0  0  0  0  0  0  0  0  0  0
   10.8454  -15.8821   27.2534 C   0  0  2  0  0  0  0  0  0  0  0  0
    9.5999  -15.8691   26.5290 N   0  0  0  0  0  0  0  0  0  0  0  0
   11.2759  -17.2750   27.4577 C   0  0  0  0  0  0  0  0  0  0  0  0
   12.4249  -17.5478   28.1732 O   0  0  0  0  0  0  0  0  0  0  0  0
   10.6297  -18.2580   26.9979 O   0  0  0  0  0  0  0  0  0  0  0  0
  1  2  1  0
  3  2  1  0
  3  4  1  6
  5  6  1  1
  5  3  1  0
  7  5  1  0
  8  7  2  0
 10 11  1  6
 10  9  1  0
 12 10  1  0
 13 12  1  1
 13 14  1  0
 14  7  1  0
 15 13  1  0
 16 15  2  0
 18 17  1  6
 18 19  1  0
 20 18  1  0
 20 21  1  6
 21 15  1  0
 22 23  1  0
 22 20  1  0
 24 22  2  0
M  END
$$$$
