ILT.pdb
     RDKit          3D

 24 23  0  0  1  0  0  0  0  0999 V2000
    7.4747  -18.4067   18.8243 C   0  0  0  0  0  0  0  0  0  0  0  0
    7.5529  -17.0196   19.3722 C   0  0  0  0  0  0  0  0  0  0  0  0
    7.9139  -17.0101   20.8598 C   0  0  2  0  0  0  0  0  0  0  0  0
    7.0882  -17.9914   21.6154 C   0  0  0  0  0  0  0  0  0  0  0  0
    7.8337  -15.5850   21.3721 C   0  0  2  0  0  0  0  0  0  0  0  0
    8.7335  -14.7858   20.5083 N   0  0  0  0  0  0  0  0  0  0  0  0
    8.1971  -15.4279   22.7809 C   0  0  0  0  0  0  0  0  0  0  0  0
    9.4288  -15.5793   23.1002 O   0  0  0  0  0  0  0  0  0  0  0  0
    8.2767  -12.0686   25.8553 C   0  0  0  0  0  0  0  0  0  0  0  0
    6.8952  -12.6949   25.5876 C   0  0  2  0  0  0  0  0  0  0  0  0
    5.9012  -11.9053   26.4074 C   0  0  0  0  0  0  0  0  0  0  0  0
    6.9713  -14.1035   26.0520 C   0  0  0  0  0  0  0  0  0  0  0  0
    7.7848  -15.0415   25.2387 C   0  0  2  0  0  0  0  0  0  0  0  0
    7.3389  -15.1219   23.8546 N   0  0  0  0  0  0  0  0  0  0  0  0
    7.9452  -16.3734   25.8036 C   0  0  0  0  0  0  0  0  0  0  0  0
    6.9589  -17.1382   26.0895 O   0  0  0  0  0  0  0  0  0  0  0  0
    9.2066  -19.3972   24.5208 C   0  0  0  0  0  0  0  0  0  0  0  0
   10.1026  -19.1002   25.6908 C   0  0  1  0  0  0  0  0  0  0  0  0
   11.2231  -18.3770   25.3007 O   0  0  0  0  0  0  0  0  0  0  0  0
    9.3779  -18.2214   26.7326 C   0  0  2  0  0  0  0  0  0  0  0  0
    9.2218  -16.9442   26.0841 N   0  0  0  0  0  0  0  0  0  0  0  0
   10.2812  -18.0752   27.8857 C   0  0  0  0  0  0  0  0  0  0  0  0
   10.4569  -19.1243   28.7663 O   0  0  0  0  0  0  0  0  0  0  0  0
   10.9191  -17.0096   28.1158 O   0  0  0  0  0  0  0  0  0  0  0  0
  1  2  1  0
  3  2  1  0
  3  4  1  1
  5  6  1  6
  5  3  1  0
  7  5  1  0
  8  7  2  0
 10 11  1  1
 10  9  1  0
 12 10  1  0
 13 12  1  1
 13 14  1  0
 14  7  1  0
 15 13  1  0
 16 15  2  0
 18 17  1  6
 18 19  1  0
 20 18  1  0
 20 21  1  6
 21 15  1  0
 22 23  1  0
 22 20  1  0
 24 22  2  0
M  END
$$$$
