ILT.pdb
     RDKit          3D

 24 23  0  0  1  0  0  0  0  0999 V2000
    7.3208  -22.0252   25.8799 C   0  0  0  0  0  0  0  0  0  0  0  0
    6.5752  -20.9558   25.1516 C   0  0  0  0  0  0  0  0  0  0  0  0
    7.4144  -19.6872   24.9792 C   0  0  2  0  0  0  0  0  0  0  0  0
    8.0838  -19.3130   26.2550 C   0  0  0  0  0  0  0  0  0  0  0  0
    6.5413  -18.6026   24.3784 C   0  0  2  0  0  0  0  0  0  0  0  0
    6.0524  -19.1365   23.0860 N   0  0  0  0  0  0  0  0  0  0  0  0
    7.2185  -17.3201   24.1837 C   0  0  0  0  0  0  0  0  0  0  0  0
    8.0236  -17.2146   23.1924 O   0  0  0  0  0  0  0  0  0  0  0  0
    5.4816  -13.0308   26.6460 C   0  0  0  0  0  0  0  0  0  0  0  0
    6.9638  -13.0985   26.2327 C   0  0  2  0  0  0  0  0  0  0  0  0
    7.4631  -11.6727   26.1950 C   0  0  0  0  0  0  0  0  0  0  0  0
    6.9993  -13.7128   24.8810 C   0  0  0  0  0  0  0  0  0  0  0  0
    7.8299  -14.9313   24.7127 C   0  0  2  0  0  0  0  0  0  0  0  0
    7.0902  -16.1592   24.9702 N   0  0  0  0  0  0  0  0  0  0  0  0
    9.0892  -14.9290   25.4429 C   0  0  0  0  0  0  0  0  0  0  0  0
   10.0215  -14.0772   25.2319 O   0  0  0  0  0  0  0  0  0  0  0  0
   10.0346  -13.8049   28.4902 C   0  0  0  0  0  0  0  0  0  0  0  0
   10.2698  -15.2873   28.5750 C   0  0  1  0  0  0  0  0  0  0  0  0
    9.1229  -15.9605   28.9775 O   0  0  0  0  0  0  0  0  0  0  0  0
   10.6341  -15.8689   27.1923 C   0  0  2  0  0  0  0  0  0  0  0  0
    9.3910  -15.8781   26.4638 N   0  0  0  0  0  0  0  0  0  0  0  0
   11.0845  -17.2541   27.4054 C   0  0  0  0  0  0  0  0  0  0  0  0
   10.3229  -18.3095   26.9443 O   0  0  0  0  0  0  0  0  0  0  0  0
   12.1607  -17.5318   28.0055 O   0  0  0  0  0  0  0  0  0  0  0  0
  1  2  1  0
  3  2  1  0
  3  4  1  1
  5  6  1  6
  5  3  1  0
  7  5  1  0
  8  7  2  0
 10 11  1  6
 10  9  1  0
 12 10  1  0
 13 12  1  1
 13 14  1  0
 14  7  1  0
 15 13  1  0
 16 15  2  0
 18 17  1  6
 18 19  1  0
 20 18  1  0
 20 21  1  6
 21 15  1  0
 22 23  1  0
 22 20  1  0
 24 22  2  0
M  END
$$$$
