ILT.pdb
     RDKit          3D

 24 23  0  0  1  0  0  0  0  0999 V2000
    7.3750  -17.3326   18.3379 C   0  0  0  0  0  0  0  0  0  0  0  0
    7.3506  -16.0111   19.0330 C   0  0  0  0  0  0  0  0  0  0  0  0
    7.8801  -16.1070   20.4661 C   0  0  2  0  0  0  0  0  0  0  0  0
    7.2793  -17.2667   21.1803 C   0  0  0  0  0  0  0  0  0  0  0  0
    7.6816  -14.7682   21.1500 C   0  0  2  0  0  0  0  0  0  0  0  0
    8.3946  -13.7712   20.3180 N   0  0  0  0  0  0  0  0  0  0  0  0
    8.1565  -14.7198   22.5333 C   0  0  0  0  0  0  0  0  0  0  0  0
    9.4227  -14.7005   22.7296 O   0  0  0  0  0  0  0  0  0  0  0  0
    7.8739  -11.6819   25.8942 C   0  0  0  0  0  0  0  0  0  0  0  0
    6.6744  -12.6184   25.6559 C   0  0  2  0  0  0  0  0  0  0  0  0
    5.5677  -12.1358   26.5647 C   0  0  0  0  0  0  0  0  0  0  0  0
    7.1203  -13.9832   26.0354 C   0  0  0  0  0  0  0  0  0  0  0  0
    7.9384  -14.7278   25.0458 C   0  0  2  0  0  0  0  0  0  0  0  0
    7.3741  -14.6900   23.7037 N   0  0  0  0  0  0  0  0  0  0  0  0
    8.2754  -16.0931   25.4217 C   0  0  0  0  0  0  0  0  0  0  0  0
    7.4027  -17.0206   25.5540 O   0  0  0  0  0  0  0  0  0  0  0  0
   10.3635  -18.4519   23.6797 C   0  0  0  0  0  0  0  0  0  0  0  0
   10.9801  -18.3391   25.0461 C   0  0  1  0  0  0  0  0  0  0  0  0
   11.9994  -17.3950   25.0662 O   0  0  0  0  0  0  0  0  0  0  0  0
    9.9423  -17.8581   26.0826 C   0  0  2  0  0  0  0  0  0  0  0  0
    9.6142  -16.5166   25.6717 N   0  0  0  0  0  0  0  0  0  0  0  0
   10.6172  -17.8160   27.3902 C   0  0  0  0  0  0  0  0  0  0  0  0
   10.9461  -18.9897   28.0389 O   0  0  0  0  0  0  0  0  0  0  0  0
   10.9170  -16.7310   27.9631 O   0  0  0  0  0  0  0  0  0  0  0  0
  1  2  1  0
  3  2  1  0
  3  4  1  1
  5  6  1  6
  5  3  1  0
  7  5  1  0
  8  7  2  0
 10 11  1  1
 10  9  1  0
 12 10  1  0
 13 12  1  1
 13 14  1  0
 14  7  1  0
 15 13  1  0
 16 15  2  0
 18 17  1  6
 18 19  1  0
 20 18  1  0
 20 21  1  6
 21 15  1  0
 22 23  1  0
 22 20  1  0
 24 22  2  0
M  END
$$$$
