ILT.pdb
     RDKit          3D

 24 23  0  0  1  0  0  0  0  0999 V2000
    7.9950  -18.5397   18.7815 C   0  0  0  0  0  0  0  0  0  0  0  0
    7.8583  -17.1607   19.3380 C   0  0  0  0  0  0  0  0  0  0  0  0
    8.2654  -17.0942   20.8122 C   0  0  2  0  0  0  0  0  0  0  0  0
    7.5595  -18.1354   21.6080 C   0  0  0  0  0  0  0  0  0  0  0  0
    8.0701  -15.6747   21.3086 C   0  0  2  0  0  0  0  0  0  0  0  0
    8.8724  -14.8108   20.4117 N   0  0  0  0  0  0  0  0  0  0  0  0
    8.4530  -15.4648   22.7053 C   0  0  0  0  0  0  0  0  0  0  0  0
    9.6982  -15.5341   22.9999 O   0  0  0  0  0  0  0  0  0  0  0  0
    8.2936  -12.1103   25.9756 C   0  0  0  0  0  0  0  0  0  0  0  0
    6.9898  -12.8475   25.6161 C   0  0  2  0  0  0  0  0  0  0  0  0
    5.8920  -12.1935   26.4227 C   0  0  0  0  0  0  0  0  0  0  0  0
    7.1785  -14.2640   26.0206 C   0  0  0  0  0  0  0  0  0  0  0  0
    8.0627  -15.0991   25.1699 C   0  0  2  0  0  0  0  0  0  0  0  0
    7.6008  -15.1879   23.7915 N   0  0  0  0  0  0  0  0  0  0  0  0
    8.3604  -16.4229   25.6969 C   0  0  0  0  0  0  0  0  0  0  0  0
    7.4784  -17.3421   25.8251 O   0  0  0  0  0  0  0  0  0  0  0  0
   11.7187  -19.8975   26.3287 C   0  0  0  0  0  0  0  0  0  0  0  0
   11.1775  -18.6002   25.7958 C   0  0  1  0  0  0  0  0  0  0  0  0
   10.7148  -18.7407   24.4932 O   0  0  0  0  0  0  0  0  0  0  0  0
    9.9636  -18.1265   26.6233 C   0  0  2  0  0  0  0  0  0  0  0  0
    9.6679  -16.8117   26.1134 N   0  0  0  0  0  0  0  0  0  0  0  0
   10.4043  -18.0183   28.0237 C   0  0  0  0  0  0  0  0  0  0  0  0
   10.4806  -19.1468   28.8157 O   0  0  0  0  0  0  0  0  0  0  0  0
   10.7232  -16.9154   28.5503 O   0  0  0  0  0  0  0  0  0  0  0  0
  1  2  1  0
  3  2  1  0
  3  4  1  1
  5  6  1  6
  5  3  1  0
  7  5  1  0
  8  7  2  0
 10 11  1  1
 10  9  1  0
 12 10  1  0
 13 12  1  1
 13 14  1  0
 14  7  1  0
 15 13  1  0
 16 15  2  0
 18 17  1  1
 18 19  1  0
 20 18  1  0
 20 21  1  6
 21 15  1  0
 22 23  1  0
 22 20  1  0
 24 22  2  0
M  END
$$$$
