ILT.pdb
     RDKit          3D

 24 23  0  0  1  0  0  0  0  0999 V2000
    7.2108  -12.2035   18.8238 C   0  0  0  0  0  0  0  0  0  0  0  0
    7.4535  -13.5163   19.4930 C   0  0  0  0  0  0  0  0  0  0  0  0
    8.1418  -13.3497   20.8501 C   0  0  2  0  0  0  0  0  0  0  0  0
    9.3768  -12.5283   20.7246 C   0  0  0  0  0  0  0  0  0  0  0  0
    8.3510  -14.7211   21.4626 C   0  0  2  0  0  0  0  0  0  0  0  0
    7.0768  -15.4536   21.2770 N   0  0  0  0  0  0  0  0  0  0  0  0
    8.7331  -14.7003   22.8750 C   0  0  0  0  0  0  0  0  0  0  0  0
    9.8991  -14.2594   23.1717 O   0  0  0  0  0  0  0  0  0  0  0  0
    8.0558  -12.0382   26.2681 C   0  0  0  0  0  0  0  0  0  0  0  0
    6.8871  -12.9663   25.8871 C   0  0  2  0  0  0  0  0  0  0  0  0
    5.7128  -12.5488   26.7418 C   0  0  0  0  0  0  0  0  0  0  0  0
    7.3202  -14.3490   26.2132 C   0  0  0  0  0  0  0  0  0  0  0  0
    8.3773  -14.9464   25.3596 C   0  0  2  0  0  0  0  0  0  0  0  0
    7.9576  -15.1142   23.9751 N   0  0  0  0  0  0  0  0  0  0  0  0
    8.9645  -16.1768   25.8697 C   0  0  0  0  0  0  0  0  0  0  0  0
    9.0310  -16.4585   27.1169 O   0  0  0  0  0  0  0  0  0  0  0  0
    8.4178  -19.7400   24.2077 C   0  0  0  0  0  0  0  0  0  0  0  0
    9.8771  -19.4277   24.3891 C   0  0  1  0  0  0  0  0  0  0  0  0
   10.4162  -18.8438   23.2492 O   0  0  0  0  0  0  0  0  0  0  0  0
   10.0858  -18.4025   25.5242 C   0  0  2  0  0  0  0  0  0  0  0  0
    9.5147  -17.1801   25.0184 N   0  0  0  0  0  0  0  0  0  0  0  0
   11.5376  -18.2283   25.6947 C   0  0  0  0  0  0  0  0  0  0  0  0
   12.2895  -19.2202   26.2924 O   0  0  0  0  0  0  0  0  0  0  0  0
   12.1446  -17.1888   25.3121 O   0  0  0  0  0  0  0  0  0  0  0  0
  1  2  1  0
  3  2  1  0
  3  4  1  6
  5  6  1  1
  5  3  1  0
  7  5  1  0
  8  7  2  0
 10 11  1  1
 10  9  1  0
 12 10  1  0
 13 12  1  1
 13 14  1  0
 14  7  1  0
 15 13  1  0
 16 15  2  0
 18 17  1  6
 18 19  1  0
 20 18  1  0
 20 21  1  6
 21 15  1  0
 22 23  1  0
 22 20  1  0
 24 22  2  0
M  END
$$$$
