ILT.pdb
     RDKit          3D

 24 23  0  0  1  0  0  0  0  0999 V2000
    6.2330  -17.2931   19.3589 C   0  0  0  0  0  0  0  0  0  0  0  0
    7.7197  -17.1818   19.4458 C   0  0  0  0  0  0  0  0  0  0  0  0
    8.2019  -17.0581   20.8934 C   0  0  2  0  0  0  0  0  0  0  0  0
    7.6374  -18.1458   21.7385 C   0  0  0  0  0  0  0  0  0  0  0  0
    7.9094  -15.6543   21.3867 C   0  0  2  0  0  0  0  0  0  0  0  0
    8.5945  -14.7367   20.4470 N   0  0  0  0  0  0  0  0  0  0  0  0
    8.3353  -15.3961   22.7626 C   0  0  0  0  0  0  0  0  0  0  0  0
    9.5862  -15.4833   23.0267 O   0  0  0  0  0  0  0  0  0  0  0  0
    8.0158  -11.8976   25.6549 C   0  0  0  0  0  0  0  0  0  0  0  0
    6.7646  -12.7914   25.5659 C   0  0  2  0  0  0  0  0  0  0  0  0
    5.7148  -12.1463   26.4408 C   0  0  0  0  0  0  0  0  0  0  0  0
    7.1563  -14.1227   26.0949 C   0  0  0  0  0  0  0  0  0  0  0  0
    8.0107  -14.9713   25.2273 C   0  0  2  0  0  0  0  0  0  0  0  0
    7.5199  -15.0540   23.8585 N   0  0  0  0  0  0  0  0  0  0  0  0
    8.2992  -16.2992   25.7492 C   0  0  0  0  0  0  0  0  0  0  0  0
    7.3928  -17.1706   25.9910 O   0  0  0  0  0  0  0  0  0  0  0  0
   10.3803  -18.9527   24.3218 C   0  0  0  0  0  0  0  0  0  0  0  0
   10.9628  -18.6584   25.6760 C   0  0  1  0  0  0  0  0  0  0  0  0
   11.9888  -17.7249   25.5947 O   0  0  0  0  0  0  0  0  0  0  0  0
    9.9029  -18.0364   26.6101 C   0  0  2  0  0  0  0  0  0  0  0  0
    9.6235  -16.7459   26.0332 N   0  0  0  0  0  0  0  0  0  0  0  0
   10.5336  -17.8550   27.9278 C   0  0  0  0  0  0  0  0  0  0  0  0
   10.7884  -18.9488   28.7311 O   0  0  0  0  0  0  0  0  0  0  0  0
   10.8605  -16.7185   28.3716 O   0  0  0  0  0  0  0  0  0  0  0  0
  1  2  1  0
  3  2  1  0
  3  4  1  1
  5  6  1  6
  5  3  1  0
  7  5  1  0
  8  7  2  0
 10 11  1  1
 10  9  1  0
 12 10  1  0
 13 12  1  1
 13 14  1  0
 14  7  1  0
 15 13  1  0
 16 15  2  0
 18 17  1  6
 18 19  1  0
 20 18  1  0
 20 21  1  6
 21 15  1  0
 22 23  1  0
 22 20  1  0
 24 22  2  0
M  END
$$$$
