ILT.pdb
     RDKit          3D

 24 23  0  0  1  0  0  0  0  0999 V2000
    7.4975  -21.7574   27.2437 C   0  0  0  0  0  0  0  0  0  0  0  0
    6.4946  -20.7024   26.9101 C   0  0  0  0  0  0  0  0  0  0  0  0
    7.0636  -19.6525   25.9524 C   0  0  2  0  0  0  0  0  0  0  0  0
    8.3897  -19.1654   26.4216 C   0  0  0  0  0  0  0  0  0  0  0  0
    6.0252  -18.5668   25.7459 C   0  0  2  0  0  0  0  0  0  0  0  0
    4.8439  -19.2347   25.1518 N   0  0  0  0  0  0  0  0  0  0  0  0
    6.4700  -17.4578   24.9011 C   0  0  0  0  0  0  0  0  0  0  0  0
    6.3220  -17.5761   23.6338 O   0  0  0  0  0  0  0  0  0  0  0  0
    5.9354  -13.0366   25.7097 C   0  0  0  0  0  0  0  0  0  0  0  0
    7.2533  -13.6276   26.2447 C   0  0  2  0  0  0  0  0  0  0  0  0
    7.9371  -12.5213   27.0143 C   0  0  0  0  0  0  0  0  0  0  0  0
    8.0522  -14.0252   25.0576 C   0  0  0  0  0  0  0  0  0  0  0  0
    7.7067  -15.3154   24.4103 C   0  0  2  0  0  0  0  0  0  0  0  0
    7.0536  -16.2467   25.3199 N   0  0  0  0  0  0  0  0  0  0  0  0
    8.8008  -15.9687   23.7066 C   0  0  0  0  0  0  0  0  0  0  0  0
    8.6357  -16.6677   22.6467 O   0  0  0  0  0  0  0  0  0  0  0  0
    9.9740  -16.2975   21.4176 C   0  0  0  0  0  0  0  0  0  0  0  0
   11.3093  -16.2134   22.1031 C   0  0  1  0  0  0  0  0  0  0  0  0
   11.7688  -14.9033   22.1595 O   0  0  0  0  0  0  0  0  0  0  0  0
   11.2086  -16.6860   23.5692 C   0  0  2  0  0  0  0  0  0  0  0  0
   10.1573  -15.8814   24.1382 N   0  0  0  0  0  0  0  0  0  0  0  0
   12.4846  -16.3549   24.2242 C   0  0  0  0  0  0  0  0  0  0  0  0
   13.6275  -17.0657   23.9154 O   0  0  0  0  0  0  0  0  0  0  0  0
   12.5879  -15.4294   25.0775 O   0  0  0  0  0  0  0  0  0  0  0  0
  1  2  1  0
  3  2  1  0
  3  4  1  1
  5  6  1  6
  5  3  1  0
  7  5  1  0
  8  7  2  0
 10 11  1  6
 10  9  1  0
 12 10  1  0
 13 12  1  1
 13 14  1  0
 14  7  1  0
 15 13  1  0
 16 15  2  0
 18 17  1  1
 18 19  1  0
 20 18  1  0
 20 21  1  1
 21 15  1  0
 22 23  1  0
 22 20  1  0
 24 22  2  0
M  END
$$$$
