ILT.pdb
     RDKit          3D

 24 23  0  0  1  0  0  0  0  0999 V2000
    8.0588  -19.1730   18.6949 C   0  0  0  0  0  0  0  0  0  0  0  0
    8.3378  -17.7353   18.9872 C   0  0  0  0  0  0  0  0  0  0  0  0
    8.3751  -17.4527   20.4913 C   0  0  2  0  0  0  0  0  0  0  0  0
    7.1583  -17.9841   21.1642 C   0  0  0  0  0  0  0  0  0  0  0  0
    8.6222  -15.9716   20.7033 C   0  0  2  0  0  0  0  0  0  0  0  0
    9.8678  -15.6526   19.9675 N   0  0  0  0  0  0  0  0  0  0  0  0
    8.7354  -15.5725   22.1066 C   0  0  0  0  0  0  0  0  0  0  0  0
    9.8402  -15.8146   22.7089 O   0  0  0  0  0  0  0  0  0  0  0  0
    5.8353  -12.3095   26.4909 C   0  0  0  0  0  0  0  0  0  0  0  0
    7.0624  -13.1981   26.2132 C   0  0  2  0  0  0  0  0  0  0  0  0
    8.2787  -12.3589   26.5290 C   0  0  0  0  0  0  0  0  0  0  0  0
    7.0146  -13.5479   24.7706 C   0  0  0  0  0  0  0  0  0  0  0  0
    7.9561  -14.5924   24.2957 C   0  0  2  0  0  0  0  0  0  0  0  0
    7.7561  -14.9386   22.8952 N   0  0  0  0  0  0  0  0  0  0  0  0
    8.0159  -15.7929   25.1167 C   0  0  0  0  0  0  0  0  0  0  0  0
    6.9803  -16.4687   25.4487 O   0  0  0  0  0  0  0  0  0  0  0  0
    9.1566  -18.9841   24.4255 C   0  0  0  0  0  0  0  0  0  0  0  0
   10.0198  -18.5526   25.5782 C   0  0  1  0  0  0  0  0  0  0  0  0
   11.1859  -17.9393   25.1367 O   0  0  0  0  0  0  0  0  0  0  0  0
    9.2964  -17.5020   26.4473 C   0  0  2  0  0  0  0  0  0  0  0  0
    9.2403  -16.3234   25.6202 N   0  0  0  0  0  0  0  0  0  0  0  0
   10.1516  -17.2371   27.6158 C   0  0  0  0  0  0  0  0  0  0  0  0
   10.8475  -16.0482   27.7105 O   0  0  0  0  0  0  0  0  0  0  0  0
   10.2844  -18.0656   28.5599 O   0  0  0  0  0  0  0  0  0  0  0  0
  1  2  1  0
  3  2  1  0
  3  4  1  6
  5  6  1  6
  5  3  1  0
  7  5  1  0
  8  7  2  0
 10 11  1  6
 10  9  1  0
 12 10  1  0
 13 12  1  1
 13 14  1  0
 14  7  1  0
 15 13  1  0
 16 15  2  0
 18 17  1  6
 18 19  1  0
 20 18  1  0
 20 21  1  6
 21 15  1  0
 22 23  1  0
 22 20  1  0
 24 22  2  0
M  END
$$$$
