ILT.pdb
     RDKit          3D

 24 23  0  0  1  0  0  0  0  0999 V2000
    6.9347  -12.1240   28.4896 C   0  0  0  0  0  0  0  0  0  0  0  0
    6.2672  -13.1333   27.6144 C   0  0  0  0  0  0  0  0  0  0  0  0
    7.2179  -13.6879   26.5504 C   0  0  2  0  0  0  0  0  0  0  0  0
    7.9214  -12.5867   25.8375 C   0  0  0  0  0  0  0  0  0  0  0  0
    6.4455  -14.6343   25.6518 C   0  0  2  0  0  0  0  0  0  0  0  0
    6.1937  -15.8524   26.4565 N   0  0  0  0  0  0  0  0  0  0  0  0
    7.1278  -14.9733   24.4024 C   0  0  0  0  0  0  0  0  0  0  0  0
    7.6608  -16.1349   24.3094 O   0  0  0  0  0  0  0  0  0  0  0  0
    8.4695  -12.6855   18.7870 C   0  0  0  0  0  0  0  0  0  0  0  0
    8.5527  -13.9394   19.6777 C   0  0  2  0  0  0  0  0  0  0  0  0
    7.8084  -15.0332   18.9474 C   0  0  0  0  0  0  0  0  0  0  0  0
    7.8791  -13.5966   20.9562 C   0  0  0  0  0  0  0  0  0  0  0  0
    7.9682  -14.5894   22.0558 C   0  0  2  0  0  0  0  0  0  0  0  0
    7.2730  -14.1606   23.2617 N   0  0  0  0  0  0  0  0  0  0  0  0
    9.3142  -15.0429   22.3742 C   0  0  0  0  0  0  0  0  0  0  0  0
   10.1685  -14.3222   22.9989 O   0  0  0  0  0  0  0  0  0  0  0  0
   10.6867  -18.0125   24.3742 C   0  0  0  0  0  0  0  0  0  0  0  0
   11.0296  -18.1411   22.9162 C   0  0  1  0  0  0  0  0  0  0  0  0
   10.0284  -18.8032   22.2163 O   0  0  0  0  0  0  0  0  0  0  0  0
   11.1564  -16.7525   22.2539 C   0  0  2  0  0  0  0  0  0  0  0  0
    9.7968  -16.3371   22.0190 N   0  0  0  0  0  0  0  0  0  0  0  0
   11.8374  -16.9442   20.9630 C   0  0  0  0  0  0  0  0  0  0  0  0
   13.2145  -17.0326   20.9119 O   0  0  0  0  0  0  0  0  0  0  0  0
   11.2079  -17.0329   19.8716 O   0  0  0  0  0  0  0  0  0  0  0  0
  1  2  1  0
  3  2  1  0
  3  4  1  6
  5  6  1  1
  5  3  1  0
  7  5  1  0
  8  7  2  0
 10 11  1  6
 10  9  1  0
 12 10  1  0
 13 12  1  6
 13 14  1  0
 14  7  1  0
 15 13  1  0
 16 15  2  0
 18 17  1  1
 18 19  1  0
 20 18  1  0
 20 21  1  6
 21 15  1  0
 22 23  1  0
 22 20  1  0
 24 22  2  0
M  END
$$$$
