EDC.pdb
     RDKit          3D

 24 23  0  0  1  0  0  0  0  0999 V2000
   18.4776  -12.8211  -15.9136 N   0  0  0  0  0  0  0  0  0  0  0  0
   17.5789  -11.6632  -15.6684 C   0  0  1  0  0  0  0  0  0  0  0  0
   16.2692  -12.2084  -15.2027 C   0  0  0  0  0  0  0  0  0  0  0  0
   15.9839  -13.6330  -15.4560 C   0  0  0  0  0  0  0  0  0  0  0  0
   14.6629  -14.1093  -15.0001 C   0  0  0  0  0  0  0  0  0  0  0  0
   14.3292  -15.3033  -15.1864 O   0  0  0  0  0  0  0  0  0  0  0  0
   18.2792  -10.8153  -14.6950 C   0  0  0  0  0  0  0  0  0  0  0  0
   19.1113  -11.3061  -13.9076 O   0  0  0  0  0  0  0  0  0  0  0  0
   13.7822  -13.2627  -14.3689 O   0  0  0  0  0  0  0  0  0  0  0  0
   18.0291   -9.4306  -14.6305 N   0  0  0  0  0  0  0  0  0  0  0  0
   18.6798   -8.5802  -13.5616 C   0  0  1  0  0  0  0  0  0  0  0  0
   19.3765   -7.5271  -14.3968 C   0  0  0  0  0  0  0  0  0  0  0  0
   20.0223   -6.4336  -13.7282 C   0  0  0  0  0  0  0  0  0  0  0  0
   20.8753   -6.5440  -12.8439 O   0  0  0  0  0  0  0  0  0  0  0  0
   17.5706   -8.0382  -12.7496 C   0  0  0  0  0  0  0  0  0  0  0  0
   16.5568   -7.5556  -13.3644 O   0  0  0  0  0  0  0  0  0  0  0  0
   19.6912   -5.0978  -14.0720 O   0  0  0  0  0  0  0  0  0  0  0  0
   17.4946   -7.9934  -11.3439 N   0  0  0  0  0  0  0  0  0  0  0  0
   16.3762   -7.3429  -10.6688 C   0  0  1  0  0  0  0  0  0  0  0  0
   16.2985   -7.7073   -9.2044 C   0  0  0  0  0  0  0  0  0  0  0  0
   14.8682   -6.9817   -8.3838 S   0  0  0  0  0  0  0  0  0  0  0  0
   16.5277   -5.8600  -10.7546 C   0  0  0  0  0  0  0  0  0  0  0  0
   17.7311   -5.2773  -11.1100 O   0  0  0  0  0  0  0  0  0  0  0  0
   15.5608   -5.1085  -10.5045 O   0  0  0  0  0  0  0  0  0  0  0  0
  2  1  1  1
  2  3  1  0
  3  4  1  0
  4  5  1  0
  5  9  1  0
  5  6  2  0
  7  2  1  0
  8  7  2  0
 10  7  1  0
 11 10  1  0
 12 13  1  0
 11 12  1  6
 13 17  1  0
 14 13  2  0
 15 11  1  0
 15 18  1  0
 16 15  2  0
 19 18  1  0
 19 20  1  1
 19 22  1  0
 20 21  1  0
 22 23  1  0
 24 22  2  0
M  END
$$$$
