EDC.pdb
     RDKit          3D

 24 23  0  0  1  0  0  0  0  0999 V2000
   15.0331   -8.2321   -8.2853 N   0  0  0  0  0  0  0  0  0  0  0  0
   15.2888   -7.3657   -9.4653 C   0  0  1  0  0  0  0  0  0  0  0  0
   15.5275   -5.9822   -8.9571 C   0  0  0  0  0  0  0  0  0  0  0  0
   14.3773   -5.2384   -8.4103 C   0  0  0  0  0  0  0  0  0  0  0  0
   14.6331   -3.8224   -8.0794 C   0  0  0  0  0  0  0  0  0  0  0  0
   13.7034   -3.1035   -7.6429 O   0  0  0  0  0  0  0  0  0  0  0  0
   16.4268   -7.9740  -10.1664 C   0  0  0  0  0  0  0  0  0  0  0  0
   17.4303   -8.3579   -9.5350 O   0  0  0  0  0  0  0  0  0  0  0  0
   15.8819   -3.2701   -8.2410 O   0  0  0  0  0  0  0  0  0  0  0  0
   16.4097   -8.1394  -11.5651 N   0  0  0  0  0  0  0  0  0  0  0  0
   17.6000   -8.7357  -12.2840 C   0  0  1  0  0  0  0  0  0  0  0  0
   16.9215   -9.5780  -13.3434 C   0  0  0  0  0  0  0  0  0  0  0  0
   17.7371  -10.3556  -14.2321 C   0  0  0  0  0  0  0  0  0  0  0  0
   17.3125  -11.1110  -15.1101 O   0  0  0  0  0  0  0  0  0  0  0  0
   18.3467   -7.5895  -12.8428 C   0  0  0  0  0  0  0  0  0  0  0  0
   17.6899   -6.5306  -13.1359 O   0  0  0  0  0  0  0  0  0  0  0  0
   19.1508  -10.2891  -14.1373 O   0  0  0  0  0  0  0  0  0  0  0  0
   19.7313   -7.5226  -13.0925 N   0  0  0  0  0  0  0  0  0  0  0  0
   20.3319   -6.3412  -13.7033 C   0  0  1  0  0  0  0  0  0  0  0  0
   20.7737   -5.3250  -12.6760 C   0  0  0  0  0  0  0  0  0  0  0  0
   21.8187   -4.0368  -13.3791 S   0  0  0  0  0  0  0  0  0  0  0  0
   21.5377   -6.7370  -14.4900 C   0  0  0  0  0  0  0  0  0  0  0  0
   22.0630   -8.0144  -14.4110 O   0  0  0  0  0  0  0  0  0  0  0  0
   22.1017   -5.9140  -15.2428 O   0  0  0  0  0  0  0  0  0  0  0  0
  2  1  1  1
  2  3  1  0
  3  4  1  0
  4  5  1  0
  5  9  1  0
  5  6  2  0
  7  2  1  0
  8  7  2  0
 10  7  1  0
 11 10  1  0
 12 13  1  0
 11 12  1  6
 13 17  1  0
 14 13  2  0
 15 11  1  0
 15 18  1  0
 16 15  2  0
 19 18  1  0
 19 20  1  1
 19 22  1  0
 20 21  1  0
 22 23  1  0
 24 22  2  0
M  END
$$$$
