EDC.pdb
     RDKit          3D

 24 23  0  0  1  0  0  0  0  0999 V2000
   14.5166  -11.8559  -16.6371 N   0  0  0  0  0  0  0  0  0  0  0  0
   15.4296  -11.4590  -15.5338 C   0  0  1  0  0  0  0  0  0  0  0  0
   16.4027  -12.5748  -15.3396 C   0  0  0  0  0  0  0  0  0  0  0  0
   15.9212  -13.8064  -14.6867 C   0  0  0  0  0  0  0  0  0  0  0  0
   16.8979  -14.9110  -14.6104 C   0  0  0  0  0  0  0  0  0  0  0  0
   16.5221  -16.0567  -14.2673 O   0  0  0  0  0  0  0  0  0  0  0  0
   16.0246  -10.1824  -15.9496 C   0  0  0  0  0  0  0  0  0  0  0  0
   16.2492   -9.9481  -17.1528 O   0  0  0  0  0  0  0  0  0  0  0  0
   18.2243  -14.7077  -14.9110 O   0  0  0  0  0  0  0  0  0  0  0  0
   16.3522   -9.1944  -15.0005 N   0  0  0  0  0  0  0  0  0  0  0  0
   16.9820   -7.8891  -15.4348 C   0  0  1  0  0  0  0  0  0  0  0  0
   15.9933   -6.8809  -14.8888 C   0  0  0  0  0  0  0  0  0  0  0  0
   16.2716   -5.4829  -15.0559 C   0  0  0  0  0  0  0  0  0  0  0  0
   17.2517   -5.0175  -15.6430 O   0  0  0  0  0  0  0  0  0  0  0  0
   18.2975   -7.8355  -14.7639 C   0  0  0  0  0  0  0  0  0  0  0  0
   18.3204   -7.8677  -13.4844 O   0  0  0  0  0  0  0  0  0  0  0  0
   15.3824   -4.5147  -14.5231 O   0  0  0  0  0  0  0  0  0  0  0  0
   19.5602   -7.7556  -15.3828 N   0  0  0  0  0  0  0  0  0  0  0  0
   20.7758   -7.5715  -14.5967 C   0  0  1  0  0  0  0  0  0  0  0  0
   21.9707   -8.2574  -15.2172 C   0  0  0  0  0  0  0  0  0  0  0  0
   21.7436  -10.0375  -15.3763 S   0  0  0  0  0  0  0  0  0  0  0  0
   21.0964   -6.1167  -14.4954 C   0  0  0  0  0  0  0  0  0  0  0  0
   20.3826   -5.1696  -15.2078 O   0  0  0  0  0  0  0  0  0  0  0  0
   22.0250   -5.7220  -13.7578 O   0  0  0  0  0  0  0  0  0  0  0  0
  2  1  1  6
  2  3  1  0
  3  4  1  0
  4  5  1  0
  5  9  1  0
  5  6  2  0
  7  2  1  0
  8  7  2  0
 10  7  1  0
 11 10  1  0
 12 13  1  0
 11 12  1  1
 13 17  1  0
 14 13  2  0
 15 11  1  0
 15 18  1  0
 16 15  2  0
 19 18  1  0
 19 20  1  6
 19 22  1  0
 20 21  1  0
 22 23  1  0
 24 22  2  0
M  END
$$$$
