EDC.pdb
     RDKit          3D

 24 23  0  0  1  0  0  0  0  0999 V2000
   15.3130  -13.6065  -12.7671 N   0  0  0  0  0  0  0  0  0  0  0  0
   14.5930  -12.3314  -12.5136 C   0  0  1  0  0  0  0  0  0  0  0  0
   13.4501  -12.6401  -11.6035 C   0  0  0  0  0  0  0  0  0  0  0  0
   12.3681  -13.4994  -12.1194 C   0  0  0  0  0  0  0  0  0  0  0  0
   11.2060  -13.6673  -11.2243 C   0  0  0  0  0  0  0  0  0  0  0  0
   10.2787  -12.8237  -11.2369 O   0  0  0  0  0  0  0  0  0  0  0  0
   15.5954  -11.4117  -11.9605 C   0  0  0  0  0  0  0  0  0  0  0  0
   16.5089  -11.8347  -11.2258 O   0  0  0  0  0  0  0  0  0  0  0  0
   11.1182  -14.7403  -10.3688 O   0  0  0  0  0  0  0  0  0  0  0  0
   15.5491  -10.0336  -12.2487 N   0  0  0  0  0  0  0  0  0  0  0  0
   16.6177   -9.1011  -11.7217 C   0  0  1  0  0  0  0  0  0  0  0  0
   17.2825   -8.6489  -13.0045 C   0  0  0  0  0  0  0  0  0  0  0  0
   18.3550   -7.6983  -12.9267 C   0  0  0  0  0  0  0  0  0  0  0  0
   19.0348   -7.4729  -11.9223 O   0  0  0  0  0  0  0  0  0  0  0  0
   15.8955   -8.0151  -11.0270 C   0  0  0  0  0  0  0  0  0  0  0  0
   14.8934   -7.4847  -11.6212 O   0  0  0  0  0  0  0  0  0  0  0  0
   18.7038   -6.9288  -14.0661 O   0  0  0  0  0  0  0  0  0  0  0  0
   16.1852   -7.4855   -9.7545 N   0  0  0  0  0  0  0  0  0  0  0  0
   15.3487   -6.4476   -9.1605 C   0  0  1  0  0  0  0  0  0  0  0  0
   15.3286   -6.5196   -7.6514 C   0  0  0  0  0  0  0  0  0  0  0  0
   14.5904   -8.0448   -7.0392 S   0  0  0  0  0  0  0  0  0  0  0  0
   15.8704   -5.1006   -9.5384 C   0  0  0  0  0  0  0  0  0  0  0  0
   15.1827   -3.9443   -9.2159 O   0  0  0  0  0  0  0  0  0  0  0  0
   16.9493   -4.9900  -10.1595 O   0  0  0  0  0  0  0  0  0  0  0  0
  2  1  1  1
  2  3  1  0
  3  4  1  0
  4  5  1  0
  5  9  1  0
  5  6  2  0
  7  2  1  0
  8  7  2  0
 10  7  1  0
 11 10  1  0
 12 13  1  0
 11 12  1  6
 13 17  1  0
 14 13  2  0
 15 11  1  0
 15 18  1  0
 16 15  2  0
 19 18  1  0
 19 20  1  1
 19 22  1  0
 20 21  1  0
 22 23  1  0
 24 22  2  0
M  END
$$$$
