EDC.pdb
     RDKit          3D

 24 23  0  0  1  0  0  0  0  0999 V2000
   18.0769  -11.3991  -18.2528 N   0  0  0  0  0  0  0  0  0  0  0  0
   17.9256  -10.7849  -16.9080 C   0  0  1  0  0  0  0  0  0  0  0  0
   18.6146  -11.6796  -15.9311 C   0  0  0  0  0  0  0  0  0  0  0  0
   17.9316  -12.9245  -15.5327 C   0  0  0  0  0  0  0  0  0  0  0  0
   16.5646  -12.7591  -15.0000 C   0  0  0  0  0  0  0  0  0  0  0  0
   16.3949  -12.4193  -13.8052 O   0  0  0  0  0  0  0  0  0  0  0  0
   18.4936   -9.4354  -17.0209 C   0  0  0  0  0  0  0  0  0  0  0  0
   19.4597   -9.2139  -17.7763 O   0  0  0  0  0  0  0  0  0  0  0  0
   15.4626  -12.9714  -15.7946 O   0  0  0  0  0  0  0  0  0  0  0  0
   17.9594   -8.3621  -16.2814 N   0  0  0  0  0  0  0  0  0  0  0  0
   18.4801   -6.9556  -16.4812 C   0  0  1  0  0  0  0  0  0  0  0  0
   17.2060   -6.1446  -16.3755 C   0  0  0  0  0  0  0  0  0  0  0  0
   17.2951   -4.7128  -16.4186 C   0  0  0  0  0  0  0  0  0  0  0  0
   16.5328   -3.9345  -15.8398 O   0  0  0  0  0  0  0  0  0  0  0  0
   19.4181   -6.7127  -15.3656 C   0  0  0  0  0  0  0  0  0  0  0  0
   18.9900   -6.8889  -14.1722 O   0  0  0  0  0  0  0  0  0  0  0  0
   18.3224   -4.0891  -17.1721 O   0  0  0  0  0  0  0  0  0  0  0  0
   20.7625   -6.3044  -15.4644 N   0  0  0  0  0  0  0  0  0  0  0  0
   21.5781   -6.0973  -14.2721 C   0  0  1  0  0  0  0  0  0  0  0  0
   22.9377   -6.7467  -14.3861 C   0  0  0  0  0  0  0  0  0  0  0  0
   22.8414   -8.5415  -14.5089 S   0  0  0  0  0  0  0  0  0  0  0  0
   21.7956   -4.6360  -14.0564 C   0  0  0  0  0  0  0  0  0  0  0  0
   22.3543   -4.1550  -12.8857 O   0  0  0  0  0  0  0  0  0  0  0  0
   21.4743   -3.8103  -14.9380 O   0  0  0  0  0  0  0  0  0  0  0  0
  2  1  1  6
  2  3  1  0
  3  4  1  0
  4  5  1  0
  5  9  1  0
  5  6  2  0
  7  2  1  0
  8  7  2  0
 10  7  1  0
 11 10  1  0
 12 13  1  0
 11 12  1  1
 13 17  1  0
 14 13  2  0
 15 11  1  0
 15 18  1  0
 16 15  2  0
 19 18  1  0
 19 20  1  6
 19 22  1  0
 20 21  1  0
 22 23  1  0
 24 22  2  0
M  END
$$$$
