EDC.pdb
     RDKit          3D

 24 23  0  0  1  0  0  0  0  0999 V2000
   18.6058  -15.4210  -16.3294 N   0  0  0  0  0  0  0  0  0  0  0  0
   17.6898  -14.2510  -16.3493 C   0  0  1  0  0  0  0  0  0  0  0  0
   16.4741  -14.6253  -15.5674 C   0  0  0  0  0  0  0  0  0  0  0  0
   15.6869  -15.7850  -16.0262 C   0  0  0  0  0  0  0  0  0  0  0  0
   14.4132  -16.0123  -15.3149 C   0  0  0  0  0  0  0  0  0  0  0  0
   13.3241  -15.7827  -15.8918 O   0  0  0  0  0  0  0  0  0  0  0  0
   18.4626  -13.1313  -15.7963 C   0  0  0  0  0  0  0  0  0  0  0  0
   19.2824  -13.3182  -14.8765 O   0  0  0  0  0  0  0  0  0  0  0  0
   14.3960  -16.4756  -14.0203 O   0  0  0  0  0  0  0  0  0  0  0  0
   18.2973  -11.8236  -16.2931 N   0  0  0  0  0  0  0  0  0  0  0  0
   19.1219  -10.6812  -15.7417 C   0  0  1  0  0  0  0  0  0  0  0  0
   19.5893  -10.0056  -17.0134 C   0  0  0  0  0  0  0  0  0  0  0  0
   20.4000   -8.8259  -16.9089 C   0  0  0  0  0  0  0  0  0  0  0  0
   20.7809   -8.3153  -15.8524 O   0  0  0  0  0  0  0  0  0  0  0  0
   18.1847   -9.8534  -14.9543 C   0  0  0  0  0  0  0  0  0  0  0  0
   17.0428   -9.5866  -15.4675 O   0  0  0  0  0  0  0  0  0  0  0  0
   20.8258   -8.1524  -18.0825 O   0  0  0  0  0  0  0  0  0  0  0  0
   18.4047   -9.3141  -13.6719 N   0  0  0  0  0  0  0  0  0  0  0  0
   17.3901   -8.4993  -13.0114 C   0  0  1  0  0  0  0  0  0  0  0  0
   17.5656   -8.4679  -11.5110 C   0  0  0  0  0  0  0  0  0  0  0  0
   17.4116  -10.0983  -10.7600 S   0  0  0  0  0  0  0  0  0  0  0  0
   17.4743   -7.0917  -13.5024 C   0  0  0  0  0  0  0  0  0  0  0  0
   18.4663   -6.6921  -14.3799 O   0  0  0  0  0  0  0  0  0  0  0  0
   16.6419   -6.2384  -13.1266 O   0  0  0  0  0  0  0  0  0  0  0  0
  2  1  1  1
  2  3  1  0
  3  4  1  0
  4  5  1  0
  5  9  1  0
  5  6  2  0
  7  2  1  0
  8  7  2  0
 10  7  1  0
 11 10  1  0
 12 13  1  0
 11 12  1  6
 13 17  1  0
 14 13  2  0
 15 11  1  0
 15 18  1  0
 16 15  2  0
 19 18  1  0
 19 20  1  1
 19 22  1  0
 20 21  1  0
 22 23  1  0
 24 22  2  0
M  END
$$$$
