EDC.pdb
     RDKit          3D

 24 23  0  0  1  0  0  0  0  0999 V2000
   14.8445   -9.4377  -15.3631 N   0  0  0  0  0  0  0  0  0  0  0  0
   16.0631   -9.6584  -14.5417 C   0  0  1  0  0  0  0  0  0  0  0  0
   17.0983  -10.2581  -15.4351 C   0  0  0  0  0  0  0  0  0  0  0  0
   16.9961  -11.6967  -15.7435 C   0  0  0  0  0  0  0  0  0  0  0  0
   17.5680  -12.6075  -14.7320 C   0  0  0  0  0  0  0  0  0  0  0  0
   18.1849  -13.6372  -15.0938 O   0  0  0  0  0  0  0  0  0  0  0  0
   16.4103   -8.3449  -13.9843 C   0  0  0  0  0  0  0  0  0  0  0  0
   16.0741   -7.2973  -14.5697 O   0  0  0  0  0  0  0  0  0  0  0  0
   17.4373  -12.3476  -13.3880 O   0  0  0  0  0  0  0  0  0  0  0  0
   17.1277   -8.2387  -12.7767 N   0  0  0  0  0  0  0  0  0  0  0  0
   17.4867   -6.8818  -12.2118 C   0  0  1  0  0  0  0  0  0  0  0  0
   17.2102   -7.0863  -10.7374 C   0  0  0  0  0  0  0  0  0  0  0  0
   17.4465   -5.9960   -9.8345 C   0  0  0  0  0  0  0  0  0  0  0  0
   17.3359   -6.0517   -8.6070 O   0  0  0  0  0  0  0  0  0  0  0  0
   18.9203   -6.6882  -12.5131 C   0  0  0  0  0  0  0  0  0  0  0  0
   19.7650   -7.4519  -11.9283 O   0  0  0  0  0  0  0  0  0  0  0  0
   17.8404   -4.7303  -10.3393 O   0  0  0  0  0  0  0  0  0  0  0  0
   19.4794   -5.7416  -13.3935 N   0  0  0  0  0  0  0  0  0  0  0  0
   20.9214   -5.6666  -13.6048 C   0  0  1  0  0  0  0  0  0  0  0  0
   21.3263   -6.1453  -14.9796 C   0  0  0  0  0  0  0  0  0  0  0  0
   20.5656   -7.7183  -15.4186 S   0  0  0  0  0  0  0  0  0  0  0  0
   21.3789   -4.2518  -13.4697 C   0  0  0  0  0  0  0  0  0  0  0  0
   22.7209   -3.9196  -13.5223 O   0  0  0  0  0  0  0  0  0  0  0  0
   20.5504   -3.3306  -13.3050 O   0  0  0  0  0  0  0  0  0  0  0  0
  2  1  1  6
  2  3  1  0
  3  4  1  0
  4  5  1  0
  5  9  1  0
  5  6  2  0
  7  2  1  0
  8  7  2  0
 10  7  1  0
 11 10  1  0
 12 13  1  0
 11 12  1  1
 13 17  1  0
 14 13  2  0
 15 11  1  0
 15 18  1  0
 16 15  2  0
 19 18  1  0
 19 20  1  6
 19 22  1  0
 20 21  1  0
 22 23  1  0
 24 22  2  0
M  END
$$$$
