EDC.pdb
     RDKit          3D

 24 23  0  0  1  0  0  0  0  0999 V2000
   21.1880  -22.2591  -14.5799 N   0  0  0  0  0  0  0  0  0  0  0  0
   21.1565  -20.9831  -13.8188 C   0  0  1  0  0  0  0  0  0  0  0  0
   20.7900  -21.3153  -12.4099 C   0  0  0  0  0  0  0  0  0  0  0  0
   19.5549  -22.0882  -12.1807 C   0  0  0  0  0  0  0  0  0  0  0  0
   18.2978  -21.4015  -12.5383 C   0  0  0  0  0  0  0  0  0  0  0  0
   17.6274  -20.8209  -11.6523 O   0  0  0  0  0  0  0  0  0  0  0  0
   22.4870  -20.3853  -13.9891 C   0  0  0  0  0  0  0  0  0  0  0  0
   22.8360  -19.4058  -13.3022 O   0  0  0  0  0  0  0  0  0  0  0  0
   17.8425  -21.3847  -13.8357 O   0  0  0  0  0  0  0  0  0  0  0  0
   23.3982  -20.9053  -14.9290 N   0  0  0  0  0  0  0  0  0  0  0  0
   24.7532  -20.2612  -15.1248 C   0  0  1  0  0  0  0  0  0  0  0  0
   25.6154  -21.4638  -15.4446 C   0  0  0  0  0  0  0  0  0  0  0  0
   27.0156  -21.2629  -15.6872 C   0  0  0  0  0  0  0  0  0  0  0  0
   27.5767  -20.1660  -15.7506 O   0  0  0  0  0  0  0  0  0  0  0  0
   24.5970  -19.3374  -16.2675 C   0  0  0  0  0  0  0  0  0  0  0  0
   23.9332  -19.7457  -17.2830 O   0  0  0  0  0  0  0  0  0  0  0  0
   27.8694  -22.3796  -15.8767 O   0  0  0  0  0  0  0  0  0  0  0  0
   25.1017  -18.0265  -16.3707 N   0  0  0  0  0  0  0  0  0  0  0  0
   24.8201  -17.1991  -17.5393 C   0  0  1  0  0  0  0  0  0  0  0  0
   24.1521  -15.8944  -17.1721 C   0  0  0  0  0  0  0  0  0  0  0  0
   22.7159  -16.1254  -16.1093 S   0  0  0  0  0  0  0  0  0  0  0  0
   26.0949  -16.8678  -18.2427 C   0  0  0  0  0  0  0  0  0  0  0  0
   26.0977  -16.1964  -19.4523 O   0  0  0  0  0  0  0  0  0  0  0  0
   27.1952  -17.1937  -17.7476 O   0  0  0  0  0  0  0  0  0  0  0  0
  2  1  1  6
  2  3  1  0
  3  4  1  0
  4  5  1  0
  5  9  1  0
  5  6  2  0
  7  2  1  0
  8  7  2  0
 10  7  1  0
 11 10  1  0
 12 13  1  0
 11 12  1  6
 13 17  1  0
 14 13  2  0
 15 11  1  0
 15 18  1  0
 16 15  2  0
 19 18  1  0
 19 20  1  1
 19 22  1  0
 20 21  1  0
 22 23  1  0
 24 22  2  0
M  END
$$$$
