EDC.pdb
     RDKit          3D

 24 23  0  0  1  0  0  0  0  0999 V2000
   26.3905  -20.2267  -16.6572 N   0  0  0  0  0  0  0  0  0  0  0  0
   25.9546  -18.8969  -17.1573 C   0  0  1  0  0  0  0  0  0  0  0  0
   25.6698  -19.0424  -18.6158 C   0  0  0  0  0  0  0  0  0  0  0  0
   26.4135  -18.1818  -19.5547 C   0  0  0  0  0  0  0  0  0  0  0  0
   27.4108  -18.8710  -20.3975 C   0  0  0  0  0  0  0  0  0  0  0  0
   27.0331  -19.6239  -21.3259 O   0  0  0  0  0  0  0  0  0  0  0  0
   24.7980  -18.5218  -16.3338 C   0  0  0  0  0  0  0  0  0  0  0  0
   24.3633  -17.3538  -16.3435 O   0  0  0  0  0  0  0  0  0  0  0  0
   28.7587  -18.7023  -20.1838 O   0  0  0  0  0  0  0  0  0  0  0  0
   24.1531  -19.4716  -15.5177 N   0  0  0  0  0  0  0  0  0  0  0  0
   22.9515  -19.0814  -14.6851 C   0  0  1  0  0  0  0  0  0  0  0  0
   21.8405  -19.1430  -15.7117 C   0  0  0  0  0  0  0  0  0  0  0  0
   20.4916  -18.9074  -15.2821 C   0  0  0  0  0  0  0  0  0  0  0  0
   19.6715  -19.7844  -14.9984 O   0  0  0  0  0  0  0  0  0  0  0  0
   22.8345  -20.1182  -13.6388 C   0  0  0  0  0  0  0  0  0  0  0  0
   22.8251  -21.3442  -14.0071 O   0  0  0  0  0  0  0  0  0  0  0  0
   20.0096  -17.5793  -15.1564 O   0  0  0  0  0  0  0  0  0  0  0  0
   22.7341  -19.9105  -12.2494 N   0  0  0  0  0  0  0  0  0  0  0  0
   22.5965  -21.0324  -11.3264 C   0  0  1  0  0  0  0  0  0  0  0  0
   23.3665  -20.8191  -10.0439 C   0  0  0  0  0  0  0  0  0  0  0  0
   25.0379  -20.2110  -10.3310 S   0  0  0  0  0  0  0  0  0  0  0  0
   21.1599  -21.2136  -10.9621 C   0  0  0  0  0  0  0  0  0  0  0  0
   20.7274  -22.3281  -10.2659 O   0  0  0  0  0  0  0  0  0  0  0  0
   20.3114  -20.3535  -11.2821 O   0  0  0  0  0  0  0  0  0  0  0  0
  2  1  1  1
  2  3  1  0
  3  4  1  0
  4  5  1  0
  5  9  1  0
  5  6  2  0
  7  2  1  0
  8  7  2  0
 10  7  1  0
 11 10  1  0
 12 13  1  0
 11 12  1  6
 13 17  1  0
 14 13  2  0
 15 11  1  0
 15 18  1  0
 16 15  2  0
 19 18  1  0
 19 20  1  1
 19 22  1  0
 20 21  1  0
 22 23  1  0
 24 22  2  0
M  END
$$$$
