EDC.pdb
     RDKit          3D

 24 23  0  0  1  0  0  0  0  0999 V2000
   17.8130  -11.1358  -18.1077 N   0  0  0  0  0  0  0  0  0  0  0  0
   17.2761  -10.0558  -17.2396 C   0  0  1  0  0  0  0  0  0  0  0  0
   17.1091  -10.6280  -15.8707 C   0  0  0  0  0  0  0  0  0  0  0  0
   15.9434  -11.4965  -15.6218 C   0  0  0  0  0  0  0  0  0  0  0  0
   15.7306  -11.8899  -14.2147 C   0  0  0  0  0  0  0  0  0  0  0  0
   15.4774  -13.0842  -13.9298 O   0  0  0  0  0  0  0  0  0  0  0  0
   18.2392   -8.9514  -17.3371 C   0  0  0  0  0  0  0  0  0  0  0  0
   19.4152   -9.1634  -17.6908 O   0  0  0  0  0  0  0  0  0  0  0  0
   15.8053  -10.9649  -13.2000 O   0  0  0  0  0  0  0  0  0  0  0  0
   17.8563   -7.6296  -17.0360 N   0  0  0  0  0  0  0  0  0  0  0  0
   18.8216   -6.4830  -17.2427 C   0  0  1  0  0  0  0  0  0  0  0  0
   17.9038   -5.4117  -17.7921 C   0  0  0  0  0  0  0  0  0  0  0  0
   18.4315   -4.0936  -18.0021 C   0  0  0  0  0  0  0  0  0  0  0  0
   19.5358   -3.8384  -18.4893 O   0  0  0  0  0  0  0  0  0  0  0  0
   19.3546   -6.1607  -15.9027 C   0  0  0  0  0  0  0  0  0  0  0  0
   18.5306   -6.1142  -14.9242 O   0  0  0  0  0  0  0  0  0  0  0  0
   17.6648   -2.9570  -17.6383 O   0  0  0  0  0  0  0  0  0  0  0  0
   20.6969   -5.8967  -15.5673 N   0  0  0  0  0  0  0  0  0  0  0  0
   21.0797   -5.5506  -14.2023 C   0  0  1  0  0  0  0  0  0  0  0  0
   22.0961   -6.5110  -13.6297 C   0  0  0  0  0  0  0  0  0  0  0  0
   22.7214   -5.9838  -12.0244 S   0  0  0  0  0  0  0  0  0  0  0  0
   21.6879   -4.1872  -14.1785 C   0  0  0  0  0  0  0  0  0  0  0  0
   21.5215   -3.3421  -13.0958 O   0  0  0  0  0  0  0  0  0  0  0  0
   22.3659   -3.7785  -15.1456 O   0  0  0  0  0  0  0  0  0  0  0  0
  2  1  1  6
  2  3  1  0
  3  4  1  0
  4  5  1  0
  5  9  1  0
  5  6  2  0
  7  2  1  0
  8  7  2  0
 10  7  1  0
 11 10  1  0
 12 13  1  0
 11 12  1  1
 13 17  1  0
 14 13  2  0
 15 11  1  0
 15 18  1  0
 16 15  2  0
 19 18  1  0
 19 20  1  6
 19 22  1  0
 20 21  1  0
 22 23  1  0
 24 22  2  0
M  END
$$$$
