EDC.pdb
     RDKit          3D

 24 23  0  0  1  0  0  0  0  0999 V2000
   21.7337  -11.5276  -15.8091 N   0  0  0  0  0  0  0  0  0  0  0  0
   20.6234  -10.7426  -16.4085 C   0  0  1  0  0  0  0  0  0  0  0  0
   19.4885  -11.6847  -16.6411 C   0  0  0  0  0  0  0  0  0  0  0  0
   19.6373  -12.6976  -17.7028 C   0  0  0  0  0  0  0  0  0  0  0  0
   18.4874  -13.6061  -17.8825 C   0  0  0  0  0  0  0  0  0  0  0  0
   18.5318  -14.5078  -18.7523 O   0  0  0  0  0  0  0  0  0  0  0  0
   20.3445   -9.6583  -15.4581 C   0  0  0  0  0  0  0  0  0  0  0  0
   19.9783   -9.9122  -14.2942 O   0  0  0  0  0  0  0  0  0  0  0  0
   17.3578  -13.4830  -17.1082 O   0  0  0  0  0  0  0  0  0  0  0  0
   20.4865   -8.3095  -15.8383 N   0  0  0  0  0  0  0  0  0  0  0  0
   20.2293   -7.1986  -14.8438 C   0  0  1  0  0  0  0  0  0  0  0  0
   21.5934   -6.5472  -14.7601 C   0  0  0  0  0  0  0  0  0  0  0  0
   21.7798   -5.4533  -13.8499 C   0  0  0  0  0  0  0  0  0  0  0  0
   20.9179   -5.0057  -13.0891 O   0  0  0  0  0  0  0  0  0  0  0  0
   19.2080   -6.3311  -15.4664 C   0  0  0  0  0  0  0  0  0  0  0  0
   19.3181   -6.0759  -16.7160 O   0  0  0  0  0  0  0  0  0  0  0  0
   23.0353   -4.7972  -13.7781 O   0  0  0  0  0  0  0  0  0  0  0  0
   18.0978   -5.7413  -14.8312 N   0  0  0  0  0  0  0  0  0  0  0  0
   17.2095   -4.8349  -15.5516 C   0  0  1  0  0  0  0  0  0  0  0  0
   15.7627   -5.2632  -15.4705 C   0  0  0  0  0  0  0  0  0  0  0  0
   14.6187   -3.8970  -15.7358 S   0  0  0  0  0  0  0  0  0  0  0  0
   17.3048   -3.4640  -14.9675 C   0  0  0  0  0  0  0  0  0  0  0  0
   16.9868   -2.3403  -15.7092 O   0  0  0  0  0  0  0  0  0  0  0  0
   17.6772   -3.3032  -13.7854 O   0  0  0  0  0  0  0  0  0  0  0  0
  2  1  1  1
  2  3  1  0
  3  4  1  0
  4  5  1  0
  5  9  1  0
  5  6  2  0
  7  2  1  0
  8  7  2  0
 10  7  1  0
 11 10  1  0
 12 13  1  0
 11 12  1  6
 13 17  1  0
 14 13  2  0
 15 11  1  0
 15 18  1  0
 16 15  2  0
 19 18  1  0
 19 20  1  1
 19 22  1  0
 20 21  1  0
 22 23  1  0
 24 22  2  0
M  END
$$$$
