EDC.pdb
     RDKit          3D

 24 23  0  0  1  0  0  0  0  0999 V2000
   17.0195  -12.5530  -16.9589 N   0  0  0  0  0  0  0  0  0  0  0  0
   16.3742  -12.3815  -15.6313 C   0  0  1  0  0  0  0  0  0  0  0  0
   16.6177  -13.6330  -14.8541 C   0  0  0  0  0  0  0  0  0  0  0  0
   16.0746  -14.8956  -15.3889 C   0  0  0  0  0  0  0  0  0  0  0  0
   16.1782  -16.0642  -14.4925 C   0  0  0  0  0  0  0  0  0  0  0  0
   17.0037  -16.9740  -14.7425 O   0  0  0  0  0  0  0  0  0  0  0  0
   16.9672  -11.1680  -15.0546 C   0  0  0  0  0  0  0  0  0  0  0  0
   16.6048  -10.7533  -13.9366 O   0  0  0  0  0  0  0  0  0  0  0  0
   15.3808  -16.1767  -13.3779 O   0  0  0  0  0  0  0  0  0  0  0  0
   17.9587  -10.4476  -15.7490 N   0  0  0  0  0  0  0  0  0  0  0  0
   18.6574   -9.2753  -15.0957 C   0  0  1  0  0  0  0  0  0  0  0  0
   19.9342   -9.1961  -15.9055 C   0  0  0  0  0  0  0  0  0  0  0  0
   20.8611   -8.1360  -15.6284 C   0  0  0  0  0  0  0  0  0  0  0  0
   20.7274   -7.2868  -14.7437 O   0  0  0  0  0  0  0  0  0  0  0  0
   17.7672   -8.1136  -15.2988 C   0  0  0  0  0  0  0  0  0  0  0  0
   17.4013   -7.8395  -16.4944 O   0  0  0  0  0  0  0  0  0  0  0  0
   22.0423   -8.0070  -16.4031 O   0  0  0  0  0  0  0  0  0  0  0  0
   17.2581   -7.2542  -14.3058 N   0  0  0  0  0  0  0  0  0  0  0  0
   16.4934   -6.0623  -14.6586 C   0  0  1  0  0  0  0  0  0  0  0  0
   15.4420   -5.7277  -13.6262 C   0  0  0  0  0  0  0  0  0  0  0  0
   14.3092   -7.0949  -13.3212 S   0  0  0  0  0  0  0  0  0  0  0  0
   17.4089   -4.8875  -14.7635 C   0  0  0  0  0  0  0  0  0  0  0  0
   18.7653   -5.0060  -14.5184 O   0  0  0  0  0  0  0  0  0  0  0  0
   16.9635   -3.7628  -15.0779 O   0  0  0  0  0  0  0  0  0  0  0  0
  2  1  1  6
  2  3  1  0
  3  4  1  0
  4  5  1  0
  5  9  1  0
  5  6  2  0
  7  2  1  0
  8  7  2  0
 10  7  1  0
 11 10  1  0
 12 13  1  0
 11 12  1  6
 13 17  1  0
 14 13  2  0
 15 11  1  0
 15 18  1  0
 16 15  2  0
 19 18  1  0
 19 20  1  1
 19 22  1  0
 20 21  1  0
 22 23  1  0
 24 22  2  0
M  END
$$$$
