CMG.pdb
     RDKit          3D

 19 18  0  0  1  0  0  0  0  0999 V2000
    8.5954  -15.2694   19.0137 N   0  0  0  0  0  0  0  0  0  0  0  0
    7.9925  -15.8207   20.1856 C   0  0  1  0  0  0  0  0  0  0  0  0
    7.9179  -17.3315   20.1757 C   0  0  0  0  0  0  0  0  0  0  0  0
    6.5655  -17.7753   19.0195 S   0  0  0  0  0  0  0  0  0  0  0  0
    8.6588  -15.3037   21.4025 C   0  0  0  0  0  0  0  0  0  0  0  0
    9.8744  -14.9852   21.4400 O   0  0  0  0  0  0  0  0  0  0  0  0
    6.6100  -11.4890   27.8900 C   0  0  0  0  0  0  0  0  0  0  0  0
    6.2713  -12.2108   26.2450 S   0  0  0  0  0  0  0  0  0  0  0  0
    7.6934  -13.3037   25.8182 C   0  0  0  0  0  0  0  0  0  0  0  0
    7.4427  -13.8066   24.4456 C   0  0  0  0  0  0  0  0  0  0  0  0
    8.5201  -14.6307   23.8193 C   0  0  2  0  0  0  0  0  0  0  0  0
    7.8998  -15.1595   22.5795 N   0  0  0  0  0  0  0  0  0  0  0  0
    8.9309  -15.8183   24.5960 C   0  0  0  0  0  0  0  0  0  0  0  0
    8.1685  -16.8401   24.7270 O   0  0  0  0  0  0  0  0  0  0  0  0
   10.1839  -15.9417   25.2564 N   0  0  0  0  0  0  0  0  0  0  0  0
   10.6785  -17.2472   25.7053 C   0  0  0  0  0  0  0  0  0  0  0  0
   10.3374  -17.4353   27.1358 C   0  0  0  0  0  0  0  0  0  0  0  0
    9.5077  -16.5663   27.7937 O   0  0  0  0  0  0  0  0  0  0  0  0
   10.7993  -18.4051   27.8018 O   0  0  0  0  0  0  0  0  0  0  0  0
  2  1  1  6
  3  2  1  0
  4  3  1  0
  5  2  1  0
  6  5  2  0
  8  7  1  0
  8  9  1  0
 10  9  1  0
 11 10  1  1
 11 12  1  0
 12  5  1  0
 13 11  1  0
 13 15  1  0
 14 13  2  0
 16 15  1  0
 17 16  1  0
 18 17  1  0
 19 17  2  0
M  END
$$$$
