CMG.pdb
     RDKit          3D

 19 18  0  0  1  0  0  0  0  0999 V2000
    7.7801  -12.6622   19.8864 N   0  0  0  0  0  0  0  0  0  0  0  0
    7.6843  -13.8568   20.6640 C   0  0  1  0  0  0  0  0  0  0  0  0
    8.3771  -15.0460   20.0364 C   0  0  0  0  0  0  0  0  0  0  0  0
    7.1028  -15.9302   19.0580 S   0  0  0  0  0  0  0  0  0  0  0  0
    8.1452  -13.6108   22.0494 C   0  0  0  0  0  0  0  0  0  0  0  0
    8.9432  -12.6893   22.3568 O   0  0  0  0  0  0  0  0  0  0  0  0
    6.1870  -10.7161   27.1293 C   0  0  0  0  0  0  0  0  0  0  0  0
    7.1654  -12.1797   26.6369 S   0  0  0  0  0  0  0  0  0  0  0  0
    6.0618  -13.2727   25.6436 C   0  0  0  0  0  0  0  0  0  0  0  0
    6.8631  -14.4681   25.2849 C   0  0  0  0  0  0  0  0  0  0  0  0
    8.1019  -14.2368   24.4823 C   0  0  2  0  0  0  0  0  0  0  0  0
    7.6705  -14.4465   23.0783 N   0  0  0  0  0  0  0  0  0  0  0  0
    9.1884  -15.2106   24.7139 C   0  0  0  0  0  0  0  0  0  0  0  0
    9.7371  -15.3539   25.8633 O   0  0  0  0  0  0  0  0  0  0  0  0
    9.7174  -16.0656   23.7086 N   0  0  0  0  0  0  0  0  0  0  0  0
   10.7099  -17.0947   24.0344 C   0  0  0  0  0  0  0  0  0  0  0  0
   11.0988  -17.8104   22.7956 C   0  0  0  0  0  0  0  0  0  0  0  0
   12.4024  -18.1468   22.5430 O   0  0  0  0  0  0  0  0  0  0  0  0
   10.2416  -18.1373   21.9261 O   0  0  0  0  0  0  0  0  0  0  0  0
  2  1  1  6
  3  2  1  0
  4  3  1  0
  5  2  1  0
  6  5  2  0
  8  7  1  0
  8  9  1  0
 10  9  1  0
 11 10  1  1
 11 12  1  0
 12  5  1  0
 13 11  1  0
 13 15  1  0
 14 13  2  0
 16 15  1  0
 17 16  1  0
 18 17  1  0
 19 17  2  0
M  END
$$$$
