CMG.pdb
     RDKit          3D

 19 18  0  0  1  0  0  0  0  0999 V2000
    7.3451  -14.1594   19.6513 N   0  0  0  0  0  0  0  0  0  0  0  0
    7.0377  -14.9396   20.8079 C   0  0  1  0  0  0  0  0  0  0  0  0
    7.1113  -16.4316   20.5700 C   0  0  0  0  0  0  0  0  0  0  0  0
    8.8814  -16.8253   20.2960 S   0  0  0  0  0  0  0  0  0  0  0  0
    7.8732  -14.5163   21.9546 C   0  0  0  0  0  0  0  0  0  0  0  0
    8.8800  -13.7728   21.8364 O   0  0  0  0  0  0  0  0  0  0  0  0
    5.9496  -10.5312   27.1157 C   0  0  0  0  0  0  0  0  0  0  0  0
    6.7909  -12.1540   27.0972 S   0  0  0  0  0  0  0  0  0  0  0  0
    6.5388  -12.8874   25.4246 C   0  0  0  0  0  0  0  0  0  0  0  0
    7.1862  -14.2217   25.4465 C   0  0  0  0  0  0  0  0  0  0  0  0
    8.2592  -14.4701   24.4369 C   0  0  2  0  0  0  0  0  0  0  0  0
    7.5291  -14.9652   23.2440 N   0  0  0  0  0  0  0  0  0  0  0  0
    9.2152  -15.5395   24.7902 C   0  0  0  0  0  0  0  0  0  0  0  0
    9.9555  -15.4698   25.8341 O   0  0  0  0  0  0  0  0  0  0  0  0
    9.4012  -16.7238   24.0258 N   0  0  0  0  0  0  0  0  0  0  0  0
   10.3333  -17.7685   24.4618 C   0  0  0  0  0  0  0  0  0  0  0  0
   11.7167  -17.3707   24.1066 C   0  0  0  0  0  0  0  0  0  0  0  0
   12.3775  -17.9437   23.0523 O   0  0  0  0  0  0  0  0  0  0  0  0
   12.3382  -16.4875   24.7633 O   0  0  0  0  0  0  0  0  0  0  0  0
  2  1  1  6
  3  2  1  0
  4  3  1  0
  5  2  1  0
  6  5  2  0
  8  7  1  0
  8  9  1  0
 10  9  1  0
 11 10  1  1
 11 12  1  0
 12  5  1  0
 13 11  1  0
 13 15  1  0
 14 13  2  0
 16 15  1  0
 17 16  1  0
 18 17  1  0
 19 17  2  0
M  END
$$$$
