CMG.pdb
     RDKit          3D

 19 18  0  0  1  0  0  0  0  0999 V2000
    7.7120  -12.5701   19.9400 N   0  0  0  0  0  0  0  0  0  0  0  0
    7.5819  -13.8821   20.4900 C   0  0  1  0  0  0  0  0  0  0  0  0
    8.1127  -14.9735   19.5871 C   0  0  0  0  0  0  0  0  0  0  0  0
    6.6481  -15.7792   18.8330 S   0  0  0  0  0  0  0  0  0  0  0  0
    8.1808  -13.9377   21.8429 C   0  0  0  0  0  0  0  0  0  0  0  0
    9.2359  -13.3296   22.1550 O   0  0  0  0  0  0  0  0  0  0  0  0
    6.5670  -10.7251   26.7102 C   0  0  0  0  0  0  0  0  0  0  0  0
    7.2339  -12.4239   26.6049 S   0  0  0  0  0  0  0  0  0  0  0  0
    6.3999  -13.2574   25.1876 C   0  0  0  0  0  0  0  0  0  0  0  0
    6.9659  -14.6262   25.1101 C   0  0  0  0  0  0  0  0  0  0  0  0
    8.1273  -14.8275   24.1920 C   0  0  2  0  0  0  0  0  0  0  0  0
    7.5426  -14.7081   22.8337 N   0  0  0  0  0  0  0  0  0  0  0  0
    8.7407  -16.1705   24.2442 C   0  0  0  0  0  0  0  0  0  0  0  0
    8.0330  -17.2383   24.2807 O   0  0  0  0  0  0  0  0  0  0  0  0
   10.1431  -16.4039   24.2562 N   0  0  0  0  0  0  0  0  0  0  0  0
   10.6842  -17.7625   24.3648 C   0  0  0  0  0  0  0  0  0  0  0  0
   12.1621  -17.7115   24.2596 C   0  0  0  0  0  0  0  0  0  0  0  0
   12.9622  -17.8140   25.3667 O   0  0  0  0  0  0  0  0  0  0  0  0
   12.7393  -17.5719   23.1438 O   0  0  0  0  0  0  0  0  0  0  0  0
  2  1  1  6
  3  2  1  0
  4  3  1  0
  5  2  1  0
  6  5  2  0
  8  7  1  0
  8  9  1  0
 10  9  1  0
 11 10  1  1
 11 12  1  0
 12  5  1  0
 13 11  1  0
 13 15  1  0
 14 13  2  0
 16 15  1  0
 17 16  1  0
 18 17  1  0
 19 17  2  0
M  END
$$$$
