CMG.pdb
     RDKit          3D

 19 18  0  0  1  0  0  0  0  0999 V2000
    6.1830  -17.9337   21.9652 N   0  0  0  0  0  0  0  0  0  0  0  0
    6.3940  -18.0777   23.3707 C   0  0  1  0  0  0  0  0  0  0  0  0
    6.8259  -19.4685   23.7797 C   0  0  0  0  0  0  0  0  0  0  0  0
    6.9363  -19.4588   25.6102 S   0  0  0  0  0  0  0  0  0  0  0  0
    7.3253  -17.0376   23.8635 C   0  0  0  0  0  0  0  0  0  0  0  0
    8.3537  -16.6797   23.2351 O   0  0  0  0  0  0  0  0  0  0  0  0
    6.0315  -11.9279   24.7249 C   0  0  0  0  0  0  0  0  0  0  0  0
    6.5663  -11.6971   26.4577 S   0  0  0  0  0  0  0  0  0  0  0  0
    7.5146  -13.2003   26.9476 C   0  0  0  0  0  0  0  0  0  0  0  0
    6.9423  -14.3307   26.1767 C   0  0  0  0  0  0  0  0  0  0  0  0
    7.9083  -15.3081   25.5903 C   0  0  2  0  0  0  0  0  0  0  0  0
    7.0521  -16.4144   25.0961 N   0  0  0  0  0  0  0  0  0  0  0  0
    8.8376  -15.9265   26.5580 C   0  0  0  0  0  0  0  0  0  0  0  0
    9.6884  -15.2330   27.2195 O   0  0  0  0  0  0  0  0  0  0  0  0
    8.8763  -17.3185   26.8449 N   0  0  0  0  0  0  0  0  0  0  0  0
    9.7645  -17.8541   27.8815 C   0  0  0  0  0  0  0  0  0  0  0  0
   10.9942  -18.3859   27.2466 C   0  0  0  0  0  0  0  0  0  0  0  0
   11.9598  -19.0232   27.9800 O   0  0  0  0  0  0  0  0  0  0  0  0
   11.1975  -18.2713   26.0044 O   0  0  0  0  0  0  0  0  0  0  0  0
  2  1  1  6
  3  2  1  0
  4  3  1  0
  5  2  1  0
  6  5  2  0
  8  7  1  0
  8  9  1  0
 10  9  1  0
 11 10  1  1
 11 12  1  0
 12  5  1  0
 13 11  1  0
 13 15  1  0
 14 13  2  0
 16 15  1  0
 17 16  1  0
 18 17  1  0
 19 17  2  0
M  END
$$$$
