CMG.pdb
     RDKit          3D

 19 18  0  0  1  0  0  0  0  0999 V2000
    7.7056  -13.0796   19.3419 N   0  0  0  0  0  0  0  0  0  0  0  0
    7.4651  -14.1412   20.2670 C   0  0  1  0  0  0  0  0  0  0  0  0
    7.6944  -15.5178   19.6833 C   0  0  0  0  0  0  0  0  0  0  0  0
    7.0385  -16.7150   20.9079 S   0  0  0  0  0  0  0  0  0  0  0  0
    8.2381  -13.9280   21.5116 C   0  0  0  0  0  0  0  0  0  0  0  0
    9.3080  -13.2691   21.5541 O   0  0  0  0  0  0  0  0  0  0  0  0
    6.1150  -10.5384   27.1781 C   0  0  0  0  0  0  0  0  0  0  0  0
    5.7844  -12.2733   26.7062 S   0  0  0  0  0  0  0  0  0  0  0  0
    7.3758  -13.0001   26.1249 C   0  0  0  0  0  0  0  0  0  0  0  0
    7.1441  -13.4691   24.7371 C   0  0  0  0  0  0  0  0  0  0  0  0
    8.3120  -14.0635   24.0195 C   0  0  2  0  0  0  0  0  0  0  0  0
    7.7573  -14.4882   22.7106 N   0  0  0  0  0  0  0  0  0  0  0  0
    8.8660  -15.2880   24.6327 C   0  0  0  0  0  0  0  0  0  0  0  0
    9.2974  -15.3068   25.8393 O   0  0  0  0  0  0  0  0  0  0  0  0
    8.9698  -16.5366   23.9606 N   0  0  0  0  0  0  0  0  0  0  0  0
   10.1062  -16.8320   23.0821 C   0  0  0  0  0  0  0  0  0  0  0  0
   11.2257  -17.3687   23.8923 C   0  0  0  0  0  0  0  0  0  0  0  0
   11.2533  -17.2307   25.2549 O   0  0  0  0  0  0  0  0  0  0  0  0
   12.1969  -17.9743   23.3559 O   0  0  0  0  0  0  0  0  0  0  0  0
  2  1  1  6
  3  2  1  0
  4  3  1  0
  5  2  1  0
  6  5  2  0
  8  7  1  0
  8  9  1  0
 10  9  1  0
 11 10  1  1
 11 12  1  0
 12  5  1  0
 13 11  1  0
 13 15  1  0
 14 13  2  0
 16 15  1  0
 17 16  1  0
 18 17  1  0
 19 17  2  0
M  END
$$$$
