CMG.pdb
     RDKit          3D

 19 18  0  0  1  0  0  0  0  0999 V2000
    7.8393  -13.0558   19.6229 N   0  0  0  0  0  0  0  0  0  0  0  0
    7.6674  -14.1779   20.4902 C   0  0  1  0  0  0  0  0  0  0  0  0
    8.1827  -15.4767   19.9108 C   0  0  0  0  0  0  0  0  0  0  0  0
    6.9166  -16.0476   18.7133 S   0  0  0  0  0  0  0  0  0  0  0  0
    8.2451  -13.8946   21.8236 C   0  0  0  0  0  0  0  0  0  0  0  0
    9.1692  -13.0633   22.0119 O   0  0  0  0  0  0  0  0  0  0  0  0
    6.1410  -10.7215   27.2709 C   0  0  0  0  0  0  0  0  0  0  0  0
    6.8748  -12.3827   27.0623 S   0  0  0  0  0  0  0  0  0  0  0  0
    6.5105  -12.9351   25.3415 C   0  0  0  0  0  0  0  0  0  0  0  0
    7.1289  -14.2744   25.1879 C   0  0  0  0  0  0  0  0  0  0  0  0
    8.3187  -14.3716   24.2894 C   0  0  2  0  0  0  0  0  0  0  0  0
    7.7396  -14.5871   22.9405 N   0  0  0  0  0  0  0  0  0  0  0  0
    9.1956  -15.5347   24.5361 C   0  0  0  0  0  0  0  0  0  0  0  0
    9.9692  -15.5966   25.5559 O   0  0  0  0  0  0  0  0  0  0  0  0
    9.2634  -16.6733   23.6872 N   0  0  0  0  0  0  0  0  0  0  0  0
   10.5206  -17.0625   23.0406 C   0  0  0  0  0  0  0  0  0  0  0  0
   11.3728  -17.7810   24.0181 C   0  0  0  0  0  0  0  0  0  0  0  0
   10.9421  -18.0324   25.2940 O   0  0  0  0  0  0  0  0  0  0  0  0
   12.5289  -18.1889   23.7106 O   0  0  0  0  0  0  0  0  0  0  0  0
  2  1  1  6
  3  2  1  0
  4  3  1  0
  5  2  1  0
  6  5  2  0
  8  7  1  0
  8  9  1  0
 10  9  1  0
 11 10  1  1
 11 12  1  0
 12  5  1  0
 13 11  1  0
 13 15  1  0
 14 13  2  0
 16 15  1  0
 17 16  1  0
 18 17  1  0
 19 17  2  0
M  END
$$$$
