CMG.pdb
     RDKit          3D

 19 18  0  0  1  0  0  0  0  0999 V2000
    4.8296  -19.0487   22.8389 N   0  0  0  0  0  0  0  0  0  0  0  0
    5.7441  -18.8371   23.9157 C   0  0  1  0  0  0  0  0  0  0  0  0
    6.6779  -20.0027   24.1562 C   0  0  0  0  0  0  0  0  0  0  0  0
    5.8384  -21.0976   25.3643 S   0  0  0  0  0  0  0  0  0  0  0  0
    6.4778  -17.5647   23.7292 C   0  0  0  0  0  0  0  0  0  0  0  0
    6.8040  -17.1164   22.6009 O   0  0  0  0  0  0  0  0  0  0  0  0
    5.7853  -11.2411   26.0039 C   0  0  0  0  0  0  0  0  0  0  0  0
    6.7378  -12.3605   27.0908 S   0  0  0  0  0  0  0  0  0  0  0  0
    7.8178  -13.3923   26.0101 C   0  0  0  0  0  0  0  0  0  0  0  0
    7.0938  -14.6667   25.7826 C   0  0  0  0  0  0  0  0  0  0  0  0
    7.6446  -15.5809   24.7371 C   0  0  2  0  0  0  0  0  0  0  0  0
    6.8311  -16.8148   24.8672 N   0  0  0  0  0  0  0  0  0  0  0  0
    9.0442  -16.0032   24.9496 C   0  0  0  0  0  0  0  0  0  0  0  0
    9.4359  -16.5218   26.0542 O   0  0  0  0  0  0  0  0  0  0  0  0
   10.0687  -15.8807   23.9714 N   0  0  0  0  0  0  0  0  0  0  0  0
   11.4587  -16.2294   24.2823 C   0  0  0  0  0  0  0  0  0  0  0  0
   12.2995  -16.0103   23.0810 C   0  0  0  0  0  0  0  0  0  0  0  0
   13.6565  -15.8494   23.1772 O   0  0  0  0  0  0  0  0  0  0  0  0
   11.7956  -15.9640   21.9228 O   0  0  0  0  0  0  0  0  0  0  0  0
  2  1  1  6
  3  2  1  0
  4  3  1  0
  5  2  1  0
  6  5  2  0
  8  7  1  0
  8  9  1  0
 10  9  1  0
 11 10  1  1
 11 12  1  0
 12  5  1  0
 13 11  1  0
 13 15  1  0
 14 13  2  0
 16 15  1  0
 17 16  1  0
 18 17  1  0
 19 17  2  0
M  END
$$$$
