CMG.pdb
     RDKit          3D

 19 18  0  0  1  0  0  0  0  0999 V2000
    8.3180  -15.9062   19.5316 N   0  0  0  0  0  0  0  0  0  0  0  0
    7.5634  -15.8985   20.7447 C   0  0  1  0  0  0  0  0  0  0  0  0
    6.9013  -17.2227   21.0553 C   0  0  0  0  0  0  0  0  0  0  0  0
    8.2410  -18.3620   21.5749 S   0  0  0  0  0  0  0  0  0  0  0  0
    8.3963  -15.4147   21.8691 C   0  0  0  0  0  0  0  0  0  0  0  0
    9.5991  -15.0732   21.7387 O   0  0  0  0  0  0  0  0  0  0  0  0
    6.1260  -10.9147   27.7253 C   0  0  0  0  0  0  0  0  0  0  0  0
    5.8485  -12.0350   26.3076 S   0  0  0  0  0  0  0  0  0  0  0  0
    7.4779  -12.7722   25.8596 C   0  0  0  0  0  0  0  0  0  0  0  0
    7.2336  -13.6633   24.6994 C   0  0  0  0  0  0  0  0  0  0  0  0
    8.4014  -14.4406   24.1852 C   0  0  2  0  0  0  0  0  0  0  0  0
    7.8192  -15.3306   23.1506 N   0  0  0  0  0  0  0  0  0  0  0  0
    9.0376  -15.3391   25.1702 C   0  0  0  0  0  0  0  0  0  0  0  0
    9.6564  -14.8889   26.1983 O   0  0  0  0  0  0  0  0  0  0  0  0
    9.0237  -16.7578   25.0774 N   0  0  0  0  0  0  0  0  0  0  0  0
   10.2505  -17.5108   24.7977 C   0  0  0  0  0  0  0  0  0  0  0  0
   10.7595  -18.1041   26.0574 C   0  0  0  0  0  0  0  0  0  0  0  0
   11.9029  -18.8582   26.0823 O   0  0  0  0  0  0  0  0  0  0  0  0
   10.1575  -17.9361   27.1560 O   0  0  0  0  0  0  0  0  0  0  0  0
  2  1  1  6
  3  2  1  0
  4  3  1  0
  5  2  1  0
  6  5  2  0
  8  7  1  0
  8  9  1  0
 10  9  1  0
 11 10  1  1
 11 12  1  0
 12  5  1  0
 13 11  1  0
 13 15  1  0
 14 13  2  0
 16 15  1  0
 17 16  1  0
 18 17  1  0
 19 17  2  0
M  END
$$$$
