GTF.pdb
     RDKit          3D

 23 23  0  0  1  0  0  0  0  0999 V2000
    8.1625  -12.8333   17.0733 N   0  0  0  0  0  0  0  0  0  0  0  0
    9.0235  -13.6731   17.8470 C   0  0  0  0  0  0  0  0  0  0  0  0
    8.2525  -14.4583   18.8728 C   0  0  0  0  0  0  0  0  0  0  0  0
    7.1490  -14.0381   19.2465 O   0  0  0  0  0  0  0  0  0  0  0  0
    8.2773  -18.3780   19.0833 C   0  0  0  0  0  0  0  0  0  0  0  0
    8.7042  -17.8005   20.4390 C   0  0  1  0  0  0  0  0  0  0  0  0
   10.0650  -17.8600   20.6157 O   0  0  0  0  0  0  0  0  0  0  0  0
    8.1408  -16.3958   20.4876 C   0  0  2  0  0  0  0  0  0  0  0  0
    8.7941  -15.6633   19.3975 N   0  0  0  0  0  0  0  0  0  0  0  0
    8.5169  -15.7718   21.8048 C   0  0  0  0  0  0  0  0  0  0  0  0
    9.6174  -15.1756   21.9141 O   0  0  0  0  0  0  0  0  0  0  0  0
    7.6556  -15.8473   22.9102 N   0  0  0  0  0  0  0  0  0  0  0  0
    7.9217  -15.1845   24.1952 C   0  0  1  0  0  0  0  0  0  0  0  0
    6.9197  -14.1006   24.3157 C   0  0  0  0  0  0  0  0  0  0  0  0
    6.8464  -13.3848   25.5774 C   0  0  0  0  0  0  0  0  0  0  0  0
    7.9686  -12.7082   26.0199 C   0  0  0  0  0  0  0  0  0  0  0  0
    8.0017  -11.9944   27.2023 C   0  0  0  0  0  0  0  0  0  0  0  0
    6.8701  -11.9545   27.9737 C   0  0  0  0  0  0  0  0  0  0  0  0
    5.7388  -12.6133   27.5675 C   0  0  0  0  0  0  0  0  0  0  0  0
    5.7333  -13.3154   26.3874 C   0  0  0  0  0  0  0  0  0  0  0  0
    7.7558  -16.1477   25.3071 C   0  0  0  0  0  0  0  0  0  0  0  0
    6.8817  -17.2191   25.2658 O   0  0  0  0  0  0  0  0  0  0  0  0
    8.4419  -15.9873   26.3445 O   0  0  0  0  0  0  0  0  0  0  0  0
  2  1  1  0
  3  2  1  0
  3  9  1  0
  4  3  2  0
  6  8  1  0
  6  5  1  6
  7  6  1  0
  8  9  1  6
  8 10  1  0
 10 12  1  0
 11 10  2  0
 12 13  1  0
 13 14  1  1
 14 15  1  0
 15 16  2  0
 15 20  1  0
 16 17  1  0
 17 18  2  0
 19 18  1  0
 20 19  2  0
 21 13  1  0
 21 22  1  0
 23 21  2  0
M  END
$$$$
