GTF.pdb
     RDKit          3D

 23 23  0  0  1  0  0  0  0  0999 V2000
    8.0135  -12.5680   18.1074 N   0  0  0  0  0  0  0  0  0  0  0  0
    8.8639  -13.2600   19.0255 C   0  0  0  0  0  0  0  0  0  0  0  0
    8.0670  -14.0395   20.0357 C   0  0  0  0  0  0  0  0  0  0  0  0
    6.8987  -14.3515   19.7684 O   0  0  0  0  0  0  0  0  0  0  0  0
    7.5184  -16.6032   20.0197 C   0  0  0  0  0  0  0  0  0  0  0  0
    8.3380  -16.7636   21.3066 C   0  0  1  0  0  0  0  0  0  0  0  0
    9.6589  -17.0325   21.0426 O   0  0  0  0  0  0  0  0  0  0  0  0
    8.1180  -15.4925   22.0997 C   0  0  2  0  0  0  0  0  0  0  0  0
    8.6584  -14.4063   21.2753 N   0  0  0  0  0  0  0  0  0  0  0  0
    8.9012  -15.5839   23.3820 C   0  0  0  0  0  0  0  0  0  0  0  0
   10.1392  -15.3703   23.3662 O   0  0  0  0  0  0  0  0  0  0  0  0
    8.2673  -15.9040   24.5924 N   0  0  0  0  0  0  0  0  0  0  0  0
    8.9332  -15.8370   25.9015 C   0  0  1  0  0  0  0  0  0  0  0  0
    7.9147  -15.3452   26.8577 C   0  0  0  0  0  0  0  0  0  0  0  0
    7.4385  -13.9825   26.6964 C   0  0  0  0  0  0  0  0  0  0  0  0
    6.1622  -13.7822   26.2027 C   0  0  0  0  0  0  0  0  0  0  0  0
    5.6137  -12.5280   26.0160 C   0  0  0  0  0  0  0  0  0  0  0  0
    6.3691  -11.4302   26.3345 C   0  0  0  0  0  0  0  0  0  0  0  0
    7.6387  -11.5897   26.8262 C   0  0  0  0  0  0  0  0  0  0  0  0
    8.1593  -12.8481   27.0021 C   0  0  0  0  0  0  0  0  0  0  0  0
    9.3929  -17.1847   26.3066 C   0  0  0  0  0  0  0  0  0  0  0  0
    9.1206  -18.3336   25.5858 O   0  0  0  0  0  0  0  0  0  0  0  0
   10.0650  -17.2956   27.3595 O   0  0  0  0  0  0  0  0  0  0  0  0
  2  1  1  0
  3  2  1  0
  3  9  1  0
  4  3  2  0
  6  8  1  0
  6  5  1  6
  7  6  1  0
  8  9  1  6
  8 10  1  0
 10 12  1  0
 11 10  2  0
 12 13  1  0
 13 14  1  1
 14 15  1  0
 15 16  2  0
 15 20  1  0
 16 17  1  0
 17 18  2  0
 19 18  1  0
 20 19  2  0
 21 13  1  0
 21 22  1  0
 23 21  2  0
M  END
$$$$
