GTF.pdb
     RDKit          3D

 23 23  0  0  1  0  0  0  0  0999 V2000
    7.9701  -12.6456   17.7186 N   0  0  0  0  0  0  0  0  0  0  0  0
    8.8740  -13.0793   18.7383 C   0  0  0  0  0  0  0  0  0  0  0  0
    8.1915  -13.9741   19.7367 C   0  0  0  0  0  0  0  0  0  0  0  0
    6.9568  -13.9420   19.8270 O   0  0  0  0  0  0  0  0  0  0  0  0
    7.9363  -17.3258   19.7144 C   0  0  0  0  0  0  0  0  0  0  0  0
    8.6742  -17.1492   21.0478 C   0  0  1  0  0  0  0  0  0  0  0  0
   10.0211  -17.3884   20.9236 O   0  0  0  0  0  0  0  0  0  0  0  0
    8.3416  -15.7508   21.5241 C   0  0  2  0  0  0  0  0  0  0  0  0
    8.9644  -14.8391   20.5584 N   0  0  0  0  0  0  0  0  0  0  0  0
    8.9626  -15.5436   22.8795 C   0  0  0  0  0  0  0  0  0  0  0  0
   10.1135  -15.0463   22.9622 O   0  0  0  0  0  0  0  0  0  0  0  0
    8.2739  -15.8981   24.0497 N   0  0  0  0  0  0  0  0  0  0  0  0
    8.7971  -15.6641   25.4037 C   0  0  1  0  0  0  0  0  0  0  0  0
    7.6368  -15.2584   26.2298 C   0  0  0  0  0  0  0  0  0  0  0  0
    7.3145  -13.8436   26.2943 C   0  0  0  0  0  0  0  0  0  0  0  0
    5.9851  -13.4713   26.3761 C   0  0  0  0  0  0  0  0  0  0  0  0
    5.5734  -12.1544   26.4463 C   0  0  0  0  0  0  0  0  0  0  0  0
    6.5264  -11.1701   26.4343 C   0  0  0  0  0  0  0  0  0  0  0  0
    7.8542  -11.5010   26.3540 C   0  0  0  0  0  0  0  0  0  0  0  0
    8.2358  -12.8184   26.2853 C   0  0  0  0  0  0  0  0  0  0  0  0
    9.3860  -16.9108   25.9426 C   0  0  0  0  0  0  0  0  0  0  0  0
   10.2513  -16.9430   27.0214 O   0  0  0  0  0  0  0  0  0  0  0  0
    9.0877  -17.9985   25.3944 O   0  0  0  0  0  0  0  0  0  0  0  0
  2  1  1  0
  3  2  1  0
  3  9  1  0
  4  3  2  0
  6  8  1  0
  6  5  1  6
  7  6  1  0
  8  9  1  6
  8 10  1  0
 10 12  1  0
 11 10  2  0
 12 13  1  0
 13 14  1  1
 14 15  1  0
 15 16  2  0
 15 20  1  0
 16 17  1  0
 17 18  2  0
 19 18  1  0
 20 19  2  0
 21 13  1  0
 21 22  1  0
 23 21  2  0
M  END
$$$$
