GTF.pdb
     RDKit          3D

 23 23  0  0  1  0  0  0  0  0999 V2000
    8.0808  -12.8575   17.5054 N   0  0  0  0  0  0  0  0  0  0  0  0
    8.9422  -13.6046   18.3685 C   0  0  0  0  0  0  0  0  0  0  0  0
    8.1819  -14.2126   19.5155 C   0  0  0  0  0  0  0  0  0  0  0  0
    7.0371  -13.8080   19.7594 O   0  0  0  0  0  0  0  0  0  0  0  0
    6.8811  -17.2485   20.0420 C   0  0  0  0  0  0  0  0  0  0  0  0
    7.8600  -17.2261   21.2230 C   0  0  1  0  0  0  0  0  0  0  0  0
    8.9895  -17.9644   20.9664 O   0  0  0  0  0  0  0  0  0  0  0  0
    8.1348  -15.7642   21.5065 C   0  0  2  0  0  0  0  0  0  0  0  0
    8.7804  -15.2358   20.3001 N   0  0  0  0  0  0  0  0  0  0  0  0
    9.0895  -15.6702   22.6664 C   0  0  0  0  0  0  0  0  0  0  0  0
   10.3149  -15.5017   22.4457 O   0  0  0  0  0  0  0  0  0  0  0  0
    8.6293  -15.7680   23.9885 N   0  0  0  0  0  0  0  0  0  0  0  0
    9.5006  -15.6320   25.1650 C   0  0  1  0  0  0  0  0  0  0  0  0
    9.5272  -14.1882   25.4939 C   0  0  0  0  0  0  0  0  0  0  0  0
    8.2800  -13.5645   25.9007 C   0  0  0  0  0  0  0  0  0  0  0  0
    8.1585  -13.1174   27.2038 C   0  0  0  0  0  0  0  0  0  0  0  0
    7.0177  -12.5076   27.6888 C   0  0  0  0  0  0  0  0  0  0  0  0
    5.9560  -12.3373   26.8396 C   0  0  0  0  0  0  0  0  0  0  0  0
    6.0398  -12.7680   25.5409 C   0  0  0  0  0  0  0  0  0  0  0  0
    7.1860  -13.3712   25.0848 C   0  0  0  0  0  0  0  0  0  0  0  0
    8.9403  -16.3960   26.3025 C   0  0  0  0  0  0  0  0  0  0  0  0
    7.7386  -17.0788   26.2464 O   0  0  0  0  0  0  0  0  0  0  0  0
    9.5862  -16.4281   27.3770 O   0  0  0  0  0  0  0  0  0  0  0  0
  2  1  1  0
  3  2  1  0
  3  9  1  0
  4  3  2  0
  6  8  1  0
  6  5  1  6
  7  6  1  0
  8  9  1  6
  8 10  1  0
 10 12  1  0
 11 10  2  0
 12 13  1  0
 13 14  1  1
 14 15  1  0
 15 16  2  0
 15 20  1  0
 16 17  1  0
 17 18  2  0
 19 18  1  0
 20 19  2  0
 21 13  1  0
 21 22  1  0
 23 21  2  0
M  END
$$$$
