GTF.pdb
     RDKit          3D

 23 23  0  0  1  0  0  0  0  0999 V2000
    7.9481  -12.4639   18.2846 N   0  0  0  0  0  0  0  0  0  0  0  0
    8.8539  -13.0907   19.1966 C   0  0  0  0  0  0  0  0  0  0  0  0
    8.1243  -13.9300   20.2098 C   0  0  0  0  0  0  0  0  0  0  0  0
    6.9200  -13.7203   20.4087 O   0  0  0  0  0  0  0  0  0  0  0  0
    7.5225  -17.3185   20.1321 C   0  0  0  0  0  0  0  0  0  0  0  0
    8.3227  -17.2147   21.4368 C   0  0  1  0  0  0  0  0  0  0  0  0
    9.6334  -17.5879   21.2651 O   0  0  0  0  0  0  0  0  0  0  0  0
    8.1495  -15.7893   21.9176 C   0  0  2  0  0  0  0  0  0  0  0  0
    8.8189  -14.9456   20.9217 N   0  0  0  0  0  0  0  0  0  0  0  0
    8.8432  -15.6416   23.2453 C   0  0  0  0  0  0  0  0  0  0  0  0
    9.9712  -15.0905   23.2949 O   0  0  0  0  0  0  0  0  0  0  0  0
    8.2471  -16.1106   24.4260 N   0  0  0  0  0  0  0  0  0  0  0  0
    8.8639  -15.9829   25.7545 C   0  0  1  0  0  0  0  0  0  0  0  0
    7.7946  -15.5064   26.6617 C   0  0  0  0  0  0  0  0  0  0  0  0
    7.4850  -14.0873   26.6548 C   0  0  0  0  0  0  0  0  0  0  0  0
    6.1774  -13.6969   26.4296 C   0  0  0  0  0  0  0  0  0  0  0  0
    5.7781  -12.3745   26.4074 C   0  0  0  0  0  0  0  0  0  0  0  0
    6.7212  -11.4033   26.6181 C   0  0  0  0  0  0  0  0  0  0  0  0
    8.0274  -11.7523   26.8444 C   0  0  0  0  0  0  0  0  0  0  0  0
    8.3970  -13.0747   26.8612 C   0  0  0  0  0  0  0  0  0  0  0  0
    9.3606  -17.3003   26.2121 C   0  0  0  0  0  0  0  0  0  0  0  0
   10.1658  -17.4691   27.3242 O   0  0  0  0  0  0  0  0  0  0  0  0
    9.0370  -18.3209   25.5591 O   0  0  0  0  0  0  0  0  0  0  0  0
  2  1  1  0
  3  2  1  0
  3  9  1  0
  4  3  2  0
  6  8  1  0
  6  5  1  6
  7  6  1  0
  8  9  1  6
  8 10  1  0
 10 12  1  0
 11 10  2  0
 12 13  1  0
 13 14  1  1
 14 15  1  0
 15 16  2  0
 15 20  1  0
 16 17  1  0
 17 18  2  0
 19 18  1  0
 20 19  2  0
 21 13  1  0
 21 22  1  0
 23 21  2  0
M  END
$$$$
