GTF.pdb
     RDKit          3D

 23 23  0  0  1  0  0  0  0  0999 V2000
    8.4662  -12.4602   18.0489 N   0  0  0  0  0  0  0  0  0  0  0  0
    8.9228  -13.6976   18.6016 C   0  0  0  0  0  0  0  0  0  0  0  0
    8.2904  -13.9715   19.9388 C   0  0  0  0  0  0  0  0  0  0  0  0
    7.8985  -13.0179   20.6250 O   0  0  0  0  0  0  0  0  0  0  0  0
    5.8882  -16.8699   20.3965 C   0  0  0  0  0  0  0  0  0  0  0  0
    6.9160  -17.0000   21.5279 C   0  0  1  0  0  0  0  0  0  0  0  0
    7.8305  -17.9939   21.2776 O   0  0  0  0  0  0  0  0  0  0  0  0
    7.5325  -15.6263   21.6885 C   0  0  2  0  0  0  0  0  0  0  0  0
    8.1506  -15.3101   20.3964 N   0  0  0  0  0  0  0  0  0  0  0  0
    8.5989  -15.6983   22.7484 C   0  0  0  0  0  0  0  0  0  0  0  0
    9.8052  -15.7785   22.4065 O   0  0  0  0  0  0  0  0  0  0  0  0
    8.2634  -15.6771   24.1109 N   0  0  0  0  0  0  0  0  0  0  0  0
    9.2579  -15.6969   25.1936 C   0  0  1  0  0  0  0  0  0  0  0  0
    9.3527  -14.3056   25.6923 C   0  0  0  0  0  0  0  0  0  0  0  0
    8.1173  -13.6293   26.0475 C   0  0  0  0  0  0  0  0  0  0  0  0
    8.1047  -12.8219   27.1704 C   0  0  0  0  0  0  0  0  0  0  0  0
    6.9840  -12.1324   27.5912 C   0  0  0  0  0  0  0  0  0  0  0  0
    5.8300  -12.2535   26.8626 C   0  0  0  0  0  0  0  0  0  0  0  0
    5.8045  -13.0450   25.7437 C   0  0  0  0  0  0  0  0  0  0  0  0
    6.9332  -13.7195   25.3477 C   0  0  0  0  0  0  0  0  0  0  0  0
    8.8045  -16.5910   26.2829 C   0  0  0  0  0  0  0  0  0  0  0  0
    9.5750  -16.8985   27.3898 O   0  0  0  0  0  0  0  0  0  0  0  0
    7.6611  -17.0999   26.2016 O   0  0  0  0  0  0  0  0  0  0  0  0
  2  1  1  0
  3  2  1  0
  3  9  1  0
  4  3  2  0
  6  8  1  0
  6  5  1  6
  7  6  1  0
  8  9  1  6
  8 10  1  0
 10 12  1  0
 11 10  2  0
 12 13  1  0
 13 14  1  1
 14 15  1  0
 15 16  2  0
 15 20  1  0
 16 17  1  0
 17 18  2  0
 19 18  1  0
 20 19  2  0
 21 13  1  0
 21 22  1  0
 23 21  2  0
M  END
$$$$
