GTF.pdb
     RDKit          3D

 23 23  0  0  1  0  0  0  0  0999 V2000
    2.6529  -18.4481   21.1474 N   0  0  0  0  0  0  0  0  0  0  0  0
    3.4300  -17.2505   21.2296 C   0  0  0  0  0  0  0  0  0  0  0  0
    4.8981  -17.5529   21.3581 C   0  0  0  0  0  0  0  0  0  0  0  0
    5.2632  -18.7330   21.4459 O   0  0  0  0  0  0  0  0  0  0  0  0
    7.5815  -17.3522   19.3205 C   0  0  0  0  0  0  0  0  0  0  0  0
    7.9982  -16.3286   20.3846 C   0  0  1  0  0  0  0  0  0  0  0  0
    7.7536  -15.0393   19.9789 O   0  0  0  0  0  0  0  0  0  0  0  0
    7.2645  -16.7227   21.6493 C   0  0  2  0  0  0  0  0  0  0  0  0
    5.8420  -16.4901   21.3771 N   0  0  0  0  0  0  0  0  0  0  0  0
    7.7136  -15.8202   22.7671 C   0  0  0  0  0  0  0  0  0  0  0  0
    7.4004  -14.6037   22.7426 O   0  0  0  0  0  0  0  0  0  0  0  0
    8.4761  -16.3193   23.8343 N   0  0  0  0  0  0  0  0  0  0  0  0
    8.9397  -15.4932   24.9587 C   0  0  1  0  0  0  0  0  0  0  0  0
    7.7737  -15.3266   25.8564 C   0  0  0  0  0  0  0  0  0  0  0  0
    7.2787  -13.9792   26.0785 C   0  0  0  0  0  0  0  0  0  0  0  0
    7.7412  -12.9621   25.2635 C   0  0  0  0  0  0  0  0  0  0  0  0
    7.3305  -11.6490   25.3890 C   0  0  0  0  0  0  0  0  0  0  0  0
    6.4222  -11.3388   26.3667 C   0  0  0  0  0  0  0  0  0  0  0  0
    5.9415  -12.3206   27.1937 C   0  0  0  0  0  0  0  0  0  0  0  0
    6.3667  -13.6181   27.0470 C   0  0  0  0  0  0  0  0  0  0  0  0
   10.0333  -16.1840   25.6788 C   0  0  0  0  0  0  0  0  0  0  0  0
   10.9903  -15.5245   26.4289 O   0  0  0  0  0  0  0  0  0  0  0  0
   10.0999  -17.4342   25.6072 O   0  0  0  0  0  0  0  0  0  0  0  0
  2  1  1  0
  3  2  1  0
  3  9  1  0
  4  3  2  0
  6  8  1  0
  6  5  1  6
  7  6  1  0
  8  9  1  6
  8 10  1  0
 10 12  1  0
 11 10  2  0
 12 13  1  0
 13 14  1  1
 14 15  1  0
 15 16  2  0
 15 20  1  0
 16 17  1  0
 17 18  2  0
 19 18  1  0
 20 19  2  0
 21 13  1  0
 21 22  1  0
 23 21  2  0
M  END
$$$$
