GTF.pdb
     RDKit          3D

 23 23  0  0  1  0  0  0  0  0999 V2000
    2.5986  -18.9787   20.7702 N   0  0  0  0  0  0  0  0  0  0  0  0
    3.2540  -17.8186   21.2895 C   0  0  0  0  0  0  0  0  0  0  0  0
    4.7441  -18.0125   21.3616 C   0  0  0  0  0  0  0  0  0  0  0  0
    5.2122  -19.1450   21.1828 O   0  0  0  0  0  0  0  0  0  0  0  0
    7.0079  -17.8544   19.4264 C   0  0  0  0  0  0  0  0  0  0  0  0
    7.5785  -16.7556   20.3322 C   0  0  1  0  0  0  0  0  0  0  0  0
    7.2697  -15.4993   19.8705 O   0  0  0  0  0  0  0  0  0  0  0  0
    7.0486  -17.0456   21.7207 C   0  0  2  0  0  0  0  0  0  0  0  0
    5.5913  -16.9034   21.6320 N   0  0  0  0  0  0  0  0  0  0  0  0
    7.5947  -16.0127   22.6697 C   0  0  0  0  0  0  0  0  0  0  0  0
    7.0671  -14.8732   22.7129 O   0  0  0  0  0  0  0  0  0  0  0  0
    8.6835  -16.3057   23.5052 N   0  0  0  0  0  0  0  0  0  0  0  0
    9.2860  -15.3319   24.4274 C   0  0  1  0  0  0  0  0  0  0  0  0
    8.5135  -15.4246   25.6876 C   0  0  0  0  0  0  0  0  0  0  0  0
    7.6628  -14.3023   26.0431 C   0  0  0  0  0  0  0  0  0  0  0  0
    8.0345  -13.5021   27.1082 C   0  0  0  0  0  0  0  0  0  0  0  0
    7.2984  -12.4094   27.5238 C   0  0  0  0  0  0  0  0  0  0  0  0
    6.1455  -12.1033   26.8498 C   0  0  0  0  0  0  0  0  0  0  0  0
    5.7451  -12.8738   25.7892 C   0  0  0  0  0  0  0  0  0  0  0  0
    6.4960  -13.9546   25.3969 C   0  0  0  0  0  0  0  0  0  0  0  0
   10.7023  -15.6808   24.6797 C   0  0  0  0  0  0  0  0  0  0  0  0
   11.6838  -14.7441   24.9495 O   0  0  0  0  0  0  0  0  0  0  0  0
   11.0350  -16.8896   24.6474 O   0  0  0  0  0  0  0  0  0  0  0  0
  2  1  1  0
  3  2  1  0
  3  9  1  0
  4  3  2  0
  6  8  1  0
  6  5  1  6
  7  6  1  0
  8  9  1  6
  8 10  1  0
 10 12  1  0
 11 10  2  0
 12 13  1  0
 13 14  1  1
 14 15  1  0
 15 16  2  0
 15 20  1  0
 16 17  1  0
 17 18  2  0
 19 18  1  0
 20 19  2  0
 21 13  1  0
 21 22  1  0
 23 21  2  0
M  END
$$$$
