GTF.pdb
     RDKit          3D

 23 23  0  0  1  0  0  0  0  0999 V2000
    8.0504  -12.7491   17.9678 N   0  0  0  0  0  0  0  0  0  0  0  0
    8.9245  -13.1993   19.0062 C   0  0  0  0  0  0  0  0  0  0  0  0
    8.1715  -13.9351   20.0809 C   0  0  0  0  0  0  0  0  0  0  0  0
    6.9582  -13.7264   20.2151 O   0  0  0  0  0  0  0  0  0  0  0  0
    7.3354  -17.1277   20.2544 C   0  0  0  0  0  0  0  0  0  0  0  0
    8.1919  -17.0581   21.5253 C   0  0  1  0  0  0  0  0  0  0  0  0
    9.4586  -17.5466   21.3169 O   0  0  0  0  0  0  0  0  0  0  0  0
    8.1586  -15.6108   21.9693 C   0  0  2  0  0  0  0  0  0  0  0  0
    8.8549  -14.8539   20.9233 N   0  0  0  0  0  0  0  0  0  0  0  0
    8.9163  -15.4872   23.2641 C   0  0  0  0  0  0  0  0  0  0  0  0
   10.0770  -15.0060   23.2571 O   0  0  0  0  0  0  0  0  0  0  0  0
    8.3440  -15.9016   24.4765 N   0  0  0  0  0  0  0  0  0  0  0  0
    9.0144  -15.7715   25.7786 C   0  0  1  0  0  0  0  0  0  0  0  0
    7.9731  -15.3343   26.7367 C   0  0  0  0  0  0  0  0  0  0  0  0
    7.5321  -13.9519   26.6714 C   0  0  0  0  0  0  0  0  0  0  0  0
    6.2147  -13.6930   26.3394 C   0  0  0  0  0  0  0  0  0  0  0  0
    5.6951  -12.4158   26.2546 C   0  0  0  0  0  0  0  0  0  0  0  0
    6.5232  -11.3548   26.5110 C   0  0  0  0  0  0  0  0  0  0  0  0
    7.8352  -11.5725   26.8430 C   0  0  0  0  0  0  0  0  0  0  0  0
    8.3258  -12.8528   26.9203 C   0  0  0  0  0  0  0  0  0  0  0  0
    9.5657  -17.0797   26.1985 C   0  0  0  0  0  0  0  0  0  0  0  0
   10.4020  -17.2422   27.2882 O   0  0  0  0  0  0  0  0  0  0  0  0
    9.2613  -18.0981   25.5329 O   0  0  0  0  0  0  0  0  0  0  0  0
  2  1  1  0
  3  2  1  0
  3  9  1  0
  4  3  2  0
  6  8  1  0
  6  5  1  6
  7  6  1  0
  8  9  1  6
  8 10  1  0
 10 12  1  0
 11 10  2  0
 12 13  1  0
 13 14  1  1
 14 15  1  0
 15 16  2  0
 15 20  1  0
 16 17  1  0
 17 18  2  0
 19 18  1  0
 20 19  2  0
 21 13  1  0
 21 22  1  0
 23 21  2  0
M  END
$$$$
