GTF.pdb
     RDKit          3D

 23 23  0  0  1  0  0  0  0  0999 V2000
    8.2240  -12.7867   17.4130 N   0  0  0  0  0  0  0  0  0  0  0  0
    8.9040  -13.7392   18.2348 C   0  0  0  0  0  0  0  0  0  0  0  0
    8.0714  -14.1372   19.4229 C   0  0  0  0  0  0  0  0  0  0  0  0
    6.8403  -14.0170   19.3614 O   0  0  0  0  0  0  0  0  0  0  0  0
    6.5836  -16.2227   19.9016 C   0  0  0  0  0  0  0  0  0  0  0  0
    7.4242  -16.5754   21.1355 C   0  0  1  0  0  0  0  0  0  0  0  0
    8.4184  -17.4754   20.8381 O   0  0  0  0  0  0  0  0  0  0  0  0
    7.9335  -15.2578   21.6810 C   0  0  2  0  0  0  0  0  0  0  0  0
    8.7010  -14.6426   20.5928 N   0  0  0  0  0  0  0  0  0  0  0  0
    8.8497  -15.5395   22.8417 C   0  0  0  0  0  0  0  0  0  0  0  0
   10.0363  -15.8889   22.6214 O   0  0  0  0  0  0  0  0  0  0  0  0
    8.3962  -15.4169   24.1641 N   0  0  0  0  0  0  0  0  0  0  0  0
    9.2596  -15.5999   25.3400 C   0  0  1  0  0  0  0  0  0  0  0  0
    9.4263  -14.2571   25.9422 C   0  0  0  0  0  0  0  0  0  0  0  0
    8.2407  -13.4314   26.0918 C   0  0  0  0  0  0  0  0  0  0  0  0
    8.0019  -12.8326   27.3154 C   0  0  0  0  0  0  0  0  0  0  0  0
    6.9072  -12.0262   27.5598 C   0  0  0  0  0  0  0  0  0  0  0  0
    6.0153  -11.8089   26.5427 C   0  0  0  0  0  0  0  0  0  0  0  0
    6.2189  -12.3859   25.3161 C   0  0  0  0  0  0  0  0  0  0  0  0
    7.3159  -13.1833   25.1003 C   0  0  0  0  0  0  0  0  0  0  0  0
    8.6088  -16.5084   26.3109 C   0  0  0  0  0  0  0  0  0  0  0  0
    9.2174  -16.9476   27.4729 O   0  0  0  0  0  0  0  0  0  0  0  0
    7.4433  -16.9042   26.0708 O   0  0  0  0  0  0  0  0  0  0  0  0
  2  1  1  0
  3  2  1  0
  3  9  1  0
  4  3  2  0
  6  8  1  0
  6  5  1  6
  7  6  1  0
  8  9  1  6
  8 10  1  0
 10 12  1  0
 11 10  2  0
 12 13  1  0
 13 14  1  1
 14 15  1  0
 15 16  2  0
 15 20  1  0
 16 17  1  0
 17 18  2  0
 19 18  1  0
 20 19  2  0
 21 13  1  0
 21 22  1  0
 23 21  2  0
M  END
$$$$
