GTF.pdb
     RDKit          3D

 23 23  0  0  1  0  0  0  0  0999 V2000
   12.2423  -13.6685   18.8477 N   0  0  0  0  0  0  0  0  0  0  0  0
   11.6780  -14.7705   19.5635 C   0  0  0  0  0  0  0  0  0  0  0  0
   10.5846  -14.3222   20.4944 C   0  0  0  0  0  0  0  0  0  0  0  0
   10.4993  -13.1219   20.7874 O   0  0  0  0  0  0  0  0  0  0  0  0
    7.0310  -14.6701   20.0955 C   0  0  0  0  0  0  0  0  0  0  0  0
    7.3239  -15.4706   21.3710 C   0  0  1  0  0  0  0  0  0  0  0  0
    7.3952  -16.8199   21.1240 O   0  0  0  0  0  0  0  0  0  0  0  0
    8.5966  -14.8848   21.9455 C   0  0  2  0  0  0  0  0  0  0  0  0
    9.6692  -15.2726   21.0230 N   0  0  0  0  0  0  0  0  0  0  0  0
    8.8472  -15.5068   23.2931 C   0  0  0  0  0  0  0  0  0  0  0  0
    9.8909  -16.1814   23.4777 O   0  0  0  0  0  0  0  0  0  0  0  0
    7.9316  -15.3430   24.3439 N   0  0  0  0  0  0  0  0  0  0  0  0
    8.1561  -15.8523   25.7048 C   0  0  1  0  0  0  0  0  0  0  0  0
    7.0821  -15.2732   26.5443 C   0  0  0  0  0  0  0  0  0  0  0  0
    6.9774  -13.8257   26.6043 C   0  0  0  0  0  0  0  0  0  0  0  0
    8.1299  -13.0869   26.8007 C   0  0  0  0  0  0  0  0  0  0  0  0
    8.1391  -11.7070   26.8685 C   0  0  0  0  0  0  0  0  0  0  0  0
    6.9508  -11.0381   26.7351 C   0  0  0  0  0  0  0  0  0  0  0  0
    5.7879  -11.7368   26.5394 C   0  0  0  0  0  0  0  0  0  0  0  0
    5.8073  -13.1084   26.4759 C   0  0  0  0  0  0  0  0  0  0  0  0
    8.0608  -17.3296   25.7159 C   0  0  0  0  0  0  0  0  0  0  0  0
    7.6351  -18.0760   24.6319 O   0  0  0  0  0  0  0  0  0  0  0  0
    8.3816  -17.9414   26.7626 O   0  0  0  0  0  0  0  0  0  0  0  0
  2  1  1  0
  3  2  1  0
  3  9  1  0
  4  3  2  0
  6  8  1  0
  6  5  1  6
  7  6  1  0
  8  9  1  6
  8 10  1  0
 10 12  1  0
 11 10  2  0
 12 13  1  0
 13 14  1  1
 14 15  1  0
 15 16  2  0
 15 20  1  0
 16 17  1  0
 17 18  2  0
 19 18  1  0
 20 19  2  0
 21 13  1  0
 21 22  1  0
 23 21  2  0
M  END
$$$$
