GTF.pdb
     RDKit          3D

 23 23  0  0  1  0  0  0  0  0999 V2000
    7.7336  -12.7196   17.9857 N   0  0  0  0  0  0  0  0  0  0  0  0
    8.6917  -13.2859   18.8838 C   0  0  0  0  0  0  0  0  0  0  0  0
    8.0242  -14.0732   19.9782 C   0  0  0  0  0  0  0  0  0  0  0  0
    6.7974  -13.9826   20.1213 O   0  0  0  0  0  0  0  0  0  0  0  0
    7.5800  -17.3251   20.1330 C   0  0  0  0  0  0  0  0  0  0  0  0
    8.3870  -17.1699   21.4284 C   0  0  1  0  0  0  0  0  0  0  0  0
    9.7036  -17.5222   21.2572 O   0  0  0  0  0  0  0  0  0  0  0  0
    8.1892  -15.7355   21.8713 C   0  0  2  0  0  0  0  0  0  0  0  0
    8.8020  -14.9053   20.8288 N   0  0  0  0  0  0  0  0  0  0  0  0
    8.9209  -15.5276   23.1702 C   0  0  0  0  0  0  0  0  0  0  0  0
   10.0578  -14.9929   23.1601 O   0  0  0  0  0  0  0  0  0  0  0  0
    8.3504  -15.9227   24.3900 N   0  0  0  0  0  0  0  0  0  0  0  0
    9.0020  -15.7275   25.6935 C   0  0  1  0  0  0  0  0  0  0  0  0
    7.9242  -15.3691   26.6439 C   0  0  0  0  0  0  0  0  0  0  0  0
    7.3455  -14.0409   26.5402 C   0  0  0  0  0  0  0  0  0  0  0  0
    8.0704  -12.9646   27.0187 C   0  0  0  0  0  0  0  0  0  0  0  0
    7.6124  -11.6624   26.9638 C   0  0  0  0  0  0  0  0  0  0  0  0
    6.3822  -11.4249   26.4094 C   0  0  0  0  0  0  0  0  0  0  0  0
    5.6349  -12.4669   25.9248 C   0  0  0  0  0  0  0  0  0  0  0  0
    6.1143  -13.7519   25.9920 C   0  0  0  0  0  0  0  0  0  0  0  0
    9.6567  -16.9826   26.1266 C   0  0  0  0  0  0  0  0  0  0  0  0
   10.5653  -17.0508   27.1674 O   0  0  0  0  0  0  0  0  0  0  0  0
    9.3760  -18.0435   25.5196 O   0  0  0  0  0  0  0  0  0  0  0  0
  2  1  1  0
  3  2  1  0
  3  9  1  0
  4  3  2  0
  6  8  1  0
  6  5  1  6
  7  6  1  0
  8  9  1  6
  8 10  1  0
 10 12  1  0
 11 10  2  0
 12 13  1  0
 13 14  1  1
 14 15  1  0
 15 16  2  0
 15 20  1  0
 16 17  1  0
 17 18  2  0
 19 18  1  0
 20 19  2  0
 21 13  1  0
 21 22  1  0
 23 21  2  0
M  END
$$$$
