GTF.pdb
     RDKit          3D

 23 23  0  0  1  0  0  0  0  0999 V2000
    7.9656  -13.0474   17.3603 N   0  0  0  0  0  0  0  0  0  0  0  0
    8.8661  -13.6340   18.3037 C   0  0  0  0  0  0  0  0  0  0  0  0
    8.1285  -14.2511   19.4607 C   0  0  0  0  0  0  0  0  0  0  0  0
    6.9075  -14.4353   19.3655 O   0  0  0  0  0  0  0  0  0  0  0  0
    6.9640  -16.4685   19.9274 C   0  0  0  0  0  0  0  0  0  0  0  0
    7.8810  -16.7373   21.1276 C   0  0  1  0  0  0  0  0  0  0  0  0
    8.9910  -17.4640   20.7717 O   0  0  0  0  0  0  0  0  0  0  0  0
    8.2007  -15.3799   21.7178 C   0  0  2  0  0  0  0  0  0  0  0  0
    8.8347  -14.6128   20.6402 N   0  0  0  0  0  0  0  0  0  0  0  0
    9.1818  -15.5640   22.8444 C   0  0  0  0  0  0  0  0  0  0  0  0
   10.3987  -15.7344   22.5821 O   0  0  0  0  0  0  0  0  0  0  0  0
    8.7556  -15.5477   24.1813 N   0  0  0  0  0  0  0  0  0  0  0  0
    9.6752  -15.5692   25.3283 C   0  0  1  0  0  0  0  0  0  0  0  0
    9.7009  -14.1880   25.8623 C   0  0  0  0  0  0  0  0  0  0  0  0
    8.4274  -13.5447   26.1345 C   0  0  0  0  0  0  0  0  0  0  0  0
    7.7276  -12.9900   25.0784 C   0  0  0  0  0  0  0  0  0  0  0  0
    6.5073  -12.3603   25.2298 C   0  0  0  0  0  0  0  0  0  0  0  0
    5.9639  -12.2810   26.4850 C   0  0  0  0  0  0  0  0  0  0  0  0
    6.6287  -12.8192   27.5562 C   0  0  0  0  0  0  0  0  0  0  0  0
    7.8406  -13.4398   27.3774 C   0  0  0  0  0  0  0  0  0  0  0  0
    9.1722  -16.4990   26.3646 C   0  0  0  0  0  0  0  0  0  0  0  0
    8.0274  -17.2614   26.2165 O   0  0  0  0  0  0  0  0  0  0  0  0
    9.8149  -16.6039   27.4364 O   0  0  0  0  0  0  0  0  0  0  0  0
  2  1  1  0
  3  2  1  0
  3  9  1  0
  4  3  2  0
  6  8  1  0
  6  5  1  6
  7  6  1  0
  8  9  1  6
  8 10  1  0
 10 12  1  0
 11 10  2  0
 12 13  1  0
 13 14  1  1
 14 15  1  0
 15 16  2  0
 15 20  1  0
 16 17  1  0
 17 18  2  0
 19 18  1  0
 20 19  2  0
 21 13  1  0
 21 22  1  0
 23 21  2  0
M  END
$$$$
