GTF.pdb
     RDKit          3D

 23 23  0  0  1  0  0  0  0  0999 V2000
    8.2228  -12.3529   18.1495 N   0  0  0  0  0  0  0  0  0  0  0  0
    9.0485  -13.2348   18.9147 C   0  0  0  0  0  0  0  0  0  0  0  0
    8.2744  -13.8910   20.0253 C   0  0  0  0  0  0  0  0  0  0  0  0
    7.1713  -13.4273   20.3445 O   0  0  0  0  0  0  0  0  0  0  0  0
    7.0672  -17.1814   20.1763 C   0  0  0  0  0  0  0  0  0  0  0  0
    7.9936  -17.1447   21.3986 C   0  0  1  0  0  0  0  0  0  0  0  0
    9.2027  -17.7445   21.1433 O   0  0  0  0  0  0  0  0  0  0  0  0
    8.1040  -15.6865   21.7919 C   0  0  2  0  0  0  0  0  0  0  0  0
    8.8127  -15.0261   20.6905 N   0  0  0  0  0  0  0  0  0  0  0  0
    8.9286  -15.5879   23.0473 C   0  0  0  0  0  0  0  0  0  0  0  0
   10.1544  -15.3257   22.9622 O   0  0  0  0  0  0  0  0  0  0  0  0
    8.3468  -15.7846   24.3091 N   0  0  0  0  0  0  0  0  0  0  0  0
    9.0773  -15.6257   25.5751 C   0  0  1  0  0  0  0  0  0  0  0  0
    8.0709  -15.2234   26.5844 C   0  0  0  0  0  0  0  0  0  0  0  0
    7.5243  -13.8806   26.4960 C   0  0  0  0  0  0  0  0  0  0  0  0
    6.1908  -13.7302   26.1613 C   0  0  0  0  0  0  0  0  0  0  0  0
    5.5740  -12.4986   26.0552 C   0  0  0  0  0  0  0  0  0  0  0  0
    6.3174  -11.3725   26.2925 C   0  0  0  0  0  0  0  0  0  0  0  0
    7.6423  -11.4824   26.6266 C   0  0  0  0  0  0  0  0  0  0  0  0
    8.2305  -12.7193   26.7252 C   0  0  0  0  0  0  0  0  0  0  0  0
    9.6969  -16.9114   25.9684 C   0  0  0  0  0  0  0  0  0  0  0  0
   10.6846  -17.0209   26.9307 O   0  0  0  0  0  0  0  0  0  0  0  0
    9.3089  -17.9602   25.4008 O   0  0  0  0  0  0  0  0  0  0  0  0
  2  1  1  0
  3  2  1  0
  3  9  1  0
  4  3  2  0
  6  8  1  0
  6  5  1  6
  7  6  1  0
  8  9  1  6
  8 10  1  0
 10 12  1  0
 11 10  2  0
 12 13  1  0
 13 14  1  1
 14 15  1  0
 15 16  2  0
 15 20  1  0
 16 17  1  0
 17 18  2  0
 19 18  1  0
 20 19  2  0
 21 13  1  0
 21 22  1  0
 23 21  2  0
M  END
$$$$
