GTF.pdb
     RDKit          3D

 23 23  0  0  1  0  0  0  0  0999 V2000
    8.2296  -12.8637   17.4724 N   0  0  0  0  0  0  0  0  0  0  0  0
    8.9545  -13.2305   18.6492 C   0  0  0  0  0  0  0  0  0  0  0  0
    8.0864  -13.9845   19.6195 C   0  0  0  0  0  0  0  0  0  0  0  0
    6.9506  -14.3298   19.2668 O   0  0  0  0  0  0  0  0  0  0  0  0
    6.9753  -16.2413   19.8027 C   0  0  0  0  0  0  0  0  0  0  0  0
    7.7793  -16.5262   21.0779 C   0  0  1  0  0  0  0  0  0  0  0  0
    9.0012  -17.0881   20.7985 O   0  0  0  0  0  0  0  0  0  0  0  0
    7.8659  -15.2075   21.8171 C   0  0  2  0  0  0  0  0  0  0  0  0
    8.5750  -14.2897   20.9191 N   0  0  0  0  0  0  0  0  0  0  0  0
    8.6781  -15.4096   23.0682 C   0  0  0  0  0  0  0  0  0  0  0  0
    9.9233  -15.2464   23.0294 O   0  0  0  0  0  0  0  0  0  0  0  0
    8.0635  -15.7771   24.2750 N   0  0  0  0  0  0  0  0  0  0  0  0
    8.7440  -15.7421   25.5779 C   0  0  1  0  0  0  0  0  0  0  0  0
    7.7214  -15.3289   26.5664 C   0  0  0  0  0  0  0  0  0  0  0  0
    7.3211  -13.9328   26.5815 C   0  0  0  0  0  0  0  0  0  0  0  0
    5.9752  -13.6297   26.4852 C   0  0  0  0  0  0  0  0  0  0  0  0
    5.4907  -12.3359   26.4946 C   0  0  0  0  0  0  0  0  0  0  0  0
    6.3850  -11.3038   26.6043 C   0  0  0  0  0  0  0  0  0  0  0  0
    7.7270  -11.5656   26.7017 C   0  0  0  0  0  0  0  0  0  0  0  0
    8.1815  -12.8614   26.6899 C   0  0  0  0  0  0  0  0  0  0  0  0
    9.2570  -17.0882   25.9188 C   0  0  0  0  0  0  0  0  0  0  0  0
   10.1578  -17.3263   26.9413 O   0  0  0  0  0  0  0  0  0  0  0  0
    8.8566  -18.0684   25.2467 O   0  0  0  0  0  0  0  0  0  0  0  0
  2  1  1  0
  3  2  1  0
  3  9  1  0
  4  3  2  0
  6  8  1  0
  6  5  1  6
  7  6  1  0
  8  9  1  6
  8 10  1  0
 10 12  1  0
 11 10  2  0
 12 13  1  0
 13 14  1  1
 14 15  1  0
 15 16  2  0
 15 20  1  0
 16 17  1  0
 17 18  2  0
 19 18  1  0
 20 19  2  0
 21 13  1  0
 21 22  1  0
 23 21  2  0
M  END
$$$$
