GTF.pdb
     RDKit          3D

 23 23  0  0  1  0  0  0  0  0999 V2000
    7.9923  -12.0973   18.8943 N   0  0  0  0  0  0  0  0  0  0  0  0
    8.8439  -13.1028   19.4501 C   0  0  0  0  0  0  0  0  0  0  0  0
    8.1342  -13.9045   20.5070 C   0  0  0  0  0  0  0  0  0  0  0  0
    7.2022  -13.3819   21.1331 O   0  0  0  0  0  0  0  0  0  0  0  0
    7.1878  -18.3248   22.3359 C   0  0  0  0  0  0  0  0  0  0  0  0
    7.9794  -17.4879   21.3228 C   0  0  1  0  0  0  0  0  0  0  0  0
    7.5255  -17.6726   20.0396 O   0  0  0  0  0  0  0  0  0  0  0  0
    7.8868  -16.0555   21.8054 C   0  0  2  0  0  0  0  0  0  0  0  0
    8.5375  -15.2413   20.7733 N   0  0  0  0  0  0  0  0  0  0  0  0
    8.6521  -15.9320   23.0957 C   0  0  0  0  0  0  0  0  0  0  0  0
    9.9056  -15.8512   23.0651 O   0  0  0  0  0  0  0  0  0  0  0  0
    7.9847  -15.9060   24.3299 N   0  0  0  0  0  0  0  0  0  0  0  0
    8.6755  -15.8813   25.6275 C   0  0  1  0  0  0  0  0  0  0  0  0
    7.6701  -15.4407   26.6217 C   0  0  0  0  0  0  0  0  0  0  0  0
    7.2554  -14.0490   26.5925 C   0  0  0  0  0  0  0  0  0  0  0  0
    8.2259  -13.0678   26.6824 C   0  0  0  0  0  0  0  0  0  0  0  0
    7.9373  -11.7169   26.6597 C   0  0  0  0  0  0  0  0  0  0  0  0
    6.6281  -11.3301   26.5427 C   0  0  0  0  0  0  0  0  0  0  0  0
    5.6388  -12.2744   26.4514 C   0  0  0  0  0  0  0  0  0  0  0  0
    5.9536  -13.6108   26.4765 C   0  0  0  0  0  0  0  0  0  0  0  0
    9.1600  -17.2375   25.9704 C   0  0  0  0  0  0  0  0  0  0  0  0
    8.7686  -18.3814   25.2981 O   0  0  0  0  0  0  0  0  0  0  0  0
    9.9683  -17.3609   26.9212 O   0  0  0  0  0  0  0  0  0  0  0  0
  2  1  1  0
  3  2  1  0
  3  9  1  0
  4  3  2  0
  6  8  1  0
  6  5  1  1
  7  6  1  0
  8  9  1  6
  8 10  1  0
 10 12  1  0
 11 10  2  0
 12 13  1  0
 13 14  1  1
 14 15  1  0
 15 16  2  0
 15 20  1  0
 16 17  1  0
 17 18  2  0
 19 18  1  0
 20 19  2  0
 21 13  1  0
 21 22  1  0
 23 21  2  0
M  END
$$$$
