GTF.pdb
     RDKit          3D

 23 23  0  0  1  0  0  0  0  0999 V2000
    8.0722  -12.5470   17.9151 N   0  0  0  0  0  0  0  0  0  0  0  0
    8.9169  -13.1658   18.8890 C   0  0  0  0  0  0  0  0  0  0  0  0
    8.1164  -13.9309   19.9075 C   0  0  0  0  0  0  0  0  0  0  0  0
    6.8844  -13.8057   19.9209 O   0  0  0  0  0  0  0  0  0  0  0  0
    7.2834  -16.9307   19.9481 C   0  0  0  0  0  0  0  0  0  0  0  0
    8.0236  -16.9920   21.2904 C   0  0  1  0  0  0  0  0  0  0  0  0
    9.2728  -17.5485   21.1618 O   0  0  0  0  0  0  0  0  0  0  0  0
    8.0362  -15.5743   21.8224 C   0  0  2  0  0  0  0  0  0  0  0  0
    8.7770  -14.7817   20.8351 N   0  0  0  0  0  0  0  0  0  0  0  0
    8.7764  -15.5587   23.1330 C   0  0  0  0  0  0  0  0  0  0  0  0
    9.9814  -15.2035   23.1577 O   0  0  0  0  0  0  0  0  0  0  0  0
    8.1391  -15.9350   24.3252 N   0  0  0  0  0  0  0  0  0  0  0  0
    8.7518  -15.7942   25.6543 C   0  0  1  0  0  0  0  0  0  0  0  0
    7.6766  -15.3208   26.5561 C   0  0  0  0  0  0  0  0  0  0  0  0
    7.3330  -13.9101   26.5161 C   0  0  0  0  0  0  0  0  0  0  0  0
    6.0274  -13.5553   26.2292 C   0  0  0  0  0  0  0  0  0  0  0  0
    5.5974  -12.2437   26.1713 C   0  0  0  0  0  0  0  0  0  0  0  0
    6.5065  -11.2466   26.4090 C   0  0  0  0  0  0  0  0  0  0  0  0
    7.8097  -11.5600   26.6964 C   0  0  0  0  0  0  0  0  0  0  0  0
    8.2103  -12.8725   26.7477 C   0  0  0  0  0  0  0  0  0  0  0  0
    9.2581  -17.1047   26.1211 C   0  0  0  0  0  0  0  0  0  0  0  0
    9.0703  -18.2872   25.4283 O   0  0  0  0  0  0  0  0  0  0  0  0
    9.8912  -17.1501   27.2027 O   0  0  0  0  0  0  0  0  0  0  0  0
  2  1  1  0
  3  2  1  0
  3  9  1  0
  4  3  2  0
  6  8  1  0
  6  5  1  6
  7  6  1  0
  8  9  1  6
  8 10  1  0
 10 12  1  0
 11 10  2  0
 12 13  1  0
 13 14  1  1
 14 15  1  0
 15 16  2  0
 15 20  1  0
 16 17  1  0
 17 18  2  0
 19 18  1  0
 20 19  2  0
 21 13  1  0
 21 22  1  0
 23 21  2  0
M  END
$$$$
