TQK.pdb
     RDKit          3D

 26 25  0  0  1  0  0  0  0  0999 V2000
   25.4323  -15.2378  -16.9623 C   0  0  0  0  0  0  0  0  0  0  0  0
   25.1130  -16.6324  -16.5499 C   0  0  1  0  0  0  0  0  0  0  0  0
   24.3422  -17.2351  -17.5605 O   0  0  0  0  0  0  0  0  0  0  0  0
   26.2881  -17.4820  -16.2091 C   0  0  2  0  0  0  0  0  0  0  0  0
   27.2024  -17.6904  -17.2772 N   0  0  0  0  0  0  0  0  0  0  0  0
   25.7929  -18.7382  -15.5967 C   0  0  0  0  0  0  0  0  0  0  0  0
   25.4960  -19.6801  -16.3740 O   0  0  0  0  0  0  0  0  0  0  0  0
   25.2692  -19.9060   -9.6836 N   0  0  0  0  0  0  0  0  0  0  0  0
   25.2515  -21.2567  -10.0856 C   0  0  0  0  0  0  0  0  0  0  0  0
   25.0206  -22.1697   -9.2800 O   0  0  0  0  0  0  0  0  0  0  0  0
   25.5247  -21.5486  -11.5356 C   0  0  0  0  0  0  0  0  0  0  0  0
   25.8023  -20.2471  -12.2446 C   0  0  0  0  0  0  0  0  0  0  0  0
   25.2190  -20.1985  -13.6088 C   0  0  2  0  0  0  0  0  0  0  0  0
   25.6366  -18.9395  -14.2173 N   0  0  0  0  0  0  0  0  0  0  0  0
   23.7457  -20.3586  -13.6829 C   0  0  0  0  0  0  0  0  0  0  0  0
   23.0004  -19.3736  -13.4778 O   0  0  0  0  0  0  0  0  0  0  0  0
   23.1296  -21.5989  -13.9809 N   0  0  0  0  0  0  0  0  0  0  0  0
   21.7174  -21.8854  -13.9768 C   0  0  1  0  0  0  0  0  0  0  0  0
   21.1923  -22.2218  -12.6291 C   0  0  0  0  0  0  0  0  0  0  0  0
   19.7419  -22.5727  -12.5470 C   0  0  0  0  0  0  0  0  0  0  0  0
   19.3212  -22.9698  -11.1445 C   0  0  0  0  0  0  0  0  0  0  0  0
   17.8726  -23.4686  -11.1507 C   0  0  0  0  0  0  0  0  0  0  0  0
   17.5094  -23.9284   -9.8445 N   0  0  0  0  0  0  0  0  0  0  0  0
   20.9265  -20.9010  -14.7425 C   0  0  0  0  0  0  0  0  0  0  0  0
   20.1540  -21.3077  -15.7986 O   0  0  0  0  0  0  0  0  0  0  0  0
   20.9559  -19.6988  -14.4351 O   0  0  0  0  0  0  0  0  0  0  0  0
  2  1  1  6
  3  2  1  0
  4  2  1  0
  4  6  1  0
  4  5  1  6
  6  7  2  0
  8  9  1  0
  9 11  1  0
  9 10  2  0
 11 12  1  0
 13 12  1  1
 14  6  1  0
 14 13  1  0
 15 13  1  0
 15 16  2  0
 17 15  1  0
 18 17  1  0
 18 24  1  0
 18 19  1  1
 20 19  1  0
 21 20  1  0
 22 21  1  0
 23 22  1  0
 24 25  1  0
 26 24  2  0
M  END
$$$$
