TQK.pdb
     RDKit          3D

 26 25  0  0  1  0  0  0  0  0999 V2000
   24.3729  -12.1699  -16.2274 C   0  0  0  0  0  0  0  0  0  0  0  0
   23.9284  -12.9880  -17.3894 C   0  0  1  0  0  0  0  0  0  0  0  0
   24.7343  -14.1384  -17.4642 O   0  0  0  0  0  0  0  0  0  0  0  0
   22.4852  -13.3570  -17.3951 C   0  0  2  0  0  0  0  0  0  0  0  0
   22.1128  -14.2897  -18.4008 N   0  0  0  0  0  0  0  0  0  0  0  0
   21.6852  -12.1089  -17.4162 C   0  0  0  0  0  0  0  0  0  0  0  0
   21.5731  -11.5149  -18.5180 O   0  0  0  0  0  0  0  0  0  0  0  0
   17.0250  -11.6376  -14.0844 N   0  0  0  0  0  0  0  0  0  0  0  0
   16.7343  -11.5432  -15.4602 C   0  0  0  0  0  0  0  0  0  0  0  0
   15.6467  -11.9193  -15.9201 O   0  0  0  0  0  0  0  0  0  0  0  0
   17.7990  -10.9661  -16.3523 C   0  0  0  0  0  0  0  0  0  0  0  0
   19.0072  -10.6402  -15.5110 C   0  0  0  0  0  0  0  0  0  0  0  0
   20.2165  -10.3583  -16.3245 C   0  0  2  0  0  0  0  0  0  0  0  0
   21.0515  -11.5548  -16.2941 N   0  0  0  0  0  0  0  0  0  0  0  0
   20.9946   -9.1601  -15.9236 C   0  0  0  0  0  0  0  0  0  0  0  0
   21.8571   -9.2503  -15.0204 O   0  0  0  0  0  0  0  0  0  0  0  0
   20.8038   -7.8927  -16.5269 N   0  0  0  0  0  0  0  0  0  0  0  0
   21.5504   -6.6888  -16.2630 C   0  0  1  0  0  0  0  0  0  0  0  0
   21.3405   -5.6336  -17.2866 C   0  0  0  0  0  0  0  0  0  0  0  0
   22.0435   -4.3345  -17.0591 C   0  0  0  0  0  0  0  0  0  0  0  0
   21.7524   -3.3205  -18.1494 C   0  0  0  0  0  0  0  0  0  0  0  0
   22.4456   -1.9917  -17.8312 C   0  0  0  0  0  0  0  0  0  0  0  0
   22.1148   -1.0182  -18.8273 N   0  0  0  0  0  0  0  0  0  0  0  0
   21.4508   -6.2441  -14.8583 C   0  0  0  0  0  0  0  0  0  0  0  0
   22.5183   -5.6388  -14.2486 O   0  0  0  0  0  0  0  0  0  0  0  0
   20.4001   -6.4154  -14.2201 O   0  0  0  0  0  0  0  0  0  0  0  0
  2  1  1  1
  3  2  1  0
  4  2  1  0
  4  6  1  0
  4  5  1  6
  6  7  2  0
  8  9  1  0
  9 11  1  0
  9 10  2  0
 11 12  1  0
 13 12  1  1
 14  6  1  0
 14 13  1  0
 15 13  1  0
 15 16  2  0
 17 15  1  0
 18 17  1  0
 18 24  1  0
 18 19  1  6
 20 19  1  0
 21 20  1  0
 22 21  1  0
 23 22  1  0
 24 25  1  0
 26 24  2  0
M  END
$$$$
