TQK.pdb
     RDKit          3D

 26 25  0  0  1  0  0  0  0  0999 V2000
   19.8575  -20.9160  -14.9852 C   0  0  0  0  0  0  0  0  0  0  0  0
   19.9616  -20.8149  -13.5033 C   0  0  1  0  0  0  0  0  0  0  0  0
   19.5405  -22.0325  -12.9387 O   0  0  0  0  0  0  0  0  0  0  0  0
   21.3034  -20.4312  -12.9826 C   0  0  2  0  0  0  0  0  0  0  0  0
   21.4236  -20.4603  -11.5667 N   0  0  0  0  0  0  0  0  0  0  0  0
   21.6825  -19.1305  -13.5848 C   0  0  0  0  0  0  0  0  0  0  0  0
   21.3948  -18.0911  -12.9396 O   0  0  0  0  0  0  0  0  0  0  0  0
   26.6977  -16.9022  -14.8703 N   0  0  0  0  0  0  0  0  0  0  0  0
   26.4633  -18.0584  -15.6414 C   0  0  0  0  0  0  0  0  0  0  0  0
   27.3971  -18.7403  -16.0873 O   0  0  0  0  0  0  0  0  0  0  0  0
   25.0307  -18.4344  -15.9032 C   0  0  0  0  0  0  0  0  0  0  0  0
   24.1375  -17.4810  -15.1502 C   0  0  0  0  0  0  0  0  0  0  0  0
   22.6955  -17.7084  -15.4192 C   0  0  2  0  0  0  0  0  0  0  0  0
   22.3360  -18.9886  -14.8180 N   0  0  0  0  0  0  0  0  0  0  0  0
   22.2942  -17.6635  -16.8472 C   0  0  0  0  0  0  0  0  0  0  0  0
   22.1336  -18.7299  -17.4834 O   0  0  0  0  0  0  0  0  0  0  0  0
   22.0798  -16.4461  -17.5389 N   0  0  0  0  0  0  0  0  0  0  0  0
   20.8336  -15.9692  -18.0829 C   0  0  1  0  0  0  0  0  0  0  0  0
   19.6907  -16.1191  -17.1467 C   0  0  0  0  0  0  0  0  0  0  0  0
   18.3521  -15.6903  -17.6544 C   0  0  0  0  0  0  0  0  0  0  0  0
   17.2702  -15.7983  -16.5962 C   0  0  0  0  0  0  0  0  0  0  0  0
   15.9438  -15.2602  -17.1426 C   0  0  0  0  0  0  0  0  0  0  0  0
   14.9015  -15.4664  -16.1831 N   0  0  0  0  0  0  0  0  0  0  0  0
   20.9557  -14.6498  -18.7349 C   0  0  0  0  0  0  0  0  0  0  0  0
   20.4750  -14.4598  -20.0038 O   0  0  0  0  0  0  0  0  0  0  0  0
   21.4945  -13.7039  -18.1384 O   0  0  0  0  0  0  0  0  0  0  0  0
  2  1  1  6
  3  2  1  0
  4  2  1  0
  4  6  1  0
  4  5  1  1
  6  7  2  0
  8  9  1  0
  9 11  1  0
  9 10  2  0
 11 12  1  0
 13 12  1  6
 14  6  1  0
 14 13  1  0
 15 13  1  0
 15 16  2  0
 17 15  1  0
 18 17  1  0
 18 24  1  0
 18 19  1  1
 20 19  1  0
 21 20  1  0
 22 21  1  0
 23 22  1  0
 24 25  1  0
 26 24  2  0
M  END
$$$$
