TQK.pdb
     RDKit          3D

 26 25  0  0  1  0  0  0  0  0999 V2000
   20.9502  -14.6896  -19.3862 C   0  0  0  0  0  0  0  0  0  0  0  0
   21.3745  -13.6651  -18.3925 C   0  0  1  0  0  0  0  0  0  0  0  0
   20.2263  -13.0427  -17.8699 O   0  0  0  0  0  0  0  0  0  0  0  0
   22.2466  -14.1651  -17.2933 C   0  0  2  0  0  0  0  0  0  0  0  0
   21.7053  -15.2484  -16.5492 N   0  0  0  0  0  0  0  0  0  0  0  0
   22.6481  -13.0100  -16.4550 C   0  0  0  0  0  0  0  0  0  0  0  0
   21.8987  -12.7086  -15.4923 O   0  0  0  0  0  0  0  0  0  0  0  0
   28.2506  -10.5792  -16.2522 N   0  0  0  0  0  0  0  0  0  0  0  0
   27.8893  -11.8089  -15.6661 C   0  0  0  0  0  0  0  0  0  0  0  0
   28.7441  -12.6171  -15.2764 O   0  0  0  0  0  0  0  0  0  0  0  0
   26.4206  -12.1038  -15.5313 C   0  0  0  0  0  0  0  0  0  0  0  0
   25.6429  -10.9005  -16.0015 C   0  0  0  0  0  0  0  0  0  0  0  0
   24.1748  -11.0760  -15.8699 C   0  0  2  0  0  0  0  0  0  0  0  0
   23.8012  -12.2398  -16.6671 N   0  0  0  0  0  0  0  0  0  0  0  0
   23.3520   -9.8970  -16.2374 C   0  0  0  0  0  0  0  0  0  0  0  0
   23.0591   -9.6908  -17.4371 O   0  0  0  0  0  0  0  0  0  0  0  0
   22.8724   -8.9747  -15.2752 N   0  0  0  0  0  0  0  0  0  0  0  0
   21.9594   -7.8836  -15.5039 C   0  0  1  0  0  0  0  0  0  0  0  0
   20.7589   -8.2788  -16.2836 C   0  0  0  0  0  0  0  0  0  0  0  0
   19.7620   -7.2013  -16.5650 C   0  0  0  0  0  0  0  0  0  0  0  0
   18.5339   -7.7235  -17.2865 C   0  0  0  0  0  0  0  0  0  0  0  0
   17.5677   -6.5718  -17.5825 C   0  0  0  0  0  0  0  0  0  0  0  0
   16.4315   -7.0612  -18.3029 N   0  0  0  0  0  0  0  0  0  0  0  0
   21.6972   -7.0859  -14.2891 C   0  0  0  0  0  0  0  0  0  0  0  0
   21.1461   -5.8355  -14.3901 O   0  0  0  0  0  0  0  0  0  0  0  0
   21.9742   -7.5421  -13.1684 O   0  0  0  0  0  0  0  0  0  0  0  0
  2  1  1  6
  3  2  1  0
  4  2  1  0
  4  6  1  0
  4  5  1  1
  6  7  2  0
  8  9  1  0
  9 11  1  0
  9 10  2  0
 11 12  1  0
 13 12  1  6
 14  6  1  0
 14 13  1  0
 15 13  1  0
 15 16  2  0
 17 15  1  0
 18 17  1  0
 18 24  1  0
 18 19  1  1
 20 19  1  0
 21 20  1  0
 22 21  1  0
 23 22  1  0
 24 25  1  0
 26 24  2  0
M  END
$$$$
