TQK.pdb
     RDKit          3D

 26 25  0  0  1  0  0  0  0  0999 V2000
   28.6900  -18.1635  -16.7941 C   0  0  0  0  0  0  0  0  0  0  0  0
   27.5995  -18.9292  -16.1297 C   0  0  1  0  0  0  0  0  0  0  0  0
   26.4851  -18.9613  -16.9876 O   0  0  0  0  0  0  0  0  0  0  0  0
   27.9626  -20.3051  -15.6894 C   0  0  2  0  0  0  0  0  0  0  0  0
   28.3427  -21.1854  -16.7386 N   0  0  0  0  0  0  0  0  0  0  0  0
   26.8637  -20.8286  -14.8429 C   0  0  0  0  0  0  0  0  0  0  0  0
   25.9496  -21.4714  -15.4178 O   0  0  0  0  0  0  0  0  0  0  0  0
   26.6864  -20.4407   -8.7006 N   0  0  0  0  0  0  0  0  0  0  0  0
   25.3849  -20.9583   -8.8570 C   0  0  0  0  0  0  0  0  0  0  0  0
   24.6579  -21.1899   -7.8804 O   0  0  0  0  0  0  0  0  0  0  0  0
   24.9104  -21.2198  -10.2601 C   0  0  0  0  0  0  0  0  0  0  0  0
   26.0287  -20.8887  -11.2159 C   0  0  0  0  0  0  0  0  0  0  0  0
   25.6349  -21.0429  -12.6388 C   0  0  2  0  0  0  0  0  0  0  0  0
   26.7812  -20.6531  -13.4536 N   0  0  0  0  0  0  0  0  0  0  0  0
   24.4167  -20.3028  -13.0514 C   0  0  0  0  0  0  0  0  0  0  0  0
   24.4138  -19.0507  -13.0389 O   0  0  0  0  0  0  0  0  0  0  0  0
   23.2324  -20.9593  -13.4673 N   0  0  0  0  0  0  0  0  0  0  0  0
   21.9834  -20.3399  -13.8315 C   0  0  1  0  0  0  0  0  0  0  0  0
   21.7213  -20.3662  -15.2930 C   0  0  0  0  0  0  0  0  0  0  0  0
   22.4880  -19.3903  -16.1257 C   0  0  0  0  0  0  0  0  0  0  0  0
   22.1264  -19.4753  -17.5967 C   0  0  0  0  0  0  0  0  0  0  0  0
   22.9695  -18.4832  -18.4043 C   0  0  0  0  0  0  0  0  0  0  0  0
   22.6151  -18.5562  -19.7894 N   0  0  0  0  0  0  0  0  0  0  0  0
   20.8580  -20.7621  -12.9736 C   0  0  0  0  0  0  0  0  0  0  0  0
   20.8814  -21.9853  -12.3567 O   0  0  0  0  0  0  0  0  0  0  0  0
   19.8831  -20.0123  -12.8054 O   0  0  0  0  0  0  0  0  0  0  0  0
  2  1  1  6
  3  2  1  0
  4  2  1  0
  4  6  1  0
  4  5  1  6
  6  7  2  0
  8  9  1  0
  9 11  1  0
  9 10  2  0
 11 12  1  0
 13 12  1  1
 14  6  1  0
 14 13  1  0
 15 13  1  0
 15 16  2  0
 17 15  1  0
 18 17  1  0
 18 24  1  0
 18 19  1  6
 20 19  1  0
 21 20  1  0
 22 21  1  0
 23 22  1  0
 24 25  1  0
 26 24  2  0
M  END
$$$$
