TQK.pdb
     RDKit          3D

 26 25  0  0  1  0  0  0  0  0999 V2000
   32.7515  -13.5773  -18.6806 C   0  0  0  0  0  0  0  0  0  0  0  0
   31.3490  -13.3874  -19.1433 C   0  0  1  0  0  0  0  0  0  0  0  0
   30.7566  -14.6518  -19.3142 O   0  0  0  0  0  0  0  0  0  0  0  0
   30.5017  -12.5241  -18.2740 C   0  0  2  0  0  0  0  0  0  0  0  0
   29.1021  -12.6642  -18.4782 N   0  0  0  0  0  0  0  0  0  0  0  0
   30.9830  -11.1269  -18.3940 C   0  0  0  0  0  0  0  0  0  0  0  0
   32.2203  -10.9328  -18.2899 O   0  0  0  0  0  0  0  0  0  0  0  0
   27.5634   -6.5010  -20.5120 N   0  0  0  0  0  0  0  0  0  0  0  0
   28.7160   -5.7288  -20.2642 C   0  0  0  0  0  0  0  0  0  0  0  0
   28.7580   -4.5209  -20.5379 O   0  0  0  0  0  0  0  0  0  0  0  0
   29.8977   -6.4299  -19.6523 C   0  0  0  0  0  0  0  0  0  0  0  0
   29.5260   -7.8694  -19.4007 C   0  0  0  0  0  0  0  0  0  0  0  0
   30.6289   -8.6501  -18.7861 C   0  0  2  0  0  0  0  0  0  0  0  0
   30.1518  -10.0186  -18.6145 N   0  0  0  0  0  0  0  0  0  0  0  0
   31.1624   -8.1122  -17.5102 C   0  0  0  0  0  0  0  0  0  0  0  0
   30.6132   -8.4169  -16.4270 O   0  0  0  0  0  0  0  0  0  0  0  0
   32.2869   -7.2524  -17.4586 N   0  0  0  0  0  0  0  0  0  0  0  0
   32.8993   -6.7005  -16.2767 C   0  0  1  0  0  0  0  0  0  0  0  0
   34.3208   -7.0981  -16.1139 C   0  0  0  0  0  0  0  0  0  0  0  0
   35.0403   -6.5328  -14.9322 C   0  0  0  0  0  0  0  0  0  0  0  0
   36.4723   -7.0248  -14.8371 C   0  0  0  0  0  0  0  0  0  0  0  0
   37.1609   -6.4080  -13.6153 C   0  0  0  0  0  0  0  0  0  0  0  0
   38.5204   -6.8510  -13.5461 N   0  0  0  0  0  0  0  0  0  0  0  0
   32.6141   -5.2628  -16.0964 C   0  0  0  0  0  0  0  0  0  0  0  0
   32.7845   -4.6737  -14.8711 O   0  0  0  0  0  0  0  0  0  0  0  0
   32.2180   -4.5781  -17.0530 O   0  0  0  0  0  0  0  0  0  0  0  0
  2  1  1  1
  3  2  1  0
  4  2  1  0
  4  6  1  0
  4  5  1  6
  6  7  2  0
  8  9  1  0
  9 11  1  0
  9 10  2  0
 11 12  1  0
 13 12  1  1
 14  6  1  0
 14 13  1  0
 15 13  1  0
 15 16  2  0
 17 15  1  0
 18 17  1  0
 18 24  1  0
 18 19  1  6
 20 19  1  0
 21 20  1  0
 22 21  1  0
 23 22  1  0
 24 25  1  0
 26 24  2  0
M  END
$$$$
