TQK.pdb
     RDKit          3D

 26 25  0  0  1  0  0  0  0  0999 V2000
   26.6104  -18.9501  -16.3539 C   0  0  0  0  0  0  0  0  0  0  0  0
   27.2591  -20.1565  -16.9375 C   0  0  1  0  0  0  0  0  0  0  0  0
   28.3118  -19.7415  -17.7732 O   0  0  0  0  0  0  0  0  0  0  0  0
   27.7388  -21.1637  -15.9504 C   0  0  2  0  0  0  0  0  0  0  0  0
   28.3755  -22.2997  -16.5197 N   0  0  0  0  0  0  0  0  0  0  0  0
   26.6132  -21.5034  -15.0471 C   0  0  0  0  0  0  0  0  0  0  0  0
   25.7792  -22.3488  -15.4585 O   0  0  0  0  0  0  0  0  0  0  0  0
   26.5401  -20.6079   -9.0238 N   0  0  0  0  0  0  0  0  0  0  0  0
   25.2143  -21.0772   -9.1152 C   0  0  0  0  0  0  0  0  0  0  0  0
   24.5382  -21.3106   -8.1031 O   0  0  0  0  0  0  0  0  0  0  0  0
   24.6493  -21.2847  -10.4936 C   0  0  0  0  0  0  0  0  0  0  0  0
   25.7341  -21.0114  -11.5046 C   0  0  0  0  0  0  0  0  0  0  0  0
   25.2918  -21.2465  -12.9020 C   0  0  2  0  0  0  0  0  0  0  0  0
   26.4226  -20.9458  -13.7741 N   0  0  0  0  0  0  0  0  0  0  0  0
   24.0828  -20.4984  -13.3268 C   0  0  0  0  0  0  0  0  0  0  0  0
   24.1269  -19.2518  -13.4348 O   0  0  0  0  0  0  0  0  0  0  0  0
   22.8555  -21.1413  -13.6222 N   0  0  0  0  0  0  0  0  0  0  0  0
   21.6366  -20.5143  -14.0665 C   0  0  1  0  0  0  0  0  0  0  0  0
   21.2466  -20.9044  -15.4453 C   0  0  0  0  0  0  0  0  0  0  0  0
   22.1648  -20.4769  -16.5443 C   0  0  0  0  0  0  0  0  0  0  0  0
   21.7069  -20.9679  -17.9047 C   0  0  0  0  0  0  0  0  0  0  0  0
   22.7039  -20.5340  -18.9841 C   0  0  0  0  0  0  0  0  0  0  0  0
   22.2845  -21.0255  -20.2616 N   0  0  0  0  0  0  0  0  0  0  0  0
   20.5586  -20.5693  -13.0587 C   0  0  0  0  0  0  0  0  0  0  0  0
   19.6130  -19.5791  -13.0047 O   0  0  0  0  0  0  0  0  0  0  0  0
   20.5014  -21.5123  -12.2536 O   0  0  0  0  0  0  0  0  0  0  0  0
  2  1  1  1
  3  2  1  0
  4  2  1  0
  4  6  1  0
  4  5  1  6
  6  7  2  0
  8  9  1  0
  9 11  1  0
  9 10  2  0
 11 12  1  0
 13 12  1  1
 14  6  1  0
 14 13  1  0
 15 13  1  0
 15 16  2  0
 17 15  1  0
 18 17  1  0
 18 24  1  0
 18 19  1  6
 20 19  1  0
 21 20  1  0
 22 21  1  0
 23 22  1  0
 24 25  1  0
 26 24  2  0
M  END
$$$$
