TQK.pdb
     RDKit          3D

 26 25  0  0  1  0  0  0  0  0999 V2000
   28.0830  -17.2426  -16.7802 C   0  0  0  0  0  0  0  0  0  0  0  0
   27.0280  -18.1436  -16.2395 C   0  0  1  0  0  0  0  0  0  0  0  0
   26.0619  -18.3559  -17.2397 O   0  0  0  0  0  0  0  0  0  0  0  0
   27.5150  -19.4423  -15.6962 C   0  0  2  0  0  0  0  0  0  0  0  0
   28.2092  -20.2566  -16.6316 N   0  0  0  0  0  0  0  0  0  0  0  0
   26.3766  -20.1290  -15.0399 C   0  0  0  0  0  0  0  0  0  0  0  0
   25.7315  -20.9603  -15.7270 O   0  0  0  0  0  0  0  0  0  0  0  0
   24.4418  -23.1055  -12.0567 N   0  0  0  0  0  0  0  0  0  0  0  0
   25.7419  -22.9097  -11.5490 C   0  0  0  0  0  0  0  0  0  0  0  0
   26.5035  -23.8630  -11.3326 O   0  0  0  0  0  0  0  0  0  0  0  0
   26.1711  -21.4937  -11.2790 C   0  0  0  0  0  0  0  0  0  0  0  0
   25.0348  -20.5696  -11.6378 C   0  0  0  0  0  0  0  0  0  0  0  0
   24.7906  -20.4978  -13.1002 C   0  0  2  0  0  0  0  0  0  0  0  0
   25.9782  -19.9110  -13.7127 N   0  0  0  0  0  0  0  0  0  0  0  0
   23.5670  -19.7658  -13.5114 C   0  0  0  0  0  0  0  0  0  0  0  0
   23.6508  -18.5760  -13.8923 O   0  0  0  0  0  0  0  0  0  0  0  0
   22.2821  -20.3618  -13.4929 N   0  0  0  0  0  0  0  0  0  0  0  0
   21.0874  -19.8594  -14.1226 C   0  0  1  0  0  0  0  0  0  0  0  0
   21.2976  -19.4508  -15.5348 C   0  0  0  0  0  0  0  0  0  0  0  0
   20.1194  -18.8621  -16.2412 C   0  0  0  0  0  0  0  0  0  0  0  0
   20.2997  -18.8398  -17.7474 C   0  0  0  0  0  0  0  0  0  0  0  0
   19.0522  -18.2561  -18.4184 C   0  0  0  0  0  0  0  0  0  0  0  0
   19.2874  -18.0842  -19.8200 N   0  0  0  0  0  0  0  0  0  0  0  0
   19.9035  -20.7059  -13.8727 C   0  0  0  0  0  0  0  0  0  0  0  0
   18.6664  -20.1359  -13.7233 O   0  0  0  0  0  0  0  0  0  0  0  0
   20.0203  -21.9393  -13.7962 O   0  0  0  0  0  0  0  0  0  0  0  0
  2  1  1  6
  3  2  1  0
  4  2  1  0
  4  6  1  0
  4  5  1  6
  6  7  2  0
  8  9  1  0
  9 11  1  0
  9 10  2  0
 11 12  1  0
 13 12  1  1
 14  6  1  0
 14 13  1  0
 15 13  1  0
 15 16  2  0
 17 15  1  0
 18 17  1  0
 18 24  1  0
 18 19  1  6
 20 19  1  0
 21 20  1  0
 22 21  1  0
 23 22  1  0
 24 25  1  0
 26 24  2  0
M  END
$$$$
