TQK.pdb
     RDKit          3D

 26 25  0  0  1  0  0  0  0  0999 V2000
   20.5296  -12.5729  -19.7848 C   0  0  0  0  0  0  0  0  0  0  0  0
   20.5860  -13.9712  -19.2763 C   0  0  1  0  0  0  0  0  0  0  0  0
   20.3644  -14.8503  -20.3518 O   0  0  0  0  0  0  0  0  0  0  0  0
   21.8337  -14.3359  -18.5490 C   0  0  2  0  0  0  0  0  0  0  0  0
   21.9335  -15.7068  -18.1873 N   0  0  0  0  0  0  0  0  0  0  0  0
   21.9951  -13.4061  -17.4054 C   0  0  0  0  0  0  0  0  0  0  0  0
   21.1909  -13.5263  -16.4472 O   0  0  0  0  0  0  0  0  0  0  0  0
   27.0519  -11.1863  -15.2349 N   0  0  0  0  0  0  0  0  0  0  0  0
   26.7602  -10.5892  -16.4778 C   0  0  0  0  0  0  0  0  0  0  0  0
   27.6437  -10.0552  -17.1635 O   0  0  0  0  0  0  0  0  0  0  0  0
   25.3299  -10.6252  -16.9418 C   0  0  0  0  0  0  0  0  0  0  0  0
   24.4964  -11.2979  -15.8804 C   0  0  0  0  0  0  0  0  0  0  0  0
   23.0665  -11.4173  -16.2606 C   0  0  2  0  0  0  0  0  0  0  0  0
   22.9798  -12.4102  -17.3267 N   0  0  0  0  0  0  0  0  0  0  0  0
   22.4010  -10.1527  -16.6604 C   0  0  0  0  0  0  0  0  0  0  0  0
   22.4624   -9.7647  -17.8493 O   0  0  0  0  0  0  0  0  0  0  0  0
   21.6846   -9.3470  -15.7416 N   0  0  0  0  0  0  0  0  0  0  0  0
   21.0357   -8.0903  -16.0173 C   0  0  1  0  0  0  0  0  0  0  0  0
   19.5566   -8.1995  -16.0933 C   0  0  0  0  0  0  0  0  0  0  0  0
   18.8073   -6.9340  -16.3590 C   0  0  0  0  0  0  0  0  0  0  0  0
   17.3139   -7.1637  -16.4953 C   0  0  0  0  0  0  0  0  0  0  0  0
   16.6254   -5.8811  -16.9732 C   0  0  0  0  0  0  0  0  0  0  0  0
   15.2205   -6.1097  -17.1265 N   0  0  0  0  0  0  0  0  0  0  0  0
   21.5521   -6.9805  -15.1910 C   0  0  0  0  0  0  0  0  0  0  0  0
   21.3498   -5.6812  -15.5761 O   0  0  0  0  0  0  0  0  0  0  0  0
   22.1728   -7.2167  -14.1424 O   0  0  0  0  0  0  0  0  0  0  0  0
  2  1  1  6
  3  2  1  0
  4  2  1  0
  4  6  1  0
  4  5  1  1
  6  7  2  0
  8  9  1  0
  9 11  1  0
  9 10  2  0
 11 12  1  0
 13 12  1  6
 14  6  1  0
 14 13  1  0
 15 13  1  0
 15 16  2  0
 17 15  1  0
 18 17  1  0
 18 24  1  0
 18 19  1  1
 20 19  1  0
 21 20  1  0
 22 21  1  0
 23 22  1  0
 24 25  1  0
 26 24  2  0
M  END
$$$$
