TQK.pdb
     RDKit          3D

 26 25  0  0  1  0  0  0  0  0999 V2000
   37.8053  -30.4281  -14.8140 C   0  0  0  0  0  0  0  0  0  0  0  0
   36.6952  -30.5730  -15.7957 C   0  0  1  0  0  0  0  0  0  0  0  0
   37.0473  -29.8943  -16.9764 O   0  0  0  0  0  0  0  0  0  0  0  0
   36.2888  -31.9740  -16.0970 C   0  0  2  0  0  0  0  0  0  0  0  0
   37.2915  -32.7638  -16.7223 N   0  0  0  0  0  0  0  0  0  0  0  0
   35.0089  -31.9374  -16.8446 C   0  0  0  0  0  0  0  0  0  0  0  0
   35.0566  -32.1623  -18.0801 O   0  0  0  0  0  0  0  0  0  0  0  0
   30.0902  -34.7133  -15.6449 N   0  0  0  0  0  0  0  0  0  0  0  0
   31.0421  -35.1305  -16.5967 C   0  0  0  0  0  0  0  0  0  0  0  0
   31.0922  -36.3041  -16.9919 O   0  0  0  0  0  0  0  0  0  0  0  0
   31.9987  -34.0927  -17.1165 C   0  0  0  0  0  0  0  0  0  0  0  0
   31.6679  -32.7689  -16.4748 C   0  0  0  0  0  0  0  0  0  0  0  0
   32.4969  -31.6531  -16.9956 C   0  0  2  0  0  0  0  0  0  0  0  0
   33.7599  -31.6698  -16.2647 N   0  0  0  0  0  0  0  0  0  0  0  0
   31.8715  -30.3086  -16.9400 C   0  0  0  0  0  0  0  0  0  0  0  0
   32.0030  -29.6018  -15.9149 O   0  0  0  0  0  0  0  0  0  0  0  0
   31.1171  -29.7758  -18.0141 N   0  0  0  0  0  0  0  0  0  0  0  0
   30.4231  -28.5133  -18.0400 C   0  0  1  0  0  0  0  0  0  0  0  0
   29.9937  -28.1093  -19.4030 C   0  0  0  0  0  0  0  0  0  0  0  0
   29.1979  -26.8484  -19.5052 C   0  0  0  0  0  0  0  0  0  0  0  0
   28.8495  -26.4989  -20.9398 C   0  0  0  0  0  0  0  0  0  0  0  0
   28.0307  -25.2046  -20.9824 C   0  0  0  0  0  0  0  0  0  0  0  0
   27.6558  -24.9086  -22.3320 N   0  0  0  0  0  0  0  0  0  0  0  0
   29.3945  -28.3982  -16.9866 C   0  0  0  0  0  0  0  0  0  0  0  0
   28.5369  -29.4387  -16.7428 O   0  0  0  0  0  0  0  0  0  0  0  0
   29.2994  -27.3587  -16.3150 O   0  0  0  0  0  0  0  0  0  0  0  0
  2  1  1  1
  3  2  1  0
  4  2  1  0
  4  6  1  0
  4  5  1  6
  6  7  2  0
  8  9  1  0
  9 11  1  0
  9 10  2  0
 11 12  1  0
 13 12  1  1
 14  6  1  0
 14 13  1  0
 15 13  1  0
 15 16  2  0
 17 15  1  0
 18 17  1  0
 18 24  1  0
 18 19  1  6
 20 19  1  0
 21 20  1  0
 22 21  1  0
 23 22  1  0
 24 25  1  0
 26 24  2  0
M  END
$$$$
