TQK.pdb
     RDKit          3D

 26 25  0  0  1  0  0  0  0  0999 V2000
   19.6511  -11.5211  -14.8402 C   0  0  0  0  0  0  0  0  0  0  0  0
   18.2297  -11.8101  -15.1769 C   0  0  1  0  0  0  0  0  0  0  0  0
   18.1497  -13.1071  -15.7154 O   0  0  0  0  0  0  0  0  0  0  0  0
   17.2625  -11.6468  -14.0558 C   0  0  2  0  0  0  0  0  0  0  0  0
   15.9418  -12.0889  -14.3393 N   0  0  0  0  0  0  0  0  0  0  0  0
   17.3308  -10.2435  -13.5822 C   0  0  0  0  0  0  0  0  0  0  0  0
   16.9356   -9.3490  -14.3716 O   0  0  0  0  0  0  0  0  0  0  0  0
   15.1619   -8.6957   -9.3727 N   0  0  0  0  0  0  0  0  0  0  0  0
   15.5598   -7.3524   -9.5257 C   0  0  0  0  0  0  0  0  0  0  0  0
   14.8018   -6.4152   -9.2376 O   0  0  0  0  0  0  0  0  0  0  0  0
   16.9449   -7.0990  -10.0542 C   0  0  0  0  0  0  0  0  0  0  0  0
   17.5588   -8.4188  -10.4480 C   0  0  0  0  0  0  0  0  0  0  0  0
   17.9435   -8.4706  -11.8807 C   0  0  2  0  0  0  0  0  0  0  0  0
   17.8045   -9.8552  -12.3202 N   0  0  0  0  0  0  0  0  0  0  0  0
   19.2943   -7.9469  -12.2018 C   0  0  0  0  0  0  0  0  0  0  0  0
   20.3080   -8.4942  -11.7110 O   0  0  0  0  0  0  0  0  0  0  0  0
   19.4956   -6.8342  -13.0549 N   0  0  0  0  0  0  0  0  0  0  0  0
   20.7596   -6.2943  -13.4874 C   0  0  1  0  0  0  0  0  0  0  0  0
   20.9391   -6.3327  -14.9611 C   0  0  0  0  0  0  0  0  0  0  0  0
   22.1976   -5.7294  -15.4956 C   0  0  0  0  0  0  0  0  0  0  0  0
   22.2981   -5.8432  -17.0051 C   0  0  0  0  0  0  0  0  0  0  0  0
   23.6817   -5.3842  -17.4768 C   0  0  0  0  0  0  0  0  0  0  0  0
   23.8556   -5.7031  -18.8615 N   0  0  0  0  0  0  0  0  0  0  0  0
   21.0918   -5.0106  -12.8373 C   0  0  0  0  0  0  0  0  0  0  0  0
   22.3802   -4.7436  -12.4549 O   0  0  0  0  0  0  0  0  0  0  0  0
   20.2067   -4.1648  -12.6325 O   0  0  0  0  0  0  0  0  0  0  0  0
  2  1  1  1
  3  2  1  0
  4  2  1  0
  4  6  1  0
  4  5  1  6
  6  7  2  0
  8  9  1  0
  9 11  1  0
  9 10  2  0
 11 12  1  0
 13 12  1  1
 14  6  1  0
 14 13  1  0
 15 13  1  0
 15 16  2  0
 17 15  1  0
 18 17  1  0
 18 24  1  0
 18 19  1  6
 20 19  1  0
 21 20  1  0
 22 21  1  0
 23 22  1  0
 24 25  1  0
 26 24  2  0
M  END
$$$$
