TQK.pdb
     RDKit          3D

 26 25  0  0  1  0  0  0  0  0999 V2000
   18.7498  -11.8231  -18.5719 C   0  0  0  0  0  0  0  0  0  0  0  0
   18.7656  -10.5695  -17.7686 C   0  0  1  0  0  0  0  0  0  0  0  0
   17.4988   -9.9639  -17.8548 O   0  0  0  0  0  0  0  0  0  0  0  0
   19.1754  -10.7287  -16.3454 C   0  0  2  0  0  0  0  0  0  0  0  0
   18.3384  -11.5820  -15.5763 N   0  0  0  0  0  0  0  0  0  0  0  0
   19.3496   -9.3790  -15.7569 C   0  0  0  0  0  0  0  0  0  0  0  0
   18.3867   -8.9076  -15.1012 O   0  0  0  0  0  0  0  0  0  0  0  0
   22.2415   -6.7116  -12.7827 N   0  0  0  0  0  0  0  0  0  0  0  0
   22.4467   -5.4871  -13.4496 C   0  0  0  0  0  0  0  0  0  0  0  0
   22.6642   -4.4382  -12.8264 O   0  0  0  0  0  0  0  0  0  0  0  0
   22.3915   -5.5024  -14.9526 C   0  0  0  0  0  0  0  0  0  0  0  0
   22.1045   -6.9104  -15.4094 C   0  0  0  0  0  0  0  0  0  0  0  0
   20.6595   -7.2474  -15.3644 C   0  0  2  0  0  0  0  0  0  0  0  0
   20.5109   -8.6026  -15.8850 N   0  0  0  0  0  0  0  0  0  0  0  0
   19.7586   -6.3062  -16.0749 C   0  0  0  0  0  0  0  0  0  0  0  0
   19.4687   -6.5077  -17.2762 O   0  0  0  0  0  0  0  0  0  0  0  0
   19.1996   -5.1671  -15.4452 N   0  0  0  0  0  0  0  0  0  0  0  0
   18.1547   -4.3198  -15.9618 C   0  0  1  0  0  0  0  0  0  0  0  0
   16.8675   -5.0331  -16.1608 C   0  0  0  0  0  0  0  0  0  0  0  0
   15.7100   -4.2052  -16.6173 C   0  0  0  0  0  0  0  0  0  0  0  0
   14.4564   -5.0322  -16.8325 C   0  0  0  0  0  0  0  0  0  0  0  0
   13.3385   -4.1546  -17.4048 C   0  0  0  0  0  0  0  0  0  0  0  0
   12.1135   -4.8939  -17.4517 N   0  0  0  0  0  0  0  0  0  0  0  0
   18.0640   -3.0229  -15.2613 C   0  0  0  0  0  0  0  0  0  0  0  0
   17.7672   -1.8812  -15.9584 O   0  0  0  0  0  0  0  0  0  0  0  0
   18.2560   -2.9578  -14.0367 O   0  0  0  0  0  0  0  0  0  0  0  0
  2  1  1  1
  3  2  1  0
  4  2  1  0
  4  6  1  0
  4  5  1  1
  6  7  2  0
  8  9  1  0
  9 11  1  0
  9 10  2  0
 11 12  1  0
 13 12  1  6
 14  6  1  0
 14 13  1  0
 15 13  1  0
 15 16  2  0
 17 15  1  0
 18 17  1  0
 18 24  1  0
 18 19  1  1
 20 19  1  0
 21 20  1  0
 22 21  1  0
 23 22  1  0
 24 25  1  0
 26 24  2  0
M  END
$$$$
