TQK.pdb
     RDKit          3D

 26 25  0  0  1  0  0  0  0  0999 V2000
   27.0061  -19.2183  -16.7330 C   0  0  0  0  0  0  0  0  0  0  0  0
   27.6284  -20.5143  -17.1206 C   0  0  1  0  0  0  0  0  0  0  0  0
   28.8018  -20.2496  -17.8498 O   0  0  0  0  0  0  0  0  0  0  0  0
   27.9095  -21.4489  -15.9953 C   0  0  2  0  0  0  0  0  0  0  0  0
   28.5925  -22.6391  -16.3658 N   0  0  0  0  0  0  0  0  0  0  0  0
   26.6425  -21.6934  -15.2650 C   0  0  0  0  0  0  0  0  0  0  0  0
   25.8720  -22.5726  -15.7262 O   0  0  0  0  0  0  0  0  0  0  0  0
   25.7796  -20.5837   -9.3837 N   0  0  0  0  0  0  0  0  0  0  0  0
   24.4177  -20.8208   -9.6578 C   0  0  0  0  0  0  0  0  0  0  0  0
   23.5646  -20.8117   -8.7589 O   0  0  0  0  0  0  0  0  0  0  0  0
   24.0380  -21.0863  -11.0887 C   0  0  0  0  0  0  0  0  0  0  0  0
   25.2815  -21.0120  -11.9384 C   0  0  0  0  0  0  0  0  0  0  0  0
   25.0115  -21.2578  -13.3772 C   0  0  2  0  0  0  0  0  0  0  0  0
   26.2536  -21.0112  -14.1026 N   0  0  0  0  0  0  0  0  0  0  0  0
   23.8933  -20.4777  -13.9628 C   0  0  0  0  0  0  0  0  0  0  0  0
   24.0039  -19.2384  -14.1028 O   0  0  0  0  0  0  0  0  0  0  0  0
   22.6814  -21.0813  -14.3796 N   0  0  0  0  0  0  0  0  0  0  0  0
   21.5021  -20.4083  -14.8620 C   0  0  1  0  0  0  0  0  0  0  0  0
   20.5910  -21.2988  -15.6251 C   0  0  0  0  0  0  0  0  0  0  0  0
   19.3570  -20.6684  -16.1852 C   0  0  0  0  0  0  0  0  0  0  0  0
   18.4970  -21.6582  -16.9482 C   0  0  0  0  0  0  0  0  0  0  0  0
   17.2386  -20.9632  -17.4782 C   0  0  0  0  0  0  0  0  0  0  0  0
   16.5270  -21.8441  -18.3540 N   0  0  0  0  0  0  0  0  0  0  0  0
   20.8579  -19.5650  -13.8350 C   0  0  0  0  0  0  0  0  0  0  0  0
   20.3617  -18.3316  -14.1666 O   0  0  0  0  0  0  0  0  0  0  0  0
   20.7615  -19.9672  -12.6646 O   0  0  0  0  0  0  0  0  0  0  0  0
  2  1  1  1
  3  2  1  0
  4  2  1  0
  4  6  1  0
  4  5  1  6
  6  7  2  0
  8  9  1  0
  9 11  1  0
  9 10  2  0
 11 12  1  0
 13 12  1  1
 14  6  1  0
 14 13  1  0
 15 13  1  0
 15 16  2  0
 17 15  1  0
 18 17  1  0
 18 24  1  0
 18 19  1  1
 20 19  1  0
 21 20  1  0
 22 21  1  0
 23 22  1  0
 24 25  1  0
 26 24  2  0
M  END
$$$$
