TQK.pdb
     RDKit          3D

 26 25  0  0  1  0  0  0  0  0999 V2000
   14.9483   -9.1098  -14.9598 C   0  0  0  0  0  0  0  0  0  0  0  0
   15.2607  -10.5629  -14.8700 C   0  0  1  0  0  0  0  0  0  0  0  0
   14.6094  -11.2290  -15.9240 O   0  0  0  0  0  0  0  0  0  0  0  0
   16.7106  -10.9038  -14.8502 C   0  0  2  0  0  0  0  0  0  0  0  0
   16.9965  -12.2945  -14.9172 N   0  0  0  0  0  0  0  0  0  0  0  0
   17.3332  -10.2242  -13.6888 C   0  0  0  0  0  0  0  0  0  0  0  0
   17.0042  -10.6230  -12.5434 O   0  0  0  0  0  0  0  0  0  0  0  0
   21.7529   -5.9703  -14.0820 N   0  0  0  0  0  0  0  0  0  0  0  0
   21.5614   -5.8554  -12.6905 C   0  0  0  0  0  0  0  0  0  0  0  0
   22.2381   -5.0754  -12.0053 O   0  0  0  0  0  0  0  0  0  0  0  0
   20.5000   -6.7194  -12.0665 C   0  0  0  0  0  0  0  0  0  0  0  0
   19.9284   -7.6230  -13.1297 C   0  0  0  0  0  0  0  0  0  0  0  0
   18.7646   -8.4106  -12.6515 C   0  0  2  0  0  0  0  0  0  0  0  0
   18.2577   -9.1737  -13.7876 N   0  0  0  0  0  0  0  0  0  0  0  0
   17.6778   -7.6270  -12.0136 C   0  0  0  0  0  0  0  0  0  0  0  0
   16.9632   -6.8707  -12.7101 O   0  0  0  0  0  0  0  0  0  0  0  0
   17.4050   -7.6956  -10.6253 N   0  0  0  0  0  0  0  0  0  0  0  0
   16.3792   -6.9798   -9.9099 C   0  0  1  0  0  0  0  0  0  0  0  0
   15.2373   -7.8399   -9.5078 C   0  0  0  0  0  0  0  0  0  0  0  0
   14.0909   -7.1553   -8.8364 C   0  0  0  0  0  0  0  0  0  0  0  0
   12.9862   -8.1208   -8.4503 C   0  0  0  0  0  0  0  0  0  0  0  0
   11.8354   -7.3634   -7.7801 C   0  0  0  0  0  0  0  0  0  0  0  0
   10.8566   -8.2903   -7.2981 N   0  0  0  0  0  0  0  0  0  0  0  0
   16.9189   -6.1005   -8.8533 C   0  0  0  0  0  0  0  0  0  0  0  0
   16.2696   -4.9401   -8.5226 O   0  0  0  0  0  0  0  0  0  0  0  0
   17.9641   -6.4060   -8.2575 O   0  0  0  0  0  0  0  0  0  0  0  0
  2  1  1  6
  3  2  1  0
  4  2  1  0
  4  6  1  0
  4  5  1  1
  6  7  2  0
  8  9  1  0
  9 11  1  0
  9 10  2  0
 11 12  1  0
 13 12  1  6
 14  6  1  0
 14 13  1  0
 15 13  1  0
 15 16  2  0
 17 15  1  0
 18 17  1  0
 18 24  1  0
 18 19  1  1
 20 19  1  0
 21 20  1  0
 22 21  1  0
 23 22  1  0
 24 25  1  0
 26 24  2  0
M  END
$$$$
