TQK.pdb
     RDKit          3D

 26 25  0  0  1  0  0  0  0  0999 V2000
   15.8153  -11.2173  -16.8384 C   0  0  0  0  0  0  0  0  0  0  0  0
   16.3246  -10.6241  -15.5711 C   0  0  1  0  0  0  0  0  0  0  0  0
   15.3488  -10.7916  -14.5719 O   0  0  0  0  0  0  0  0  0  0  0  0
   17.6429  -11.1414  -15.1091 C   0  0  2  0  0  0  0  0  0  0  0  0
   17.6879  -12.5446  -14.8877 N   0  0  0  0  0  0  0  0  0  0  0  0
   18.0731  -10.3406  -13.9379 C   0  0  0  0  0  0  0  0  0  0  0  0
   17.8481  -10.8199  -12.7981 O   0  0  0  0  0  0  0  0  0  0  0  0
   22.1842   -5.8490  -14.0191 N   0  0  0  0  0  0  0  0  0  0  0  0
   21.7883   -5.6490  -12.6814 C   0  0  0  0  0  0  0  0  0  0  0  0
   22.3820   -4.8509  -11.9422 O   0  0  0  0  0  0  0  0  0  0  0  0
   20.6129   -6.4445  -12.1834 C   0  0  0  0  0  0  0  0  0  0  0  0
   20.1166   -7.3227  -13.3042 C   0  0  0  0  0  0  0  0  0  0  0  0
   19.0526   -8.2629  -12.8712 C   0  0  2  0  0  0  0  0  0  0  0  0
   18.7095   -9.0932  -14.0213 N   0  0  0  0  0  0  0  0  0  0  0  0
   17.8393   -7.6359  -12.2909 C   0  0  0  0  0  0  0  0  0  0  0  0
   17.0054   -7.0796  -13.0413 O   0  0  0  0  0  0  0  0  0  0  0  0
   17.5743   -7.6369  -10.8994 N   0  0  0  0  0  0  0  0  0  0  0  0
   16.4625   -7.0096  -10.2310 C   0  0  1  0  0  0  0  0  0  0  0  0
   15.5060   -7.9834   -9.6461 C   0  0  0  0  0  0  0  0  0  0  0  0
   14.3047   -7.4115   -8.9653 C   0  0  0  0  0  0  0  0  0  0  0  0
   13.3420   -8.4846   -8.4927 C   0  0  0  0  0  0  0  0  0  0  0  0
   12.1358   -7.8419   -7.8003 C   0  0  0  0  0  0  0  0  0  0  0  0
   11.1746   -8.8473   -7.4618 N   0  0  0  0  0  0  0  0  0  0  0  0
   16.8728   -5.9049   -9.3409 C   0  0  0  0  0  0  0  0  0  0  0  0
   18.1616   -5.8310   -8.8816 O   0  0  0  0  0  0  0  0  0  0  0  0
   16.0536   -5.0359   -9.0027 O   0  0  0  0  0  0  0  0  0  0  0  0
  2  1  1  6
  3  2  1  0
  4  2  1  0
  4  6  1  0
  4  5  1  1
  6  7  2  0
  8  9  1  0
  9 11  1  0
  9 10  2  0
 11 12  1  0
 13 12  1  6
 14  6  1  0
 14 13  1  0
 15 13  1  0
 15 16  2  0
 17 15  1  0
 18 17  1  0
 18 24  1  0
 18 19  1  1
 20 19  1  0
 21 20  1  0
 22 21  1  0
 23 22  1  0
 24 25  1  0
 26 24  2  0
M  END
$$$$
