YML.pdb
     RDKit          3D

 29 29  0  0  1  0  0  0  0  0999 V2000
   28.6394  -15.1732  -18.1697 O   0  0  0  0  0  0  0  0  0  0  0  0
   28.0706  -16.0689  -17.2427 C   0  0  0  0  0  0  0  0  0  0  0  0
   27.5836  -17.2918  -17.6628 C   0  0  0  0  0  0  0  0  0  0  0  0
   27.0180  -18.1884  -16.7571 C   0  0  0  0  0  0  0  0  0  0  0  0
   26.9292  -17.8799  -15.4191 C   0  0  0  0  0  0  0  0  0  0  0  0
   26.3191  -18.8626  -14.4957 C   0  0  0  0  0  0  0  0  0  0  0  0
   27.3635  -19.6396  -13.7293 C   0  0  2  0  0  0  0  0  0  0  0  0
   27.9727  -20.5623  -14.6624 N   0  0  0  0  0  0  0  0  0  0  0  0
   26.8149  -20.3879  -12.6012 C   0  0  0  0  0  0  0  0  0  0  0  0
   26.3324  -21.5469  -12.8263 O   0  0  0  0  0  0  0  0  0  0  0  0
   27.4205  -16.6560  -15.0218 C   0  0  0  0  0  0  0  0  0  0  0  0
   27.9824  -15.7605  -15.9090 C   0  0  0  0  0  0  0  0  0  0  0  0
   26.4332  -20.7033   -4.6929 C   0  0  0  0  0  0  0  0  0  0  0  0
   27.0305  -19.8859   -6.2106 S   0  0  0  0  0  0  0  0  0  0  0  0
   26.1494  -20.5927   -7.6694 C   0  0  0  0  0  0  0  0  0  0  0  0
   26.7005  -20.0334   -8.9294 C   0  0  0  0  0  0  0  0  0  0  0  0
   26.1303  -20.5541  -10.2033 C   0  0  2  0  0  0  0  0  0  0  0  0
   26.8162  -19.8417  -11.2834 N   0  0  0  0  0  0  0  0  0  0  0  0
   24.6896  -20.3902  -10.3863 C   0  0  0  0  0  0  0  0  0  0  0  0
   24.2460  -19.1980  -10.5390 O   0  0  0  0  0  0  0  0  0  0  0  0
   22.0070  -22.2490  -14.2859 C   0  0  0  0  0  0  0  0  0  0  0  0
   22.4762  -21.3366  -13.1478 C   0  0  1  0  0  0  0  0  0  0  0  0
   21.9243  -19.9251  -13.4792 C   0  0  0  0  0  0  0  0  0  0  0  0
   21.8111  -21.8099  -11.8901 C   0  0  0  0  0  0  0  0  0  0  0  0
   22.3238  -21.0821  -10.7030 C   0  0  2  0  0  0  0  0  0  0  0  0
   23.7134  -21.3986  -10.4196 N   0  0  0  0  0  0  0  0  0  0  0  0
   21.5179  -21.3658   -9.5113 C   0  0  0  0  0  0  0  0  0  0  0  0
   20.1839  -20.9002   -9.4775 O   0  0  0  0  0  0  0  0  0  0  0  0
   21.9201  -21.9924   -8.5125 O   0  0  0  0  0  0  0  0  0  0  0  0
  2  1  1  0
  3  2  2  0
  4  3  1  0
  5  4  2  0
  5 11  1  0
  6  5  1  0
  7  9  1  0
  7  6  1  0
  7  8  1  6
  9 10  2  0
 11 12  2  0
 12  2  1  0
 14 15  1  0
 14 13  1  0
 17 16  1  1
 16 15  1  0
 18 17  1  0
 18  9  1  0
 19 20  2  0
 19 17  1  0
 22 21  1  6
 22 24  1  0
 23 22  1  0
 25 24  1  6
 25 27  1  0
 25 26  1  0
 26 19  1  0
 27 28  1  0
 29 27  2  0
M  END
$$$$
