YML.pdb
     RDKit          3D

 29 29  0  0  1  0  0  0  0  0999 V2000
   28.5518  -20.0776   -5.0373 O   0  0  0  0  0  0  0  0  0  0  0  0
   28.2203  -20.0652   -6.4067 C   0  0  0  0  0  0  0  0  0  0  0  0
   26.8974  -20.0283   -6.8039 C   0  0  0  0  0  0  0  0  0  0  0  0
   26.5540  -20.0157   -8.1552 C   0  0  0  0  0  0  0  0  0  0  0  0
   27.5238  -20.0397   -9.1311 C   0  0  0  0  0  0  0  0  0  0  0  0
   27.1111  -20.0269  -10.5524 C   0  0  0  0  0  0  0  0  0  0  0  0
   26.5038  -21.3440  -10.9749 C   0  0  2  0  0  0  0  0  0  0  0  0
   27.5902  -22.2925  -11.0898 N   0  0  0  0  0  0  0  0  0  0  0  0
   25.7923  -21.2703  -12.2483 C   0  0  0  0  0  0  0  0  0  0  0  0
   26.4666  -21.4064  -13.3224 O   0  0  0  0  0  0  0  0  0  0  0  0
   28.8358  -20.0764   -8.7134 C   0  0  0  0  0  0  0  0  0  0  0  0
   29.1877  -20.0891   -7.3789 C   0  0  0  0  0  0  0  0  0  0  0  0
   24.8430  -25.2892  -14.6744 C   0  0  0  0  0  0  0  0  0  0  0  0
   23.5825  -24.6221  -15.8120 S   0  0  0  0  0  0  0  0  0  0  0  0
   23.2263  -22.8680  -15.3646 C   0  0  0  0  0  0  0  0  0  0  0  0
   23.9144  -22.5051  -14.1002 C   0  0  0  0  0  0  0  0  0  0  0  0
   23.6797  -21.1305  -13.5763 C   0  0  2  0  0  0  0  0  0  0  0  0
   24.3834  -21.0521  -12.2944 N   0  0  0  0  0  0  0  0  0  0  0  0
   22.2864  -20.7454  -13.3606 C   0  0  0  0  0  0  0  0  0  0  0  0
   21.7019  -21.2052  -12.3173 O   0  0  0  0  0  0  0  0  0  0  0  0
   19.8344  -15.8976  -14.5011 C   0  0  0  0  0  0  0  0  0  0  0  0
   20.3572  -17.1552  -13.7988 C   0  0  1  0  0  0  0  0  0  0  0  0
   19.9045  -17.0357  -12.3198 C   0  0  0  0  0  0  0  0  0  0  0  0
   19.6536  -18.3326  -14.4045 C   0  0  0  0  0  0  0  0  0  0  0  0
   20.1228  -19.6068  -13.8059 C   0  0  2  0  0  0  0  0  0  0  0  0
   21.4955  -19.9145  -14.1700 N   0  0  0  0  0  0  0  0  0  0  0  0
   19.2636  -20.7297  -14.1945 C   0  0  0  0  0  0  0  0  0  0  0  0
   19.7616  -21.6613  -15.1335 O   0  0  0  0  0  0  0  0  0  0  0  0
   18.1144  -20.9312  -13.7578 O   0  0  0  0  0  0  0  0  0  0  0  0
  2  1  1  0
  3  2  2  0
  4  3  1  0
  5  4  2  0
  5 11  1  0
  6  5  1  0
  7  9  1  0
  7  6  1  0
  7  8  1  6
  9 10  2  0
 11 12  2  0
 12  2  1  0
 14 15  1  0
 14 13  1  0
 17 16  1  1
 16 15  1  0
 18 17  1  0
 18  9  1  0
 19 20  2  0
 19 17  1  0
 22 21  1  6
 22 24  1  0
 23 22  1  0
 25 24  1  6
 25 27  1  0
 25 26  1  0
 26 19  1  0
 27 28  1  0
 29 27  2  0
M  END
$$$$
