YML.pdb
     RDKit          3D

 29 29  0  0  1  0  0  0  0  0999 V2000
   16.8510  -25.0695  -15.1956 O   0  0  0  0  0  0  0  0  0  0  0  0
   17.9510  -24.2344  -14.9169 C   0  0  0  0  0  0  0  0  0  0  0  0
   17.8633  -22.8717  -15.1274 C   0  0  0  0  0  0  0  0  0  0  0  0
   18.9435  -22.0327  -14.8562 C   0  0  0  0  0  0  0  0  0  0  0  0
   20.1274  -22.5392  -14.3712 C   0  0  0  0  0  0  0  0  0  0  0  0
   21.2470  -21.6100  -14.0999 C   0  0  0  0  0  0  0  0  0  0  0  0
   21.5205  -21.4736  -12.6205 C   0  0  2  0  0  0  0  0  0  0  0  0
   20.4328  -20.7021  -12.0593 N   0  0  0  0  0  0  0  0  0  0  0  0
   22.7860  -20.8067  -12.3257 C   0  0  0  0  0  0  0  0  0  0  0  0
   22.8236  -19.5333  -12.3897 O   0  0  0  0  0  0  0  0  0  0  0  0
   20.1934  -23.9001  -14.1686 C   0  0  0  0  0  0  0  0  0  0  0  0
   19.1309  -24.7403  -14.4333 C   0  0  0  0  0  0  0  0  0  0  0  0
   26.3765  -19.8950   -7.5723 C   0  0  0  0  0  0  0  0  0  0  0  0
   27.3995  -21.1970   -8.3381 S   0  0  0  0  0  0  0  0  0  0  0  0
   27.2074  -21.1221  -10.1715 C   0  0  0  0  0  0  0  0  0  0  0  0
   25.8507  -21.5745  -10.5700 C   0  0  0  0  0  0  0  0  0  0  0  0
   25.2059  -20.8529  -11.7025 C   0  0  2  0  0  0  0  0  0  0  0  0
   23.9496  -21.5541  -11.9761 N   0  0  0  0  0  0  0  0  0  0  0  0
   25.9707  -20.7772  -12.9457 C   0  0  0  0  0  0  0  0  0  0  0  0
   25.8771  -21.7643  -13.7571 O   0  0  0  0  0  0  0  0  0  0  0  0
   27.2195  -18.4355  -17.4365 C   0  0  0  0  0  0  0  0  0  0  0  0
   28.4179  -18.3626  -16.4844 C   0  0  1  0  0  0  0  0  0  0  0  0
   29.0783  -16.9817  -16.7368 C   0  0  0  0  0  0  0  0  0  0  0  0
   27.8801  -18.3695  -15.0848 C   0  0  0  0  0  0  0  0  0  0  0  0
   27.3289  -19.6998  -14.7262 C   0  0  2  0  0  0  0  0  0  0  0  0
   26.8089  -19.7338  -13.3698 N   0  0  0  0  0  0  0  0  0  0  0  0
   28.3355  -20.7553  -14.8772 C   0  0  0  0  0  0  0  0  0  0  0  0
   28.9591  -21.2585  -13.7130 O   0  0  0  0  0  0  0  0  0  0  0  0
   28.6902  -21.2506  -15.9639 O   0  0  0  0  0  0  0  0  0  0  0  0
  2  1  1  0
  3  2  2  0
  4  3  1  0
  5  4  2  0
  5 11  1  0
  6  5  1  0
  7  9  1  0
  7  6  1  0
  7  8  1  1
  9 10  2  0
 11 12  2  0
 12  2  1  0
 14 15  1  0
 14 13  1  0
 17 16  1  1
 16 15  1  0
 18 17  1  0
 18  9  1  0
 19 20  2  0
 19 17  1  0
 22 21  1  6
 22 24  1  0
 23 22  1  0
 25 24  1  1
 25 27  1  0
 25 26  1  0
 26 19  1  0
 27 28  1  0
 29 27  2  0
M  END
$$$$
