YML.pdb
     RDKit          3D

 29 29  0  0  1  0  0  0  0  0999 V2000
   25.7257  -19.9417  -22.3222 O   0  0  0  0  0  0  0  0  0  0  0  0
   25.6876  -18.5574  -22.0623 C   0  0  0  0  0  0  0  0  0  0  0  0
   26.8609  -17.8383  -21.9383 C   0  0  0  0  0  0  0  0  0  0  0  0
   26.8390  -16.4681  -21.6813 C   0  0  0  0  0  0  0  0  0  0  0  0
   25.6474  -15.7938  -21.5438 C   0  0  0  0  0  0  0  0  0  0  0  0
   25.6741  -14.3396  -21.2696 C   0  0  0  0  0  0  0  0  0  0  0  0
   25.9777  -14.0450  -19.8194 C   0  0  2  0  0  0  0  0  0  0  0  0
   24.8248  -14.4649  -19.0527 N   0  0  0  0  0  0  0  0  0  0  0  0
   26.2400  -12.6318  -19.5593 C   0  0  0  0  0  0  0  0  0  0  0  0
   25.2416  -11.8555  -19.3946 O   0  0  0  0  0  0  0  0  0  0  0  0
   24.4899  -16.5295  -21.6710 C   0  0  0  0  0  0  0  0  0  0  0  0
   24.4992  -17.8860  -21.9255 C   0  0  0  0  0  0  0  0  0  0  0  0
   30.5715  -12.8873  -16.4814 C   0  0  0  0  0  0  0  0  0  0  0  0
   28.8321  -12.7472  -15.9495 S   0  0  0  0  0  0  0  0  0  0  0  0
   28.1268  -11.1655  -16.5857 C   0  0  0  0  0  0  0  0  0  0  0  0
   28.7293  -10.8193  -17.8977 C   0  0  0  0  0  0  0  0  0  0  0  0
   27.8063  -10.7481  -19.0648 C   0  0  2  0  0  0  0  0  0  0  0  0
   27.5734  -12.1297  -19.4910 N   0  0  0  0  0  0  0  0  0  0  0  0
   28.2745   -9.9833  -20.2189 C   0  0  0  0  0  0  0  0  0  0  0  0
   28.6187  -10.6415  -21.2627 O   0  0  0  0  0  0  0  0  0  0  0  0
   27.6839   -6.4986  -24.2097 C   0  0  0  0  0  0  0  0  0  0  0  0
   28.3444   -7.8681  -24.0194 C   0  0  1  0  0  0  0  0  0  0  0  0
   29.8672   -7.5939  -23.9067 C   0  0  0  0  0  0  0  0  0  0  0  0
   27.8739   -8.4144  -22.7047 C   0  0  0  0  0  0  0  0  0  0  0  0
   28.7473   -7.9665  -21.5919 C   0  0  2  0  0  0  0  0  0  0  0  0
   28.3922   -8.5885  -20.3275 N   0  0  0  0  0  0  0  0  0  0  0  0
   28.7086   -6.5093  -21.4334 C   0  0  0  0  0  0  0  0  0  0  0  0
   29.6423   -5.7314  -22.1550 O   0  0  0  0  0  0  0  0  0  0  0  0
   27.9083   -5.8935  -20.7039 O   0  0  0  0  0  0  0  0  0  0  0  0
  2  1  1  0
  3  2  2  0
  4  3  1  0
  5  4  2  0
  5 11  1  0
  6  5  1  0
  7  9  1  0
  7  6  1  0
  7  8  1  1
  9 10  2  0
 11 12  2  0
 12  2  1  0
 14 15  1  0
 14 13  1  0
 17 16  1  1
 16 15  1  0
 18 17  1  0
 18  9  1  0
 19 20  2  0
 19 17  1  0
 22 21  1  1
 22 24  1  0
 23 22  1  0
 25 24  1  6
 25 27  1  0
 25 26  1  0
 26 19  1  0
 27 28  1  0
 29 27  2  0
M  END
$$$$
