YML.pdb
     RDKit          3D

 29 29  0  0  1  0  0  0  0  0999 V2000
   23.8590  -13.9437  -15.8967 O   0  0  0  0  0  0  0  0  0  0  0  0
   24.4198  -12.6609  -16.0546 C   0  0  0  0  0  0  0  0  0  0  0  0
   25.4390  -12.2379  -15.2231 C   0  0  0  0  0  0  0  0  0  0  0  0
   26.0038  -10.9713  -15.3673 C   0  0  0  0  0  0  0  0  0  0  0  0
   25.5614  -10.1071  -16.3424 C   0  0  0  0  0  0  0  0  0  0  0  0
   26.1902   -8.7720  -16.4561 C   0  0  0  0  0  0  0  0  0  0  0  0
   26.8789   -8.5849  -17.7875 C   0  0  2  0  0  0  0  0  0  0  0  0
   28.0486   -9.4365  -17.7813 N   0  0  0  0  0  0  0  0  0  0  0  0
   27.2890   -7.2055  -18.0373 C   0  0  0  0  0  0  0  0  0  0  0  0
   28.4562   -6.8489  -17.6666 O   0  0  0  0  0  0  0  0  0  0  0  0
   24.5448  -10.5486  -17.1602 C   0  0  0  0  0  0  0  0  0  0  0  0
   23.9782  -11.8000  -17.0270 C   0  0  0  0  0  0  0  0  0  0  0  0
   30.0238   -5.1241  -22.4800 C   0  0  0  0  0  0  0  0  0  0  0  0
   30.3693   -4.1091  -21.0040 S   0  0  0  0  0  0  0  0  0  0  0  0
   28.7872   -3.7611  -20.1210 C   0  0  0  0  0  0  0  0  0  0  0  0
   28.1369   -5.0283  -19.7025 C   0  0  0  0  0  0  0  0  0  0  0  0
   26.8661   -4.9113  -18.9341 C   0  0  2  0  0  0  0  0  0  0  0  0
   26.4123   -6.2798  -18.6770 N   0  0  0  0  0  0  0  0  0  0  0  0
   25.7789   -4.1802  -19.5818 C   0  0  0  0  0  0  0  0  0  0  0  0
   25.1860   -4.7518  -20.5632 O   0  0  0  0  0  0  0  0  0  0  0  0
   21.4883   -3.0740  -21.6354 C   0  0  0  0  0  0  0  0  0  0  0  0
   21.7866   -2.1893  -20.4204 C   0  0  1  0  0  0  0  0  0  0  0  0
   20.5025   -2.2148  -19.5502 C   0  0  0  0  0  0  0  0  0  0  0  0
   22.8855   -2.8502  -19.6432 C   0  0  0  0  0  0  0  0  0  0  0  0
   24.2129   -2.2993  -20.0126 C   0  0  2  0  0  0  0  0  0  0  0  0
   25.2926   -2.9052  -19.2519 N   0  0  0  0  0  0  0  0  0  0  0  0
   24.2592   -0.8451  -19.8301 C   0  0  0  0  0  0  0  0  0  0  0  0
   23.5235   -0.0335  -20.7233 O   0  0  0  0  0  0  0  0  0  0  0  0
   24.9036   -0.2595  -18.9391 O   0  0  0  0  0  0  0  0  0  0  0  0
  2  1  1  0
  3  2  2  0
  4  3  1  0
  5  4  2  0
  5 11  1  0
  6  5  1  0
  7  9  1  0
  7  6  1  0
  7  8  1  1
  9 10  2  0
 11 12  2  0
 12  2  1  0
 14 15  1  0
 14 13  1  0
 17 16  1  6
 16 15  1  0
 18 17  1  0
 18  9  1  0
 19 20  2  0
 19 17  1  0
 22 21  1  6
 22 24  1  0
 23 22  1  0
 25 24  1  1
 25 27  1  0
 25 26  1  0
 26 19  1  0
 27 28  1  0
 29 27  2  0
M  END
$$$$
