YML.pdb
     RDKit          3D

 29 29  0  0  1  0  0  0  0  0999 V2000
   27.5506  -12.8079  -18.0702 O   0  0  0  0  0  0  0  0  0  0  0  0
   27.1894  -13.9892  -17.3926 C   0  0  0  0  0  0  0  0  0  0  0  0
   26.3492  -14.9080  -17.9918 C   0  0  0  0  0  0  0  0  0  0  0  0
   25.9830  -16.0814  -17.3337 C   0  0  0  0  0  0  0  0  0  0  0  0
   26.4486  -16.3569  -16.0685 C   0  0  0  0  0  0  0  0  0  0  0  0
   26.0311  -17.6144  -15.4089 C   0  0  0  0  0  0  0  0  0  0  0  0
   27.1761  -18.5916  -15.2825 C   0  0  2  0  0  0  0  0  0  0  0  0
   27.5500  -18.9800  -16.6251 N   0  0  0  0  0  0  0  0  0  0  0  0
   26.8348  -19.7855  -14.5135 C   0  0  0  0  0  0  0  0  0  0  0  0
   26.2032  -20.7220  -15.1060 O   0  0  0  0  0  0  0  0  0  0  0  0
   27.2847  -15.4278  -15.4897 C   0  0  0  0  0  0  0  0  0  0  0  0
   27.6541  -14.2631  -16.1314 C   0  0  0  0  0  0  0  0  0  0  0  0
   29.8617  -21.0098   -9.1020 C   0  0  0  0  0  0  0  0  0  0  0  0
   30.3770  -21.9910  -10.5510 S   0  0  0  0  0  0  0  0  0  0  0  0
   29.1750  -21.7245  -11.9250 C   0  0  0  0  0  0  0  0  0  0  0  0
   27.8432  -21.3526  -11.3845 C   0  0  0  0  0  0  0  0  0  0  0  0
   26.7660  -21.0799  -12.3766 C   0  0  2  0  0  0  0  0  0  0  0  0
   27.1951  -19.9051  -13.1385 N   0  0  0  0  0  0  0  0  0  0  0  0
   25.4344  -20.8160  -11.8352 C   0  0  0  0  0  0  0  0  0  0  0  0
   25.2387  -19.6791  -11.2780 O   0  0  0  0  0  0  0  0  0  0  0  0
   20.8398  -20.8460  -14.5462 C   0  0  0  0  0  0  0  0  0  0  0  0
   21.6477  -19.8180  -13.7472 C   0  0  1  0  0  0  0  0  0  0  0  0
   20.9107  -19.6588  -12.3913 C   0  0  0  0  0  0  0  0  0  0  0  0
   22.9939  -20.4191  -13.4744 C   0  0  0  0  0  0  0  0  0  0  0  0
   23.0002  -21.1667  -12.1926 C   0  0  2  0  0  0  0  0  0  0  0  0
   24.3206  -21.6704  -11.8545 N   0  0  0  0  0  0  0  0  0  0  0  0
   22.0555  -22.2877  -12.2214 C   0  0  0  0  0  0  0  0  0  0  0  0
   20.8074  -22.1295  -11.5774 O   0  0  0  0  0  0  0  0  0  0  0  0
   22.2675  -23.3833  -12.7752 O   0  0  0  0  0  0  0  0  0  0  0  0
  2  1  1  0
  3  2  2  0
  4  3  1  0
  5  4  2  0
  5 11  1  0
  6  5  1  0
  7  9  1  0
  7  6  1  0
  7  8  1  6
  9 10  2  0
 11 12  2  0
 12  2  1  0
 14 15  1  0
 14 13  1  0
 17 16  1  1
 16 15  1  0
 18 17  1  0
 18  9  1  0
 19 20  2  0
 19 17  1  0
 22 21  1  6
 22 24  1  0
 23 22  1  0
 25 24  1  6
 25 27  1  0
 25 26  1  0
 26 19  1  0
 27 28  1  0
 29 27  2  0
M  END
$$$$
