YML.pdb
     RDKit          3D

 29 29  0  0  1  0  0  0  0  0999 V2000
   19.9601  -17.6168  -15.7543 O   0  0  0  0  0  0  0  0  0  0  0  0
   20.7165  -18.2633  -14.7568 C   0  0  0  0  0  0  0  0  0  0  0  0
   21.9674  -17.7883  -14.4122 C   0  0  0  0  0  0  0  0  0  0  0  0
   22.7275  -18.4175  -13.4271 C   0  0  0  0  0  0  0  0  0  0  0  0
   22.2526  -19.5297  -12.7707 C   0  0  0  0  0  0  0  0  0  0  0  0
   23.0962  -20.1648  -11.7336 C   0  0  0  0  0  0  0  0  0  0  0  0
   24.4188  -20.6343  -12.2925 C   0  0  2  0  0  0  0  0  0  0  0  0
   24.1234  -21.6493  -13.2803 N   0  0  0  0  0  0  0  0  0  0  0  0
   25.3088  -21.1939  -11.2786 C   0  0  0  0  0  0  0  0  0  0  0  0
   24.9906  -22.3099  -10.7492 O   0  0  0  0  0  0  0  0  0  0  0  0
   21.0037  -19.9865  -13.1296 C   0  0  0  0  0  0  0  0  0  0  0  0
   20.2422  -19.3720  -14.1029 C   0  0  0  0  0  0  0  0  0  0  0  0
   32.7791  -22.0841   -9.3784 C   0  0  0  0  0  0  0  0  0  0  0  0
   31.4028  -21.7912  -10.5394 S   0  0  0  0  0  0  0  0  0  0  0  0
   29.8238  -21.6691   -9.5929 C   0  0  0  0  0  0  0  0  0  0  0  0
   28.7214  -21.2177  -10.4788 C   0  0  0  0  0  0  0  0  0  0  0  0
   27.3685  -21.1041   -9.8658 C   0  0  2  0  0  0  0  0  0  0  0  0
   26.5009  -20.5149  -10.8879 N   0  0  0  0  0  0  0  0  0  0  0  0
   27.2691  -20.2925   -8.6544 C   0  0  0  0  0  0  0  0  0  0  0  0
   27.1724  -19.0234   -8.8007 O   0  0  0  0  0  0  0  0  0  0  0  0
   27.9450  -20.3864   -2.5049 C   0  0  0  0  0  0  0  0  0  0  0  0
   27.9527  -19.5847   -3.8108 C   0  0  1  0  0  0  0  0  0  0  0  0
   29.4306  -19.1795   -4.0522 C   0  0  0  0  0  0  0  0  0  0  0  0
   27.5425  -20.5163   -4.9116 C   0  0  0  0  0  0  0  0  0  0  0  0
   27.5617  -19.8344   -6.2294 C   0  0  2  0  0  0  0  0  0  0  0  0
   27.2626  -20.7418   -7.3243 N   0  0  0  0  0  0  0  0  0  0  0  0
   28.8559  -19.1931   -6.4821 C   0  0  0  0  0  0  0  0  0  0  0  0
   28.9795  -17.8086   -6.2258 O   0  0  0  0  0  0  0  0  0  0  0  0
   29.8688  -19.7782   -6.9105 O   0  0  0  0  0  0  0  0  0  0  0  0
  2  1  1  0
  3  2  2  0
  4  3  1  0
  5  4  2  0
  5 11  1  0
  6  5  1  0
  7  9  1  0
  7  6  1  0
  7  8  1  6
  9 10  2  0
 11 12  2  0
 12  2  1  0
 14 15  1  0
 14 13  1  0
 17 16  1  6
 16 15  1  0
 18 17  1  0
 18  9  1  0
 19 20  2  0
 19 17  1  0
 22 21  1  1
 22 24  1  0
 23 22  1  0
 25 24  1  1
 25 27  1  0
 25 26  1  0
 26 19  1  0
 27 28  1  0
 29 27  2  0
M  END
$$$$
