YML.pdb
     RDKit          3D

 29 29  0  0  1  0  0  0  0  0999 V2000
    9.3610  -11.1754   -9.7574 O   0  0  0  0  0  0  0  0  0  0  0  0
   10.6063  -10.5352   -9.6007 C   0  0  0  0  0  0  0  0  0  0  0  0
   11.4992  -10.9717   -8.6409 C   0  0  0  0  0  0  0  0  0  0  0  0
   12.7351  -10.3482   -8.4742 C   0  0  0  0  0  0  0  0  0  0  0  0
   13.0997   -9.2800   -9.2613 C   0  0  0  0  0  0  0  0  0  0  0  0
   14.4213   -8.6491   -9.0462 C   0  0  0  0  0  0  0  0  0  0  0  0
   15.3928   -8.9845  -10.1533 C   0  0  2  0  0  0  0  0  0  0  0  0
   15.7643  -10.3724   -9.9832 N   0  0  0  0  0  0  0  0  0  0  0  0
   16.5970   -8.1581  -10.1354 C   0  0  0  0  0  0  0  0  0  0  0  0
   17.5363   -8.4817   -9.3356 O   0  0  0  0  0  0  0  0  0  0  0  0
   12.1950   -8.8611  -10.2115 C   0  0  0  0  0  0  0  0  0  0  0  0
   10.9690   -9.4704  -10.3859 C   0  0  0  0  0  0  0  0  0  0  0  0
   22.2442   -4.8235  -13.9921 C   0  0  0  0  0  0  0  0  0  0  0  0
   20.8102   -5.9342  -13.7967 S   0  0  0  0  0  0  0  0  0  0  0  0
   19.9113   -5.5001  -12.2451 C   0  0  0  0  0  0  0  0  0  0  0  0
   18.7099   -6.3573  -12.0844 C   0  0  0  0  0  0  0  0  0  0  0  0
   17.8910   -6.1457  -10.8582 C   0  0  2  0  0  0  0  0  0  0  0  0
   16.7233   -7.0202  -10.9864 N   0  0  0  0  0  0  0  0  0  0  0  0
   17.4209   -4.7831  -10.6168 C   0  0  0  0  0  0  0  0  0  0  0  0
   16.4588   -4.3530  -11.3453 O   0  0  0  0  0  0  0  0  0  0  0  0
   15.7310   -0.2757   -8.2568 C   0  0  0  0  0  0  0  0  0  0  0  0
   17.2551   -0.4182   -8.3262 C   0  0  1  0  0  0  0  0  0  0  0  0
   17.8018    0.2231   -7.0237 C   0  0  0  0  0  0  0  0  0  0  0  0
   17.5708   -1.8835   -8.2884 C   0  0  0  0  0  0  0  0  0  0  0  0
   17.4110   -2.5035   -9.6271 C   0  0  2  0  0  0  0  0  0  0  0  0
   17.9010   -3.8710   -9.6635 N   0  0  0  0  0  0  0  0  0  0  0  0
   18.0954   -1.7244  -10.6636 C   0  0  0  0  0  0  0  0  0  0  0  0
   17.3455   -0.7738  -11.3928 O   0  0  0  0  0  0  0  0  0  0  0  0
   19.3010   -1.8345  -10.9575 O   0  0  0  0  0  0  0  0  0  0  0  0
  2  1  1  0
  3  2  2  0
  4  3  1  0
  5  4  2  0
  5 11  1  0
  6  5  1  0
  7  9  1  0
  7  6  1  0
  7  8  1  1
  9 10  2  0
 11 12  2  0
 12  2  1  0
 14 15  1  0
 14 13  1  0
 17 16  1  6
 16 15  1  0
 18 17  1  0
 18  9  1  0
 19 20  2  0
 19 17  1  0
 22 21  1  1
 22 24  1  0
 23 22  1  0
 25 24  1  1
 25 27  1  0
 25 26  1  0
 26 19  1  0
 27 28  1  0
 29 27  2  0
M  END
$$$$
