YML.pdb
     RDKit          3D

 29 29  0  0  1  0  0  0  0  0999 V2000
   27.5786  -12.8642  -15.2847 O   0  0  0  0  0  0  0  0  0  0  0  0
   26.4486  -12.1416  -15.7161 C   0  0  0  0  0  0  0  0  0  0  0  0
   26.4123  -10.7657  -15.5947 C   0  0  0  0  0  0  0  0  0  0  0  0
   25.3011  -10.0372  -16.0172 C   0  0  0  0  0  0  0  0  0  0  0  0
   24.2093  -10.6688  -16.5670 C   0  0  0  0  0  0  0  0  0  0  0  0
   23.0519   -9.8537  -16.9993 C   0  0  0  0  0  0  0  0  0  0  0  0
   22.0187   -9.7174  -15.9058 C   0  0  2  0  0  0  0  0  0  0  0  0
   21.5807  -11.0547  -15.5694 N   0  0  0  0  0  0  0  0  0  0  0  0
   20.8622   -8.9170  -16.3000 C   0  0  0  0  0  0  0  0  0  0  0  0
   19.8687   -9.5164  -16.8296 O   0  0  0  0  0  0  0  0  0  0  0  0
   24.2662  -12.0404  -16.6787 C   0  0  0  0  0  0  0  0  0  0  0  0
   25.3606  -12.7721  -16.2641 C   0  0  0  0  0  0  0  0  0  0  0  0
   14.3460   -6.7692  -14.8654 C   0  0  0  0  0  0  0  0  0  0  0  0
   15.9190   -7.6932  -14.8706 S   0  0  0  0  0  0  0  0  0  0  0  0
   17.1794   -6.7435  -15.8263 C   0  0  0  0  0  0  0  0  0  0  0  0
   18.5067   -7.4018  -15.7317 C   0  0  0  0  0  0  0  0  0  0  0  0
   19.6372   -6.7433  -16.4439 C   0  0  2  0  0  0  0  0  0  0  0  0
   20.8402   -7.5047  -16.1006 N   0  0  0  0  0  0  0  0  0  0  0  0
   19.8763   -5.3371  -16.1251 C   0  0  0  0  0  0  0  0  0  0  0  0
   20.2883   -5.0617  -14.9437 O   0  0  0  0  0  0  0  0  0  0  0  0
   21.0565   -1.1326  -19.6217 C   0  0  0  0  0  0  0  0  0  0  0  0
   21.0826   -2.1906  -18.5136 C   0  0  1  0  0  0  0  0  0  0  0  0
   22.4202   -1.9804  -17.7564 C   0  0  0  0  0  0  0  0  0  0  0  0
   19.9616   -1.8779  -17.5683 C   0  0  0  0  0  0  0  0  0  0  0  0
   19.8861   -2.8765  -16.4733 C   0  0  2  0  0  0  0  0  0  0  0  0
   19.7103   -4.2298  -16.9722 N   0  0  0  0  0  0  0  0  0  0  0  0
   18.7979   -2.5674  -15.5404 C   0  0  0  0  0  0  0  0  0  0  0  0
   18.9008   -1.3975  -14.7540 O   0  0  0  0  0  0  0  0  0  0  0  0
   17.7762   -3.2627  -15.3828 O   0  0  0  0  0  0  0  0  0  0  0  0
  2  1  1  0
  3  2  2  0
  4  3  1  0
  5  4  2  0
  5 11  1  0
  6  5  1  0
  7  9  1  0
  7  6  1  0
  7  8  1  6
  9 10  2  0
 11 12  2  0
 12  2  1  0
 14 15  1  0
 14 13  1  0
 17 16  1  1
 16 15  1  0
 18 17  1  0
 18  9  1  0
 19 20  2  0
 19 17  1  0
 22 21  1  6
 22 24  1  0
 23 22  1  0
 25 24  1  6
 25 27  1  0
 25 26  1  0
 26 19  1  0
 27 28  1  0
 29 27  2  0
M  END
$$$$
