YML.pdb
     RDKit          3D

 29 29  0  0  1  0  0  0  0  0999 V2000
   10.1166  -12.9125  -11.0408 O   0  0  0  0  0  0  0  0  0  0  0  0
   11.1838  -12.0607  -10.6933 C   0  0  0  0  0  0  0  0  0  0  0  0
   12.0094  -12.3745   -9.6308 C   0  0  0  0  0  0  0  0  0  0  0  0
   13.0693  -11.5413   -9.2752 C   0  0  0  0  0  0  0  0  0  0  0  0
   13.3224  -10.3828   -9.9730 C   0  0  0  0  0  0  0  0  0  0  0  0
   14.4578   -9.5290   -9.5574 C   0  0  0  0  0  0  0  0  0  0  0  0
   15.5920   -9.5750  -10.5542 C   0  0  2  0  0  0  0  0  0  0  0  0
   16.2990  -10.8177  -10.3325 N   0  0  0  0  0  0  0  0  0  0  0  0
   16.5252   -8.4596  -10.4197 C   0  0  0  0  0  0  0  0  0  0  0  0
   17.3394   -8.4720   -9.4379 O   0  0  0  0  0  0  0  0  0  0  0  0
   12.4875  -10.0889  -11.0283 C   0  0  0  0  0  0  0  0  0  0  0  0
   11.4354  -10.9059  -11.3896 C   0  0  0  0  0  0  0  0  0  0  0  0
   21.9571   -7.9157  -12.5687 C   0  0  0  0  0  0  0  0  0  0  0  0
   20.8130   -6.5281  -12.2624 S   0  0  0  0  0  0  0  0  0  0  0  0
   19.1132   -7.0131  -12.7907 C   0  0  0  0  0  0  0  0  0  0  0  0
   18.1288   -5.9784  -12.3852 C   0  0  0  0  0  0  0  0  0  0  0  0
   17.3828   -6.2184  -11.1184 C   0  0  2  0  0  0  0  0  0  0  0  0
   16.5294   -7.3843  -11.3571 N   0  0  0  0  0  0  0  0  0  0  0  0
   16.5416   -5.1227  -10.6410 C   0  0  0  0  0  0  0  0  0  0  0  0
   15.4756   -4.8654  -11.3033 O   0  0  0  0  0  0  0  0  0  0  0  0
   13.3584   -2.9640   -6.2989 C   0  0  0  0  0  0  0  0  0  0  0  0
   14.1772   -2.4645   -7.4939 C   0  0  1  0  0  0  0  0  0  0  0  0
   14.9800   -1.2414   -6.9778 C   0  0  0  0  0  0  0  0  0  0  0  0
   15.1556   -3.5435   -7.8498 C   0  0  0  0  0  0  0  0  0  0  0  0
   15.8063   -3.2712   -9.1553 C   0  0  2  0  0  0  0  0  0  0  0  0
   16.7607   -4.3039   -9.5218 N   0  0  0  0  0  0  0  0  0  0  0  0
   16.4868   -1.9723   -9.1542 C   0  0  0  0  0  0  0  0  0  0  0  0
   15.8143   -0.8627   -9.7147 O   0  0  0  0  0  0  0  0  0  0  0  0
   17.6254   -1.7655   -8.6930 O   0  0  0  0  0  0  0  0  0  0  0  0
  2  1  1  0
  3  2  2  0
  4  3  1  0
  5  4  2  0
  5 11  1  0
  6  5  1  0
  7  9  1  0
  7  6  1  0
  7  8  1  1
  9 10  2  0
 11 12  2  0
 12  2  1  0
 14 15  1  0
 14 13  1  0
 17 16  1  6
 16 15  1  0
 18 17  1  0
 18  9  1  0
 19 20  2  0
 19 17  1  0
 22 21  1  1
 22 24  1  0
 23 22  1  0
 25 24  1  1
 25 27  1  0
 25 26  1  0
 26 19  1  0
 27 28  1  0
 29 27  2  0
M  END
$$$$
