YML.pdb
     RDKit          3D

 29 29  0  0  1  0  0  0  0  0999 V2000
   19.3489  -23.4112  -12.2056 O   0  0  0  0  0  0  0  0  0  0  0  0
   19.1626  -23.9636  -10.9230 C   0  0  0  0  0  0  0  0  0  0  0  0
   19.3813  -25.3104  -10.7050 C   0  0  0  0  0  0  0  0  0  0  0  0
   19.2011  -25.8713   -9.4413 C   0  0  0  0  0  0  0  0  0  0  0  0
   18.8002  -25.0985   -8.3757 C   0  0  0  0  0  0  0  0  0  0  0  0
   18.6203  -25.7386   -7.0533 C   0  0  0  0  0  0  0  0  0  0  0  0
   17.3246  -26.5110   -6.9726 C   0  0  2  0  0  0  0  0  0  0  0  0
   16.2537  -25.5385   -6.9522 N   0  0  0  0  0  0  0  0  0  0  0  0
   17.2291  -27.3572   -5.7859 C   0  0  0  0  0  0  0  0  0  0  0  0
   16.7891  -26.8346   -4.7088 O   0  0  0  0  0  0  0  0  0  0  0  0
   18.5878  -23.7588   -8.6149 C   0  0  0  0  0  0  0  0  0  0  0  0
   18.7630  -23.1924   -9.8612 C   0  0  0  0  0  0  0  0  0  0  0  0
   21.1381  -33.3487   -4.9616 C   0  0  0  0  0  0  0  0  0  0  0  0
   19.6206  -32.5980   -4.2821 S   0  0  0  0  0  0  0  0  0  0  0  0
   18.9131  -31.4281   -5.5210 C   0  0  0  0  0  0  0  0  0  0  0  0
   17.5626  -30.9791   -5.0984 C   0  0  0  0  0  0  0  0  0  0  0  0
   17.4355  -29.5679   -4.6385 C   0  0  2  0  0  0  0  0  0  0  0  0
   17.6163  -28.7296   -5.8256 N   0  0  0  0  0  0  0  0  0  0  0  0
   18.3834  -29.1287   -3.6165 C   0  0  0  0  0  0  0  0  0  0  0  0
   19.1416  -28.1364   -3.9023 O   0  0  0  0  0  0  0  0  0  0  0  0
   21.1005  -26.4253   -0.7143 C   0  0  0  0  0  0  0  0  0  0  0  0
   19.9768  -27.1262    0.0565 C   0  0  1  0  0  0  0  0  0  0  0  0
   19.2212  -26.0061    0.8187 C   0  0  0  0  0  0  0  0  0  0  0  0
   19.0376  -27.7129   -0.9544 C   0  0  0  0  0  0  0  0  0  0  0  0
   19.4883  -29.0574   -1.3916 C   0  0  2  0  0  0  0  0  0  0  0  0
   18.5662  -29.6688   -2.3335 N   0  0  0  0  0  0  0  0  0  0  0  0
   19.6705  -29.9590   -0.2497 C   0  0  0  0  0  0  0  0  0  0  0  0
   20.9730  -30.1227    0.2742 O   0  0  0  0  0  0  0  0  0  0  0  0
   18.7573  -30.6012    0.3032 O   0  0  0  0  0  0  0  0  0  0  0  0
  2  1  1  0
  3  2  2  0
  4  3  1  0
  5  4  2  0
  5 11  1  0
  6  5  1  0
  7  9  1  0
  7  6  1  0
  7  8  1  1
  9 10  2  0
 11 12  2  0
 12  2  1  0
 14 15  1  0
 14 13  1  0
 17 16  1  6
 16 15  1  0
 18 17  1  0
 18  9  1  0
 19 20  2  0
 19 17  1  0
 22 21  1  6
 22 24  1  0
 23 22  1  0
 25 24  1  1
 25 27  1  0
 25 26  1  0
 26 19  1  0
 27 28  1  0
 29 27  2  0
M  END
$$$$
