YML.pdb
     RDKit          3D

 29 29  0  0  1  0  0  0  0  0999 V2000
   19.2765  -16.9985  -16.4119 O   0  0  0  0  0  0  0  0  0  0  0  0
   20.0207  -17.7599  -15.4891 C   0  0  0  0  0  0  0  0  0  0  0  0
   19.6086  -19.0319  -15.1411 C   0  0  0  0  0  0  0  0  0  0  0  0
   20.3347  -19.7972  -14.2294 C   0  0  0  0  0  0  0  0  0  0  0  0
   21.4825  -19.3063  -13.6507 C   0  0  0  0  0  0  0  0  0  0  0  0
   22.2190  -20.1547  -12.6870 C   0  0  0  0  0  0  0  0  0  0  0  0
   23.5307  -20.6438  -13.2544 C   0  0  2  0  0  0  0  0  0  0  0  0
   23.2114  -21.5460  -14.3395 N   0  0  0  0  0  0  0  0  0  0  0  0
   24.3592  -21.3427  -12.2753 C   0  0  0  0  0  0  0  0  0  0  0  0
   24.5785  -22.5867  -12.4521 O   0  0  0  0  0  0  0  0  0  0  0  0
   21.8755  -18.0364  -14.0115 C   0  0  0  0  0  0  0  0  0  0  0  0
   21.1650  -17.2697  -14.9127 C   0  0  0  0  0  0  0  0  0  0  0  0
   29.0787  -22.4598  -13.9639 C   0  0  0  0  0  0  0  0  0  0  0  0
   29.7156  -21.5331  -12.5273 S   0  0  0  0  0  0  0  0  0  0  0  0
   28.5186  -21.6775  -11.1308 C   0  0  0  0  0  0  0  0  0  0  0  0
   27.1725  -21.2136  -11.5513 C   0  0  0  0  0  0  0  0  0  0  0  0
   26.1142  -21.1797  -10.5034 C   0  0  2  0  0  0  0  0  0  0  0  0
   24.9091  -20.6577  -11.1514 N   0  0  0  0  0  0  0  0  0  0  0  0
   26.3926  -20.3631   -9.3237 C   0  0  0  0  0  0  0  0  0  0  0  0
   26.5071  -19.0986   -9.4949 O   0  0  0  0  0  0  0  0  0  0  0  0
   27.3758  -20.2025   -3.2479 C   0  0  0  0  0  0  0  0  0  0  0  0
   27.3296  -19.4420   -4.5774 C   0  0  1  0  0  0  0  0  0  0  0  0
   28.8065  -19.1506   -4.9522 C   0  0  0  0  0  0  0  0  0  0  0  0
   26.7658  -20.3739   -5.6079 C   0  0  0  0  0  0  0  0  0  0  0  0
   27.0972  -19.9217   -6.9818 C   0  0  2  0  0  0  0  0  0  0  0  0
   26.5493  -20.8023   -7.9994 N   0  0  0  0  0  0  0  0  0  0  0  0
   28.5467  -19.8138   -7.1753 C   0  0  0  0  0  0  0  0  0  0  0  0
   29.2957  -21.0048   -7.3100 O   0  0  0  0  0  0  0  0  0  0  0  0
   29.1797  -18.7422   -7.2309 O   0  0  0  0  0  0  0  0  0  0  0  0
  2  1  1  0
  3  2  2  0
  4  3  1  0
  5  4  2  0
  5 11  1  0
  6  5  1  0
  7  9  1  0
  7  6  1  0
  7  8  1  6
  9 10  2  0
 11 12  2  0
 12  2  1  0
 14 15  1  0
 14 13  1  0
 17 16  1  6
 16 15  1  0
 18 17  1  0
 18  9  1  0
 19 20  2  0
 19 17  1  0
 22 21  1  1
 22 24  1  0
 23 22  1  0
 25 24  1  1
 25 27  1  0
 25 26  1  0
 26 19  1  0
 27 28  1  0
 29 27  2  0
M  END
$$$$
