YML.pdb
     RDKit          3D

 29 29  0  0  1  0  0  0  0  0999 V2000
   28.9501  -14.5458  -17.9214 O   0  0  0  0  0  0  0  0  0  0  0  0
   28.3158  -15.6209  -17.2680 C   0  0  0  0  0  0  0  0  0  0  0  0
   28.1785  -15.6186  -15.8932 C   0  0  0  0  0  0  0  0  0  0  0  0
   27.5531  -16.6754  -15.2327 C   0  0  0  0  0  0  0  0  0  0  0  0
   27.0551  -17.7505  -15.9324 C   0  0  0  0  0  0  0  0  0  0  0  0
   26.4009  -18.8497  -15.1878 C   0  0  0  0  0  0  0  0  0  0  0  0
   27.4062  -19.7272  -14.4797 C   0  0  2  0  0  0  0  0  0  0  0  0
   28.0700  -20.5141  -15.4962 N   0  0  0  0  0  0  0  0  0  0  0  0
   26.8010  -20.6223  -13.4968 C   0  0  0  0  0  0  0  0  0  0  0  0
   26.3078  -21.7235  -13.9101 O   0  0  0  0  0  0  0  0  0  0  0  0
   27.2025  -17.7326  -17.3018 C   0  0  0  0  0  0  0  0  0  0  0  0
   27.8195  -16.6923  -17.9664 C   0  0  0  0  0  0  0  0  0  0  0  0
   27.6360  -19.7619   -7.3231 C   0  0  0  0  0  0  0  0  0  0  0  0
   25.9847  -20.5044   -7.0998 S   0  0  0  0  0  0  0  0  0  0  0  0
   25.3549  -21.0895   -8.7323 C   0  0  0  0  0  0  0  0  0  0  0  0
   26.2039  -20.5683   -9.8330 C   0  0  0  0  0  0  0  0  0  0  0  0
   25.8474  -20.9909  -11.2163 C   0  0  2  0  0  0  0  0  0  0  0  0
   26.7601  -20.2785  -12.1130 N   0  0  0  0  0  0  0  0  0  0  0  0
   24.4767  -20.7215  -11.6461 C   0  0  0  0  0  0  0  0  0  0  0  0
   24.2064  -19.5350  -12.0469 O   0  0  0  0  0  0  0  0  0  0  0  0
   19.8484  -22.9463  -13.9379 C   0  0  0  0  0  0  0  0  0  0  0  0
   20.9505  -22.0447  -14.5041 C   0  0  1  0  0  0  0  0  0  0  0  0
   20.4805  -20.5881  -14.2506 C   0  0  0  0  0  0  0  0  0  0  0  0
   22.1864  -22.2807  -13.6885 C   0  0  0  0  0  0  0  0  0  0  0  0
   22.2419  -21.3695  -12.5187 C   0  0  2  0  0  0  0  0  0  0  0  0
   23.3997  -21.6216  -11.6778 N   0  0  0  0  0  0  0  0  0  0  0  0
   21.0284  -21.4717  -11.7019 C   0  0  0  0  0  0  0  0  0  0  0  0
   21.0432  -22.3373  -10.5847 O   0  0  0  0  0  0  0  0  0  0  0  0
   19.9712  -20.8486  -11.9165 O   0  0  0  0  0  0  0  0  0  0  0  0
  2  1  1  0
  3  2  2  0
  4  3  1  0
  5  4  2  0
  5 11  1  0
  6  5  1  0
  7  9  1  0
  7  6  1  0
  7  8  1  6
  9 10  2  0
 11 12  2  0
 12  2  1  0
 14 15  1  0
 14 13  1  0
 17 16  1  1
 16 15  1  0
 18 17  1  0
 18  9  1  0
 19 20  2  0
 19 17  1  0
 22 21  1  1
 22 24  1  0
 23 22  1  0
 25 24  1  6
 25 27  1  0
 25 26  1  0
 26 19  1  0
 27 28  1  0
 29 27  2  0
M  END
$$$$
