DAG.pdb
     RDKit          3D

 18 17  0  0  1  0  0  0  0  0999 V2000
   17.6664  -11.5865  -15.7201 N   0  0  0  0  0  0  0  0  0  0  0  0
   18.3954  -10.6336  -16.5332 C   0  0  1  0  0  0  0  0  0  0  0  0
   17.3966   -9.7267  -17.2184 C   0  0  0  0  0  0  0  0  0  0  0  0
   16.6319  -10.4036  -18.2611 C   0  0  0  0  0  0  0  0  0  0  0  0
   15.3823  -10.3114  -18.2790 O   0  0  0  0  0  0  0  0  0  0  0  0
   19.2091   -9.7593  -15.6222 C   0  0  0  0  0  0  0  0  0  0  0  0
   18.6383   -9.0711  -14.7317 O   0  0  0  0  0  0  0  0  0  0  0  0
   17.2620  -11.1495  -19.2362 O   0  0  0  0  0  0  0  0  0  0  0  0
   22.8350   -9.4230  -14.7532 C   0  0  0  0  0  0  0  0  0  0  0  0
   21.4102   -8.8854  -14.7653 C   0  0  2  0  0  0  0  0  0  0  0  0
   20.6140   -9.6629  -15.7099 N   0  0  0  0  0  0  0  0  0  0  0  0
   21.3701   -7.4725  -15.2067 C   0  0  0  0  0  0  0  0  0  0  0  0
   21.2483   -7.1543  -16.4392 O   0  0  0  0  0  0  0  0  0  0  0  0
   21.4628   -6.3791  -14.3040 N   0  0  0  0  0  0  0  0  0  0  0  0
   21.3449   -4.9964  -14.7835 C   0  0  0  0  0  0  0  0  0  0  0  0
   21.4448   -4.0396  -13.6679 C   0  0  0  0  0  0  0  0  0  0  0  0
   22.5390   -3.2124  -13.4472 O   0  0  0  0  0  0  0  0  0  0  0  0
   20.4886   -3.9645  -12.8689 O   0  0  0  0  0  0  0  0  0  0  0  0
  2  1  1  1
  2  3  1  0
  3  4  1  0
  4  8  1  0
  5  4  2  0
  6  2  1  0
  7  6  2  0
 10  9  1  6
 10 11  1  0
 11  6  1  0
 12 10  1  0
 12 14  1  0
 13 12  2  0
 15 14  1  0
 16 15  1  0
 17 16  1  0
 18 16  2  0
M  END
$$$$
