DAG.pdb
     RDKit          3D

 18 17  0  0  1  0  0  0  0  0999 V2000
   22.9731   -9.7043  -15.9351 N   0  0  0  0  0  0  0  0  0  0  0  0
   22.0566   -8.5818  -15.9569 C   0  0  1  0  0  0  0  0  0  0  0  0
   21.5543   -8.3470  -14.5491 C   0  0  0  0  0  0  0  0  0  0  0  0
   20.6416   -9.3879  -14.0871 C   0  0  0  0  0  0  0  0  0  0  0  0
   20.3967  -10.3745  -14.8199 O   0  0  0  0  0  0  0  0  0  0  0  0
   22.8252   -7.3510  -16.3455 C   0  0  0  0  0  0  0  0  0  0  0  0
   24.0581   -7.2694  -16.0894 O   0  0  0  0  0  0  0  0  0  0  0  0
   20.0374   -9.3076  -12.8490 O   0  0  0  0  0  0  0  0  0  0  0  0
   22.3997   -4.6606  -18.8271 C   0  0  0  0  0  0  0  0  0  0  0  0
   23.0016   -5.1233  -17.5069 C   0  0  2  0  0  0  0  0  0  0  0  0
   22.2281   -6.2520  -16.9985 N   0  0  0  0  0  0  0  0  0  0  0  0
   22.9503   -4.0525  -16.4855 C   0  0  0  0  0  0  0  0  0  0  0  0
   23.6106   -2.9652  -16.6146 O   0  0  0  0  0  0  0  0  0  0  0  0
   22.1727   -4.1531  -15.3004 N   0  0  0  0  0  0  0  0  0  0  0  0
   22.1627   -3.0662  -14.3134 C   0  0  0  0  0  0  0  0  0  0  0  0
   21.0684   -2.1175  -14.5825 C   0  0  0  0  0  0  0  0  0  0  0  0
   20.7236   -1.0674  -13.7406 O   0  0  0  0  0  0  0  0  0  0  0  0
   20.4074   -2.2629  -15.6315 O   0  0  0  0  0  0  0  0  0  0  0  0
  2  1  1  1
  2  3  1  0
  3  4  1  0
  4  8  1  0
  5  4  2  0
  6  2  1  0
  7  6  2  0
 10  9  1  6
 10 11  1  0
 11  6  1  0
 12 10  1  0
 12 14  1  0
 13 12  2  0
 15 14  1  0
 16 15  1  0
 17 16  1  0
 18 16  2  0
M  END
$$$$
