DAG.pdb
     RDKit          3D

 18 17  0  0  1  0  0  0  0  0999 V2000
   14.1119  -10.3798  -12.7450 N   0  0  0  0  0  0  0  0  0  0  0  0
   15.4010  -10.5558  -12.1066 C   0  0  1  0  0  0  0  0  0  0  0  0
   16.2808  -11.3771  -13.0236 C   0  0  0  0  0  0  0  0  0  0  0  0
   15.8676  -12.7741  -13.1116 C   0  0  0  0  0  0  0  0  0  0  0  0
   15.7949  -13.3349  -14.2298 O   0  0  0  0  0  0  0  0  0  0  0  0
   16.0553   -9.2093  -11.9824 C   0  0  0  0  0  0  0  0  0  0  0  0
   16.0350   -8.4054  -12.9549 O   0  0  0  0  0  0  0  0  0  0  0  0
   15.5524  -13.4965  -11.9789 O   0  0  0  0  0  0  0  0  0  0  0  0
   17.2268   -7.0276   -9.2080 C   0  0  0  0  0  0  0  0  0  0  0  0
   17.2922   -7.4520  -10.6691 C   0  0  2  0  0  0  0  0  0  0  0  0
   16.7085   -8.7828  -10.8068 N   0  0  0  0  0  0  0  0  0  0  0  0
   18.6916   -7.5282  -11.1471 C   0  0  0  0  0  0  0  0  0  0  0  0
   19.4035   -8.5778  -10.9844 O   0  0  0  0  0  0  0  0  0  0  0  0
   19.3389   -6.4533  -11.8139 N   0  0  0  0  0  0  0  0  0  0  0  0
   20.6870   -6.6175  -12.3718 C   0  0  0  0  0  0  0  0  0  0  0  0
   21.1457   -5.3768  -13.0201 C   0  0  0  0  0  0  0  0  0  0  0  0
   22.1854   -4.5878  -12.5436 O   0  0  0  0  0  0  0  0  0  0  0  0
   20.5666   -5.0080  -14.0626 O   0  0  0  0  0  0  0  0  0  0  0  0
  2  1  1  6
  2  3  1  0
  3  4  1  0
  4  8  1  0
  5  4  2  0
  6  2  1  0
  7  6  2  0
 10  9  1  1
 10 11  1  0
 11  6  1  0
 12 10  1  0
 12 14  1  0
 13 12  2  0
 15 14  1  0
 16 15  1  0
 17 16  1  0
 18 16  2  0
M  END
$$$$
