DAG.pdb
     RDKit          3D

 18 17  0  0  1  0  0  0  0  0999 V2000
   20.2507  -14.2063  -16.9475 N   0  0  0  0  0  0  0  0  0  0  0  0
   19.9678  -12.7867  -17.0184 C   0  0  1  0  0  0  0  0  0  0  0  0
   19.2696  -12.3737  -15.7411 C   0  0  0  0  0  0  0  0  0  0  0  0
   17.9743  -13.0220  -15.5629 C   0  0  0  0  0  0  0  0  0  0  0  0
   17.1508  -13.0430  -16.5072 O   0  0  0  0  0  0  0  0  0  0  0  0
   21.2738  -12.0450  -17.0485 C   0  0  0  0  0  0  0  0  0  0  0  0
   22.2171  -12.3964  -16.2875 O   0  0  0  0  0  0  0  0  0  0  0  0
   17.6344  -13.6177  -14.3654 O   0  0  0  0  0  0  0  0  0  0  0  0
   22.9606   -9.6760  -19.3812 C   0  0  0  0  0  0  0  0  0  0  0  0
   22.8070  -10.2847  -17.9938 C   0  0  2  0  0  0  0  0  0  0  0  0
   21.5098  -10.9480  -17.9038 N   0  0  0  0  0  0  0  0  0  0  0  0
   22.8491   -9.2449  -16.9404 C   0  0  0  0  0  0  0  0  0  0  0  0
   23.8771   -8.5054  -16.7636 O   0  0  0  0  0  0  0  0  0  0  0  0
   21.7631   -8.9952  -16.0587 N   0  0  0  0  0  0  0  0  0  0  0  0
   21.8180   -7.8912  -15.0923 C   0  0  0  0  0  0  0  0  0  0  0  0
   20.5563   -7.7844  -14.3395 C   0  0  0  0  0  0  0  0  0  0  0  0
   20.3313   -6.8635  -13.3237 O   0  0  0  0  0  0  0  0  0  0  0  0
   19.6291   -8.5684  -14.6294 O   0  0  0  0  0  0  0  0  0  0  0  0
  2  1  1  1
  2  3  1  0
  3  4  1  0
  4  8  1  0
  5  4  2  0
  6  2  1  0
  7  6  2  0
 10  9  1  6
 10 11  1  0
 11  6  1  0
 12 10  1  0
 12 14  1  0
 13 12  2  0
 15 14  1  0
 16 15  1  0
 17 16  1  0
 18 16  2  0
M  END
$$$$
