DAG.pdb
     RDKit          3D

 18 17  0  0  1  0  0  0  0  0999 V2000
   18.6456  -11.4572  -16.9028 N   0  0  0  0  0  0  0  0  0  0  0  0
   18.3427  -11.2762  -15.4971 C   0  0  1  0  0  0  0  0  0  0  0  0
   18.4219  -12.6238  -14.8135 C   0  0  0  0  0  0  0  0  0  0  0  0
   17.3054  -13.5015  -15.1497 C   0  0  0  0  0  0  0  0  0  0  0  0
   16.3859  -13.0861  -15.8928 O   0  0  0  0  0  0  0  0  0  0  0  0
   19.4197  -10.4253  -14.8868 C   0  0  0  0  0  0  0  0  0  0  0  0
   19.3749  -10.1341  -13.6598 O   0  0  0  0  0  0  0  0  0  0  0  0
   17.2408  -14.7908  -14.6621 O   0  0  0  0  0  0  0  0  0  0  0  0
   22.9060   -9.5311  -15.5968 C   0  0  0  0  0  0  0  0  0  0  0  0
   21.5583   -9.1031  -15.0313 C   0  0  2  0  0  0  0  0  0  0  0  0
   20.5075   -9.9204  -15.6301 N   0  0  0  0  0  0  0  0  0  0  0  0
   21.2613   -7.6891  -15.3552 C   0  0  0  0  0  0  0  0  0  0  0  0
   22.0487   -6.7401  -15.0169 O   0  0  0  0  0  0  0  0  0  0  0  0
   20.0933   -7.2872  -16.0575 N   0  0  0  0  0  0  0  0  0  0  0  0
   19.8476   -5.8716  -16.3596 C   0  0  0  0  0  0  0  0  0  0  0  0
   18.8872   -5.2868  -15.4079 C   0  0  0  0  0  0  0  0  0  0  0  0
   18.3866   -5.9549  -14.2973 O   0  0  0  0  0  0  0  0  0  0  0  0
   18.4965   -4.1183  -15.6085 O   0  0  0  0  0  0  0  0  0  0  0  0
  2  1  1  6
  2  3  1  0
  3  4  1  0
  4  8  1  0
  5  4  2  0
  6  2  1  0
  7  6  2  0
 10  9  1  6
 10 11  1  0
 11  6  1  0
 12 10  1  0
 12 14  1  0
 13 12  2  0
 15 14  1  0
 16 15  1  0
 17 16  1  0
 18 16  2  0
M  END
$$$$
