DAG.pdb
     RDKit          3D

 18 17  0  0  1  0  0  0  0  0999 V2000
   20.0074  -12.1013  -16.6560 N   0  0  0  0  0  0  0  0  0  0  0  0
   19.2177  -10.9033  -16.8595 C   0  0  1  0  0  0  0  0  0  0  0  0
   18.1383  -10.8562  -15.8001 C   0  0  0  0  0  0  0  0  0  0  0  0
   17.1366  -11.9057  -15.9581 C   0  0  0  0  0  0  0  0  0  0  0  0
   16.2064  -11.7623  -16.7855 O   0  0  0  0  0  0  0  0  0  0  0  0
   20.0988   -9.7099  -16.6228 C   0  0  0  0  0  0  0  0  0  0  0  0
   20.9994   -9.7552  -15.7401 O   0  0  0  0  0  0  0  0  0  0  0  0
   17.1930  -13.0631  -15.2087 O   0  0  0  0  0  0  0  0  0  0  0  0
   20.7390   -6.4429  -18.3755 C   0  0  0  0  0  0  0  0  0  0  0  0
   20.8920   -7.3882  -17.1914 C   0  0  2  0  0  0  0  0  0  0  0  0
   19.9712   -8.5093  -17.3528 N   0  0  0  0  0  0  0  0  0  0  0  0
   20.5547   -6.7153  -15.9163 C   0  0  0  0  0  0  0  0  0  0  0  0
   19.3447   -6.5731  -15.5283 O   0  0  0  0  0  0  0  0  0  0  0  0
   21.5393   -6.1843  -15.0400 N   0  0  0  0  0  0  0  0  0  0  0  0
   21.1508   -5.4642  -13.8210 C   0  0  0  0  0  0  0  0  0  0  0  0
   22.3318   -4.9165  -13.1313 C   0  0  0  0  0  0  0  0  0  0  0  0
   22.7414   -5.3044  -11.8617 O   0  0  0  0  0  0  0  0  0  0  0  0
   23.0091   -4.0497  -13.7214 O   0  0  0  0  0  0  0  0  0  0  0  0
  2  1  1  1
  2  3  1  0
  3  4  1  0
  4  8  1  0
  5  4  2  0
  6  2  1  0
  7  6  2  0
 10  9  1  6
 10 11  1  0
 11  6  1  0
 12 10  1  0
 12 14  1  0
 13 12  2  0
 15 14  1  0
 16 15  1  0
 17 16  1  0
 18 16  2  0
M  END
$$$$
