DAG.pdb
     RDKit          3D

 18 17  0  0  1  0  0  0  0  0999 V2000
   17.3289   -9.9072  -15.0812 N   0  0  0  0  0  0  0  0  0  0  0  0
   18.6602  -10.1478  -15.6010 C   0  0  1  0  0  0  0  0  0  0  0  0
   18.5789  -11.2528  -16.6315 C   0  0  0  0  0  0  0  0  0  0  0  0
   18.1895  -12.5384  -16.0610 C   0  0  0  0  0  0  0  0  0  0  0  0
   16.9807  -12.7831  -15.8390 O   0  0  0  0  0  0  0  0  0  0  0  0
   19.1123   -8.9161  -16.3323 C   0  0  0  0  0  0  0  0  0  0  0  0
   20.2435   -8.8931  -16.8912 O   0  0  0  0  0  0  0  0  0  0  0  0
   19.1332  -13.4987  -15.7583 O   0  0  0  0  0  0  0  0  0  0  0  0
   17.6224   -5.7575  -17.6307 C   0  0  0  0  0  0  0  0  0  0  0  0
   18.8042   -6.5211  -17.0481 C   0  0  2  0  0  0  0  0  0  0  0  0
   18.3204   -7.7525  -16.4313 N   0  0  0  0  0  0  0  0  0  0  0  0
   19.4888   -5.7356  -15.9960 C   0  0  0  0  0  0  0  0  0  0  0  0
   20.0236   -4.6006  -16.2423 O   0  0  0  0  0  0  0  0  0  0  0  0
   19.6006   -6.1799  -14.6509 N   0  0  0  0  0  0  0  0  0  0  0  0
   20.3307   -5.3856  -13.6551 C   0  0  0  0  0  0  0  0  0  0  0  0
   21.7865   -5.5109  -13.8430 C   0  0  0  0  0  0  0  0  0  0  0  0
   22.7320   -4.8934  -13.0336 O   0  0  0  0  0  0  0  0  0  0  0  0
   22.2001   -6.2149  -14.7872 O   0  0  0  0  0  0  0  0  0  0  0  0
  2  1  1  6
  2  3  1  0
  3  4  1  0
  4  8  1  0
  5  4  2  0
  6  2  1  0
  7  6  2  0
 10  9  1  1
 10 11  1  0
 11  6  1  0
 12 10  1  0
 12 14  1  0
 13 12  2  0
 15 14  1  0
 16 15  1  0
 17 16  1  0
 18 16  2  0
M  END
$$$$
