DAG.pdb
     RDKit          3D

 18 17  0  0  1  0  0  0  0  0999 V2000
   19.8286  -12.4470  -18.0665 N   0  0  0  0  0  0  0  0  0  0  0  0
   21.0444  -11.6677  -18.1883 C   0  0  1  0  0  0  0  0  0  0  0  0
   20.8619  -10.6687  -19.3100 C   0  0  0  0  0  0  0  0  0  0  0  0
   20.8458  -11.2894  -20.6308 C   0  0  0  0  0  0  0  0  0  0  0  0
   20.3013  -10.6984  -21.5923 O   0  0  0  0  0  0  0  0  0  0  0  0
   21.2211  -10.8670  -16.9297 C   0  0  0  0  0  0  0  0  0  0  0  0
   20.2240  -10.3170  -16.3860 O   0  0  0  0  0  0  0  0  0  0  0  0
   21.4229  -12.5245  -20.8447 O   0  0  0  0  0  0  0  0  0  0  0  0
   23.9744  -10.2675  -14.4413 C   0  0  0  0  0  0  0  0  0  0  0  0
   22.6437   -9.9054  -15.0873 C   0  0  2  0  0  0  0  0  0  0  0  0
   22.4743  -10.6914  -16.3055 N   0  0  0  0  0  0  0  0  0  0  0  0
   22.6009   -8.4757  -15.4706 C   0  0  0  0  0  0  0  0  0  0  0  0
   23.0698   -8.0624  -16.5860 O   0  0  0  0  0  0  0  0  0  0  0  0
   22.0423   -7.4697  -14.6370 N   0  0  0  0  0  0  0  0  0  0  0  0
   21.9815   -6.0722  -15.0830 C   0  0  0  0  0  0  0  0  0  0  0  0
   21.3322   -5.2218  -14.0704 C   0  0  0  0  0  0  0  0  0  0  0  0
   21.9756   -4.2000  -13.3832 O   0  0  0  0  0  0  0  0  0  0  0  0
   20.1288   -5.4292  -13.8110 O   0  0  0  0  0  0  0  0  0  0  0  0
  2  1  1  1
  2  3  1  0
  3  4  1  0
  4  8  1  0
  5  4  2  0
  6  2  1  0
  7  6  2  0
 10  9  1  6
 10 11  1  0
 11  6  1  0
 12 10  1  0
 12 14  1  0
 13 12  2  0
 15 14  1  0
 16 15  1  0
 17 16  1  0
 18 16  2  0
M  END
$$$$
