DAG.pdb
     RDKit          3D

 18 17  0  0  1  0  0  0  0  0999 V2000
   20.1371  -10.6568  -19.6405 N   0  0  0  0  0  0  0  0  0  0  0  0
   20.4287  -10.0888  -18.3395 C   0  0  1  0  0  0  0  0  0  0  0  0
   21.6753  -10.7526  -17.7963 C   0  0  0  0  0  0  0  0  0  0  0  0
   21.4840  -12.1677  -17.4952 C   0  0  0  0  0  0  0  0  0  0  0  0
   22.4321  -12.9728  -17.6482 O   0  0  0  0  0  0  0  0  0  0  0  0
   20.7650   -8.6362  -18.5221 C   0  0  0  0  0  0  0  0  0  0  0  0
   21.7231   -8.2992  -19.2711 O   0  0  0  0  0  0  0  0  0  0  0  0
   20.2701  -12.6419  -17.0415 O   0  0  0  0  0  0  0  0  0  0  0  0
   19.1097   -5.3633  -18.0186 C   0  0  0  0  0  0  0  0  0  0  0  0
   20.3879   -6.1906  -18.0536 C   0  0  2  0  0  0  0  0  0  0  0  0
   20.0494   -7.6004  -17.8851 N   0  0  0  0  0  0  0  0  0  0  0  0
   21.3027   -5.8176  -16.9506 C   0  0  0  0  0  0  0  0  0  0  0  0
   21.8046   -4.6452  -16.8581 O   0  0  0  0  0  0  0  0  0  0  0  0
   21.6858   -6.7243  -15.9258 N   0  0  0  0  0  0  0  0  0  0  0  0
   22.6757   -6.3386  -14.9124 C   0  0  0  0  0  0  0  0  0  0  0  0
   22.0344   -5.6371  -13.7869 C   0  0  0  0  0  0  0  0  0  0  0  0
   20.6872   -5.2998  -13.7456 O   0  0  0  0  0  0  0  0  0  0  0  0
   22.7423   -5.3245  -12.8074 O   0  0  0  0  0  0  0  0  0  0  0  0
  2  1  1  6
  2  3  1  0
  3  4  1  0
  4  8  1  0
  5  4  2  0
  6  2  1  0
  7  6  2  0
 10  9  1  1
 10 11  1  0
 11  6  1  0
 12 10  1  0
 12 14  1  0
 13 12  2  0
 15 14  1  0
 16 15  1  0
 17 16  1  0
 18 16  2  0
M  END
$$$$
