DAG.pdb
     RDKit          3D

 18 17  0  0  1  0  0  0  0  0999 V2000
   18.2918  -10.3079  -16.9049 N   0  0  0  0  0  0  0  0  0  0  0  0
   18.5905  -10.3880  -15.4890 C   0  0  1  0  0  0  0  0  0  0  0  0
   18.4655  -11.8321  -15.0547 C   0  0  0  0  0  0  0  0  0  0  0  0
   17.1053  -12.3480  -15.1715 C   0  0  0  0  0  0  0  0  0  0  0  0
   16.2869  -11.7852  -15.9356 O   0  0  0  0  0  0  0  0  0  0  0  0
   20.0290  -10.0056  -15.2866 C   0  0  0  0  0  0  0  0  0  0  0  0
   20.5337  -10.0360  -14.1304 O   0  0  0  0  0  0  0  0  0  0  0  0
   16.6980  -13.4525  -14.4514 O   0  0  0  0  0  0  0  0  0  0  0  0
   23.0730   -9.6117  -17.3702 C   0  0  0  0  0  0  0  0  0  0  0  0
   22.2617   -9.2162  -16.1436 C   0  0  2  0  0  0  0  0  0  0  0  0
   20.8691   -9.6037  -16.3465 N   0  0  0  0  0  0  0  0  0  0  0  0
   22.2891   -7.7516  -15.9275 C   0  0  0  0  0  0  0  0  0  0  0  0
   23.3841   -7.1173  -15.7445 O   0  0  0  0  0  0  0  0  0  0  0  0
   21.1143   -6.9524  -15.9077 N   0  0  0  0  0  0  0  0  0  0  0  0
   21.2023   -5.4882  -15.8439 C   0  0  0  0  0  0  0  0  0  0  0  0
   21.2302   -5.0205  -14.4473 C   0  0  0  0  0  0  0  0  0  0  0  0
   21.2161   -3.6823  -14.0739 O   0  0  0  0  0  0  0  0  0  0  0  0
   21.2689   -5.8770  -13.5399 O   0  0  0  0  0  0  0  0  0  0  0  0
  2  1  1  6
  2  3  1  0
  3  4  1  0
  4  8  1  0
  5  4  2  0
  6  2  1  0
  7  6  2  0
 10  9  1  6
 10 11  1  0
 11  6  1  0
 12 10  1  0
 12 14  1  0
 13 12  2  0
 15 14  1  0
 16 15  1  0
 17 16  1  0
 18 16  2  0
M  END
$$$$
