DAG.pdb
     RDKit          3D

 18 17  0  0  1  0  0  0  0  0999 V2000
   17.9845   -9.5166  -16.1312 N   0  0  0  0  0  0  0  0  0  0  0  0
   18.8478  -10.3067  -15.2764 C   0  0  1  0  0  0  0  0  0  0  0  0
   18.7002  -11.7625  -15.6617 C   0  0  0  0  0  0  0  0  0  0  0  0
   17.3740  -12.2984  -15.3720 C   0  0  0  0  0  0  0  0  0  0  0  0
   17.2595  -13.4103  -14.8054 O   0  0  0  0  0  0  0  0  0  0  0  0
   20.2731   -9.9319  -15.5672 C   0  0  0  0  0  0  0  0  0  0  0  0
   21.2159  -10.5309  -14.9801 O   0  0  0  0  0  0  0  0  0  0  0  0
   16.2334  -11.6000  -15.7119 O   0  0  0  0  0  0  0  0  0  0  0  0
   22.1988   -8.4490  -18.2759 C   0  0  0  0  0  0  0  0  0  0  0  0
   22.0110   -8.5611  -16.7687 C   0  0  2  0  0  0  0  0  0  0  0  0
   20.6248   -8.9198  -16.4853 N   0  0  0  0  0  0  0  0  0  0  0  0
   22.2842   -7.2721  -16.0933 C   0  0  0  0  0  0  0  0  0  0  0  0
   23.4233   -6.6968  -16.1736 O   0  0  0  0  0  0  0  0  0  0  0  0
   21.3122   -6.5874  -15.3152 N   0  0  0  0  0  0  0  0  0  0  0  0
   21.6056   -5.2714  -14.7339 C   0  0  0  0  0  0  0  0  0  0  0  0
   21.9573   -5.3896  -13.3083 C   0  0  0  0  0  0  0  0  0  0  0  0
   22.2167   -4.3064  -12.4779 O   0  0  0  0  0  0  0  0  0  0  0  0
   22.0276   -6.5328  -12.8118 O   0  0  0  0  0  0  0  0  0  0  0  0
  2  1  1  6
  2  3  1  0
  3  4  1  0
  4  8  1  0
  5  4  2  0
  6  2  1  0
  7  6  2  0
 10  9  1  6
 10 11  1  0
 11  6  1  0
 12 10  1  0
 12 14  1  0
 13 12  2  0
 15 14  1  0
 16 15  1  0
 17 16  1  0
 18 16  2  0
M  END
$$$$
