DAG.pdb
     RDKit          3D

 18 17  0  0  1  0  0  0  0  0999 V2000
   17.5155  -10.8288  -17.1973 N   0  0  0  0  0  0  0  0  0  0  0  0
   17.1191  -10.1814  -15.9628 C   0  0  1  0  0  0  0  0  0  0  0  0
   17.5926  -11.0311  -14.8037 C   0  0  0  0  0  0  0  0  0  0  0  0
   16.8656  -12.2909  -14.6845 C   0  0  0  0  0  0  0  0  0  0  0  0
   17.4961  -13.3670  -14.5628 O   0  0  0  0  0  0  0  0  0  0  0  0
   17.8505   -8.8735  -15.8585 C   0  0  0  0  0  0  0  0  0  0  0  0
   19.0617   -8.7980  -16.2044 O   0  0  0  0  0  0  0  0  0  0  0  0
   15.4861  -12.3220  -14.7030 O   0  0  0  0  0  0  0  0  0  0  0  0
   16.8901   -5.2977  -15.1751 C   0  0  0  0  0  0  0  0  0  0  0  0
   17.9187   -6.4004  -15.3872 C   0  0  2  0  0  0  0  0  0  0  0  0
   17.2413   -7.6933  -15.3822 N   0  0  0  0  0  0  0  0  0  0  0  0
   18.9220   -6.4195  -14.2983 C   0  0  0  0  0  0  0  0  0  0  0  0
   18.7397   -7.0903  -13.2251 O   0  0  0  0  0  0  0  0  0  0  0  0
   20.1468   -5.7022  -14.3648 N   0  0  0  0  0  0  0  0  0  0  0  0
   21.1986   -5.9163  -13.3631 C   0  0  0  0  0  0  0  0  0  0  0  0
   22.3433   -5.0192  -13.5983 C   0  0  0  0  0  0  0  0  0  0  0  0
   23.4079   -4.8683  -12.7185 O   0  0  0  0  0  0  0  0  0  0  0  0
   22.3612   -4.3514  -14.6528 O   0  0  0  0  0  0  0  0  0  0  0  0
  2  1  1  6
  2  3  1  0
  3  4  1  0
  4  8  1  0
  5  4  2  0
  6  2  1  0
  7  6  2  0
 10  9  1  1
 10 11  1  0
 11  6  1  0
 12 10  1  0
 12 14  1  0
 13 12  2  0
 15 14  1  0
 16 15  1  0
 17 16  1  0
 18 16  2  0
M  END
$$$$
