TTR.pdb
     RDKit          3D

 26 25  0  0  1  0  0  0  0  0999 V2000
    9.2232  -12.2074   19.3939 C   0  0  0  0  0  0  0  0  0  0  0  0
    8.0685  -12.8111   18.6139 C   0  0  1  0  0  0  0  0  0  0  0  0
    7.9166  -11.9195   17.5030 O   0  0  0  0  0  0  0  0  0  0  0  0
    8.4279  -14.1254   18.0112 C   0  0  2  0  0  0  0  0  0  0  0  0
    7.2478  -14.5659   17.2354 N   0  0  0  0  0  0  0  0  0  0  0  0
    8.8028  -15.1914   18.9632 C   0  0  0  0  0  0  0  0  0  0  0  0
    7.9053  -15.7775   19.6755 O   0  0  0  0  0  0  0  0  0  0  0  0
   11.5098  -18.9644   20.5049 C   0  0  0  0  0  0  0  0  0  0  0  0
   11.2347  -17.8426   19.5596 C   0  0  1  0  0  0  0  0  0  0  0  0
   10.5122  -18.3797   18.4798 O   0  0  0  0  0  0  0  0  0  0  0  0
   10.4215  -16.7330   20.1427 C   0  0  2  0  0  0  0  0  0  0  0  0
   10.1029  -15.6831   19.2059 N   0  0  0  0  0  0  0  0  0  0  0  0
   10.9741  -16.2533   21.4282 C   0  0  0  0  0  0  0  0  0  0  0  0
   11.8691  -15.3740   21.3852 O   0  0  0  0  0  0  0  0  0  0  0  0
   11.3276  -16.8878   31.0385 N   0  0  0  0  0  0  0  0  0  0  0  0
   11.1683  -17.0102   29.6261 C   0  0  0  0  0  0  0  0  0  0  0  0
   11.6865  -18.0404   29.0149 N   0  0  0  0  0  0  0  0  0  0  0  0
   10.4684  -16.0573   28.8507 N   0  0  0  0  0  0  0  0  0  0  0  0
    9.7723  -16.5289   27.6138 C   0  0  0  0  0  0  0  0  0  0  0  0
   10.6403  -16.2371   26.4517 C   0  0  0  0  0  0  0  0  0  0  0  0
   10.2653  -16.4565   25.0739 C   0  0  0  0  0  0  0  0  0  0  0  0
   11.1683  -16.1918   23.9654 C   0  0  2  0  0  0  0  0  0  0  0  0
   10.5643  -16.7174   22.6945 N   0  0  0  0  0  0  0  0  0  0  0  0
   12.4957  -16.7686   24.0401 C   0  0  0  0  0  0  0  0  0  0  0  0
   12.5869  -18.0118   23.6357 O   0  0  0  0  0  0  0  0  0  0  0  0
   13.6925  -16.2504   24.4555 O   0  0  0  0  0  0  0  0  0  0  0  0
  2  1  1  1
  2  3  1  0
  4  2  1  0
  4  5  1  1
  6  4  1  0
  6 12  1  0
  7  6  2  0
  9  8  1  1
 10  9  1  0
 11 12  1  6
 11  9  1  0
 13 11  1  0
 14 13  2  0
 16 17  2  0
 16 15  1  0
 18 16  1  0
 19 18  1  0
 20 21  1  0
 20 19  1  0
 22 21  1  1
 22 24  1  0
 22 23  1  0
 23 13  1  0
 24 26  1  0
 25 24  2  0
M  END
$$$$
