TTR.pdb
     RDKit          3D

 26 25  0  0  1  0  0  0  0  0999 V2000
    8.3283  -16.6211   16.4784 C   0  0  0  0  0  0  0  0  0  0  0  0
    8.6543  -15.1785   16.1339 C   0  0  1  0  0  0  0  0  0  0  0  0
    7.9802  -14.9749   14.8863 O   0  0  0  0  0  0  0  0  0  0  0  0
    8.0175  -14.2203   17.0806 C   0  0  2  0  0  0  0  0  0  0  0  0
    8.1783  -12.8756   16.4853 N   0  0  0  0  0  0  0  0  0  0  0  0
    8.5659  -14.2075   18.4527 C   0  0  0  0  0  0  0  0  0  0  0  0
    9.7177  -13.6857   18.6918 O   0  0  0  0  0  0  0  0  0  0  0  0
    7.0407  -12.9240   21.7826 C   0  0  0  0  0  0  0  0  0  0  0  0
    7.6321  -14.2752   22.0117 C   0  0  1  0  0  0  0  0  0  0  0  0
    6.5641  -15.1859   22.0905 O   0  0  0  0  0  0  0  0  0  0  0  0
    8.5448  -14.7391   20.9234 C   0  0  2  0  0  0  0  0  0  0  0  0
    7.9475  -14.7258   19.6102 N   0  0  0  0  0  0  0  0  0  0  0  0
    9.2246  -16.0065   21.2690 C   0  0  0  0  0  0  0  0  0  0  0  0
    9.2499  -16.9099   20.3976 O   0  0  0  0  0  0  0  0  0  0  0  0
   14.4118  -20.9679   19.0034 N   0  0  0  0  0  0  0  0  0  0  0  0
   15.2338  -20.4290   20.0373 C   0  0  0  0  0  0  0  0  0  0  0  0
   16.4184  -20.9390   20.2382 N   0  0  0  0  0  0  0  0  0  0  0  0
   14.8201  -19.3580   20.8625 N   0  0  0  0  0  0  0  0  0  0  0  0
   13.4596  -18.7791   20.6370 C   0  0  0  0  0  0  0  0  0  0  0  0
   13.2427  -17.7015   21.6274 C   0  0  0  0  0  0  0  0  0  0  0  0
   12.0327  -16.9197   21.7350 C   0  0  0  0  0  0  0  0  0  0  0  0
   10.9540  -17.2684   22.6457 C   0  0  2  0  0  0  0  0  0  0  0  0
    9.8431  -16.2669   22.5086 N   0  0  0  0  0  0  0  0  0  0  0  0
   11.2702  -17.3168   24.0591 C   0  0  0  0  0  0  0  0  0  0  0  0
   10.9791  -16.2312   24.7331 O   0  0  0  0  0  0  0  0  0  0  0  0
   11.8199  -18.2998   24.8369 O   0  0  0  0  0  0  0  0  0  0  0  0
  2  1  1  1
  2  3  1  0
  4  2  1  0
  4  5  1  6
  6  4  1  0
  6 12  1  0
  7  6  2  0
  9  8  1  6
 10  9  1  0
 11 12  1  6
 11  9  1  0
 13 11  1  0
 14 13  2  0
 16 17  2  0
 16 15  1  0
 18 16  1  0
 19 18  1  0
 20 21  1  0
 20 19  1  0
 22 21  1  6
 22 24  1  0
 22 23  1  0
 23 13  1  0
 24 26  1  0
 25 24  2  0
M  END
$$$$
