TTR.pdb
     RDKit          3D

 26 25  0  0  1  0  0  0  0  0999 V2000
    7.1114  -16.7553   13.8241 C   0  0  0  0  0  0  0  0  0  0  0  0
    7.6356  -16.5729   15.2376 C   0  0  1  0  0  0  0  0  0  0  0  0
    8.8063  -17.3981   15.2663 O   0  0  0  0  0  0  0  0  0  0  0  0
    8.1304  -15.1878   15.4757 C   0  0  2  0  0  0  0  0  0  0  0  0
    9.1750  -14.9368   14.4587 N   0  0  0  0  0  0  0  0  0  0  0  0
    8.6916  -14.9243   16.8169 C   0  0  0  0  0  0  0  0  0  0  0  0
    9.9652  -14.8989   16.9994 O   0  0  0  0  0  0  0  0  0  0  0  0
    7.5233  -12.2317   19.5798 C   0  0  0  0  0  0  0  0  0  0  0  0
    7.7999  -13.5648   20.1914 C   0  0  1  0  0  0  0  0  0  0  0  0
    6.5562  -14.1536   20.4792 O   0  0  0  0  0  0  0  0  0  0  0  0
    8.5522  -14.5035   19.3051 C   0  0  2  0  0  0  0  0  0  0  0  0
    7.9629  -14.6785   17.9998 N   0  0  0  0  0  0  0  0  0  0  0  0
    8.8915  -15.7682   19.9932 C   0  0  0  0  0  0  0  0  0  0  0  0
    8.2999  -16.8108   19.6201 O   0  0  0  0  0  0  0  0  0  0  0  0
   14.9899  -20.9367   23.6231 N   0  0  0  0  0  0  0  0  0  0  0  0
   15.2962  -19.8320   22.7740 C   0  0  0  0  0  0  0  0  0  0  0  0
   16.5384  -19.6141   22.4378 N   0  0  0  0  0  0  0  0  0  0  0  0
   14.3065  -18.9539   22.2756 N   0  0  0  0  0  0  0  0  0  0  0  0
   13.2131  -19.5294   21.4328 C   0  0  0  0  0  0  0  0  0  0  0  0
   11.9304  -18.9303   21.8626 C   0  0  0  0  0  0  0  0  0  0  0  0
   11.3990  -17.6848   21.3594 C   0  0  0  0  0  0  0  0  0  0  0  0
   10.0875  -17.1836   21.7381 C   0  0  2  0  0  0  0  0  0  0  0  0
    9.8313  -15.8797   21.0378 N   0  0  0  0  0  0  0  0  0  0  0  0
    9.8574  -16.9279   23.1458 C   0  0  0  0  0  0  0  0  0  0  0  0
    9.8855  -17.9874   23.9168 O   0  0  0  0  0  0  0  0  0  0  0  0
    9.6171  -15.7697   23.8344 O   0  0  0  0  0  0  0  0  0  0  0  0
  2  1  1  6
  2  3  1  0
  4  2  1  0
  4  5  1  6
  6  4  1  0
  6 12  1  0
  7  6  2  0
  9  8  1  6
 10  9  1  0
 11 12  1  6
 11  9  1  0
 13 11  1  0
 14 13  2  0
 16 17  2  0
 16 15  1  0
 18 16  1  0
 19 18  1  0
 20 21  1  0
 20 19  1  0
 22 21  1  1
 22 24  1  0
 22 23  1  0
 23 13  1  0
 24 26  1  0
 25 24  2  0
M  END
$$$$
