TTR.pdb
     RDKit          3D

 26 25  0  0  1  0  0  0  0  0999 V2000
    9.5773  -12.4187   18.9481 C   0  0  0  0  0  0  0  0  0  0  0  0
    8.3876  -12.9846   18.1929 C   0  0  1  0  0  0  0  0  0  0  0  0
    8.2936  -12.1390   17.0403 O   0  0  0  0  0  0  0  0  0  0  0  0
    8.6637  -14.3462   17.6546 C   0  0  2  0  0  0  0  0  0  0  0  0
    7.4789  -14.7275   16.8550 N   0  0  0  0  0  0  0  0  0  0  0  0
    8.9241  -15.3974   18.6599 C   0  0  0  0  0  0  0  0  0  0  0  0
    7.9829  -15.8078   19.4357 O   0  0  0  0  0  0  0  0  0  0  0  0
   10.1980  -18.9516   18.2073 C   0  0  0  0  0  0  0  0  0  0  0  0
   10.9638  -18.3373   19.3316 C   0  0  1  0  0  0  0  0  0  0  0  0
   12.2377  -18.0113   18.8344 O   0  0  0  0  0  0  0  0  0  0  0  0
   10.3561  -17.0865   19.8780 C   0  0  2  0  0  0  0  0  0  0  0  0
   10.1515  -16.0533   18.8920 N   0  0  0  0  0  0  0  0  0  0  0  0
   11.0380  -16.6267   21.1074 C   0  0  0  0  0  0  0  0  0  0  0  0
   11.8315  -15.6592   21.0059 O   0  0  0  0  0  0  0  0  0  0  0  0
    9.3878  -16.5371   30.0690 N   0  0  0  0  0  0  0  0  0  0  0  0
    9.7367  -15.2878   29.4753 C   0  0  0  0  0  0  0  0  0  0  0  0
    9.5716  -14.1898   30.1614 N   0  0  0  0  0  0  0  0  0  0  0  0
   10.2578  -15.1834   28.1651 N   0  0  0  0  0  0  0  0  0  0  0  0
   10.0764  -16.3442   27.2396 C   0  0  0  0  0  0  0  0  0  0  0  0
   10.5818  -15.9575   25.9039 C   0  0  0  0  0  0  0  0  0  0  0  0
   10.5934  -16.8263   24.7497 C   0  0  0  0  0  0  0  0  0  0  0  0
   11.4759  -16.6080   23.6148 C   0  0  2  0  0  0  0  0  0  0  0  0
   10.8574  -17.2020   22.3816 N   0  0  0  0  0  0  0  0  0  0  0  0
   12.8103  -17.1673   23.6962 C   0  0  0  0  0  0  0  0  0  0  0  0
   12.9389  -18.3764   23.2073 O   0  0  0  0  0  0  0  0  0  0  0  0
   13.9819  -16.6613   24.1909 O   0  0  0  0  0  0  0  0  0  0  0  0
  2  1  1  1
  2  3  1  0
  4  2  1  0
  4  5  1  1
  6  4  1  0
  6 12  1  0
  7  6  2  0
  9  8  1  6
 10  9  1  0
 11 12  1  6
 11  9  1  0
 13 11  1  0
 14 13  2  0
 16 17  2  0
 16 15  1  0
 18 16  1  0
 19 18  1  0
 20 21  1  0
 20 19  1  0
 22 21  1  1
 22 24  1  0
 22 23  1  0
 23 13  1  0
 24 26  1  0
 25 24  2  0
M  END
$$$$
