TTR.pdb
     RDKit          3D

 26 25  0  0  1  0  0  0  0  0999 V2000
   11.3319  -17.1562   15.6746 C   0  0  0  0  0  0  0  0  0  0  0  0
   10.8989  -17.1514   17.1301 C   0  0  1  0  0  0  0  0  0  0  0  0
    9.9763  -16.0576   17.1981 O   0  0  0  0  0  0  0  0  0  0  0  0
   10.0975  -18.3581   17.4787 C   0  0  2  0  0  0  0  0  0  0  0  0
    8.9591  -18.3907   16.5344 N   0  0  0  0  0  0  0  0  0  0  0  0
    9.5776  -18.4108   18.8608 C   0  0  0  0  0  0  0  0  0  0  0  0
    8.4551  -17.8566   19.1589 O   0  0  0  0  0  0  0  0  0  0  0  0
   11.1824  -20.8185   22.2314 C   0  0  0  0  0  0  0  0  0  0  0  0
    9.7728  -20.4010   21.9732 C   0  0  1  0  0  0  0  0  0  0  0  0
    9.1328  -20.3120   23.2217 O   0  0  0  0  0  0  0  0  0  0  0  0
    9.6385  -19.0745   21.2987 C   0  0  2  0  0  0  0  0  0  0  0  0
   10.1929  -19.0335   19.9674 N   0  0  0  0  0  0  0  0  0  0  0  0
   10.0688  -17.9599   22.1708 C   0  0  0  0  0  0  0  0  0  0  0  0
   11.2490  -17.5489   22.0505 O   0  0  0  0  0  0  0  0  0  0  0  0
    7.9094  -11.4403   19.9947 N   0  0  0  0  0  0  0  0  0  0  0  0
    7.8401  -12.8116   19.6073 C   0  0  0  0  0  0  0  0  0  0  0  0
    8.0019  -13.1261   18.3510 N   0  0  0  0  0  0  0  0  0  0  0  0
    7.6016  -13.8554   20.5307 N   0  0  0  0  0  0  0  0  0  0  0  0
    7.6221  -13.5248   21.9892 C   0  0  0  0  0  0  0  0  0  0  0  0
    8.8100  -14.1661   22.5948 C   0  0  0  0  0  0  0  0  0  0  0  0
    8.7710  -15.0468   23.7392 C   0  0  0  0  0  0  0  0  0  0  0  0
    9.7109  -16.1422   23.9162 C   0  0  2  0  0  0  0  0  0  0  0  0
    9.2445  -17.3313   23.1259 N   0  0  0  0  0  0  0  0  0  0  0  0
    9.9208  -16.6231   25.2670 C   0  0  0  0  0  0  0  0  0  0  0  0
    9.2471  -17.7010   25.5861 O   0  0  0  0  0  0  0  0  0  0  0  0
   10.7062  -16.1597   26.2877 O   0  0  0  0  0  0  0  0  0  0  0  0
  2  1  1  6
  2  3  1  0
  4  2  1  0
  4  5  1  6
  6  4  1  0
  6 12  1  0
  7  6  2  0
  9  8  1  1
 10  9  1  0
 11 12  1  6
 11  9  1  0
 13 11  1  0
 14 13  2  0
 16 17  2  0
 16 15  1  0
 18 16  1  0
 19 18  1  0
 20 21  1  0
 20 19  1  0
 22 21  1  1
 22 24  1  0
 22 23  1  0
 23 13  1  0
 24 26  1  0
 25 24  2  0
M  END
$$$$
