TTR.pdb
     RDKit          3D

 26 25  0  0  1  0  0  0  0  0999 V2000
    8.9596  -16.5235   16.6105 C   0  0  0  0  0  0  0  0  0  0  0  0
    8.9922  -15.0160   16.4302 C   0  0  1  0  0  0  0  0  0  0  0  0
    8.4068  -14.8239   15.1369 O   0  0  0  0  0  0  0  0  0  0  0  0
    8.0776  -14.3200   17.3783 C   0  0  2  0  0  0  0  0  0  0  0  0
    7.9832  -12.9183   16.9147 N   0  0  0  0  0  0  0  0  0  0  0  0
    8.4888  -14.3305   18.7975 C   0  0  0  0  0  0  0  0  0  0  0  0
    9.4654  -13.5960   19.2008 O   0  0  0  0  0  0  0  0  0  0  0  0
    6.1329  -14.3130   22.1148 C   0  0  0  0  0  0  0  0  0  0  0  0
    7.2517  -15.2972   22.2007 C   0  0  1  0  0  0  0  0  0  0  0  0
    6.7048  -16.5677   21.9499 O   0  0  0  0  0  0  0  0  0  0  0  0
    8.3469  -15.0708   21.2098 C   0  0  2  0  0  0  0  0  0  0  0  0
    7.9088  -15.0902   19.8353 N   0  0  0  0  0  0  0  0  0  0  0  0
    9.5290  -15.9170   21.4828 C   0  0  0  0  0  0  0  0  0  0  0  0
    9.6706  -16.9583   20.7960 O   0  0  0  0  0  0  0  0  0  0  0  0
   15.8597  -13.5527   17.7957 N   0  0  0  0  0  0  0  0  0  0  0  0
   15.9795  -14.6256   18.7283 C   0  0  0  0  0  0  0  0  0  0  0  0
   17.1678  -14.9989   19.1183 N   0  0  0  0  0  0  0  0  0  0  0  0
   14.8595  -15.3098   19.2540 N   0  0  0  0  0  0  0  0  0  0  0  0
   14.0045  -14.5987   20.2541 C   0  0  0  0  0  0  0  0  0  0  0  0
   13.0041  -15.5562   20.7752 C   0  0  0  0  0  0  0  0  0  0  0  0
   12.8783  -15.9343   22.1637 C   0  0  0  0  0  0  0  0  0  0  0  0
   11.6731  -16.5439   22.7028 C   0  0  2  0  0  0  0  0  0  0  0  0
   10.5034  -15.6332   22.4610 N   0  0  0  0  0  0  0  0  0  0  0  0
   11.6578  -16.8388   24.1215 C   0  0  0  0  0  0  0  0  0  0  0  0
   10.8103  -16.1323   24.8287 O   0  0  0  0  0  0  0  0  0  0  0  0
   12.3691  -17.7338   24.8741 O   0  0  0  0  0  0  0  0  0  0  0  0
  2  1  1  1
  2  3  1  0
  4  2  1  0
  4  5  1  6
  6  4  1  0
  6 12  1  0
  7  6  2  0
  9  8  1  6
 10  9  1  0
 11 12  1  6
 11  9  1  0
 13 11  1  0
 14 13  2  0
 16 17  2  0
 16 15  1  0
 18 16  1  0
 19 18  1  0
 20 21  1  0
 20 19  1  0
 22 21  1  1
 22 24  1  0
 22 23  1  0
 23 13  1  0
 24 26  1  0
 25 24  2  0
M  END
$$$$
