TTR.pdb
     RDKit          3D

 26 25  0  0  1  0  0  0  0  0999 V2000
    7.5844  -15.0282   15.8888 C   0  0  0  0  0  0  0  0  0  0  0  0
    8.2105  -13.7239   16.3502 C   0  0  1  0  0  0  0  0  0  0  0  0
    7.1574  -12.7692   16.1721 O   0  0  0  0  0  0  0  0  0  0  0  0
    8.4905  -13.7254   17.8136 C   0  0  2  0  0  0  0  0  0  0  0  0
    8.7120  -12.3142   18.1980 N   0  0  0  0  0  0  0  0  0  0  0  0
    9.6512  -14.5300   18.2480 C   0  0  0  0  0  0  0  0  0  0  0  0
    9.6362  -15.8121   18.1379 O   0  0  0  0  0  0  0  0  0  0  0  0
   14.4618  -15.2178   18.9713 C   0  0  0  0  0  0  0  0  0  0  0  0
   13.2762  -14.4122   18.5549 C   0  0  1  0  0  0  0  0  0  0  0  0
   13.1610  -14.5373   17.1594 O   0  0  0  0  0  0  0  0  0  0  0  0
   11.9854  -14.8610   19.1590 C   0  0  2  0  0  0  0  0  0  0  0  0
   10.8532  -14.0411   18.8020 N   0  0  0  0  0  0  0  0  0  0  0  0
   12.1110  -15.1257   20.6088 C   0  0  0  0  0  0  0  0  0  0  0  0
   12.4688  -14.1742   21.3455 O   0  0  0  0  0  0  0  0  0  0  0  0
   13.8935  -20.7728   25.6028 N   0  0  0  0  0  0  0  0  0  0  0  0
   12.7464  -20.8092   26.4502 C   0  0  0  0  0  0  0  0  0  0  0  0
   12.7310  -21.6312   27.4640 N   0  0  0  0  0  0  0  0  0  0  0  0
   11.6146  -19.9883   26.2400 N   0  0  0  0  0  0  0  0  0  0  0  0
   11.1727  -19.7438   24.8323 C   0  0  0  0  0  0  0  0  0  0  0  0
   11.7759  -18.4746   24.3693 C   0  0  0  0  0  0  0  0  0  0  0  0
   11.5576  -17.8919   23.0655 C   0  0  0  0  0  0  0  0  0  0  0  0
   12.1322  -16.6151   22.6728 C   0  0  2  0  0  0  0  0  0  0  0  0
   11.8573  -16.3722   21.2163 N   0  0  0  0  0  0  0  0  0  0  0  0
   13.5630  -16.4542   22.8371 C   0  0  0  0  0  0  0  0  0  0  0  0
   13.9370  -15.9174   23.9727 O   0  0  0  0  0  0  0  0  0  0  0  0
   14.6151  -16.7664   22.0192 O   0  0  0  0  0  0  0  0  0  0  0  0
  2  1  1  1
  2  3  1  0
  4  2  1  0
  4  5  1  6
  6  4  1  0
  6 12  1  0
  7  6  2  0
  9  8  1  1
 10  9  1  0
 11 12  1  1
 11  9  1  0
 13 11  1  0
 14 13  2  0
 16 17  2  0
 16 15  1  0
 18 16  1  0
 19 18  1  0
 20 21  1  0
 20 19  1  0
 22 21  1  6
 22 24  1  0
 22 23  1  0
 23 13  1  0
 24 26  1  0
 25 24  2  0
M  END
$$$$
