TTR.pdb
     RDKit          3D

 26 25  0  0  1  0  0  0  0  0999 V2000
    9.9270  -16.6046   16.5187 C   0  0  0  0  0  0  0  0  0  0  0  0
    9.9250  -15.0966   16.3398 C   0  0  1  0  0  0  0  0  0  0  0  0
    9.7114  -14.9297   14.9331 O   0  0  0  0  0  0  0  0  0  0  0  0
    8.7464  -14.4582   16.9904 C   0  0  2  0  0  0  0  0  0  0  0  0
    8.7391  -13.0464   16.5485 N   0  0  0  0  0  0  0  0  0  0  0  0
    8.7228  -14.5000   18.4672 C   0  0  0  0  0  0  0  0  0  0  0  0
    9.5586  -13.8036   19.1547 O   0  0  0  0  0  0  0  0  0  0  0  0
    6.5763  -15.5278   22.8422 C   0  0  0  0  0  0  0  0  0  0  0  0
    6.5746  -15.6233   21.3527 C   0  0  1  0  0  0  0  0  0  0  0  0
    5.6285  -14.6970   20.8802 O   0  0  0  0  0  0  0  0  0  0  0  0
    7.8859  -15.2983   20.7145 C   0  0  2  0  0  0  0  0  0  0  0  0
    7.8425  -15.2527   19.2731 N   0  0  0  0  0  0  0  0  0  0  0  0
    8.9904  -16.1147   21.2637 C   0  0  0  0  0  0  0  0  0  0  0  0
    9.1695  -17.2567   20.7738 O   0  0  0  0  0  0  0  0  0  0  0  0
   16.0869  -15.5987   18.9690 N   0  0  0  0  0  0  0  0  0  0  0  0
   14.8365  -14.9509   18.7407 C   0  0  0  0  0  0  0  0  0  0  0  0
   14.5054  -14.6199   17.5223 N   0  0  0  0  0  0  0  0  0  0  0  0
   13.9313  -14.6477   19.7836 N   0  0  0  0  0  0  0  0  0  0  0  0
   13.6587  -15.7017   20.8092 C   0  0  0  0  0  0  0  0  0  0  0  0
   12.7024  -15.1538   21.7963 C   0  0  0  0  0  0  0  0  0  0  0  0
   12.1743  -15.8907   22.9211 C   0  0  0  0  0  0  0  0  0  0  0  0
   10.9077  -16.6027   22.8651 C   0  0  2  0  0  0  0  0  0  0  0  0
    9.8519  -15.6971   22.2983 N   0  0  0  0  0  0  0  0  0  0  0  0
   10.3716  -17.1001   24.1162 C   0  0  0  0  0  0  0  0  0  0  0  0
    9.3037  -16.4778   24.5518 O   0  0  0  0  0  0  0  0  0  0  0  0
   10.7736  -18.1166   24.9399 O   0  0  0  0  0  0  0  0  0  0  0  0
  2  1  1  6
  2  3  1  0
  4  2  1  0
  4  5  1  1
  6  4  1  0
  6 12  1  0
  7  6  2  0
  9  8  1  1
 10  9  1  0
 11 12  1  6
 11  9  1  0
 13 11  1  0
 14 13  2  0
 16 17  2  0
 16 15  1  0
 18 16  1  0
 19 18  1  0
 20 21  1  0
 20 19  1  0
 22 21  1  1
 22 24  1  0
 22 23  1  0
 23 13  1  0
 24 26  1  0
 25 24  2  0
M  END
$$$$
