TTR.pdb
     RDKit          3D

 26 25  0  0  1  0  0  0  0  0999 V2000
    8.2117  -19.2071   16.7354 C   0  0  0  0  0  0  0  0  0  0  0  0
    8.7413  -17.9556   17.4130 C   0  0  1  0  0  0  0  0  0  0  0  0
    7.8397  -16.9331   16.9729 O   0  0  0  0  0  0  0  0  0  0  0  0
    8.5761  -18.0088   18.8929 C   0  0  2  0  0  0  0  0  0  0  0  0
    7.1698  -18.3940   19.1426 N   0  0  0  0  0  0  0  0  0  0  0  0
    8.8683  -16.7566   19.6207 C   0  0  0  0  0  0  0  0  0  0  0  0
   10.0412  -16.2295   19.5706 O   0  0  0  0  0  0  0  0  0  0  0  0
    7.2038  -13.2369   19.5805 C   0  0  0  0  0  0  0  0  0  0  0  0
    7.3598  -13.6982   20.9915 C   0  0  1  0  0  0  0  0  0  0  0  0
    6.0959  -14.1339   21.4261 O   0  0  0  0  0  0  0  0  0  0  0  0
    8.3156  -14.8336   21.1648 C   0  0  2  0  0  0  0  0  0  0  0  0
    7.9670  -16.0148   20.4134 N   0  0  0  0  0  0  0  0  0  0  0  0
    8.6256  -15.0885   22.5885 C   0  0  0  0  0  0  0  0  0  0  0  0
    7.6605  -15.1971   23.3840 O   0  0  0  0  0  0  0  0  0  0  0  0
    6.6772  -20.7660   25.5516 N   0  0  0  0  0  0  0  0  0  0  0  0
    7.1944  -20.2121   26.7603 C   0  0  0  0  0  0  0  0  0  0  0  0
    6.4348  -20.1811   27.8213 N   0  0  0  0  0  0  0  0  0  0  0  0
    8.5042  -19.6898   26.8624 N   0  0  0  0  0  0  0  0  0  0  0  0
    8.6843  -18.2097   26.7447 C   0  0  0  0  0  0  0  0  0  0  0  0
    9.7301  -17.9476   25.7315 C   0  0  0  0  0  0  0  0  0  0  0  0
    9.5585  -17.0923   24.5799 C   0  0  0  0  0  0  0  0  0  0  0  0
   10.1844  -15.7838   24.4767 C   0  0  2  0  0  0  0  0  0  0  0  0
    9.9290  -15.2160   23.1098 N   0  0  0  0  0  0  0  0  0  0  0  0
   11.6191  -15.7188   24.6699 C   0  0  0  0  0  0  0  0  0  0  0  0
   12.0326  -16.0094   25.8791 O   0  0  0  0  0  0  0  0  0  0  0  0
   12.6411  -15.4110   23.8131 O   0  0  0  0  0  0  0  0  0  0  0  0
  2  1  1  6
  2  3  1  0
  4  2  1  0
  4  5  1  6
  6  4  1  0
  6 12  1  0
  7  6  2  0
  9  8  1  6
 10  9  1  0
 11 12  1  1
 11  9  1  0
 13 11  1  0
 14 13  2  0
 16 17  2  0
 16 15  1  0
 18 16  1  0
 19 18  1  0
 20 21  1  0
 20 19  1  0
 22 21  1  6
 22 24  1  0
 22 23  1  0
 23 13  1  0
 24 26  1  0
 25 24  2  0
M  END
$$$$
