TTR.pdb
     RDKit          3D

 26 25  0  0  1  0  0  0  0  0999 V2000
    6.9346  -19.8661   17.8706 C   0  0  0  0  0  0  0  0  0  0  0  0
    5.5968  -20.1783   18.5177 C   0  0  1  0  0  0  0  0  0  0  0  0
    4.9395  -20.9963   17.5426 O   0  0  0  0  0  0  0  0  0  0  0  0
    5.7461  -21.0482   19.7180 C   0  0  2  0  0  0  0  0  0  0  0  0
    4.3771  -21.4217   20.1363 N   0  0  0  0  0  0  0  0  0  0  0  0
    6.4529  -20.4465   20.8676 C   0  0  0  0  0  0  0  0  0  0  0  0
    5.9090  -19.4979   21.5461 O   0  0  0  0  0  0  0  0  0  0  0  0
    8.8097  -22.2212   23.7219 C   0  0  0  0  0  0  0  0  0  0  0  0
    9.4005  -20.9743   23.1527 C   0  0  1  0  0  0  0  0  0  0  0  0
   10.4019  -21.3670   22.2476 O   0  0  0  0  0  0  0  0  0  0  0  0
    8.4280  -20.1170   22.4098 C   0  0  2  0  0  0  0  0  0  0  0  0
    7.7300  -20.8034   21.3500 N   0  0  0  0  0  0  0  0  0  0  0  0
    9.0200  -18.8222   22.0085 C   0  0  0  0  0  0  0  0  0  0  0  0
    9.3682  -18.6878   20.8099 O   0  0  0  0  0  0  0  0  0  0  0  0
    7.4948  -14.2826   18.5050 N   0  0  0  0  0  0  0  0  0  0  0  0
    7.8668  -12.9427   18.8232 C   0  0  0  0  0  0  0  0  0  0  0  0
    8.1926  -12.1272   17.8576 N   0  0  0  0  0  0  0  0  0  0  0  0
    7.8994  -12.4530   20.1492 N   0  0  0  0  0  0  0  0  0  0  0  0
    7.5649  -13.3989   21.2584 C   0  0  0  0  0  0  0  0  0  0  0  0
    8.6749  -14.3676   21.3942 C   0  0  0  0  0  0  0  0  0  0  0  0
    8.7215  -15.4273   22.3750 C   0  0  0  0  0  0  0  0  0  0  0  0
    9.7795  -16.4246   22.4000 C   0  0  2  0  0  0  0  0  0  0  0  0
    9.2194  -17.7328   22.8806 N   0  0  0  0  0  0  0  0  0  0  0  0
   10.9265  -16.1523   23.2427 C   0  0  0  0  0  0  0  0  0  0  0  0
   10.8581  -16.6469   24.4544 O   0  0  0  0  0  0  0  0  0  0  0  0
   12.0890  -15.4694   23.0070 O   0  0  0  0  0  0  0  0  0  0  0  0
  2  1  1  6
  2  3  1  0
  4  2  1  0
  4  5  1  1
  6  4  1  0
  6 12  1  0
  7  6  2  0
  9  8  1  6
 10  9  1  0
 11 12  1  6
 11  9  1  0
 13 11  1  0
 14 13  2  0
 16 17  2  0
 16 15  1  0
 18 16  1  0
 19 18  1  0
 20 21  1  0
 20 19  1  0
 22 21  1  1
 22 24  1  0
 22 23  1  0
 23 13  1  0
 24 26  1  0
 25 24  2  0
M  END
$$$$
