VTI.pdb
     RDKit          3D

 23 22  0  0  1  0  0  0  0  0999 V2000
    8.6458  -12.9619   17.4962 C   0  0  0  0  0  0  0  0  0  0  0  0
    7.9709  -13.4809   18.7444 C   0  0  2  0  0  0  0  0  0  0  0  0
    8.1902  -12.5588   19.9208 C   0  0  0  0  0  0  0  0  0  0  0  0
    8.5625  -14.8694   19.0201 C   0  0  2  0  0  0  0  0  0  0  0  0
    8.3215  -15.6497   17.8248 N   0  0  0  0  0  0  0  0  0  0  0  0
    7.9107  -15.4827   20.2018 C   0  0  0  0  0  0  0  0  0  0  0  0
    6.9675  -16.3017   19.9812 O   0  0  0  0  0  0  0  0  0  0  0  0
    7.1932  -17.8317   21.3088 C   0  0  0  0  0  0  0  0  0  0  0  0
    7.9091  -17.3071   22.5166 C   0  0  1  0  0  0  0  0  0  0  0  0
    9.2451  -17.6927   22.4227 O   0  0  0  0  0  0  0  0  0  0  0  0
    7.8378  -15.8048   22.6453 C   0  0  2  0  0  0  0  0  0  0  0  0
    8.3610  -15.1334   21.4781 N   0  0  0  0  0  0  0  0  0  0  0  0
    8.5199  -15.2988   23.8406 C   0  0  0  0  0  0  0  0  0  0  0  0
    9.7541  -15.0723   23.8262 O   0  0  0  0  0  0  0  0  0  0  0  0
    5.8928  -11.8920   27.3976 C   0  0  0  0  0  0  0  0  0  0  0  0
    6.3466  -13.2723   26.8985 C   0  0  0  0  0  0  0  0  0  0  0  0
    7.7531  -13.1177   26.4386 C   0  0  2  0  0  0  0  0  0  0  0  0
    7.8621  -12.1499   25.2812 C   0  0  0  0  0  0  0  0  0  0  0  0
    8.4869  -14.4069   26.1644 C   0  0  2  0  0  0  0  0  0  0  0  0
    7.8302  -15.0450   25.0507 N   0  0  0  0  0  0  0  0  0  0  0  0
    8.6181  -15.2810   27.3316 C   0  0  0  0  0  0  0  0  0  0  0  0
    9.4525  -14.9406   28.3660 O   0  0  0  0  0  0  0  0  0  0  0  0
    7.9819  -16.3400   27.4088 O   0  0  0  0  0  0  0  0  0  0  0  0
  2  4  1  0
  2  3  1  1
  2  1  1  0
  4  5  1  6
  6  4  1  0
  6  7  2  0
  9  8  1  6
  9 10  1  0
  9 11  1  0
 11 12  1  6
 12  6  1  0
 13 11  1  0
 14 13  2  0
 15 16  1  0
 17 16  1  0
 17 19  1  0
 17 18  1  6
 19 20  1  6
 19 21  1  0
 20 13  1  0
 21 22  1  0
 23 21  2  0
M  END
$$$$
