VTI.pdb
     RDKit          3D

 23 22  0  0  1  0  0  0  0  0999 V2000
   12.9678  -17.7112   22.8487 C   0  0  0  0  0  0  0  0  0  0  0  0
   12.0267  -18.5706   22.0371 C   0  0  2  0  0  0  0  0  0  0  0  0
   12.6949  -19.8435   21.5729 C   0  0  0  0  0  0  0  0  0  0  0  0
   11.5759  -17.7219   20.8411 C   0  0  2  0  0  0  0  0  0  0  0  0
   12.7891  -17.2811   20.1855 N   0  0  0  0  0  0  0  0  0  0  0  0
   10.7661  -16.5691   21.3024 C   0  0  0  0  0  0  0  0  0  0  0  0
   11.3689  -15.4635   21.4545 O   0  0  0  0  0  0  0  0  0  0  0  0
    6.3824  -14.4925   21.8901 C   0  0  0  0  0  0  0  0  0  0  0  0
    7.2098  -15.6627   21.4514 C   0  0  1  0  0  0  0  0  0  0  0  0
    7.3149  -15.6152   20.0625 O   0  0  0  0  0  0  0  0  0  0  0  0
    8.5954  -15.6702   22.0504 C   0  0  2  0  0  0  0  0  0  0  0  0
    9.4017  -16.7558   21.5424 N   0  0  0  0  0  0  0  0  0  0  0  0
    8.5862  -15.7194   23.5159 C   0  0  0  0  0  0  0  0  0  0  0  0
    8.9869  -16.7407   24.1250 O   0  0  0  0  0  0  0  0  0  0  0  0
    5.6707  -11.9429   26.7681 C   0  0  0  0  0  0  0  0  0  0  0  0
    6.1089  -13.1319   25.8995 C   0  0  0  0  0  0  0  0  0  0  0  0
    7.5255  -13.4183   26.2527 C   0  0  2  0  0  0  0  0  0  0  0  0
    8.4355  -12.2607   25.9062 C   0  0  0  0  0  0  0  0  0  0  0  0
    8.0650  -14.7305   25.7401 C   0  0  2  0  0  0  0  0  0  0  0  0
    8.1319  -14.6338   24.3031 N   0  0  0  0  0  0  0  0  0  0  0  0
    7.3231  -15.9046   26.2030 C   0  0  0  0  0  0  0  0  0  0  0  0
    6.3166  -16.4381   25.4385 O   0  0  0  0  0  0  0  0  0  0  0  0
    7.5873  -16.4376   27.2885 O   0  0  0  0  0  0  0  0  0  0  0  0
  2  4  1  0
  2  3  1  6
  2  1  1  0
  4  5  1  1
  6  4  1  0
  6  7  2  0
  9  8  1  1
  9 10  1  0
  9 11  1  0
 11 12  1  6
 12  6  1  0
 13 11  1  0
 14 13  2  0
 15 16  1  0
 17 16  1  0
 17 19  1  0
 17 18  1  6
 19 20  1  6
 19 21  1  0
 20 13  1  0
 21 22  1  0
 23 21  2  0
M  END
$$$$
