VTI.pdb
     RDKit          3D

 23 22  0  0  1  0  0  0  0  0999 V2000
    8.3421  -12.6755   17.8217 C   0  0  0  0  0  0  0  0  0  0  0  0
    7.7556  -13.4310   18.9914 C   0  0  2  0  0  0  0  0  0  0  0  0
    7.8212  -12.6228   20.2660 C   0  0  0  0  0  0  0  0  0  0  0  0
    8.5612  -14.7299   19.1252 C   0  0  2  0  0  0  0  0  0  0  0  0
    8.3479  -15.4598   17.8933 N   0  0  0  0  0  0  0  0  0  0  0  0
    8.0948  -15.5079   20.2976 C   0  0  0  0  0  0  0  0  0  0  0  0
    7.2975  -16.4687   20.0733 O   0  0  0  0  0  0  0  0  0  0  0  0
    7.8575  -18.0082   21.3032 C   0  0  0  0  0  0  0  0  0  0  0  0
    8.5552  -17.4202   22.4923 C   0  0  1  0  0  0  0  0  0  0  0  0
    9.9280  -17.5486   22.2892 O   0  0  0  0  0  0  0  0  0  0  0  0
    8.2245  -15.9646   22.7172 C   0  0  2  0  0  0  0  0  0  0  0  0
    8.5495  -15.1493   21.5698 N   0  0  0  0  0  0  0  0  0  0  0  0
    8.8745  -15.4061   23.9070 C   0  0  0  0  0  0  0  0  0  0  0  0
   10.0480  -14.9655   23.8485 O   0  0  0  0  0  0  0  0  0  0  0  0
    6.1419  -11.9420   26.4751 C   0  0  0  0  0  0  0  0  0  0  0  0
    7.1645  -12.8306   25.7506 C   0  0  0  0  0  0  0  0  0  0  0  0
    7.8249  -13.6589   26.7952 C   0  0  2  0  0  0  0  0  0  0  0  0
    8.3992  -12.8081   27.9062 C   0  0  0  0  0  0  0  0  0  0  0  0
    8.8256  -14.6649   26.2829 C   0  0  2  0  0  0  0  0  0  0  0  0
    8.2201  -15.3378   25.1606 N   0  0  0  0  0  0  0  0  0  0  0  0
    9.3243  -15.5870   27.3048 C   0  0  0  0  0  0  0  0  0  0  0  0
   10.4383  -15.2734   28.0415 O   0  0  0  0  0  0  0  0  0  0  0  0
    8.7537  -16.6634   27.5243 O   0  0  0  0  0  0  0  0  0  0  0  0
  2  4  1  0
  2  3  1  1
  2  1  1  0
  4  5  1  6
  6  4  1  0
  6  7  2  0
  9  8  1  6
  9 10  1  0
  9 11  1  0
 11 12  1  6
 12  6  1  0
 13 11  1  0
 14 13  2  0
 15 16  1  0
 17 16  1  0
 17 19  1  0
 17 18  1  1
 19 20  1  6
 19 21  1  0
 20 13  1  0
 21 22  1  0
 23 21  2  0
M  END
$$$$
