VTI.pdb
     RDKit          3D

 23 22  0  0  1  0  0  0  0  0999 V2000
    8.4535  -12.6658   17.9171 C   0  0  0  0  0  0  0  0  0  0  0  0
    7.9230  -13.2549   19.2034 C   0  0  2  0  0  0  0  0  0  0  0  0
    8.3480  -12.4434   20.4047 C   0  0  0  0  0  0  0  0  0  0  0  0
    8.4679  -14.6865   19.2899 C   0  0  2  0  0  0  0  0  0  0  0  0
    7.9531  -15.3796   18.1278 N   0  0  0  0  0  0  0  0  0  0  0  0
    8.0179  -15.3350   20.5446 C   0  0  0  0  0  0  0  0  0  0  0  0
    6.7803  -15.5921   20.6504 O   0  0  0  0  0  0  0  0  0  0  0  0
    8.4309  -18.5436   21.6835 C   0  0  0  0  0  0  0  0  0  0  0  0
    8.9975  -17.7216   22.8014 C   0  0  1  0  0  0  0  0  0  0  0  0
   10.3872  -17.7824   22.7148 O   0  0  0  0  0  0  0  0  0  0  0  0
    8.5639  -16.2765   22.7571 C   0  0  2  0  0  0  0  0  0  0  0  0
    8.9644  -15.6257   21.5312 N   0  0  0  0  0  0  0  0  0  0  0  0
    9.0501  -15.4966   23.8997 C   0  0  0  0  0  0  0  0  0  0  0  0
   10.1275  -14.8574   23.8270 O   0  0  0  0  0  0  0  0  0  0  0  0
    5.8149  -12.3225   26.3689 C   0  0  0  0  0  0  0  0  0  0  0  0
    7.0094  -13.0024   25.6825 C   0  0  0  0  0  0  0  0  0  0  0  0
    7.7075  -13.7960   26.7297 C   0  0  2  0  0  0  0  0  0  0  0  0
    8.1255  -12.9349   27.9010 C   0  0  0  0  0  0  0  0  0  0  0  0
    8.8402  -14.6607   26.2350 C   0  0  2  0  0  0  0  0  0  0  0  0
    8.3389  -15.4278   25.1219 N   0  0  0  0  0  0  0  0  0  0  0  0
    9.4577  -15.4893   27.2721 C   0  0  0  0  0  0  0  0  0  0  0  0
   10.5198  -15.0164   28.0005 O   0  0  0  0  0  0  0  0  0  0  0  0
    9.0363  -16.6282   27.5121 O   0  0  0  0  0  0  0  0  0  0  0  0
  2  4  1  0
  2  3  1  1
  2  1  1  0
  4  5  1  6
  6  4  1  0
  6  7  2  0
  9  8  1  6
  9 10  1  0
  9 11  1  0
 11 12  1  6
 12  6  1  0
 13 11  1  0
 14 13  2  0
 15 16  1  0
 17 16  1  0
 17 19  1  0
 17 18  1  1
 19 20  1  6
 19 21  1  0
 20 13  1  0
 21 22  1  0
 23 21  2  0
M  END
$$$$
