VTI.pdb
     RDKit          3D

 23 22  0  0  1  0  0  0  0  0999 V2000
    6.9281  -13.1491   19.8015 C   0  0  0  0  0  0  0  0  0  0  0  0
    8.4104  -13.3198   19.5638 C   0  0  2  0  0  0  0  0  0  0  0  0
    8.8466  -12.6665   18.2734 C   0  0  0  0  0  0  0  0  0  0  0  0
    8.6801  -14.8298   19.5307 C   0  0  2  0  0  0  0  0  0  0  0  0
    7.9207  -15.3458   18.4114 N   0  0  0  0  0  0  0  0  0  0  0  0
    8.2537  -15.4582   20.8038 C   0  0  0  0  0  0  0  0  0  0  0  0
    7.0331  -15.7886   20.9046 O   0  0  0  0  0  0  0  0  0  0  0  0
    8.7876  -18.5868   21.9074 C   0  0  0  0  0  0  0  0  0  0  0  0
    9.3297  -17.7688   23.0403 C   0  0  1  0  0  0  0  0  0  0  0  0
   10.7202  -17.7759   22.9455 O   0  0  0  0  0  0  0  0  0  0  0  0
    8.8425  -16.3402   23.0298 C   0  0  2  0  0  0  0  0  0  0  0  0
    9.2024  -15.6516   21.8120 N   0  0  0  0  0  0  0  0  0  0  0  0
    9.3147  -15.5649   24.1814 C   0  0  0  0  0  0  0  0  0  0  0  0
   10.3920  -14.9240   24.1237 O   0  0  0  0  0  0  0  0  0  0  0  0
    6.4039  -12.1158   26.6030 C   0  0  0  0  0  0  0  0  0  0  0  0
    7.5147  -12.9494   25.9461 C   0  0  0  0  0  0  0  0  0  0  0  0
    8.0659  -13.8356   27.0064 C   0  0  2  0  0  0  0  0  0  0  0  0
    8.5177  -13.0489   28.2168 C   0  0  0  0  0  0  0  0  0  0  0  0
    9.1186  -14.8133   26.5464 C   0  0  2  0  0  0  0  0  0  0  0  0
    8.5895  -15.5024   25.3957 N   0  0  0  0  0  0  0  0  0  0  0  0
    9.5903  -15.7216   27.5932 C   0  0  0  0  0  0  0  0  0  0  0  0
   10.6396  -15.3662   28.4024 O   0  0  0  0  0  0  0  0  0  0  0  0
    9.0548  -16.8237   27.7689 O   0  0  0  0  0  0  0  0  0  0  0  0
  2  4  1  0
  2  3  1  6
  2  1  1  0
  4  5  1  6
  6  4  1  0
  6  7  2  0
  9  8  1  6
  9 10  1  0
  9 11  1  0
 11 12  1  6
 12  6  1  0
 13 11  1  0
 14 13  2  0
 15 16  1  0
 17 16  1  0
 17 19  1  0
 17 18  1  1
 19 20  1  6
 19 21  1  0
 20 13  1  0
 21 22  1  0
 23 21  2  0
M  END
$$$$
