VTI.pdb
     RDKit          3D

 23 22  0  0  1  0  0  0  0  0999 V2000
    8.0597  -12.7483   18.9184 C   0  0  0  0  0  0  0  0  0  0  0  0
    7.7988  -13.5219   20.1898 C   0  0  2  0  0  0  0  0  0  0  0  0
    8.1979  -12.7322   21.4142 C   0  0  0  0  0  0  0  0  0  0  0  0
    8.6087  -14.8210   20.0889 C   0  0  2  0  0  0  0  0  0  0  0  0
    8.1529  -15.4822   18.8844 N   0  0  0  0  0  0  0  0  0  0  0  0
    8.3793  -15.6664   21.2848 C   0  0  0  0  0  0  0  0  0  0  0  0
    7.3149  -16.3560   21.3092 O   0  0  0  0  0  0  0  0  0  0  0  0
    8.1874  -18.4236   22.0919 C   0  0  0  0  0  0  0  0  0  0  0  0
    9.2857  -18.0053   23.0220 C   0  0  1  0  0  0  0  0  0  0  0  0
   10.5004  -18.2205   22.3735 O   0  0  0  0  0  0  0  0  0  0  0  0
    9.1973  -16.5558   23.4340 C   0  0  2  0  0  0  0  0  0  0  0  0
    9.3316  -15.6610   22.3080 N   0  0  0  0  0  0  0  0  0  0  0  0
   10.1780  -16.1909   24.4613 C   0  0  0  0  0  0  0  0  0  0  0  0
   11.3213  -15.7854   24.1400 O   0  0  0  0  0  0  0  0  0  0  0  0
    9.1437  -13.5558   29.2265 C   0  0  0  0  0  0  0  0  0  0  0  0
    9.2689  -14.8674   28.4363 C   0  0  0  0  0  0  0  0  0  0  0  0
   10.4515  -14.7172   27.5461 C   0  0  2  0  0  0  0  0  0  0  0  0
   10.2894  -13.5577   26.5883 C   0  0  0  0  0  0  0  0  0  0  0  0
   10.8885  -15.9751   26.8372 C   0  0  2  0  0  0  0  0  0  0  0  0
    9.8876  -16.2768   25.8442 N   0  0  0  0  0  0  0  0  0  0  0  0
   11.1678  -17.1000   27.7316 C   0  0  0  0  0  0  0  0  0  0  0  0
   12.3016  -17.1104   28.5040 O   0  0  0  0  0  0  0  0  0  0  0  0
   10.3906  -18.0603   27.8090 O   0  0  0  0  0  0  0  0  0  0  0  0
  2  4  1  0
  2  3  1  1
  2  1  1  0
  4  5  1  6
  6  4  1  0
  6  7  2  0
  9  8  1  6
  9 10  1  0
  9 11  1  0
 11 12  1  6
 12  6  1  0
 13 11  1  0
 14 13  2  0
 15 16  1  0
 17 16  1  0
 17 19  1  0
 17 18  1  6
 19 20  1  6
 19 21  1  0
 20 13  1  0
 21 22  1  0
 23 21  2  0
M  END
$$$$
