VTI.pdb
     RDKit          3D

 23 22  0  0  1  0  0  0  0  0999 V2000
    8.5030  -12.8151   17.8449 C   0  0  0  0  0  0  0  0  0  0  0  0
    7.9301  -13.3493   19.1370 C   0  0  2  0  0  0  0  0  0  0  0  0
    8.3526  -12.5126   20.3217 C   0  0  0  0  0  0  0  0  0  0  0  0
    8.4332  -14.7917   19.2788 C   0  0  2  0  0  0  0  0  0  0  0  0
    7.9308  -15.5044   18.1231 N   0  0  0  0  0  0  0  0  0  0  0  0
    7.9324  -15.3914   20.5385 C   0  0  0  0  0  0  0  0  0  0  0  0
    6.6845  -15.6035   20.6213 O   0  0  0  0  0  0  0  0  0  0  0  0
    8.1291  -18.5901   21.7441 C   0  0  0  0  0  0  0  0  0  0  0  0
    8.7666  -17.7788   22.8312 C   0  0  1  0  0  0  0  0  0  0  0  0
   10.1488  -17.9051   22.7044 O   0  0  0  0  0  0  0  0  0  0  0  0
    8.3985  -16.3159   22.7763 C   0  0  2  0  0  0  0  0  0  0  0  0
    8.8454  -15.6880   21.5545 N   0  0  0  0  0  0  0  0  0  0  0  0
    8.9024  -15.5544   23.9237 C   0  0  0  0  0  0  0  0  0  0  0  0
   10.0286  -15.0026   23.8815 O   0  0  0  0  0  0  0  0  0  0  0  0
    5.7928  -12.1799   26.4138 C   0  0  0  0  0  0  0  0  0  0  0  0
    6.9004  -12.9713   25.7016 C   0  0  0  0  0  0  0  0  0  0  0  0
    7.5910  -13.7730   26.7475 C   0  0  2  0  0  0  0  0  0  0  0  0
    8.0597  -12.9100   27.8980 C   0  0  0  0  0  0  0  0  0  0  0  0
    8.6846  -14.6825   26.2451 C   0  0  2  0  0  0  0  0  0  0  0  0
    8.1546  -15.4068   25.1167 N   0  0  0  0  0  0  0  0  0  0  0  0
    9.2555  -15.5562   27.2719 C   0  0  0  0  0  0  0  0  0  0  0  0
   10.3395  -15.1496   28.0078 O   0  0  0  0  0  0  0  0  0  0  0  0
    8.7741  -16.6743   27.4961 O   0  0  0  0  0  0  0  0  0  0  0  0
  2  4  1  0
  2  3  1  1
  2  1  1  0
  4  5  1  6
  6  4  1  0
  6  7  2  0
  9  8  1  6
  9 10  1  0
  9 11  1  0
 11 12  1  6
 12  6  1  0
 13 11  1  0
 14 13  2  0
 15 16  1  0
 17 16  1  0
 17 19  1  0
 17 18  1  1
 19 20  1  6
 19 21  1  0
 20 13  1  0
 21 22  1  0
 23 21  2  0
M  END
$$$$
