VTI.pdb
     RDKit          3D

 23 22  0  0  1  0  0  0  0  0999 V2000
   13.2587  -18.6267   20.2697 C   0  0  0  0  0  0  0  0  0  0  0  0
   12.4424  -17.6088   21.0315 C   0  0  2  0  0  0  0  0  0  0  0  0
   12.0828  -18.1038   22.4128 C   0  0  0  0  0  0  0  0  0  0  0  0
   11.1807  -17.3443   20.1996 C   0  0  2  0  0  0  0  0  0  0  0  0
   11.6429  -17.0208   18.8664 N   0  0  0  0  0  0  0  0  0  0  0  0
   10.4024  -16.2261   20.7838 C   0  0  0  0  0  0  0  0  0  0  0  0
   10.8905  -15.0609   20.6696 O   0  0  0  0  0  0  0  0  0  0  0  0
    6.7818  -15.3346   19.9500 C   0  0  0  0  0  0  0  0  0  0  0  0
    6.9298  -15.5599   21.4244 C   0  0  1  0  0  0  0  0  0  0  0  0
    6.4650  -16.8425   21.7097 O   0  0  0  0  0  0  0  0  0  0  0  0
    8.3548  -15.4338   21.9060 C   0  0  2  0  0  0  0  0  0  0  0  0
    9.1902  -16.5076   21.4204 N   0  0  0  0  0  0  0  0  0  0  0  0
    8.4620  -15.3605   23.3666 C   0  0  0  0  0  0  0  0  0  0  0  0
    9.2281  -16.1328   23.9922 O   0  0  0  0  0  0  0  0  0  0  0  0
    6.0338  -11.0089   25.7450 C   0  0  0  0  0  0  0  0  0  0  0  0
    7.1455  -11.9532   25.2625 C   0  0  0  0  0  0  0  0  0  0  0  0
    7.0032  -13.2123   26.0423 C   0  0  2  0  0  0  0  0  0  0  0  0
    7.1612  -12.9736   27.5276 C   0  0  0  0  0  0  0  0  0  0  0  0
    7.8506  -14.3654   25.5649 C   0  0  2  0  0  0  0  0  0  0  0  0
    7.7181  -14.4292   24.1306 N   0  0  0  0  0  0  0  0  0  0  0  0
    7.5569  -15.6382   26.2262 C   0  0  0  0  0  0  0  0  0  0  0  0
    8.3979  -16.1318   27.1911 O   0  0  0  0  0  0  0  0  0  0  0  0
    6.5485  -16.2920   25.9298 O   0  0  0  0  0  0  0  0  0  0  0  0
  2  4  1  0
  2  3  1  1
  2  1  1  0
  4  5  1  6
  6  4  1  0
  6  7  2  0
  9  8  1  6
  9 10  1  0
  9 11  1  0
 11 12  1  1
 12  6  1  0
 13 11  1  0
 14 13  2  0
 15 16  1  0
 17 16  1  0
 17 19  1  0
 17 18  1  1
 19 20  1  6
 19 21  1  0
 20 13  1  0
 21 22  1  0
 23 21  2  0
M  END
$$$$
