VTI.pdb
     RDKit          3D

 23 22  0  0  1  0  0  0  0  0999 V2000
    6.9487  -13.0954   19.4289 C   0  0  0  0  0  0  0  0  0  0  0  0
    8.4538  -13.1909   19.3357 C   0  0  2  0  0  0  0  0  0  0  0  0
    8.9884  -12.4223   18.1501 C   0  0  0  0  0  0  0  0  0  0  0  0
    8.7940  -14.6824   19.2191 C   0  0  2  0  0  0  0  0  0  0  0  0
    8.2439  -15.1189   17.9532 N   0  0  0  0  0  0  0  0  0  0  0  0
    8.2024  -15.4366   20.3499 C   0  0  0  0  0  0  0  0  0  0  0  0
    7.2909  -16.2738   20.0720 O   0  0  0  0  0  0  0  0  0  0  0  0
    7.7515  -17.9661   21.2477 C   0  0  0  0  0  0  0  0  0  0  0  0
    8.4371  -17.4798   22.4887 C   0  0  1  0  0  0  0  0  0  0  0  0
    9.8018  -17.7248   22.3470 O   0  0  0  0  0  0  0  0  0  0  0  0
    8.2251  -16.0080   22.7483 C   0  0  2  0  0  0  0  0  0  0  0  0
    8.6711  -15.1910   21.6436 N   0  0  0  0  0  0  0  0  0  0  0  0
    8.8677  -15.5452   23.9824 C   0  0  0  0  0  0  0  0  0  0  0  0
   10.0650  -15.1696   23.9792 O   0  0  0  0  0  0  0  0  0  0  0  0
    6.1749  -12.0038   26.4175 C   0  0  0  0  0  0  0  0  0  0  0  0
    7.2420  -12.8938   25.7621 C   0  0  0  0  0  0  0  0  0  0  0  0
    7.7507  -13.8021   26.8249 C   0  0  2  0  0  0  0  0  0  0  0  0
    8.2494  -13.0337   28.0287 C   0  0  0  0  0  0  0  0  0  0  0  0
    8.7479  -14.8367   26.3658 C   0  0  2  0  0  0  0  0  0  0  0  0
    8.1793  -15.5001   25.2188 N   0  0  0  0  0  0  0  0  0  0  0  0
    9.1726  -15.7656   27.4146 C   0  0  0  0  0  0  0  0  0  0  0  0
   10.2374  -15.4615   28.2245 O   0  0  0  0  0  0  0  0  0  0  0  0
    8.5827  -16.8394   27.5915 O   0  0  0  0  0  0  0  0  0  0  0  0
  2  4  1  0
  2  3  1  6
  2  1  1  0
  4  5  1  6
  6  4  1  0
  6  7  2  0
  9  8  1  6
  9 10  1  0
  9 11  1  0
 11 12  1  6
 12  6  1  0
 13 11  1  0
 14 13  2  0
 15 16  1  0
 17 16  1  0
 17 19  1  0
 17 18  1  1
 19 20  1  6
 19 21  1  0
 20 13  1  0
 21 22  1  0
 23 21  2  0
M  END
$$$$
