VTI.pdb
     RDKit          3D

 23 22  0  0  1  0  0  0  0  0999 V2000
    8.5242  -12.6317   17.8046 C   0  0  0  0  0  0  0  0  0  0  0  0
    7.9500  -13.3556   19.0000 C   0  0  2  0  0  0  0  0  0  0  0  0
    8.1403  -12.5659   20.2738 C   0  0  0  0  0  0  0  0  0  0  0  0
    8.6688  -14.7085   19.0827 C   0  0  2  0  0  0  0  0  0  0  0  0
    8.4057  -15.3770   17.8259 N   0  0  0  0  0  0  0  0  0  0  0  0
    8.1546  -15.4969   20.2278 C   0  0  0  0  0  0  0  0  0  0  0  0
    7.3407  -16.4337   19.9652 O   0  0  0  0  0  0  0  0  0  0  0  0
    7.9109  -18.0130   21.1516 C   0  0  0  0  0  0  0  0  0  0  0  0
    8.5573  -17.4648   22.3878 C   0  0  1  0  0  0  0  0  0  0  0  0
    9.9370  -17.6005   22.2449 O   0  0  0  0  0  0  0  0  0  0  0  0
    8.2284  -16.0129   22.6378 C   0  0  2  0  0  0  0  0  0  0  0  0
    8.5854  -15.1735   21.5177 N   0  0  0  0  0  0  0  0  0  0  0  0
    8.8520  -15.4853   23.8556 C   0  0  0  0  0  0  0  0  0  0  0  0
   10.0450  -15.0962   23.8474 O   0  0  0  0  0  0  0  0  0  0  0  0
    5.9931  -12.0795   26.4991 C   0  0  0  0  0  0  0  0  0  0  0  0
    7.0316  -12.9273   25.7487 C   0  0  0  0  0  0  0  0  0  0  0  0
    7.7047  -13.7769   26.7678 C   0  0  2  0  0  0  0  0  0  0  0  0
    8.2503  -12.9534   27.9135 C   0  0  0  0  0  0  0  0  0  0  0  0
    8.7331  -14.7391   26.2274 C   0  0  2  0  0  0  0  0  0  0  0  0
    8.1495  -15.3904   25.0811 N   0  0  0  0  0  0  0  0  0  0  0  0
    9.2521  -15.6810   27.2209 C   0  0  0  0  0  0  0  0  0  0  0  0
   10.3658  -15.3706   27.9594 O   0  0  0  0  0  0  0  0  0  0  0  0
    8.6993  -16.7715   27.4143 O   0  0  0  0  0  0  0  0  0  0  0  0
  2  4  1  0
  2  3  1  1
  2  1  1  0
  4  5  1  6
  6  4  1  0
  6  7  2  0
  9  8  1  6
  9 10  1  0
  9 11  1  0
 11 12  1  6
 12  6  1  0
 13 11  1  0
 14 13  2  0
 15 16  1  0
 17 16  1  0
 17 19  1  0
 17 18  1  1
 19 20  1  6
 19 21  1  0
 20 13  1  0
 21 22  1  0
 23 21  2  0
M  END
$$$$
