VTI.pdb
     RDKit          3D

 23 22  0  0  1  0  0  0  0  0999 V2000
    8.5026  -12.8072   17.7487 C   0  0  0  0  0  0  0  0  0  0  0  0
    7.8528  -13.4707   18.9406 C   0  0  2  0  0  0  0  0  0  0  0  0
    8.0141  -12.6443   20.1949 C   0  0  0  0  0  0  0  0  0  0  0  0
    8.5211  -14.8425   19.0996 C   0  0  2  0  0  0  0  0  0  0  0  0
    8.2579  -15.5590   17.8696 N   0  0  0  0  0  0  0  0  0  0  0  0
    7.9577  -15.5586   20.2689 C   0  0  0  0  0  0  0  0  0  0  0  0
    7.0352  -16.3991   20.0421 O   0  0  0  0  0  0  0  0  0  0  0  0
    8.2391  -18.4212   23.6419 C   0  0  0  0  0  0  0  0  0  0  0  0
    8.4881  -17.5542   22.4449 C   0  0  1  0  0  0  0  0  0  0  0  0
    7.7378  -18.0620   21.3858 O   0  0  0  0  0  0  0  0  0  0  0  0
    8.1114  -16.1095   22.6673 C   0  0  2  0  0  0  0  0  0  0  0  0
    8.4631  -15.2760   21.5411 N   0  0  0  0  0  0  0  0  0  0  0  0
    8.6970  -15.5457   23.8877 C   0  0  0  0  0  0  0  0  0  0  0  0
    9.9413  -15.4392   24.0111 O   0  0  0  0  0  0  0  0  0  0  0  0
    5.7621  -11.8377   26.4674 C   0  0  0  0  0  0  0  0  0  0  0  0
    6.8381  -12.6297   25.7091 C   0  0  0  0  0  0  0  0  0  0  0  0
    7.4849  -13.5286   26.7026 C   0  0  2  0  0  0  0  0  0  0  0  0
    8.0421  -12.7571   27.8784 C   0  0  0  0  0  0  0  0  0  0  0  0
    8.4943  -14.4958   26.1357 C   0  0  2  0  0  0  0  0  0  0  0  0
    7.8997  -15.1007   24.9698 N   0  0  0  0  0  0  0  0  0  0  0  0
    8.9914  -15.4770   27.1018 C   0  0  0  0  0  0  0  0  0  0  0  0
   10.1905  -15.2812   27.7388 O   0  0  0  0  0  0  0  0  0  0  0  0
    8.3430  -16.4988   27.3627 O   0  0  0  0  0  0  0  0  0  0  0  0
  2  4  1  0
  2  3  1  1
  2  1  1  0
  4  5  1  6
  6  4  1  0
  6  7  2  0
  9  8  1  1
  9 10  1  0
  9 11  1  0
 11 12  1  6
 12  6  1  0
 13 11  1  0
 14 13  2  0
 15 16  1  0
 17 16  1  0
 17 19  1  0
 17 18  1  1
 19 20  1  6
 19 21  1  0
 20 13  1  0
 21 22  1  0
 23 21  2  0
M  END
$$$$
