VTI.pdb
     RDKit          3D

 23 22  0  0  1  0  0  0  0  0999 V2000
    6.9191  -12.9471   19.9908 C   0  0  0  0  0  0  0  0  0  0  0  0
    8.3814  -13.1072   19.6455 C   0  0  2  0  0  0  0  0  0  0  0  0
    8.7508  -12.3231   18.4082 C   0  0  0  0  0  0  0  0  0  0  0  0
    8.6223  -14.6077   19.4344 C   0  0  2  0  0  0  0  0  0  0  0  0
    7.8531  -14.9739   18.2640 N   0  0  0  0  0  0  0  0  0  0  0  0
    8.1841  -15.3733   20.6257 C   0  0  0  0  0  0  0  0  0  0  0  0
    6.9356  -15.5343   20.7819 O   0  0  0  0  0  0  0  0  0  0  0  0
    8.8875  -18.6812   24.0317 C   0  0  0  0  0  0  0  0  0  0  0  0
    9.3091  -17.9475   22.7946 C   0  0  1  0  0  0  0  0  0  0  0  0
    8.8589  -18.6729   21.6930 O   0  0  0  0  0  0  0  0  0  0  0  0
    8.7592  -16.5438   22.7182 C   0  0  2  0  0  0  0  0  0  0  0  0
    9.1527  -15.8708   21.5021 N   0  0  0  0  0  0  0  0  0  0  0  0
    9.1334  -15.7180   23.8707 C   0  0  0  0  0  0  0  0  0  0  0  0
   10.2785  -15.2111   23.9507 O   0  0  0  0  0  0  0  0  0  0  0  0
    5.7300  -12.2320   25.8389 C   0  0  0  0  0  0  0  0  0  0  0  0
    6.9463  -12.9968   25.2949 C   0  0  0  0  0  0  0  0  0  0  0  0
    7.5127  -13.7640   26.4369 C   0  0  2  0  0  0  0  0  0  0  0  0
    7.8626  -12.8626   27.6002 C   0  0  0  0  0  0  0  0  0  0  0  0
    8.6457  -14.6969   26.0879 C   0  0  2  0  0  0  0  0  0  0  0  0
    8.2350  -15.4562   24.9331 N   0  0  0  0  0  0  0  0  0  0  0  0
    9.0924  -15.5383   27.1997 C   0  0  0  0  0  0  0  0  0  0  0  0
   10.2036  -15.1971   27.9283 O   0  0  0  0  0  0  0  0  0  0  0  0
    8.4795  -16.5699   27.5037 O   0  0  0  0  0  0  0  0  0  0  0  0
  2  4  1  0
  2  3  1  6
  2  1  1  0
  4  5  1  6
  6  4  1  0
  6  7  2  0
  9  8  1  1
  9 10  1  0
  9 11  1  0
 11 12  1  6
 12  6  1  0
 13 11  1  0
 14 13  2  0
 15 16  1  0
 17 16  1  0
 17 19  1  0
 17 18  1  1
 19 20  1  6
 19 21  1  0
 20 13  1  0
 21 22  1  0
 23 21  2  0
M  END
$$$$
