VTI.pdb
     RDKit          3D

 23 22  0  0  1  0  0  0  0  0999 V2000
    8.4644  -12.6012   17.9985 C   0  0  0  0  0  0  0  0  0  0  0  0
    7.9190  -13.3238   19.2081 C   0  0  2  0  0  0  0  0  0  0  0  0
    8.2359  -12.5860   20.4877 C   0  0  0  0  0  0  0  0  0  0  0  0
    8.5541  -14.7204   19.2103 C   0  0  2  0  0  0  0  0  0  0  0  0
    8.1371  -15.3498   17.9752 N   0  0  0  0  0  0  0  0  0  0  0  0
    8.0952  -15.4942   20.3885 C   0  0  0  0  0  0  0  0  0  0  0  0
    7.2040  -16.3747   20.1900 O   0  0  0  0  0  0  0  0  0  0  0  0
    8.0779  -18.0708   21.3010 C   0  0  0  0  0  0  0  0  0  0  0  0
    8.7170  -17.5007   22.5310 C   0  0  1  0  0  0  0  0  0  0  0  0
   10.0989  -17.6040   22.3817 O   0  0  0  0  0  0  0  0  0  0  0  0
    8.3545  -16.0559   22.7753 C   0  0  2  0  0  0  0  0  0  0  0  0
    8.6584  -15.2189   21.6379 N   0  0  0  0  0  0  0  0  0  0  0  0
    8.9950  -15.4984   23.9708 C   0  0  0  0  0  0  0  0  0  0  0  0
   10.1787  -15.0841   23.9291 O   0  0  0  0  0  0  0  0  0  0  0  0
    6.0006  -12.1084   26.3338 C   0  0  0  0  0  0  0  0  0  0  0  0
    7.1495  -12.8899   25.6783 C   0  0  0  0  0  0  0  0  0  0  0  0
    7.8021  -13.6755   26.7601 C   0  0  2  0  0  0  0  0  0  0  0  0
    8.2872  -12.7873   27.8844 C   0  0  0  0  0  0  0  0  0  0  0  0
    8.8701  -14.6379   26.3033 C   0  0  2  0  0  0  0  0  0  0  0  0
    8.3196  -15.4018   25.2114 N   0  0  0  0  0  0  0  0  0  0  0  0
    9.4177  -15.4757   27.3718 C   0  0  0  0  0  0  0  0  0  0  0  0
    9.0111  -16.7783   27.5129 O   0  0  0  0  0  0  0  0  0  0  0  0
   10.2549  -15.0281   28.1663 O   0  0  0  0  0  0  0  0  0  0  0  0
  2  4  1  0
  2  3  1  1
  2  1  1  0
  4  5  1  6
  6  4  1  0
  6  7  2  0
  9  8  1  6
  9 10  1  0
  9 11  1  0
 11 12  1  6
 12  6  1  0
 13 11  1  0
 14 13  2  0
 15 16  1  0
 17 16  1  0
 17 19  1  0
 17 18  1  1
 19 20  1  6
 19 21  1  0
 20 13  1  0
 21 22  1  0
 23 21  2  0
M  END
$$$$
