QKG.pdb
     RDKit          3D

 23 22  0  0  1  0  0  0  0  0999 V2000
   15.7931  -14.9509   17.1332 N   0  0  0  0  0  0  0  0  0  0  0  0
   15.3558  -14.0453   18.1655 C   0  0  0  0  0  0  0  0  0  0  0  0
   16.1761  -13.1884   18.5532 O   0  0  0  0  0  0  0  0  0  0  0  0
   14.0086  -14.1442   18.7223 C   0  0  0  0  0  0  0  0  0  0  0  0
   13.1298  -15.1860   18.1552 C   0  0  0  0  0  0  0  0  0  0  0  0
   11.7535  -15.2927   18.6615 C   0  0  2  0  0  0  0  0  0  0  0  0
   10.8749  -14.2418   18.1406 N   0  0  0  0  0  0  0  0  0  0  0  0
   11.4954  -15.5100   20.0830 C   0  0  0  0  0  0  0  0  0  0  0  0
   10.8845  -14.6235   20.7831 O   0  0  0  0  0  0  0  0  0  0  0  0
   11.8748  -16.6865   20.7924 N   0  0  0  0  0  0  0  0  0  0  0  0
   11.6798  -16.8923   22.2265 C   0  0  1  0  0  0  0  0  0  0  0  0
   11.4231  -18.3292   22.4949 C   0  0  0  0  0  0  0  0  0  0  0  0
   11.1698  -18.7218   23.9125 C   0  0  0  0  0  0  0  0  0  0  0  0
   10.9203  -20.2324   24.0157 C   0  0  0  0  0  0  0  0  0  0  0  0
   10.5815  -20.6873   25.3899 C   0  0  0  0  0  0  0  0  0  0  0  0
   10.1509  -22.0619   25.4550 N   0  0  0  0  0  0  0  0  0  0  0  0
   12.7983  -16.2714   22.9672 C   0  0  0  0  0  0  0  0  0  0  0  0
   12.7073  -16.1647   24.2461 O   0  0  0  0  0  0  0  0  0  0  0  0
   13.9883  -15.7728   22.4169 N   0  0  0  0  0  0  0  0  0  0  0  0
   15.0213  -15.1769   23.2725 C   0  0  0  0  0  0  0  0  0  0  0  0
   15.8996  -16.2136   23.8464 C   0  0  0  0  0  0  0  0  0  0  0  0
   17.0245  -15.8971   24.5706 O   0  0  0  0  0  0  0  0  0  0  0  0
   15.6002  -17.4059   23.6611 O   0  0  0  0  0  0  0  0  0  0  0  0
  1  2  1  0
  2  3  2  0
  4  2  1  0
  4  5  1  0
  6  7  1  1
  6  5  1  0
  6  8  1  0
  8  9  2  0
 10  8  1  0
 10 11  1  0
 11 17  1  0
 12 13  1  0
 11 12  1  6
 14 13  1  0
 15 14  1  0
 16 15  1  0
 17 18  2  0
 19 17  1  0
 19 20  1  0
 21 20  1  0
 21 22  1  0
 23 21  2  0
M  END
$$$$
