QKG.pdb
     RDKit          3D

 23 22  0  0  1  0  0  0  0  0999 V2000
    9.0351  -19.8455   25.0500 N   0  0  0  0  0  0  0  0  0  0  0  0
    7.8584  -20.5846   25.4326 C   0  0  0  0  0  0  0  0  0  0  0  0
    7.6491  -20.7248   26.6549 O   0  0  0  0  0  0  0  0  0  0  0  0
    6.9643  -21.1394   24.4190 C   0  0  0  0  0  0  0  0  0  0  0  0
    7.3586  -20.9497   23.0091 C   0  0  0  0  0  0  0  0  0  0  0  0
    6.6992  -19.8881   22.2344 C   0  0  2  0  0  0  0  0  0  0  0  0
    5.8734  -20.4124   21.1432 N   0  0  0  0  0  0  0  0  0  0  0  0
    7.4477  -18.7167   21.7851 C   0  0  0  0  0  0  0  0  0  0  0  0
    8.4725  -18.8446   21.0219 O   0  0  0  0  0  0  0  0  0  0  0  0
    7.1141  -17.3750   22.1317 N   0  0  0  0  0  0  0  0  0  0  0  0
    7.8749  -16.1962   21.7210 C   0  0  1  0  0  0  0  0  0  0  0  0
    6.9779  -15.0149   21.6712 C   0  0  0  0  0  0  0  0  0  0  0  0
    7.5759  -13.7253   21.2161 C   0  0  0  0  0  0  0  0  0  0  0  0
    7.7068  -13.7032   19.6872 C   0  0  0  0  0  0  0  0  0  0  0  0
    8.1864  -12.4028   19.1496 C   0  0  0  0  0  0  0  0  0  0  0  0
    8.3179  -12.3830   17.7138 N   0  0  0  0  0  0  0  0  0  0  0  0
    9.0822  -16.0737   22.5651 C   0  0  0  0  0  0  0  0  0  0  0  0
    8.9374  -15.9973   23.8412 O   0  0  0  0  0  0  0  0  0  0  0  0
   10.4115  -16.0340   22.1189 N   0  0  0  0  0  0  0  0  0  0  0  0
   11.5191  -15.8685   23.0676 C   0  0  0  0  0  0  0  0  0  0  0  0
   12.8221  -15.9253   22.3788 C   0  0  0  0  0  0  0  0  0  0  0  0
   14.0046  -15.6754   23.0340 O   0  0  0  0  0  0  0  0  0  0  0  0
   12.8352  -16.2091   21.1685 O   0  0  0  0  0  0  0  0  0  0  0  0
  1  2  1  0
  2  3  2  0
  4  2  1  0
  4  5  1  0
  6  7  1  6
  6  5  1  0
  6  8  1  0
  8  9  2  0
 10  8  1  0
 10 11  1  0
 11 17  1  0
 12 13  1  0
 11 12  1  1
 14 13  1  0
 15 14  1  0
 16 15  1  0
 17 18  2  0
 19 17  1  0
 19 20  1  0
 21 20  1  0
 21 22  1  0
 23 21  2  0
M  END
$$$$
