QKG.pdb
     RDKit          3D

 23 22  0  0  1  0  0  0  0  0999 V2000
   10.3589  -20.9591   22.0094 N   0  0  0  0  0  0  0  0  0  0  0  0
   11.5754  -20.5246   21.3702 C   0  0  0  0  0  0  0  0  0  0  0  0
   12.6458  -20.9899   21.8121 O   0  0  0  0  0  0  0  0  0  0  0  0
   11.5360  -19.5788   20.2574 C   0  0  0  0  0  0  0  0  0  0  0  0
   10.2005  -19.1675   19.7815 C   0  0  0  0  0  0  0  0  0  0  0  0
   10.0403  -17.8147   19.2281 C   0  0  2  0  0  0  0  0  0  0  0  0
   10.8433  -17.5971   18.0217 N   0  0  0  0  0  0  0  0  0  0  0  0
   10.1016  -16.6408   20.0957 C   0  0  0  0  0  0  0  0  0  0  0  0
   11.1196  -15.8583   20.0718 O   0  0  0  0  0  0  0  0  0  0  0  0
    9.0706  -16.2661   21.0057 N   0  0  0  0  0  0  0  0  0  0  0  0
    9.0877  -15.0595   21.8309 C   0  0  1  0  0  0  0  0  0  0  0  0
    7.7272  -14.4685   21.8802 C   0  0  0  0  0  0  0  0  0  0  0  0
    7.0283  -14.2603   20.5779 C   0  0  0  0  0  0  0  0  0  0  0  0
    7.9024  -13.4342   19.6247 C   0  0  0  0  0  0  0  0  0  0  0  0
    7.2484  -13.1387   18.3228 C   0  0  0  0  0  0  0  0  0  0  0  0
    8.0711  -12.3686   17.4232 N   0  0  0  0  0  0  0  0  0  0  0  0
    9.7233  -15.3636   23.1303 C   0  0  0  0  0  0  0  0  0  0  0  0
    9.7624  -14.4429   24.0281 O   0  0  0  0  0  0  0  0  0  0  0  0
   10.3041  -16.5826   23.5100 N   0  0  0  0  0  0  0  0  0  0  0  0
   10.8114  -16.7825   24.8726 C   0  0  0  0  0  0  0  0  0  0  0  0
   11.2987  -18.1618   25.0616 C   0  0  0  0  0  0  0  0  0  0  0  0
   11.7509  -18.6150   26.2782 O   0  0  0  0  0  0  0  0  0  0  0  0
   11.2944  -18.9261   24.0811 O   0  0  0  0  0  0  0  0  0  0  0  0
  1  2  1  0
  2  3  2  0
  4  2  1  0
  4  5  1  0
  6  7  1  6
  6  5  1  0
  6  8  1  0
  8  9  2  0
 10  8  1  0
 10 11  1  0
 11 17  1  0
 12 13  1  0
 11 12  1  1
 14 13  1  0
 15 14  1  0
 16 15  1  0
 17 18  2  0
 19 17  1  0
 19 20  1  0
 21 20  1  0
 21 22  1  0
 23 21  2  0
M  END
$$$$
