DTN.pdb
     RDKit          3D

 24 23  0  0  1  0  0  0  0  0999 V2000
   19.5131  -13.0346  -17.7531 N   0  0  0  0  0  0  0  0  0  0  0  0
   19.5307  -11.5717  -17.8584 C   0  0  1  0  0  0  0  0  0  0  0  0
   18.0944  -11.1754  -18.0644 C   0  0  0  0  0  0  0  0  0  0  0  0
   17.4959  -11.5598  -19.3304 C   0  0  0  0  0  0  0  0  0  0  0  0
   17.2974  -12.7388  -19.6733 O   0  0  0  0  0  0  0  0  0  0  0  0
   20.0957  -10.9944  -16.6086 C   0  0  0  0  0  0  0  0  0  0  0  0
   19.5614  -11.1846  -15.5109 O   0  0  0  0  0  0  0  0  0  0  0  0
   17.1154  -10.5473  -20.2272 O   0  0  0  0  0  0  0  0  0  0  0  0
   23.5443  -11.3375  -15.1004 C   0  0  0  0  0  0  0  0  0  0  0  0
   23.3071   -9.8730  -15.3808 C   0  0  1  0  0  0  0  0  0  0  0  0
   23.8375   -9.5780  -16.6665 O   0  0  0  0  0  0  0  0  0  0  0  0
   21.7963   -9.5980  -15.4128 C   0  0  2  0  0  0  0  0  0  0  0  0
   21.2671  -10.2072  -16.6403 N   0  0  0  0  0  0  0  0  0  0  0  0
   21.5759   -8.1348  -15.5014 C   0  0  0  0  0  0  0  0  0  0  0  0
   21.5914   -7.6055  -16.6762 O   0  0  0  0  0  0  0  0  0  0  0  0
   20.6786   -3.2691  -15.0017 N   0  0  0  0  0  0  0  0  0  0  0  0
   19.5462   -4.0796  -14.6550 C   0  0  0  0  0  0  0  0  0  0  0  0
   18.4300   -3.5456  -14.5160 O   0  0  0  0  0  0  0  0  0  0  0  0
   19.7782   -5.5229  -14.4811 C   0  0  0  0  0  0  0  0  0  0  0  0
   21.2305   -5.8502  -14.6362 C   0  0  2  0  0  0  0  0  0  0  0  0
   21.3495   -7.2925  -14.3959 N   0  0  0  0  0  0  0  0  0  0  0  0
   22.0325   -5.0959  -13.6493 C   0  0  0  0  0  0  0  0  0  0  0  0
   22.4830   -3.8172  -13.8709 O   0  0  0  0  0  0  0  0  0  0  0  0
   22.3313   -5.6291  -12.5456 O   0  0  0  0  0  0  0  0  0  0  0  0
  2  1  1  1
  2  6  1  0
  3  2  1  0
  3  4  1  0
  4  8  1  0
  4  5  2  0
  6  7  2  0
 10  9  1  6
 10 12  1  0
 10 11  1  0
 12 14  1  0
 13  6  1  0
 12 13  1  6
 14 15  2  0
 16 17  1  0
 17 18  2  0
 19 17  1  0
 20 19  1  1
 20 22  1  0
 21 20  1  0
 21 14  1  0
 22 24  2  0
 22 23  1  0
M  END
$$$$
