DTN.pdb
     RDKit          3D

 24 23  0  0  1  0  0  0  0  0999 V2000
   18.5690  -13.1608  -15.4673 N   0  0  0  0  0  0  0  0  0  0  0  0
   18.5096  -12.0150  -16.3813 C   0  0  1  0  0  0  0  0  0  0  0  0
   17.0635  -11.9053  -16.7802 C   0  0  0  0  0  0  0  0  0  0  0  0
   16.5110  -13.0304  -17.5134 C   0  0  0  0  0  0  0  0  0  0  0  0
   15.6759  -13.8221  -17.0415 O   0  0  0  0  0  0  0  0  0  0  0  0
   18.9882  -10.7958  -15.6749 C   0  0  0  0  0  0  0  0  0  0  0  0
   18.5104  -10.4497  -14.5893 O   0  0  0  0  0  0  0  0  0  0  0  0
   16.9390  -13.2453  -18.8344 O   0  0  0  0  0  0  0  0  0  0  0  0
   22.5322  -10.0718  -14.6141 C   0  0  0  0  0  0  0  0  0  0  0  0
   22.0824   -8.9572  -15.5280 C   0  0  1  0  0  0  0  0  0  0  0  0
   22.4635   -9.2939  -16.8557 O   0  0  0  0  0  0  0  0  0  0  0  0
   20.5509   -8.8481  -15.4839 C   0  0  2  0  0  0  0  0  0  0  0  0
   20.0096   -9.9933  -16.2279 N   0  0  0  0  0  0  0  0  0  0  0  0
   20.1366   -7.6122  -16.1897 C   0  0  0  0  0  0  0  0  0  0  0  0
   19.9590   -7.6911  -17.4636 O   0  0  0  0  0  0  0  0  0  0  0  0
   17.1671   -3.6778  -18.0879 N   0  0  0  0  0  0  0  0  0  0  0  0
   17.8513   -3.5902  -16.8295 C   0  0  0  0  0  0  0  0  0  0  0  0
   18.1185   -2.4709  -16.3539 O   0  0  0  0  0  0  0  0  0  0  0  0
   18.2027   -4.8552  -16.1637 C   0  0  0  0  0  0  0  0  0  0  0  0
   19.6362   -5.2065  -16.4130 C   0  0  2  0  0  0  0  0  0  0  0  0
   19.9229   -6.3685  -15.5647 N   0  0  0  0  0  0  0  0  0  0  0  0
   20.5114   -4.0727  -16.0462 C   0  0  0  0  0  0  0  0  0  0  0  0
   20.7341   -2.9999  -16.8748 O   0  0  0  0  0  0  0  0  0  0  0  0
   21.0931   -4.0667  -14.9266 O   0  0  0  0  0  0  0  0  0  0  0  0
  2  1  1  1
  2  6  1  0
  3  2  1  0
  3  4  1  0
  4  8  1  0
  4  5  2  0
  6  7  2  0
 10  9  1  1
 10 12  1  0
 10 11  1  0
 12 14  1  0
 13  6  1  0
 12 13  1  6
 14 15  2  0
 16 17  1  0
 17 18  2  0
 19 17  1  0
 20 19  1  1
 20 22  1  0
 21 20  1  0
 21 14  1  0
 22 24  2  0
 22 23  1  0
M  END
$$$$
