DTN.pdb
     RDKit          3D

 24 23  0  0  1  0  0  0  0  0999 V2000
   18.1590  -12.4929  -15.9918 N   0  0  0  0  0  0  0  0  0  0  0  0
   18.1435  -11.0550  -16.2811 C   0  0  1  0  0  0  0  0  0  0  0  0
   16.7099  -10.6347  -16.1066 C   0  0  0  0  0  0  0  0  0  0  0  0
   15.7458  -11.2481  -17.0026 C   0  0  0  0  0  0  0  0  0  0  0  0
   15.9845  -11.5282  -18.1906 O   0  0  0  0  0  0  0  0  0  0  0  0
   19.0510  -10.3520  -15.3341 C   0  0  0  0  0  0  0  0  0  0  0  0
   19.0170  -10.5779  -14.1199 O   0  0  0  0  0  0  0  0  0  0  0  0
   14.4652  -11.5466  -16.5073 O   0  0  0  0  0  0  0  0  0  0  0  0
   22.5971  -10.6284  -15.0242 C   0  0  0  0  0  0  0  0  0  0  0  0
   22.3517   -9.1740  -15.3471 C   0  0  1  0  0  0  0  0  0  0  0  0
   22.4055   -9.0201  -16.7594 O   0  0  0  0  0  0  0  0  0  0  0  0
   20.9442   -8.7776  -14.8768 C   0  0  2  0  0  0  0  0  0  0  0  0
   19.9841   -9.3997  -15.7983 N   0  0  0  0  0  0  0  0  0  0  0  0
   20.7954   -7.3072  -14.9918 C   0  0  0  0  0  0  0  0  0  0  0  0
   19.9872   -6.8642  -15.8923 O   0  0  0  0  0  0  0  0  0  0  0  0
   20.6145   -2.3687  -14.6612 N   0  0  0  0  0  0  0  0  0  0  0  0
   19.5343   -3.2285  -14.2695 C   0  0  0  0  0  0  0  0  0  0  0  0
   18.4093   -2.7400  -14.0546 O   0  0  0  0  0  0  0  0  0  0  0  0
   19.8282   -4.6654  -14.1430 C   0  0  0  0  0  0  0  0  0  0  0  0
   21.2643   -4.9440  -14.4599 C   0  0  2  0  0  0  0  0  0  0  0  0
   21.4711   -6.3704  -14.1863 N   0  0  0  0  0  0  0  0  0  0  0  0
   22.1454   -4.1223  -13.6030 C   0  0  0  0  0  0  0  0  0  0  0  0
   22.7994   -4.6227  -12.5035 O   0  0  0  0  0  0  0  0  0  0  0  0
   22.3205   -2.9021  -13.8719 O   0  0  0  0  0  0  0  0  0  0  0  0
  2  1  1  1
  2  6  1  0
  3  2  1  0
  3  4  1  0
  4  8  1  0
  4  5  2  0
  6  7  2  0
 10  9  1  6
 10 12  1  0
 10 11  1  0
 12 14  1  0
 13  6  1  0
 12 13  1  6
 14 15  2  0
 16 17  1  0
 17 18  2  0
 19 17  1  0
 20 19  1  1
 20 22  1  0
 21 20  1  0
 21 14  1  0
 22 24  2  0
 22 23  1  0
M  END
$$$$
