DTN.pdb
     RDKit          3D

 24 23  0  0  1  0  0  0  0  0999 V2000
   17.9891  -12.7055  -16.2865 N   0  0  0  0  0  0  0  0  0  0  0  0
   18.0214  -11.2614  -16.5416 C   0  0  1  0  0  0  0  0  0  0  0  0
   16.5946  -10.8060  -16.4022 C   0  0  0  0  0  0  0  0  0  0  0  0
   15.6715  -11.2583  -17.4278 C   0  0  0  0  0  0  0  0  0  0  0  0
   14.7264  -12.0381  -17.2142 O   0  0  0  0  0  0  0  0  0  0  0  0
   18.9165  -10.6057  -15.5501 C   0  0  0  0  0  0  0  0  0  0  0  0
   18.7456  -10.7461  -14.3345 O   0  0  0  0  0  0  0  0  0  0  0  0
   15.8484  -10.7931  -18.7418 O   0  0  0  0  0  0  0  0  0  0  0  0
   22.6877   -9.4661  -16.7380 C   0  0  0  0  0  0  0  0  0  0  0  0
   22.3235   -9.7933  -15.3098 C   0  0  1  0  0  0  0  0  0  0  0  0
   23.2644   -9.1544  -14.4567 O   0  0  0  0  0  0  0  0  0  0  0  0
   20.9313   -9.2254  -14.9955 C   0  0  2  0  0  0  0  0  0  0  0  0
   19.9950   -9.7983  -15.9719 N   0  0  0  0  0  0  0  0  0  0  0  0
   20.9544   -7.7570  -15.1972 C   0  0  0  0  0  0  0  0  0  0  0  0
   20.8880   -7.3266  -16.4100 O   0  0  0  0  0  0  0  0  0  0  0  0
   20.5726   -2.8238  -15.1024 N   0  0  0  0  0  0  0  0  0  0  0  0
   19.6029   -3.4074  -14.2201 C   0  0  0  0  0  0  0  0  0  0  0  0
   18.6775   -2.7034  -13.7747 O   0  0  0  0  0  0  0  0  0  0  0  0
   19.7648   -4.8325  -13.8883 C   0  0  0  0  0  0  0  0  0  0  0  0
   21.0059   -5.3865  -14.5153 C   0  0  2  0  0  0  0  0  0  0  0  0
   21.0403   -6.8092  -14.1594 N   0  0  0  0  0  0  0  0  0  0  0  0
   22.1995   -4.6939  -13.9845 C   0  0  0  0  0  0  0  0  0  0  0  0
   22.8044   -3.6429  -14.6300 O   0  0  0  0  0  0  0  0  0  0  0  0
   22.7057   -5.0668  -12.8907 O   0  0  0  0  0  0  0  0  0  0  0  0
  2  1  1  1
  2  6  1  0
  3  2  1  0
  3  4  1  0
  4  8  1  0
  4  5  2  0
  6  7  2  0
 10  9  1  6
 10 12  1  0
 10 11  1  0
 12 14  1  0
 13  6  1  0
 12 13  1  6
 14 15  2  0
 16 17  1  0
 17 18  2  0
 19 17  1  0
 20 19  1  1
 20 22  1  0
 21 20  1  0
 21 14  1  0
 22 24  2  0
 22 23  1  0
M  END
$$$$
