DTN.pdb
     RDKit          3D

 24 23  0  0  1  0  0  0  0  0999 V2000
   17.3907  -13.8864  -16.1260 N   0  0  0  0  0  0  0  0  0  0  0  0
   17.3594  -12.4250  -16.2474 C   0  0  1  0  0  0  0  0  0  0  0  0
   16.4844  -11.9556  -15.1176 C   0  0  0  0  0  0  0  0  0  0  0  0
   15.1110  -12.4271  -15.1286 C   0  0  0  0  0  0  0  0  0  0  0  0
   14.5345  -12.9052  -14.1356 O   0  0  0  0  0  0  0  0  0  0  0  0
   18.7445  -11.8917  -16.1398 C   0  0  0  0  0  0  0  0  0  0  0  0
   19.5941  -12.4408  -15.4304 O   0  0  0  0  0  0  0  0  0  0  0  0
   14.3824  -12.3423  -16.3271 O   0  0  0  0  0  0  0  0  0  0  0  0
   21.3071  -11.3839  -18.7751 C   0  0  0  0  0  0  0  0  0  0  0  0
   21.0356  -10.0285  -18.1678 C   0  0  1  0  0  0  0  0  0  0  0  0
   20.0281   -9.3914  -18.9425 O   0  0  0  0  0  0  0  0  0  0  0  0
   20.4984  -10.2076  -16.7400 C   0  0  2  0  0  0  0  0  0  0  0  0
   19.1316  -10.7348  -16.8503 N   0  0  0  0  0  0  0  0  0  0  0  0
   20.4206   -8.8798  -16.0856 C   0  0  0  0  0  0  0  0  0  0  0  0
   19.2680   -8.3046  -16.0521 O   0  0  0  0  0  0  0  0  0  0  0  0
   21.7383   -5.0596  -12.2887 N   0  0  0  0  0  0  0  0  0  0  0  0
   22.4012   -5.2016  -13.5535 C   0  0  0  0  0  0  0  0  0  0  0  0
   22.8656   -4.1938  -14.1185 O   0  0  0  0  0  0  0  0  0  0  0  0
   22.4936   -6.5581  -14.1178 C   0  0  0  0  0  0  0  0  0  0  0  0
   21.2955   -6.8658  -14.9607 C   0  0  2  0  0  0  0  0  0  0  0  0
   21.5136   -8.2125  -15.5000 N   0  0  0  0  0  0  0  0  0  0  0  0
   21.1781   -5.8837  -16.0597 C   0  0  0  0  0  0  0  0  0  0  0  0
   20.3870   -4.7634  -15.9815 O   0  0  0  0  0  0  0  0  0  0  0  0
   21.8231   -6.0603  -17.1295 O   0  0  0  0  0  0  0  0  0  0  0  0
  2  1  1  1
  2  6  1  0
  3  2  1  0
  3  4  1  0
  4  8  1  0
  4  5  2  0
  6  7  2  0
 10  9  1  6
 10 12  1  0
 10 11  1  0
 12 14  1  0
 13  6  1  0
 12 13  1  6
 14 15  2  0
 16 17  1  0
 17 18  2  0
 19 17  1  0
 20 19  1  1
 20 22  1  0
 21 20  1  0
 21 14  1  0
 22 24  2  0
 22 23  1  0
M  END
$$$$
