DTN.pdb
     RDKit          3D

 24 23  0  0  1  0  0  0  0  0999 V2000
   17.5041  -14.2071  -16.2697 N   0  0  0  0  0  0  0  0  0  0  0  0
   17.4838  -12.7408  -16.2374 C   0  0  1  0  0  0  0  0  0  0  0  0
   16.4960  -12.3852  -15.1601 C   0  0  0  0  0  0  0  0  0  0  0  0
   15.1223  -12.7990  -15.3846 C   0  0  0  0  0  0  0  0  0  0  0  0
   14.4518  -12.4659  -16.3778 O   0  0  0  0  0  0  0  0  0  0  0  0
   18.8497  -12.2356  -15.9315 C   0  0  0  0  0  0  0  0  0  0  0  0
   19.5779  -12.8017  -15.1094 O   0  0  0  0  0  0  0  0  0  0  0  0
   14.5058  -13.6245  -14.4291 O   0  0  0  0  0  0  0  0  0  0  0  0
   21.7593  -12.1073  -18.0475 C   0  0  0  0  0  0  0  0  0  0  0  0
   21.4751  -10.6723  -17.6734 C   0  0  1  0  0  0  0  0  0  0  0  0
   20.6217  -10.1180  -18.6662 O   0  0  0  0  0  0  0  0  0  0  0  0
   20.7327  -10.6330  -16.3294 C   0  0  2  0  0  0  0  0  0  0  0  0
   19.3575  -11.0870  -16.5763 N   0  0  0  0  0  0  0  0  0  0  0  0
   20.6687   -9.2296  -15.8565 C   0  0  0  0  0  0  0  0  0  0  0  0
   19.6497   -8.5299  -16.2203 O   0  0  0  0  0  0  0  0  0  0  0  0
   21.3894   -4.6902  -13.8093 N   0  0  0  0  0  0  0  0  0  0  0  0
   22.3856   -5.5122  -13.1838 C   0  0  0  0  0  0  0  0  0  0  0  0
   23.1388   -5.0160  -12.3254 O   0  0  0  0  0  0  0  0  0  0  0  0
   22.4579   -6.9212  -13.6040 C   0  0  0  0  0  0  0  0  0  0  0  0
   21.4389   -7.2136  -14.6607 C   0  0  2  0  0  0  0  0  0  0  0  0
   21.6385   -8.6166  -15.0400 N   0  0  0  0  0  0  0  0  0  0  0  0
   21.6455   -6.3302  -15.8282 C   0  0  0  0  0  0  0  0  0  0  0  0
   22.5789   -6.5840  -16.8036 O   0  0  0  0  0  0  0  0  0  0  0  0
   20.9459   -5.2882  -15.9571 O   0  0  0  0  0  0  0  0  0  0  0  0
  2  1  1  1
  2  6  1  0
  3  2  1  0
  3  4  1  0
  4  8  1  0
  4  5  2  0
  6  7  2  0
 10  9  1  6
 10 12  1  0
 10 11  1  0
 12 14  1  0
 13  6  1  0
 12 13  1  6
 14 15  2  0
 16 17  1  0
 17 18  2  0
 19 17  1  0
 20 19  1  1
 20 22  1  0
 21 20  1  0
 21 14  1  0
 22 24  2  0
 22 23  1  0
M  END
$$$$
