DTN.pdb
     RDKit          3D

 24 23  0  0  1  0  0  0  0  0999 V2000
   15.8614  -12.0374  -15.4611 N   0  0  0  0  0  0  0  0  0  0  0  0
   17.2265  -11.7070  -15.0381 C   0  0  1  0  0  0  0  0  0  0  0  0
   18.1221  -12.3714  -16.0475 C   0  0  0  0  0  0  0  0  0  0  0  0
   18.1387  -13.8233  -16.0362 C   0  0  0  0  0  0  0  0  0  0  0  0
   17.4610  -14.5300  -16.8031 O   0  0  0  0  0  0  0  0  0  0  0  0
   17.3954  -10.2286  -15.0288 C   0  0  0  0  0  0  0  0  0  0  0  0
   17.2308   -9.5539  -16.0508 O   0  0  0  0  0  0  0  0  0  0  0  0
   18.9660  -14.4774  -15.1077 O   0  0  0  0  0  0  0  0  0  0  0  0
   15.8389   -7.9195  -12.4383 C   0  0  0  0  0  0  0  0  0  0  0  0
   17.3095   -7.5833  -12.5009 C   0  0  1  0  0  0  0  0  0  0  0  0
   17.9651   -8.2710  -11.4433 O   0  0  0  0  0  0  0  0  0  0  0  0
   17.8914   -8.0861  -13.8306 C   0  0  2  0  0  0  0  0  0  0  0  0
   17.7509   -9.5483  -13.8440 N   0  0  0  0  0  0  0  0  0  0  0  0
   19.3390   -7.7694  -13.8720 C   0  0  0  0  0  0  0  0  0  0  0  0
   20.1571   -8.7593  -13.9779 O   0  0  0  0  0  0  0  0  0  0  0  0
   23.6248   -7.5288  -16.4195 N   0  0  0  0  0  0  0  0  0  0  0  0
   22.9138   -6.3940  -15.9038 C   0  0  0  0  0  0  0  0  0  0  0  0
   23.4976   -5.2987  -15.8040 O   0  0  0  0  0  0  0  0  0  0  0  0
   21.5084   -6.5982  -15.5162 C   0  0  0  0  0  0  0  0  0  0  0  0
   21.3083   -6.2956  -14.0640 C   0  0  2  0  0  0  0  0  0  0  0  0
   19.8745   -6.4686  -13.8070 N   0  0  0  0  0  0  0  0  0  0  0  0
   21.7203   -4.9064  -13.7700 C   0  0  0  0  0  0  0  0  0  0  0  0
   20.9383   -3.8156  -14.0626 O   0  0  0  0  0  0  0  0  0  0  0  0
   22.8373   -4.6857  -13.2266 O   0  0  0  0  0  0  0  0  0  0  0  0
  2  1  1  6
  2  6  1  0
  3  2  1  0
  3  4  1  0
  4  8  1  0
  4  5  2  0
  6  7  2  0
 10  9  1  6
 10 12  1  0
 10 11  1  0
 12 14  1  0
 13  6  1  0
 12 13  1  1
 14 15  2  0
 16 17  1  0
 17 18  2  0
 19 17  1  0
 20 19  1  6
 20 22  1  0
 21 20  1  0
 21 14  1  0
 22 24  2  0
 22 23  1  0
M  END
$$$$
