DTN.pdb
     RDKit          3D

 24 23  0  0  1  0  0  0  0  0999 V2000
   17.5024  -11.9993  -15.1134 N   0  0  0  0  0  0  0  0  0  0  0  0
   16.4834  -11.0822  -14.5918 C   0  0  1  0  0  0  0  0  0  0  0  0
   15.3570  -11.9668  -14.1323 C   0  0  0  0  0  0  0  0  0  0  0  0
   14.6023  -12.6409  -15.1737 C   0  0  0  0  0  0  0  0  0  0  0  0
   14.3340  -12.1306  -16.2758 O   0  0  0  0  0  0  0  0  0  0  0  0
   17.0612  -10.2876  -13.4741 C   0  0  0  0  0  0  0  0  0  0  0  0
   17.6142  -10.8330  -12.5132 O   0  0  0  0  0  0  0  0  0  0  0  0
   14.1439  -13.9469  -14.9313 O   0  0  0  0  0  0  0  0  0  0  0  0
   19.8773   -8.1098  -13.4911 C   0  0  0  0  0  0  0  0  0  0  0  0
   18.7221   -7.2299  -13.0776 C   0  0  1  0  0  0  0  0  0  0  0  0
   18.1699   -6.6459  -14.2504 O   0  0  0  0  0  0  0  0  0  0  0  0
   17.6359   -8.0915  -12.4163 C   0  0  2  0  0  0  0  0  0  0  0  0
   16.9945   -8.8775  -13.4788 N   0  0  0  0  0  0  0  0  0  0  0  0
   16.6077   -7.2005  -11.8279 C   0  0  0  0  0  0  0  0  0  0  0  0
   15.6811   -6.7693  -12.6127 O   0  0  0  0  0  0  0  0  0  0  0  0
   15.4114   -8.2960   -7.3521 N   0  0  0  0  0  0  0  0  0  0  0  0
   14.7546   -7.4740   -8.3279 C   0  0  0  0  0  0  0  0  0  0  0  0
   13.7467   -7.9081   -8.9163 O   0  0  0  0  0  0  0  0  0  0  0  0
   15.3242   -6.1400   -8.5791 C   0  0  0  0  0  0  0  0  0  0  0  0
   15.4970   -5.9037  -10.0470 C   0  0  2  0  0  0  0  0  0  0  0  0
   16.5752   -6.8000  -10.4783 N   0  0  0  0  0  0  0  0  0  0  0  0
   15.8675   -4.4945  -10.2975 C   0  0  0  0  0  0  0  0  0  0  0  0
   17.0946   -4.1185  -10.7876 O   0  0  0  0  0  0  0  0  0  0  0  0
   15.0367   -3.5758  -10.0574 O   0  0  0  0  0  0  0  0  0  0  0  0
  2  1  1  1
  2  6  1  0
  3  2  1  0
  3  4  1  0
  4  8  1  0
  4  5  2  0
  6  7  2  0
 10  9  1  6
 10 12  1  0
 10 11  1  0
 12 14  1  0
 13  6  1  0
 12 13  1  6
 14 15  2  0
 16 17  1  0
 17 18  2  0
 19 17  1  0
 20 19  1  1
 20 22  1  0
 21 20  1  0
 21 14  1  0
 22 24  2  0
 22 23  1  0
M  END
$$$$
