DTN.pdb
     RDKit          3D

 24 23  0  0  1  0  0  0  0  0999 V2000
   19.7314  -13.7371  -16.6404 N   0  0  0  0  0  0  0  0  0  0  0  0
   20.0132  -12.5092  -17.3917 C   0  0  1  0  0  0  0  0  0  0  0  0
   18.9845  -12.4749  -18.4885 C   0  0  0  0  0  0  0  0  0  0  0  0
   19.1041  -13.4949  -19.5152 C   0  0  0  0  0  0  0  0  0  0  0  0
   18.6236  -14.6378  -19.4157 O   0  0  0  0  0  0  0  0  0  0  0  0
   19.8987  -11.3374  -16.4817 C   0  0  0  0  0  0  0  0  0  0  0  0
   18.9281  -11.1964  -15.7302 O   0  0  0  0  0  0  0  0  0  0  0  0
   19.8020  -13.1816  -20.6938 O   0  0  0  0  0  0  0  0  0  0  0  0
   23.2614   -9.2731  -15.4415 C   0  0  0  0  0  0  0  0  0  0  0  0
   21.9954   -9.1927  -14.6227 C   0  0  1  0  0  0  0  0  0  0  0  0
   22.0110   -7.9656  -13.9049 O   0  0  0  0  0  0  0  0  0  0  0  0
   20.7803   -9.1811  -15.5622 C   0  0  2  0  0  0  0  0  0  0  0  0
   20.9027  -10.3455  -16.4496 N   0  0  0  0  0  0  0  0  0  0  0  0
   20.8351   -7.9620  -16.4038 C   0  0  0  0  0  0  0  0  0  0  0  0
   21.6612   -7.9639  -17.3927 O   0  0  0  0  0  0  0  0  0  0  0  0
   17.9305   -4.0614  -19.5834 N   0  0  0  0  0  0  0  0  0  0  0  0
   19.1149   -4.4401  -18.8670 C   0  0  0  0  0  0  0  0  0  0  0  0
   20.1949   -3.8777  -19.1276 O   0  0  0  0  0  0  0  0  0  0  0  0
   18.9781   -5.4923  -17.8466 C   0  0  0  0  0  0  0  0  0  0  0  0
   20.2549   -5.6625  -17.0843 C   0  0  2  0  0  0  0  0  0  0  0  0
   20.0481   -6.8126  -16.1975 N   0  0  0  0  0  0  0  0  0  0  0  0
   20.5436   -4.4474  -16.2929 C   0  0  0  0  0  0  0  0  0  0  0  0
   21.1004   -3.3150  -16.8357 O   0  0  0  0  0  0  0  0  0  0  0  0
   20.2764   -4.4244  -15.0601 O   0  0  0  0  0  0  0  0  0  0  0  0
  2  1  1  1
  2  6  1  0
  3  2  1  0
  3  4  1  0
  4  8  1  0
  4  5  2  0
  6  7  2  0
 10  9  1  6
 10 12  1  0
 10 11  1  0
 12 14  1  0
 13  6  1  0
 12 13  1  6
 14 15  2  0
 16 17  1  0
 17 18  2  0
 19 17  1  0
 20 19  1  1
 20 22  1  0
 21 20  1  0
 21 14  1  0
 22 24  2  0
 22 23  1  0
M  END
$$$$
