DTN.pdb
     RDKit          3D

 24 23  0  0  1  0  0  0  0  0999 V2000
   13.8346   -9.7264   -9.9194 N   0  0  0  0  0  0  0  0  0  0  0  0
   15.2493   -9.7859  -10.3024 C   0  0  1  0  0  0  0  0  0  0  0  0
   15.3131  -10.7971  -11.4142 C   0  0  0  0  0  0  0  0  0  0  0  0
   15.0257  -12.1730  -11.0498 C   0  0  0  0  0  0  0  0  0  0  0  0
   13.9136  -12.5680  -10.6571 O   0  0  0  0  0  0  0  0  0  0  0  0
   15.6966   -8.4380  -10.7470 C   0  0  0  0  0  0  0  0  0  0  0  0
   15.0406   -7.7754  -11.5578 O   0  0  0  0  0  0  0  0  0  0  0  0
   16.0584  -13.1212  -11.1432 O   0  0  0  0  0  0  0  0  0  0  0  0
   15.8448   -5.4359   -8.9071 C   0  0  0  0  0  0  0  0  0  0  0  0
   17.2728   -5.6618   -9.3424 C   0  0  1  0  0  0  0  0  0  0  0  0
   17.9349   -6.3960   -8.3208 O   0  0  0  0  0  0  0  0  0  0  0  0
   17.2875   -6.5077  -10.6244 C   0  0  2  0  0  0  0  0  0  0  0  0
   16.8916   -7.8725  -10.2520 N   0  0  0  0  0  0  0  0  0  0  0  0
   18.6735   -6.5644  -11.1470 C   0  0  0  0  0  0  0  0  0  0  0  0
   19.5406   -7.2161  -10.4514 O   0  0  0  0  0  0  0  0  0  0  0  0
   22.1423   -8.1508  -12.4702 N   0  0  0  0  0  0  0  0  0  0  0  0
   21.4922   -8.0323  -13.7440 C   0  0  0  0  0  0  0  0  0  0  0  0
   21.7080   -8.8866  -14.6239 O   0  0  0  0  0  0  0  0  0  0  0  0
   20.5913   -6.8842  -13.9370 C   0  0  0  0  0  0  0  0  0  0  0  0
   20.5223   -6.0485  -12.6971 C   0  0  2  0  0  0  0  0  0  0  0  0
   19.1009   -5.9607  -12.3452 N   0  0  0  0  0  0  0  0  0  0  0  0
   21.0725   -4.7011  -12.9578 C   0  0  0  0  0  0  0  0  0  0  0  0
   22.4067   -4.3996  -12.8308 O   0  0  0  0  0  0  0  0  0  0  0  0
   20.3019   -3.7676  -13.3135 O   0  0  0  0  0  0  0  0  0  0  0  0
  2  1  1  6
  2  6  1  0
  3  2  1  0
  3  4  1  0
  4  8  1  0
  4  5  2  0
  6  7  2  0
 10  9  1  1
 10 12  1  0
 10 11  1  0
 12 14  1  0
 13  6  1  0
 12 13  1  1
 14 15  2  0
 16 17  1  0
 17 18  2  0
 19 17  1  0
 20 19  1  6
 20 22  1  0
 21 20  1  0
 21 14  1  0
 22 24  2  0
 22 23  1  0
M  END
$$$$
