DTN.pdb
     RDKit          3D

 24 23  0  0  1  0  0  0  0  0999 V2000
   22.0999  -13.2393  -18.2524 N   0  0  0  0  0  0  0  0  0  0  0  0
   22.6455  -11.9074  -18.5353 C   0  0  1  0  0  0  0  0  0  0  0  0
   21.6187  -11.2396  -19.4084 C   0  0  0  0  0  0  0  0  0  0  0  0
   21.2098  -11.9701  -20.5949 C   0  0  0  0  0  0  0  0  0  0  0  0
   21.5598  -13.1372  -20.8449 O   0  0  0  0  0  0  0  0  0  0  0  0
   22.8504  -11.1768  -17.2551 C   0  0  0  0  0  0  0  0  0  0  0  0
   22.0925  -11.3366  -16.2925 O   0  0  0  0  0  0  0  0  0  0  0  0
   20.3695  -11.3292  -21.5207 O   0  0  0  0  0  0  0  0  0  0  0  0
   26.2985  -10.4356  -15.4388 C   0  0  0  0  0  0  0  0  0  0  0  0
   25.5482   -9.1517  -15.6999 C   0  0  1  0  0  0  0  0  0  0  0  0
   26.0366   -8.5936  -16.9128 O   0  0  0  0  0  0  0  0  0  0  0  0
   24.0551   -9.4618  -15.8841 C   0  0  2  0  0  0  0  0  0  0  0  0
   23.9243  -10.2734  -17.1016 N   0  0  0  0  0  0  0  0  0  0  0  0
   23.3240   -8.1915  -16.1054 C   0  0  0  0  0  0  0  0  0  0  0  0
   23.0591   -7.8674  -17.3241 O   0  0  0  0  0  0  0  0  0  0  0  0
   19.2372   -5.1673  -17.1033 N   0  0  0  0  0  0  0  0  0  0  0  0
   19.9977   -5.1898  -15.8865 C   0  0  0  0  0  0  0  0  0  0  0  0
   19.9677   -4.2037  -15.1268 O   0  0  0  0  0  0  0  0  0  0  0  0
   20.7833   -6.4025  -15.6048 C   0  0  0  0  0  0  0  0  0  0  0  0
   22.2363   -6.0729  -15.4607 C   0  0  2  0  0  0  0  0  0  0  0  0
   22.9006   -7.3241  -15.0800 N   0  0  0  0  0  0  0  0  0  0  0  0
   22.4263   -5.0489  -14.4113 C   0  0  0  0  0  0  0  0  0  0  0  0
   22.5232   -3.7060  -14.6840 O   0  0  0  0  0  0  0  0  0  0  0  0
   22.5075   -5.3987  -13.2018 O   0  0  0  0  0  0  0  0  0  0  0  0
  2  1  1  1
  2  6  1  0
  3  2  1  0
  3  4  1  0
  4  8  1  0
  4  5  2  0
  6  7  2  0
 10  9  1  6
 10 12  1  0
 10 11  1  0
 12 14  1  0
 13  6  1  0
 12 13  1  6
 14 15  2  0
 16 17  1  0
 17 18  2  0
 19 17  1  0
 20 19  1  1
 20 22  1  0
 21 20  1  0
 21 14  1  0
 22 24  2  0
 22 23  1  0
M  END
$$$$
