QWW.pdb
     RDKit          3D

 38 41  0  0  1  0  0  0  0  0999 V2000
   30.4236  -20.9621  -20.1350 N   0  0  0  0  0  0  0  0  0  0  0  0
   30.0705  -22.3257  -20.3642 C   0  0  0  0  0  0  0  0  0  0  0  0
   29.8176  -22.6509  -21.5405 O   0  0  0  0  0  0  0  0  0  0  0  0
   30.0314  -23.2403  -19.2171 C   0  0  0  0  0  0  0  0  0  0  0  0
   30.5054  -22.6389  -17.9189 C   0  0  0  0  0  0  0  0  0  0  0  0
   29.7170  -23.1886  -16.7597 C   0  0  2  0  0  0  0  0  0  0  0  0
   28.8501  -24.2614  -17.2142 N   0  0  0  0  0  0  0  0  0  0  0  0
   28.9910  -22.1481  -16.0155 C   0  0  0  0  0  0  0  0  0  0  0  0
   29.6193  -21.1645  -15.5480 O   0  0  0  0  0  0  0  0  0  0  0  0
   27.5872  -22.1663  -15.7710 N   0  0  0  0  0  0  0  0  0  0  0  0
   26.8668  -21.1310  -15.0646 C   0  0  1  0  0  0  0  0  0  0  0  0
   25.5242  -20.7990  -15.7304 C   0  0  0  0  0  0  0  0  0  0  0  0
   24.7571  -19.7703  -15.0505 C   0  0  0  0  0  0  0  0  0  0  0  0
   25.1690  -18.4986  -14.6993 C   0  0  0  0  0  0  0  0  0  0  0  0
   24.1744  -17.8511  -14.0600 N   0  0  0  0  0  0  0  0  0  0  0  0
   23.1189  -18.6646  -13.9820 C   0  0  0  0  0  0  0  0  0  0  0  0
   21.8800  -18.4560  -13.4322 C   0  0  0  0  0  0  0  0  0  0  0  0
   20.9458  -19.4709  -13.4901 C   0  0  0  0  0  0  0  0  0  0  0  0
   21.2390  -20.6596  -14.0785 C   0  0  0  0  0  0  0  0  0  0  0  0
   22.4876  -20.8459  -14.6221 C   0  0  0  0  0  0  0  0  0  0  0  0
   23.4615  -19.8655  -14.5933 C   0  0  0  0  0  0  0  0  0  0  0  0
   26.5837  -21.5526  -13.6684 C   0  0  0  0  0  0  0  0  0  0  0  0
   26.0595  -22.7142  -13.4627 O   0  0  0  0  0  0  0  0  0  0  0  0
   26.8386  -20.7935  -12.5088 N   0  0  0  0  0  0  0  0  0  0  0  0
   26.5228  -21.3410  -11.1730 C   0  0  1  0  0  0  0  0  0  0  0  0
   27.5675  -20.7141  -10.2539 C   0  0  0  0  0  0  0  0  0  0  0  0
   27.0932  -20.5075   -8.8853 C   0  0  0  0  0  0  0  0  0  0  0  0
   25.8393  -20.4690   -8.3574 C   0  0  0  0  0  0  0  0  0  0  0  0
   25.9414  -20.2542   -7.0252 N   0  0  0  0  0  0  0  0  0  0  0  0
   27.2343  -20.1505   -6.6631 C   0  0  0  0  0  0  0  0  0  0  0  0
   27.8315  -19.9391   -5.4297 C   0  0  0  0  0  0  0  0  0  0  0  0
   29.1998  -19.8875   -5.3814 C   0  0  0  0  0  0  0  0  0  0  0  0
   29.9470  -20.0412   -6.5239 C   0  0  0  0  0  0  0  0  0  0  0  0
   29.3538  -20.2511   -7.7498 C   0  0  0  0  0  0  0  0  0  0  0  0
   27.9679  -20.3070   -7.8193 C   0  0  0  0  0  0  0  0  0  0  0  0
   25.2068  -20.7998  -10.7839 C   0  0  0  0  0  0  0  0  0  0  0  0
   24.4570  -21.3172   -9.9048 O   0  0  0  0  0  0  0  0  0  0  0  0
   24.6831  -19.6422  -11.3776 O   0  0  0  0  0  0  0  0  0  0  0  0
  2  1  1  0
  2  4  1  0
  3  2  2  0
  5  4  1  0
  6  7  1  6
  6  5  1  0
  8  6  1  0
  9  8  2  0
 10  8  1  0
 11 10  1  0
 11 22  1  0
 11 12  1  6
 13 21  1  0
 13 12  1  0
 14 13  2  0
 15 14  1  0
 15 16  1  0
 16 21  2  0
 17 16  1  0
 17 18  2  0
 18 19  1  0
 19 20  2  0
 21 20  1  0
 22 24  1  0
 23 22  2  0
 24 25  1  0
 25 26  1  1
 25 36  1  0
 27 35  1  0
 27 26  1  0
 28 27  2  0
 29 28  1  0
 29 30  1  0
 30 35  2  0
 31 30  1  0
 31 32  2  0
 32 33  1  0
 33 34  2  0
 35 34  1  0
 36 38  1  0
 37 36  2  0
M  END
$$$$
