QWW.pdb
     RDKit          3D

 38 41  0  0  1  0  0  0  0  0999 V2000
   29.2731  -17.2477  -16.0850 N   0  0  0  0  0  0  0  0  0  0  0  0
   28.6753  -17.6021  -17.3315 C   0  0  0  0  0  0  0  0  0  0  0  0
   29.4318  -17.6654  -18.3200 O   0  0  0  0  0  0  0  0  0  0  0  0
   27.2320  -17.8664  -17.3650 C   0  0  0  0  0  0  0  0  0  0  0  0
   26.5429  -17.7555  -16.0292 C   0  0  0  0  0  0  0  0  0  0  0  0
   26.7313  -19.0165  -15.2281 C   0  0  2  0  0  0  0  0  0  0  0  0
   26.4954  -20.1773  -16.0682 N   0  0  0  0  0  0  0  0  0  0  0  0
   25.9313  -19.0363  -13.9939 C   0  0  0  0  0  0  0  0  0  0  0  0
   25.7462  -17.9693  -13.3551 O   0  0  0  0  0  0  0  0  0  0  0  0
   25.3314  -20.2061  -13.4437 N   0  0  0  0  0  0  0  0  0  0  0  0
   24.5322  -20.2257  -12.2392 C   0  0  1  0  0  0  0  0  0  0  0  0
   23.2442  -21.0431  -12.4092 C   0  0  0  0  0  0  0  0  0  0  0  0
   22.2300  -20.3993  -13.2253 C   0  0  0  0  0  0  0  0  0  0  0  0
   21.6829  -19.1408  -13.0609 C   0  0  0  0  0  0  0  0  0  0  0  0
   20.7527  -18.9141  -14.0098 N   0  0  0  0  0  0  0  0  0  0  0  0
   20.6742  -19.9915  -14.7940 C   0  0  0  0  0  0  0  0  0  0  0  0
   19.8845  -20.2331  -15.8888 C   0  0  0  0  0  0  0  0  0  0  0  0
   20.0022  -21.4442  -16.5412 C   0  0  0  0  0  0  0  0  0  0  0  0
   20.8813  -22.3872  -16.1135 C   0  0  0  0  0  0  0  0  0  0  0  0
   21.6619  -22.1229  -15.0135 C   0  0  0  0  0  0  0  0  0  0  0  0
   21.5867  -20.9284  -14.3219 C   0  0  0  0  0  0  0  0  0  0  0  0
   25.2982  -20.8231  -11.1150 C   0  0  0  0  0  0  0  0  0  0  0  0
   25.6989  -22.0462  -11.2147 O   0  0  0  0  0  0  0  0  0  0  0  0
   25.6462  -20.1717   -9.9146 N   0  0  0  0  0  0  0  0  0  0  0  0
   26.4721  -20.8622   -8.9023 C   0  0  1  0  0  0  0  0  0  0  0  0
   27.1250  -19.7297   -8.1148 C   0  0  0  0  0  0  0  0  0  0  0  0
   27.9795  -20.1947   -7.0219 C   0  0  0  0  0  0  0  0  0  0  0  0
   28.6394  -21.3686   -6.8248 C   0  0  0  0  0  0  0  0  0  0  0  0
   29.3030  -21.2950   -5.6477 N   0  0  0  0  0  0  0  0  0  0  0  0
   29.0956  -20.0989   -5.0647 C   0  0  0  0  0  0  0  0  0  0  0  0
   29.5600  -19.5616   -3.8737 C   0  0  0  0  0  0  0  0  0  0  0  0
   29.1694  -18.2887   -3.5505 C   0  0  0  0  0  0  0  0  0  0  0  0
   28.3440  -17.5761   -4.3860 C   0  0  0  0  0  0  0  0  0  0  0  0
   27.8823  -18.1098   -5.5695 C   0  0  0  0  0  0  0  0  0  0  0  0
   28.2673  -19.3986   -5.9151 C   0  0  0  0  0  0  0  0  0  0  0  0
   25.5453  -21.5600   -7.9911 C   0  0  0  0  0  0  0  0  0  0  0  0
   24.3290  -21.2448   -7.8359 O   0  0  0  0  0  0  0  0  0  0  0  0
   25.9604  -22.6512   -7.2141 O   0  0  0  0  0  0  0  0  0  0  0  0
  2  1  1  0
  2  4  1  0
  3  2  2  0
  5  4  1  0
  6  7  1  6
  6  5  1  0
  8  6  1  0
  9  8  2  0
 10  8  1  0
 11 10  1  0
 11 22  1  0
 11 12  1  6
 13 21  1  0
 13 12  1  0
 14 13  2  0
 15 14  1  0
 15 16  1  0
 16 21  2  0
 17 16  1  0
 17 18  2  0
 18 19  1  0
 19 20  2  0
 21 20  1  0
 22 24  1  0
 23 22  2  0
 24 25  1  0
 25 26  1  1
 25 36  1  0
 27 35  1  0
 27 26  1  0
 28 27  2  0
 29 28  1  0
 29 30  1  0
 30 35  2  0
 31 30  1  0
 31 32  2  0
 32 33  1  0
 33 34  2  0
 35 34  1  0
 36 38  1  0
 37 36  2  0
M  END
$$$$
