QWW.pdb
     RDKit          3D

 38 41  0  0  1  0  0  0  0  0999 V2000
   20.2248  -22.8264  -20.1968 N   0  0  0  0  0  0  0  0  0  0  0  0
   20.5238  -22.4762  -21.5476 C   0  0  0  0  0  0  0  0  0  0  0  0
   20.3896  -23.3721  -22.4035 O   0  0  0  0  0  0  0  0  0  0  0  0
   20.9608  -21.1047  -21.8342 C   0  0  0  0  0  0  0  0  0  0  0  0
   20.8707  -20.1601  -20.6632 C   0  0  0  0  0  0  0  0  0  0  0  0
   21.2207  -18.7574  -21.0843 C   0  0  2  0  0  0  0  0  0  0  0  0
   22.6631  -18.6089  -21.1634 N   0  0  0  0  0  0  0  0  0  0  0  0
   20.5892  -17.7313  -20.2404 C   0  0  0  0  0  0  0  0  0  0  0  0
   20.9285  -17.6221  -19.0347 O   0  0  0  0  0  0  0  0  0  0  0  0
   19.5890  -16.8226  -20.6929 N   0  0  0  0  0  0  0  0  0  0  0  0
   18.9651  -15.8151  -19.8651 C   0  0  1  0  0  0  0  0  0  0  0  0
   18.8445  -14.4644  -20.5845 C   0  0  0  0  0  0  0  0  0  0  0  0
   20.1157  -13.8676  -20.9542 C   0  0  0  0  0  0  0  0  0  0  0  0
   21.2471  -13.7307  -20.1724 C   0  0  0  0  0  0  0  0  0  0  0  0
   22.2158  -13.1022  -20.8678 N   0  0  0  0  0  0  0  0  0  0  0  0
   21.7502  -12.8223  -22.0871 C   0  0  0  0  0  0  0  0  0  0  0  0
   22.3610  -12.2009  -23.1461 C   0  0  0  0  0  0  0  0  0  0  0  0
   21.6544  -12.0381  -24.3211 C   0  0  0  0  0  0  0  0  0  0  0  0
   20.3756  -12.4816  -24.4362 C   0  0  0  0  0  0  0  0  0  0  0  0
   19.7840  -13.1009  -23.3611 C   0  0  0  0  0  0  0  0  0  0  0  0
   20.4433  -13.2910  -22.1612 C   0  0  0  0  0  0  0  0  0  0  0  0
   17.5962  -16.2381  -19.4715 C   0  0  0  0  0  0  0  0  0  0  0  0
   16.7497  -16.5468  -20.3959 O   0  0  0  0  0  0  0  0  0  0  0  0
   17.1119  -16.3434  -18.1523 N   0  0  0  0  0  0  0  0  0  0  0  0
   15.7199  -16.7702  -17.8995 C   0  0  1  0  0  0  0  0  0  0  0  0
   15.8479  -18.2257  -17.4587 C   0  0  0  0  0  0  0  0  0  0  0  0
   15.8271  -19.1770  -18.5702 C   0  0  0  0  0  0  0  0  0  0  0  0
   16.8185  -19.6593  -19.3682 C   0  0  0  0  0  0  0  0  0  0  0  0
   16.2740  -20.5296  -20.2498 N   0  0  0  0  0  0  0  0  0  0  0  0
   14.9461  -20.6319  -20.0508 C   0  0  0  0  0  0  0  0  0  0  0  0
   13.9744  -21.3879  -20.6888 C   0  0  0  0  0  0  0  0  0  0  0  0
   12.6832  -21.2779  -20.2439 C   0  0  0  0  0  0  0  0  0  0  0  0
   12.3716  -20.4426  -19.1988 C   0  0  0  0  0  0  0  0  0  0  0  0
   13.3369  -19.6911  -18.5647 C   0  0  0  0  0  0  0  0  0  0  0  0
   14.6517  -19.7891  -19.0008 C   0  0  0  0  0  0  0  0  0  0  0  0
   15.2340  -15.9964  -16.7412 C   0  0  0  0  0  0  0  0  0  0  0  0
   15.8991  -15.0863  -16.1649 O   0  0  0  0  0  0  0  0  0  0  0  0
   13.9665  -16.2223  -16.1854 O   0  0  0  0  0  0  0  0  0  0  0  0
  2  1  1  0
  2  4  1  0
  3  2  2  0
  5  4  1  0
  6  7  1  1
  6  5  1  0
  8  6  1  0
  9  8  2  0
 10  8  1  0
 11 10  1  0
 11 22  1  0
 11 12  1  6
 13 21  1  0
 13 12  1  0
 14 13  2  0
 15 14  1  0
 15 16  1  0
 16 21  2  0
 17 16  1  0
 17 18  2  0
 18 19  1  0
 19 20  2  0
 21 20  1  0
 22 24  1  0
 23 22  2  0
 24 25  1  0
 25 26  1  1
 25 36  1  0
 27 35  1  0
 27 26  1  0
 28 27  2  0
 29 28  1  0
 29 30  1  0
 30 35  2  0
 31 30  1  0
 31 32  2  0
 32 33  1  0
 33 34  2  0
 35 34  1  0
 36 38  1  0
 37 36  2  0
M  END
$$$$
