QWW.pdb
     RDKit          3D

 38 41  0  0  1  0  0  0  0  0999 V2000
   21.8063  -14.4170  -17.7022 N   0  0  0  0  0  0  0  0  0  0  0  0
   22.1724  -13.9698  -19.0070 C   0  0  0  0  0  0  0  0  0  0  0  0
   21.9984  -12.7611  -19.2565 O   0  0  0  0  0  0  0  0  0  0  0  0
   22.7229  -14.9479  -19.9527 C   0  0  0  0  0  0  0  0  0  0  0  0
   22.8251  -16.3519  -19.4145 C   0  0  0  0  0  0  0  0  0  0  0  0
   23.9735  -16.4678  -18.4474 C   0  0  2  0  0  0  0  0  0  0  0  0
   25.2320  -16.2811  -19.1476 N   0  0  0  0  0  0  0  0  0  0  0  0
   23.9388  -17.7116  -17.6629 C   0  0  0  0  0  0  0  0  0  0  0  0
   24.2545  -18.7999  -18.2076 O   0  0  0  0  0  0  0  0  0  0  0  0
   23.5612  -17.7859  -16.2907 N   0  0  0  0  0  0  0  0  0  0  0  0
   23.6617  -18.9776  -15.4786 C   0  0  1  0  0  0  0  0  0  0  0  0
   24.6810  -18.8221  -14.3415 C   0  0  0  0  0  0  0  0  0  0  0  0
   26.0577  -18.6929  -14.7852 C   0  0  0  0  0  0  0  0  0  0  0  0
   26.7914  -17.5326  -14.9448 C   0  0  0  0  0  0  0  0  0  0  0  0
   28.0269  -17.8259  -15.3972 N   0  0  0  0  0  0  0  0  0  0  0  0
   28.1244  -19.1496  -15.5390 C   0  0  0  0  0  0  0  0  0  0  0  0
   29.1784  -19.9189  -15.9606 C   0  0  0  0  0  0  0  0  0  0  0  0
   29.0246  -21.2900  -16.0109 C   0  0  0  0  0  0  0  0  0  0  0  0
   27.8533  -21.8768  -15.6520 C   0  0  0  0  0  0  0  0  0  0  0  0
   26.8104  -21.0853  -15.2333 C   0  0  0  0  0  0  0  0  0  0  0  0
   26.9079  -19.7083  -15.1629 C   0  0  0  0  0  0  0  0  0  0  0  0
   22.3486  -19.3016  -14.8635 C   0  0  0  0  0  0  0  0  0  0  0  0
   21.7744  -18.4171  -14.1188 O   0  0  0  0  0  0  0  0  0  0  0  0
   21.6413  -20.5110  -15.0158 N   0  0  0  0  0  0  0  0  0  0  0  0
   20.3668  -20.7263  -14.2994 C   0  0  1  0  0  0  0  0  0  0  0  0
   19.3454  -20.9524  -15.4106 C   0  0  0  0  0  0  0  0  0  0  0  0
   17.9961  -21.2288  -14.9167 C   0  0  0  0  0  0  0  0  0  0  0  0
   17.2453  -20.6323  -13.9508 C   0  0  0  0  0  0  0  0  0  0  0  0
   16.0514  -21.2657  -13.8836 N   0  0  0  0  0  0  0  0  0  0  0  0
   15.9982  -22.2661  -14.7836 C   0  0  0  0  0  0  0  0  0  0  0  0
   14.9993  -23.1777  -15.0899 C   0  0  0  0  0  0  0  0  0  0  0  0
   15.2475  -24.0903  -16.0813 C   0  0  0  0  0  0  0  0  0  0  0  0
   16.4506  -24.0939  -16.7443 C   0  0  0  0  0  0  0  0  0  0  0  0
   17.4435  -23.1883  -16.4401 C   0  0  0  0  0  0  0  0  0  0  0  0
   17.2109  -22.2549  -15.4384 C   0  0  0  0  0  0  0  0  0  0  0  0
   20.4989  -21.9920  -13.5532 C   0  0  0  0  0  0  0  0  0  0  0  0
   21.2472  -22.9504  -13.9058 O   0  0  0  0  0  0  0  0  0  0  0  0
   19.7852  -22.2253  -12.3688 O   0  0  0  0  0  0  0  0  0  0  0  0
  2  1  1  0
  2  4  1  0
  3  2  2  0
  5  4  1  0
  6  7  1  6
  6  5  1  0
  8  6  1  0
  9  8  2  0
 10  8  1  0
 11 10  1  0
 11 22  1  0
 11 12  1  1
 13 21  1  0
 13 12  1  0
 14 13  2  0
 15 14  1  0
 15 16  1  0
 16 21  2  0
 17 16  1  0
 17 18  2  0
 18 19  1  0
 19 20  2  0
 21 20  1  0
 22 24  1  0
 23 22  2  0
 24 25  1  0
 25 26  1  6
 25 36  1  0
 27 35  1  0
 27 26  1  0
 28 27  2  0
 29 28  1  0
 29 30  1  0
 30 35  2  0
 31 30  1  0
 31 32  2  0
 32 33  1  0
 33 34  2  0
 35 34  1  0
 36 38  1  0
 37 36  2  0
M  END
$$$$
