QWW.pdb
     RDKit          3D

 38 41  0  0  1  0  0  0  0  0999 V2000
   27.2359  -16.0775  -17.9445 N   0  0  0  0  0  0  0  0  0  0  0  0
   28.2158  -17.0730  -18.2366 C   0  0  0  0  0  0  0  0  0  0  0  0
   28.7881  -16.9917  -19.3408 O   0  0  0  0  0  0  0  0  0  0  0  0
   28.4815  -18.1090  -17.2315 C   0  0  0  0  0  0  0  0  0  0  0  0
   27.6119  -18.0289  -16.0032 C   0  0  0  0  0  0  0  0  0  0  0  0
   28.0571  -19.0308  -14.9710 C   0  0  2  0  0  0  0  0  0  0  0  0
   28.3129  -20.3131  -15.6029 N   0  0  0  0  0  0  0  0  0  0  0  0
   27.1297  -19.1327  -13.8338 C   0  0  0  0  0  0  0  0  0  0  0  0
   26.6850  -18.0859  -13.2978 O   0  0  0  0  0  0  0  0  0  0  0  0
   26.6816  -20.3624  -13.2698 N   0  0  0  0  0  0  0  0  0  0  0  0
   25.6275  -20.4751  -12.2871 C   0  0  1  0  0  0  0  0  0  0  0  0
   24.4916  -21.3951  -12.7556 C   0  0  0  0  0  0  0  0  0  0  0  0
   23.5539  -20.7697  -13.6714 C   0  0  0  0  0  0  0  0  0  0  0  0
   23.5795  -20.7863  -15.0531 C   0  0  0  0  0  0  0  0  0  0  0  0
   22.5480  -20.0698  -15.5429 N   0  0  0  0  0  0  0  0  0  0  0  0
   21.8448  -19.5824  -14.5183 C   0  0  0  0  0  0  0  0  0  0  0  0
   20.7147  -18.8055  -14.5110 C   0  0  0  0  0  0  0  0  0  0  0  0
   20.1677  -18.4363  -13.2983 C   0  0  0  0  0  0  0  0  0  0  0  0
   20.7317  -18.8298  -12.1270 C   0  0  0  0  0  0  0  0  0  0  0  0
   21.8646  -19.6076  -12.1591 C   0  0  0  0  0  0  0  0  0  0  0  0
   22.4551  -20.0071  -13.3433 C   0  0  0  0  0  0  0  0  0  0  0  0
   26.1580  -21.0289  -11.0145 C   0  0  0  0  0  0  0  0  0  0  0  0
   26.8910  -22.0907  -11.0550 O   0  0  0  0  0  0  0  0  0  0  0  0
   25.9397  -20.4969   -9.7279 N   0  0  0  0  0  0  0  0  0  0  0  0
   26.4841  -21.1789   -8.5353 C   0  0  1  0  0  0  0  0  0  0  0  0
   27.2829  -20.0958   -7.8156 C   0  0  0  0  0  0  0  0  0  0  0  0
   27.8846  -20.5495   -6.5614 C   0  0  0  0  0  0  0  0  0  0  0  0
   27.8672  -21.7567   -5.9331 C   0  0  0  0  0  0  0  0  0  0  0  0
   28.5900  -21.6574   -4.7935 N   0  0  0  0  0  0  0  0  0  0  0  0
   29.0837  -20.4120   -4.6566 C   0  0  0  0  0  0  0  0  0  0  0  0
   29.8751  -19.8376   -3.6734 C   0  0  0  0  0  0  0  0  0  0  0  0
   30.2256  -18.5213   -3.8219 C   0  0  0  0  0  0  0  0  0  0  0  0
   29.8013  -17.8025   -4.9129 C   0  0  0  0  0  0  0  0  0  0  0  0
   29.0148  -18.3730   -5.8899 C   0  0  0  0  0  0  0  0  0  0  0  0
   28.6492  -19.7062   -5.7578 C   0  0  0  0  0  0  0  0  0  0  0  0
   25.3370  -21.5295   -7.6766 C   0  0  0  0  0  0  0  0  0  0  0  0
   24.1578  -21.1058   -7.8576 O   0  0  0  0  0  0  0  0  0  0  0  0
   25.4790  -22.3807   -6.5712 O   0  0  0  0  0  0  0  0  0  0  0  0
  2  1  1  0
  2  4  1  0
  3  2  2  0
  5  4  1  0
  6  7  1  6
  6  5  1  0
  8  6  1  0
  9  8  2  0
 10  8  1  0
 11 10  1  0
 11 22  1  0
 11 12  1  6
 13 21  1  0
 13 12  1  0
 14 13  2  0
 15 14  1  0
 15 16  1  0
 16 21  2  0
 17 16  1  0
 17 18  2  0
 18 19  1  0
 19 20  2  0
 21 20  1  0
 22 24  1  0
 23 22  2  0
 24 25  1  0
 25 26  1  1
 25 36  1  0
 27 35  1  0
 27 26  1  0
 28 27  2  0
 29 28  1  0
 29 30  1  0
 30 35  2  0
 31 30  1  0
 31 32  2  0
 32 33  1  0
 33 34  2  0
 35 34  1  0
 36 38  1  0
 37 36  2  0
M  END
$$$$
