QWW.pdb
     RDKit          3D

 38 41  0  0  1  0  0  0  0  0999 V2000
   28.6619  -16.9162  -17.0234 N   0  0  0  0  0  0  0  0  0  0  0  0
   28.6091  -18.0062  -17.9430 C   0  0  0  0  0  0  0  0  0  0  0  0
   29.6171  -18.1931  -18.6518 O   0  0  0  0  0  0  0  0  0  0  0  0
   27.3906  -18.8230  -17.9902 C   0  0  0  0  0  0  0  0  0  0  0  0
   26.3951  -18.5281  -16.8978 C   0  0  0  0  0  0  0  0  0  0  0  0
   26.0064  -19.7923  -16.1780 C   0  0  2  0  0  0  0  0  0  0  0  0
   25.1340  -20.5931  -17.0186 N   0  0  0  0  0  0  0  0  0  0  0  0
   25.4374  -19.5411  -14.8450 C   0  0  0  0  0  0  0  0  0  0  0  0
   25.2959  -18.3588  -14.4416 O   0  0  0  0  0  0  0  0  0  0  0  0
   25.0223  -20.5632  -13.9428 N   0  0  0  0  0  0  0  0  0  0  0  0
   24.4192  -20.3186  -12.6520 C   0  0  1  0  0  0  0  0  0  0  0  0
   23.0134  -20.9253  -12.5426 C   0  0  0  0  0  0  0  0  0  0  0  0
   22.0060  -20.2494  -13.3409 C   0  0  0  0  0  0  0  0  0  0  0  0
   21.3265  -19.0844  -13.0390 C   0  0  0  0  0  0  0  0  0  0  0  0
   20.4536  -18.7905  -14.0233 N   0  0  0  0  0  0  0  0  0  0  0  0
   20.5420  -19.7326  -14.9649 C   0  0  0  0  0  0  0  0  0  0  0  0
   19.8659  -19.8641  -16.1508 C   0  0  0  0  0  0  0  0  0  0  0  0
   20.1520  -20.9419  -16.9649 C   0  0  0  0  0  0  0  0  0  0  0  0
   21.0846  -21.8621  -16.6063 C   0  0  0  0  0  0  0  0  0  0  0  0
   21.7490  -21.7097  -15.4127 C   0  0  0  0  0  0  0  0  0  0  0  0
   21.5037  -20.6509  -14.5587 C   0  0  0  0  0  0  0  0  0  0  0  0
   25.2483  -20.9081  -11.5691 C   0  0  0  0  0  0  0  0  0  0  0  0
   25.6008  -22.1467  -11.6586 O   0  0  0  0  0  0  0  0  0  0  0  0
   25.7066  -20.2335  -10.4198 N   0  0  0  0  0  0  0  0  0  0  0  0
   26.5286  -20.9412   -9.4162 C   0  0  1  0  0  0  0  0  0  0  0  0
   27.5631  -19.9068   -8.9816 C   0  0  0  0  0  0  0  0  0  0  0  0
   28.5294  -20.4192   -8.0097 C   0  0  0  0  0  0  0  0  0  0  0  0
   29.4439  -21.4244   -8.0853 C   0  0  0  0  0  0  0  0  0  0  0  0
   30.1040  -21.4930   -6.9061 N   0  0  0  0  0  0  0  0  0  0  0  0
   29.6455  -20.5555   -6.0549 C   0  0  0  0  0  0  0  0  0  0  0  0
   30.0066  -20.2357   -4.7549 C   0  0  0  0  0  0  0  0  0  0  0  0
   29.3455  -19.2037   -4.1424 C   0  0  0  0  0  0  0  0  0  0  0  0
   28.3580  -18.5144   -4.8034 C   0  0  0  0  0  0  0  0  0  0  0  0
   27.9988  -18.8321   -6.0952 C   0  0  0  0  0  0  0  0  0  0  0  0
   28.6576  -19.8748   -6.7334 C   0  0  0  0  0  0  0  0  0  0  0  0
   25.6573  -21.2121   -8.2570 C   0  0  0  0  0  0  0  0  0  0  0  0
   24.6274  -20.5348   -7.9681 O   0  0  0  0  0  0  0  0  0  0  0  0
   25.9176  -22.2687   -7.3724 O   0  0  0  0  0  0  0  0  0  0  0  0
  2  1  1  0
  2  4  1  0
  3  2  2  0
  5  4  1  0
  6  7  1  6
  6  5  1  0
  8  6  1  0
  9  8  2  0
 10  8  1  0
 11 10  1  0
 11 22  1  0
 11 12  1  6
 13 21  1  0
 13 12  1  0
 14 13  2  0
 15 14  1  0
 15 16  1  0
 16 21  2  0
 17 16  1  0
 17 18  2  0
 18 19  1  0
 19 20  2  0
 21 20  1  0
 22 24  1  0
 23 22  2  0
 24 25  1  0
 25 26  1  1
 25 36  1  0
 27 35  1  0
 27 26  1  0
 28 27  2  0
 29 28  1  0
 29 30  1  0
 30 35  2  0
 31 30  1  0
 31 32  2  0
 32 33  1  0
 33 34  2  0
 35 34  1  0
 36 38  1  0
 37 36  2  0
M  END
$$$$
