QWW.pdb
     RDKit          3D

 38 41  0  0  1  0  0  0  0  0999 V2000
   28.1926  -15.0569  -16.1319 N   0  0  0  0  0  0  0  0  0  0  0  0
   28.5883  -16.2194  -16.8592 C   0  0  0  0  0  0  0  0  0  0  0  0
   29.6106  -16.1199  -17.5652 O   0  0  0  0  0  0  0  0  0  0  0  0
   27.7785  -17.4362  -16.7273 C   0  0  0  0  0  0  0  0  0  0  0  0
   26.6232  -17.3198  -15.7664 C   0  0  0  0  0  0  0  0  0  0  0  0
   25.8794  -18.6254  -15.6694 C   0  0  2  0  0  0  0  0  0  0  0  0
   24.9825  -18.7703  -16.8023 N   0  0  0  0  0  0  0  0  0  0  0  0
   25.1970  -18.8017  -14.3783 C   0  0  0  0  0  0  0  0  0  0  0  0
   24.5249  -17.8552  -13.8954 O   0  0  0  0  0  0  0  0  0  0  0  0
   25.2397  -19.9969  -13.6034 N   0  0  0  0  0  0  0  0  0  0  0  0
   24.6079  -20.1577  -12.3131 C   0  0  1  0  0  0  0  0  0  0  0  0
   23.4342  -21.1458  -12.3593 C   0  0  0  0  0  0  0  0  0  0  0  0
   22.1665  -20.5517  -12.7455 C   0  0  0  0  0  0  0  0  0  0  0  0
   21.6957  -20.3147  -14.0231 C   0  0  0  0  0  0  0  0  0  0  0  0
   20.4840  -19.7266  -13.9671 N   0  0  0  0  0  0  0  0  0  0  0  0
   20.1461  -19.5708  -12.6852 C   0  0  0  0  0  0  0  0  0  0  0  0
   19.0148  -19.0321  -12.1278 C   0  0  0  0  0  0  0  0  0  0  0  0
   18.9024  -18.9953  -10.7522 C   0  0  0  0  0  0  0  0  0  0  0  0
   19.8898  -19.4808   -9.9557 C   0  0  0  0  0  0  0  0  0  0  0  0
   21.0148  -20.0154  -10.5371 C   0  0  0  0  0  0  0  0  0  0  0  0
   21.1811  -20.0786  -11.9078 C   0  0  0  0  0  0  0  0  0  0  0  0
   25.5838  -20.6659  -11.3145 C   0  0  0  0  0  0  0  0  0  0  0  0
   26.3295  -21.6718  -11.6284 O   0  0  0  0  0  0  0  0  0  0  0  0
   25.7881  -20.1457  -10.0208 N   0  0  0  0  0  0  0  0  0  0  0  0
   26.6661  -20.8494   -9.0628 C   0  0  1  0  0  0  0  0  0  0  0  0
   27.3132  -19.7287   -8.2539 C   0  0  0  0  0  0  0  0  0  0  0  0
   28.2199  -20.2092   -7.2108 C   0  0  0  0  0  0  0  0  0  0  0  0
   29.1224  -21.2277   -7.1941 C   0  0  0  0  0  0  0  0  0  0  0  0
   29.7190  -21.2520   -5.9797 N   0  0  0  0  0  0  0  0  0  0  0  0
   29.2302  -20.2723   -5.1957 C   0  0  0  0  0  0  0  0  0  0  0  0
   29.5274  -19.8996   -3.8936 C   0  0  0  0  0  0  0  0  0  0  0  0
   28.8501  -18.8335   -3.3626 C   0  0  0  0  0  0  0  0  0  0  0  0
   27.9086  -18.1622   -4.1043 C   0  0  0  0  0  0  0  0  0  0  0  0
   27.6129  -18.5325   -5.3981 C   0  0  0  0  0  0  0  0  0  0  0  0
   28.2890  -19.6104   -5.9546 C   0  0  0  0  0  0  0  0  0  0  0  0
   25.7898  -21.6073   -8.1496 C   0  0  0  0  0  0  0  0  0  0  0  0
   24.6247  -21.2415   -7.8157 O   0  0  0  0  0  0  0  0  0  0  0  0
   26.1993  -22.8189   -7.5744 O   0  0  0  0  0  0  0  0  0  0  0  0
  2  1  1  0
  2  4  1  0
  3  2  2  0
  5  4  1  0
  6  7  1  6
  6  5  1  0
  8  6  1  0
  9  8  2  0
 10  8  1  0
 11 10  1  0
 11 22  1  0
 11 12  1  6
 13 21  1  0
 13 12  1  0
 14 13  2  0
 15 14  1  0
 15 16  1  0
 16 21  2  0
 17 16  1  0
 17 18  2  0
 18 19  1  0
 19 20  2  0
 21 20  1  0
 22 24  1  0
 23 22  2  0
 24 25  1  0
 25 26  1  1
 25 36  1  0
 27 35  1  0
 27 26  1  0
 28 27  2  0
 29 28  1  0
 29 30  1  0
 30 35  2  0
 31 30  1  0
 31 32  2  0
 32 33  1  0
 33 34  2  0
 35 34  1  0
 36 38  1  0
 37 36  2  0
M  END
$$$$
