QWW.pdb
     RDKit          3D

 38 41  0  0  1  0  0  0  0  0999 V2000
   28.5101  -23.3294  -16.5107 N   0  0  0  0  0  0  0  0  0  0  0  0
   29.1233  -22.0445  -16.6097 C   0  0  0  0  0  0  0  0  0  0  0  0
   29.6427  -21.7523  -17.7044 O   0  0  0  0  0  0  0  0  0  0  0  0
   29.0997  -21.1659  -15.4343 C   0  0  0  0  0  0  0  0  0  0  0  0
   28.4032  -21.7470  -14.2307 C   0  0  0  0  0  0  0  0  0  0  0  0
   27.4204  -20.7602  -13.6580 C   0  0  2  0  0  0  0  0  0  0  0  0
   28.0736  -19.4824  -13.4355 N   0  0  0  0  0  0  0  0  0  0  0  0
   26.7350  -21.2646  -12.4583 C   0  0  0  0  0  0  0  0  0  0  0  0
   26.1863  -22.3956  -12.4843 O   0  0  0  0  0  0  0  0  0  0  0  0
   26.6368  -20.5505  -11.2289 N   0  0  0  0  0  0  0  0  0  0  0  0
   25.6844  -20.8500  -10.1834 C   0  0  1  0  0  0  0  0  0  0  0  0
   26.0509  -20.1778   -8.8529 C   0  0  0  0  0  0  0  0  0  0  0  0
   27.3823  -20.4965   -8.3682 C   0  0  0  0  0  0  0  0  0  0  0  0
   28.3588  -21.2421   -9.0010 C   0  0  0  0  0  0  0  0  0  0  0  0
   29.4516  -21.3325   -8.2169 N   0  0  0  0  0  0  0  0  0  0  0  0
   29.2185  -20.6652   -7.0846 C   0  0  0  0  0  0  0  0  0  0  0  0
   30.0239  -20.4677   -5.9924 C   0  0  0  0  0  0  0  0  0  0  0  0
   29.5429  -19.7197   -4.9362 C   0  0  0  0  0  0  0  0  0  0  0  0
   28.2947  -19.1850   -4.9681 C   0  0  0  0  0  0  0  0  0  0  0  0
   27.5052  -19.3969   -6.0732 C   0  0  0  0  0  0  0  0  0  0  0  0
   27.9345  -20.1368   -7.1590 C   0  0  0  0  0  0  0  0  0  0  0  0
   24.3271  -20.3809  -10.5646 C   0  0  0  0  0  0  0  0  0  0  0  0
   24.0936  -19.1118  -10.5994 O   0  0  0  0  0  0  0  0  0  0  0  0
   23.2347  -21.2034  -10.9056 N   0  0  0  0  0  0  0  0  0  0  0  0
   21.9892  -20.6098  -11.4349 C   0  0  1  0  0  0  0  0  0  0  0  0
   22.0977  -20.7954  -12.9458 C   0  0  0  0  0  0  0  0  0  0  0  0
   20.9558  -20.2555  -13.6844 C   0  0  0  0  0  0  0  0  0  0  0  0
   20.2742  -19.0832  -13.5679 C   0  0  0  0  0  0  0  0  0  0  0  0
   19.2956  -19.0616  -14.5023 N   0  0  0  0  0  0  0  0  0  0  0  0
   19.3171  -20.1930  -15.2323 C   0  0  0  0  0  0  0  0  0  0  0  0
   18.5293  -20.6224  -16.2895 C   0  0  0  0  0  0  0  0  0  0  0  0
   18.8076  -21.8461  -16.8395 C   0  0  0  0  0  0  0  0  0  0  0  0
   19.8360  -22.6153  -16.3518 C   0  0  0  0  0  0  0  0  0  0  0  0
   20.6189  -22.1890  -15.3012 C   0  0  0  0  0  0  0  0  0  0  0  0
   20.3529  -20.9512  -14.7304 C   0  0  0  0  0  0  0  0  0  0  0  0
   20.8741  -21.4523  -10.9628 C   0  0  0  0  0  0  0  0  0  0  0  0
   20.9751  -22.6885  -10.7090 O   0  0  0  0  0  0  0  0  0  0  0  0
   19.5909  -20.9257  -10.7562 O   0  0  0  0  0  0  0  0  0  0  0  0
  2  1  1  0
  2  4  1  0
  3  2  2  0
  5  4  1  0
  6  7  1  1
  6  5  1  0
  8  6  1  0
  9  8  2  0
 10  8  1  0
 11 10  1  0
 11 22  1  0
 11 12  1  1
 13 21  1  0
 13 12  1  0
 14 13  2  0
 15 14  1  0
 15 16  1  0
 16 21  2  0
 17 16  1  0
 17 18  2  0
 18 19  1  0
 19 20  2  0
 21 20  1  0
 22 24  1  0
 23 22  2  0
 24 25  1  0
 25 26  1  6
 25 36  1  0
 27 35  1  0
 27 26  1  0
 28 27  2  0
 29 28  1  0
 29 30  1  0
 30 35  2  0
 31 30  1  0
 31 32  2  0
 32 33  1  0
 33 34  2  0
 35 34  1  0
 36 38  1  0
 37 36  2  0
M  END
$$$$
