QWW.pdb
     RDKit          3D

 38 41  0  0  1  0  0  0  0  0999 V2000
   27.7893  -16.3703  -20.0366 N   0  0  0  0  0  0  0  0  0  0  0  0
   28.6973  -17.3090  -20.6120 C   0  0  0  0  0  0  0  0  0  0  0  0
   28.6462  -17.4551  -21.8487 O   0  0  0  0  0  0  0  0  0  0  0  0
   29.6179  -18.0270  -19.7226 C   0  0  0  0  0  0  0  0  0  0  0  0
   29.4937  -17.6632  -18.2653 C   0  0  0  0  0  0  0  0  0  0  0  0
   29.3271  -18.8993  -17.4216 C   0  0  2  0  0  0  0  0  0  0  0  0
   29.2310  -20.0716  -18.2734 N   0  0  0  0  0  0  0  0  0  0  0  0
   28.2116  -18.7966  -16.4683 C   0  0  0  0  0  0  0  0  0  0  0  0
   28.1926  -17.8583  -15.6316 O   0  0  0  0  0  0  0  0  0  0  0  0
   27.1158  -19.7060  -16.4125 N   0  0  0  0  0  0  0  0  0  0  0  0
   25.9222  -19.5003  -15.6234 C   0  0  1  0  0  0  0  0  0  0  0  0
   24.6916  -19.2122  -16.4946 C   0  0  0  0  0  0  0  0  0  0  0  0
   24.5761  -17.8315  -16.9294 C   0  0  0  0  0  0  0  0  0  0  0  0
   25.0329  -17.2730  -18.1082 C   0  0  0  0  0  0  0  0  0  0  0  0
   24.7539  -15.9544  -18.1331 N   0  0  0  0  0  0  0  0  0  0  0  0
   24.1254  -15.6315  -17.0006 C   0  0  0  0  0  0  0  0  0  0  0  0
   23.6402  -14.4227  -16.5719 C   0  0  0  0  0  0  0  0  0  0  0  0
   23.0120  -14.3542  -15.3443 C   0  0  0  0  0  0  0  0  0  0  0  0
   22.8725  -15.4591  -14.5666 C   0  0  0  0  0  0  0  0  0  0  0  0
   23.3674  -16.6598  -15.0170 C   0  0  0  0  0  0  0  0  0  0  0  0
   24.0047  -16.7872  -16.2369 C   0  0  0  0  0  0  0  0  0  0  0  0
   25.6227  -20.7054  -14.8075 C   0  0  0  0  0  0  0  0  0  0  0  0
   25.4923  -21.8437  -15.4022 O   0  0  0  0  0  0  0  0  0  0  0  0
   25.4639  -20.7361  -13.4075 N   0  0  0  0  0  0  0  0  0  0  0  0
   25.2146  -22.0158  -12.7118 C   0  0  1  0  0  0  0  0  0  0  0  0
   26.2570  -22.0465  -11.5975 C   0  0  0  0  0  0  0  0  0  0  0  0
   26.0216  -21.0528  -10.5496 C   0  0  0  0  0  0  0  0  0  0  0  0
   24.8992  -20.3808  -10.1743 C   0  0  0  0  0  0  0  0  0  0  0  0
   25.2109  -19.5723   -9.1350 N   0  0  0  0  0  0  0  0  0  0  0  0
   26.5135  -19.6964   -8.8166 C   0  0  0  0  0  0  0  0  0  0  0  0
   27.2845  -19.0889   -7.8372 C   0  0  0  0  0  0  0  0  0  0  0  0
   28.6079  -19.4347   -7.7582 C   0  0  0  0  0  0  0  0  0  0  0  0
   29.1442  -20.3545   -8.6262 C   0  0  0  0  0  0  0  0  0  0  0  0
   28.3784  -20.9583   -9.5997 C   0  0  0  0  0  0  0  0  0  0  0  0
   27.0345  -20.6213   -9.6956 C   0  0  0  0  0  0  0  0  0  0  0  0
   23.8876  -21.9108  -12.0759 C   0  0  0  0  0  0  0  0  0  0  0  0
   23.2455  -20.8275  -11.9455 O   0  0  0  0  0  0  0  0  0  0  0  0
   23.2286  -23.0357  -11.5594 O   0  0  0  0  0  0  0  0  0  0  0  0
  2  1  1  0
  2  4  1  0
  3  2  2  0
  5  4  1  0
  6  7  1  6
  6  5  1  0
  8  6  1  0
  9  8  2  0
 10  8  1  0
 11 10  1  0
 11 22  1  0
 11 12  1  6
 13 21  1  0
 13 12  1  0
 14 13  2  0
 15 14  1  0
 15 16  1  0
 16 21  2  0
 17 16  1  0
 17 18  2  0
 18 19  1  0
 19 20  2  0
 21 20  1  0
 22 24  1  0
 23 22  2  0
 24 25  1  0
 25 26  1  1
 25 36  1  0
 27 35  1  0
 27 26  1  0
 28 27  2  0
 29 28  1  0
 29 30  1  0
 30 35  2  0
 31 30  1  0
 31 32  2  0
 32 33  1  0
 33 34  2  0
 35 34  1  0
 36 38  1  0
 37 36  2  0
M  END
$$$$
