QWW.pdb
     RDKit          3D

 38 41  0  0  1  0  0  0  0  0999 V2000
   27.7853  -19.3485  -17.4086 N   0  0  0  0  0  0  0  0  0  0  0  0
   28.8599  -20.2160  -17.7683 C   0  0  0  0  0  0  0  0  0  0  0  0
   29.4446  -19.9715  -18.8415 O   0  0  0  0  0  0  0  0  0  0  0  0
   29.2006  -21.3200  -16.8632 C   0  0  0  0  0  0  0  0  0  0  0  0
   28.3258  -21.4210  -15.6401 C   0  0  0  0  0  0  0  0  0  0  0  0
   29.1640  -21.5804  -14.3993 C   0  0  2  0  0  0  0  0  0  0  0  0
   30.1065  -22.6712  -14.5746 N   0  0  0  0  0  0  0  0  0  0  0  0
   28.3578  -21.7170  -13.1767 C   0  0  0  0  0  0  0  0  0  0  0  0
   27.1787  -22.1466  -13.2536 O   0  0  0  0  0  0  0  0  0  0  0  0
   28.8191  -21.3885  -11.8689 N   0  0  0  0  0  0  0  0  0  0  0  0
   27.9893  -21.3889  -10.6852 C   0  0  1  0  0  0  0  0  0  0  0  0
   28.7060  -20.7791   -9.4725 C   0  0  0  0  0  0  0  0  0  0  0  0
   27.8380  -20.5006   -8.3420 C   0  0  0  0  0  0  0  0  0  0  0  0
   26.4647  -20.3450   -8.3459 C   0  0  0  0  0  0  0  0  0  0  0  0
   26.0273  -20.0727   -7.1002 N   0  0  0  0  0  0  0  0  0  0  0  0
   27.0779  -20.0454   -6.2773 C   0  0  0  0  0  0  0  0  0  0  0  0
   27.1377  -19.8174   -4.9263 C   0  0  0  0  0  0  0  0  0  0  0  0
   28.3668  -19.8532   -4.2983 C   0  0  0  0  0  0  0  0  0  0  0  0
   29.5031  -20.1081   -4.9974 C   0  0  0  0  0  0  0  0  0  0  0  0
   29.4185  -20.3329   -6.3508 C   0  0  0  0  0  0  0  0  0  0  0  0
   28.2158  -20.3095   -7.0315 C   0  0  0  0  0  0  0  0  0  0  0  0
   26.7502  -20.6025  -10.9169 C   0  0  0  0  0  0  0  0  0  0  0  0
   26.8298  -19.3150  -10.9670 O   0  0  0  0  0  0  0  0  0  0  0  0
   25.4570  -21.1330  -11.0961 N   0  0  0  0  0  0  0  0  0  0  0  0
   24.3175  -20.2397  -11.3917 C   0  0  1  0  0  0  0  0  0  0  0  0
   24.0615  -20.4389  -12.8830 C   0  0  0  0  0  0  0  0  0  0  0  0
   24.2530  -19.2243  -13.6762 C   0  0  0  0  0  0  0  0  0  0  0  0
   25.3135  -18.3801  -13.7983 C   0  0  0  0  0  0  0  0  0  0  0  0
   24.9837  -17.4010  -14.6722 N   0  0  0  0  0  0  0  0  0  0  0  0
   23.7297  -17.5809  -15.1290 C   0  0  0  0  0  0  0  0  0  0  0  0
   22.9639  -16.8552  -16.0288 C   0  0  0  0  0  0  0  0  0  0  0  0
   21.6982  -17.3042  -16.3002 C   0  0  0  0  0  0  0  0  0  0  0  0
   21.2127  -18.4379  -15.6950 C   0  0  0  0  0  0  0  0  0  0  0  0
   21.9733  -19.1592  -14.8008 C   0  0  0  0  0  0  0  0  0  0  0  0
   23.2591  -18.7204  -14.5128 C   0  0  0  0  0  0  0  0  0  0  0  0
   23.1498  -20.7738  -10.6654 C   0  0  0  0  0  0  0  0  0  0  0  0
   23.0921  -21.9374  -10.1699 O   0  0  0  0  0  0  0  0  0  0  0  0
   21.9925  -20.0067  -10.4683 O   0  0  0  0  0  0  0  0  0  0  0  0
  2  1  1  0
  2  4  1  0
  3  2  2  0
  5  4  1  0
  6  7  1  6
  6  5  1  0
  8  6  1  0
  9  8  2  0
 10  8  1  0
 11 10  1  0
 11 22  1  0
 11 12  1  1
 13 21  1  0
 13 12  1  0
 14 13  2  0
 15 14  1  0
 15 16  1  0
 16 21  2  0
 17 16  1  0
 17 18  2  0
 18 19  1  0
 19 20  2  0
 21 20  1  0
 22 24  1  0
 23 22  2  0
 24 25  1  0
 25 26  1  6
 25 36  1  0
 27 35  1  0
 27 26  1  0
 28 27  2  0
 29 28  1  0
 29 30  1  0
 30 35  2  0
 31 30  1  0
 31 32  2  0
 32 33  1  0
 33 34  2  0
 35 34  1  0
 36 38  1  0
 37 36  2  0
M  END
$$$$
