QWW.pdb
     RDKit          3D

 38 41  0  0  1  0  0  0  0  0999 V2000
   32.0747  -25.2001  -15.2674 N   0  0  0  0  0  0  0  0  0  0  0  0
   32.1575  -25.2783  -16.6899 C   0  0  0  0  0  0  0  0  0  0  0  0
   32.8063  -26.2311  -17.1638 O   0  0  0  0  0  0  0  0  0  0  0  0
   31.4815  -24.2482  -17.4875 C   0  0  0  0  0  0  0  0  0  0  0  0
   30.7492  -23.2087  -16.6785 C   0  0  0  0  0  0  0  0  0  0  0  0
   29.2777  -23.5224  -16.6179 C   0  0  2  0  0  0  0  0  0  0  0  0
   28.7056  -23.4760  -17.9519 N   0  0  0  0  0  0  0  0  0  0  0  0
   28.5506  -22.6776  -15.6581 C   0  0  0  0  0  0  0  0  0  0  0  0
   28.9230  -22.6371  -14.4579 O   0  0  0  0  0  0  0  0  0  0  0  0
   27.4190  -21.8768  -15.9886 N   0  0  0  0  0  0  0  0  0  0  0  0
   26.7473  -20.9901  -15.0654 C   0  0  1  0  0  0  0  0  0  0  0  0
   26.5771  -19.5758  -15.6371 C   0  0  0  0  0  0  0  0  0  0  0  0
   27.8247  -18.9077  -15.9628 C   0  0  0  0  0  0  0  0  0  0  0  0
   28.1930  -18.3407  -17.1682 C   0  0  0  0  0  0  0  0  0  0  0  0
   29.4406  -17.8379  -17.0801 N   0  0  0  0  0  0  0  0  0  0  0  0
   29.9021  -18.0599  -15.8474 C   0  0  0  0  0  0  0  0  0  0  0  0
   31.1071  -17.7307  -15.2814 C   0  0  0  0  0  0  0  0  0  0  0  0
   31.3392  -18.0706  -13.9635 C   0  0  0  0  0  0  0  0  0  0  0  0
   30.3974  -18.7206  -13.2317 C   0  0  0  0  0  0  0  0  0  0  0  0
   29.1974  -19.0409  -13.8207 C   0  0  0  0  0  0  0  0  0  0  0  0
   28.9104  -18.7254  -15.1355 C   0  0  0  0  0  0  0  0  0  0  0  0
   25.3938  -21.5076  -14.7367 C   0  0  0  0  0  0  0  0  0  0  0  0
   25.0486  -22.6715  -15.1754 O   0  0  0  0  0  0  0  0  0  0  0  0
   24.4185  -20.8399  -13.9694 N   0  0  0  0  0  0  0  0  0  0  0  0
   23.3539  -21.6038  -13.2859 C   0  0  1  0  0  0  0  0  0  0  0  0
   24.0820  -22.3432  -12.1669 C   0  0  0  0  0  0  0  0  0  0  0  0
   24.6631  -21.4542  -11.1605 C   0  0  0  0  0  0  0  0  0  0  0  0
   24.1304  -20.4278  -10.4428 C   0  0  0  0  0  0  0  0  0  0  0  0
   25.0914  -19.9277   -9.6318 N   0  0  0  0  0  0  0  0  0  0  0  0
   26.2454  -20.6015   -9.7986 C   0  0  0  0  0  0  0  0  0  0  0  0
   27.4876  -20.4639   -9.1981 C   0  0  0  0  0  0  0  0  0  0  0  0
   28.4834  -21.3226   -9.5833 C   0  0  0  0  0  0  0  0  0  0  0  0
   28.2486  -22.2853  -10.5348 C   0  0  0  0  0  0  0  0  0  0  0  0
   27.0143  -22.4222  -11.1317 C   0  0  0  0  0  0  0  0  0  0  0  0
   25.9917  -21.5615  -10.7545 C   0  0  0  0  0  0  0  0  0  0  0  0
   22.4528  -20.6204  -12.6556 C   0  0  0  0  0  0  0  0  0  0  0  0
   22.7109  -19.3855  -12.5494 O   0  0  0  0  0  0  0  0  0  0  0  0
   21.2140  -20.9974  -12.1174 O   0  0  0  0  0  0  0  0  0  0  0  0
  2  1  1  0
  2  4  1  0
  3  2  2  0
  5  4  1  0
  6  7  1  6
  6  5  1  0
  8  6  1  0
  9  8  2  0
 10  8  1  0
 11 10  1  0
 11 22  1  0
 11 12  1  6
 13 21  1  0
 13 12  1  0
 14 13  2  0
 15 14  1  0
 15 16  1  0
 16 21  2  0
 17 16  1  0
 17 18  2  0
 18 19  1  0
 19 20  2  0
 21 20  1  0
 22 24  1  0
 23 22  2  0
 24 25  1  0
 25 26  1  1
 25 36  1  0
 27 35  1  0
 27 26  1  0
 28 27  2  0
 29 28  1  0
 29 30  1  0
 30 35  2  0
 31 30  1  0
 31 32  2  0
 32 33  1  0
 33 34  2  0
 35 34  1  0
 36 38  1  0
 37 36  2  0
M  END
$$$$
