QWW.pdb
     RDKit          3D

 38 41  0  0  1  0  0  0  0  0999 V2000
   32.0167  -25.0938  -15.4641 N   0  0  0  0  0  0  0  0  0  0  0  0
   31.8457  -25.3309  -16.8610 C   0  0  0  0  0  0  0  0  0  0  0  0
   32.2588  -26.4214  -17.3009 O   0  0  0  0  0  0  0  0  0  0  0  0
   31.2028  -24.2912  -17.6732 C   0  0  0  0  0  0  0  0  0  0  0  0
   30.7297  -23.0903  -16.8951 C   0  0  0  0  0  0  0  0  0  0  0  0
   29.3318  -22.7090  -17.3046 C   0  0  2  0  0  0  0  0  0  0  0  0
   29.3009  -22.3849  -18.7199 N   0  0  0  0  0  0  0  0  0  0  0  0
   28.7586  -21.6456  -16.4655 C   0  0  0  0  0  0  0  0  0  0  0  0
   29.3891  -20.5692  -16.3082 O   0  0  0  0  0  0  0  0  0  0  0  0
   27.5064  -21.7405  -15.7917 N   0  0  0  0  0  0  0  0  0  0  0  0
   27.0067  -20.7611  -14.8533 C   0  0  1  0  0  0  0  0  0  0  0  0
   25.8207  -19.9669  -15.4179 C   0  0  0  0  0  0  0  0  0  0  0  0
   26.1502  -19.1269  -16.5558 C   0  0  0  0  0  0  0  0  0  0  0  0
   25.8781  -19.3622  -17.8902 C   0  0  0  0  0  0  0  0  0  0  0  0
   26.3655  -18.3574  -18.6452 N   0  0  0  0  0  0  0  0  0  0  0  0
   26.9511  -17.4672  -17.8412 C   0  0  0  0  0  0  0  0  0  0  0  0
   27.5789  -16.2849  -18.1388 C   0  0  0  0  0  0  0  0  0  0  0  0
   28.1026  -15.5305  -17.1079 C   0  0  0  0  0  0  0  0  0  0  0  0
   28.0038  -15.9437  -15.8177 C   0  0  0  0  0  0  0  0  0  0  0  0
   27.3707  -17.1326  -15.5436 C   0  0  0  0  0  0  0  0  0  0  0  0
   26.8278  -17.9281  -16.5351 C   0  0  0  0  0  0  0  0  0  0  0  0
   26.5503  -21.4221  -13.6033 C   0  0  0  0  0  0  0  0  0  0  0  0
   25.7758  -22.4512  -13.6900 O   0  0  0  0  0  0  0  0  0  0  0  0
   26.8880  -21.0317  -12.2920 N   0  0  0  0  0  0  0  0  0  0  0  0
   26.2916  -21.7227  -11.1299 C   0  0  1  0  0  0  0  0  0  0  0  0
   27.3409  -21.5820  -10.0306 C   0  0  0  0  0  0  0  0  0  0  0  0
   26.9208  -20.7154   -8.9291 C   0  0  0  0  0  0  0  0  0  0  0  0
   25.7605  -20.0428   -8.6977 C   0  0  0  0  0  0  0  0  0  0  0  0
   25.8740  -19.3843   -7.5210 N   0  0  0  0  0  0  0  0  0  0  0  0
   27.0829  -19.6078   -6.9715 C   0  0  0  0  0  0  0  0  0  0  0  0
   27.6539  -19.1627   -5.7889 C   0  0  0  0  0  0  0  0  0  0  0  0
   28.9267  -19.5774   -5.4968 C   0  0  0  0  0  0  0  0  0  0  0  0
   29.6069  -20.4073   -6.3546 C   0  0  0  0  0  0  0  0  0  0  0  0
   29.0398  -20.8496   -7.5299 C   0  0  0  0  0  0  0  0  0  0  0  0
   27.7502  -20.4407   -7.8436 C   0  0  0  0  0  0  0  0  0  0  0  0
   25.1111  -20.9388  -10.7199 C   0  0  0  0  0  0  0  0  0  0  0  0
   24.9102  -19.7324  -11.0472 O   0  0  0  0  0  0  0  0  0  0  0  0
   24.1026  -21.4929   -9.9183 O   0  0  0  0  0  0  0  0  0  0  0  0
  2  1  1  0
  2  4  1  0
  3  2  2  0
  5  4  1  0
  6  7  1  6
  6  5  1  0
  8  6  1  0
  9  8  2  0
 10  8  1  0
 11 10  1  0
 11 22  1  0
 11 12  1  6
 13 21  1  0
 13 12  1  0
 14 13  2  0
 15 14  1  0
 15 16  1  0
 16 21  2  0
 17 16  1  0
 17 18  2  0
 18 19  1  0
 19 20  2  0
 21 20  1  0
 22 24  1  0
 23 22  2  0
 24 25  1  0
 25 26  1  1
 25 36  1  0
 27 35  1  0
 27 26  1  0
 28 27  2  0
 29 28  1  0
 29 30  1  0
 30 35  2  0
 31 30  1  0
 31 32  2  0
 32 33  1  0
 33 34  2  0
 35 34  1  0
 36 38  1  0
 37 36  2  0
M  END
$$$$
