QWW.pdb
     RDKit          3D

 38 41  0  0  1  0  0  0  0  0999 V2000
   27.9947  -17.0215  -14.6481 N   0  0  0  0  0  0  0  0  0  0  0  0
   28.5368  -17.5711  -15.8484 C   0  0  0  0  0  0  0  0  0  0  0  0
   29.3601  -16.8687  -16.4666 O   0  0  0  0  0  0  0  0  0  0  0  0
   28.0967  -18.9072  -16.2670 C   0  0  0  0  0  0  0  0  0  0  0  0
   27.2253  -19.6226  -15.2667 C   0  0  0  0  0  0  0  0  0  0  0  0
   28.0178  -20.6624  -14.5197 C   0  0  2  0  0  0  0  0  0  0  0  0
   28.3459  -21.7660  -15.4048 N   0  0  0  0  0  0  0  0  0  0  0  0
   27.3595  -21.1041  -13.2807 C   0  0  0  0  0  0  0  0  0  0  0  0
   26.3358  -21.8312  -13.3451 O   0  0  0  0  0  0  0  0  0  0  0  0
   27.8008  -20.7610  -11.9698 N   0  0  0  0  0  0  0  0  0  0  0  0
   27.1056  -21.1178  -10.7536 C   0  0  1  0  0  0  0  0  0  0  0  0
   27.9418  -20.8280   -9.4994 C   0  0  0  0  0  0  0  0  0  0  0  0
   27.1763  -20.7870   -8.2660 C   0  0  0  0  0  0  0  0  0  0  0  0
   25.8628  -21.1699   -8.0704 C   0  0  0  0  0  0  0  0  0  0  0  0
   25.5060  -20.9580   -6.7879 N   0  0  0  0  0  0  0  0  0  0  0  0
   26.5515  -20.4455   -6.1351 C   0  0  0  0  0  0  0  0  0  0  0  0
   26.6780  -20.0731   -4.8213 C   0  0  0  0  0  0  0  0  0  0  0  0
   27.8876  -19.5705   -4.3847 C   0  0  0  0  0  0  0  0  0  0  0  0
   28.9400  -19.4423   -5.2338 C   0  0  0  0  0  0  0  0  0  0  0  0
   28.7894  -19.8216   -6.5464 C   0  0  0  0  0  0  0  0  0  0  0  0
   27.6023  -20.3310   -7.0383 C   0  0  0  0  0  0  0  0  0  0  0  0
   25.8374  -20.3529  -10.6345 C   0  0  0  0  0  0  0  0  0  0  0  0
   25.8763  -19.0654  -10.7190 O   0  0  0  0  0  0  0  0  0  0  0  0
   24.5560  -20.9046  -10.4357 N   0  0  0  0  0  0  0  0  0  0  0  0
   23.3507  -20.1732  -10.8787 C   0  0  1  0  0  0  0  0  0  0  0  0
   23.5364  -20.0221  -12.3860 C   0  0  0  0  0  0  0  0  0  0  0  0
   22.3856  -19.4194  -13.0591 C   0  0  0  0  0  0  0  0  0  0  0  0
   21.5113  -18.4526  -12.6675 C   0  0  0  0  0  0  0  0  0  0  0  0
   20.6232  -18.2470  -13.6676 N   0  0  0  0  0  0  0  0  0  0  0  0
   20.8925  -19.0564  -14.7096 C   0  0  0  0  0  0  0  0  0  0  0  0
   20.2768  -19.2061  -15.9430 C   0  0  0  0  0  0  0  0  0  0  0  0
   20.7990  -20.1284  -16.8113 C   0  0  0  0  0  0  0  0  0  0  0  0
   21.8972  -20.8760  -16.4617 C   0  0  0  0  0  0  0  0  0  0  0  0
   22.5091  -20.7276  -15.2361 C   0  0  0  0  0  0  0  0  0  0  0  0
   21.9949  -19.7974  -14.3421 C   0  0  0  0  0  0  0  0  0  0  0  0
   22.1978  -21.0674  -10.6606 C   0  0  0  0  0  0  0  0  0  0  0  0
   22.2442  -22.3275  -10.7736 O   0  0  0  0  0  0  0  0  0  0  0  0
   20.9374  -20.5680  -10.3022 O   0  0  0  0  0  0  0  0  0  0  0  0
  2  1  1  0
  2  4  1  0
  3  2  2  0
  5  4  1  0
  6  7  1  6
  6  5  1  0
  8  6  1  0
  9  8  2  0
 10  8  1  0
 11 10  1  0
 11 22  1  0
 11 12  1  1
 13 21  1  0
 13 12  1  0
 14 13  2  0
 15 14  1  0
 15 16  1  0
 16 21  2  0
 17 16  1  0
 17 18  2  0
 18 19  1  0
 19 20  2  0
 21 20  1  0
 22 24  1  0
 23 22  2  0
 24 25  1  0
 25 26  1  6
 25 36  1  0
 27 35  1  0
 27 26  1  0
 28 27  2  0
 29 28  1  0
 29 30  1  0
 30 35  2  0
 31 30  1  0
 31 32  2  0
 32 33  1  0
 33 34  2  0
 35 34  1  0
 36 38  1  0
 37 36  2  0
M  END
$$$$
