QWW.pdb
     RDKit          3D

 38 41  0  0  1  0  0  0  0  0999 V2000
   36.6038  -36.7568  -18.0630 N   0  0  0  0  0  0  0  0  0  0  0  0
   36.7911  -35.3638  -17.8157 C   0  0  0  0  0  0  0  0  0  0  0  0
   37.7848  -34.8278  -18.3436 O   0  0  0  0  0  0  0  0  0  0  0  0
   35.8147  -34.6660  -16.9709 C   0  0  0  0  0  0  0  0  0  0  0  0
   36.0957  -33.1992  -16.7680 C   0  0  0  0  0  0  0  0  0  0  0  0
   34.9448  -32.5303  -16.0641 C   0  0  2  0  0  0  0  0  0  0  0  0
   34.5008  -33.3502  -14.9507 N   0  0  0  0  0  0  0  0  0  0  0  0
   33.8486  -32.1675  -16.9753 C   0  0  0  0  0  0  0  0  0  0  0  0
   32.6840  -32.0269  -16.5228 O   0  0  0  0  0  0  0  0  0  0  0  0
   34.0041  -31.9580  -18.3763 N   0  0  0  0  0  0  0  0  0  0  0  0
   32.9655  -31.4572  -19.2483 C   0  0  1  0  0  0  0  0  0  0  0  0
   33.5276  -30.5920  -20.3849 C   0  0  0  0  0  0  0  0  0  0  0  0
   33.5673  -29.1703  -20.0914 C   0  0  0  0  0  0  0  0  0  0  0  0
   33.1162  -28.5265  -18.9546 C   0  0  0  0  0  0  0  0  0  0  0  0
   33.3087  -27.1973  -19.0695 N   0  0  0  0  0  0  0  0  0  0  0  0
   33.8751  -26.9506  -20.2528 C   0  0  0  0  0  0  0  0  0  0  0  0
   34.2647  -25.7627  -20.8165 C   0  0  0  0  0  0  0  0  0  0  0  0
   34.8439  -25.7782  -22.0697 C   0  0  0  0  0  0  0  0  0  0  0  0
   35.0285  -26.9443  -22.7414 C   0  0  0  0  0  0  0  0  0  0  0  0
   34.6294  -28.1224  -22.1566 C   0  0  0  0  0  0  0  0  0  0  0  0
   34.0446  -28.1668  -20.9049 C   0  0  0  0  0  0  0  0  0  0  0  0
   32.2176  -32.5817  -19.8676 C   0  0  0  0  0  0  0  0  0  0  0  0
   32.8589  -33.6558  -20.1862 O   0  0  0  0  0  0  0  0  0  0  0  0
   30.8369  -32.5991  -20.1495 N   0  0  0  0  0  0  0  0  0  0  0  0
   30.2168  -33.7866  -20.7733 C   0  0  1  0  0  0  0  0  0  0  0  0
   28.7290  -33.6368  -20.4683 C   0  0  0  0  0  0  0  0  0  0  0  0
   27.9143  -34.7416  -20.9750 C   0  0  0  0  0  0  0  0  0  0  0  0
   27.9116  -36.0716  -20.6861 C   0  0  0  0  0  0  0  0  0  0  0  0
   26.9504  -36.6694  -21.4277 N   0  0  0  0  0  0  0  0  0  0  0  0
   26.3195  -35.7634  -22.1988 C   0  0  0  0  0  0  0  0  0  0  0  0
   25.2797  -35.8912  -23.1072 C   0  0  0  0  0  0  0  0  0  0  0  0
   24.8433  -34.7593  -23.7441 C   0  0  0  0  0  0  0  0  0  0  0  0
   25.4241  -33.5417  -23.4843 C   0  0  0  0  0  0  0  0  0  0  0  0
   26.4574  -33.4144  -22.5817 C   0  0  0  0  0  0  0  0  0  0  0  0
   26.9136  -34.5501  -21.9255 C   0  0  0  0  0  0  0  0  0  0  0  0
   30.3873  -33.6473  -22.2320 C   0  0  0  0  0  0  0  0  0  0  0  0
   30.3897  -32.5395  -22.8449 O   0  0  0  0  0  0  0  0  0  0  0  0
   30.5645  -34.7639  -23.0616 O   0  0  0  0  0  0  0  0  0  0  0  0
  2  1  1  0
  2  4  1  0
  3  2  2  0
  5  4  1  0
  6  7  1  1
  6  5  1  0
  8  6  1  0
  9  8  2  0
 10  8  1  0
 11 10  1  0
 11 22  1  0
 11 12  1  6
 13 21  1  0
 13 12  1  0
 14 13  2  0
 15 14  1  0
 15 16  1  0
 16 21  2  0
 17 16  1  0
 17 18  2  0
 18 19  1  0
 19 20  2  0
 21 20  1  0
 22 24  1  0
 23 22  2  0
 24 25  1  0
 25 26  1  6
 25 36  1  0
 27 35  1  0
 27 26  1  0
 28 27  2  0
 29 28  1  0
 29 30  1  0
 30 35  2  0
 31 30  1  0
 31 32  2  0
 32 33  1  0
 33 34  2  0
 35 34  1  0
 36 38  1  0
 37 36  2  0
M  END
$$$$
