QWW.pdb
     RDKit          3D

 38 41  0  0  1  0  0  0  0  0999 V2000
   31.0642  -24.1289  -14.4013 N   0  0  0  0  0  0  0  0  0  0  0  0
   31.3536  -23.8728  -15.7751 C   0  0  0  0  0  0  0  0  0  0  0  0
   32.1260  -24.6681  -16.3446 O   0  0  0  0  0  0  0  0  0  0  0  0
   30.7302  -22.7089  -16.4160 C   0  0  0  0  0  0  0  0  0  0  0  0
   29.8109  -21.9177  -15.5214 C   0  0  0  0  0  0  0  0  0  0  0  0
   28.4321  -21.8307  -16.1204 C   0  0  2  0  0  0  0  0  0  0  0  0
   28.5175  -21.3763  -17.4970 N   0  0  0  0  0  0  0  0  0  0  0  0
   27.5059  -21.0233  -15.3118 C   0  0  0  0  0  0  0  0  0  0  0  0
   27.4613  -19.7774  -15.4750 O   0  0  0  0  0  0  0  0  0  0  0  0
   26.6277  -21.5560  -14.3238 N   0  0  0  0  0  0  0  0  0  0  0  0
   25.7258  -20.7633  -13.5189 C   0  0  1  0  0  0  0  0  0  0  0  0
   24.2913  -20.7803  -14.0650 C   0  0  0  0  0  0  0  0  0  0  0  0
   24.1344  -20.1326  -15.3553 C   0  0  0  0  0  0  0  0  0  0  0  0
   24.1600  -20.7187  -16.6067 C   0  0  0  0  0  0  0  0  0  0  0  0
   24.0007  -19.7792  -17.5601 N   0  0  0  0  0  0  0  0  0  0  0  0
   23.8708  -18.5902  -16.9675 C   0  0  0  0  0  0  0  0  0  0  0  0
   23.6821  -17.3460  -17.5126 C   0  0  0  0  0  0  0  0  0  0  0  0
   23.5676  -16.2592  -16.6689 C   0  0  0  0  0  0  0  0  0  0  0  0
   23.6400  -16.4088  -15.3207 C   0  0  0  0  0  0  0  0  0  0  0  0
   23.8303  -17.6654  -14.7973 C   0  0  0  0  0  0  0  0  0  0  0  0
   23.9514  -18.7887  -15.5937 C   0  0  0  0  0  0  0  0  0  0  0  0
   25.6821  -21.2772  -12.1255 C   0  0  0  0  0  0  0  0  0  0  0  0
   25.6935  -22.5535  -11.9317 O   0  0  0  0  0  0  0  0  0  0  0  0
   25.6306  -20.4914  -10.9568 N   0  0  0  0  0  0  0  0  0  0  0  0
   25.4849  -21.1308   -9.6325 C   0  0  1  0  0  0  0  0  0  0  0  0
   26.2568  -20.2151   -8.6867 C   0  0  0  0  0  0  0  0  0  0  0  0
   27.6345  -20.6472   -8.4497 C   0  0  0  0  0  0  0  0  0  0  0  0
   28.4449  -21.5034   -9.1298 C   0  0  0  0  0  0  0  0  0  0  0  0
   29.6405  -21.5551   -8.4981 N   0  0  0  0  0  0  0  0  0  0  0  0
   29.6365  -20.7521   -7.4171 C   0  0  0  0  0  0  0  0  0  0  0  0
   30.6139  -20.4712   -6.4744 C   0  0  0  0  0  0  0  0  0  0  0  0
   30.3034  -19.5880   -5.4741 C   0  0  0  0  0  0  0  0  0  0  0  0
   29.0608  -19.0050   -5.4155 C   0  0  0  0  0  0  0  0  0  0  0  0
   28.0893  -19.2841   -6.3519 C   0  0  0  0  0  0  0  0  0  0  0  0
   28.3849  -20.1765   -7.3741 C   0  0  0  0  0  0  0  0  0  0  0  0
   24.0583  -21.0466   -9.2665 C   0  0  0  0  0  0  0  0  0  0  0  0
   23.5725  -21.5026   -8.1900 O   0  0  0  0  0  0  0  0  0  0  0  0
   23.1175  -20.4375  -10.1095 O   0  0  0  0  0  0  0  0  0  0  0  0
  2  1  1  0
  2  4  1  0
  3  2  2  0
  5  4  1  0
  6  7  1  6
  6  5  1  0
  8  6  1  0
  9  8  2  0
 10  8  1  0
 11 10  1  0
 11 22  1  0
 11 12  1  6
 13 21  1  0
 13 12  1  0
 14 13  2  0
 15 14  1  0
 15 16  1  0
 16 21  2  0
 17 16  1  0
 17 18  2  0
 18 19  1  0
 19 20  2  0
 21 20  1  0
 22 24  1  0
 23 22  2  0
 24 25  1  0
 25 26  1  1
 25 36  1  0
 27 35  1  0
 27 26  1  0
 28 27  2  0
 29 28  1  0
 29 30  1  0
 30 35  2  0
 31 30  1  0
 31 32  2  0
 32 33  1  0
 33 34  2  0
 35 34  1  0
 36 38  1  0
 37 36  2  0
M  END
$$$$
