QWW.pdb
     RDKit          3D

 38 41  0  0  1  0  0  0  0  0999 V2000
   28.1942  -24.3693  -16.2741 N   0  0  0  0  0  0  0  0  0  0  0  0
   28.8318  -23.9414  -17.4770 C   0  0  0  0  0  0  0  0  0  0  0  0
   29.0974  -24.8231  -18.3169 O   0  0  0  0  0  0  0  0  0  0  0  0
   29.1258  -22.5130  -17.6428 C   0  0  0  0  0  0  0  0  0  0  0  0
   28.7630  -21.6562  -16.4572 C   0  0  0  0  0  0  0  0  0  0  0  0
   27.2818  -21.3863  -16.4304 C   0  0  2  0  0  0  0  0  0  0  0  0
   26.8657  -20.7799  -17.6826 N   0  0  0  0  0  0  0  0  0  0  0  0
   26.8623  -20.6078  -15.2549 C   0  0  0  0  0  0  0  0  0  0  0  0
   27.2852  -19.4336  -15.1031 O   0  0  0  0  0  0  0  0  0  0  0  0
   25.9887  -21.0937  -14.2392 N   0  0  0  0  0  0  0  0  0  0  0  0
   25.6544  -20.3698  -13.0335 C   0  0  1  0  0  0  0  0  0  0  0  0
   24.1770  -19.9549  -12.9950 C   0  0  0  0  0  0  0  0  0  0  0  0
   23.7358  -19.2039  -14.1571 C   0  0  0  0  0  0  0  0  0  0  0  0
   22.8917  -19.6243  -15.1675 C   0  0  0  0  0  0  0  0  0  0  0  0
   22.7418  -18.6448  -16.0815 N   0  0  0  0  0  0  0  0  0  0  0  0
   23.4659  -17.5911  -15.6978 C   0  0  0  0  0  0  0  0  0  0  0  0
   23.6270  -16.3652  -16.2910 C   0  0  0  0  0  0  0  0  0  0  0  0
   24.4363  -15.4295  -15.6781 C   0  0  0  0  0  0  0  0  0  0  0  0
   25.0672  -15.7087  -14.5080 C   0  0  0  0  0  0  0  0  0  0  0  0
   24.8913  -16.9444  -13.9324 C   0  0  0  0  0  0  0  0  0  0  0  0
   24.0930  -17.9191  -14.5010 C   0  0  0  0  0  0  0  0  0  0  0  0
   25.9175  -21.2057  -11.8336 C   0  0  0  0  0  0  0  0  0  0  0  0
   25.5900  -22.4541  -11.8602 O   0  0  0  0  0  0  0  0  0  0  0  0
   26.5085  -20.7640  -10.6330 N   0  0  0  0  0  0  0  0  0  0  0  0
   26.6656  -21.6906   -9.4926 C   0  0  1  0  0  0  0  0  0  0  0  0
   27.9594  -21.2411   -8.8193 C   0  0  0  0  0  0  0  0  0  0  0  0
   27.7732  -20.1438   -7.8694 C   0  0  0  0  0  0  0  0  0  0  0  0
   27.1026  -18.9636   -7.9690 C   0  0  0  0  0  0  0  0  0  0  0  0
   27.2299  -18.2981   -6.7977 N   0  0  0  0  0  0  0  0  0  0  0  0
   27.9689  -19.0132   -5.9282 C   0  0  0  0  0  0  0  0  0  0  0  0
   28.3620  -18.7556   -4.6236 C   0  0  0  0  0  0  0  0  0  0  0  0
   29.1221  -19.7005   -3.9858 C   0  0  0  0  0  0  0  0  0  0  0  0
   29.4784  -20.8620   -4.6269 C   0  0  0  0  0  0  0  0  0  0  0  0
   29.0881  -21.1181   -5.9233 C   0  0  0  0  0  0  0  0  0  0  0  0
   28.3167  -20.1728   -6.5868 C   0  0  0  0  0  0  0  0  0  0  0  0
   25.5590  -21.4157   -8.5566 C   0  0  0  0  0  0  0  0  0  0  0  0
   24.6740  -20.5298   -8.7427 O   0  0  0  0  0  0  0  0  0  0  0  0
   25.4077  -22.1384   -7.3643 O   0  0  0  0  0  0  0  0  0  0  0  0
  2  1  1  0
  2  4  1  0
  3  2  2  0
  5  4  1  0
  6  7  1  6
  6  5  1  0
  8  6  1  0
  9  8  2  0
 10  8  1  0
 11 10  1  0
 11 22  1  0
 11 12  1  6
 13 21  1  0
 13 12  1  0
 14 13  2  0
 15 14  1  0
 15 16  1  0
 16 21  2  0
 17 16  1  0
 17 18  2  0
 18 19  1  0
 19 20  2  0
 21 20  1  0
 22 24  1  0
 23 22  2  0
 24 25  1  0
 25 26  1  1
 25 36  1  0
 27 35  1  0
 27 26  1  0
 28 27  2  0
 29 28  1  0
 29 30  1  0
 30 35  2  0
 31 30  1  0
 31 32  2  0
 32 33  1  0
 33 34  2  0
 35 34  1  0
 36 38  1  0
 37 36  2  0
M  END
$$$$
