QWW.pdb
     RDKit          3D

 38 41  0  0  1  0  0  0  0  0999 V2000
   25.2592  -24.6123  -16.6973 N   0  0  0  0  0  0  0  0  0  0  0  0
   26.6766  -24.4701  -16.7825 C   0  0  0  0  0  0  0  0  0  0  0  0
   27.3347  -25.5090  -16.9849 O   0  0  0  0  0  0  0  0  0  0  0  0
   27.2555  -23.1300  -16.6305 C   0  0  0  0  0  0  0  0  0  0  0  0
   26.2469  -22.0330  -16.4050 C   0  0  0  0  0  0  0  0  0  0  0  0
   25.9900  -21.2771  -17.6818 C   0  0  2  0  0  0  0  0  0  0  0  0
   27.1535  -20.4803  -18.0288 N   0  0  0  0  0  0  0  0  0  0  0  0
   24.7510  -20.4854  -17.6398 C   0  0  0  0  0  0  0  0  0  0  0  0
   24.7646  -19.3351  -17.1326 O   0  0  0  0  0  0  0  0  0  0  0  0
   23.4943  -20.9325  -18.1414 N   0  0  0  0  0  0  0  0  0  0  0  0
   22.2538  -20.2026  -18.0065 C   0  0  1  0  0  0  0  0  0  0  0  0
   21.4715  -20.1367  -19.3256 C   0  0  0  0  0  0  0  0  0  0  0  0
   20.2452  -19.3618  -19.2561 C   0  0  0  0  0  0  0  0  0  0  0  0
   20.1141  -17.9938  -19.1102 C   0  0  0  0  0  0  0  0  0  0  0  0
   18.8096  -17.6570  -19.0648 N   0  0  0  0  0  0  0  0  0  0  0  0
   18.0796  -18.7689  -19.1773 C   0  0  0  0  0  0  0  0  0  0  0  0
   16.7185  -18.9358  -19.1913 C   0  0  0  0  0  0  0  0  0  0  0  0
   16.2047  -20.2097  -19.3305 C   0  0  0  0  0  0  0  0  0  0  0  0
   17.0246  -21.2859  -19.4514 C   0  0  0  0  0  0  0  0  0  0  0  0
   18.3856  -21.0942  -19.4339 C   0  0  0  0  0  0  0  0  0  0  0  0
   18.9552  -19.8422  -19.2975 C   0  0  0  0  0  0  0  0  0  0  0  0
   21.3765  -20.8479  -16.9958 C   0  0  0  0  0  0  0  0  0  0  0  0
   21.1648  -22.1188  -17.0753 O   0  0  0  0  0  0  0  0  0  0  0  0
   20.7336  -20.1965  -15.9241 N   0  0  0  0  0  0  0  0  0  0  0  0
   19.8267  -20.9463  -15.0301 C   0  0  1  0  0  0  0  0  0  0  0  0
   20.4187  -20.7425  -13.6384 C   0  0  0  0  0  0  0  0  0  0  0  0
   21.7843  -21.2506  -13.5041 C   0  0  0  0  0  0  0  0  0  0  0  0
   22.9886  -20.6169  -13.4838 C   0  0  0  0  0  0  0  0  0  0  0  0
   23.9597  -21.5464  -13.3288 N   0  0  0  0  0  0  0  0  0  0  0  0
   23.4226  -22.7786  -13.2461 C   0  0  0  0  0  0  0  0  0  0  0  0
   24.0026  -24.0273  -13.0812 C   0  0  0  0  0  0  0  0  0  0  0  0
   23.1729  -25.1163  -13.0270 C   0  0  0  0  0  0  0  0  0  0  0  0
   21.8116  -24.9654  -13.1338 C   0  0  0  0  0  0  0  0  0  0  0  0
   21.2350  -23.7248  -13.2979 C   0  0  0  0  0  0  0  0  0  0  0  0
   22.0592  -22.6085  -13.3548 C   0  0  0  0  0  0  0  0  0  0  0  0
   18.5218  -20.2588  -15.0627 C   0  0  0  0  0  0  0  0  0  0  0  0
   18.3369  -19.1077  -15.5563 O   0  0  0  0  0  0  0  0  0  0  0  0
   17.3652  -20.8511  -14.5354 O   0  0  0  0  0  0  0  0  0  0  0  0
  2  1  1  0
  2  4  1  0
  3  2  2  0
  5  4  1  0
  6  7  1  1
  6  5  1  0
  8  6  1  0
  9  8  2  0
 10  8  1  0
 11 10  1  0
 11 22  1  0
 11 12  1  6
 13 21  1  0
 13 12  1  0
 14 13  2  0
 15 14  1  0
 15 16  1  0
 16 21  2  0
 17 16  1  0
 17 18  2  0
 18 19  1  0
 19 20  2  0
 21 20  1  0
 22 24  1  0
 23 22  2  0
 24 25  1  0
 25 26  1  1
 25 36  1  0
 27 35  1  0
 27 26  1  0
 28 27  2  0
 29 28  1  0
 29 30  1  0
 30 35  2  0
 31 30  1  0
 31 32  2  0
 32 33  1  0
 33 34  2  0
 35 34  1  0
 36 38  1  0
 37 36  2  0
M  END
$$$$
