QWW.pdb
     RDKit          3D

 38 41  0  0  1  0  0  0  0  0999 V2000
   26.2373  -16.6222  -14.8001 N   0  0  0  0  0  0  0  0  0  0  0  0
   27.3274  -17.1381  -15.5630 C   0  0  0  0  0  0  0  0  0  0  0  0
   27.6950  -16.4645  -16.5451 O   0  0  0  0  0  0  0  0  0  0  0  0
   27.9348  -18.4071  -15.1451 C   0  0  0  0  0  0  0  0  0  0  0  0
   27.3426  -19.0041  -13.8943 C   0  0  0  0  0  0  0  0  0  0  0  0
   28.0107  -20.3121  -13.5623 C   0  0  2  0  0  0  0  0  0  0  0  0
   28.2904  -21.0494  -14.7817 N   0  0  0  0  0  0  0  0  0  0  0  0
   27.2592  -21.1059  -12.5780 C   0  0  0  0  0  0  0  0  0  0  0  0
   26.5051  -22.0321  -12.9708 O   0  0  0  0  0  0  0  0  0  0  0  0
   27.3162  -20.9017  -11.1688 N   0  0  0  0  0  0  0  0  0  0  0  0
   26.4972  -21.6046  -10.2071 C   0  0  1  0  0  0  0  0  0  0  0  0
   27.2124  -21.7935   -8.8620 C   0  0  0  0  0  0  0  0  0  0  0  0
   27.2659  -20.5979   -8.0395 C   0  0  0  0  0  0  0  0  0  0  0  0
   26.6900  -19.3675   -8.2939 C   0  0  0  0  0  0  0  0  0  0  0  0
   26.9862  -18.5048   -7.3013 N   0  0  0  0  0  0  0  0  0  0  0  0
   27.7421  -19.1366   -6.4007 C   0  0  0  0  0  0  0  0  0  0  0  0
   28.2815  -18.6831   -5.2242 C   0  0  0  0  0  0  0  0  0  0  0  0
   29.0305  -19.5519   -4.4559 C   0  0  0  0  0  0  0  0  0  0  0  0
   29.2362  -20.8355   -4.8498 C   0  0  0  0  0  0  0  0  0  0  0  0
   28.6863  -21.2674   -6.0332 C   0  0  0  0  0  0  0  0  0  0  0  0
   27.9280  -20.4420   -6.8421 C   0  0  0  0  0  0  0  0  0  0  0  0
   25.2406  -20.8559   -9.9464 C   0  0  0  0  0  0  0  0  0  0  0  0
   25.3132  -19.6871   -9.4033 O   0  0  0  0  0  0  0  0  0  0  0  0
   23.9370  -21.3022  -10.2424 N   0  0  0  0  0  0  0  0  0  0  0  0
   23.0235  -20.4612  -11.0436 C   0  0  1  0  0  0  0  0  0  0  0  0
   23.7649  -20.2515  -12.3610 C   0  0  0  0  0  0  0  0  0  0  0  0
   23.0638  -19.3668  -13.2918 C   0  0  0  0  0  0  0  0  0  0  0  0
   22.1153  -18.4112  -13.0928 C   0  0  0  0  0  0  0  0  0  0  0  0
   21.7956  -17.8684  -14.2905 N   0  0  0  0  0  0  0  0  0  0  0  0
   22.5122  -18.4445  -15.2744 C   0  0  0  0  0  0  0  0  0  0  0  0
   22.5395  -18.2260  -16.6434 C   0  0  0  0  0  0  0  0  0  0  0  0
   23.3984  -18.9837  -17.3955 C   0  0  0  0  0  0  0  0  0  0  0  0
   24.2022  -19.9270  -16.8029 C   0  0  0  0  0  0  0  0  0  0  0  0
   24.1752  -20.1444  -15.4426 C   0  0  0  0  0  0  0  0  0  0  0  0
   23.3116  -19.3862  -14.6629 C   0  0  0  0  0  0  0  0  0  0  0  0
   21.8275  -21.2754  -11.3319 C   0  0  0  0  0  0  0  0  0  0  0  0
   21.8577  -22.5114  -11.6042 O   0  0  0  0  0  0  0  0  0  0  0  0
   20.5399  -20.7198  -11.3222 O   0  0  0  0  0  0  0  0  0  0  0  0
  2  1  1  0
  2  4  1  0
  3  2  2  0
  5  4  1  0
  6  7  1  6
  6  5  1  0
  8  6  1  0
  9  8  2  0
 10  8  1  0
 11 10  1  0
 11 22  1  0
 11 12  1  1
 13 21  1  0
 13 12  1  0
 14 13  2  0
 15 14  1  0
 15 16  1  0
 16 21  2  0
 17 16  1  0
 17 18  2  0
 18 19  1  0
 19 20  2  0
 21 20  1  0
 22 24  1  0
 23 22  2  0
 24 25  1  0
 25 26  1  6
 25 36  1  0
 27 35  1  0
 27 26  1  0
 28 27  2  0
 29 28  1  0
 29 30  1  0
 30 35  2  0
 31 30  1  0
 31 32  2  0
 32 33  1  0
 33 34  2  0
 35 34  1  0
 36 38  1  0
 37 36  2  0
M  END
$$$$
