CVV.pdb
     RDKit          3D

 21 20  0  0  1  0  0  0  0  0999 V2000
   17.2349  -12.1990  -16.5408 N   0  0  0  0  0  0  0  0  0  0  0  0
   18.1737  -11.2715  -17.1285 C   0  0  1  0  0  0  0  0  0  0  0  0
   17.4586  -10.2178  -17.9509 C   0  0  0  0  0  0  0  0  0  0  0  0
   16.5872  -10.9592  -19.3549 S   0  0  0  0  0  0  0  0  0  0  0  0
   19.0851  -10.6856  -16.1393 C   0  0  0  0  0  0  0  0  0  0  0  0
   18.7672  -10.5346  -14.9326 O   0  0  0  0  0  0  0  0  0  0  0  0
   22.4553  -11.9795  -15.1679 C   0  0  0  0  0  0  0  0  0  0  0  0
   22.6323  -10.5332  -15.4876 C   0  0  2  0  0  0  0  0  0  0  0  0
   23.6048   -9.8475  -14.5350 C   0  0  0  0  0  0  0  0  0  0  0  0
   21.3375   -9.7532  -15.4814 C   0  0  2  0  0  0  0  0  0  0  0  0
   20.4133  -10.2413  -16.4856 N   0  0  0  0  0  0  0  0  0  0  0  0
   21.6420   -8.3004  -15.6992 C   0  0  0  0  0  0  0  0  0  0  0  0
   22.2462   -7.9505  -16.7447 O   0  0  0  0  0  0  0  0  0  0  0  0
   19.2221   -5.3797  -14.1157 C   0  0  0  0  0  0  0  0  0  0  0  0
   20.2336   -5.1204  -15.2155 C   0  0  2  0  0  0  0  0  0  0  0  0
   19.6260   -5.6839  -16.4956 C   0  0  0  0  0  0  0  0  0  0  0  0
   21.5225   -5.8826  -14.9757 C   0  0  2  0  0  0  0  0  0  0  0  0
   21.2800   -7.2944  -14.7787 N   0  0  0  0  0  0  0  0  0  0  0  0
   22.1296   -5.3304  -13.7463 C   0  0  0  0  0  0  0  0  0  0  0  0
   22.8164   -4.1221  -13.7265 O   0  0  0  0  0  0  0  0  0  0  0  0
   22.0252   -5.9715  -12.6749 O   0  0  0  0  0  0  0  0  0  0  0  0
  2  1  1  1
  2  3  1  0
  4  3  1  0
  5 11  1  0
  5  2  1  0
  6  5  2  0
  8  7  1  1
  8 10  1  0
  9  8  1  0
 10 11  1  6
 10 12  1  0
 12 18  1  0
 13 12  2  0
 15 14  1  1
 15 16  1  0
 17 19  1  0
 17 15  1  0
 17 18  1  1
 19 20  1  0
 21 19  2  0
M  END
$$$$
