CVV.pdb
     RDKit          3D

 21 20  0  0  1  0  0  0  0  0999 V2000
   19.7687  -15.7807  -19.4611 N   0  0  0  0  0  0  0  0  0  0  0  0
   19.2197  -14.8267  -18.5253 C   0  0  1  0  0  0  0  0  0  0  0  0
   19.1595  -15.4066  -17.1259 C   0  0  0  0  0  0  0  0  0  0  0  0
   17.9707  -16.7696  -17.0297 S   0  0  0  0  0  0  0  0  0  0  0  0
   19.9103  -13.5329  -18.5653 C   0  0  0  0  0  0  0  0  0  0  0  0
   21.1424  -13.4305  -18.7919 O   0  0  0  0  0  0  0  0  0  0  0  0
   19.4361  -10.3184  -20.6976 C   0  0  0  0  0  0  0  0  0  0  0  0
   19.2673  -10.0073  -19.2485 C   0  0  2  0  0  0  0  0  0  0  0  0
   19.8023   -8.6258  -18.8897 C   0  0  0  0  0  0  0  0  0  0  0  0
   19.9233  -11.0184  -18.3361 C   0  0  2  0  0  0  0  0  0  0  0  0
   19.2194  -12.2854  -18.3465 N   0  0  0  0  0  0  0  0  0  0  0  0
   19.9847  -10.4548  -16.9472 C   0  0  0  0  0  0  0  0  0  0  0  0
   18.9198  -10.3193  -16.2927 O   0  0  0  0  0  0  0  0  0  0  0  0
   22.5869   -9.7903  -12.8146 C   0  0  0  0  0  0  0  0  0  0  0  0
   22.4735  -10.2666  -14.2500 C   0  0  2  0  0  0  0  0  0  0  0  0
   23.7336   -9.7843  -14.9604 C   0  0  0  0  0  0  0  0  0  0  0  0
   21.3008   -9.6177  -14.9594 C   0  0  2  0  0  0  0  0  0  0  0  0
   21.1920  -10.0641  -16.3305 N   0  0  0  0  0  0  0  0  0  0  0  0
   21.5444   -8.1598  -14.9541 C   0  0  0  0  0  0  0  0  0  0  0  0
   21.2383   -7.3524  -13.8649 O   0  0  0  0  0  0  0  0  0  0  0  0
   22.0469   -7.6229  -15.9685 O   0  0  0  0  0  0  0  0  0  0  0  0
  2  1  1  6
  2  3  1  0
  4  3  1  0
  5 11  1  0
  5  2  1  0
  6  5  2  0
  8  7  1  6
  8 10  1  0
  9  8  1  0
 10 11  1  1
 10 12  1  0
 12 18  1  0
 13 12  2  0
 15 14  1  1
 15 16  1  0
 17 19  1  0
 17 15  1  0
 17 18  1  6
 19 20  1  0
 21 19  2  0
M  END
$$$$
