CVV.pdb
     RDKit          3D

 21 20  0  0  1  0  0  0  0  0999 V2000
   19.3471  -12.2693  -18.1604 N   0  0  0  0  0  0  0  0  0  0  0  0
   19.4819  -11.5079  -16.9400 C   0  0  1  0  0  0  0  0  0  0  0  0
   20.7585  -11.8710  -16.2076 C   0  0  0  0  0  0  0  0  0  0  0  0
   20.6714  -13.5465  -15.5256 S   0  0  0  0  0  0  0  0  0  0  0  0
   19.3534  -10.0628  -17.1574 C   0  0  0  0  0  0  0  0  0  0  0  0
   19.8984   -9.4731  -18.1245 O   0  0  0  0  0  0  0  0  0  0  0  0
   16.6450   -7.8464  -18.2311 C   0  0  0  0  0  0  0  0  0  0  0  0
   17.0498   -7.4049  -16.8650 C   0  0  2  0  0  0  0  0  0  0  0  0
   16.9061   -5.8987  -16.6801 C   0  0  0  0  0  0  0  0  0  0  0  0
   18.4657   -7.7912  -16.5031 C   0  0  2  0  0  0  0  0  0  0  0  0
   18.5898   -9.2169  -16.2726 N   0  0  0  0  0  0  0  0  0  0  0  0
   18.8879   -7.0169  -15.2896 C   0  0  0  0  0  0  0  0  0  0  0  0
   18.2710   -7.1882  -14.2076 O   0  0  0  0  0  0  0  0  0  0  0  0
   22.7603   -5.4064  -15.0149 C   0  0  0  0  0  0  0  0  0  0  0  0
   21.8613   -5.6613  -13.8205 C   0  0  2  0  0  0  0  0  0  0  0  0
   21.9417   -7.1575  -13.5374 C   0  0  0  0  0  0  0  0  0  0  0  0
   20.4106   -5.3587  -14.1426 C   0  0  2  0  0  0  0  0  0  0  0  0
   19.9555   -6.0947  -15.3011 N   0  0  0  0  0  0  0  0  0  0  0  0
   20.3250   -3.9126  -14.4366 C   0  0  0  0  0  0  0  0  0  0  0  0
   20.0454   -3.4208  -15.7062 O   0  0  0  0  0  0  0  0  0  0  0  0
   20.5106   -3.0909  -13.5092 O   0  0  0  0  0  0  0  0  0  0  0  0
  2  1  1  6
  2  3  1  0
  4  3  1  0
  5 11  1  0
  5  2  1  0
  6  5  2  0
  8  7  1  6
  8 10  1  0
  9  8  1  0
 10 11  1  1
 10 12  1  0
 12 18  1  0
 13 12  2  0
 15 14  1  6
 15 16  1  0
 17 19  1  0
 17 15  1  0
 17 18  1  6
 19 20  1  0
 21 19  2  0
M  END
$$$$
