CVV.pdb
     RDKit          3D

 21 20  0  0  1  0  0  0  0  0999 V2000
   24.0182  -15.1488  -19.0142 N   0  0  0  0  0  0  0  0  0  0  0  0
   24.3011  -13.7477  -18.8046 C   0  0  1  0  0  0  0  0  0  0  0  0
   24.3333  -12.9941  -20.1196 C   0  0  0  0  0  0  0  0  0  0  0  0
   25.7517  -13.4937  -21.1290 S   0  0  0  0  0  0  0  0  0  0  0  0
   23.3996  -13.1283  -17.8269 C   0  0  0  0  0  0  0  0  0  0  0  0
   22.1667  -13.3713  -17.7947 O   0  0  0  0  0  0  0  0  0  0  0  0
   23.2374  -13.2684  -14.1005 C   0  0  0  0  0  0  0  0  0  0  0  0
   23.3315  -11.8261  -14.4695 C   0  0  2  0  0  0  0  0  0  0  0  0
   22.4670  -10.9451  -13.5752 C   0  0  0  0  0  0  0  0  0  0  0  0
   22.9584  -11.5478  -15.9077 C   0  0  2  0  0  0  0  0  0  0  0  0
   23.8685  -12.1946  -16.8320 N   0  0  0  0  0  0  0  0  0  0  0  0
   22.9402  -10.0642  -16.1288 C   0  0  0  0  0  0  0  0  0  0  0  0
   24.0302   -9.4456  -16.2288 O   0  0  0  0  0  0  0  0  0  0  0  0
   21.2288   -8.0336  -18.9235 C   0  0  0  0  0  0  0  0  0  0  0  0
   20.7273   -7.5420  -17.5793 C   0  0  2  0  0  0  0  0  0  0  0  0
   20.6959   -6.0199  -17.6663 C   0  0  0  0  0  0  0  0  0  0  0  0
   21.6934   -7.8923  -16.4641 C   0  0  2  0  0  0  0  0  0  0  0  0
   21.7470   -9.3185  -16.2317 N   0  0  0  0  0  0  0  0  0  0  0  0
   21.1980   -7.2310  -15.2385 C   0  0  0  0  0  0  0  0  0  0  0  0
   20.3711   -7.8712  -14.3229 O   0  0  0  0  0  0  0  0  0  0  0  0
   21.5327   -6.0457  -15.0087 O   0  0  0  0  0  0  0  0  0  0  0  0
  2  1  1  6
  2  3  1  0
  4  3  1  0
  5 11  1  0
  5  2  1  0
  6  5  2  0
  8  7  1  1
  8 10  1  0
  9  8  1  0
 10 11  1  6
 10 12  1  0
 12 18  1  0
 13 12  2  0
 15 14  1  6
 15 16  1  0
 17 19  1  0
 17 15  1  0
 17 18  1  1
 19 20  1  0
 21 19  2  0
M  END
$$$$
