CVV.pdb
     RDKit          3D

 21 20  0  0  1  0  0  0  0  0999 V2000
   26.1524  -22.1238  -10.4382 N   0  0  0  0  0  0  0  0  0  0  0  0
   25.4130  -21.0139  -10.9935 C   0  0  1  0  0  0  0  0  0  0  0  0
   25.2223  -19.9157   -9.9660 C   0  0  0  0  0  0  0  0  0  0  0  0
   23.8850  -20.3190   -8.8132 S   0  0  0  0  0  0  0  0  0  0  0  0
   25.9955  -20.5148  -12.2441 C   0  0  0  0  0  0  0  0  0  0  0  0
   27.1916  -20.1381  -12.3302 O   0  0  0  0  0  0  0  0  0  0  0  0
   26.3677  -22.5641  -15.1045 C   0  0  0  0  0  0  0  0  0  0  0  0
   25.7933  -21.3125  -15.6779 C   0  0  2  0  0  0  0  0  0  0  0  0
   26.4659  -20.9172  -16.9874 C   0  0  0  0  0  0  0  0  0  0  0  0
   25.8643  -20.1319  -14.7365 C   0  0  2  0  0  0  0  0  0  0  0  0
   25.2322  -20.4221  -13.4648 N   0  0  0  0  0  0  0  0  0  0  0  0
   25.2216  -18.9455  -15.3922 C   0  0  0  0  0  0  0  0  0  0  0  0
   23.9710  -18.9168  -15.5175 O   0  0  0  0  0  0  0  0  0  0  0  0
   27.6484  -15.6539  -16.7111 C   0  0  0  0  0  0  0  0  0  0  0  0
   26.2162  -15.4380  -16.2616 C   0  0  2  0  0  0  0  0  0  0  0  0
   26.2705  -15.2208  -14.7533 C   0  0  0  0  0  0  0  0  0  0  0  0
   25.3696  -16.6751  -16.4910 C   0  0  2  0  0  0  0  0  0  0  0  0
   25.9587  -17.8466  -15.8814 N   0  0  0  0  0  0  0  0  0  0  0  0
   25.2989  -16.8865  -17.9522 C   0  0  0  0  0  0  0  0  0  0  0  0
   26.0048  -17.8940  -18.5992 O   0  0  0  0  0  0  0  0  0  0  0  0
   24.5755  -16.1311  -18.6422 O   0  0  0  0  0  0  0  0  0  0  0  0
  2  1  1  1
  2  3  1  0
  4  3  1  0
  5 11  1  0
  5  2  1  0
  6  5  2  0
  8  7  1  1
  8 10  1  0
  9  8  1  0
 10 11  1  1
 10 12  1  0
 12 18  1  0
 13 12  2  0
 15 14  1  1
 15 16  1  0
 17 19  1  0
 17 15  1  0
 17 18  1  1
 19 20  1  0
 21 19  2  0
M  END
$$$$
