CVV.pdb
     RDKit          3D

 21 20  0  0  1  0  0  0  0  0999 V2000
   23.3672  -12.9835  -17.6506 N   0  0  0  0  0  0  0  0  0  0  0  0
   23.4783  -11.9057  -16.6949 C   0  0  1  0  0  0  0  0  0  0  0  0
   24.9208  -11.4710  -16.5270 C   0  0  0  0  0  0  0  0  0  0  0  0
   25.9034  -12.7546  -15.7101 S   0  0  0  0  0  0  0  0  0  0  0  0
   22.5876  -10.7815  -17.0035 C   0  0  0  0  0  0  0  0  0  0  0  0
   22.4347  -10.3402  -18.1705 O   0  0  0  0  0  0  0  0  0  0  0  0
   19.1011  -10.5256  -17.2414 C   0  0  0  0  0  0  0  0  0  0  0  0
   19.4607   -9.4988  -16.2208 C   0  0  2  0  0  0  0  0  0  0  0  0
   18.5616   -8.2704  -16.2979 C   0  0  0  0  0  0  0  0  0  0  0  0
   20.8974   -9.0378  -16.3119 C   0  0  2  0  0  0  0  0  0  0  0  0
   21.8237  -10.1035  -15.9846 N   0  0  0  0  0  0  0  0  0  0  0  0
   21.0921   -7.8638  -15.3985 C   0  0  0  0  0  0  0  0  0  0  0  0
   21.0046   -8.0326  -14.1557 O   0  0  0  0  0  0  0  0  0  0  0  0
   22.1988   -4.0536  -17.0337 C   0  0  0  0  0  0  0  0  0  0  0  0
   22.6104   -4.4608  -15.6320 C   0  0  2  0  0  0  0  0  0  0  0  0
   23.9193   -5.2294  -15.7779 C   0  0  0  0  0  0  0  0  0  0  0  0
   21.6107   -5.4207  -15.0163 C   0  0  2  0  0  0  0  0  0  0  0  0
   21.3719   -6.5636  -15.8693 N   0  0  0  0  0  0  0  0  0  0  0  0
   20.3427   -4.6789  -14.8525 C   0  0  0  0  0  0  0  0  0  0  0  0
   19.2378   -4.8932  -15.6682 O   0  0  0  0  0  0  0  0  0  0  0  0
   20.2525   -3.8208  -13.9440 O   0  0  0  0  0  0  0  0  0  0  0  0
  2  1  1  6
  2  3  1  0
  4  3  1  0
  5 11  1  0
  5  2  1  0
  6  5  2  0
  8  7  1  6
  8 10  1  0
  9  8  1  0
 10 11  1  1
 10 12  1  0
 12 18  1  0
 13 12  2  0
 15 14  1  6
 15 16  1  0
 17 19  1  0
 17 15  1  0
 17 18  1  6
 19 20  1  0
 21 19  2  0
M  END
$$$$
