CVV.pdb
     RDKit          3D

 21 20  0  0  1  0  0  0  0  0999 V2000
   18.2520  -14.9116  -14.9610 N   0  0  0  0  0  0  0  0  0  0  0  0
   18.9368  -14.5594  -16.1833 C   0  0  1  0  0  0  0  0  0  0  0  0
   18.4514  -15.4044  -17.3446 C   0  0  0  0  0  0  0  0  0  0  0  0
   18.4966  -17.1687  -16.9379 S   0  0  0  0  0  0  0  0  0  0  0  0
   18.8750  -13.1225  -16.4729 C   0  0  0  0  0  0  0  0  0  0  0  0
   19.4273  -12.6109  -17.4794 O   0  0  0  0  0  0  0  0  0  0  0  0
   15.8630  -10.6571  -16.7972 C   0  0  0  0  0  0  0  0  0  0  0  0
   16.8123  -10.1624  -15.7583 C   0  0  2  0  0  0  0  0  0  0  0  0
   16.9551   -8.6450  -15.7843 C   0  0  0  0  0  0  0  0  0  0  0  0
   18.1930  -10.7678  -15.8682 C   0  0  2  0  0  0  0  0  0  0  0  0
   18.1734  -12.1954  -15.6187 N   0  0  0  0  0  0  0  0  0  0  0  0
   19.1091  -10.0715  -14.9056 C   0  0  0  0  0  0  0  0  0  0  0  0
   18.9070  -10.1916  -13.6706 O   0  0  0  0  0  0  0  0  0  0  0  0
   22.8004   -8.6117  -16.2768 C   0  0  0  0  0  0  0  0  0  0  0  0
   22.5606   -8.8689  -14.8015 C   0  0  2  0  0  0  0  0  0  0  0  0
   22.8128  -10.3565  -14.5812 C   0  0  0  0  0  0  0  0  0  0  0  0
   21.1150   -8.6136  -14.4211 C   0  0  2  0  0  0  0  0  0  0  0  0
   20.1998   -9.2790  -15.3213 N   0  0  0  0  0  0  0  0  0  0  0  0
   20.8940   -7.1550  -14.5139 C   0  0  0  0  0  0  0  0  0  0  0  0
   21.3665   -6.2626  -13.5587 O   0  0  0  0  0  0  0  0  0  0  0  0
   20.2558   -6.6970  -15.4900 O   0  0  0  0  0  0  0  0  0  0  0  0
  2  1  1  1
  2  3  1  0
  4  3  1  0
  5 11  1  0
  5  2  1  0
  6  5  2  0
  8  7  1  6
  8 10  1  0
  9  8  1  0
 10 11  1  1
 10 12  1  0
 12 18  1  0
 13 12  2  0
 15 14  1  6
 15 16  1  0
 17 19  1  0
 17 15  1  0
 17 18  1  6
 19 20  1  0
 21 19  2  0
M  END
$$$$
