CVV.pdb
     RDKit          3D

 21 20  0  0  1  0  0  0  0  0999 V2000
   30.4397  -11.2480  -18.0072 N   0  0  0  0  0  0  0  0  0  0  0  0
   31.6236  -10.4877  -18.3351 C   0  0  1  0  0  0  0  0  0  0  0  0
   31.4167   -9.6709  -19.5953 C   0  0  0  0  0  0  0  0  0  0  0  0
   31.2620  -10.7366  -21.0515 S   0  0  0  0  0  0  0  0  0  0  0  0
   32.1019   -9.6730  -17.2127 C   0  0  0  0  0  0  0  0  0  0  0  0
   31.3507   -9.3077  -16.2734 O   0  0  0  0  0  0  0  0  0  0  0  0
   35.1117  -10.3088  -14.8170 C   0  0  0  0  0  0  0  0  0  0  0  0
   35.2326   -8.9536  -15.4286 C   0  0  2  0  0  0  0  0  0  0  0  0
   35.7703   -7.9226  -14.4428 C   0  0  0  0  0  0  0  0  0  0  0  0
   33.9320   -8.4310  -15.9945 C   0  0  2  0  0  0  0  0  0  0  0  0
   33.4724   -9.2339  -17.1103 N   0  0  0  0  0  0  0  0  0  0  0  0
   34.1195   -7.0013  -16.4088 C   0  0  0  0  0  0  0  0  0  0  0  0
   35.0510   -6.7095  -17.2011 O   0  0  0  0  0  0  0  0  0  0  0  0
   31.1481   -4.4798  -17.3785 C   0  0  0  0  0  0  0  0  0  0  0  0
   32.0924   -3.8583  -16.3675 C   0  0  2  0  0  0  0  0  0  0  0  0
   32.3629   -2.4383  -16.8531 C   0  0  0  0  0  0  0  0  0  0  0  0
   33.4307   -4.5712  -16.3462 C   0  0  2  0  0  0  0  0  0  0  0  0
   33.2931   -5.9546  -15.9485 N   0  0  0  0  0  0  0  0  0  0  0  0
   34.2763   -3.8751  -15.3537 C   0  0  0  0  0  0  0  0  0  0  0  0
   34.1689   -4.1015  -13.9865 O   0  0  0  0  0  0  0  0  0  0  0  0
   35.1265   -3.0459  -15.7531 O   0  0  0  0  0  0  0  0  0  0  0  0
  2  1  1  1
  2  3  1  0
  4  3  1  0
  5 11  1  0
  5  2  1  0
  6  5  2  0
  8  7  1  1
  8 10  1  0
  9  8  1  0
 10 11  1  6
 10 12  1  0
 12 18  1  0
 13 12  2  0
 15 14  1  6
 15 16  1  0
 17 19  1  0
 17 15  1  0
 17 18  1  1
 19 20  1  0
 21 19  2  0
M  END
$$$$
