CVV.pdb
     RDKit          3D

 21 20  0  0  1  0  0  0  0  0999 V2000
   29.3371  -22.1209  -18.1467 N   0  0  0  0  0  0  0  0  0  0  0  0
   28.7411  -22.6399  -16.9374 C   0  0  1  0  0  0  0  0  0  0  0  0
   29.7924  -23.2367  -16.0227 C   0  0  0  0  0  0  0  0  0  0  0  0
   30.4846  -24.7577  -16.7210 S   0  0  0  0  0  0  0  0  0  0  0  0
   27.8991  -21.6528  -16.2526 C   0  0  0  0  0  0  0  0  0  0  0  0
   28.2644  -20.4646  -16.0668 O   0  0  0  0  0  0  0  0  0  0  0  0
   25.2558  -19.8705  -17.3827 C   0  0  0  0  0  0  0  0  0  0  0  0
   24.6769  -20.5065  -16.1638 C   0  0  2  0  0  0  0  0  0  0  0  0
   23.7086  -19.5812  -15.4359 C   0  0  0  0  0  0  0  0  0  0  0  0
   25.7209  -20.9694  -15.1735 C   0  0  2  0  0  0  0  0  0  0  0  0
   26.5893  -21.9801  -15.7438 N   0  0  0  0  0  0  0  0  0  0  0  0
   25.0327  -21.4895  -13.9461 C   0  0  0  0  0  0  0  0  0  0  0  0
   24.2933  -22.5020  -14.0402 O   0  0  0  0  0  0  0  0  0  0  0  0
   25.2901  -19.4104  -10.1111 C   0  0  0  0  0  0  0  0  0  0  0  0
   25.2829  -20.9226  -10.2264 C   0  0  2  0  0  0  0  0  0  0  0  0
   26.7377  -21.3441  -10.4028 C   0  0  0  0  0  0  0  0  0  0  0  0
   24.5451  -21.3813  -11.4694 C   0  0  2  0  0  0  0  0  0  0  0  0
   25.1750  -20.8926  -12.6757 N   0  0  0  0  0  0  0  0  0  0  0  0
   23.1776  -20.8259  -11.3908 C   0  0  0  0  0  0  0  0  0  0  0  0
   22.7390  -19.7939  -12.2122 O   0  0  0  0  0  0  0  0  0  0  0  0
   22.3756  -21.2992  -10.5526 O   0  0  0  0  0  0  0  0  0  0  0  0
  2  1  1  6
  2  3  1  0
  4  3  1  0
  5 11  1  0
  5  2  1  0
  6  5  2  0
  8  7  1  6
  8 10  1  0
  9  8  1  0
 10 11  1  6
 10 12  1  0
 12 18  1  0
 13 12  2  0
 15 14  1  6
 15 16  1  0
 17 19  1  0
 17 15  1  0
 17 18  1  6
 19 20  1  0
 21 19  2  0
M  END
$$$$
