CVV.pdb
     RDKit          3D

 21 20  0  0  1  0  0  0  0  0999 V2000
   23.0645  -13.0566  -16.9197 N   0  0  0  0  0  0  0  0  0  0  0  0
   23.5702  -11.8118  -16.3889 C   0  0  1  0  0  0  0  0  0  0  0  0
   24.9442  -11.4978  -16.9472 C   0  0  0  0  0  0  0  0  0  0  0  0
   26.2391  -12.3864  -16.0452 S   0  0  0  0  0  0  0  0  0  0  0  0
   22.6292  -10.6994  -16.5606 C   0  0  0  0  0  0  0  0  0  0  0  0
   22.0961  -10.4288  -17.6663 O   0  0  0  0  0  0  0  0  0  0  0  0
   19.2532  -10.1031  -15.8664 C   0  0  0  0  0  0  0  0  0  0  0  0
   19.9639   -9.0288  -15.1140 C   0  0  2  0  0  0  0  0  0  0  0  0
   19.1691   -7.7286  -15.0776 C   0  0  0  0  0  0  0  0  0  0  0  0
   21.3411   -8.7243  -15.6575 C   0  0  2  0  0  0  0  0  0  0  0  0
   22.2500   -9.8372  -15.4677 N   0  0  0  0  0  0  0  0  0  0  0  0
   21.8667   -7.4877  -14.9902 C   0  0  0  0  0  0  0  0  0  0  0  0
   22.1637   -7.5289  -13.7693 O   0  0  0  0  0  0  0  0  0  0  0  0
   22.6180   -3.9988  -17.3399 C   0  0  0  0  0  0  0  0  0  0  0  0
   23.4118   -4.2695  -16.0763 C   0  0  2  0  0  0  0  0  0  0  0  0
   24.5884   -5.1463  -16.4911 C   0  0  0  0  0  0  0  0  0  0  0  0
   22.6047   -5.0728  -15.0748 C   0  0  2  0  0  0  0  0  0  0  0  0
   22.0467   -6.2657  -15.6719 N   0  0  0  0  0  0  0  0  0  0  0  0
   21.4958   -4.2081  -14.6194 C   0  0  0  0  0  0  0  0  0  0  0  0
   20.1764   -4.4154  -15.0044 O   0  0  0  0  0  0  0  0  0  0  0  0
   21.7473   -3.2476  -13.8552 O   0  0  0  0  0  0  0  0  0  0  0  0
  2  1  1  6
  2  3  1  0
  4  3  1  0
  5 11  1  0
  5  2  1  0
  6  5  2  0
  8  7  1  6
  8 10  1  0
  9  8  1  0
 10 11  1  1
 10 12  1  0
 12 18  1  0
 13 12  2  0
 15 14  1  6
 15 16  1  0
 17 19  1  0
 17 15  1  0
 17 18  1  6
 19 20  1  0
 21 19  2  0
M  END
$$$$
