CVV.pdb
     RDKit          3D

 21 20  0  0  1  0  0  0  0  0999 V2000
   27.7854  -18.5766  -17.8680 N   0  0  0  0  0  0  0  0  0  0  0  0
   27.4814  -18.0704  -16.5495 C   0  0  1  0  0  0  0  0  0  0  0  0
   26.2844  -17.1408  -16.5837 C   0  0  0  0  0  0  0  0  0  0  0  0
   26.7067  -15.5532  -17.3462 S   0  0  0  0  0  0  0  0  0  0  0  0
   27.3324  -19.1377  -15.5540 C   0  0  0  0  0  0  0  0  0  0  0  0
   26.5545  -20.1114  -15.7174 O   0  0  0  0  0  0  0  0  0  0  0  0
   30.2341  -20.8536  -13.1442 C   0  0  0  0  0  0  0  0  0  0  0  0
   29.0434  -20.3370  -12.4089 C   0  0  2  0  0  0  0  0  0  0  0  0
   28.6449  -21.2427  -11.2494 C   0  0  0  0  0  0  0  0  0  0  0  0
   27.8315  -20.1391  -13.2904 C   0  0  2  0  0  0  0  0  0  0  0  0
   28.0715  -19.1423  -14.3150 N   0  0  0  0  0  0  0  0  0  0  0  0
   26.6628  -19.7513  -12.4335 C   0  0  0  0  0  0  0  0  0  0  0  0
   26.5796  -18.5713  -12.0074 O   0  0  0  0  0  0  0  0  0  0  0  0
   22.0143  -20.2791  -11.0329 C   0  0  0  0  0  0  0  0  0  0  0  0
   23.1935  -20.5464  -11.9483 C   0  0  2  0  0  0  0  0  0  0  0  0
   23.1353  -22.0296  -12.2971 C   0  0  0  0  0  0  0  0  0  0  0  0
   24.5126  -20.3205  -11.2350 C   0  0  2  0  0  0  0  0  0  0  0  0
   25.6396  -20.6548  -12.0770 N   0  0  0  0  0  0  0  0  0  0  0  0
   24.5239  -21.2092  -10.0539 C   0  0  0  0  0  0  0  0  0  0  0  0
   25.3000  -22.3604   -9.9890 O   0  0  0  0  0  0  0  0  0  0  0  0
   23.8075  -20.9197   -9.0676 O   0  0  0  0  0  0  0  0  0  0  0  0
  2  1  1  6
  2  3  1  0
  4  3  1  0
  5 11  1  0
  5  2  1  0
  6  5  2  0
  8  7  1  6
  8 10  1  0
  9  8  1  0
 10 11  1  6
 10 12  1  0
 12 18  1  0
 13 12  2  0
 15 14  1  1
 15 16  1  0
 17 19  1  0
 17 15  1  0
 17 18  1  6
 19 20  1  0
 21 19  2  0
M  END
$$$$
