CVV.pdb
     RDKit          3D

 21 20  0  0  1  0  0  0  0  0999 V2000
   17.3736  -15.0963  -17.8310 N   0  0  0  0  0  0  0  0  0  0  0  0
   17.5754  -14.2046  -16.7124 C   0  0  1  0  0  0  0  0  0  0  0  0
   18.2165  -14.9289  -15.5451 C   0  0  0  0  0  0  0  0  0  0  0  0
   17.1189  -16.2078  -14.8820 S   0  0  0  0  0  0  0  0  0  0  0  0
   18.3045  -12.9869  -17.0837 C   0  0  0  0  0  0  0  0  0  0  0  0
   19.2453  -12.9893  -17.9172 O   0  0  0  0  0  0  0  0  0  0  0  0
   17.4333   -9.9643  -18.9825 C   0  0  0  0  0  0  0  0  0  0  0  0
   17.8304   -9.5155  -17.6165 C   0  0  2  0  0  0  0  0  0  0  0  0
   18.5396   -8.1663  -17.6368 C   0  0  0  0  0  0  0  0  0  0  0  0
   18.7170  -10.5031  -16.8930 C   0  0  2  0  0  0  0  0  0  0  0  0
   17.9901  -11.6988  -16.5151 N   0  0  0  0  0  0  0  0  0  0  0  0
   19.3081   -9.8356  -15.6865 C   0  0  0  0  0  0  0  0  0  0  0  0
   18.5543   -9.5120  -14.7337 O   0  0  0  0  0  0  0  0  0  0  0  0
   23.5650   -9.5735  -15.2343 C   0  0  0  0  0  0  0  0  0  0  0  0
   22.6140   -9.5657  -14.0529 C   0  0  2  0  0  0  0  0  0  0  0  0
   22.3166  -11.0271  -13.7349 C   0  0  0  0  0  0  0  0  0  0  0  0
   21.2886   -8.9218  -14.4111 C   0  0  2  0  0  0  0  0  0  0  0  0
   20.6842   -9.5491  -15.5653 N   0  0  0  0  0  0  0  0  0  0  0  0
   21.5678   -7.5065  -14.7332 C   0  0  0  0  0  0  0  0  0  0  0  0
   21.8034   -6.5472  -13.7553 O   0  0  0  0  0  0  0  0  0  0  0  0
   21.5950   -7.1495  -15.9339 O   0  0  0  0  0  0  0  0  0  0  0  0
  2  1  1  6
  2  3  1  0
  4  3  1  0
  5 11  1  0
  5  2  1  0
  6  5  2  0
  8  7  1  6
  8 10  1  0
  9  8  1  0
 10 11  1  1
 10 12  1  0
 12 18  1  0
 13 12  2  0
 15 14  1  6
 15 16  1  0
 17 19  1  0
 17 15  1  0
 17 18  1  6
 19 20  1  0
 21 19  2  0
M  END
$$$$
