CVV.pdb
     RDKit          3D

 21 20  0  0  1  0  0  0  0  0999 V2000
   25.6053  -22.6820  -11.4384 N   0  0  0  0  0  0  0  0  0  0  0  0
   25.1199  -21.3232  -11.5099 C   0  0  1  0  0  0  0  0  0  0  0  0
   25.8821  -20.4201  -10.5605 C   0  0  0  0  0  0  0  0  0  0  0  0
   25.1767  -20.4739   -8.8932 S   0  0  0  0  0  0  0  0  0  0  0  0
   25.0972  -20.8017  -12.8809 C   0  0  0  0  0  0  0  0  0  0  0  0
   26.0688  -20.9268  -13.6684 O   0  0  0  0  0  0  0  0  0  0  0  0
   22.6959  -19.8740  -16.9859 C   0  0  0  0  0  0  0  0  0  0  0  0
   22.7753  -20.3056  -15.5602 C   0  0  2  0  0  0  0  0  0  0  0  0
   21.4826  -20.0283  -14.8015 C   0  0  0  0  0  0  0  0  0  0  0  0
   23.9144  -19.6650  -14.8005 C   0  0  2  0  0  0  0  0  0  0  0  0
   23.9536  -20.1071  -13.4206 N   0  0  0  0  0  0  0  0  0  0  0  0
   23.7748  -18.1733  -14.8779 C   0  0  0  0  0  0  0  0  0  0  0  0
   22.9820  -17.5901  -14.0956 O   0  0  0  0  0  0  0  0  0  0  0  0
   26.8170  -15.5933  -15.0205 C   0  0  0  0  0  0  0  0  0  0  0  0
   25.8314  -15.3552  -16.1483 C   0  0  2  0  0  0  0  0  0  0  0  0
   25.6491  -13.8443  -16.2439 C   0  0  0  0  0  0  0  0  0  0  0  0
   24.4682  -15.9365  -15.8264 C   0  0  2  0  0  0  0  0  0  0  0  0
   24.4971  -17.3819  -15.7957 N   0  0  0  0  0  0  0  0  0  0  0  0
   23.5487  -15.5040  -16.8999 C   0  0  0  0  0  0  0  0  0  0  0  0
   23.2889  -16.2807  -18.0229 O   0  0  0  0  0  0  0  0  0  0  0  0
   22.9766  -14.3937  -16.8006 O   0  0  0  0  0  0  0  0  0  0  0  0
  2  1  1  6
  2  3  1  0
  4  3  1  0
  5 11  1  0
  5  2  1  0
  6  5  2  0
  8  7  1  6
  8 10  1  0
  9  8  1  0
 10 11  1  1
 10 12  1  0
 12 18  1  0
 13 12  2  0
 15 14  1  1
 15 16  1  0
 17 19  1  0
 17 15  1  0
 17 18  1  6
 19 20  1  0
 21 19  2  0
M  END
$$$$
