CVV.pdb
     RDKit          3D

 21 20  0  0  1  0  0  0  0  0999 V2000
   16.1887  -12.0777  -17.4832 N   0  0  0  0  0  0  0  0  0  0  0  0
   16.5383  -11.1924  -16.3963 C   0  0  1  0  0  0  0  0  0  0  0  0
   16.8196  -11.9710  -15.1264 C   0  0  0  0  0  0  0  0  0  0  0  0
   15.3131  -12.7411  -14.4801 S   0  0  0  0  0  0  0  0  0  0  0  0
   17.6289  -10.2743  -16.7427 C   0  0  0  0  0  0  0  0  0  0  0  0
   18.5581  -10.5928  -17.5269 O   0  0  0  0  0  0  0  0  0  0  0  0
   17.7661   -7.1845  -18.7138 C   0  0  0  0  0  0  0  0  0  0  0  0
   18.2549   -6.8400  -17.3472 C   0  0  2  0  0  0  0  0  0  0  0  0
   19.3475   -5.7775  -17.3771 C   0  0  0  0  0  0  0  0  0  0  0  0
   18.7770   -8.0314  -16.5773 C   0  0  2  0  0  0  0  0  0  0  0  0
   17.7093   -8.9380  -16.2045 N   0  0  0  0  0  0  0  0  0  0  0  0
   19.5103   -7.5443  -15.3626 C   0  0  0  0  0  0  0  0  0  0  0  0
   18.8819   -6.9015  -14.4836 O   0  0  0  0  0  0  0  0  0  0  0  0
   23.6339   -8.6535  -14.7170 C   0  0  0  0  0  0  0  0  0  0  0  0
   22.6565   -8.4136  -13.5824 C   0  0  2  0  0  0  0  0  0  0  0  0
   21.9196   -9.7313  -13.3683 C   0  0  0  0  0  0  0  0  0  0  0  0
   21.6068   -7.3868  -13.9613 C   0  0  2  0  0  0  0  0  0  0  0  0
   20.8866   -7.7737  -15.1540 N   0  0  0  0  0  0  0  0  0  0  0  0
   22.3181   -6.1188  -14.2281 C   0  0  0  0  0  0  0  0  0  0  0  0
   22.8170   -5.3109  -13.2130 O   0  0  0  0  0  0  0  0  0  0  0  0
   22.4817   -5.7507  -15.4144 O   0  0  0  0  0  0  0  0  0  0  0  0
  2  1  1  6
  2  3  1  0
  4  3  1  0
  5 11  1  0
  5  2  1  0
  6  5  2  0
  8  7  1  6
  8 10  1  0
  9  8  1  0
 10 11  1  1
 10 12  1  0
 12 18  1  0
 13 12  2  0
 15 14  1  6
 15 16  1  0
 17 19  1  0
 17 15  1  0
 17 18  1  6
 19 20  1  0
 21 19  2  0
M  END
$$$$
