CVV.pdb
     RDKit          3D

 21 20  0  0  1  0  0  0  0  0999 V2000
   25.7552  -20.3032   -8.8793 N   0  0  0  0  0  0  0  0  0  0  0  0
   24.8704  -20.6572   -9.9651 C   0  0  1  0  0  0  0  0  0  0  0  0
   23.4286  -20.3396   -9.6207 C   0  0  0  0  0  0  0  0  0  0  0  0
   22.9217  -21.1635   -8.0895 S   0  0  0  0  0  0  0  0  0  0  0  0
   25.2820  -20.0701  -11.2450 C   0  0  0  0  0  0  0  0  0  0  0  0
   25.4802  -18.8375  -11.3913 O   0  0  0  0  0  0  0  0  0  0  0  0
   28.2493  -21.1512  -13.3608 C   0  0  0  0  0  0  0  0  0  0  0  0
   27.0821  -21.0306  -14.2819 C   0  0  2  0  0  0  0  0  0  0  0  0
   27.4536  -20.3558  -15.5973 C   0  0  0  0  0  0  0  0  0  0  0  0
   25.9161  -20.2802  -13.6801 C   0  0  2  0  0  0  0  0  0  0  0  0
   25.4882  -20.8707  -12.4274 N   0  0  0  0  0  0  0  0  0  0  0  0
   24.7887  -20.2554  -14.6695 C   0  0  0  0  0  0  0  0  0  0  0  0
   24.9596  -19.6909  -15.7799 O   0  0  0  0  0  0  0  0  0  0  0  0
   21.3662  -22.7841  -14.2942 C   0  0  0  0  0  0  0  0  0  0  0  0
   21.7487  -22.0631  -15.5724 C   0  0  2  0  0  0  0  0  0  0  0  0
   22.8245  -22.9150  -16.2373 C   0  0  0  0  0  0  0  0  0  0  0  0
   22.3810  -20.7156  -15.2821 C   0  0  2  0  0  0  0  0  0  0  0  0
   23.5307  -20.8406  -14.4140 N   0  0  0  0  0  0  0  0  0  0  0  0
   21.3585  -19.8958  -14.5986 C   0  0  0  0  0  0  0  0  0  0  0  0
   20.3035  -19.2952  -15.2756 O   0  0  0  0  0  0  0  0  0  0  0  0
   21.4392  -19.7310  -13.3592 O   0  0  0  0  0  0  0  0  0  0  0  0
  2  1  1  1
  2  3  1  0
  4  3  1  0
  5 11  1  0
  5  2  1  0
  6  5  2  0
  8  7  1  1
  8 10  1  0
  9  8  1  0
 10 11  1  1
 10 12  1  0
 12 18  1  0
 13 12  2  0
 15 14  1  1
 15 16  1  0
 17 19  1  0
 17 15  1  0
 17 18  1  1
 19 20  1  0
 21 19  2  0
M  END
$$$$
