YIP.pdb
     RDKit          3D

 28 29  0  0  1  0  0  0  0  0999 V2000
   16.0939  -16.0409  -16.7631 O   0  0  0  0  0  0  0  0  0  0  0  0
   17.2727  -16.7959  -16.6622 C   0  0  0  0  0  0  0  0  0  0  0  0
   17.4764  -17.9286  -17.4247 C   0  0  0  0  0  0  0  0  0  0  0  0
   18.6242  -18.6586  -17.3224 C   0  0  0  0  0  0  0  0  0  0  0  0
   19.6011  -18.2480  -16.4323 C   0  0  0  0  0  0  0  0  0  0  0  0
   20.8492  -19.0533  -16.3301 C   0  0  0  0  0  0  0  0  0  0  0  0
   21.9542  -18.2695  -17.0196 C   0  0  2  0  0  0  0  0  0  0  0  0
   21.8018  -18.2975  -18.4461 N   0  0  0  0  0  0  0  0  0  0  0  0
   23.2458  -18.8392  -16.6258 C   0  0  0  0  0  0  0  0  0  0  0  0
   23.5382  -19.9736  -17.0965 O   0  0  0  0  0  0  0  0  0  0  0  0
   19.4498  -17.1215  -15.6439 C   0  0  0  0  0  0  0  0  0  0  0  0
   18.2710  -16.4216  -15.7878 C   0  0  0  0  0  0  0  0  0  0  0  0
   26.8659  -15.3751  -15.3548 C   0  0  0  0  0  0  0  0  0  0  0  0
   26.6502  -16.8056  -15.9349 C   0  0  0  0  0  0  0  0  0  0  0  0
   26.3115  -17.7371  -14.8149 C   0  0  2  0  0  0  0  0  0  0  0  0
   27.5873  -18.3464  -14.2615 C   0  0  0  0  0  0  0  0  0  0  0  0
   25.3044  -18.7545  -15.1994 C   0  0  2  0  0  0  0  0  0  0  0  0
   24.1160  -18.1401  -15.7579 N   0  0  0  0  0  0  0  0  0  0  0  0
   24.9765  -19.7404  -14.1746 C   0  0  0  0  0  0  0  0  0  0  0  0
   24.2443  -19.3274  -13.1834 O   0  0  0  0  0  0  0  0  0  0  0  0
   25.3396  -21.0964  -14.0948 N   0  0  0  0  0  0  0  0  0  0  0  0
   26.1698  -21.8384  -15.0094 C   0  0  0  0  0  0  0  0  0  0  0  0
   26.3828  -23.2038  -14.3611 C   0  0  0  0  0  0  0  0  0  0  0  0
   25.0610  -23.3568  -13.6352 C   0  0  0  0  0  0  0  0  0  0  0  0
   24.9085  -22.0034  -13.0227 C   0  0  1  0  0  0  0  0  0  0  0  0
   25.7221  -21.8113  -11.8052 C   0  0  0  0  0  0  0  0  0  0  0  0
   25.3782  -22.2826  -10.5473 O   0  0  0  0  0  0  0  0  0  0  0  0
   26.8031  -21.1787  -11.9029 O   0  0  0  0  0  0  0  0  0  0  0  0
  1  2  1  0
  2 12  2  0
  3  4  2  0
  3  2  1  0
  4  5  1  0
  5 11  2  0
  5  6  1  0
  7  6  1  0
  7  8  1  6
  9  7  1  0
  9 10  2  0
 12 11  1  0
 14 15  1  0
 14 13  1  0
 15 17  1  0
 15 16  1  6
 17 18  1  1
 17 19  1  0
 18  9  1  0
 19 21  1  0
 20 19  2  0
 21 25  1  0
 21 22  1  0
 23 22  1  0
 24 25  1  0
 24 23  1  0
 26 27  1  0
 25 26  1  1
 28 26  2  0
M  END
$$$$
