YIP.pdb
     RDKit          3D

 28 29  0  0  1  0  0  0  0  0999 V2000
   24.4624  -22.8258  -23.6383 O   0  0  0  0  0  0  0  0  0  0  0  0
   24.9903  -22.8268  -22.3378 C   0  0  0  0  0  0  0  0  0  0  0  0
   26.0915  -23.5888  -22.0023 C   0  0  0  0  0  0  0  0  0  0  0  0
   26.6004  -23.5860  -20.7367 C   0  0  0  0  0  0  0  0  0  0  0  0
   25.9935  -22.7991  -19.7735 C   0  0  0  0  0  0  0  0  0  0  0  0
   26.5585  -22.8046  -18.3960 C   0  0  0  0  0  0  0  0  0  0  0  0
   27.5330  -21.6420  -18.2992 C   0  0  2  0  0  0  0  0  0  0  0  0
   28.8590  -22.0398  -18.6769 N   0  0  0  0  0  0  0  0  0  0  0  0
   27.5171  -21.1331  -16.9249 C   0  0  0  0  0  0  0  0  0  0  0  0
   28.4452  -21.5190  -16.1610 O   0  0  0  0  0  0  0  0  0  0  0  0
   24.8881  -22.0163  -20.0541 C   0  0  0  0  0  0  0  0  0  0  0  0
   24.4157  -22.0572  -21.3485 C   0  0  0  0  0  0  0  0  0  0  0  0
   27.2220  -16.0553  -16.1898 C   0  0  0  0  0  0  0  0  0  0  0  0
   27.5333  -17.5683  -15.9817 C   0  0  0  0  0  0  0  0  0  0  0  0
   26.4138  -18.1922  -15.2109 C   0  0  2  0  0  0  0  0  0  0  0  0
   26.3307  -17.5546  -13.8355 C   0  0  0  0  0  0  0  0  0  0  0  0
   26.5076  -19.6707  -15.1581 C   0  0  2  0  0  0  0  0  0  0  0  0
   26.5032  -20.2504  -16.4869 N   0  0  0  0  0  0  0  0  0  0  0  0
   25.5571  -20.3346  -14.2719 C   0  0  0  0  0  0  0  0  0  0  0  0
   24.3845  -20.5961  -14.7678 O   0  0  0  0  0  0  0  0  0  0  0  0
   25.7200  -20.7426  -12.9362 N   0  0  0  0  0  0  0  0  0  0  0  0
   26.8919  -20.5971  -12.1105 C   0  0  0  0  0  0  0  0  0  0  0  0
   26.4713  -21.0423  -10.7123 C   0  0  0  0  0  0  0  0  0  0  0  0
   25.4508  -22.1035  -11.0725 C   0  0  0  0  0  0  0  0  0  0  0  0
   24.6774  -21.4095  -12.1451 C   0  0  1  0  0  0  0  0  0  0  0  0
   23.6968  -20.4336  -11.6284 C   0  0  0  0  0  0  0  0  0  0  0  0
   22.4466  -20.7647  -11.1283 O   0  0  0  0  0  0  0  0  0  0  0  0
   24.0048  -19.2156  -11.6371 O   0  0  0  0  0  0  0  0  0  0  0  0
  1  2  1  0
  2 12  2  0
  3  4  2  0
  3  2  1  0
  4  5  1  0
  5 11  2  0
  5  6  1  0
  7  6  1  0
  7  8  1  1
  9  7  1  0
  9 10  2  0
 12 11  1  0
 14 15  1  0
 14 13  1  0
 15 17  1  0
 15 16  1  1
 17 18  1  6
 17 19  1  0
 18  9  1  0
 19 21  1  0
 20 19  2  0
 21 25  1  0
 21 22  1  0
 23 22  1  0
 24 25  1  0
 24 23  1  0
 26 27  1  0
 25 26  1  1
 28 26  2  0
M  END
$$$$
