YIP.pdb
     RDKit          3D

 28 29  0  0  1  0  0  0  0  0999 V2000
   40.6331   -0.9854   -3.4571 O   0  0  0  0  0  0  0  0  0  0  0  0
   41.0058   -2.1170   -4.1991 C   0  0  0  0  0  0  0  0  0  0  0  0
   40.1062   -2.7836   -5.0069 C   0  0  0  0  0  0  0  0  0  0  0  0
   40.4740   -3.8829   -5.7258 C   0  0  0  0  0  0  0  0  0  0  0  0
   41.7795   -4.3337   -5.6380 C   0  0  0  0  0  0  0  0  0  0  0  0
   42.1684   -5.5344   -6.4277 C   0  0  0  0  0  0  0  0  0  0  0  0
   41.7708   -6.7590   -5.6196 C   0  0  2  0  0  0  0  0  0  0  0  0
   42.6319   -6.9380   -4.4857 N   0  0  0  0  0  0  0  0  0  0  0  0
   41.8189   -7.9324   -6.4963 C   0  0  0  0  0  0  0  0  0  0  0  0
   42.9615   -8.3891   -6.7788 O   0  0  0  0  0  0  0  0  0  0  0  0
   42.7220   -3.7046   -4.8446 C   0  0  0  0  0  0  0  0  0  0  0  0
   42.2962   -2.5989   -4.1400 C   0  0  0  0  0  0  0  0  0  0  0  0
   37.7191  -11.6184   -6.3126 C   0  0  0  0  0  0  0  0  0  0  0  0
   39.0726  -10.8457   -6.3308 C   0  0  0  0  0  0  0  0  0  0  0  0
   39.3928  -10.4617   -7.7403 C   0  0  2  0  0  0  0  0  0  0  0  0
   39.3805  -11.7014   -8.6168 C   0  0  0  0  0  0  0  0  0  0  0  0
   40.6518   -9.6871   -7.8521 C   0  0  2  0  0  0  0  0  0  0  0  0
   40.6327   -8.5171   -6.9963 N   0  0  0  0  0  0  0  0  0  0  0  0
   41.0768   -9.3612   -9.2095 C   0  0  0  0  0  0  0  0  0  0  0  0
   40.3516   -8.4964   -9.8541 O   0  0  0  0  0  0  0  0  0  0  0  0
   42.1735   -9.8503   -9.9411 N   0  0  0  0  0  0  0  0  0  0  0  0
   43.1760  -10.7865   -9.4998 C   0  0  0  0  0  0  0  0  0  0  0  0
   44.0184  -11.1031  -10.7326 C   0  0  0  0  0  0  0  0  0  0  0  0
   43.9347   -9.7729  -11.4543 C   0  0  0  0  0  0  0  0  0  0  0  0
   42.4794   -9.4641  -11.3249 C   0  0  1  0  0  0  0  0  0  0  0  0
   41.6318  -10.2030  -12.2823 C   0  0  0  0  0  0  0  0  0  0  0  0
   41.4548   -9.8495  -13.6114 O   0  0  0  0  0  0  0  0  0  0  0  0
   41.0236  -11.2248  -11.8767 O   0  0  0  0  0  0  0  0  0  0  0  0
  1  2  1  0
  2 12  2  0
  3  4  2  0
  3  2  1  0
  4  5  1  0
  5 11  2  0
  5  6  1  0
  7  6  1  0
  7  8  1  1
  9  7  1  0
  9 10  2  0
 12 11  1  0
 14 15  1  0
 14 13  1  0
 15 17  1  0
 15 16  1  6
 17 18  1  1
 17 19  1  0
 18  9  1  0
 19 21  1  0
 20 19  2  0
 21 25  1  0
 21 22  1  0
 23 22  1  0
 24 25  1  0
 24 23  1  0
 26 27  1  0
 25 26  1  6
 28 26  2  0
M  END
$$$$
