YIP.pdb
     RDKit          3D

 28 29  0  0  1  0  0  0  0  0999 V2000
   19.0708  -18.3390  -13.3095 O   0  0  0  0  0  0  0  0  0  0  0  0
   20.0811  -18.9063  -12.5175 C   0  0  0  0  0  0  0  0  0  0  0  0
   20.8721  -18.1358  -11.6888 C   0  0  0  0  0  0  0  0  0  0  0  0
   21.8526  -18.6926  -10.9212 C   0  0  0  0  0  0  0  0  0  0  0  0
   22.0525  -20.0608  -10.9801 C   0  0  0  0  0  0  0  0  0  0  0  0
   23.1258  -20.6562  -10.1373 C   0  0  0  0  0  0  0  0  0  0  0  0
   24.4111  -20.6256  -10.9484 C   0  0  2  0  0  0  0  0  0  0  0  0
   24.2940  -21.4139  -12.1417 N   0  0  0  0  0  0  0  0  0  0  0  0
   25.5053  -21.1190  -10.1075 C   0  0  0  0  0  0  0  0  0  0  0  0
   25.4390  -22.3218   -9.7298 O   0  0  0  0  0  0  0  0  0  0  0  0
   21.2897  -20.8802  -11.7925 C   0  0  0  0  0  0  0  0  0  0  0  0
   20.3132  -20.2651  -12.5465 C   0  0  0  0  0  0  0  0  0  0  0  0
   30.2679  -21.6450  -11.5221 C   0  0  0  0  0  0  0  0  0  0  0  0
   28.8956  -21.7025  -10.7855 C   0  0  0  0  0  0  0  0  0  0  0  0
   28.9436  -20.7935   -9.5988 C   0  0  2  0  0  0  0  0  0  0  0  0
   30.1033  -21.1922   -8.7038 C   0  0  0  0  0  0  0  0  0  0  0  0
   27.6516  -20.7256   -8.8753 C   0  0  2  0  0  0  0  0  0  0  0  0
   26.5805  -20.2764   -9.7429 N   0  0  0  0  0  0  0  0  0  0  0  0
   27.6705  -19.9957   -7.6119 C   0  0  0  0  0  0  0  0  0  0  0  0
   27.3583  -18.7351   -7.6638 O   0  0  0  0  0  0  0  0  0  0  0  0
   27.9813  -20.4580   -6.3208 N   0  0  0  0  0  0  0  0  0  0  0  0
   28.4954  -21.7525   -5.9518 C   0  0  0  0  0  0  0  0  0  0  0  0
   28.8175  -21.6612   -4.4626 C   0  0  0  0  0  0  0  0  0  0  0  0
   27.7400  -20.6907   -4.0218 C   0  0  0  0  0  0  0  0  0  0  0  0
   27.8210  -19.6591   -5.0986 C   0  0  1  0  0  0  0  0  0  0  0  0
   28.9448  -18.7161   -4.9291 C   0  0  0  0  0  0  0  0  0  0  0  0
   29.0014  -17.7264   -3.9595 O   0  0  0  0  0  0  0  0  0  0  0  0
   29.9237  -18.8065   -5.7115 O   0  0  0  0  0  0  0  0  0  0  0  0
  1  2  1  0
  2 12  2  0
  3  4  2  0
  3  2  1  0
  4  5  1  0
  5 11  2  0
  5  6  1  0
  7  6  1  0
  7  8  1  6
  9  7  1  0
  9 10  2  0
 12 11  1  0
 14 15  1  0
 14 13  1  0
 15 17  1  0
 15 16  1  1
 17 18  1  6
 17 19  1  0
 18  9  1  0
 19 21  1  0
 20 19  2  0
 21 25  1  0
 21 22  1  0
 23 22  1  0
 24 25  1  0
 24 23  1  0
 26 27  1  0
 25 26  1  1
 28 26  2  0
M  END
$$$$
