YIP.pdb
     RDKit          3D

 28 29  0  0  1  0  0  0  0  0999 V2000
   20.5885  -20.5117  -13.6848 O   0  0  0  0  0  0  0  0  0  0  0  0
   21.8345  -20.4092  -13.0468 C   0  0  0  0  0  0  0  0  0  0  0  0
   22.6556  -19.3147  -13.2300 C   0  0  0  0  0  0  0  0  0  0  0  0
   23.8657  -19.2204  -12.6073 C   0  0  0  0  0  0  0  0  0  0  0  0
   24.2717  -20.2489  -11.7752 C   0  0  0  0  0  0  0  0  0  0  0  0
   25.5943  -20.1339  -11.1013 C   0  0  0  0  0  0  0  0  0  0  0  0
   25.3550  -20.2562   -9.6051 C   0  0  2  0  0  0  0  0  0  0  0  0
   24.3113  -19.3729   -9.1697 N   0  0  0  0  0  0  0  0  0  0  0  0
   26.6087  -19.9601   -8.9064 C   0  0  0  0  0  0  0  0  0  0  0  0
   27.6690  -20.0034   -9.5903 O   0  0  0  0  0  0  0  0  0  0  0  0
   23.4894  -21.3683  -11.5555 C   0  0  0  0  0  0  0  0  0  0  0  0
   22.2767  -21.4116  -12.2097 C   0  0  0  0  0  0  0  0  0  0  0  0
   27.1998  -16.0270   -5.2370 C   0  0  0  0  0  0  0  0  0  0  0  0
   27.4691  -17.0542   -6.3779 C   0  0  0  0  0  0  0  0  0  0  0  0
   27.7270  -18.3966   -5.7710 C   0  0  2  0  0  0  0  0  0  0  0  0
   28.9310  -18.3114   -4.8498 C   0  0  0  0  0  0  0  0  0  0  0  0
   27.8497  -19.4708   -6.7850 C   0  0  2  0  0  0  0  0  0  0  0  0
   26.6171  -19.6416   -7.5289 N   0  0  0  0  0  0  0  0  0  0  0  0
   28.3728  -20.7437   -6.2995 C   0  0  0  0  0  0  0  0  0  0  0  0
   27.5174  -21.5511   -5.7467 O   0  0  0  0  0  0  0  0  0  0  0  0
   29.6880  -21.2395   -6.3395 N   0  0  0  0  0  0  0  0  0  0  0  0
   30.8408  -20.6228   -6.9454 C   0  0  0  0  0  0  0  0  0  0  0  0
   32.0320  -21.4897   -6.5464 C   0  0  0  0  0  0  0  0  0  0  0  0
   31.3592  -22.8466   -6.4881 C   0  0  0  0  0  0  0  0  0  0  0  0
   30.1056  -22.5168   -5.7465 C   0  0  1  0  0  0  0  0  0  0  0  0
   30.2993  -22.3874   -4.2882 C   0  0  0  0  0  0  0  0  0  0  0  0
   30.4528  -23.4556   -3.4175 O   0  0  0  0  0  0  0  0  0  0  0  0
   30.3289  -21.2346   -3.7895 O   0  0  0  0  0  0  0  0  0  0  0  0
  1  2  1  0
  2 12  2  0
  3  4  2  0
  3  2  1  0
  4  5  1  0
  5 11  2  0
  5  6  1  0
  7  6  1  0
  7  8  1  1
  9  7  1  0
  9 10  2  0
 12 11  1  0
 14 15  1  0
 14 13  1  0
 15 17  1  0
 15 16  1  6
 17 18  1  1
 17 19  1  0
 18  9  1  0
 19 21  1  0
 20 19  2  0
 21 25  1  0
 21 22  1  0
 23 22  1  0
 24 25  1  0
 24 23  1  0
 26 27  1  0
 25 26  1  1
 28 26  2  0
M  END
$$$$
