YIP.pdb
     RDKit          3D

 28 29  0  0  1  0  0  0  0  0999 V2000
   17.9177  -23.8783  -14.6330 O   0  0  0  0  0  0  0  0  0  0  0  0
   19.2291  -23.4313  -14.4088 C   0  0  0  0  0  0  0  0  0  0  0  0
   20.0735  -23.1073  -15.4519 C   0  0  0  0  0  0  0  0  0  0  0  0
   21.3473  -22.6734  -15.2280 C   0  0  0  0  0  0  0  0  0  0  0  0
   21.7953  -22.5582  -13.9237 C   0  0  0  0  0  0  0  0  0  0  0  0
   23.1874  -22.0834  -13.6928 C   0  0  0  0  0  0  0  0  0  0  0  0
   23.1024  -20.6505  -13.1925 C   0  0  2  0  0  0  0  0  0  0  0  0
   22.7298  -19.7510  -14.2466 N   0  0  0  0  0  0  0  0  0  0  0  0
   24.4017  -20.2757  -12.6275 C   0  0  0  0  0  0  0  0  0  0  0  0
   25.1787  -19.6129  -13.3697 O   0  0  0  0  0  0  0  0  0  0  0  0
   20.9923  -22.8691  -12.8412 C   0  0  0  0  0  0  0  0  0  0  0  0
   19.7148  -23.3025  -13.1249 C   0  0  0  0  0  0  0  0  0  0  0  0
   26.7211  -19.1449   -7.0726 C   0  0  0  0  0  0  0  0  0  0  0  0
   27.0416  -19.4596   -8.5651 C   0  0  0  0  0  0  0  0  0  0  0  0
   25.7989  -19.9547   -9.2341 C   0  0  2  0  0  0  0  0  0  0  0  0
   25.2815  -21.1772   -8.4972 C   0  0  0  0  0  0  0  0  0  0  0  0
   25.9836  -20.1900  -10.6859 C   0  0  2  0  0  0  0  0  0  0  0  0
   24.7569  -20.6456  -11.3099 N   0  0  0  0  0  0  0  0  0  0  0  0
   27.1229  -21.0248  -11.0527 C   0  0  0  0  0  0  0  0  0  0  0  0
   26.9867  -22.3051  -10.8756 O   0  0  0  0  0  0  0  0  0  0  0  0
   28.3709  -20.6471  -11.5790 N   0  0  0  0  0  0  0  0  0  0  0  0
   28.8140  -19.3194  -11.9214 C   0  0  0  0  0  0  0  0  0  0  0  0
   30.2926  -19.4547  -12.2756 C   0  0  0  0  0  0  0  0  0  0  0  0
   30.2918  -20.8488  -12.8703 C   0  0  0  0  0  0  0  0  0  0  0  0
   29.4595  -21.5880  -11.8748 C   0  0  1  0  0  0  0  0  0  0  0  0
   30.1940  -21.9537  -10.6468 C   0  0  0  0  0  0  0  0  0  0  0  0
   31.1100  -22.9908  -10.5579 O   0  0  0  0  0  0  0  0  0  0  0  0
   29.9831  -21.2862   -9.6035 O   0  0  0  0  0  0  0  0  0  0  0  0
  1  2  1  0
  2 12  2  0
  3  4  2  0
  3  2  1  0
  4  5  1  0
  5 11  2  0
  5  6  1  0
  7  6  1  0
  7  8  1  6
  9  7  1  0
  9 10  2  0
 12 11  1  0
 14 15  1  0
 14 13  1  0
 15 17  1  0
 15 16  1  1
 17 18  1  1
 17 19  1  0
 18  9  1  0
 19 21  1  0
 20 19  2  0
 21 25  1  0
 21 22  1  0
 23 22  1  0
 24 25  1  0
 24 23  1  0
 26 27  1  0
 25 26  1  1
 28 26  2  0
M  END
$$$$
