YIP.pdb
     RDKit          3D

 28 29  0  0  1  0  0  0  0  0999 V2000
   21.0047  -19.6114  -13.1349 O   0  0  0  0  0  0  0  0  0  0  0  0
   21.9799  -19.8886  -12.1643 C   0  0  0  0  0  0  0  0  0  0  0  0
   22.8377  -18.9125  -11.6982 C   0  0  0  0  0  0  0  0  0  0  0  0
   23.7836  -19.1876  -10.7547 C   0  0  0  0  0  0  0  0  0  0  0  0
   23.8791  -20.4761  -10.2589 C   0  0  0  0  0  0  0  0  0  0  0  0
   24.9156  -20.7634   -9.2294 C   0  0  0  0  0  0  0  0  0  0  0  0
   26.2166  -20.1386   -9.7066 C   0  0  2  0  0  0  0  0  0  0  0  0
   26.6816  -20.7593  -10.9139 N   0  0  0  0  0  0  0  0  0  0  0  0
   27.2144  -20.2673   -8.6410 C   0  0  0  0  0  0  0  0  0  0  0  0
   27.8996  -21.3275   -8.6237 O   0  0  0  0  0  0  0  0  0  0  0  0
   23.0459  -21.4926  -10.6900 C   0  0  0  0  0  0  0  0  0  0  0  0
   22.1085  -21.1591  -11.6443 C   0  0  0  0  0  0  0  0  0  0  0  0
   30.1933  -16.0363   -6.6535 C   0  0  0  0  0  0  0  0  0  0  0  0
   29.7032  -17.4166   -7.1865 C   0  0  0  0  0  0  0  0  0  0  0  0
   28.8458  -18.0620   -6.1449 C   0  0  2  0  0  0  0  0  0  0  0  0
   29.6080  -18.1284   -4.8335 C   0  0  0  0  0  0  0  0  0  0  0  0
   28.3160  -19.3786   -6.5730 C   0  0  2  0  0  0  0  0  0  0  0  0
   27.3920  -19.2436   -7.6820 N   0  0  0  0  0  0  0  0  0  0  0  0
   27.7717  -20.2184   -5.5109 C   0  0  0  0  0  0  0  0  0  0  0  0
   26.4887  -20.1500   -5.3153 O   0  0  0  0  0  0  0  0  0  0  0  0
   28.4377  -21.1081   -4.6495 N   0  0  0  0  0  0  0  0  0  0  0  0
   29.8366  -21.4537   -4.6547 C   0  0  0  0  0  0  0  0  0  0  0  0
   30.0556  -22.3129   -3.4123 C   0  0  0  0  0  0  0  0  0  0  0  0
   28.7079  -23.0016   -3.3306 C   0  0  0  0  0  0  0  0  0  0  0  0
   27.7816  -21.8545   -3.5678 C   0  0  1  0  0  0  0  0  0  0  0  0
   27.5818  -21.0015   -2.3789 C   0  0  0  0  0  0  0  0  0  0  0  0
   26.7200  -21.2983   -1.3340 O   0  0  0  0  0  0  0  0  0  0  0  0
   28.2322  -19.9297   -2.2967 O   0  0  0  0  0  0  0  0  0  0  0  0
  1  2  1  0
  2 12  2  0
  3  4  2  0
  3  2  1  0
  4  5  1  0
  5 11  2  0
  5  6  1  0
  7  6  1  0
  7  8  1  6
  9  7  1  0
  9 10  2  0
 12 11  1  0
 14 15  1  0
 14 13  1  0
 15 17  1  0
 15 16  1  1
 17 18  1  6
 17 19  1  0
 18  9  1  0
 19 21  1  0
 20 19  2  0
 21 25  1  0
 21 22  1  0
 23 22  1  0
 24 25  1  0
 24 23  1  0
 26 27  1  0
 25 26  1  1
 28 26  2  0
M  END
$$$$
