YIP.pdb
     RDKit          3D

 28 29  0  0  1  0  0  0  0  0999 V2000
   20.1077  -18.2857  -18.2747 O   0  0  0  0  0  0  0  0  0  0  0  0
   20.4065  -19.1521  -17.2116 C   0  0  0  0  0  0  0  0  0  0  0  0
   19.4879  -19.4250  -16.2178 C   0  0  0  0  0  0  0  0  0  0  0  0
   19.7837  -20.2679  -15.1870 C   0  0  0  0  0  0  0  0  0  0  0  0
   21.0345  -20.8586  -15.1437 C   0  0  0  0  0  0  0  0  0  0  0  0
   21.3450  -21.7768  -14.0136 C   0  0  0  0  0  0  0  0  0  0  0  0
   21.5876  -20.9180  -12.7830 C   0  0  2  0  0  0  0  0  0  0  0  0
   20.6895  -19.7997  -12.7417 N   0  0  0  0  0  0  0  0  0  0  0  0
   22.9806  -20.4628  -12.7990 C   0  0  0  0  0  0  0  0  0  0  0  0
   23.1853  -19.2583  -13.1175 O   0  0  0  0  0  0  0  0  0  0  0  0
   21.9929  -20.6209  -16.1124 C   0  0  0  0  0  0  0  0  0  0  0  0
   21.6408  -19.7612  -17.1309 C   0  0  0  0  0  0  0  0  0  0  0  0
   25.6404  -20.1098   -9.7473 C   0  0  0  0  0  0  0  0  0  0  0  0
   25.7336  -21.6073  -10.1693 C   0  0  0  0  0  0  0  0  0  0  0  0
   26.2601  -21.6856  -11.5669 C   0  0  2  0  0  0  0  0  0  0  0  0
   27.7172  -21.2594  -11.5823 C   0  0  0  0  0  0  0  0  0  0  0  0
   25.4277  -20.9343  -12.5366 C   0  0  2  0  0  0  0  0  0  0  0  0
   24.0380  -21.3420  -12.4707 N   0  0  0  0  0  0  0  0  0  0  0  0
   25.9222  -20.9078  -13.9092 C   0  0  0  0  0  0  0  0  0  0  0  0
   25.7057  -21.9701  -14.6260 O   0  0  0  0  0  0  0  0  0  0  0  0
   26.6113  -19.8873  -14.5881 N   0  0  0  0  0  0  0  0  0  0  0  0
   27.1316  -18.6620  -14.0366 C   0  0  0  0  0  0  0  0  0  0  0  0
   27.9334  -18.0098  -15.1598 C   0  0  0  0  0  0  0  0  0  0  0  0
   27.1291  -18.4737  -16.3577 C   0  0  0  0  0  0  0  0  0  0  0  0
   26.9176  -19.9140  -16.0245 C   0  0  1  0  0  0  0  0  0  0  0  0
   28.0941  -20.7628  -16.3011 C   0  0  0  0  0  0  0  0  0  0  0  0
   28.5041  -21.1498  -17.5679 O   0  0  0  0  0  0  0  0  0  0  0  0
   28.7794  -21.1689  -15.3295 O   0  0  0  0  0  0  0  0  0  0  0  0
  1  2  1  0
  2 12  2  0
  3  4  2  0
  3  2  1  0
  4  5  1  0
  5 11  2  0
  5  6  1  0
  7  6  1  0
  7  8  1  6
  9  7  1  0
  9 10  2  0
 12 11  1  0
 14 15  1  0
 14 13  1  0
 15 17  1  0
 15 16  1  1
 17 18  1  6
 17 19  1  0
 18  9  1  0
 19 21  1  0
 20 19  2  0
 21 25  1  0
 21 22  1  0
 23 22  1  0
 24 25  1  0
 24 23  1  0
 26 27  1  0
 25 26  1  1
 28 26  2  0
M  END
$$$$
