YIP.pdb
     RDKit          3D

 28 29  0  0  1  0  0  0  0  0999 V2000
   21.8942  -17.6810  -17.0569 O   0  0  0  0  0  0  0  0  0  0  0  0
   22.2724  -18.4142  -15.9214 C   0  0  0  0  0  0  0  0  0  0  0  0
   22.4416  -19.7837  -15.9652 C   0  0  0  0  0  0  0  0  0  0  0  0
   22.8093  -20.4913  -14.8585 C   0  0  0  0  0  0  0  0  0  0  0  0
   23.0154  -19.8139  -13.6694 C   0  0  0  0  0  0  0  0  0  0  0  0
   23.4167  -20.5976  -12.4688 C   0  0  0  0  0  0  0  0  0  0  0  0
   24.9146  -20.4150  -12.2858 C   0  0  2  0  0  0  0  0  0  0  0  0
   25.6456  -20.9543  -13.3966 N   0  0  0  0  0  0  0  0  0  0  0  0
   25.3151  -21.0683  -11.0365 C   0  0  0  0  0  0  0  0  0  0  0  0
   25.2830  -22.3302  -11.0149 O   0  0  0  0  0  0  0  0  0  0  0  0
   22.8603  -18.4431  -13.5685 C   0  0  0  0  0  0  0  0  0  0  0  0
   22.4877  -17.7782  -14.7172 C   0  0  0  0  0  0  0  0  0  0  0  0
   27.6050  -18.2781   -6.4328 C   0  0  0  0  0  0  0  0  0  0  0  0
   26.6255  -18.7929   -7.5304 C   0  0  0  0  0  0  0  0  0  0  0  0
   26.9299  -20.2288   -7.8173 C   0  0  2  0  0  0  0  0  0  0  0  0
   28.2952  -20.3343   -8.4731 C   0  0  0  0  0  0  0  0  0  0  0  0
   25.8609  -20.8974   -8.5968 C   0  0  2  0  0  0  0  0  0  0  0  0
   25.7173  -20.3088   -9.9138 N   0  0  0  0  0  0  0  0  0  0  0  0
   24.5755  -21.0360   -7.9199 C   0  0  0  0  0  0  0  0  0  0  0  0
   23.6693  -20.1491   -8.2053 O   0  0  0  0  0  0  0  0  0  0  0  0
   24.1598  -22.0025   -6.9871 N   0  0  0  0  0  0  0  0  0  0  0  0
   24.8951  -23.1539   -6.5289 C   0  0  0  0  0  0  0  0  0  0  0  0
   24.0614  -23.7557   -5.4008 C   0  0  0  0  0  0  0  0  0  0  0  0
   22.6699  -23.4084   -5.8910 C   0  0  0  0  0  0  0  0  0  0  0  0
   22.8565  -21.9872   -6.3096 C   0  0  1  0  0  0  0  0  0  0  0  0
   22.8556  -21.0345   -5.1812 C   0  0  0  0  0  0  0  0  0  0  0  0
   21.7155  -20.5853   -4.5323 O   0  0  0  0  0  0  0  0  0  0  0  0
   23.9581  -20.5930   -4.7713 O   0  0  0  0  0  0  0  0  0  0  0  0
  1  2  1  0
  2 12  2  0
  3  4  2  0
  3  2  1  0
  4  5  1  0
  5 11  2  0
  5  6  1  0
  7  6  1  0
  7  8  1  6
  9  7  1  0
  9 10  2  0
 12 11  1  0
 14 15  1  0
 14 13  1  0
 15 17  1  0
 15 16  1  6
 17 18  1  6
 17 19  1  0
 18  9  1  0
 19 21  1  0
 20 19  2  0
 21 25  1  0
 21 22  1  0
 23 22  1  0
 24 25  1  0
 24 23  1  0
 26 27  1  0
 25 26  1  1
 28 26  2  0
M  END
$$$$
