YIP.pdb
     RDKit          3D

 28 29  0  0  1  0  0  0  0  0999 V2000
   19.8225  -19.9551  -12.1218 O   0  0  0  0  0  0  0  0  0  0  0  0
   21.0278  -20.1965  -11.4445 C   0  0  0  0  0  0  0  0  0  0  0  0
   21.5743  -19.2670  -10.5823 C   0  0  0  0  0  0  0  0  0  0  0  0
   22.7461  -19.5070   -9.9265 C   0  0  0  0  0  0  0  0  0  0  0  0
   23.3953  -20.7112  -10.1357 C   0  0  0  0  0  0  0  0  0  0  0  0
   24.6734  -20.9610   -9.4139 C   0  0  0  0  0  0  0  0  0  0  0  0
   25.6234  -19.8276   -9.7652 C   0  0  2  0  0  0  0  0  0  0  0  0
   26.0467  -19.9068  -11.1340 N   0  0  0  0  0  0  0  0  0  0  0  0
   26.7764  -19.8886   -8.8626 C   0  0  0  0  0  0  0  0  0  0  0  0
   27.7974  -20.5034   -9.2793 O   0  0  0  0  0  0  0  0  0  0  0  0
   22.8932  -21.6779  -10.9881 C   0  0  0  0  0  0  0  0  0  0  0  0
   21.7064  -21.3831  -11.6245 C   0  0  0  0  0  0  0  0  0  0  0  0
   27.6353  -15.5638   -5.7602 C   0  0  0  0  0  0  0  0  0  0  0  0
   27.9163  -16.7795   -6.6944 C   0  0  0  0  0  0  0  0  0  0  0  0
   27.9111  -18.0313   -5.8761 C   0  0  2  0  0  0  0  0  0  0  0  0
   29.0722  -18.0003   -4.8983 C   0  0  0  0  0  0  0  0  0  0  0  0
   27.8868  -19.2593   -6.7061 C   0  0  2  0  0  0  0  0  0  0  0  0
   26.7349  -19.2823   -7.5860 N   0  0  0  0  0  0  0  0  0  0  0  0
   28.0435  -20.5166   -5.9822 C   0  0  0  0  0  0  0  0  0  0  0  0
   26.9638  -21.0364   -5.4790 O   0  0  0  0  0  0  0  0  0  0  0  0
   29.2084  -21.2664   -5.7412 N   0  0  0  0  0  0  0  0  0  0  0  0
   30.5285  -21.0316   -6.2689 C   0  0  0  0  0  0  0  0  0  0  0  0
   31.4427  -22.0231   -5.5540 C   0  0  0  0  0  0  0  0  0  0  0  0
   30.4770  -23.1751   -5.3599 C   0  0  0  0  0  0  0  0  0  0  0  0
   29.2599  -22.4551   -4.8798 C   0  0  1  0  0  0  0  0  0  0  0  0
   29.3227  -22.0756   -3.4539 C   0  0  0  0  0  0  0  0  0  0  0  0
   29.1723  -22.9609   -2.3973 O   0  0  0  0  0  0  0  0  0  0  0  0
   29.5259  -20.8699   -3.1651 O   0  0  0  0  0  0  0  0  0  0  0  0
  1  2  1  0
  2 12  2  0
  3  4  2  0
  3  2  1  0
  4  5  1  0
  5 11  2  0
  5  6  1  0
  7  6  1  0
  7  8  1  6
  9  7  1  0
  9 10  2  0
 12 11  1  0
 14 15  1  0
 14 13  1  0
 15 17  1  0
 15 16  1  6
 17 18  1  1
 17 19  1  0
 18  9  1  0
 19 21  1  0
 20 19  2  0
 21 25  1  0
 21 22  1  0
 23 22  1  0
 24 25  1  0
 24 23  1  0
 26 27  1  0
 25 26  1  1
 28 26  2  0
M  END
$$$$
