YIP.pdb
     RDKit          3D

 28 29  0  0  1  0  0  0  0  0999 V2000
   16.6398  -23.4682  -16.5042 O   0  0  0  0  0  0  0  0  0  0  0  0
   17.7118  -22.6335  -16.1520 C   0  0  0  0  0  0  0  0  0  0  0  0
   19.0223  -22.9952  -16.3925 C   0  0  0  0  0  0  0  0  0  0  0  0
   20.0604  -22.1799  -16.0480 C   0  0  0  0  0  0  0  0  0  0  0  0
   19.7853  -20.9652  -15.4446 C   0  0  0  0  0  0  0  0  0  0  0  0
   20.9270  -20.0845  -15.0737 C   0  0  0  0  0  0  0  0  0  0  0  0
   21.6188  -20.7162  -13.8766 C   0  0  2  0  0  0  0  0  0  0  0  0
   20.8181  -20.6026  -12.6913 N   0  0  0  0  0  0  0  0  0  0  0  0
   22.9167  -20.0618  -13.6890 C   0  0  0  0  0  0  0  0  0  0  0  0
   22.9077  -18.9113  -13.1694 O   0  0  0  0  0  0  0  0  0  0  0  0
   18.4917  -20.5527  -15.1803 C   0  0  0  0  0  0  0  0  0  0  0  0
   17.4815  -21.4151  -15.5490 C   0  0  0  0  0  0  0  0  0  0  0  0
   26.7695  -21.7580  -10.8363 C   0  0  0  0  0  0  0  0  0  0  0  0
   25.7927  -20.8849  -11.6806 C   0  0  0  0  0  0  0  0  0  0  0  0
   26.3225  -20.7745  -13.0748 C   0  0  2  0  0  0  0  0  0  0  0  0
   27.7189  -20.1796  -13.0389 C   0  0  0  0  0  0  0  0  0  0  0  0
   25.4055  -20.0428  -13.9808 C   0  0  2  0  0  0  0  0  0  0  0  0
   24.1171  -20.7006  -14.0763 N   0  0  0  0  0  0  0  0  0  0  0  0
   25.9452  -19.7104  -15.2953 C   0  0  0  0  0  0  0  0  0  0  0  0
   26.0024  -20.6773  -16.1619 O   0  0  0  0  0  0  0  0  0  0  0  0
   26.4224  -18.4784  -15.7766 N   0  0  0  0  0  0  0  0  0  0  0  0
   26.6047  -17.2569  -15.0344 C   0  0  0  0  0  0  0  0  0  0  0  0
   27.3072  -16.2938  -15.9877 C   0  0  0  0  0  0  0  0  0  0  0  0
   26.7162  -16.7538  -17.3054 C   0  0  0  0  0  0  0  0  0  0  0  0
   26.8233  -18.2371  -17.1690 C   0  0  1  0  0  0  0  0  0  0  0  0
   28.1810  -18.7571  -17.4286 C   0  0  0  0  0  0  0  0  0  0  0  0
   28.7634  -18.8429  -18.6841 O   0  0  0  0  0  0  0  0  0  0  0  0
   28.8661  -19.1523  -16.4524 O   0  0  0  0  0  0  0  0  0  0  0  0
  1  2  1  0
  2 12  2  0
  3  4  2  0
  3  2  1  0
  4  5  1  0
  5 11  2  0
  5  6  1  0
  7  6  1  0
  7  8  1  1
  9  7  1  0
  9 10  2  0
 12 11  1  0
 14 15  1  0
 14 13  1  0
 15 17  1  0
 15 16  1  1
 17 18  1  6
 17 19  1  0
 18  9  1  0
 19 21  1  0
 20 19  2  0
 21 25  1  0
 21 22  1  0
 23 22  1  0
 24 25  1  0
 24 23  1  0
 26 27  1  0
 25 26  1  1
 28 26  2  0
M  END
$$$$
