YIP.pdb
     RDKit          3D

 28 29  0  0  1  0  0  0  0  0999 V2000
   16.5060  -15.2264  -17.0744 O   0  0  0  0  0  0  0  0  0  0  0  0
   17.5551  -16.0827  -16.7055 C   0  0  0  0  0  0  0  0  0  0  0  0
   17.5111  -17.4379  -16.9656 C   0  0  0  0  0  0  0  0  0  0  0  0
   18.5337  -18.2655  -16.6048 C   0  0  0  0  0  0  0  0  0  0  0  0
   19.6359  -17.7269  -15.9643 C   0  0  0  0  0  0  0  0  0  0  0  0
   20.7454  -18.6407  -15.5758 C   0  0  0  0  0  0  0  0  0  0  0  0
   21.8189  -18.5342  -16.6468 C   0  0  2  0  0  0  0  0  0  0  0  0
   21.4108  -19.1813  -17.8608 N   0  0  0  0  0  0  0  0  0  0  0  0
   23.0534  -19.1325  -16.1311 C   0  0  0  0  0  0  0  0  0  0  0  0
   23.1459  -20.3904  -16.1857 O   0  0  0  0  0  0  0  0  0  0  0  0
   19.7327  -16.3769  -15.6789 C   0  0  0  0  0  0  0  0  0  0  0  0
   18.6712  -15.5869  -16.0656 C   0  0  0  0  0  0  0  0  0  0  0  0
   27.3041  -16.1295  -16.4495 C   0  0  0  0  0  0  0  0  0  0  0  0
   26.8022  -17.6049  -16.4262 C   0  0  0  0  0  0  0  0  0  0  0  0
   26.4128  -17.9628  -15.0272 C   0  0  2  0  0  0  0  0  0  0  0  0
   27.6301  -18.4780  -14.2803 C   0  0  0  0  0  0  0  0  0  0  0  0
   25.2629  -18.8967  -14.9727 C   0  0  2  0  0  0  0  0  0  0  0  0
   24.0863  -18.3268  -15.5992 N   0  0  0  0  0  0  0  0  0  0  0  0
   24.9625  -19.4558  -13.6587 C   0  0  0  0  0  0  0  0  0  0  0  0
   24.3361  -18.6794  -12.8257 O   0  0  0  0  0  0  0  0  0  0  0  0
   25.2536  -20.7325  -13.1463 N   0  0  0  0  0  0  0  0  0  0  0  0
   25.9174  -21.8190  -13.8211 C   0  0  0  0  0  0  0  0  0  0  0  0
   26.1310  -22.8962  -12.7610 C   0  0  0  0  0  0  0  0  0  0  0  0
   24.9049  -22.6627  -11.9011 C   0  0  0  0  0  0  0  0  0  0  0  0
   24.9095  -21.1736  -11.7881 C   0  0  1  0  0  0  0  0  0  0  0  0
   25.8801  -20.6596  -10.8008 C   0  0  0  0  0  0  0  0  0  0  0  0
   25.6673  -20.6301   -9.4309 O   0  0  0  0  0  0  0  0  0  0  0  0
   26.9787  -20.2155  -11.2184 O   0  0  0  0  0  0  0  0  0  0  0  0
  1  2  1  0
  2 12  2  0
  3  4  2  0
  3  2  1  0
  4  5  1  0
  5 11  2  0
  5  6  1  0
  7  6  1  0
  7  8  1  6
  9  7  1  0
  9 10  2  0
 12 11  1  0
 14 15  1  0
 14 13  1  0
 15 17  1  0
 15 16  1  6
 17 18  1  1
 17 19  1  0
 18  9  1  0
 19 21  1  0
 20 19  2  0
 21 25  1  0
 21 22  1  0
 23 22  1  0
 24 25  1  0
 24 23  1  0
 26 27  1  0
 25 26  1  1
 28 26  2  0
M  END
$$$$
