YIP.pdb
     RDKit          3D

 28 29  0  0  1  0  0  0  0  0999 V2000
   16.2084  -18.6776  -17.9881 O   0  0  0  0  0  0  0  0  0  0  0  0
   17.4310  -19.1019  -17.4448 C   0  0  0  0  0  0  0  0  0  0  0  0
   18.2073  -18.2675  -16.6656 C   0  0  0  0  0  0  0  0  0  0  0  0
   19.3948  -18.6852  -16.1401 C   0  0  0  0  0  0  0  0  0  0  0  0
   19.8237  -19.9753  -16.3984 C   0  0  0  0  0  0  0  0  0  0  0  0
   21.1214  -20.4191  -15.8190 C   0  0  0  0  0  0  0  0  0  0  0  0
   22.2148  -20.0311  -16.8011 C   0  0  2  0  0  0  0  0  0  0  0  0
   22.2237  -20.9008  -17.9424 N   0  0  0  0  0  0  0  0  0  0  0  0
   23.5041  -20.0765  -16.1058 C   0  0  0  0  0  0  0  0  0  0  0  0
   24.1407  -21.1658  -16.1512 O   0  0  0  0  0  0  0  0  0  0  0  0
   19.0864  -20.8534  -17.1722 C   0  0  0  0  0  0  0  0  0  0  0  0
   17.8949  -20.3792  -17.6779 C   0  0  0  0  0  0  0  0  0  0  0  0
   26.5684  -15.5764  -15.6601 C   0  0  0  0  0  0  0  0  0  0  0  0
   26.2047  -17.0804  -15.8468 C   0  0  0  0  0  0  0  0  0  0  0  0
   25.8482  -17.6621  -14.5159 C   0  0  2  0  0  0  0  0  0  0  0  0
   27.0737  -17.6606  -13.6195 C   0  0  0  0  0  0  0  0  0  0  0  0
   25.2130  -18.9970  -14.6246 C   0  0  2  0  0  0  0  0  0  0  0  0
   24.0015  -18.9450  -15.4192 N   0  0  0  0  0  0  0  0  0  0  0  0
   25.0075  -19.7054  -13.3654 C   0  0  0  0  0  0  0  0  0  0  0  0
   23.9305  -19.4097  -12.7008 O   0  0  0  0  0  0  0  0  0  0  0  0
   25.8138  -20.6787  -12.7493 N   0  0  0  0  0  0  0  0  0  0  0  0
   27.0568  -21.2238  -13.2332 C   0  0  0  0  0  0  0  0  0  0  0  0
   27.5921  -22.1005  -12.1042 C   0  0  0  0  0  0  0  0  0  0  0  0
   26.2854  -22.5858  -11.5089 C   0  0  0  0  0  0  0  0  0  0  0  0
   25.4985  -21.3174  -11.4646 C   0  0  1  0  0  0  0  0  0  0  0  0
   25.8573  -20.4394  -10.3326 C   0  0  0  0  0  0  0  0  0  0  0  0
   25.3652  -20.5775   -9.0436 O   0  0  0  0  0  0  0  0  0  0  0  0
   26.6636  -19.4982  -10.5389 O   0  0  0  0  0  0  0  0  0  0  0  0
  1  2  1  0
  2 12  2  0
  3  4  2  0
  3  2  1  0
  4  5  1  0
  5 11  2  0
  5  6  1  0
  7  6  1  0
  7  8  1  6
  9  7  1  0
  9 10  2  0
 12 11  1  0
 14 15  1  0
 14 13  1  0
 15 17  1  0
 15 16  1  1
 17 18  1  1
 17 19  1  0
 18  9  1  0
 19 21  1  0
 20 19  2  0
 21 25  1  0
 21 22  1  0
 23 22  1  0
 24 25  1  0
 24 23  1  0
 26 27  1  0
 25 26  1  1
 28 26  2  0
M  END
$$$$
