LEA.pdb
     RDKit          3D

 23 22  0  0  1  0  0  0  0  0999 V2000
    6.5593  -11.7729   24.3361 C   0  0  0  0  0  0  0  0  0  0  0  0
    5.9991  -12.6406   25.4488 C   0  0  2  0  0  0  0  0  0  0  0  0
    5.6402  -11.7244   26.6312 C   0  0  0  0  0  0  0  0  0  0  0  0
    6.9990  -13.6864   25.8830 C   0  0  0  0  0  0  0  0  0  0  0  0
    6.9316  -14.8476   24.9426 C   0  0  2  0  0  0  0  0  0  0  0  0
    5.6757  -15.4769   24.9928 N   0  0  0  0  0  0  0  0  0  0  0  0
    8.0085  -15.8318   25.1533 C   0  0  0  0  0  0  0  0  0  0  0  0
    7.9850  -16.7205   26.0336 O   0  0  0  0  0  0  0  0  0  0  0  0
    9.1546  -15.7751   24.3053 N   0  0  0  0  0  0  0  0  0  0  0  0
   10.2910  -16.6523   24.5370 C   0  0  1  0  0  0  0  0  0  0  0  0
   11.3323  -16.4334   23.4812 C   0  0  0  0  0  0  0  0  0  0  0  0
   12.5777  -17.2547   23.6190 C   0  0  0  0  0  0  0  0  0  0  0  0
   12.4737  -18.3302   22.5835 C   0  0  0  0  0  0  0  0  0  0  0  0
   12.5999  -18.0928   21.3534 O   0  0  0  0  0  0  0  0  0  0  0  0
   10.9574  -16.2830   25.8324 C   0  0  0  0  0  0  0  0  0  0  0  0
   11.5657  -15.1820   25.9087 O   0  0  0  0  0  0  0  0  0  0  0  0
   12.2277  -19.6267   22.9986 O   0  0  0  0  0  0  0  0  0  0  0  0
   11.0052  -15.4045   28.6529 C   0  0  0  0  0  0  0  0  0  0  0  0
   11.6589  -16.7133   28.2043 C   0  0  2  0  0  0  0  0  0  0  0  0
   10.9482  -17.1039   26.9886 N   0  0  0  0  0  0  0  0  0  0  0  0
   11.5769  -17.6865   29.2846 C   0  0  0  0  0  0  0  0  0  0  0  0
   10.8326  -18.8413   29.1389 O   0  0  0  0  0  0  0  0  0  0  0  0
   12.1771  -17.5074   30.3750 O   0  0  0  0  0  0  0  0  0  0  0  0
  2  1  1  6
  2  4  1  0
  2  3  1  0
  5  7  1  0
  5  6  1  1
  5  4  1  0
  7  8  2  0
  9 10  1  0
  9  7  1  0
 10 11  1  6
 12 11  1  0
 13 14  2  0
 13 12  1  0
 15 16  2  0
 15 10  1  0
 17 13  1  0
 19 18  1  1
 19 20  1  0
 19 21  1  0
 20 15  1  0
 21 23  2  0
 21 22  1  0
M  END
$$$$
