LEA.pdb
     RDKit          3D

 23 22  0  0  1  0  0  0  0  0999 V2000
    6.4799  -12.6150   26.6254 C   0  0  0  0  0  0  0  0  0  0  0  0
    7.0751  -13.5473   25.5855 C   0  0  2  0  0  0  0  0  0  0  0  0
    7.2586  -12.7508   24.2824 C   0  0  0  0  0  0  0  0  0  0  0  0
    6.1817  -14.7417   25.3464 C   0  0  0  0  0  0  0  0  0  0  0  0
    6.8479  -15.6641   24.3755 C   0  0  2  0  0  0  0  0  0  0  0  0
    5.9642  -16.6596   23.9238 N   0  0  0  0  0  0  0  0  0  0  0  0
    8.0822  -16.2733   24.9030 C   0  0  0  0  0  0  0  0  0  0  0  0
    8.1056  -17.1673   25.7778 O   0  0  0  0  0  0  0  0  0  0  0  0
    9.3345  -15.8209   24.3901 N   0  0  0  0  0  0  0  0  0  0  0  0
   10.5607  -16.5439   24.6872 C   0  0  1  0  0  0  0  0  0  0  0  0
   11.6016  -16.2361   23.6534 C   0  0  0  0  0  0  0  0  0  0  0  0
   11.5065  -17.0248   22.3831 C   0  0  0  0  0  0  0  0  0  0  0  0
   12.7407  -16.6936   21.6040 C   0  0  0  0  0  0  0  0  0  0  0  0
   12.7345  -15.8644   20.6565 O   0  0  0  0  0  0  0  0  0  0  0  0
   11.1350  -16.0509   25.9856 C   0  0  0  0  0  0  0  0  0  0  0  0
   12.3299  -16.3356   26.2666 O   0  0  0  0  0  0  0  0  0  0  0  0
   13.9246  -17.3255   21.9398 O   0  0  0  0  0  0  0  0  0  0  0  0
   10.1459  -13.7836   28.7604 C   0  0  0  0  0  0  0  0  0  0  0  0
   10.9637  -14.9697   28.2450 C   0  0  2  0  0  0  0  0  0  0  0  0
   10.4101  -15.2783   26.9282 N   0  0  0  0  0  0  0  0  0  0  0  0
   10.8785  -16.0643   29.2018 C   0  0  0  0  0  0  0  0  0  0  0  0
   11.4855  -15.9685   30.4393 O   0  0  0  0  0  0  0  0  0  0  0  0
   10.2539  -17.1222   28.9335 O   0  0  0  0  0  0  0  0  0  0  0  0
  2  1  1  1
  2  4  1  0
  2  3  1  0
  5  7  1  0
  5  6  1  1
  5  4  1  0
  7  8  2  0
  9 10  1  0
  9  7  1  0
 10 11  1  6
 12 11  1  0
 13 14  2  0
 13 12  1  0
 15 16  2  0
 15 10  1  0
 17 13  1  0
 19 18  1  1
 19 20  1  0
 19 21  1  0
 20 15  1  0
 21 23  2  0
 21 22  1  0
M  END
$$$$
