LEA.pdb
     RDKit          3D

 23 22  0  0  1  0  0  0  0  0999 V2000
    9.5447  -12.4866   18.9682 C   0  0  0  0  0  0  0  0  0  0  0  0
    8.2243  -13.2248   19.0966 C   0  0  2  0  0  0  0  0  0  0  0  0
    7.0933  -12.1824   19.0795 C   0  0  0  0  0  0  0  0  0  0  0  0
    8.1710  -14.0326   20.3719 C   0  0  0  0  0  0  0  0  0  0  0  0
    9.3055  -15.0073   20.3812 C   0  0  2  0  0  0  0  0  0  0  0  0
    9.2832  -15.8323   19.2433 N   0  0  0  0  0  0  0  0  0  0  0  0
    9.3628  -15.8238   21.6070 C   0  0  0  0  0  0  0  0  0  0  0  0
    8.3566  -16.1914   22.2534 O   0  0  0  0  0  0  0  0  0  0  0  0
   10.6420  -16.2247   22.0958 N   0  0  0  0  0  0  0  0  0  0  0  0
   10.7512  -17.1652   23.1995 C   0  0  1  0  0  0  0  0  0  0  0  0
   11.9199  -18.0785   22.9821 C   0  0  0  0  0  0  0  0  0  0  0  0
   13.2315  -17.4024   22.7234 C   0  0  0  0  0  0  0  0  0  0  0  0
   14.2249  -18.5032   22.5207 C   0  0  0  0  0  0  0  0  0  0  0  0
   14.7602  -19.1108   23.4849 O   0  0  0  0  0  0  0  0  0  0  0  0
   11.0614  -16.4209   24.4677 C   0  0  0  0  0  0  0  0  0  0  0  0
   12.1590  -15.8085   24.5580 O   0  0  0  0  0  0  0  0  0  0  0  0
   14.5641  -18.8585   21.2275 O   0  0  0  0  0  0  0  0  0  0  0  0
    9.4282  -14.8690   27.2718 C   0  0  0  0  0  0  0  0  0  0  0  0
   10.6050  -15.7480   26.8429 C   0  0  2  0  0  0  0  0  0  0  0  0
   10.1896  -16.3639   25.5846 N   0  0  0  0  0  0  0  0  0  0  0  0
   10.9065  -16.6988   27.9041 C   0  0  0  0  0  0  0  0  0  0  0  0
   11.4716  -16.2750   29.0916 O   0  0  0  0  0  0  0  0  0  0  0  0
   10.6631  -17.9255   27.7735 O   0  0  0  0  0  0  0  0  0  0  0  0
  2  1  1  1
  2  4  1  0
  2  3  1  0
  5  7  1  0
  5  6  1  6
  5  4  1  0
  7  8  2  0
  9 10  1  0
  9  7  1  0
 10 11  1  6
 12 11  1  0
 13 14  2  0
 13 12  1  0
 15 16  2  0
 15 10  1  0
 17 13  1  0
 19 18  1  1
 19 20  1  0
 19 21  1  0
 20 15  1  0
 21 23  2  0
 21 22  1  0
M  END
$$$$
