LEA.pdb
     RDKit          3D

 23 22  0  0  1  0  0  0  0  0999 V2000
    9.4652  -12.8257   19.4907 C   0  0  0  0  0  0  0  0  0  0  0  0
    8.0827  -13.3809   19.7825 C   0  0  2  0  0  0  0  0  0  0  0  0
    7.1022  -12.1982   19.8607 C   0  0  0  0  0  0  0  0  0  0  0  0
    8.0677  -14.1583   21.0776 C   0  0  0  0  0  0  0  0  0  0  0  0
    9.0116  -15.3132   20.9657 C   0  0  2  0  0  0  0  0  0  0  0  0
    8.6005  -16.2181   19.9717 N   0  0  0  0  0  0  0  0  0  0  0  0
    9.2271  -16.0161   22.2433 C   0  0  0  0  0  0  0  0  0  0  0  0
    8.3756  -16.7488   22.7939 O   0  0  0  0  0  0  0  0  0  0  0  0
   10.4829  -15.8564   22.9018 N   0  0  0  0  0  0  0  0  0  0  0  0
   10.7568  -16.5483   24.1510 C   0  0  1  0  0  0  0  0  0  0  0  0
   12.0893  -17.2312   24.0782 C   0  0  0  0  0  0  0  0  0  0  0  0
   12.0838  -18.5998   23.4687 C   0  0  0  0  0  0  0  0  0  0  0  0
   13.5222  -18.9722   23.2893 C   0  0  0  0  0  0  0  0  0  0  0  0
   14.3718  -18.8326   24.2080 O   0  0  0  0  0  0  0  0  0  0  0  0
   10.8858  -15.5472   25.2645 C   0  0  0  0  0  0  0  0  0  0  0  0
   11.8485  -14.7346   25.2403 O   0  0  0  0  0  0  0  0  0  0  0  0
   13.9259  -19.4841   22.0691 O   0  0  0  0  0  0  0  0  0  0  0  0
    9.0148  -13.7013   27.6345 C   0  0  0  0  0  0  0  0  0  0  0  0
   10.2559  -14.5855   27.4963 C   0  0  2  0  0  0  0  0  0  0  0  0
    9.9846  -15.4576   26.3556 N   0  0  0  0  0  0  0  0  0  0  0  0
   10.4846  -15.2921   28.7491 C   0  0  0  0  0  0  0  0  0  0  0  0
   10.9401  -14.6184   29.8661 O   0  0  0  0  0  0  0  0  0  0  0  0
   10.2755  -16.5278   28.8522 O   0  0  0  0  0  0  0  0  0  0  0  0
  2  1  1  1
  2  4  1  0
  2  3  1  0
  5  7  1  0
  5  6  1  6
  5  4  1  0
  7  8  2  0
  9 10  1  0
  9  7  1  0
 10 11  1  6
 12 11  1  0
 13 14  2  0
 13 12  1  0
 15 16  2  0
 15 10  1  0
 17 13  1  0
 19 18  1  1
 19 20  1  0
 19 21  1  0
 20 15  1  0
 21 23  2  0
 21 22  1  0
M  END
$$$$
