LEA.pdb
     RDKit          3D

 23 22  0  0  1  0  0  0  0  0999 V2000
    9.5618  -13.4724   19.5865 C   0  0  0  0  0  0  0  0  0  0  0  0
    8.0574  -13.4748   19.7908 C   0  0  2  0  0  0  0  0  0  0  0  0
    7.5551  -12.0286   19.6410 C   0  0  0  0  0  0  0  0  0  0  0  0
    7.6913  -14.0165   21.1526 C   0  0  0  0  0  0  0  0  0  0  0  0
    8.2096  -15.4139   21.2785 C   0  0  2  0  0  0  0  0  0  0  0  0
    7.4396  -16.3171   20.5256 N   0  0  0  0  0  0  0  0  0  0  0  0
    8.3190  -15.8716   22.6754 C   0  0  0  0  0  0  0  0  0  0  0  0
    7.4007  -15.7755   23.5197 O   0  0  0  0  0  0  0  0  0  0  0  0
    9.5460  -16.4622   23.1016 N   0  0  0  0  0  0  0  0  0  0  0  0
    9.6991  -16.9504   24.4627 C   0  0  1  0  0  0  0  0  0  0  0  0
   10.8328  -17.9286   24.5329 C   0  0  0  0  0  0  0  0  0  0  0  0
   11.1047  -18.5094   25.8869 C   0  0  0  0  0  0  0  0  0  0  0  0
   11.8434  -19.7877   25.6415 C   0  0  0  0  0  0  0  0  0  0  0  0
   13.0582  -19.8087   25.3112 O   0  0  0  0  0  0  0  0  0  0  0  0
   10.0992  -15.8159   25.3635 C   0  0  0  0  0  0  0  0  0  0  0  0
   11.1096  -15.1274   25.0587 O   0  0  0  0  0  0  0  0  0  0  0  0
   11.1616  -20.9833   25.7813 O   0  0  0  0  0  0  0  0  0  0  0  0
    8.7538  -13.4973   27.7154 C   0  0  0  0  0  0  0  0  0  0  0  0
    9.9250  -14.4488   27.4620 C   0  0  2  0  0  0  0  0  0  0  0  0
    9.4064  -15.4664   26.5504 N   0  0  0  0  0  0  0  0  0  0  0  0
   10.4030  -14.9723   28.7342 C   0  0  0  0  0  0  0  0  0  0  0  0
   10.3238  -16.3226   29.0160 O   0  0  0  0  0  0  0  0  0  0  0  0
   10.8993  -14.2172   29.6086 O   0  0  0  0  0  0  0  0  0  0  0  0
  2  1  1  1
  2  4  1  0
  2  3  1  0
  5  7  1  0
  5  6  1  6
  5  4  1  0
  7  8  2  0
  9 10  1  0
  9  7  1  0
 10 11  1  6
 12 11  1  0
 13 14  2  0
 13 12  1  0
 15 16  2  0
 15 10  1  0
 17 13  1  0
 19 18  1  1
 19 20  1  0
 19 21  1  0
 20 15  1  0
 21 23  2  0
 21 22  1  0
M  END
$$$$
