LEA.pdb
     RDKit          3D

 23 22  0  0  1  0  0  0  0  0999 V2000
    5.8309  -12.9239   26.0596 C   0  0  0  0  0  0  0  0  0  0  0  0
    7.2351  -13.0024   25.4880 C   0  0  2  0  0  0  0  0  0  0  0  0
    7.8421  -11.5894   25.5224 C   0  0  0  0  0  0  0  0  0  0  0  0
    7.2207  -13.5305   24.0727 C   0  0  0  0  0  0  0  0  0  0  0  0
    7.0191  -15.0122   24.1057 C   0  0  2  0  0  0  0  0  0  0  0  0
    5.7913  -15.3503   24.7008 N   0  0  0  0  0  0  0  0  0  0  0  0
    8.1239  -15.7366   24.7593 C   0  0  0  0  0  0  0  0  0  0  0  0
    8.0623  -16.2192   25.9119 O   0  0  0  0  0  0  0  0  0  0  0  0
    9.3453  -15.9026   24.0404 N   0  0  0  0  0  0  0  0  0  0  0  0
   10.4409  -16.6705   24.6099 C   0  0  1  0  0  0  0  0  0  0  0  0
   11.6179  -16.6520   23.6817 C   0  0  0  0  0  0  0  0  0  0  0  0
   12.8007  -17.4609   24.1187 C   0  0  0  0  0  0  0  0  0  0  0  0
   13.7707  -17.4130   22.9800 C   0  0  0  0  0  0  0  0  0  0  0  0
   13.9525  -18.3932   22.2109 O   0  0  0  0  0  0  0  0  0  0  0  0
   10.9206  -16.0068   25.8701 C   0  0  0  0  0  0  0  0  0  0  0  0
   11.6934  -15.0159   25.7768 O   0  0  0  0  0  0  0  0  0  0  0  0
   14.4909  -16.2502   22.7728 O   0  0  0  0  0  0  0  0  0  0  0  0
   10.3189  -14.8023   28.8935 C   0  0  0  0  0  0  0  0  0  0  0  0
   11.2339  -15.9063   28.3590 C   0  0  2  0  0  0  0  0  0  0  0  0
   10.5574  -16.4294   27.1740 N   0  0  0  0  0  0  0  0  0  0  0  0
   11.4576  -16.8939   29.4057 C   0  0  0  0  0  0  0  0  0  0  0  0
   11.0450  -18.2022   29.2411 O   0  0  0  0  0  0  0  0  0  0  0  0
   12.0295  -16.5887   30.4832 O   0  0  0  0  0  0  0  0  0  0  0  0
  2  1  1  6
  2  4  1  0
  2  3  1  0
  5  7  1  0
  5  6  1  1
  5  4  1  0
  7  8  2  0
  9 10  1  0
  9  7  1  0
 10 11  1  6
 12 11  1  0
 13 14  2  0
 13 12  1  0
 15 16  2  0
 15 10  1  0
 17 13  1  0
 19 18  1  1
 19 20  1  0
 19 21  1  0
 20 15  1  0
 21 23  2  0
 21 22  1  0
M  END
$$$$
