LEA.pdb
     RDKit          3D

 23 22  0  0  1  0  0  0  0  0999 V2000
    6.2915  -12.8128   26.6617 C   0  0  0  0  0  0  0  0  0  0  0  0
    7.1095  -13.2733   25.4685 C   0  0  2  0  0  0  0  0  0  0  0  0
    7.9437  -12.0789   24.9747 C   0  0  0  0  0  0  0  0  0  0  0  0
    6.2197  -13.7832   24.3594 C   0  0  0  0  0  0  0  0  0  0  0  0
    7.0716  -14.3781   23.2835 C   0  0  2  0  0  0  0  0  0  0  0  0
    6.3003  -14.7710   22.1760 N   0  0  0  0  0  0  0  0  0  0  0  0
    7.9055  -15.4992   23.7529 C   0  0  0  0  0  0  0  0  0  0  0  0
    7.4661  -16.4826   24.3895 O   0  0  0  0  0  0  0  0  0  0  0  0
    9.3036  -15.4699   23.4691 N   0  0  0  0  0  0  0  0  0  0  0  0
   10.1421  -16.6219   23.7595 C   0  0  1  0  0  0  0  0  0  0  0  0
   11.4093  -16.5487   22.9620 C   0  0  0  0  0  0  0  0  0  0  0  0
   12.3690  -17.6812   23.1647 C   0  0  0  0  0  0  0  0  0  0  0  0
   13.4402  -17.4971   22.1359 C   0  0  0  0  0  0  0  0  0  0  0  0
   13.4102  -16.5602   21.2952 O   0  0  0  0  0  0  0  0  0  0  0  0
   10.5767  -16.5797   25.1975 C   0  0  0  0  0  0  0  0  0  0  0  0
   10.7700  -15.4587   25.7396 O   0  0  0  0  0  0  0  0  0  0  0  0
   14.4949  -18.3919   22.1115 O   0  0  0  0  0  0  0  0  0  0  0  0
    9.6775  -17.0322   27.9774 C   0  0  0  0  0  0  0  0  0  0  0  0
   10.9767  -17.6360   27.4397 C   0  0  2  0  0  0  0  0  0  0  0  0
   10.7884  -17.7338   25.9938 N   0  0  0  0  0  0  0  0  0  0  0  0
   11.2232  -18.9110   28.0990 C   0  0  0  0  0  0  0  0  0  0  0  0
   11.1411  -20.0969   27.3947 O   0  0  0  0  0  0  0  0  0  0  0  0
   11.5168  -18.9713   29.3202 O   0  0  0  0  0  0  0  0  0  0  0  0
  2  1  1  1
  2  4  1  0
  2  3  1  0
  5  7  1  0
  5  6  1  6
  5  4  1  0
  7  8  2  0
  9 10  1  0
  9  7  1  0
 10 11  1  6
 12 11  1  0
 13 14  2  0
 13 12  1  0
 15 16  2  0
 15 10  1  0
 17 13  1  0
 19 18  1  1
 19 20  1  0
 19 21  1  0
 20 15  1  0
 21 23  2  0
 21 22  1  0
M  END
$$$$
