LEA.pdb
     RDKit          3D

 23 22  0  0  1  0  0  0  0  0999 V2000
    6.4731  -11.8363   24.1932 C   0  0  0  0  0  0  0  0  0  0  0  0
    5.8952  -12.4027   25.4777 C   0  0  2  0  0  0  0  0  0  0  0  0
    5.7459  -11.2470   26.4820 C   0  0  0  0  0  0  0  0  0  0  0  0
    6.7860  -13.4801   26.0499 C   0  0  0  0  0  0  0  0  0  0  0  0
    6.8119  -14.6434   25.1100 C   0  0  2  0  0  0  0  0  0  0  0  0
    5.5512  -15.2583   25.0189 N   0  0  0  0  0  0  0  0  0  0  0  0
    7.8467  -15.6390   25.4428 C   0  0  0  0  0  0  0  0  0  0  0  0
    7.8061  -16.3851   26.4463 O   0  0  0  0  0  0  0  0  0  0  0  0
    8.9698  -15.7670   24.5721 N   0  0  0  0  0  0  0  0  0  0  0  0
   10.0422  -16.6997   24.8795 C   0  0  1  0  0  0  0  0  0  0  0  0
   11.0431  -16.7172   23.7637 C   0  0  0  0  0  0  0  0  0  0  0  0
   12.1933  -17.6610   23.9395 C   0  0  0  0  0  0  0  0  0  0  0  0
   12.9432  -17.6356   22.6446 C   0  0  0  0  0  0  0  0  0  0  0  0
   14.0683  -17.0820   22.5307 O   0  0  0  0  0  0  0  0  0  0  0  0
   10.8008  -16.2170   26.0838 C   0  0  0  0  0  0  0  0  0  0  0  0
   11.6751  -15.3225   25.9308 O   0  0  0  0  0  0  0  0  0  0  0  0
   12.3739  -18.2405   21.5383 O   0  0  0  0  0  0  0  0  0  0  0  0
   10.8811  -15.2985   29.2912 C   0  0  0  0  0  0  0  0  0  0  0  0
   11.5368  -16.4150   28.4758 C   0  0  2  0  0  0  0  0  0  0  0  0
   10.5959  -16.7102   27.3974 N   0  0  0  0  0  0  0  0  0  0  0  0
   11.8201  -17.5453   29.3494 C   0  0  0  0  0  0  0  0  0  0  0  0
   12.7326  -17.4289   30.3803 O   0  0  0  0  0  0  0  0  0  0  0  0
   11.2468  -18.6536   29.1938 O   0  0  0  0  0  0  0  0  0  0  0  0
  2  1  1  6
  2  4  1  0
  2  3  1  0
  5  7  1  0
  5  6  1  1
  5  4  1  0
  7  8  2  0
  9 10  1  0
  9  7  1  0
 10 11  1  6
 12 11  1  0
 13 14  2  0
 13 12  1  0
 15 16  2  0
 15 10  1  0
 17 13  1  0
 19 18  1  1
 19 20  1  0
 19 21  1  0
 20 15  1  0
 21 23  2  0
 21 22  1  0
M  END
$$$$
