LEA.pdb
     RDKit          3D

 23 22  0  0  1  0  0  0  0  0999 V2000
    6.5534  -12.1466   24.6111 C   0  0  0  0  0  0  0  0  0  0  0  0
    6.2347  -12.8874   25.8973 C   0  0  2  0  0  0  0  0  0  0  0  0
    6.3737  -11.8950   27.0644 C   0  0  0  0  0  0  0  0  0  0  0  0
    7.1636  -14.0618   26.0967 C   0  0  0  0  0  0  0  0  0  0  0  0
    6.9232  -15.0649   25.0135 C   0  0  2  0  0  0  0  0  0  0  0  0
    5.6090  -15.5616   25.0560 N   0  0  0  0  0  0  0  0  0  0  0  0
    7.8928  -16.1750   25.0211 C   0  0  0  0  0  0  0  0  0  0  0  0
    7.7636  -17.2154   25.7038 O   0  0  0  0  0  0  0  0  0  0  0  0
    9.0560  -16.0652   24.2020 N   0  0  0  0  0  0  0  0  0  0  0  0
   10.0083  -17.1609   24.1180 C   0  0  1  0  0  0  0  0  0  0  0  0
   11.0416  -16.8642   23.0733 C   0  0  0  0  0  0  0  0  0  0  0  0
   10.6863  -17.2716   21.6761 C   0  0  0  0  0  0  0  0  0  0  0  0
   11.9850  -17.5733   20.9964 C   0  0  0  0  0  0  0  0  0  0  0  0
   12.5058  -18.7194   21.0212 O   0  0  0  0  0  0  0  0  0  0  0  0
   10.7703  -17.2671   25.4091 C   0  0  0  0  0  0  0  0  0  0  0  0
   11.6150  -16.3750   25.6894 O   0  0  0  0  0  0  0  0  0  0  0  0
   12.6315  -16.5530   20.3220 O   0  0  0  0  0  0  0  0  0  0  0  0
   10.5166  -18.7764   28.6770 C   0  0  0  0  0  0  0  0  0  0  0  0
   11.4591  -18.4393   27.5196 C   0  0  2  0  0  0  0  0  0  0  0  0
   10.6002  -18.3202   26.3434 N   0  0  0  0  0  0  0  0  0  0  0  0
   12.4794  -19.4732   27.4138 C   0  0  0  0  0  0  0  0  0  0  0  0
   13.3996  -19.6625   28.4269 O   0  0  0  0  0  0  0  0  0  0  0  0
   12.5533  -20.2202   26.4050 O   0  0  0  0  0  0  0  0  0  0  0  0
  2  1  1  6
  2  4  1  0
  2  3  1  0
  5  7  1  0
  5  6  1  1
  5  4  1  0
  7  8  2  0
  9 10  1  0
  9  7  1  0
 10 11  1  6
 12 11  1  0
 13 14  2  0
 13 12  1  0
 15 16  2  0
 15 10  1  0
 17 13  1  0
 19 18  1  1
 19 20  1  0
 19 21  1  0
 20 15  1  0
 21 23  2  0
 21 22  1  0
M  END
$$$$
