LEA.pdb
     RDKit          3D

 23 22  0  0  1  0  0  0  0  0999 V2000
    7.4506  -11.3449   25.1007 C   0  0  0  0  0  0  0  0  0  0  0  0
    6.2795  -12.1820   25.5830 C   0  0  2  0  0  0  0  0  0  0  0  0
    5.7897  -11.5907   26.9160 C   0  0  0  0  0  0  0  0  0  0  0  0
    6.6795  -13.6269   25.7680 C   0  0  0  0  0  0  0  0  0  0  0  0
    7.5403  -14.0469   24.6192 C   0  0  2  0  0  0  0  0  0  0  0  0
    6.7890  -14.1898   23.4398 N   0  0  0  0  0  0  0  0  0  0  0  0
    8.3136  -15.2727   24.8877 C   0  0  0  0  0  0  0  0  0  0  0  0
    7.9597  -16.1644   25.6906 O   0  0  0  0  0  0  0  0  0  0  0  0
    9.5456  -15.4631   24.1934 N   0  0  0  0  0  0  0  0  0  0  0  0
   10.3458  -16.6560   24.4192 C   0  0  1  0  0  0  0  0  0  0  0  0
   11.4749  -16.7110   23.4347 C   0  0  0  0  0  0  0  0  0  0  0  0
   12.3679  -17.9094   23.5388 C   0  0  0  0  0  0  0  0  0  0  0  0
   13.3472  -17.7874   22.4137 C   0  0  0  0  0  0  0  0  0  0  0  0
   12.9881  -17.5210   21.2366 O   0  0  0  0  0  0  0  0  0  0  0  0
   11.0016  -16.5755   25.7691 C   0  0  0  0  0  0  0  0  0  0  0  0
   11.7986  -17.4898   26.1111 O   0  0  0  0  0  0  0  0  0  0  0  0
   14.6908  -17.9775   22.6824 O   0  0  0  0  0  0  0  0  0  0  0  0
   10.9216  -14.2513   28.6996 C   0  0  0  0  0  0  0  0  0  0  0  0
   11.3333  -15.5723   28.0464 C   0  0  2  0  0  0  0  0  0  0  0  0
   10.7778  -15.5257   26.6956 N   0  0  0  0  0  0  0  0  0  0  0  0
   10.8468  -16.6809   28.8560 C   0  0  0  0  0  0  0  0  0  0  0  0
    9.9132  -17.5660   28.3521 O   0  0  0  0  0  0  0  0  0  0  0  0
   11.2589  -16.8657   30.0295 O   0  0  0  0  0  0  0  0  0  0  0  0
  2  1  1  1
  2  4  1  0
  2  3  1  0
  5  7  1  0
  5  6  1  6
  5  4  1  0
  7  8  2  0
  9 10  1  0
  9  7  1  0
 10 11  1  6
 12 11  1  0
 13 14  2  0
 13 12  1  0
 15 16  2  0
 15 10  1  0
 17 13  1  0
 19 18  1  1
 19 20  1  0
 19 21  1  0
 20 15  1  0
 21 23  2  0
 21 22  1  0
M  END
$$$$
