LEA.pdb
     RDKit          3D

 23 22  0  0  1  0  0  0  0  0999 V2000
    9.3047  -12.9724   19.4611 C   0  0  0  0  0  0  0  0  0  0  0  0
    7.9305  -13.4650   19.8779 C   0  0  2  0  0  0  0  0  0  0  0  0
    6.9794  -12.2563   19.9022 C   0  0  0  0  0  0  0  0  0  0  0  0
    7.9743  -14.1228   21.2370 C   0  0  0  0  0  0  0  0  0  0  0  0
    8.8022  -15.3656   21.1524 C   0  0  2  0  0  0  0  0  0  0  0  0
    8.2632  -16.2801   20.2311 N   0  0  0  0  0  0  0  0  0  0  0  0
    9.0134  -16.0156   22.4584 C   0  0  0  0  0  0  0  0  0  0  0  0
    8.1071  -16.5630   23.1249 O   0  0  0  0  0  0  0  0  0  0  0  0
   10.3310  -16.0257   23.0059 N   0  0  0  0  0  0  0  0  0  0  0  0
   10.5997  -16.6802   24.2763 C   0  0  1  0  0  0  0  0  0  0  0  0
   11.9060  -17.4126   24.2104 C   0  0  0  0  0  0  0  0  0  0  0  0
   11.8911  -18.6965   23.4385 C   0  0  0  0  0  0  0  0  0  0  0  0
   13.3206  -19.1274   23.3359 C   0  0  0  0  0  0  0  0  0  0  0  0
   13.8213  -19.5424   22.2577 O   0  0  0  0  0  0  0  0  0  0  0  0
   10.7810  -15.6437   25.3494 C   0  0  0  0  0  0  0  0  0  0  0  0
   11.7985  -14.9014   25.3092 O   0  0  0  0  0  0  0  0  0  0  0  0
   14.1126  -19.0677   24.4686 O   0  0  0  0  0  0  0  0  0  0  0  0
    8.9825  -13.6323   27.6772 C   0  0  0  0  0  0  0  0  0  0  0  0
   10.1921  -14.5586   27.5353 C   0  0  2  0  0  0  0  0  0  0  0  0
    9.8715  -15.4454   26.4190 N   0  0  0  0  0  0  0  0  0  0  0  0
   10.4222  -15.2456   28.7987 C   0  0  0  0  0  0  0  0  0  0  0  0
   10.2731  -16.6159   28.8940 O   0  0  0  0  0  0  0  0  0  0  0  0
   10.7619  -14.6176   29.8338 O   0  0  0  0  0  0  0  0  0  0  0  0
  2  1  1  1
  2  4  1  0
  2  3  1  0
  5  7  1  0
  5  6  1  6
  5  4  1  0
  7  8  2  0
  9 10  1  0
  9  7  1  0
 10 11  1  6
 12 11  1  0
 13 14  2  0
 13 12  1  0
 15 16  2  0
 15 10  1  0
 17 13  1  0
 19 18  1  1
 19 20  1  0
 19 21  1  0
 20 15  1  0
 21 23  2  0
 21 22  1  0
M  END
$$$$
