LEA.pdb
     RDKit          3D

 23 22  0  0  1  0  0  0  0  0999 V2000
    5.9185  -12.7871   26.7489 C   0  0  0  0  0  0  0  0  0  0  0  0
    7.2056  -13.4246   26.2572 C   0  0  2  0  0  0  0  0  0  0  0  0
    8.3707  -12.4920   26.6303 C   0  0  0  0  0  0  0  0  0  0  0  0
    7.1708  -13.6450   24.7632 C   0  0  0  0  0  0  0  0  0  0  0  0
    6.6944  -15.0354   24.4851 C   0  0  2  0  0  0  0  0  0  0  0  0
    5.5617  -15.3536   25.2541 N   0  0  0  0  0  0  0  0  0  0  0  0
    7.7413  -16.0573   24.6645 C   0  0  0  0  0  0  0  0  0  0  0  0
    7.7726  -16.8712   25.6141 O   0  0  0  0  0  0  0  0  0  0  0  0
    8.7902  -16.1304   23.6999 N   0  0  0  0  0  0  0  0  0  0  0  0
    9.7665  -17.2070   23.7481 C   0  0  1  0  0  0  0  0  0  0  0  0
   10.8643  -16.9493   22.7604 C   0  0  0  0  0  0  0  0  0  0  0  0
   11.9043  -18.0223   22.6527 C   0  0  0  0  0  0  0  0  0  0  0  0
   12.7172  -17.6824   21.4430 C   0  0  0  0  0  0  0  0  0  0  0  0
   13.6965  -16.8926   21.4920 O   0  0  0  0  0  0  0  0  0  0  0  0
   10.4385  -17.2187   25.0923 C   0  0  0  0  0  0  0  0  0  0  0  0
   11.0575  -16.1878   25.4694 O   0  0  0  0  0  0  0  0  0  0  0  0
   12.3738  -18.2570   20.2322 O   0  0  0  0  0  0  0  0  0  0  0  0
   10.2562  -18.8096   28.2986 C   0  0  0  0  0  0  0  0  0  0  0  0
   11.2136  -18.3343   27.2036 C   0  0  2  0  0  0  0  0  0  0  0  0
   10.4233  -18.3288   25.9744 N   0  0  0  0  0  0  0  0  0  0  0  0
   12.3743  -19.2130   27.1653 C   0  0  0  0  0  0  0  0  0  0  0  0
   12.6482  -19.9715   26.0433 O   0  0  0  0  0  0  0  0  0  0  0  0
   13.1574  -19.3074   28.1445 O   0  0  0  0  0  0  0  0  0  0  0  0
  2  1  1  6
  2  4  1  0
  2  3  1  0
  5  7  1  0
  5  6  1  1
  5  4  1  0
  7  8  2  0
  9 10  1  0
  9  7  1  0
 10 11  1  6
 12 11  1  0
 13 14  2  0
 13 12  1  0
 15 16  2  0
 15 10  1  0
 17 13  1  0
 19 18  1  1
 19 20  1  0
 19 21  1  0
 20 15  1  0
 21 23  2  0
 21 22  1  0
M  END
$$$$
