LEA.pdb
     RDKit          3D

 23 22  0  0  1  0  0  0  0  0999 V2000
    9.6371  -13.1039   19.2495 C   0  0  0  0  0  0  0  0  0  0  0  0
    8.2265  -13.4622   19.6816 C   0  0  2  0  0  0  0  0  0  0  0  0
    7.3799  -12.1781   19.6531 C   0  0  0  0  0  0  0  0  0  0  0  0
    8.2152  -14.0647   21.0669 C   0  0  0  0  0  0  0  0  0  0  0  0
    9.0012  -15.3372   21.0530 C   0  0  2  0  0  0  0  0  0  0  0  0
    8.4906  -16.2460   20.1101 N   0  0  0  0  0  0  0  0  0  0  0  0
    9.1027  -15.9742   22.3784 C   0  0  0  0  0  0  0  0  0  0  0  0
    8.1184  -16.3347   23.0614 O   0  0  0  0  0  0  0  0  0  0  0  0
   10.4014  -16.1976   22.9259 N   0  0  0  0  0  0  0  0  0  0  0  0
   10.5572  -16.8130   24.2341 C   0  0  1  0  0  0  0  0  0  0  0  0
   11.8255  -17.6109   24.2784 C   0  0  0  0  0  0  0  0  0  0  0  0
   12.1067  -18.3099   25.5733 C   0  0  0  0  0  0  0  0  0  0  0  0
   13.3610  -19.0949   25.3492 C   0  0  0  0  0  0  0  0  0  0  0  0
   14.4274  -18.8493   25.9718 O   0  0  0  0  0  0  0  0  0  0  0  0
   10.7256  -15.7444   25.2774 C   0  0  0  0  0  0  0  0  0  0  0  0
   11.6997  -14.9509   25.1805 O   0  0  0  0  0  0  0  0  0  0  0  0
   13.3419  -20.1223   24.4229 O   0  0  0  0  0  0  0  0  0  0  0  0
    8.9213  -13.7755   27.6354 C   0  0  0  0  0  0  0  0  0  0  0  0
   10.1687  -14.6451   27.4647 C   0  0  2  0  0  0  0  0  0  0  0  0
    9.8500  -15.5699   26.3791 N   0  0  0  0  0  0  0  0  0  0  0  0
   10.4799  -15.2931   28.7313 C   0  0  0  0  0  0  0  0  0  0  0  0
   10.9685  -14.5616   29.7967 O   0  0  0  0  0  0  0  0  0  0  0  0
   10.3140  -16.5290   28.8933 O   0  0  0  0  0  0  0  0  0  0  0  0
  2  1  1  1
  2  4  1  0
  2  3  1  0
  5  7  1  0
  5  6  1  6
  5  4  1  0
  7  8  2  0
  9 10  1  0
  9  7  1  0
 10 11  1  6
 12 11  1  0
 13 14  2  0
 13 12  1  0
 15 16  2  0
 15 10  1  0
 17 13  1  0
 19 18  1  1
 19 20  1  0
 19 21  1  0
 20 15  1  0
 21 23  2  0
 21 22  1  0
M  END
$$$$
