GPH.pdb
     RDKit          3D

 22 23  0  0  1  0  0  0  0  0999 V2000
    8.0900  -15.8105   14.9795 N   0  0  0  0  0  0  0  0  0  0  0  0
    7.8462  -15.8117   16.3966 C   0  0  0  0  0  0  0  0  0  0  0  0
    8.9953  -15.2069   17.1210 C   0  0  0  0  0  0  0  0  0  0  0  0
   10.1178  -15.7346   17.0038 O   0  0  0  0  0  0  0  0  0  0  0  0
    8.8228  -14.0384   17.9408 N   0  0  0  0  0  0  0  0  0  0  0  0
    7.6426  -13.2157   18.0193 C   0  0  0  0  0  0  0  0  0  0  0  0
    7.6004  -12.8184   19.4710 C   0  0  0  0  0  0  0  0  0  0  0  0
    9.0736  -12.3984   19.6442 C   0  0  0  0  0  0  0  0  0  0  0  0
    9.8048  -13.4761   18.8286 C   0  0  1  0  0  0  0  0  0  0  0  0
   10.4173  -14.4713   19.7465 C   0  0  0  0  0  0  0  0  0  0  0  0
    9.6774  -15.2186   20.4018 O   0  0  0  0  0  0  0  0  0  0  0  0
   11.8268  -14.5476   19.8554 N   0  0  0  0  0  0  0  0  0  0  0  0
   12.4577  -15.6186   20.6282 C   0  0  1  0  0  0  0  0  0  0  0  0
   12.9477  -16.6305   19.5861 C   0  0  0  0  0  0  0  0  0  0  0  0
   11.9127  -17.6382   19.2785 C   0  0  0  0  0  0  0  0  0  0  0  0
   10.6598  -17.7218   19.8375 C   0  0  0  0  0  0  0  0  0  0  0  0
   10.0561  -18.7880   19.2660 N   0  0  0  0  0  0  0  0  0  0  0  0
   10.8985  -19.3352   18.3955 C   0  0  0  0  0  0  0  0  0  0  0  0
   12.0484  -18.6305   18.3972 N   0  0  0  0  0  0  0  0  0  0  0  0
   13.5871  -15.0951   21.4308 C   0  0  0  0  0  0  0  0  0  0  0  0
   14.1988  -14.0930   21.0398 O   0  0  0  0  0  0  0  0  0  0  0  0
   13.9700  -15.7054   22.6080 O   0  0  0  0  0  0  0  0  0  0  0  0
  2  1  1  0
  2  3  1  0
  3  4  2  0
  5  3  1  0
  5  6  1  0
  7  6  1  0
  8  7  1  0
  9  8  1  0
  9  5  1  0
  9 10  1  1
 11 10  2  0
 12 10  1  0
 13 14  1  6
 13 12  1  0
 14 15  1  0
 15 16  2  0
 17 16  1  0
 18 17  1  0
 19 18  2  0
 19 15  1  0
 20 13  1  0
 20 22  1  0
 21 20  2  0
M  END
$$$$
