GPH.pdb
     RDKit          3D

 22 23  0  0  1  0  0  0  0  0999 V2000
    7.2521  -14.2075   21.3879 N   0  0  0  0  0  0  0  0  0  0  0  0
    6.6541  -14.3017   22.6923 C   0  0  0  0  0  0  0  0  0  0  0  0
    7.6906  -14.1619   23.7492 C   0  0  0  0  0  0  0  0  0  0  0  0
    8.7563  -14.7955   23.6259 O   0  0  0  0  0  0  0  0  0  0  0  0
    7.4753  -13.3160   24.8916 N   0  0  0  0  0  0  0  0  0  0  0  0
    6.3699  -12.4136   25.0910 C   0  0  0  0  0  0  0  0  0  0  0  0
    6.1111  -12.5138   26.5709 C   0  0  0  0  0  0  0  0  0  0  0  0
    7.5618  -12.3770   27.0745 C   0  0  0  0  0  0  0  0  0  0  0  0
    8.3324  -13.2147   26.0422 C   0  0  1  0  0  0  0  0  0  0  0  0
    8.6950  -14.5294   26.6324 C   0  0  0  0  0  0  0  0  0  0  0  0
    7.7984  -15.3551   26.8557 O   0  0  0  0  0  0  0  0  0  0  0  0
   10.0502  -14.8136   26.9274 N   0  0  0  0  0  0  0  0  0  0  0  0
   10.4223  -16.0649   27.5894 C   0  0  1  0  0  0  0  0  0  0  0  0
   11.9061  -16.2667   27.2616 C   0  0  0  0  0  0  0  0  0  0  0  0
   12.4652  -17.4357   27.9702 C   0  0  0  0  0  0  0  0  0  0  0  0
   11.9254  -18.6989   28.0181 C   0  0  0  0  0  0  0  0  0  0  0  0
   12.7637  -19.4448   28.7723 N   0  0  0  0  0  0  0  0  0  0  0  0
   13.7725  -18.6762   29.1701 C   0  0  0  0  0  0  0  0  0  0  0  0
   13.5956  -17.4329   28.6786 N   0  0  0  0  0  0  0  0  0  0  0  0
   10.2105  -15.9710   29.0523 C   0  0  0  0  0  0  0  0  0  0  0  0
    9.9691  -16.9976   29.6996 O   0  0  0  0  0  0  0  0  0  0  0  0
   10.2777  -14.7579   29.7072 O   0  0  0  0  0  0  0  0  0  0  0  0
  2  1  1  0
  2  3  1  0
  3  4  2  0
  5  3  1  0
  5  6  1  0
  7  6  1  0
  8  7  1  0
  9  8  1  0
  9  5  1  0
  9 10  1  1
 11 10  2  0
 12 10  1  0
 13 14  1  1
 13 12  1  0
 14 15  1  0
 15 16  2  0
 17 16  1  0
 18 17  1  0
 19 18  2  0
 19 15  1  0
 20 13  1  0
 20 22  1  0
 21 20  2  0
M  END
$$$$
