GPH.pdb
     RDKit          3D

 22 23  0  0  1  0  0  0  0  0999 V2000
    7.3516  -18.0500   18.2484 N   0  0  0  0  0  0  0  0  0  0  0  0
    6.8834  -17.3058   19.3862 C   0  0  0  0  0  0  0  0  0  0  0  0
    7.9902  -16.5045   19.9727 C   0  0  0  0  0  0  0  0  0  0  0  0
    8.9915  -17.1026   20.4108 O   0  0  0  0  0  0  0  0  0  0  0  0
    7.9140  -15.0701   20.0364 N   0  0  0  0  0  0  0  0  0  0  0  0
    6.7994  -14.2542   19.6267 C   0  0  0  0  0  0  0  0  0  0  0  0
    6.8019  -13.1406   20.6401 C   0  0  0  0  0  0  0  0  0  0  0  0
    8.3041  -12.7954   20.6086 C   0  0  0  0  0  0  0  0  0  0  0  0
    8.9443  -14.1893   20.5174 C   0  0  1  0  0  0  0  0  0  0  0  0
    9.4900  -14.5790   21.8435 C   0  0  0  0  0  0  0  0  0  0  0  0
   10.6603  -14.2818   22.1220 O   0  0  0  0  0  0  0  0  0  0  0  0
    8.6682  -15.2786   22.7598 N   0  0  0  0  0  0  0  0  0  0  0  0
    9.1169  -15.5161   24.1326 C   0  0  1  0  0  0  0  0  0  0  0  0
    9.1034  -14.1378   24.8034 C   0  0  0  0  0  0  0  0  0  0  0  0
    7.7460  -13.7635   25.2489 C   0  0  0  0  0  0  0  0  0  0  0  0
    7.2015  -12.5014   25.2434 C   0  0  0  0  0  0  0  0  0  0  0  0
    5.9471  -12.6236   25.7326 N   0  0  0  0  0  0  0  0  0  0  0  0
    5.7297  -13.9017   26.0257 C   0  0  0  0  0  0  0  0  0  0  0  0
    6.8366  -14.6129   25.7297 N   0  0  0  0  0  0  0  0  0  0  0  0
    8.2073  -16.4541   24.8301 C   0  0  0  0  0  0  0  0  0  0  0  0
    8.5107  -16.8738   25.9540 O   0  0  0  0  0  0  0  0  0  0  0  0
    7.0264  -16.8690   24.2486 O   0  0  0  0  0  0  0  0  0  0  0  0
  2  1  1  0
  2  3  1  0
  3  4  2  0
  5  3  1  0
  5  6  1  0
  7  6  1  0
  8  7  1  0
  9  8  1  0
  9  5  1  0
  9 10  1  1
 11 10  2  0
 12 10  1  0
 13 14  1  1
 13 12  1  0
 14 15  1  0
 15 16  2  0
 17 16  1  0
 18 17  1  0
 19 18  2  0
 19 15  1  0
 20 13  1  0
 20 22  1  0
 21 20  2  0
M  END
$$$$
