GPH.pdb
     RDKit          3D

 22 23  0  0  1  0  0  0  0  0999 V2000
    8.8414  -17.2816   17.0585 N   0  0  0  0  0  0  0  0  0  0  0  0
    8.0034  -16.6664   18.0520 C   0  0  0  0  0  0  0  0  0  0  0  0
    8.8330  -16.0615   19.1275 C   0  0  0  0  0  0  0  0  0  0  0  0
    9.8443  -16.6763   19.5168 O   0  0  0  0  0  0  0  0  0  0  0  0
    8.4822  -14.7950   19.7108 N   0  0  0  0  0  0  0  0  0  0  0  0
    7.5657  -13.8267   19.1646 C   0  0  0  0  0  0  0  0  0  0  0  0
    6.8941  -13.2648   20.3894 C   0  0  0  0  0  0  0  0  0  0  0  0
    8.1467  -13.0167   21.2532 C   0  0  0  0  0  0  0  0  0  0  0  0
    8.9910  -14.2635   20.9467 C   0  0  1  0  0  0  0  0  0  0  0  0
    8.9095  -15.2170   22.0835 C   0  0  0  0  0  0  0  0  0  0  0  0
    7.8149  -15.7267   22.3623 O   0  0  0  0  0  0  0  0  0  0  0  0
   10.0766  -15.5245   22.8235 N   0  0  0  0  0  0  0  0  0  0  0  0
   10.0157  -16.4366   23.9667 C   0  0  1  0  0  0  0  0  0  0  0  0
   11.3876  -17.1192   24.0091 C   0  0  0  0  0  0  0  0  0  0  0  0
   11.6050  -17.9764   22.8262 C   0  0  0  0  0  0  0  0  0  0  0  0
   10.6555  -18.3656   21.9117 C   0  0  0  0  0  0  0  0  0  0  0  0
   11.2928  -19.1386   21.0039 N   0  0  0  0  0  0  0  0  0  0  0  0
   12.5751  -19.2213   21.3440 C   0  0  0  0  0  0  0  0  0  0  0  0
   12.7763  -18.5057   22.4692 N   0  0  0  0  0  0  0  0  0  0  0  0
    9.7542  -15.6935   25.2210 C   0  0  0  0  0  0  0  0  0  0  0  0
    9.5803  -16.3193   26.2742 O   0  0  0  0  0  0  0  0  0  0  0  0
    9.7009  -14.3145   25.2362 O   0  0  0  0  0  0  0  0  0  0  0  0
  2  1  1  0
  2  3  1  0
  3  4  2  0
  5  3  1  0
  5  6  1  0
  7  6  1  0
  8  7  1  0
  9  8  1  0
  9  5  1  0
  9 10  1  1
 11 10  2  0
 12 10  1  0
 13 14  1  1
 13 12  1  0
 14 15  1  0
 15 16  2  0
 17 16  1  0
 18 17  1  0
 19 18  2  0
 19 15  1  0
 20 13  1  0
 20 22  1  0
 21 20  2  0
M  END
$$$$
