GPH.pdb
     RDKit          3D

 22 23  0  0  1  0  0  0  0  0999 V2000
    6.8321  -17.9739   19.1433 N   0  0  0  0  0  0  0  0  0  0  0  0
    6.3856  -17.0347   20.1365 C   0  0  0  0  0  0  0  0  0  0  0  0
    7.5490  -16.3726   20.7840 C   0  0  0  0  0  0  0  0  0  0  0  0
    8.3164  -17.0643   21.4804 O   0  0  0  0  0  0  0  0  0  0  0  0
    7.7898  -14.9653   20.6150 N   0  0  0  0  0  0  0  0  0  0  0  0
    7.1677  -14.1021   19.6436 C   0  0  0  0  0  0  0  0  0  0  0  0
    7.0111  -12.8048   20.3915 C   0  0  0  0  0  0  0  0  0  0  0  0
    8.4272  -12.7059   20.9928 C   0  0  0  0  0  0  0  0  0  0  0  0
    8.7038  -14.1655   21.3855 C   0  0  1  0  0  0  0  0  0  0  0  0
    8.5461  -14.3288   22.8541 C   0  0  0  0  0  0  0  0  0  0  0  0
    7.7739  -13.5744   23.4625 O   0  0  0  0  0  0  0  0  0  0  0  0
    9.2763  -15.3372   23.5280 N   0  0  0  0  0  0  0  0  0  0  0  0
    9.5113  -15.2497   24.9701 C   0  0  1  0  0  0  0  0  0  0  0  0
    8.1508  -15.5343   25.6165 C   0  0  0  0  0  0  0  0  0  0  0  0
    7.3412  -14.3055   25.7425 C   0  0  0  0  0  0  0  0  0  0  0  0
    7.6421  -13.2014   26.5040 C   0  0  0  0  0  0  0  0  0  0  0  0
    6.6306  -12.3232   26.3210 N   0  0  0  0  0  0  0  0  0  0  0  0
    5.7482  -12.8618   25.4856 C   0  0  0  0  0  0  0  0  0  0  0  0
    6.1799  -14.0870   25.1234 N   0  0  0  0  0  0  0  0  0  0  0  0
   10.5215  -16.2434   25.4012 C   0  0  0  0  0  0  0  0  0  0  0  0
   10.8487  -16.3009   26.5932 O   0  0  0  0  0  0  0  0  0  0  0  0
   11.1049  -17.1072   24.4966 O   0  0  0  0  0  0  0  0  0  0  0  0
  2  1  1  0
  2  3  1  0
  3  4  2  0
  5  3  1  0
  5  6  1  0
  7  6  1  0
  8  7  1  0
  9  8  1  0
  9  5  1  0
  9 10  1  1
 11 10  2  0
 12 10  1  0
 13 14  1  1
 13 12  1  0
 14 15  1  0
 15 16  2  0
 17 16  1  0
 18 17  1  0
 19 18  2  0
 19 15  1  0
 20 13  1  0
 20 22  1  0
 21 20  2  0
M  END
$$$$
