GPH.pdb
     RDKit          3D

 22 23  0  0  1  0  0  0  0  0999 V2000
    8.2841  -17.7516   17.5783 N   0  0  0  0  0  0  0  0  0  0  0  0
    7.4914  -16.9875   18.5033 C   0  0  0  0  0  0  0  0  0  0  0  0
    8.3648  -16.3074   19.4960 C   0  0  0  0  0  0  0  0  0  0  0  0
    9.2763  -16.9635   20.0357 O   0  0  0  0  0  0  0  0  0  0  0  0
    8.1683  -14.9232   19.8313 N   0  0  0  0  0  0  0  0  0  0  0  0
    7.3281  -13.9850   19.1314 C   0  0  0  0  0  0  0  0  0  0  0  0
    6.7722  -13.1323   20.2408 C   0  0  0  0  0  0  0  0  0  0  0  0
    8.0814  -12.8585   21.0074 C   0  0  0  0  0  0  0  0  0  0  0  0
    8.7831  -14.2231   20.9270 C   0  0  1  0  0  0  0  0  0  0  0  0
    8.6598  -14.9287   22.2289 C   0  0  0  0  0  0  0  0  0  0  0  0
    7.5297  -15.1666   22.6782 O   0  0  0  0  0  0  0  0  0  0  0  0
    9.8284  -15.3144   22.9288 N   0  0  0  0  0  0  0  0  0  0  0  0
    9.7326  -16.0299   24.2022 C   0  0  1  0  0  0  0  0  0  0  0  0
    9.2557  -17.4399   23.8355 C   0  0  0  0  0  0  0  0  0  0  0  0
    7.7831  -17.5099   23.7476 C   0  0  0  0  0  0  0  0  0  0  0  0
    6.8850  -16.6882   24.3862 C   0  0  0  0  0  0  0  0  0  0  0  0
    5.6536  -17.1106   24.0213 N   0  0  0  0  0  0  0  0  0  0  0  0
    5.7877  -18.1442   23.1965 C   0  0  0  0  0  0  0  0  0  0  0  0
    7.1008  -18.3974   23.0221 N   0  0  0  0  0  0  0  0  0  0  0  0
   11.0477  -16.0751   24.8821 C   0  0  0  0  0  0  0  0  0  0  0  0
   11.1310  -16.5677   26.0142 O   0  0  0  0  0  0  0  0  0  0  0  0
   12.1829  -15.5773   24.2752 O   0  0  0  0  0  0  0  0  0  0  0  0
  2  1  1  0
  2  3  1  0
  3  4  2  0
  5  3  1  0
  5  6  1  0
  7  6  1  0
  8  7  1  0
  9  8  1  0
  9  5  1  0
  9 10  1  1
 11 10  2  0
 12 10  1  0
 13 14  1  6
 13 12  1  0
 14 15  1  0
 15 16  2  0
 17 16  1  0
 18 17  1  0
 19 18  2  0
 19 15  1  0
 20 13  1  0
 20 22  1  0
 21 20  2  0
M  END
$$$$
