GPH.pdb
     RDKit          3D

 22 23  0  0  1  0  0  0  0  0999 V2000
    8.0562  -16.4984   15.9650 N   0  0  0  0  0  0  0  0  0  0  0  0
    7.4206  -16.3591   17.2474 C   0  0  0  0  0  0  0  0  0  0  0  0
    8.4198  -15.9858   18.2834 C   0  0  0  0  0  0  0  0  0  0  0  0
    9.3456  -16.7816   18.5322 O   0  0  0  0  0  0  0  0  0  0  0  0
    8.3264  -14.7355   18.9872 N   0  0  0  0  0  0  0  0  0  0  0  0
    7.3636  -13.6904   18.7492 C   0  0  0  0  0  0  0  0  0  0  0  0
    7.0884  -13.1598   20.1311 C   0  0  0  0  0  0  0  0  0  0  0  0
    8.5419  -13.0279   20.6278 C   0  0  0  0  0  0  0  0  0  0  0  0
    9.1855  -14.3005   20.0556 C   0  0  1  0  0  0  0  0  0  0  0  0
    9.3508  -15.3084   21.1349 C   0  0  0  0  0  0  0  0  0  0  0  0
    8.3419  -15.7549   21.6992 O   0  0  0  0  0  0  0  0  0  0  0  0
   10.6502  -15.7382   21.4973 N   0  0  0  0  0  0  0  0  0  0  0  0
   10.8415  -16.6941   22.5892 C   0  0  1  0  0  0  0  0  0  0  0  0
   11.5875  -17.8769   21.9611 C   0  0  0  0  0  0  0  0  0  0  0  0
   10.6821  -18.7289   21.1638 C   0  0  0  0  0  0  0  0  0  0  0  0
    9.4200  -19.1405   21.5204 C   0  0  0  0  0  0  0  0  0  0  0  0
    8.9618  -19.8984   20.4989 N   0  0  0  0  0  0  0  0  0  0  0  0
    9.8984  -19.9507   19.5572 C   0  0  0  0  0  0  0  0  0  0  0  0
   10.9649  -19.2305   19.9604 N   0  0  0  0  0  0  0  0  0  0  0  0
   11.6328  -16.0905   23.6861 C   0  0  0  0  0  0  0  0  0  0  0  0
   12.2797  -15.0574   23.4729 O   0  0  0  0  0  0  0  0  0  0  0  0
   11.6617  -16.6600   24.9430 O   0  0  0  0  0  0  0  0  0  0  0  0
  2  1  1  0
  2  3  1  0
  3  4  2  0
  5  3  1  0
  5  6  1  0
  7  6  1  0
  8  7  1  0
  9  8  1  0
  9  5  1  0
  9 10  1  1
 11 10  2  0
 12 10  1  0
 13 14  1  6
 13 12  1  0
 14 15  1  0
 15 16  2  0
 17 16  1  0
 18 17  1  0
 19 18  2  0
 19 15  1  0
 20 13  1  0
 20 22  1  0
 21 20  2  0
M  END
$$$$
