GPH.pdb
     RDKit          3D

 22 23  0  0  1  0  0  0  0  0999 V2000
    5.3743  -17.9087   19.7738 N   0  0  0  0  0  0  0  0  0  0  0  0
    5.4427  -16.7237   20.5856 C   0  0  0  0  0  0  0  0  0  0  0  0
    6.8587  -16.3748   20.8754 C   0  0  0  0  0  0  0  0  0  0  0  0
    7.5495  -17.1813   21.5271 O   0  0  0  0  0  0  0  0  0  0  0  0
    7.4258  -15.1357   20.4171 N   0  0  0  0  0  0  0  0  0  0  0  0
    6.8523  -14.2412   19.4441 C   0  0  0  0  0  0  0  0  0  0  0  0
    7.2323  -12.8810   19.9662 C   0  0  0  0  0  0  0  0  0  0  0  0
    8.7218  -13.1482   20.2605 C   0  0  0  0  0  0  0  0  0  0  0  0
    8.6759  -14.5682   20.8460 C   0  0  1  0  0  0  0  0  0  0  0  0
    8.8269  -14.5074   22.3231 C   0  0  0  0  0  0  0  0  0  0  0  0
    8.1756  -13.6666   22.9590 O   0  0  0  0  0  0  0  0  0  0  0  0
    9.7068  -15.4057   22.9737 N   0  0  0  0  0  0  0  0  0  0  0  0
    9.8120  -15.4200   24.4335 C   0  0  1  0  0  0  0  0  0  0  0  0
    8.4552  -15.9338   24.9286 C   0  0  0  0  0  0  0  0  0  0  0  0
    7.5506  -14.8224   25.2859 C   0  0  0  0  0  0  0  0  0  0  0  0
    7.9110  -13.5170   25.5212 C   0  0  0  0  0  0  0  0  0  0  0  0
    6.7706  -12.8518   25.8127 N   0  0  0  0  0  0  0  0  0  0  0  0
    5.7555  -13.7082   25.7592 C   0  0  0  0  0  0  0  0  0  0  0  0
    6.2291  -14.9284   25.4343 N   0  0  0  0  0  0  0  0  0  0  0  0
   10.9095  -16.3114   24.8746 C   0  0  0  0  0  0  0  0  0  0  0  0
   11.1814  -17.3179   24.2080 O   0  0  0  0  0  0  0  0  0  0  0  0
   11.6351  -16.0395   26.0167 O   0  0  0  0  0  0  0  0  0  0  0  0
  2  1  1  0
  2  3  1  0
  3  4  2  0
  5  3  1  0
  5  6  1  0
  7  6  1  0
  8  7  1  0
  9  8  1  0
  9  5  1  0
  9 10  1  1
 11 10  2  0
 12 10  1  0
 13 14  1  1
 13 12  1  0
 14 15  1  0
 15 16  2  0
 17 16  1  0
 18 17  1  0
 19 18  2  0
 19 15  1  0
 20 13  1  0
 20 22  1  0
 21 20  2  0
M  END
$$$$
