GPH.pdb
     RDKit          3D

 22 23  0  0  1  0  0  0  0  0999 V2000
    8.9537  -16.1209   15.5745 N   0  0  0  0  0  0  0  0  0  0  0  0
    8.1651  -15.8189   16.7384 C   0  0  0  0  0  0  0  0  0  0  0  0
    9.0454  -15.4721   17.8854 C   0  0  0  0  0  0  0  0  0  0  0  0
    9.9520  -16.2660   18.2019 O   0  0  0  0  0  0  0  0  0  0  0  0
    8.8609  -14.2490   18.6184 N   0  0  0  0  0  0  0  0  0  0  0  0
    8.0003  -13.1535   18.2508 C   0  0  0  0  0  0  0  0  0  0  0  0
    7.4802  -12.6688   19.5780 C   0  0  0  0  0  0  0  0  0  0  0  0
    8.8129  -12.6217   20.3515 C   0  0  0  0  0  0  0  0  0  0  0  0
    9.5103  -13.8968   19.8525 C   0  0  1  0  0  0  0  0  0  0  0  0
    9.4268  -14.9547   20.8926 C   0  0  0  0  0  0  0  0  0  0  0  0
    8.4853  -15.7595   20.8562 O   0  0  0  0  0  0  0  0  0  0  0  0
   10.4184  -15.0241   21.9008 N   0  0  0  0  0  0  0  0  0  0  0  0
   10.7841  -16.3088   22.4993 C   0  0  1  0  0  0  0  0  0  0  0  0
   11.3178  -17.1552   21.3381 C   0  0  0  0  0  0  0  0  0  0  0  0
   11.6826  -18.5163   21.7803 C   0  0  0  0  0  0  0  0  0  0  0  0
   11.5410  -19.0308   23.0471 C   0  0  0  0  0  0  0  0  0  0  0  0
   11.9992  -20.3019   22.9972 N   0  0  0  0  0  0  0  0  0  0  0  0
   12.4039  -20.5576   21.7572 C   0  0  0  0  0  0  0  0  0  0  0  0
   12.2117  -19.4592   20.9989 N   0  0  0  0  0  0  0  0  0  0  0  0
   11.8190  -16.1287   23.5436 C   0  0  0  0  0  0  0  0  0  0  0  0
   12.7311  -15.3123   23.3622 O   0  0  0  0  0  0  0  0  0  0  0  0
   11.7844  -16.8556   24.7162 O   0  0  0  0  0  0  0  0  0  0  0  0
  2  1  1  0
  2  3  1  0
  3  4  2  0
  5  3  1  0
  5  6  1  0
  7  6  1  0
  8  7  1  0
  9  8  1  0
  9  5  1  0
  9 10  1  1
 11 10  2  0
 12 10  1  0
 13 14  1  6
 13 12  1  0
 14 15  1  0
 15 16  2  0
 17 16  1  0
 18 17  1  0
 19 18  2  0
 19 15  1  0
 20 13  1  0
 20 22  1  0
 21 20  2  0
M  END
$$$$
