GPH.pdb
     RDKit          3D

 22 23  0  0  1  0  0  0  0  0999 V2000
    7.4928  -14.1837   21.5296 N   0  0  0  0  0  0  0  0  0  0  0  0
    6.8695  -14.4074   22.8060 C   0  0  0  0  0  0  0  0  0  0  0  0
    7.8202  -14.1025   23.9078 C   0  0  0  0  0  0  0  0  0  0  0  0
    8.9970  -14.4990   23.8061 O   0  0  0  0  0  0  0  0  0  0  0  0
    7.3984  -13.3665   25.0687 N   0  0  0  0  0  0  0  0  0  0  0  0
    6.1556  -12.6545   25.2246 C   0  0  0  0  0  0  0  0  0  0  0  0
    5.8144  -12.8783   26.6739 C   0  0  0  0  0  0  0  0  0  0  0  0
    7.1882  -12.5534   27.2933 C   0  0  0  0  0  0  0  0  0  0  0  0
    8.1484  -13.2038   26.2852 C   0  0  1  0  0  0  0  0  0  0  0  0
    8.6688  -14.4806   26.8393 C   0  0  0  0  0  0  0  0  0  0  0  0
    7.9064  -15.4539   26.9227 O   0  0  0  0  0  0  0  0  0  0  0  0
   10.0183  -14.5621   27.2596 N   0  0  0  0  0  0  0  0  0  0  0  0
   10.5328  -15.7830   27.8818 C   0  0  1  0  0  0  0  0  0  0  0  0
   11.9248  -15.9877   27.2733 C   0  0  0  0  0  0  0  0  0  0  0  0
   11.8437  -16.4035   25.8585 C   0  0  0  0  0  0  0  0  0  0  0  0
   10.6980  -16.6781   25.1504 C   0  0  0  0  0  0  0  0  0  0  0  0
   11.0916  -17.0168   23.9021 N   0  0  0  0  0  0  0  0  0  0  0  0
   12.4181  -16.9536   23.8447 C   0  0  0  0  0  0  0  0  0  0  0  0
   12.8906  -16.5752   25.0497 N   0  0  0  0  0  0  0  0  0  0  0  0
   10.6143  -15.6313   29.3529 C   0  0  0  0  0  0  0  0  0  0  0  0
   10.4868  -14.5084   29.8571 O   0  0  0  0  0  0  0  0  0  0  0  0
   10.8301  -16.7207   30.1723 O   0  0  0  0  0  0  0  0  0  0  0  0
  2  1  1  0
  2  3  1  0
  3  4  2  0
  5  3  1  0
  5  6  1  0
  7  6  1  0
  8  7  1  0
  9  8  1  0
  9  5  1  0
  9 10  1  1
 11 10  2  0
 12 10  1  0
 13 14  1  6
 13 12  1  0
 14 15  1  0
 15 16  2  0
 17 16  1  0
 18 17  1  0
 19 18  2  0
 19 15  1  0
 20 13  1  0
 20 22  1  0
 21 20  2  0
M  END
$$$$
