GPH.pdb
     RDKit          3D

 22 23  0  0  1  0  0  0  0  0999 V2000
    7.7216  -17.2270   16.2636 N   0  0  0  0  0  0  0  0  0  0  0  0
    7.4632  -16.4877   17.4696 C   0  0  0  0  0  0  0  0  0  0  0  0
    8.7134  -15.8561   17.9686 C   0  0  0  0  0  0  0  0  0  0  0  0
    9.7621  -16.5289   17.9678 O   0  0  0  0  0  0  0  0  0  0  0  0
    8.7202  -14.4990   18.4434 N   0  0  0  0  0  0  0  0  0  0  0  0
    7.6300  -13.5603   18.3645 C   0  0  0  0  0  0  0  0  0  0  0  0
    7.7535  -12.7862   19.6500 C   0  0  0  0  0  0  0  0  0  0  0  0
    9.2680  -12.5006   19.6096 C   0  0  0  0  0  0  0  0  0  0  0  0
    9.8240  -13.8314   19.0794 C   0  0  1  0  0  0  0  0  0  0  0  0
   10.4246  -14.6054   20.1967 C   0  0  0  0  0  0  0  0  0  0  0  0
    9.6823  -15.0636   21.0768 O   0  0  0  0  0  0  0  0  0  0  0  0
   11.8257  -14.8046   20.2357 N   0  0  0  0  0  0  0  0  0  0  0  0
   12.4371  -15.5916   21.3077 C   0  0  1  0  0  0  0  0  0  0  0  0
   12.4821  -17.0284   20.7752 C   0  0  0  0  0  0  0  0  0  0  0  0
   11.1949  -17.7236   20.9779 C   0  0  0  0  0  0  0  0  0  0  0  0
   10.5437  -18.5220   20.0680 C   0  0  0  0  0  0  0  0  0  0  0  0
    9.4111  -18.9458   20.6725 N   0  0  0  0  0  0  0  0  0  0  0  0
    9.3673  -18.4320   21.8976 C   0  0  0  0  0  0  0  0  0  0  0  0
   10.4662  -17.6754   22.0942 N   0  0  0  0  0  0  0  0  0  0  0  0
   13.7991  -15.0969   21.6143 C   0  0  0  0  0  0  0  0  0  0  0  0
   14.3376  -14.2844   20.8519 O   0  0  0  0  0  0  0  0  0  0  0  0
   14.4792  -15.5261   22.7359 O   0  0  0  0  0  0  0  0  0  0  0  0
  2  1  1  0
  2  3  1  0
  3  4  2  0
  5  3  1  0
  5  6  1  0
  7  6  1  0
  8  7  1  0
  9  8  1  0
  9  5  1  0
  9 10  1  1
 11 10  2  0
 12 10  1  0
 13 14  1  6
 13 12  1  0
 14 15  1  0
 15 16  2  0
 17 16  1  0
 18 17  1  0
 19 18  2  0
 19 15  1  0
 20 13  1  0
 20 22  1  0
 21 20  2  0
M  END
$$$$
