GPH.pdb
     RDKit          3D

 22 23  0  0  1  0  0  0  0  0999 V2000
    8.5166  -14.9536   14.7718 N   0  0  0  0  0  0  0  0  0  0  0  0
    8.0384  -15.1028   16.1197 C   0  0  0  0  0  0  0  0  0  0  0  0
    9.0536  -14.6096   17.0877 C   0  0  0  0  0  0  0  0  0  0  0  0
   10.2487  -14.9088   16.9017 O   0  0  0  0  0  0  0  0  0  0  0  0
    8.6725  -13.8044   18.2162 N   0  0  0  0  0  0  0  0  0  0  0  0
    7.3687  -13.2438   18.4651 C   0  0  0  0  0  0  0  0  0  0  0  0
    7.2366  -13.3405   19.9618 C   0  0  0  0  0  0  0  0  0  0  0  0
    8.6143  -12.7734   20.3581 C   0  0  0  0  0  0  0  0  0  0  0  0
    9.5306  -13.4079   19.3002 C   0  0  1  0  0  0  0  0  0  0  0  0
   10.2882  -14.5351   19.9032 C   0  0  0  0  0  0  0  0  0  0  0  0
    9.7654  -15.6580   19.9404 O   0  0  0  0  0  0  0  0  0  0  0  0
   11.5860  -14.3077   20.4212 N   0  0  0  0  0  0  0  0  0  0  0  0
   12.4093  -15.4250   20.8861 C   0  0  1  0  0  0  0  0  0  0  0  0
   13.8574  -14.9856   20.6413 C   0  0  0  0  0  0  0  0  0  0  0  0
   14.2008  -15.0210   19.2053 C   0  0  0  0  0  0  0  0  0  0  0  0
   13.4359  -15.5510   18.1936 C   0  0  0  0  0  0  0  0  0  0  0  0
   14.1332  -15.3666   17.0500 N   0  0  0  0  0  0  0  0  0  0  0  0
   15.2742  -14.7516   17.3443 C   0  0  0  0  0  0  0  0  0  0  0  0
   15.3237  -14.5344   18.6744 N   0  0  0  0  0  0  0  0  0  0  0  0
   12.1723  -15.6927   22.3234 C   0  0  0  0  0  0  0  0  0  0  0  0
   11.5784  -14.8513   23.0094 O   0  0  0  0  0  0  0  0  0  0  0  0
   12.6022  -16.8647   22.9120 O   0  0  0  0  0  0  0  0  0  0  0  0
  2  1  1  0
  2  3  1  0
  3  4  2  0
  5  3  1  0
  5  6  1  0
  7  6  1  0
  8  7  1  0
  9  8  1  0
  9  5  1  0
  9 10  1  1
 11 10  2  0
 12 10  1  0
 13 14  1  1
 13 12  1  0
 14 15  1  0
 15 16  2  0
 17 16  1  0
 18 17  1  0
 19 18  2  0
 19 15  1  0
 20 13  1  0
 20 22  1  0
 21 20  2  0
M  END
$$$$
