GPH.pdb
     RDKit          3D

 22 23  0  0  1  0  0  0  0  0999 V2000
    7.8296  -17.4392   17.0560 N   0  0  0  0  0  0  0  0  0  0  0  0
    7.1634  -16.6366   18.0459 C   0  0  0  0  0  0  0  0  0  0  0  0
    8.1326  -16.1687   19.0719 C   0  0  0  0  0  0  0  0  0  0  0  0
    8.8576  -17.0112   19.6346 O   0  0  0  0  0  0  0  0  0  0  0  0
    8.2367  -14.7758   19.4128 N   0  0  0  0  0  0  0  0  0  0  0  0
    7.6266  -13.6758   18.7101 C   0  0  0  0  0  0  0  0  0  0  0  0
    7.2570  -12.7265   19.8189 C   0  0  0  0  0  0  0  0  0  0  0  0
    8.5865  -12.7450   20.5991 C   0  0  0  0  0  0  0  0  0  0  0  0
    8.9772  -14.2289   20.5179 C   0  0  1  0  0  0  0  0  0  0  0  0
    8.6908  -14.8952   21.8148 C   0  0  0  0  0  0  0  0  0  0  0  0
    7.5263  -15.2313   22.0728 O   0  0  0  0  0  0  0  0  0  0  0  0
    9.7469  -15.1330   22.7272 N   0  0  0  0  0  0  0  0  0  0  0  0
    9.5636  -16.0434   23.8586 C   0  0  1  0  0  0  0  0  0  0  0  0
    9.3692  -17.4287   23.2318 C   0  0  0  0  0  0  0  0  0  0  0  0
    7.9403  -17.7935   23.1520 C   0  0  0  0  0  0  0  0  0  0  0  0
    6.8721  -16.9974   23.4904 C   0  0  0  0  0  0  0  0  0  0  0  0
    5.7601  -17.7312   23.2608 N   0  0  0  0  0  0  0  0  0  0  0  0
    6.1269  -18.9237   22.8023 C   0  0  0  0  0  0  0  0  0  0  0  0
    7.4729  -18.9703   22.7322 N   0  0  0  0  0  0  0  0  0  0  0  0
   10.7482  -16.0252   24.7475 C   0  0  0  0  0  0  0  0  0  0  0  0
   10.5931  -16.1307   25.9707 O   0  0  0  0  0  0  0  0  0  0  0  0
   12.0231  -15.8925   24.2358 O   0  0  0  0  0  0  0  0  0  0  0  0
  2  1  1  0
  2  3  1  0
  3  4  2  0
  5  3  1  0
  5  6  1  0
  7  6  1  0
  8  7  1  0
  9  8  1  0
  9  5  1  0
  9 10  1  1
 11 10  2  0
 12 10  1  0
 13 14  1  6
 13 12  1  0
 14 15  1  0
 15 16  2  0
 17 16  1  0
 18 17  1  0
 19 18  2  0
 19 15  1  0
 20 13  1  0
 20 22  1  0
 21 20  2  0
M  END
$$$$
