FCW.pdb
     RDKit          3D

 32 34  0  0  1  0  0  0  0  0999 V2000
    6.2044  -18.3804   20.5128 N   0  0  0  0  0  0  0  0  0  0  0  0
    6.8935  -17.1291   20.6980 C   0  0  1  0  0  0  0  0  0  0  0  0
    5.9532  -16.1319   21.3240 C   0  0  0  0  0  0  0  0  0  0  0  0
    6.5680  -14.7920   21.4567 C   0  0  0  0  0  0  0  0  0  0  0  0
    6.9211  -14.2831   22.6940 C   0  0  0  0  0  0  0  0  0  0  0  0
    7.4888  -13.0394   22.8416 C   0  0  0  0  0  0  0  0  0  0  0  0
    7.7308  -12.2390   21.7369 C   0  0  0  0  0  0  0  0  0  0  0  0
    7.3879  -12.7270   20.5076 C   0  0  0  0  0  0  0  0  0  0  0  0
    6.8104  -13.9933   20.3608 C   0  0  0  0  0  0  0  0  0  0  0  0
    8.0315  -17.3494   21.6275 C   0  0  0  0  0  0  0  0  0  0  0  0
    7.9113  -18.1340   22.6085 O   0  0  0  0  0  0  0  0  0  0  0  0
    9.2807  -16.6994   21.4581 N   0  0  0  0  0  0  0  0  0  0  0  0
   10.3883  -16.9884   22.3404 C   0  0  1  0  0  0  0  0  0  0  0  0
   11.6816  -17.0334   21.5956 C   0  0  0  0  0  0  0  0  0  0  0  0
   13.1257  -17.2666   22.6335 S   0  0  0  0  0  0  0  0  0  0  0  0
   10.4001  -16.0722   23.5147 C   0  0  0  0  0  0  0  0  0  0  0  0
   10.8558  -14.8955   23.4559 O   0  0  0  0  0  0  0  0  0  0  0  0
    9.8782  -16.5439   24.7436 N   0  0  0  0  0  0  0  0  0  0  0  0
   10.5752  -16.3092   26.0235 C   0  0  1  0  0  0  0  0  0  0  0  0
    9.8406  -15.3092   26.8388 C   0  0  0  0  0  0  0  0  0  0  0  0
    8.4953  -15.0033   26.3532 C   0  0  0  0  0  0  0  0  0  0  0  0
    7.5485  -15.9288   25.9429 C   0  0  0  0  0  0  0  0  0  0  0  0
    6.4490  -15.2791   25.5319 N   0  0  0  0  0  0  0  0  0  0  0  0
    6.6440  -13.9495   25.6606 C   0  0  0  0  0  0  0  0  0  0  0  0
    5.8235  -12.8705   25.3918 C   0  0  0  0  0  0  0  0  0  0  0  0
    6.2976  -11.6136   25.6445 C   0  0  0  0  0  0  0  0  0  0  0  0
    7.5496  -11.4207   26.1501 C   0  0  0  0  0  0  0  0  0  0  0  0
    8.3730  -12.4732   26.4208 C   0  0  0  0  0  0  0  0  0  0  0  0
    7.9234  -13.7688   26.1747 C   0  0  0  0  0  0  0  0  0  0  0  0
   10.9910  -17.5544   26.6477 C   0  0  0  0  0  0  0  0  0  0  0  0
   11.6923  -17.6122   27.6865 O   0  0  0  0  0  0  0  0  0  0  0  0
   10.6347  -18.8209   26.1273 O   0  0  0  0  0  0  0  0  0  0  0  0
  2  1  1  1
  3  4  1  0
  3  2  1  0
  4  9  1  0
  4  5  2  0
  5  6  1  0
  6  7  2  0
  8  7  1  0
  9  8  2  0
 10 12  1  0
 10  2  1  0
 11 10  2  0
 13 14  1  6
 13 12  1  0
 15 14  1  0
 16 13  1  0
 17 16  2  0
 18 16  1  0
 19 18  1  0
 19 20  1  1
 20 21  1  0
 21 22  2  0
 22 23  1  0
 24 25  2  0
 24 23  1  0
 26 25  1  0
 27 26  2  0
 28 27  1  0
 28 29  2  0
 29 21  1  0
 29 24  1  0
 30 32  1  0
 30 19  1  0
 31 30  2  0
M  END
$$$$
