FCW.pdb
     RDKit          3D

 32 34  0  0  1  0  0  0  0  0999 V2000
   11.8492  -17.0426   17.7781 N   0  0  0  0  0  0  0  0  0  0  0  0
   11.5767  -17.8324   18.9515 C   0  0  1  0  0  0  0  0  0  0  0  0
   12.8563  -18.4667   19.4318 C   0  0  0  0  0  0  0  0  0  0  0  0
   12.6463  -19.3080   20.6314 C   0  0  0  0  0  0  0  0  0  0  0  0
   13.1386  -18.9308   21.8684 C   0  0  0  0  0  0  0  0  0  0  0  0
   12.9599  -19.6986   22.9951 C   0  0  0  0  0  0  0  0  0  0  0  0
   12.2687  -20.8974   22.9291 C   0  0  0  0  0  0  0  0  0  0  0  0
   11.7760  -21.2843   21.7148 C   0  0  0  0  0  0  0  0  0  0  0  0
   11.9595  -20.5005   20.5700 C   0  0  0  0  0  0  0  0  0  0  0  0
   11.0687  -16.9327   20.0192 C   0  0  0  0  0  0  0  0  0  0  0  0
   11.7815  -15.9829   20.4458 O   0  0  0  0  0  0  0  0  0  0  0  0
    9.7840  -17.0981   20.5971 N   0  0  0  0  0  0  0  0  0  0  0  0
    9.2973  -16.1690   21.5914 C   0  0  1  0  0  0  0  0  0  0  0  0
    7.8419  -15.8889   21.4102 C   0  0  0  0  0  0  0  0  0  0  0  0
    6.7554  -17.0809   22.1949 S   0  0  0  0  0  0  0  0  0  0  0  0
    9.6602  -16.6075   22.9678 C   0  0  0  0  0  0  0  0  0  0  0  0
    9.8084  -17.8229   23.2785 O   0  0  0  0  0  0  0  0  0  0  0  0
    9.8458  -15.6183   23.9640 N   0  0  0  0  0  0  0  0  0  0  0  0
   10.0372  -15.9738   25.3838 C   0  0  1  0  0  0  0  0  0  0  0  0
    9.6292  -14.8471   26.2605 C   0  0  0  0  0  0  0  0  0  0  0  0
    8.2198  -14.4725   26.1479 C   0  0  0  0  0  0  0  0  0  0  0  0
    7.1626  -15.3409   25.9251 C   0  0  0  0  0  0  0  0  0  0  0  0
    6.0242  -14.6353   25.8465 N   0  0  0  0  0  0  0  0  0  0  0  0
    6.3012  -13.3245   26.0123 C   0  0  0  0  0  0  0  0  0  0  0  0
    5.4863  -12.2085   26.0305 C   0  0  0  0  0  0  0  0  0  0  0  0
    6.0610  -10.9863   26.2415 C   0  0  0  0  0  0  0  0  0  0  0  0
    7.4062  -10.8630   26.4304 C   0  0  0  0  0  0  0  0  0  0  0  0
    8.2255  -11.9527   26.4151 C   0  0  0  0  0  0  0  0  0  0  0  0
    7.6745  -13.2145   26.2018 C   0  0  0  0  0  0  0  0  0  0  0  0
    9.5394  -17.3075   25.6779 C   0  0  0  0  0  0  0  0  0  0  0  0
    9.7936  -17.9271   26.7390 O   0  0  0  0  0  0  0  0  0  0  0  0
    8.7167  -18.0265   24.7791 O   0  0  0  0  0  0  0  0  0  0  0  0
  2  1  1  6
  3  4  1  0
  3  2  1  0
  4  9  1  0
  4  5  2  0
  5  6  1  0
  6  7  2  0
  8  7  1  0
  9  8  2  0
 10 12  1  0
 10  2  1  0
 11 10  2  0
 13 14  1  1
 13 12  1  0
 15 14  1  0
 16 13  1  0
 17 16  2  0
 18 16  1  0
 19 18  1  0
 19 20  1  1
 20 21  1  0
 21 22  2  0
 22 23  1  0
 24 25  2  0
 24 23  1  0
 26 25  1  0
 27 26  2  0
 28 27  1  0
 28 29  2  0
 29 21  1  0
 29 24  1  0
 30 32  1  0
 30 19  1  0
 31 30  2  0
M  END
$$$$
