FCW.pdb
     RDKit          3D

 32 34  0  0  1  0  0  0  0  0999 V2000
    8.9895  -20.3335   19.9351 N   0  0  0  0  0  0  0  0  0  0  0  0
   10.0913  -19.5597   20.4476 C   0  0  1  0  0  0  0  0  0  0  0  0
   11.2737  -19.7075   19.5255 C   0  0  0  0  0  0  0  0  0  0  0  0
   11.8134  -21.0858   19.5264 C   0  0  0  0  0  0  0  0  0  0  0  0
   11.8004  -21.8630   18.3816 C   0  0  0  0  0  0  0  0  0  0  0  0
   12.2916  -23.1472   18.3603 C   0  0  0  0  0  0  0  0  0  0  0  0
   12.8257  -23.7170   19.5046 C   0  0  0  0  0  0  0  0  0  0  0  0
   12.8460  -22.9626   20.6437 C   0  0  0  0  0  0  0  0  0  0  0  0
   12.3453  -21.6559   20.6620 C   0  0  0  0  0  0  0  0  0  0  0  0
    9.6919  -18.1288   20.4740 C   0  0  0  0  0  0  0  0  0  0  0  0
    9.5908  -17.4748   19.3997 O   0  0  0  0  0  0  0  0  0  0  0  0
    9.4125  -17.4458   21.6852 N   0  0  0  0  0  0  0  0  0  0  0  0
    8.8873  -16.0995   21.6686 C   0  0  1  0  0  0  0  0  0  0  0  0
    7.6665  -16.0007   20.8147 C   0  0  0  0  0  0  0  0  0  0  0  0
    6.6748  -14.5352   21.1078 S   0  0  0  0  0  0  0  0  0  0  0  0
    8.7019  -15.5721   23.0492 C   0  0  0  0  0  0  0  0  0  0  0  0
    7.5818  -15.5714   23.6333 O   0  0  0  0  0  0  0  0  0  0  0  0
    9.8296  -15.0524   23.7299 N   0  0  0  0  0  0  0  0  0  0  0  0
   10.1756  -15.4826   25.0988 C   0  0  1  0  0  0  0  0  0  0  0  0
    9.0015  -16.1073   25.7589 C   0  0  0  0  0  0  0  0  0  0  0  0
    7.8300  -15.2372   25.8595 C   0  0  0  0  0  0  0  0  0  0  0  0
    6.5254  -15.5907   25.5521 C   0  0  0  0  0  0  0  0  0  0  0  0
    5.7284  -14.5266   25.7324 N   0  0  0  0  0  0  0  0  0  0  0  0
    6.4716  -13.4804   26.1514 C   0  0  0  0  0  0  0  0  0  0  0  0
    6.1274  -12.1842   26.4848 C   0  0  0  0  0  0  0  0  0  0  0  0
    7.1145  -11.3353   26.9013 C   0  0  0  0  0  0  0  0  0  0  0  0
    8.4108  -11.7503   26.9884 C   0  0  0  0  0  0  0  0  0  0  0  0
    8.7688  -13.0251   26.6631 C   0  0  0  0  0  0  0  0  0  0  0  0
    7.7890  -13.9177   26.2336 C   0  0  0  0  0  0  0  0  0  0  0  0
   11.4538  -16.1736   25.1404 C   0  0  0  0  0  0  0  0  0  0  0  0
   11.9381  -16.6798   26.1814 O   0  0  0  0  0  0  0  0  0  0  0  0
   12.2683  -16.3336   23.9946 O   0  0  0  0  0  0  0  0  0  0  0  0
  2  1  1  6
  3  4  1  0
  3  2  1  0
  4  9  1  0
  4  5  2  0
  5  6  1  0
  6  7  2  0
  8  7  1  0
  9  8  2  0
 10 12  1  0
 10  2  1  0
 11 10  2  0
 13 14  1  1
 13 12  1  0
 15 14  1  0
 16 13  1  0
 17 16  2  0
 18 16  1  0
 19 18  1  0
 19 20  1  6
 20 21  1  0
 21 22  2  0
 22 23  1  0
 24 25  2  0
 24 23  1  0
 26 25  1  0
 27 26  2  0
 28 27  1  0
 28 29  2  0
 29 21  1  0
 29 24  1  0
 30 32  1  0
 30 19  1  0
 31 30  2  0
M  END
$$$$
