FCW.pdb
     RDKit          3D

 32 34  0  0  1  0  0  0  0  0999 V2000
    7.5396  -17.7520   18.8930 N   0  0  0  0  0  0  0  0  0  0  0  0
    8.0517  -16.5770   19.5505 C   0  0  1  0  0  0  0  0  0  0  0  0
    6.9449  -15.5644   19.6916 C   0  0  0  0  0  0  0  0  0  0  0  0
    7.2992  -14.4777   20.6321 C   0  0  0  0  0  0  0  0  0  0  0  0
    8.5287  -14.4490   21.2663 C   0  0  0  0  0  0  0  0  0  0  0  0
    8.8774  -13.4525   22.1473 C   0  0  0  0  0  0  0  0  0  0  0  0
    7.9940  -12.4248   22.4353 C   0  0  0  0  0  0  0  0  0  0  0  0
    6.7755  -12.4385   21.8171 C   0  0  0  0  0  0  0  0  0  0  0  0
    6.4237  -13.4541   20.9210 C   0  0  0  0  0  0  0  0  0  0  0  0
    8.5142  -16.9599   20.9096 C   0  0  0  0  0  0  0  0  0  0  0  0
    7.8311  -17.7505   21.6169 O   0  0  0  0  0  0  0  0  0  0  0  0
    9.7216  -16.4625   21.4635 N   0  0  0  0  0  0  0  0  0  0  0  0
   10.4051  -17.1856   22.5117 C   0  0  1  0  0  0  0  0  0  0  0  0
   11.8802  -17.2146   22.2819 C   0  0  0  0  0  0  0  0  0  0  0  0
   12.7901  -18.2367   23.4413 S   0  0  0  0  0  0  0  0  0  0  0  0
   10.0144  -16.6862   23.8594 C   0  0  0  0  0  0  0  0  0  0  0  0
    9.5956  -15.5106   24.0550 O   0  0  0  0  0  0  0  0  0  0  0  0
   10.1182  -17.5687   24.9620 N   0  0  0  0  0  0  0  0  0  0  0  0
    9.8536  -17.1191   26.3429 C   0  0  1  0  0  0  0  0  0  0  0  0
    8.4090  -17.2443   26.6617 C   0  0  0  0  0  0  0  0  0  0  0  0
    7.5915  -16.1152   26.2188 C   0  0  0  0  0  0  0  0  0  0  0  0
    6.4999  -16.1857   25.3674 C   0  0  0  0  0  0  0  0  0  0  0  0
    6.0245  -14.9483   25.1600 N   0  0  0  0  0  0  0  0  0  0  0  0
    6.7724  -14.0629   25.8521 C   0  0  0  0  0  0  0  0  0  0  0  0
    6.6859  -12.6896   25.9803 C   0  0  0  0  0  0  0  0  0  0  0  0
    7.5918  -12.0525   26.7816 C   0  0  0  0  0  0  0  0  0  0  0  0
    8.5609  -12.7486   27.4422 C   0  0  0  0  0  0  0  0  0  0  0  0
    8.6617  -14.1034   27.3271 C   0  0  0  0  0  0  0  0  0  0  0  0
    7.7558  -14.7862   26.5181 C   0  0  0  0  0  0  0  0  0  0  0  0
   10.8279  -17.6532   27.2802 C   0  0  0  0  0  0  0  0  0  0  0  0
   11.6697  -18.5348   26.9825 O   0  0  0  0  0  0  0  0  0  0  0  0
   10.9075  -17.2173   28.6238 O   0  0  0  0  0  0  0  0  0  0  0  0
  2  1  1  1
  3  4  1  0
  3  2  1  0
  4  9  1  0
  4  5  2  0
  5  6  1  0
  6  7  2  0
  8  7  1  0
  9  8  2  0
 10 12  1  0
 10  2  1  0
 11 10  2  0
 13 14  1  6
 13 12  1  0
 15 14  1  0
 16 13  1  0
 17 16  2  0
 18 16  1  0
 19 18  1  0
 19 20  1  1
 20 21  1  0
 21 22  2  0
 22 23  1  0
 24 25  2  0
 24 23  1  0
 26 25  1  0
 27 26  2  0
 28 27  1  0
 28 29  2  0
 29 21  1  0
 29 24  1  0
 30 32  1  0
 30 19  1  0
 31 30  2  0
M  END
$$$$
