FCW.pdb
     RDKit          3D

 32 34  0  0  1  0  0  0  0  0999 V2000
    7.4559  -16.9825   17.6356 N   0  0  0  0  0  0  0  0  0  0  0  0
    8.0529  -16.0900   18.5959 C   0  0  1  0  0  0  0  0  0  0  0  0
    7.2544  -14.8135   18.6513 C   0  0  0  0  0  0  0  0  0  0  0  0
    7.7616  -13.8822   19.6840 C   0  0  0  0  0  0  0  0  0  0  0  0
    7.3377  -13.9672   20.9984 C   0  0  0  0  0  0  0  0  0  0  0  0
    7.7915  -13.1100   21.9732 C   0  0  0  0  0  0  0  0  0  0  0  0
    8.7047  -12.1142   21.6671 C   0  0  0  0  0  0  0  0  0  0  0  0
    9.1334  -12.0168   20.3734 C   0  0  0  0  0  0  0  0  0  0  0  0
    8.6697  -12.8908   19.3838 C   0  0  0  0  0  0  0  0  0  0  0  0
    8.0029  -16.7339   19.9341 C   0  0  0  0  0  0  0  0  0  0  0  0
    7.1942  -17.6760   20.1590 O   0  0  0  0  0  0  0  0  0  0  0  0
    8.8454  -16.3257   20.9996 N   0  0  0  0  0  0  0  0  0  0  0  0
    9.2882  -17.2752   21.9951 C   0  0  1  0  0  0  0  0  0  0  0  0
   10.0347  -18.4091   21.3735 C   0  0  0  0  0  0  0  0  0  0  0  0
   10.5690  -19.6681   22.5338 S   0  0  0  0  0  0  0  0  0  0  0  0
   10.0264  -16.6001   23.0987 C   0  0  0  0  0  0  0  0  0  0  0  0
   11.0365  -15.8694   22.8951 O   0  0  0  0  0  0  0  0  0  0  0  0
    9.5733  -16.7878   24.4271 N   0  0  0  0  0  0  0  0  0  0  0  0
   10.3170  -16.2508   25.5834 C   0  0  1  0  0  0  0  0  0  0  0  0
    9.4013  -16.0249   26.7301 C   0  0  0  0  0  0  0  0  0  0  0  0
    8.0546  -15.5959   26.3535 C   0  0  0  0  0  0  0  0  0  0  0  0
    7.0025  -16.4292   26.0072 C   0  0  0  0  0  0  0  0  0  0  0  0
    5.9356  -15.6802   25.6899 N   0  0  0  0  0  0  0  0  0  0  0  0
    6.2547  -14.3748   25.8182 C   0  0  0  0  0  0  0  0  0  0  0  0
    5.5132  -13.2246   25.6259 C   0  0  0  0  0  0  0  0  0  0  0  0
    6.1126  -12.0178   25.8554 C   0  0  0  0  0  0  0  0  0  0  0  0
    7.4115  -11.9423   26.2648 C   0  0  0  0  0  0  0  0  0  0  0  0
    8.1584  -13.0663   26.4590 C   0  0  0  0  0  0  0  0  0  0  0  0
    7.5804  -14.3139   26.2338 C   0  0  0  0  0  0  0  0  0  0  0  0
   11.5587  -16.9724   25.8087 C   0  0  0  0  0  0  0  0  0  0  0  0
   12.5214  -16.5121   26.4687 O   0  0  0  0  0  0  0  0  0  0  0  0
   11.7868  -18.2705   25.2943 O   0  0  0  0  0  0  0  0  0  0  0  0
  2  1  1  6
  3  4  1  0
  3  2  1  0
  4  9  1  0
  4  5  2  0
  5  6  1  0
  6  7  2  0
  8  7  1  0
  9  8  2  0
 10 12  1  0
 10  2  1  0
 11 10  2  0
 13 14  1  6
 13 12  1  0
 15 14  1  0
 16 13  1  0
 17 16  2  0
 18 16  1  0
 19 18  1  0
 19 20  1  1
 20 21  1  0
 21 22  2  0
 22 23  1  0
 24 25  2  0
 24 23  1  0
 26 25  1  0
 27 26  2  0
 28 27  1  0
 28 29  2  0
 29 21  1  0
 29 24  1  0
 30 32  1  0
 30 19  1  0
 31 30  2  0
M  END
$$$$
