FCW.pdb
     RDKit          3D

 32 34  0  0  1  0  0  0  0  0999 V2000
    6.5503  -16.3584   18.8409 N   0  0  0  0  0  0  0  0  0  0  0  0
    7.9900  -16.4042   18.8529 C   0  0  1  0  0  0  0  0  0  0  0  0
    8.5298  -15.0123   19.0561 C   0  0  0  0  0  0  0  0  0  0  0  0
    7.8405  -14.3014   20.1563 C   0  0  0  0  0  0  0  0  0  0  0  0
    6.8117  -14.8981   20.8636 C   0  0  0  0  0  0  0  0  0  0  0  0
    6.1539  -14.2552   21.8858 C   0  0  0  0  0  0  0  0  0  0  0  0
    6.5049  -12.9651   22.2489 C   0  0  0  0  0  0  0  0  0  0  0  0
    7.5191  -12.3616   21.5603 C   0  0  0  0  0  0  0  0  0  0  0  0
    8.1866  -13.0187   20.5205 C   0  0  0  0  0  0  0  0  0  0  0  0
    8.4264  -17.2488   19.9948 C   0  0  0  0  0  0  0  0  0  0  0  0
    8.3222  -18.5049   19.9358 O   0  0  0  0  0  0  0  0  0  0  0  0
    8.9688  -16.6917   21.1811 N   0  0  0  0  0  0  0  0  0  0  0  0
    9.5451  -17.5412   22.1984 C   0  0  1  0  0  0  0  0  0  0  0  0
   10.5544  -18.4772   21.6200 C   0  0  0  0  0  0  0  0  0  0  0  0
   12.0737  -17.6887   21.0843 S   0  0  0  0  0  0  0  0  0  0  0  0
   10.0527  -16.7426   23.3487 C   0  0  0  0  0  0  0  0  0  0  0  0
   10.8267  -15.7549   23.2033 O   0  0  0  0  0  0  0  0  0  0  0  0
    9.6482  -17.1093   24.6553 N   0  0  0  0  0  0  0  0  0  0  0  0
   10.3417  -16.5984   25.8540 C   0  0  1  0  0  0  0  0  0  0  0  0
    9.3624  -16.2778   26.9230 C   0  0  0  0  0  0  0  0  0  0  0  0
    8.2112  -15.4951   26.4740 C   0  0  0  0  0  0  0  0  0  0  0  0
    7.0660  -16.0007   25.8788 C   0  0  0  0  0  0  0  0  0  0  0  0
    6.2455  -14.9844   25.5722 N   0  0  0  0  0  0  0  0  0  0  0  0
    6.8178  -13.8215   25.9498 C   0  0  0  0  0  0  0  0  0  0  0  0
    6.3799  -12.5133   25.8686 C   0  0  0  0  0  0  0  0  0  0  0  0
    7.1864  -11.5253   26.3605 C   0  0  0  0  0  0  0  0  0  0  0  0
    8.3960  -11.8158   26.9197 C   0  0  0  0  0  0  0  0  0  0  0  0
    8.8445  -13.1004   27.0078 C   0  0  0  0  0  0  0  0  0  0  0  0
    8.0492  -14.1332   26.5157 C   0  0  0  0  0  0  0  0  0  0  0  0
   11.5062  -17.4021   26.1873 C   0  0  0  0  0  0  0  0  0  0  0  0
   11.7567  -18.5150   25.6648 O   0  0  0  0  0  0  0  0  0  0  0  0
   12.4655  -16.9898   27.1420 O   0  0  0  0  0  0  0  0  0  0  0  0
  2  1  1  1
  3  4  1  0
  3  2  1  0
  4  9  1  0
  4  5  2  0
  5  6  1  0
  6  7  2  0
  8  7  1  0
  9  8  2  0
 10 12  1  0
 10  2  1  0
 11 10  2  0
 13 14  1  6
 13 12  1  0
 15 14  1  0
 16 13  1  0
 17 16  2  0
 18 16  1  0
 19 18  1  0
 19 20  1  1
 20 21  1  0
 21 22  2  0
 22 23  1  0
 24 25  2  0
 24 23  1  0
 26 25  1  0
 27 26  2  0
 28 27  1  0
 28 29  2  0
 29 21  1  0
 29 24  1  0
 30 32  1  0
 30 19  1  0
 31 30  2  0
M  END
$$$$
