FCW.pdb
     RDKit          3D

 32 34  0  0  1  0  0  0  0  0999 V2000
    7.5672  -17.3937   17.5110 N   0  0  0  0  0  0  0  0  0  0  0  0
    8.0459  -16.3714   18.4060 C   0  0  1  0  0  0  0  0  0  0  0  0
    6.9559  -15.3551   18.6279 C   0  0  0  0  0  0  0  0  0  0  0  0
    7.3330  -14.3445   19.6416 C   0  0  0  0  0  0  0  0  0  0  0  0
    8.1000  -13.2426   19.3066 C   0  0  0  0  0  0  0  0  0  0  0  0
    8.4662  -12.2940   20.2323 C   0  0  0  0  0  0  0  0  0  0  0  0
    8.0729  -12.4113   21.5556 C   0  0  0  0  0  0  0  0  0  0  0  0
    7.3149  -13.4938   21.9028 C   0  0  0  0  0  0  0  0  0  0  0  0
    6.9438  -14.4574   20.9582 C   0  0  0  0  0  0  0  0  0  0  0  0
    8.3734  -17.0016   19.7111 C   0  0  0  0  0  0  0  0  0  0  0  0
    7.5336  -17.7449   20.2893 O   0  0  0  0  0  0  0  0  0  0  0  0
    9.6211  -16.7992   20.3546 N   0  0  0  0  0  0  0  0  0  0  0  0
    9.9302  -17.4755   21.5939 C   0  0  1  0  0  0  0  0  0  0  0  0
   10.9534  -18.5440   21.3917 C   0  0  0  0  0  0  0  0  0  0  0  0
   11.5102  -19.3313   22.9040 S   0  0  0  0  0  0  0  0  0  0  0  0
   10.2757  -16.5055   22.6701 C   0  0  0  0  0  0  0  0  0  0  0  0
   11.0666  -15.5377   22.4865 O   0  0  0  0  0  0  0  0  0  0  0  0
    9.6913  -16.6794   23.9481 N   0  0  0  0  0  0  0  0  0  0  0  0
   10.3249  -16.1459   25.1699 C   0  0  1  0  0  0  0  0  0  0  0  0
    9.8791  -14.7519   25.4195 C   0  0  0  0  0  0  0  0  0  0  0  0
    8.4383  -14.6049   25.6243 C   0  0  0  0  0  0  0  0  0  0  0  0
    7.4968  -15.6185   25.5378 C   0  0  0  0  0  0  0  0  0  0  0  0
    6.2766  -15.1036   25.7522 N   0  0  0  0  0  0  0  0  0  0  0  0
    6.3873  -13.7774   25.9788 C   0  0  0  0  0  0  0  0  0  0  0  0
    5.4400  -12.8114   26.2607 C   0  0  0  0  0  0  0  0  0  0  0  0
    5.8609  -11.5269   26.4641 C   0  0  0  0  0  0  0  0  0  0  0  0
    7.1827  -11.1984   26.3921 C   0  0  0  0  0  0  0  0  0  0  0  0
    8.1310  -12.1379   26.1145 C   0  0  0  0  0  0  0  0  0  0  0  0
    7.7383  -13.4575   25.9005 C   0  0  0  0  0  0  0  0  0  0  0  0
   10.2802  -17.1032   26.2629 C   0  0  0  0  0  0  0  0  0  0  0  0
   10.8283  -16.9151   27.3758 O   0  0  0  0  0  0  0  0  0  0  0  0
    9.6063  -18.3429   26.1597 O   0  0  0  0  0  0  0  0  0  0  0  0
  2  1  1  6
  3  4  1  0
  3  2  1  0
  4  9  1  0
  4  5  2  0
  5  6  1  0
  6  7  2  0
  8  7  1  0
  9  8  2  0
 10 12  1  0
 10  2  1  0
 11 10  2  0
 13 14  1  6
 13 12  1  0
 15 14  1  0
 16 13  1  0
 17 16  2  0
 18 16  1  0
 19 18  1  0
 19 20  1  1
 20 21  1  0
 21 22  2  0
 22 23  1  0
 24 25  2  0
 24 23  1  0
 26 25  1  0
 27 26  2  0
 28 27  1  0
 28 29  2  0
 29 21  1  0
 29 24  1  0
 30 32  1  0
 30 19  1  0
 31 30  2  0
M  END
$$$$
