FCW.pdb
     RDKit          3D

 32 34  0  0  1  0  0  0  0  0999 V2000
    7.1961  -18.4832   18.6150 N   0  0  0  0  0  0  0  0  0  0  0  0
    7.6607  -17.2068   19.0950 C   0  0  1  0  0  0  0  0  0  0  0  0
    6.4902  -16.4184   19.6226 C   0  0  0  0  0  0  0  0  0  0  0  0
    6.9087  -15.1302   20.2198 C   0  0  0  0  0  0  0  0  0  0  0  0
    6.8348  -14.9135   21.5845 C   0  0  0  0  0  0  0  0  0  0  0  0
    7.2131  -13.7236   22.1606 C   0  0  0  0  0  0  0  0  0  0  0  0
    7.6896  -12.6825   21.3805 C   0  0  0  0  0  0  0  0  0  0  0  0
    7.7689  -12.8805   20.0309 C   0  0  0  0  0  0  0  0  0  0  0  0
    7.3831  -14.0927   19.4477 C   0  0  0  0  0  0  0  0  0  0  0  0
    8.6121  -17.4400   20.2122 C   0  0  0  0  0  0  0  0  0  0  0  0
    8.3045  -18.2122   21.1615 O   0  0  0  0  0  0  0  0  0  0  0  0
    9.8850  -16.8162   20.2617 N   0  0  0  0  0  0  0  0  0  0  0  0
   10.8376  -17.1645   21.2912 C   0  0  1  0  0  0  0  0  0  0  0  0
   12.1931  -17.4156   20.7177 C   0  0  0  0  0  0  0  0  0  0  0  0
   12.3629  -16.9581   18.9917 S   0  0  0  0  0  0  0  0  0  0  0  0
   10.8266  -16.1699   22.3999 C   0  0  0  0  0  0  0  0  0  0  0  0
   10.8976  -14.9248   22.1986 O   0  0  0  0  0  0  0  0  0  0  0  0
   10.7321  -16.6443   23.7308 N   0  0  0  0  0  0  0  0  0  0  0  0
    9.8073  -16.0360   24.7072 C   0  0  1  0  0  0  0  0  0  0  0  0
    8.5839  -15.5426   24.0258 C   0  0  0  0  0  0  0  0  0  0  0  0
    7.6019  -14.9258   24.9172 C   0  0  0  0  0  0  0  0  0  0  0  0
    6.3816  -15.4709   25.2847 C   0  0  0  0  0  0  0  0  0  0  0  0
    5.7375  -14.6064   26.0834 N   0  0  0  0  0  0  0  0  0  0  0  0
    6.5002  -13.5056   26.2538 C   0  0  0  0  0  0  0  0  0  0  0  0
    6.2968  -12.3515   26.9862 C   0  0  0  0  0  0  0  0  0  0  0  0
    7.2757  -11.3974   26.9826 C   0  0  0  0  0  0  0  0  0  0  0  0
    8.4286  -11.5729   26.2754 C   0  0  0  0  0  0  0  0  0  0  0  0
    8.6462  -12.7046   25.5468 C   0  0  0  0  0  0  0  0  0  0  0  0
    7.6697  -13.6983   25.5265 C   0  0  0  0  0  0  0  0  0  0  0  0
    9.6643  -16.8566   25.8986 C   0  0  0  0  0  0  0  0  0  0  0  0
    9.7222  -16.4033   27.0671 O   0  0  0  0  0  0  0  0  0  0  0  0
    9.4458  -18.2531   25.8372 O   0  0  0  0  0  0  0  0  0  0  0  0
  2  1  1  1
  3  4  1  0
  3  2  1  0
  4  9  1  0
  4  5  2  0
  5  6  1  0
  6  7  2  0
  8  7  1  0
  9  8  2  0
 10 12  1  0
 10  2  1  0
 11 10  2  0
 13 14  1  6
 13 12  1  0
 15 14  1  0
 16 13  1  0
 17 16  2  0
 18 16  1  0
 19 18  1  0
 19 20  1  6
 20 21  1  0
 21 22  2  0
 22 23  1  0
 24 25  2  0
 24 23  1  0
 26 25  1  0
 27 26  2  0
 28 27  1  0
 28 29  2  0
 29 21  1  0
 29 24  1  0
 30 32  1  0
 30 19  1  0
 31 30  2  0
M  END
$$$$
