FCW.pdb
     RDKit          3D

 32 34  0  0  1  0  0  0  0  0999 V2000
    5.6518  -19.1088   22.9586 N   0  0  0  0  0  0  0  0  0  0  0  0
    6.1272  -17.7513   23.0382 C   0  0  1  0  0  0  0  0  0  0  0  0
    6.1211  -17.3063   24.4777 C   0  0  0  0  0  0  0  0  0  0  0  0
    6.6375  -15.9284   24.6383 C   0  0  0  0  0  0  0  0  0  0  0  0
    7.3065  -15.5413   25.7860 C   0  0  0  0  0  0  0  0  0  0  0  0
    7.7904  -14.2659   25.9590 C   0  0  0  0  0  0  0  0  0  0  0  0
    7.6216  -13.3078   24.9726 C   0  0  0  0  0  0  0  0  0  0  0  0
    6.9630  -13.6740   23.8329 C   0  0  0  0  0  0  0  0  0  0  0  0
    6.4718  -14.9730   23.6599 C   0  0  0  0  0  0  0  0  0  0  0  0
    7.5263  -17.7107   22.5399 C   0  0  0  0  0  0  0  0  0  0  0  0
    8.3816  -18.5316   22.9720 O   0  0  0  0  0  0  0  0  0  0  0  0
    7.9561  -16.7645   21.5746 N   0  0  0  0  0  0  0  0  0  0  0  0
    9.3293  -16.7415   21.1247 C   0  0  1  0  0  0  0  0  0  0  0  0
    9.4371  -16.2250   19.7279 C   0  0  0  0  0  0  0  0  0  0  0  0
   11.1200  -16.0217   19.1416 S   0  0  0  0  0  0  0  0  0  0  0  0
   10.2078  -16.0352   22.0983 C   0  0  0  0  0  0  0  0  0  0  0  0
   10.1335  -14.7912   22.3048 O   0  0  0  0  0  0  0  0  0  0  0  0
   11.1624  -16.7933   22.8189 N   0  0  0  0  0  0  0  0  0  0  0  0
   11.3872  -16.5863   24.2630 C   0  0  1  0  0  0  0  0  0  0  0  0
   10.0953  -16.5863   24.9947 C   0  0  0  0  0  0  0  0  0  0  0  0
   10.2244  -16.5225   26.4503 C   0  0  0  0  0  0  0  0  0  0  0  0
   10.3542  -17.6070   27.3038 C   0  0  0  0  0  0  0  0  0  0  0  0
   10.4120  -17.1650   28.5692 N   0  0  0  0  0  0  0  0  0  0  0  0
   10.3246  -15.8179   28.5742 C   0  0  0  0  0  0  0  0  0  0  0  0
   10.3493  -14.8996   29.6065 C   0  0  0  0  0  0  0  0  0  0  0  0
   10.2568  -13.5711   29.2982 C   0  0  0  0  0  0  0  0  0  0  0  0
   10.1427  -13.1539   28.0047 C   0  0  0  0  0  0  0  0  0  0  0  0
   10.1160  -14.0456   26.9736 C   0  0  0  0  0  0  0  0  0  0  0  0
   10.2071  -15.4080   27.2505 C   0  0  0  0  0  0  0  0  0  0  0  0
   12.4767  -17.4087   24.7628 C   0  0  0  0  0  0  0  0  0  0  0  0
   12.7484  -18.5499   24.3175 O   0  0  0  0  0  0  0  0  0  0  0  0
   13.3314  -16.9842   25.8073 O   0  0  0  0  0  0  0  0  0  0  0  0
  2  1  1  1
  3  4  1  0
  3  2  1  0
  4  9  1  0
  4  5  2  0
  5  6  1  0
  6  7  2  0
  8  7  1  0
  9  8  2  0
 10 12  1  0
 10  2  1  0
 11 10  2  0
 13 14  1  6
 13 12  1  0
 15 14  1  0
 16 13  1  0
 17 16  2  0
 18 16  1  0
 19 18  1  0
 19 20  1  1
 20 21  1  0
 21 22  2  0
 22 23  1  0
 24 25  2  0
 24 23  1  0
 26 25  1  0
 27 26  2  0
 28 27  1  0
 28 29  2  0
 29 21  1  0
 29 24  1  0
 30 32  1  0
 30 19  1  0
 31 30  2  0
M  END
$$$$
