FCW.pdb
     RDKit          3D

 32 34  0  0  1  0  0  0  0  0999 V2000
    8.4051  -16.8461   17.2472 N   0  0  0  0  0  0  0  0  0  0  0  0
    8.6451  -15.9421   18.3428 C   0  0  1  0  0  0  0  0  0  0  0  0
    7.5832  -14.8732   18.3467 C   0  0  0  0  0  0  0  0  0  0  0  0
    7.7284  -13.9464   19.4917 C   0  0  0  0  0  0  0  0  0  0  0  0
    8.4526  -12.7728   19.3784 C   0  0  0  0  0  0  0  0  0  0  0  0
    8.6049  -11.8995   20.4297 C   0  0  0  0  0  0  0  0  0  0  0  0
    8.0283  -12.1698   21.6601 C   0  0  0  0  0  0  0  0  0  0  0  0
    7.3097  -13.3248   21.7885 C   0  0  0  0  0  0  0  0  0  0  0  0
    7.1565  -14.2113   20.7166 C   0  0  0  0  0  0  0  0  0  0  0  0
    8.5488  -16.7047   19.6143 C   0  0  0  0  0  0  0  0  0  0  0  0
    7.7511  -17.6770   19.7163 O   0  0  0  0  0  0  0  0  0  0  0  0
    9.3338  -16.3798   20.7501 N   0  0  0  0  0  0  0  0  0  0  0  0
    9.3514  -17.2460   21.9069 C   0  0  1  0  0  0  0  0  0  0  0  0
    9.9318  -18.5821   21.5791 C   0  0  0  0  0  0  0  0  0  0  0  0
   11.6388  -18.5332   21.0306 S   0  0  0  0  0  0  0  0  0  0  0  0
    9.9931  -16.5797   23.0743 C   0  0  0  0  0  0  0  0  0  0  0  0
   10.9197  -15.7302   22.9490 O   0  0  0  0  0  0  0  0  0  0  0  0
    9.5423  -16.9150   24.3741 N   0  0  0  0  0  0  0  0  0  0  0  0
   10.1999  -16.3837   25.5841 C   0  0  1  0  0  0  0  0  0  0  0  0
    9.2291  -16.2897   26.7036 C   0  0  0  0  0  0  0  0  0  0  0  0
    7.9663  -15.6387   26.3563 C   0  0  0  0  0  0  0  0  0  0  0  0
    6.8246  -16.2732   25.8922 C   0  0  0  0  0  0  0  0  0  0  0  0
    5.8796  -15.3527   25.6476 N   0  0  0  0  0  0  0  0  0  0  0  0
    6.3664  -14.1277   25.9384 C   0  0  0  0  0  0  0  0  0  0  0  0
    5.7931  -12.8720   25.8723 C   0  0  0  0  0  0  0  0  0  0  0  0
    6.5406  -11.7942   26.2571 C   0  0  0  0  0  0  0  0  0  0  0  0
    7.8227  -11.9463   26.6969 C   0  0  0  0  0  0  0  0  0  0  0  0
    8.4047  -13.1772   26.7681 C   0  0  0  0  0  0  0  0  0  0  0  0
    7.6728  -14.2985   26.3832 C   0  0  0  0  0  0  0  0  0  0  0  0
   11.4860  -17.0181   25.8220 C   0  0  0  0  0  0  0  0  0  0  0  0
   11.8564  -18.0746   25.2556 O   0  0  0  0  0  0  0  0  0  0  0  0
   12.4383  -16.4893   26.7250 O   0  0  0  0  0  0  0  0  0  0  0  0
  2  1  1  6
  3  4  1  0
  3  2  1  0
  4  9  1  0
  4  5  2  0
  5  6  1  0
  6  7  2  0
  8  7  1  0
  9  8  2  0
 10 12  1  0
 10  2  1  0
 11 10  2  0
 13 14  1  6
 13 12  1  0
 15 14  1  0
 16 13  1  0
 17 16  2  0
 18 16  1  0
 19 18  1  0
 19 20  1  1
 20 21  1  0
 21 22  2  0
 22 23  1  0
 24 25  2  0
 24 23  1  0
 26 25  1  0
 27 26  2  0
 28 27  1  0
 28 29  2  0
 29 21  1  0
 29 24  1  0
 30 32  1  0
 30 19  1  0
 31 30  2  0
M  END
$$$$
