FCW.pdb
     RDKit          3D

 32 34  0  0  1  0  0  0  0  0999 V2000
    6.9695  -17.6606   18.5451 N   0  0  0  0  0  0  0  0  0  0  0  0
    7.6790  -16.6853   19.3329 C   0  0  1  0  0  0  0  0  0  0  0  0
    6.7270  -15.5932   19.7468 C   0  0  0  0  0  0  0  0  0  0  0  0
    7.4369  -14.3868   20.2283 C   0  0  0  0  0  0  0  0  0  0  0  0
    7.4883  -14.0733   21.5750 C   0  0  0  0  0  0  0  0  0  0  0  0
    8.1375  -12.9557   22.0445 C   0  0  0  0  0  0  0  0  0  0  0  0
    8.7735  -12.0900   21.1697 C   0  0  0  0  0  0  0  0  0  0  0  0
    8.7321  -12.3854   19.8363 C   0  0  0  0  0  0  0  0  0  0  0  0
    8.0706  -13.5237   19.3617 C   0  0  0  0  0  0  0  0  0  0  0  0
    8.1921  -17.3506   20.5583 C   0  0  0  0  0  0  0  0  0  0  0  0
    7.4259  -18.0583   21.2685 O   0  0  0  0  0  0  0  0  0  0  0  0
    9.5408  -17.2221   20.9780 N   0  0  0  0  0  0  0  0  0  0  0  0
    9.9968  -17.8492   22.1977 C   0  0  1  0  0  0  0  0  0  0  0  0
   11.1282  -18.7884   21.9381 C   0  0  0  0  0  0  0  0  0  0  0  0
   11.9221  -19.4179   23.4182 S   0  0  0  0  0  0  0  0  0  0  0  0
   10.2822  -16.8385   23.2539 C   0  0  0  0  0  0  0  0  0  0  0  0
   10.8378  -15.7317   23.0050 O   0  0  0  0  0  0  0  0  0  0  0  0
    9.9135  -17.1351   24.5885 N   0  0  0  0  0  0  0  0  0  0  0  0
   10.4830  -16.3968   25.7328 C   0  0  1  0  0  0  0  0  0  0  0  0
    9.9263  -15.0217   25.7922 C   0  0  0  0  0  0  0  0  0  0  0  0
    8.5110  -14.9571   26.1558 C   0  0  0  0  0  0  0  0  0  0  0  0
    7.6584  -16.0402   26.3018 C   0  0  0  0  0  0  0  0  0  0  0  0
    6.4302  -15.5939   26.6058 N   0  0  0  0  0  0  0  0  0  0  0  0
    6.4491  -14.2454   26.6652 C   0  0  0  0  0  0  0  0  0  0  0  0
    5.4592  -13.3245   26.9510 C   0  0  0  0  0  0  0  0  0  0  0  0
    5.7861  -11.9973   26.9538 C   0  0  0  0  0  0  0  0  0  0  0  0
    7.0571  -11.5838   26.6821 C   0  0  0  0  0  0  0  0  0  0  0  0
    8.0463  -12.4779   26.3975 C   0  0  0  0  0  0  0  0  0  0  0  0
    7.7491  -13.8391   26.3847 C   0  0  0  0  0  0  0  0  0  0  0  0
   10.4940  -17.2022   26.9429 C   0  0  0  0  0  0  0  0  0  0  0  0
    9.9445  -18.3263   27.0360 O   0  0  0  0  0  0  0  0  0  0  0  0
   11.1334  -16.7782   28.1317 O   0  0  0  0  0  0  0  0  0  0  0  0
  2  1  1  6
  3  4  1  0
  3  2  1  0
  4  9  1  0
  4  5  2  0
  5  6  1  0
  6  7  2  0
  8  7  1  0
  9  8  2  0
 10 12  1  0
 10  2  1  0
 11 10  2  0
 13 14  1  6
 13 12  1  0
 15 14  1  0
 16 13  1  0
 17 16  2  0
 18 16  1  0
 19 18  1  0
 19 20  1  1
 20 21  1  0
 21 22  2  0
 22 23  1  0
 24 25  2  0
 24 23  1  0
 26 25  1  0
 27 26  2  0
 28 27  1  0
 28 29  2  0
 29 21  1  0
 29 24  1  0
 30 32  1  0
 30 19  1  0
 31 30  2  0
M  END
$$$$
