FCW.pdb
     RDKit          3D

 32 34  0  0  1  0  0  0  0  0999 V2000
    4.8440  -17.3639   20.4370 N   0  0  0  0  0  0  0  0  0  0  0  0
    6.0388  -16.8098   21.0206 C   0  0  1  0  0  0  0  0  0  0  0  0
    5.9155  -15.3091   21.0748 C   0  0  0  0  0  0  0  0  0  0  0  0
    7.0150  -14.6322   20.3509 C   0  0  0  0  0  0  0  0  0  0  0  0
    8.0800  -15.3467   19.8317 C   0  0  0  0  0  0  0  0  0  0  0  0
    9.1146  -14.7387   19.1602 C   0  0  0  0  0  0  0  0  0  0  0  0
    9.1261  -13.3655   18.9774 C   0  0  0  0  0  0  0  0  0  0  0  0
    8.0814  -12.6452   19.4841 C   0  0  0  0  0  0  0  0  0  0  0  0
    7.0301  -13.2671   20.1669 C   0  0  0  0  0  0  0  0  0  0  0  0
    6.1671  -17.3211   22.4098 C   0  0  0  0  0  0  0  0  0  0  0  0
    5.2123  -17.1982   23.2256 O   0  0  0  0  0  0  0  0  0  0  0  0
    7.3467  -17.9578   22.8734 N   0  0  0  0  0  0  0  0  0  0  0  0
    7.5954  -18.1094   24.2890 C   0  0  1  0  0  0  0  0  0  0  0  0
    7.2546  -19.4852   24.7584 C   0  0  0  0  0  0  0  0  0  0  0  0
    7.5008  -19.7501   26.5152 S   0  0  0  0  0  0  0  0  0  0  0  0
    8.9740  -17.6740   24.6475 C   0  0  0  0  0  0  0  0  0  0  0  0
    9.9783  -17.9291   23.9250 O   0  0  0  0  0  0  0  0  0  0  0  0
    9.1606  -16.9450   25.8471 N   0  0  0  0  0  0  0  0  0  0  0  0
   10.4998  -16.5100   26.2899 C   0  0  1  0  0  0  0  0  0  0  0  0
   10.5823  -15.0277   26.3146 C   0  0  0  0  0  0  0  0  0  0  0  0
    9.6338  -14.3841   27.2231 C   0  0  0  0  0  0  0  0  0  0  0  0
    9.7582  -14.2969   28.6009 C   0  0  0  0  0  0  0  0  0  0  0  0
    8.6826  -13.6691   29.0998 N   0  0  0  0  0  0  0  0  0  0  0  0
    7.8517  -13.3387   28.0885 C   0  0  0  0  0  0  0  0  0  0  0  0
    6.6379  -12.6783   28.0754 C   0  0  0  0  0  0  0  0  0  0  0  0
    6.0245  -12.4678   26.8721 C   0  0  0  0  0  0  0  0  0  0  0  0
    6.5907  -12.8964   25.7076 C   0  0  0  0  0  0  0  0  0  0  0  0
    7.7872  -13.5501   25.7015 C   0  0  0  0  0  0  0  0  0  0  0  0
    8.4407  -13.7830   26.9097 C   0  0  0  0  0  0  0  0  0  0  0  0
   10.9532  -17.2573   27.4513 C   0  0  0  0  0  0  0  0  0  0  0  0
   10.1892  -17.9176   28.1960 O   0  0  0  0  0  0  0  0  0  0  0  0
   12.3121  -17.3014   27.8431 O   0  0  0  0  0  0  0  0  0  0  0  0
  2  1  1  1
  3  4  1  0
  3  2  1  0
  4  9  1  0
  4  5  2  0
  5  6  1  0
  6  7  2  0
  8  7  1  0
  9  8  2  0
 10 12  1  0
 10  2  1  0
 11 10  2  0
 13 14  1  6
 13 12  1  0
 15 14  1  0
 16 13  1  0
 17 16  2  0
 18 16  1  0
 19 18  1  0
 19 20  1  1
 20 21  1  0
 21 22  2  0
 22 23  1  0
 24 25  2  0
 24 23  1  0
 26 25  1  0
 27 26  2  0
 28 27  1  0
 28 29  2  0
 29 21  1  0
 29 24  1  0
 30 32  1  0
 30 19  1  0
 31 30  2  0
M  END
$$$$
