FCW.pdb
     RDKit          3D

 32 34  0  0  1  0  0  0  0  0999 V2000
    7.5526  -21.2325   21.1639 N   0  0  0  0  0  0  0  0  0  0  0  0
    7.2058  -20.1101   21.9976 C   0  0  1  0  0  0  0  0  0  0  0  0
    7.5955  -20.4100   23.4219 C   0  0  0  0  0  0  0  0  0  0  0  0
    6.4563  -20.9219   24.2163 C   0  0  0  0  0  0  0  0  0  0  0  0
    5.2213  -21.1512   23.6359 C   0  0  0  0  0  0  0  0  0  0  0  0
    4.1479  -21.6217   24.3551 C   0  0  0  0  0  0  0  0  0  0  0  0
    4.2683  -21.8868   25.7096 C   0  0  0  0  0  0  0  0  0  0  0  0
    5.4815  -21.6657   26.2980 C   0  0  0  0  0  0  0  0  0  0  0  0
    6.5720  -21.1869   25.5632 C   0  0  0  0  0  0  0  0  0  0  0  0
    7.9761  -18.9252   21.5393 C   0  0  0  0  0  0  0  0  0  0  0  0
    9.0833  -19.0720   20.9521 O   0  0  0  0  0  0  0  0  0  0  0  0
    7.5111  -17.6000   21.7381 N   0  0  0  0  0  0  0  0  0  0  0  0
    8.3021  -16.4687   21.3103 C   0  0  1  0  0  0  0  0  0  0  0  0
    7.4521  -15.4170   20.6771 C   0  0  0  0  0  0  0  0  0  0  0  0
    5.7769  -15.3372   21.3130 S   0  0  0  0  0  0  0  0  0  0  0  0
    9.1663  -15.9627   22.4128 C   0  0  0  0  0  0  0  0  0  0  0  0
    9.9190  -14.9567   22.2811 O   0  0  0  0  0  0  0  0  0  0  0  0
    9.1390  -16.6396   23.6563 N   0  0  0  0  0  0  0  0  0  0  0  0
    9.9843  -16.2148   24.7894 C   0  0  1  0  0  0  0  0  0  0  0  0
    9.6896  -14.8070   25.1577 C   0  0  0  0  0  0  0  0  0  0  0  0
    8.3049  -14.5645   25.5616 C   0  0  0  0  0  0  0  0  0  0  0  0
    7.2745  -15.4912   25.5314 C   0  0  0  0  0  0  0  0  0  0  0  0
    6.1413  -14.9010   25.9408 N   0  0  0  0  0  0  0  0  0  0  0  0
    6.3960  -13.6098   26.2413 C   0  0  0  0  0  0  0  0  0  0  0  0
    5.5808  -12.5982   26.7122 C   0  0  0  0  0  0  0  0  0  0  0  0
    6.1354  -11.3708   26.9458 C   0  0  0  0  0  0  0  0  0  0  0  0
    7.4612  -11.1422   26.7217 C   0  0  0  0  0  0  0  0  0  0  0  0
    8.2803  -12.1279   26.2567 C   0  0  0  0  0  0  0  0  0  0  0  0
    7.7492  -13.3915   26.0065 C   0  0  0  0  0  0  0  0  0  0  0  0
   10.0260  -17.2205   25.8381 C   0  0  0  0  0  0  0  0  0  0  0  0
   10.7521  -17.1334   26.8577 O   0  0  0  0  0  0  0  0  0  0  0  0
    9.2408  -18.3967   25.7942 O   0  0  0  0  0  0  0  0  0  0  0  0
  2  1  1  6
  3  4  1  0
  3  2  1  0
  4  9  1  0
  4  5  2  0
  5  6  1  0
  6  7  2  0
  8  7  1  0
  9  8  2  0
 10 12  1  0
 10  2  1  0
 11 10  2  0
 13 14  1  1
 13 12  1  0
 15 14  1  0
 16 13  1  0
 17 16  2  0
 18 16  1  0
 19 18  1  0
 19 20  1  1
 20 21  1  0
 21 22  2  0
 22 23  1  0
 24 25  2  0
 24 23  1  0
 26 25  1  0
 27 26  2  0
 28 27  1  0
 28 29  2  0
 29 21  1  0
 29 24  1  0
 30 32  1  0
 30 19  1  0
 31 30  2  0
M  END
$$$$
