FCW.pdb
     RDKit          3D

 32 34  0  0  1  0  0  0  0  0999 V2000
    8.1386  -16.9553   20.1596 N   0  0  0  0  0  0  0  0  0  0  0  0
    8.9584  -16.1849   21.0593 C   0  0  1  0  0  0  0  0  0  0  0  0
    8.1217  -15.1022   21.6901 C   0  0  0  0  0  0  0  0  0  0  0  0
    7.7663  -14.0377   20.7250 C   0  0  0  0  0  0  0  0  0  0  0  0
    6.4957  -13.9540   20.1836 C   0  0  0  0  0  0  0  0  0  0  0  0
    6.1446  -12.9770   19.2820 C   0  0  0  0  0  0  0  0  0  0  0  0
    7.0675  -12.0262   18.8774 C   0  0  0  0  0  0  0  0  0  0  0  0
    8.3269  -12.0949   19.4028 C   0  0  0  0  0  0  0  0  0  0  0  0
    8.6810  -13.0904   20.3204 C   0  0  0  0  0  0  0  0  0  0  0  0
    9.4528  -17.0832   22.1346 C   0  0  0  0  0  0  0  0  0  0  0  0
    8.7351  -18.0330   22.5527 O   0  0  0  0  0  0  0  0  0  0  0  0
   10.7296  -16.9164   22.7293 N   0  0  0  0  0  0  0  0  0  0  0  0
   11.1448  -17.7533   23.8319 C   0  0  1  0  0  0  0  0  0  0  0  0
   12.5134  -18.3079   23.6106 C   0  0  0  0  0  0  0  0  0  0  0  0
   13.1531  -19.2698   24.9826 S   0  0  0  0  0  0  0  0  0  0  0  0
   10.9815  -17.0532   25.1364 C   0  0  0  0  0  0  0  0  0  0  0  0
   11.4586  -15.9045   25.3572 O   0  0  0  0  0  0  0  0  0  0  0  0
   10.2615  -17.7055   26.1665 N   0  0  0  0  0  0  0  0  0  0  0  0
   10.2766  -17.2101   27.5569 C   0  0  1  0  0  0  0  0  0  0  0  0
    8.9022  -17.1972   28.1183 C   0  0  0  0  0  0  0  0  0  0  0  0
    7.9687  -16.3196   27.4128 C   0  0  0  0  0  0  0  0  0  0  0  0
    6.9492  -16.7281   26.5671 C   0  0  0  0  0  0  0  0  0  0  0  0
    6.3255  -15.6460   26.0771 N   0  0  0  0  0  0  0  0  0  0  0  0
    6.9051  -14.5341   26.5772 C   0  0  0  0  0  0  0  0  0  0  0  0
    6.6278  -13.1925   26.3954 C   0  0  0  0  0  0  0  0  0  0  0  0
    7.3905  -12.2743   27.0614 C   0  0  0  0  0  0  0  0  0  0  0  0
    8.4030  -12.6650   27.8876 C   0  0  0  0  0  0  0  0  0  0  0  0
    8.6912  -13.9838   28.0784 C   0  0  0  0  0  0  0  0  0  0  0  0
    7.9351  -14.9478   27.4149 C   0  0  0  0  0  0  0  0  0  0  0  0
   11.3461  -17.8150   28.3337 C   0  0  0  0  0  0  0  0  0  0  0  0
   11.6432  -17.4637   29.5010 O   0  0  0  0  0  0  0  0  0  0  0  0
   12.1514  -18.8635   27.8297 O   0  0  0  0  0  0  0  0  0  0  0  0
  2  1  1  6
  3  4  1  0
  3  2  1  0
  4  9  1  0
  4  5  2  0
  5  6  1  0
  6  7  2  0
  8  7  1  0
  9  8  2  0
 10 12  1  0
 10  2  1  0
 11 10  2  0
 13 14  1  6
 13 12  1  0
 15 14  1  0
 16 13  1  0
 17 16  2  0
 18 16  1  0
 19 18  1  0
 19 20  1  1
 20 21  1  0
 21 22  2  0
 22 23  1  0
 24 25  2  0
 24 23  1  0
 26 25  1  0
 27 26  2  0
 28 27  1  0
 28 29  2  0
 29 21  1  0
 29 24  1  0
 30 32  1  0
 30 19  1  0
 31 30  2  0
M  END
$$$$
