FCW.pdb
     RDKit          3D

 32 34  0  0  1  0  0  0  0  0999 V2000
    6.1445  -19.5966   20.7941 N   0  0  0  0  0  0  0  0  0  0  0  0
    5.8712  -18.1822   20.7864 C   0  0  1  0  0  0  0  0  0  0  0  0
    4.8566  -17.8664   21.8547 C   0  0  0  0  0  0  0  0  0  0  0  0
    3.5729  -18.5683   21.6303 C   0  0  0  0  0  0  0  0  0  0  0  0
    2.8643  -18.4104   20.4523 C   0  0  0  0  0  0  0  0  0  0  0  0
    1.6677  -19.0483   20.2240 C   0  0  0  0  0  0  0  0  0  0  0  0
    1.1209  -19.8858   21.1827 C   0  0  0  0  0  0  0  0  0  0  0  0
    1.8083  -20.0525   22.3517 C   0  0  0  0  0  0  0  0  0  0  0  0
    3.0259  -19.4019   22.5809 C   0  0  0  0  0  0  0  0  0  0  0  0
    7.1283  -17.4563   21.1031 C   0  0  0  0  0  0  0  0  0  0  0  0
    8.0970  -18.0617   21.6389 O   0  0  0  0  0  0  0  0  0  0  0  0
    7.2930  -16.0755   20.8235 N   0  0  0  0  0  0  0  0  0  0  0  0
    8.5237  -15.3965   21.1596 C   0  0  1  0  0  0  0  0  0  0  0  0
    8.6512  -14.1029   20.4250 C   0  0  0  0  0  0  0  0  0  0  0  0
    7.2123  -13.6605   19.4499 S   0  0  0  0  0  0  0  0  0  0  0  0
    8.6893  -15.2714   22.6346 C   0  0  0  0  0  0  0  0  0  0  0  0
    7.7483  -14.9130   23.3975 O   0  0  0  0  0  0  0  0  0  0  0  0
    9.9537  -15.5675   23.1990 N   0  0  0  0  0  0  0  0  0  0  0  0
   10.1307  -15.7493   24.6531 C   0  0  1  0  0  0  0  0  0  0  0  0
    8.9850  -16.5005   25.2255 C   0  0  0  0  0  0  0  0  0  0  0  0
    7.8328  -15.6710   25.5773 C   0  0  0  0  0  0  0  0  0  0  0  0
    6.5031  -15.9842   25.3427 C   0  0  0  0  0  0  0  0  0  0  0  0
    5.7321  -14.9721   25.7686 N   0  0  0  0  0  0  0  0  0  0  0  0
    6.5170  -13.9995   26.2788 C   0  0  0  0  0  0  0  0  0  0  0  0
    6.2126  -12.7782   26.8494 C   0  0  0  0  0  0  0  0  0  0  0  0
    7.2392  -11.9973   27.3019 C   0  0  0  0  0  0  0  0  0  0  0  0
    8.5359  -12.4069   27.1964 C   0  0  0  0  0  0  0  0  0  0  0  0
    8.8550  -13.6081   26.6358 C   0  0  0  0  0  0  0  0  0  0  0  0
    7.8342  -14.4300   26.1628 C   0  0  0  0  0  0  0  0  0  0  0  0
   11.4819  -16.1713   24.9836 C   0  0  0  0  0  0  0  0  0  0  0  0
   11.9227  -16.2392   26.1564 O   0  0  0  0  0  0  0  0  0  0  0  0
   12.4239  -16.5446   23.9962 O   0  0  0  0  0  0  0  0  0  0  0  0
  2  1  1  1
  3  4  1  0
  3  2  1  0
  4  9  1  0
  4  5  2  0
  5  6  1  0
  6  7  2  0
  8  7  1  0
  9  8  2  0
 10 12  1  0
 10  2  1  0
 11 10  2  0
 13 14  1  6
 13 12  1  0
 15 14  1  0
 16 13  1  0
 17 16  2  0
 18 16  1  0
 19 18  1  0
 19 20  1  6
 20 21  1  0
 21 22  2  0
 22 23  1  0
 24 25  2  0
 24 23  1  0
 26 25  1  0
 27 26  2  0
 28 27  1  0
 28 29  2  0
 29 21  1  0
 29 24  1  0
 30 32  1  0
 30 19  1  0
 31 30  2  0
M  END
$$$$
