LIH.pdb
     RDKit          3D

 27 27  0  0  1  0  0  0  0  0999 V2000
    7.8956  -20.3333   16.0980 C   0  0  0  0  0  0  0  0  0  0  0  0
    7.4213  -20.0018   17.4814 C   0  0  1  0  0  0  0  0  0  0  0  0
    6.9237  -21.2787   18.1218 C   0  0  0  0  0  0  0  0  0  0  0  0
    8.4935  -19.3378   18.3174 C   0  0  0  0  0  0  0  0  0  0  0  0
    8.7214  -17.9518   17.7575 C   0  0  2  0  0  0  0  0  0  0  0  0
    9.7044  -18.0298   16.6965 N   0  0  0  0  0  0  0  0  0  0  0  0
    9.2396  -17.0114   18.7762 C   0  0  0  0  0  0  0  0  0  0  0  0
   10.4756  -16.8815   18.9447 O   0  0  0  0  0  0  0  0  0  0  0  0
    6.6152  -12.3362   19.5327 C   0  0  0  0  0  0  0  0  0  0  0  0
    7.7329  -13.3732   19.4066 C   0  0  0  0  0  0  0  0  0  0  0  0
    7.8837  -14.1556   20.6774 C   0  0  2  0  0  0  0  0  0  0  0  0
    8.2499  -13.1682   21.7720 C   0  0  0  0  0  0  0  0  0  0  0  0
    8.8358  -15.3034   20.6037 C   0  0  2  0  0  0  0  0  0  0  0  0
    8.3608  -16.2367   19.5841 N   0  0  0  0  0  0  0  0  0  0  0  0
    8.9874  -15.9850   21.9082 C   0  0  0  0  0  0  0  0  0  0  0  0
    8.0694  -16.6921   22.3909 O   0  0  0  0  0  0  0  0  0  0  0  0
   10.1692  -15.8862   22.6939 N   0  0  0  0  0  0  0  0  0  0  0  0
   10.7968  -17.0317   23.3423 C   0  0  1  0  0  0  0  0  0  0  0  0
   11.0998  -18.1205   22.3817 C   0  0  0  0  0  0  0  0  0  0  0  0
   11.6281  -19.3136   23.0631 C   0  0  0  0  0  0  0  0  0  0  0  0
   11.7806  -19.5051   24.4438 C   0  0  0  0  0  0  0  0  0  0  0  0
   12.2900  -20.7055   24.7070 N   0  0  0  0  0  0  0  0  0  0  0  0
   12.4722  -21.3016   23.5119 C   0  0  0  0  0  0  0  0  0  0  0  0
   12.0756  -20.4662   22.5369 N   0  0  0  0  0  0  0  0  0  0  0  0
   12.0079  -16.6128   24.0653 C   0  0  0  0  0  0  0  0  0  0  0  0
   12.4121  -17.3113   25.0271 O   0  0  0  0  0  0  0  0  0  0  0  0
   12.6911  -15.4895   23.7070 O   0  0  0  0  0  0  0  0  0  0  0  0
  2  3  1  1
  2  1  1  0
  4  2  1  0
  5  6  1  6
  5  4  1  0
  7  5  1  0
  8  7  2  0
 10  9  1  0
 11 10  1  0
 11 13  1  0
 11 12  1  1
 13 14  1  6
 14  7  1  0
 15 13  1  0
 15 16  2  0
 17 15  1  0
 18 17  1  0
 18 19  1  6
 20 19  1  0
 21 20  2  0
 22 21  1  0
 23 22  1  0
 23 24  2  0
 24 20  1  0
 25 18  1  0
 26 25  2  0
 27 25  1  0
M  END
$$$$
