LIH.pdb
     RDKit          3D

 27 27  0  0  1  0  0  0  0  0999 V2000
    5.5497  -18.9985   20.5205 C   0  0  0  0  0  0  0  0  0  0  0  0
    5.6508  -17.5187   20.7411 C   0  0  1  0  0  0  0  0  0  0  0  0
    4.2986  -17.0231   21.2038 C   0  0  0  0  0  0  0  0  0  0  0  0
    6.7454  -17.1529   21.7197 C   0  0  0  0  0  0  0  0  0  0  0  0
    6.7169  -15.6521   21.9023 C   0  0  2  0  0  0  0  0  0  0  0  0
    7.0825  -15.0199   20.6515 N   0  0  0  0  0  0  0  0  0  0  0  0
    7.6764  -15.1919   22.9310 C   0  0  0  0  0  0  0  0  0  0  0  0
    8.8773  -14.9917   22.6295 O   0  0  0  0  0  0  0  0  0  0  0  0
    5.9703  -11.7883   26.7114 C   0  0  0  0  0  0  0  0  0  0  0  0
    6.8821  -12.4907   25.7036 C   0  0  0  0  0  0  0  0  0  0  0  0
    7.5065  -13.7135   26.3075 C   0  0  2  0  0  0  0  0  0  0  0  0
    8.4196  -13.2451   27.4274 C   0  0  0  0  0  0  0  0  0  0  0  0
    8.2057  -14.6098   25.3395 C   0  0  2  0  0  0  0  0  0  0  0  0
    7.2690  -14.9661   24.2757 N   0  0  0  0  0  0  0  0  0  0  0  0
    8.7425  -15.8237   25.9933 C   0  0  0  0  0  0  0  0  0  0  0  0
    8.4348  -16.1261   27.1721 O   0  0  0  0  0  0  0  0  0  0  0  0
    9.6329  -16.7193   25.3382 N   0  0  0  0  0  0  0  0  0  0  0  0
   10.7085  -17.4239   26.0261 C   0  0  1  0  0  0  0  0  0  0  0  0
   12.0454  -17.0466   25.5063 C   0  0  0  0  0  0  0  0  0  0  0  0
   12.1531  -17.2904   24.0586 C   0  0  0  0  0  0  0  0  0  0  0  0
   11.3010  -16.8146   23.0517 C   0  0  0  0  0  0  0  0  0  0  0  0
   11.6981  -17.2313   21.8524 N   0  0  0  0  0  0  0  0  0  0  0  0
   12.8019  -17.9751   22.0646 C   0  0  0  0  0  0  0  0  0  0  0  0
   13.0671  -18.0059   23.3816 N   0  0  0  0  0  0  0  0  0  0  0  0
   10.6234  -17.1995   27.4778 C   0  0  0  0  0  0  0  0  0  0  0  0
   10.7341  -16.0289   27.9181 O   0  0  0  0  0  0  0  0  0  0  0  0
   10.4257  -18.2346   28.3418 O   0  0  0  0  0  0  0  0  0  0  0  0
  2  3  1  1
  2  1  1  0
  4  2  1  0
  5  6  1  6
  5  4  1  0
  7  5  1  0
  8  7  2  0
 10  9  1  0
 11 10  1  0
 11 13  1  0
 11 12  1  1
 13 14  1  6
 14  7  1  0
 15 13  1  0
 15 16  2  0
 17 15  1  0
 18 17  1  0
 18 19  1  6
 20 19  1  0
 21 20  2  0
 22 21  1  0
 23 22  1  0
 23 24  2  0
 24 20  1  0
 25 18  1  0
 26 25  2  0
 27 25  1  0
M  END
$$$$
