LIH.pdb
     RDKit          3D

 27 27  0  0  1  0  0  0  0  0999 V2000
   10.5946  -17.6083   13.8883 C   0  0  0  0  0  0  0  0  0  0  0  0
   10.1102  -18.0487   15.2373 C   0  0  1  0  0  0  0  0  0  0  0  0
   10.7072  -19.4083   15.5258 C   0  0  0  0  0  0  0  0  0  0  0  0
   10.4406  -17.0504   16.3253 C   0  0  0  0  0  0  0  0  0  0  0  0
    9.9417  -17.6159   17.6360 C   0  0  2  0  0  0  0  0  0  0  0  0
    8.5110  -17.8226   17.5438 N   0  0  0  0  0  0  0  0  0  0  0  0
   10.1870  -16.7013   18.7735 C   0  0  0  0  0  0  0  0  0  0  0  0
   11.3604  -16.4302   19.1238 O   0  0  0  0  0  0  0  0  0  0  0  0
    6.7947  -12.5187   19.6861 C   0  0  0  0  0  0  0  0  0  0  0  0
    8.0848  -13.3372   19.6054 C   0  0  0  0  0  0  0  0  0  0  0  0
    8.1856  -14.2931   20.7568 C   0  0  2  0  0  0  0  0  0  0  0  0
    8.2328  -13.4623   22.0276 C   0  0  0  0  0  0  0  0  0  0  0  0
    9.3129  -15.2684   20.6716 C   0  0  2  0  0  0  0  0  0  0  0  0
    9.1115  -16.1101   19.4938 N   0  0  0  0  0  0  0  0  0  0  0  0
    9.4266  -16.0953   21.8933 C   0  0  0  0  0  0  0  0  0  0  0  0
    8.4757  -16.8101   22.2940 O   0  0  0  0  0  0  0  0  0  0  0  0
   10.6067  -16.1356   22.6867 N   0  0  0  0  0  0  0  0  0  0  0  0
   10.7711  -17.0239   23.8315 C   0  0  1  0  0  0  0  0  0  0  0  0
   12.1407  -17.5876   23.9091 C   0  0  0  0  0  0  0  0  0  0  0  0
   12.4464  -18.4324   22.7430 C   0  0  0  0  0  0  0  0  0  0  0  0
   11.5724  -19.2966   22.0680 C   0  0  0  0  0  0  0  0  0  0  0  0
   12.1868  -19.9048   21.0569 N   0  0  0  0  0  0  0  0  0  0  0  0
   13.4545  -19.4469   21.0635 C   0  0  0  0  0  0  0  0  0  0  0  0
   13.6019  -18.5699   22.0709 N   0  0  0  0  0  0  0  0  0  0  0  0
   10.4152  -16.3270   25.0776 C   0  0  0  0  0  0  0  0  0  0  0  0
   10.3595  -16.9847   26.1456 O   0  0  0  0  0  0  0  0  0  0  0  0
   10.1503  -14.9903   25.0881 O   0  0  0  0  0  0  0  0  0  0  0  0
  2  3  1  1
  2  1  1  0
  4  2  1  0
  5  6  1  6
  5  4  1  0
  7  5  1  0
  8  7  2  0
 10  9  1  0
 11 10  1  0
 11 13  1  0
 11 12  1  1
 13 14  1  6
 14  7  1  0
 15 13  1  0
 15 16  2  0
 17 15  1  0
 18 17  1  0
 18 19  1  1
 20 19  1  0
 21 20  2  0
 22 21  1  0
 23 22  1  0
 23 24  2  0
 24 20  1  0
 25 18  1  0
 26 25  2  0
 27 25  1  0
M  END
$$$$
