LIH.pdb
     RDKit          3D

 27 27  0  0  1  0  0  0  0  0999 V2000
    8.3868  -13.8052   18.6438 C   0  0  0  0  0  0  0  0  0  0  0  0
    8.0539  -13.2451   19.9943 C   0  0  1  0  0  0  0  0  0  0  0  0
    7.8000  -11.7624   19.8342 C   0  0  0  0  0  0  0  0  0  0  0  0
    6.8786  -13.9474   20.6385 C   0  0  0  0  0  0  0  0  0  0  0  0
    7.4132  -15.1482   21.3860 C   0  0  2  0  0  0  0  0  0  0  0  0
    6.3021  -15.9925   21.7741 N   0  0  0  0  0  0  0  0  0  0  0  0
    8.1351  -14.7671   22.6206 C   0  0  0  0  0  0  0  0  0  0  0  0
    9.3294  -14.3883   22.5621 O   0  0  0  0  0  0  0  0  0  0  0  0
    5.6521  -11.8985   26.2294 C   0  0  0  0  0  0  0  0  0  0  0  0
    6.8103  -12.4711   25.4101 C   0  0  0  0  0  0  0  0  0  0  0  0
    7.3297  -13.7355   26.0275 C   0  0  2  0  0  0  0  0  0  0  0  0
    8.0086  -13.3528   27.3313 C   0  0  0  0  0  0  0  0  0  0  0  0
    8.2125  -14.5538   25.1442 C   0  0  2  0  0  0  0  0  0  0  0  0
    7.5027  -14.8189   23.8944 N   0  0  0  0  0  0  0  0  0  0  0  0
    8.6266  -15.8190   25.7901 C   0  0  0  0  0  0  0  0  0  0  0  0
    7.7939  -16.7127   26.0794 O   0  0  0  0  0  0  0  0  0  0  0  0
    9.9799  -16.1047   26.1228 N   0  0  0  0  0  0  0  0  0  0  0  0
   10.5583  -17.4410   26.0432 C   0  0  1  0  0  0  0  0  0  0  0  0
   11.5292  -17.5639   24.9287 C   0  0  0  0  0  0  0  0  0  0  0  0
   12.1447  -18.9006   24.8905 C   0  0  0  0  0  0  0  0  0  0  0  0
   12.7384  -19.5928   25.9556 C   0  0  0  0  0  0  0  0  0  0  0  0
   13.1936  -20.7789   25.5611 N   0  0  0  0  0  0  0  0  0  0  0  0
   12.9034  -20.8697   24.2480 C   0  0  0  0  0  0  0  0  0  0  0  0
   12.2784  -19.7468   23.8553 N   0  0  0  0  0  0  0  0  0  0  0  0
   11.1771  -17.8102   27.3261 C   0  0  0  0  0  0  0  0  0  0  0  0
   11.0918  -18.9991   27.7206 O   0  0  0  0  0  0  0  0  0  0  0  0
   11.8368  -16.8888   28.0829 O   0  0  0  0  0  0  0  0  0  0  0  0
  2  3  1  6
  2  1  1  0
  4  2  1  0
  5  6  1  1
  5  4  1  0
  7  5  1  0
  8  7  2  0
 10  9  1  0
 11 10  1  0
 11 13  1  0
 11 12  1  1
 13 14  1  6
 14  7  1  0
 15 13  1  0
 15 16  2  0
 17 15  1  0
 18 17  1  0
 18 19  1  6
 20 19  1  0
 21 20  2  0
 22 21  1  0
 23 22  1  0
 23 24  2  0
 24 20  1  0
 25 18  1  0
 26 25  2  0
 27 25  1  0
M  END
$$$$
