LIH.pdb
     RDKit          3D

 27 27  0  0  1  0  0  0  0  0999 V2000
    6.2947  -19.0709   20.0804 C   0  0  0  0  0  0  0  0  0  0  0  0
    6.6978  -17.6300   20.1794 C   0  0  1  0  0  0  0  0  0  0  0  0
    5.5208  -16.7859   19.7431 C   0  0  0  0  0  0  0  0  0  0  0  0
    7.1710  -17.2553   21.5669 C   0  0  0  0  0  0  0  0  0  0  0  0
    7.4648  -15.7721   21.5682 C   0  0  2  0  0  0  0  0  0  0  0  0
    8.2967  -15.4573   20.4250 N   0  0  0  0  0  0  0  0  0  0  0  0
    8.1957  -15.3440   22.7820 C   0  0  0  0  0  0  0  0  0  0  0  0
    9.4471  -15.4167   22.8238 O   0  0  0  0  0  0  0  0  0  0  0  0
    5.7018  -11.6764   26.0503 C   0  0  0  0  0  0  0  0  0  0  0  0
    6.7726  -12.3983   25.2300 C   0  0  0  0  0  0  0  0  0  0  0  0
    7.2887  -13.6009   25.9629 C   0  0  2  0  0  0  0  0  0  0  0  0
    7.9471  -13.1019   27.2375 C   0  0  0  0  0  0  0  0  0  0  0  0
    8.1877  -14.4883   25.1669 C   0  0  2  0  0  0  0  0  0  0  0  0
    7.5078  -14.8438   23.9229 N   0  0  0  0  0  0  0  0  0  0  0  0
    8.5766  -15.7030   25.9170 C   0  0  0  0  0  0  0  0  0  0  0  0
    7.7271  -16.5561   26.2726 O   0  0  0  0  0  0  0  0  0  0  0  0
    9.9230  -15.9828   26.2815 N   0  0  0  0  0  0  0  0  0  0  0  0
   10.3571  -17.2698   26.8122 C   0  0  1  0  0  0  0  0  0  0  0  0
   11.5337  -17.8056   26.0854 C   0  0  0  0  0  0  0  0  0  0  0  0
   12.0375  -19.0419   26.7055 C   0  0  0  0  0  0  0  0  0  0  0  0
   11.9343  -19.4197   28.0519 C   0  0  0  0  0  0  0  0  0  0  0  0
   12.5027  -20.6040   28.2616 N   0  0  0  0  0  0  0  0  0  0  0  0
   12.9769  -21.0051   27.0654 C   0  0  0  0  0  0  0  0  0  0  0  0
   12.6961  -20.0693   26.1428 N   0  0  0  0  0  0  0  0  0  0  0  0
   10.6295  -17.1652   28.2544 C   0  0  0  0  0  0  0  0  0  0  0  0
   10.6538  -18.2137   28.9447 O   0  0  0  0  0  0  0  0  0  0  0  0
   10.8560  -15.9579   28.8444 O   0  0  0  0  0  0  0  0  0  0  0  0
  2  3  1  1
  2  1  1  0
  4  2  1  0
  5  6  1  6
  5  4  1  0
  7  5  1  0
  8  7  2  0
 10  9  1  0
 11 10  1  0
 11 13  1  0
 11 12  1  1
 13 14  1  6
 14  7  1  0
 15 13  1  0
 15 16  2  0
 17 15  1  0
 18 17  1  0
 18 19  1  6
 20 19  1  0
 21 20  2  0
 22 21  1  0
 23 22  1  0
 23 24  2  0
 24 20  1  0
 25 18  1  0
 26 25  2  0
 27 25  1  0
M  END
$$$$
