LIH.pdb
     RDKit          3D

 27 27  0  0  1  0  0  0  0  0999 V2000
    6.2335  -18.4930   19.8163 C   0  0  0  0  0  0  0  0  0  0  0  0
    6.5056  -17.0379   20.0554 C   0  0  1  0  0  0  0  0  0  0  0  0
    5.1777  -16.3137   20.0820 C   0  0  0  0  0  0  0  0  0  0  0  0
    7.2990  -16.7977   21.3213 C   0  0  0  0  0  0  0  0  0  0  0  0
    7.4272  -15.3027   21.5076 C   0  0  2  0  0  0  0  0  0  0  0  0
    8.1109  -14.7434   20.3596 N   0  0  0  0  0  0  0  0  0  0  0  0
    8.2152  -14.9508   22.7101 C   0  0  0  0  0  0  0  0  0  0  0  0
    9.4640  -14.8565   22.6411 O   0  0  0  0  0  0  0  0  0  0  0  0
    5.8249  -11.8065   26.4935 C   0  0  0  0  0  0  0  0  0  0  0  0
    6.8508  -12.4144   25.5353 C   0  0  0  0  0  0  0  0  0  0  0  0
    7.4539  -13.6593   26.1153 C   0  0  2  0  0  0  0  0  0  0  0  0
    8.1691  -13.2582   27.3939 C   0  0  0  0  0  0  0  0  0  0  0  0
    8.3353  -14.4267   25.1861 C   0  0  2  0  0  0  0  0  0  0  0  0
    7.5861  -14.7121   23.9640 N   0  0  0  0  0  0  0  0  0  0  0  0
    8.8343  -15.6776   25.7989 C   0  0  0  0  0  0  0  0  0  0  0  0
    8.0493  -16.5584   26.2276 O   0  0  0  0  0  0  0  0  0  0  0  0
   10.2206  -15.9633   25.9421 N   0  0  0  0  0  0  0  0  0  0  0  0
   10.7263  -17.1863   26.5545 C   0  0  1  0  0  0  0  0  0  0  0  0
   12.0879  -17.5286   26.0765 C   0  0  0  0  0  0  0  0  0  0  0  0
   12.0930  -17.8543   24.6410 C   0  0  0  0  0  0  0  0  0  0  0  0
   10.9993  -18.2447   23.8550 C   0  0  0  0  0  0  0  0  0  0  0  0
   11.3681  -18.4604   22.5952 N   0  0  0  0  0  0  0  0  0  0  0  0
   12.6925  -18.2148   22.5490 C   0  0  0  0  0  0  0  0  0  0  0  0
   13.1176  -17.8542   23.7717 N   0  0  0  0  0  0  0  0  0  0  0  0
   10.6930  -17.0778   28.0215 C   0  0  0  0  0  0  0  0  0  0  0  0
   10.4501  -15.9612   28.5417 O   0  0  0  0  0  0  0  0  0  0  0  0
   10.9176  -18.1626   28.8150 O   0  0  0  0  0  0  0  0  0  0  0  0
  2  3  1  1
  2  1  1  0
  4  2  1  0
  5  6  1  6
  5  4  1  0
  7  5  1  0
  8  7  2  0
 10  9  1  0
 11 10  1  0
 11 13  1  0
 11 12  1  1
 13 14  1  6
 14  7  1  0
 15 13  1  0
 15 16  2  0
 17 15  1  0
 18 17  1  0
 18 19  1  6
 20 19  1  0
 21 20  2  0
 22 21  1  0
 23 22  1  0
 23 24  2  0
 24 20  1  0
 25 18  1  0
 26 25  2  0
 27 25  1  0
M  END
$$$$
