LIH.pdb
     RDKit          3D

 27 27  0  0  1  0  0  0  0  0999 V2000
    6.0533  -19.7651   20.5364 C   0  0  0  0  0  0  0  0  0  0  0  0
    6.6124  -18.3775   20.4339 C   0  0  1  0  0  0  0  0  0  0  0  0
    5.5779  -17.5072   19.7551 C   0  0  0  0  0  0  0  0  0  0  0  0
    7.0194  -17.8166   21.7790 C   0  0  0  0  0  0  0  0  0  0  0  0
    7.4942  -16.3975   21.5615 C   0  0  2  0  0  0  0  0  0  0  0  0
    8.4596  -16.3858   20.4818 N   0  0  0  0  0  0  0  0  0  0  0  0
    8.1588  -15.8365   22.7591 C   0  0  0  0  0  0  0  0  0  0  0  0
    9.3887  -16.0063   22.9362 O   0  0  0  0  0  0  0  0  0  0  0  0
    7.1964  -11.3166   26.8129 C   0  0  0  0  0  0  0  0  0  0  0  0
    7.9736  -12.5961   26.4981 C   0  0  0  0  0  0  0  0  0  0  0  0
    7.3267  -13.3538   25.3769 C   0  0  2  0  0  0  0  0  0  0  0  0
    5.8841  -13.6068   25.7795 C   0  0  0  0  0  0  0  0  0  0  0  0
    8.0324  -14.6051   24.9699 C   0  0  2  0  0  0  0  0  0  0  0  0
    7.4301  -15.0971   23.7325 N   0  0  0  0  0  0  0  0  0  0  0  0
    7.9816  -15.6408   26.0254 C   0  0  0  0  0  0  0  0  0  0  0  0
    6.9620  -16.3520   26.1999 O   0  0  0  0  0  0  0  0  0  0  0  0
    9.0714  -15.8975   26.9031 N   0  0  0  0  0  0  0  0  0  0  0  0
    9.4968  -17.2408   27.2786 C   0  0  1  0  0  0  0  0  0  0  0  0
    9.9559  -18.0288   26.1089 C   0  0  0  0  0  0  0  0  0  0  0  0
    8.9279  -18.9818   25.6597 C   0  0  0  0  0  0  0  0  0  0  0  0
    7.6919  -19.2462   26.2667 C   0  0  0  0  0  0  0  0  0  0  0  0
    7.0135  -20.1684   25.5892 N   0  0  0  0  0  0  0  0  0  0  0  0
    7.7936  -20.5102   24.5446 C   0  0  0  0  0  0  0  0  0  0  0  0
    8.9328  -19.7991   24.5930 N   0  0  0  0  0  0  0  0  0  0  0  0
   10.5388  -17.1785   28.3156 C   0  0  0  0  0  0  0  0  0  0  0  0
   10.5758  -18.0760   29.1928 O   0  0  0  0  0  0  0  0  0  0  0  0
   11.4563  -16.1712   28.3350 O   0  0  0  0  0  0  0  0  0  0  0  0
  2  3  1  1
  2  1  1  0
  4  2  1  0
  5  6  1  6
  5  4  1  0
  7  5  1  0
  8  7  2  0
 10  9  1  0
 11 10  1  0
 11 13  1  0
 11 12  1  1
 13 14  1  6
 14  7  1  0
 15 13  1  0
 15 16  2  0
 17 15  1  0
 18 17  1  0
 18 19  1  6
 20 19  1  0
 21 20  2  0
 22 21  1  0
 23 22  1  0
 23 24  2  0
 24 20  1  0
 25 18  1  0
 26 25  2  0
 27 25  1  0
M  END
$$$$
