LIH.pdb
     RDKit          3D

 27 27  0  0  1  0  0  0  0  0999 V2000
    7.6374  -17.8545   18.9890 C   0  0  0  0  0  0  0  0  0  0  0  0
    6.7427  -17.6160   20.1685 C   0  0  1  0  0  0  0  0  0  0  0  0
    5.8954  -18.8532   20.3683 C   0  0  0  0  0  0  0  0  0  0  0  0
    7.5162  -17.2599   21.4192 C   0  0  0  0  0  0  0  0  0  0  0  0
    7.6540  -15.7547   21.4624 C   0  0  2  0  0  0  0  0  0  0  0  0
    8.4272  -15.3210   20.3170 N   0  0  0  0  0  0  0  0  0  0  0  0
    8.3587  -15.2886   22.6776 C   0  0  0  0  0  0  0  0  0  0  0  0
    9.6113  -15.2283   22.6969 O   0  0  0  0  0  0  0  0  0  0  0  0
    5.7002  -11.8552   25.9799 C   0  0  0  0  0  0  0  0  0  0  0  0
    6.8732  -12.4720   25.2157 C   0  0  0  0  0  0  0  0  0  0  0  0
    7.3742  -13.7049   25.9075 C   0  0  2  0  0  0  0  0  0  0  0  0
    7.9875  -13.2630   27.2250 C   0  0  0  0  0  0  0  0  0  0  0  0
    8.3050  -14.5483   25.1003 C   0  0  2  0  0  0  0  0  0  0  0  0
    7.6438  -14.9000   23.8452 N   0  0  0  0  0  0  0  0  0  0  0  0
    8.7269  -15.7650   25.8291 C   0  0  0  0  0  0  0  0  0  0  0  0
    7.9174  -16.6877   26.0918 O   0  0  0  0  0  0  0  0  0  0  0  0
   10.0621  -15.9687   26.2760 N   0  0  0  0  0  0  0  0  0  0  0  0
   10.5444  -17.2406   26.8014 C   0  0  1  0  0  0  0  0  0  0  0  0
   11.8378  -17.6407   26.1957 C   0  0  0  0  0  0  0  0  0  0  0  0
   11.6728  -18.0671   24.7965 C   0  0  0  0  0  0  0  0  0  0  0  0
   12.4863  -17.7314   23.7049 C   0  0  0  0  0  0  0  0  0  0  0  0
   12.0409  -18.2945   22.5850 N   0  0  0  0  0  0  0  0  0  0  0  0
   10.9437  -18.9956   22.9331 C   0  0  0  0  0  0  0  0  0  0  0  0
   10.7303  -18.8555   24.2524 N   0  0  0  0  0  0  0  0  0  0  0  0
   10.6424  -17.1863   28.2685 C   0  0  0  0  0  0  0  0  0  0  0  0
   10.8843  -18.2443   28.8998 O   0  0  0  0  0  0  0  0  0  0  0  0
   10.4780  -16.0144   28.9442 O   0  0  0  0  0  0  0  0  0  0  0  0
  2  3  1  1
  2  1  1  0
  4  2  1  0
  5  6  1  6
  5  4  1  0
  7  5  1  0
  8  7  2  0
 10  9  1  0
 11 10  1  0
 11 13  1  0
 11 12  1  1
 13 14  1  6
 14  7  1  0
 15 13  1  0
 15 16  2  0
 17 15  1  0
 18 17  1  0
 18 19  1  6
 20 19  1  0
 21 20  2  0
 22 21  1  0
 23 22  1  0
 23 24  2  0
 24 20  1  0
 25 18  1  0
 26 25  2  0
 27 25  1  0
M  END
$$$$
