QLT.pdb
     RDKit          3D

 25 24  0  0  1  0  0  0  0  0999 V2000
   12.4321  -19.1188   15.3261 N   0  0  0  0  0  0  0  0  0  0  0  0
   11.0208  -18.9508   15.1306 C   0  0  0  0  0  0  0  0  0  0  0  0
   10.4771  -19.4434   14.1097 O   0  0  0  0  0  0  0  0  0  0  0  0
   10.1934  -18.2215   16.0883 C   0  0  0  0  0  0  0  0  0  0  0  0
   10.8994  -17.5641   17.2137 C   0  0  0  0  0  0  0  0  0  0  0  0
   10.4255  -17.9287   18.5858 C   0  0  2  0  0  0  0  0  0  0  0  0
    9.0658  -18.4250   18.4582 N   0  0  0  0  0  0  0  0  0  0  0  0
   10.4687  -16.7155   19.4637 C   0  0  0  0  0  0  0  0  0  0  0  0
   11.5641  -16.1236   19.6021 O   0  0  0  0  0  0  0  0  0  0  0  0
    8.6728  -12.6309   19.5090 C   0  0  0  0  0  0  0  0  0  0  0  0
    7.7402  -13.6744   20.0104 C   0  0  2  0  0  0  0  0  0  0  0  0
    6.3740  -13.0762   20.2858 C   0  0  0  0  0  0  0  0  0  0  0  0
    8.2443  -14.3225   21.3024 C   0  0  0  0  0  0  0  0  0  0  0  0
    9.4985  -15.1160   21.0605 C   0  0  2  0  0  0  0  0  0  0  0  0
    9.3586  -16.1930   20.1463 N   0  0  0  0  0  0  0  0  0  0  0  0
    9.9335  -15.7018   22.3755 C   0  0  0  0  0  0  0  0  0  0  0  0
   10.0503  -14.9010   23.3541 O   0  0  0  0  0  0  0  0  0  0  0  0
   10.9087  -19.5983   25.2557 C   0  0  0  0  0  0  0  0  0  0  0  0
   10.5445  -19.0791   23.8995 C   0  0  1  0  0  0  0  0  0  0  0  0
    9.2790  -19.4963   23.5248 O   0  0  0  0  0  0  0  0  0  0  0  0
   10.6721  -17.5717   23.7999 C   0  0  2  0  0  0  0  0  0  0  0  0
   10.2057  -17.0650   22.5476 N   0  0  0  0  0  0  0  0  0  0  0  0
   12.0640  -17.2255   24.1044 C   0  0  0  0  0  0  0  0  0  0  0  0
   13.0305  -17.4077   23.1328 O   0  0  0  0  0  0  0  0  0  0  0  0
   12.3966  -16.7711   25.2178 O   0  0  0  0  0  0  0  0  0  0  0  0
  2  4  1  0
  2  1  1  0
  3  2  2  0
  5  6  1  0
  5  4  1  0
  6  7  1  6
  8  6  1  0
  9  8  2  0
 11 10  1  1
 11 12  1  0
 13 11  1  0
 14 13  1  1
 14 15  1  0
 15  8  1  0
 16 17  2  0
 16 14  1  0
 19 21  1  0
 19 18  1  1
 20 19  1  0
 21 22  1  6
 22 16  1  0
 23 21  1  0
 24 23  1  0
 25 23  2  0
M  END
$$$$
