QLT.pdb
     RDKit          3D

 25 24  0  0  1  0  0  0  0  0999 V2000
    8.3928  -12.2253   18.0632 N   0  0  0  0  0  0  0  0  0  0  0  0
    7.9540  -13.5673   17.8088 C   0  0  0  0  0  0  0  0  0  0  0  0
    7.4422  -13.8477   16.6953 O   0  0  0  0  0  0  0  0  0  0  0  0
    8.0862  -14.6224   18.8104 C   0  0  0  0  0  0  0  0  0  0  0  0
    8.6585  -14.2296   20.1201 C   0  0  0  0  0  0  0  0  0  0  0  0
    8.7428  -15.3134   21.1488 C   0  0  2  0  0  0  0  0  0  0  0  0
    7.5588  -16.1431   21.0038 N   0  0  0  0  0  0  0  0  0  0  0  0
    8.7972  -14.6981   22.5138 C   0  0  0  0  0  0  0  0  0  0  0  0
    9.8441  -14.0986   22.8515 O   0  0  0  0  0  0  0  0  0  0  0  0
    5.6626  -12.4781   27.3304 C   0  0  0  0  0  0  0  0  0  0  0  0
    6.9135  -12.9774   26.7009 C   0  0  2  0  0  0  0  0  0  0  0  0
    7.9438  -11.8676   26.6165 C   0  0  0  0  0  0  0  0  0  0  0  0
    6.6718  -13.5099   25.2862 C   0  0  0  0  0  0  0  0  0  0  0  0
    7.8956  -14.1974   24.7466 C   0  0  2  0  0  0  0  0  0  0  0  0
    7.7488  -14.7476   23.4461 N   0  0  0  0  0  0  0  0  0  0  0  0
    8.2332  -15.3317   25.6745 C   0  0  0  0  0  0  0  0  0  0  0  0
    8.2196  -15.0829   26.9197 O   0  0  0  0  0  0  0  0  0  0  0  0
    6.9133  -19.1360   25.4665 C   0  0  0  0  0  0  0  0  0  0  0  0
    8.3994  -19.0296   25.6136 C   0  0  1  0  0  0  0  0  0  0  0  0
    9.0450  -19.3367   24.4285 O   0  0  0  0  0  0  0  0  0  0  0  0
    8.8370  -17.6754   26.1364 C   0  0  2  0  0  0  0  0  0  0  0  0
    8.5529  -16.6171   25.2190 N   0  0  0  0  0  0  0  0  0  0  0  0
   10.2516  -17.7818   26.5077 C   0  0  0  0  0  0  0  0  0  0  0  0
   10.6143  -18.6269   27.5400 O   0  0  0  0  0  0  0  0  0  0  0  0
   11.1344  -17.1289   25.9152 O   0  0  0  0  0  0  0  0  0  0  0  0
  2  4  1  0
  2  1  1  0
  3  2  2  0
  5  6  1  0
  5  4  1  0
  6  7  1  1
  8  6  1  0
  9  8  2  0
 11 10  1  6
 11 12  1  0
 13 11  1  0
 14 13  1  1
 14 15  1  0
 15  8  1  0
 16 17  2  0
 16 14  1  0
 19 21  1  0
 19 18  1  6
 20 19  1  0
 21 22  1  6
 22 16  1  0
 23 21  1  0
 24 23  1  0
 25 23  2  0
M  END
$$$$
