QLT.pdb
     RDKit          3D

 25 24  0  0  1  0  0  0  0  0999 V2000
    7.4959  -16.3898   18.2718 N   0  0  0  0  0  0  0  0  0  0  0  0
    8.7237  -15.7044   18.5564 C   0  0  0  0  0  0  0  0  0  0  0  0
    8.9433  -14.5869   18.0239 O   0  0  0  0  0  0  0  0  0  0  0  0
    9.7300  -16.2695   19.4516 C   0  0  0  0  0  0  0  0  0  0  0  0
    9.7845  -15.7170   20.8260 C   0  0  0  0  0  0  0  0  0  0  0  0
    9.5261  -16.6903   21.9333 C   0  0  2  0  0  0  0  0  0  0  0  0
    8.1699  -17.1853   21.7690 N   0  0  0  0  0  0  0  0  0  0  0  0
    9.6826  -15.9948   23.2510 C   0  0  0  0  0  0  0  0  0  0  0  0
   10.7973  -15.4946   23.5277 O   0  0  0  0  0  0  0  0  0  0  0  0
    8.0427  -12.3661   25.0748 C   0  0  0  0  0  0  0  0  0  0  0  0
    7.1127  -13.5173   25.2151 C   0  0  2  0  0  0  0  0  0  0  0  0
    5.7998  -13.0666   25.8263 C   0  0  0  0  0  0  0  0  0  0  0  0
    7.6949  -14.6215   26.1012 C   0  0  0  0  0  0  0  0  0  0  0  0
    8.9001  -15.2541   25.4620 C   0  0  2  0  0  0  0  0  0  0  0  0
    8.6590  -15.8645   24.2031 N   0  0  0  0  0  0  0  0  0  0  0  0
    9.4025  -16.3272   26.3882 C   0  0  0  0  0  0  0  0  0  0  0  0
    9.4294  -16.0538   27.6280 O   0  0  0  0  0  0  0  0  0  0  0  0
    9.0138  -20.5236   25.9513 C   0  0  0  0  0  0  0  0  0  0  0  0
   10.3701  -19.9536   26.2285 C   0  0  1  0  0  0  0  0  0  0  0  0
   11.1556  -19.9481   25.0889 O   0  0  0  0  0  0  0  0  0  0  0  0
   10.3050  -18.5726   26.8509 C   0  0  2  0  0  0  0  0  0  0  0  0
    9.8292  -17.5826   25.9368 N   0  0  0  0  0  0  0  0  0  0  0  0
   11.6264  -18.2802   27.4153 C   0  0  0  0  0  0  0  0  0  0  0  0
   12.1173  -19.0820   28.4290 O   0  0  0  0  0  0  0  0  0  0  0  0
   12.3173  -17.3264   27.0033 O   0  0  0  0  0  0  0  0  0  0  0  0
  2  4  1  0
  2  1  1  0
  3  2  2  0
  5  6  1  0
  5  4  1  0
  6  7  1  6
  8  6  1  0
  9  8  2  0
 11 10  1  1
 11 12  1  0
 13 11  1  0
 14 13  1  1
 14 15  1  0
 15  8  1  0
 16 17  2  0
 16 14  1  0
 19 21  1  0
 19 18  1  6
 20 19  1  0
 21 22  1  6
 22 16  1  0
 23 21  1  0
 24 23  1  0
 25 23  2  0
M  END
$$$$
