QLT.pdb
     RDKit          3D

 25 24  0  0  1  0  0  0  0  0999 V2000
    6.3748  -19.0496   22.8025 N   0  0  0  0  0  0  0  0  0  0  0  0
    6.5760  -18.8538   21.3956 C   0  0  0  0  0  0  0  0  0  0  0  0
    5.7477  -19.3354   20.5817 O   0  0  0  0  0  0  0  0  0  0  0  0
    7.7201  -18.1068   20.8791 C   0  0  0  0  0  0  0  0  0  0  0  0
    8.5709  -17.4168   21.8778 C   0  0  0  0  0  0  0  0  0  0  0  0
    8.5797  -15.9218   21.8085 C   0  0  2  0  0  0  0  0  0  0  0  0
    9.6747  -15.5338   20.9357 N   0  0  0  0  0  0  0  0  0  0  0  0
    8.7730  -15.3629   23.1851 C   0  0  0  0  0  0  0  0  0  0  0  0
    9.9425  -15.1383   23.5739 O   0  0  0  0  0  0  0  0  0  0  0  0
    8.0026  -11.5838   25.7442 C   0  0  0  0  0  0  0  0  0  0  0  0
    6.7832  -12.3739   25.4296 C   0  0  2  0  0  0  0  0  0  0  0  0
    5.5523  -11.7010   26.0063 C   0  0  0  0  0  0  0  0  0  0  0  0
    6.8572  -13.7943   25.9955 C   0  0  0  0  0  0  0  0  0  0  0  0
    7.9876  -14.5691   25.3765 C   0  0  2  0  0  0  0  0  0  0  0  0
    7.7266  -15.0719   24.0747 N   0  0  0  0  0  0  0  0  0  0  0  0
    8.2744  -15.7510   26.2610 C   0  0  0  0  0  0  0  0  0  0  0  0
    8.4525  -15.5180   27.4966 O   0  0  0  0  0  0  0  0  0  0  0  0
    6.6274  -19.5409   26.2097 C   0  0  0  0  0  0  0  0  0  0  0  0
    8.1215  -19.4745   26.1413 C   0  0  1  0  0  0  0  0  0  0  0  0
    8.5789  -19.7482   24.8640 O   0  0  0  0  0  0  0  0  0  0  0  0
    8.6690  -18.1528   26.6437 C   0  0  2  0  0  0  0  0  0  0  0  0
    8.3486  -17.0631   25.7764 N   0  0  0  0  0  0  0  0  0  0  0  0
   10.1059  -18.3301   26.8761 C   0  0  0  0  0  0  0  0  0  0  0  0
   10.5293  -19.3110   27.7535 O   0  0  0  0  0  0  0  0  0  0  0  0
   10.9542  -17.6179   26.3018 O   0  0  0  0  0  0  0  0  0  0  0  0
  2  4  1  0
  2  1  1  0
  3  2  2  0
  5  6  1  0
  5  4  1  0
  6  7  1  6
  8  6  1  0
  9  8  2  0
 11 10  1  1
 11 12  1  0
 13 11  1  0
 14 13  1  1
 14 15  1  0
 15  8  1  0
 16 17  2  0
 16 14  1  0
 19 21  1  0
 19 18  1  6
 20 19  1  0
 21 22  1  6
 22 16  1  0
 23 21  1  0
 24 23  1  0
 25 23  2  0
M  END
$$$$
