QLT.pdb
     RDKit          3D

 25 24  0  0  1  0  0  0  0  0999 V2000
   12.5849  -18.6371   14.9072 N   0  0  0  0  0  0  0  0  0  0  0  0
   11.3133  -17.9984   14.7249 C   0  0  0  0  0  0  0  0  0  0  0  0
   10.8143  -17.9367   13.5726 O   0  0  0  0  0  0  0  0  0  0  0  0
   10.5778  -17.4160   15.8445 C   0  0  0  0  0  0  0  0  0  0  0  0
   11.2610  -17.4113   17.1599 C   0  0  0  0  0  0  0  0  0  0  0  0
   10.4388  -17.8637   18.3259 C   0  0  2  0  0  0  0  0  0  0  0  0
    9.0881  -18.0933   17.8420 N   0  0  0  0  0  0  0  0  0  0  0  0
   10.4518  -16.8024   19.3832 C   0  0  0  0  0  0  0  0  0  0  0  0
   11.5563  -16.4619   19.8666 O   0  0  0  0  0  0  0  0  0  0  0  0
    9.0982  -12.5124   19.6038 C   0  0  0  0  0  0  0  0  0  0  0  0
    7.9791  -13.4667   19.8207 C   0  0  2  0  0  0  0  0  0  0  0  0
    6.6676  -12.7200   19.9709 C   0  0  0  0  0  0  0  0  0  0  0  0
    8.1864  -14.3197   21.0748 C   0  0  0  0  0  0  0  0  0  0  0  0
    9.3847  -15.2169   20.9313 C   0  0  2  0  0  0  0  0  0  0  0  0
    9.3039  -16.1591   19.8725 N   0  0  0  0  0  0  0  0  0  0  0  0
    9.5327  -15.9953   22.2096 C   0  0  0  0  0  0  0  0  0  0  0  0
    8.4818  -16.5221   22.6899 O   0  0  0  0  0  0  0  0  0  0  0  0
   10.4190  -19.1501   23.2162 C   0  0  0  0  0  0  0  0  0  0  0  0
   11.3734  -18.2607   23.9507 C   0  0  1  0  0  0  0  0  0  0  0  0
   12.6214  -18.2598   23.3523 O   0  0  0  0  0  0  0  0  0  0  0  0
   10.8463  -16.8482   24.1116 C   0  0  2  0  0  0  0  0  0  0  0  0
   10.7597  -16.1517   22.8668 N   0  0  0  0  0  0  0  0  0  0  0  0
   11.6788  -16.1782   25.1156 C   0  0  0  0  0  0  0  0  0  0  0  0
   11.6322  -16.6134   26.4270 O   0  0  0  0  0  0  0  0  0  0  0  0
   12.4271  -15.2261   24.8152 O   0  0  0  0  0  0  0  0  0  0  0  0
  2  4  1  0
  2  1  1  0
  3  2  2  0
  5  6  1  0
  5  4  1  0
  6  7  1  6
  8  6  1  0
  9  8  2  0
 11 10  1  1
 11 12  1  0
 13 11  1  0
 14 13  1  1
 14 15  1  0
 15  8  1  0
 16 17  2  0
 16 14  1  0
 19 21  1  0
 19 18  1  6
 20 19  1  0
 21 22  1  6
 22 16  1  0
 23 21  1  0
 24 23  1  0
 25 23  2  0
M  END
$$$$
