QLT.pdb
     RDKit          3D

 25 24  0  0  1  0  0  0  0  0999 V2000
    7.4320  -19.5627   20.6103 N   0  0  0  0  0  0  0  0  0  0  0  0
    7.4178  -18.5751   19.5699 C   0  0  0  0  0  0  0  0  0  0  0  0
    7.1648  -18.9268   18.3897 O   0  0  0  0  0  0  0  0  0  0  0  0
    7.6891  -17.1661   19.8434 C   0  0  0  0  0  0  0  0  0  0  0  0
    7.9952  -16.8073   21.2487 C   0  0  0  0  0  0  0  0  0  0  0  0
    8.1720  -15.3475   21.5276 C   0  0  2  0  0  0  0  0  0  0  0  0
    9.3247  -14.8963   20.7667 N   0  0  0  0  0  0  0  0  0  0  0  0
    8.3922  -15.1466   22.9959 C   0  0  0  0  0  0  0  0  0  0  0  0
    9.5624  -15.2286   23.4357 O   0  0  0  0  0  0  0  0  0  0  0  0
    8.1802  -11.9921   26.2673 C   0  0  0  0  0  0  0  0  0  0  0  0
    6.8583  -12.4949   25.8092 C   0  0  2  0  0  0  0  0  0  0  0  0
    5.7369  -11.7344   26.4907 C   0  0  0  0  0  0  0  0  0  0  0  0
    6.6742  -13.9843   26.1109 C   0  0  0  0  0  0  0  0  0  0  0  0
    7.6329  -14.8243   25.3130 C   0  0  2  0  0  0  0  0  0  0  0  0
    7.3705  -14.8710   23.9185 N   0  0  0  0  0  0  0  0  0  0  0  0
    7.5493  -16.2343   25.8293 C   0  0  0  0  0  0  0  0  0  0  0  0
    6.3991  -16.6630   26.1543 O   0  0  0  0  0  0  0  0  0  0  0  0
    7.9675  -19.5797   24.4153 C   0  0  0  0  0  0  0  0  0  0  0  0
    8.9366  -19.4648   25.5506 C   0  0  1  0  0  0  0  0  0  0  0  0
   10.2313  -19.2959   25.0913 O   0  0  0  0  0  0  0  0  0  0  0  0
    8.5594  -18.3698   26.5292 C   0  0  2  0  0  0  0  0  0  0  0  0
    8.6701  -17.0643   25.9584 N   0  0  0  0  0  0  0  0  0  0  0  0
    9.3636  -18.5637   27.7399 C   0  0  0  0  0  0  0  0  0  0  0  0
    9.1197  -19.6643   28.5402 O   0  0  0  0  0  0  0  0  0  0  0  0
   10.2613  -17.7603   28.0646 O   0  0  0  0  0  0  0  0  0  0  0  0
  2  4  1  0
  2  1  1  0
  3  2  2  0
  5  6  1  0
  5  4  1  0
  6  7  1  6
  8  6  1  0
  9  8  2  0
 11 10  1  1
 11 12  1  0
 13 11  1  0
 14 13  1  1
 14 15  1  0
 15  8  1  0
 16 17  2  0
 16 14  1  0
 19 21  1  0
 19 18  1  6
 20 19  1  0
 21 22  1  6
 22 16  1  0
 23 21  1  0
 24 23  1  0
 25 23  2  0
M  END
$$$$
