QLT.pdb
     RDKit          3D

 25 24  0  0  1  0  0  0  0  0999 V2000
    6.5766  -16.7286   18.1858 N   0  0  0  0  0  0  0  0  0  0  0  0
    6.9705  -17.3209   19.4317 C   0  0  0  0  0  0  0  0  0  0  0  0
    6.0860  -17.7118   20.2351 O   0  0  0  0  0  0  0  0  0  0  0  0
    8.3758  -17.4844   19.7951 C   0  0  0  0  0  0  0  0  0  0  0  0
    8.7529  -17.1161   21.1804 C   0  0  0  0  0  0  0  0  0  0  0  0
    8.8998  -15.6514   21.4510 C   0  0  2  0  0  0  0  0  0  0  0  0
   10.0744  -15.1920   20.7297 N   0  0  0  0  0  0  0  0  0  0  0  0
    9.0613  -15.4334   22.9245 C   0  0  0  0  0  0  0  0  0  0  0  0
   10.2144  -15.4996   23.4097 O   0  0  0  0  0  0  0  0  0  0  0  0
    8.1816  -12.0342   26.1346 C   0  0  0  0  0  0  0  0  0  0  0  0
    7.0190  -12.7884   25.5964 C   0  0  2  0  0  0  0  0  0  0  0  0
    5.7243  -12.2499   26.1744 C   0  0  0  0  0  0  0  0  0  0  0  0
    7.1010  -14.2814   25.9246 C   0  0  0  0  0  0  0  0  0  0  0  0
    8.2345  -14.9397   25.1876 C   0  0  2  0  0  0  0  0  0  0  0  0
    8.0024  -15.1582   23.8042 N   0  0  0  0  0  0  0  0  0  0  0  0
    8.4733  -16.2845   25.8169 C   0  0  0  0  0  0  0  0  0  0  0  0
    7.4722  -17.0586   25.9229 O   0  0  0  0  0  0  0  0  0  0  0  0
   10.3540  -19.1236   24.6008 C   0  0  0  0  0  0  0  0  0  0  0  0
   10.8883  -18.8331   25.9688 C   0  0  1  0  0  0  0  0  0  0  0  0
   12.1337  -18.2325   25.9049 O   0  0  0  0  0  0  0  0  0  0  0  0
    9.9292  -18.0091   26.8053 C   0  0  2  0  0  0  0  0  0  0  0  0
    9.7308  -16.6965   26.2761 N   0  0  0  0  0  0  0  0  0  0  0  0
   10.4194  -18.0293   28.1872 C   0  0  0  0  0  0  0  0  0  0  0  0
   10.4496  -19.2296   28.8726 O   0  0  0  0  0  0  0  0  0  0  0  0
   10.8093  -16.9908   28.7583 O   0  0  0  0  0  0  0  0  0  0  0  0
  2  4  1  0
  2  1  1  0
  3  2  2  0
  5  6  1  0
  5  4  1  0
  6  7  1  6
  8  6  1  0
  9  8  2  0
 11 10  1  1
 11 12  1  0
 13 11  1  0
 14 13  1  1
 14 15  1  0
 15  8  1  0
 16 17  2  0
 16 14  1  0
 19 21  1  0
 19 18  1  6
 20 19  1  0
 21 22  1  6
 22 16  1  0
 23 21  1  0
 24 23  1  0
 25 23  2  0
M  END
$$$$
