QLT.pdb
     RDKit          3D

 25 24  0  0  1  0  0  0  0  0999 V2000
    8.1208  -19.5590   20.5315 N   0  0  0  0  0  0  0  0  0  0  0  0
    7.2864  -18.7223   19.7180 C   0  0  0  0  0  0  0  0  0  0  0  0
    6.5639  -19.2468   18.8329 O   0  0  0  0  0  0  0  0  0  0  0  0
    7.2509  -17.2722   19.8898 C   0  0  0  0  0  0  0  0  0  0  0  0
    7.9748  -16.7223   21.0606 C   0  0  0  0  0  0  0  0  0  0  0  0
    7.7883  -15.2596   21.3172 C   0  0  2  0  0  0  0  0  0  0  0  0
    8.5490  -14.5412   20.3090 N   0  0  0  0  0  0  0  0  0  0  0  0
    8.2840  -14.9305   22.6923 C   0  0  0  0  0  0  0  0  0  0  0  0
    9.5184  -14.7993   22.8609 O   0  0  0  0  0  0  0  0  0  0  0  0
    8.1925  -11.7339   26.0358 C   0  0  0  0  0  0  0  0  0  0  0  0
    6.9291  -12.4889   25.8262 C   0  0  2  0  0  0  0  0  0  0  0  0
    5.8336  -11.9489   26.7254 C   0  0  0  0  0  0  0  0  0  0  0  0
    7.0955  -13.9813   26.1238 C   0  0  0  0  0  0  0  0  0  0  0  0
    7.9985  -14.6399   25.1178 C   0  0  2  0  0  0  0  0  0  0  0  0
    7.4546  -14.7580   23.8118 N   0  0  0  0  0  0  0  0  0  0  0  0
    8.2927  -16.0319   25.6051 C   0  0  0  0  0  0  0  0  0  0  0  0
    7.3148  -16.8394   25.6711 O   0  0  0  0  0  0  0  0  0  0  0  0
   10.1698  -18.7195   24.1067 C   0  0  0  0  0  0  0  0  0  0  0  0
   10.7479  -18.5434   25.4765 C   0  0  1  0  0  0  0  0  0  0  0  0
   11.9916  -17.9385   25.4232 O   0  0  0  0  0  0  0  0  0  0  0  0
    9.8174  -17.7926   26.4088 C   0  0  2  0  0  0  0  0  0  0  0  0
    9.5760  -16.4517   25.9776 N   0  0  0  0  0  0  0  0  0  0  0  0
   10.3717  -17.8953   27.7625 C   0  0  0  0  0  0  0  0  0  0  0  0
   10.4892  -19.1419   28.3484 O   0  0  0  0  0  0  0  0  0  0  0  0
   10.7394  -16.8859   28.3971 O   0  0  0  0  0  0  0  0  0  0  0  0
  2  4  1  0
  2  1  1  0
  3  2  2  0
  5  6  1  0
  5  4  1  0
  6  7  1  6
  8  6  1  0
  9  8  2  0
 11 10  1  1
 11 12  1  0
 13 11  1  0
 14 13  1  1
 14 15  1  0
 15  8  1  0
 16 17  2  0
 16 14  1  0
 19 21  1  0
 19 18  1  6
 20 19  1  0
 21 22  1  6
 22 16  1  0
 23 21  1  0
 24 23  1  0
 25 23  2  0
M  END
$$$$
