QLT.pdb
     RDKit          3D

 25 24  0  0  1  0  0  0  0  0999 V2000
   12.5701  -18.5689   20.1671 N   0  0  0  0  0  0  0  0  0  0  0  0
   11.6483  -18.0473   19.1994 C   0  0  0  0  0  0  0  0  0  0  0  0
   11.6286  -18.5358   18.0412 O   0  0  0  0  0  0  0  0  0  0  0  0
   10.7271  -16.9608   19.5227 C   0  0  0  0  0  0  0  0  0  0  0  0
   10.7920  -16.4204   20.9014 C   0  0  0  0  0  0  0  0  0  0  0  0
    9.6652  -16.8045   21.8086 C   0  0  2  0  0  0  0  0  0  0  0  0
    8.4364  -16.7099   21.0389 N   0  0  0  0  0  0  0  0  0  0  0  0
    9.6321  -15.8714   22.9803 C   0  0  0  0  0  0  0  0  0  0  0  0
   10.7124  -15.6065   23.5567 O   0  0  0  0  0  0  0  0  0  0  0  0
    6.0380  -12.3338   26.5926 C   0  0  0  0  0  0  0  0  0  0  0  0
    7.3708  -12.8667   26.2058 C   0  0  2  0  0  0  0  0  0  0  0  0
    8.3956  -11.7496   26.1614 C   0  0  0  0  0  0  0  0  0  0  0  0
    7.3433  -13.5410   24.8318 C   0  0  0  0  0  0  0  0  0  0  0  0
    8.4891  -14.5020   24.6736 C   0  0  2  0  0  0  0  0  0  0  0  0
    8.4661  -15.2697   23.4797 N   0  0  0  0  0  0  0  0  0  0  0  0
    8.4421  -15.4680   25.8252 C   0  0  0  0  0  0  0  0  0  0  0  0
    7.4998  -16.3193   25.8268 O   0  0  0  0  0  0  0  0  0  0  0  0
   11.8166  -16.8501   26.0054 C   0  0  0  0  0  0  0  0  0  0  0  0
   10.6132  -17.5502   26.5559 C   0  0  1  0  0  0  0  0  0  0  0  0
   10.9616  -18.7396   27.1720 O   0  0  0  0  0  0  0  0  0  0  0  0
    9.8043  -16.6707   27.4891 C   0  0  2  0  0  0  0  0  0  0  0  0
    9.3798  -15.4569   26.8656 N   0  0  0  0  0  0  0  0  0  0  0  0
   10.5972  -16.4726   28.7066 C   0  0  0  0  0  0  0  0  0  0  0  0
   10.9573  -15.1892   29.0733 O   0  0  0  0  0  0  0  0  0  0  0  0
   10.9540  -17.4331   29.4184 O   0  0  0  0  0  0  0  0  0  0  0  0
  2  4  1  0
  2  1  1  0
  3  2  2  0
  5  6  1  0
  5  4  1  0
  6  7  1  6
  8  6  1  0
  9  8  2  0
 11 10  1  6
 11 12  1  0
 13 11  1  0
 14 13  1  6
 14 15  1  0
 15  8  1  0
 16 17  2  0
 16 14  1  0
 19 21  1  0
 19 18  1  1
 20 19  1  0
 21 22  1  6
 22 16  1  0
 23 21  1  0
 24 23  1  0
 25 23  2  0
M  END
$$$$
