QLT.pdb
     RDKit          3D

 25 24  0  0  1  0  0  0  0  0999 V2000
    7.0694  -20.5924   21.4899 N   0  0  0  0  0  0  0  0  0  0  0  0
    7.8037  -20.1129   20.3546 C   0  0  0  0  0  0  0  0  0  0  0  0
    8.0549  -20.8991   19.4063 O   0  0  0  0  0  0  0  0  0  0  0  0
    8.2692  -18.7311   20.2677 C   0  0  0  0  0  0  0  0  0  0  0  0
    7.9495  -17.8471   21.4137 C   0  0  0  0  0  0  0  0  0  0  0  0
    8.3130  -16.4046   21.2488 C   0  0  2  0  0  0  0  0  0  0  0  0
    9.5392  -16.3518   20.4711 N   0  0  0  0  0  0  0  0  0  0  0  0
    8.5124  -15.7863   22.5989 C   0  0  0  0  0  0  0  0  0  0  0  0
    9.6542  -15.8393   23.1115 O   0  0  0  0  0  0  0  0  0  0  0  0
    6.0106  -12.2531   27.0757 C   0  0  0  0  0  0  0  0  0  0  0  0
    7.0651  -13.1500   26.5337 C   0  0  2  0  0  0  0  0  0  0  0  0
    8.4069  -12.4432   26.5210 C   0  0  0  0  0  0  0  0  0  0  0  0
    6.7541  -13.6047   25.1054 C   0  0  0  0  0  0  0  0  0  0  0  0
    7.7531  -14.6223   24.6281 C   0  0  2  0  0  0  0  0  0  0  0  0
    7.5008  -15.1474   23.3335 N   0  0  0  0  0  0  0  0  0  0  0  0
    7.7283  -15.7780   25.5900 C   0  0  0  0  0  0  0  0  0  0  0  0
    6.5881  -16.1962   25.9611 O   0  0  0  0  0  0  0  0  0  0  0  0
    7.7883  -19.0933   25.3137 C   0  0  0  0  0  0  0  0  0  0  0  0
    8.9450  -18.8330   26.2279 C   0  0  1  0  0  0  0  0  0  0  0  0
   10.1495  -18.9177   25.5512 O   0  0  0  0  0  0  0  0  0  0  0  0
    8.8233  -17.5100   26.9583 C   0  0  2  0  0  0  0  0  0  0  0  0
    8.8919  -16.3890   26.0745 N   0  0  0  0  0  0  0  0  0  0  0  0
    9.8344  -17.4974   28.0202 C   0  0  0  0  0  0  0  0  0  0  0  0
    9.7098  -18.3790   29.0779 O   0  0  0  0  0  0  0  0  0  0  0  0
   10.8030  -16.7114   27.9921 O   0  0  0  0  0  0  0  0  0  0  0  0
  2  4  1  0
  2  1  1  0
  3  2  2  0
  5  6  1  0
  5  4  1  0
  6  7  1  6
  8  6  1  0
  9  8  2  0
 11 10  1  6
 11 12  1  0
 13 11  1  0
 14 13  1  1
 14 15  1  0
 15  8  1  0
 16 17  2  0
 16 14  1  0
 19 21  1  0
 19 18  1  6
 20 19  1  0
 21 22  1  6
 22 16  1  0
 23 21  1  0
 24 23  1  0
 25 23  2  0
M  END
$$$$
