QLT.pdb
     RDKit          3D

 25 24  0  0  1  0  0  0  0  0999 V2000
    6.4802  -18.1039   20.9154 N   0  0  0  0  0  0  0  0  0  0  0  0
    7.5863  -18.5840   20.1381 C   0  0  0  0  0  0  0  0  0  0  0  0
    7.3640  -19.2021   19.0661 O   0  0  0  0  0  0  0  0  0  0  0  0
    8.9696  -18.3736   20.5574 C   0  0  0  0  0  0  0  0  0  0  0  0
    9.1816  -17.5189   21.7497 C   0  0  0  0  0  0  0  0  0  0  0  0
    9.2815  -16.0481   21.4911 C   0  0  2  0  0  0  0  0  0  0  0  0
   10.5567  -15.8075   20.8376 N   0  0  0  0  0  0  0  0  0  0  0  0
    9.2028  -15.3096   22.7923 C   0  0  0  0  0  0  0  0  0  0  0  0
   10.2673  -15.0971   23.4176 O   0  0  0  0  0  0  0  0  0  0  0  0
    5.5128  -12.2134   26.7406 C   0  0  0  0  0  0  0  0  0  0  0  0
    6.8347  -12.7249   26.2924 C   0  0  2  0  0  0  0  0  0  0  0  0
    7.8417  -11.5936   26.2136 C   0  0  0  0  0  0  0  0  0  0  0  0
    6.7571  -13.3887   24.9152 C   0  0  0  0  0  0  0  0  0  0  0  0
    8.0103  -14.1626   24.6120 C   0  0  2  0  0  0  0  0  0  0  0  0
    8.0103  -14.8364   23.3625 N   0  0  0  0  0  0  0  0  0  0  0  0
    8.1763  -15.2071   25.6811 C   0  0  0  0  0  0  0  0  0  0  0  0
    8.1492  -14.8090   26.8867 O   0  0  0  0  0  0  0  0  0  0  0  0
    6.3725  -18.8021   25.7178 C   0  0  0  0  0  0  0  0  0  0  0  0
    7.8367  -18.8771   26.0210 C   0  0  1  0  0  0  0  0  0  0  0  0
    8.5434  -19.4114   24.9576 O   0  0  0  0  0  0  0  0  0  0  0  0
    8.4136  -17.5391   26.4401 C   0  0  2  0  0  0  0  0  0  0  0  0
    8.3547  -16.5666   25.3947 N   0  0  0  0  0  0  0  0  0  0  0  0
    9.7646  -17.7829   26.9552 C   0  0  0  0  0  0  0  0  0  0  0  0
   10.8465  -17.2340   26.2921 O   0  0  0  0  0  0  0  0  0  0  0  0
    9.9610  -18.4729   27.9760 O   0  0  0  0  0  0  0  0  0  0  0  0
  2  4  1  0
  2  1  1  0
  3  2  2  0
  5  6  1  0
  5  4  1  0
  6  7  1  1
  8  6  1  0
  9  8  2  0
 11 10  1  6
 11 12  1  0
 13 11  1  0
 14 13  1  1
 14 15  1  0
 15  8  1  0
 16 17  2  0
 16 14  1  0
 19 21  1  0
 19 18  1  6
 20 19  1  0
 21 22  1  6
 22 16  1  0
 23 21  1  0
 24 23  1  0
 25 23  2  0
M  END
$$$$
