QLT.pdb
     RDKit          3D

 25 24  0  0  1  0  0  0  0  0999 V2000
    6.9310  -19.4683   21.1566 N   0  0  0  0  0  0  0  0  0  0  0  0
    6.9093  -18.2417   20.4129 C   0  0  0  0  0  0  0  0  0  0  0  0
    5.8423  -17.8769   19.8570 O   0  0  0  0  0  0  0  0  0  0  0  0
    8.0961  -17.4000   20.2832 C   0  0  0  0  0  0  0  0  0  0  0  0
    8.5894  -16.7490   21.5200 C   0  0  0  0  0  0  0  0  0  0  0  0
    8.3485  -15.2755   21.6248 C   0  0  2  0  0  0  0  0  0  0  0  0
    9.2562  -14.6200   20.6988 N   0  0  0  0  0  0  0  0  0  0  0  0
    8.6094  -14.8294   23.0311 C   0  0  0  0  0  0  0  0  0  0  0  0
    9.7958  -14.6223   23.3759 O   0  0  0  0  0  0  0  0  0  0  0  0
    7.7825  -11.2381   25.7235 C   0  0  0  0  0  0  0  0  0  0  0  0
    6.6071  -12.1216   25.5048 C   0  0  2  0  0  0  0  0  0  0  0  0
    5.3766  -11.5426   26.1763 C   0  0  0  0  0  0  0  0  0  0  0  0
    6.8347  -13.5290   26.0623 C   0  0  0  0  0  0  0  0  0  0  0  0
    7.9347  -14.2373   25.3209 C   0  0  2  0  0  0  0  0  0  0  0  0
    7.6091  -14.6263   23.9950 N   0  0  0  0  0  0  0  0  0  0  0  0
    8.2709  -15.4898   26.0825 C   0  0  0  0  0  0  0  0  0  0  0  0
    8.4327  -15.3770   27.3369 O   0  0  0  0  0  0  0  0  0  0  0  0
    6.8058  -19.3030   25.6074 C   0  0  0  0  0  0  0  0  0  0  0  0
    8.2982  -19.1845   25.5884 C   0  0  1  0  0  0  0  0  0  0  0  0
    8.7977  -19.3318   24.3061 O   0  0  0  0  0  0  0  0  0  0  0  0
    8.7877  -17.8950   26.2180 C   0  0  2  0  0  0  0  0  0  0  0  0
    8.4067  -16.7405   25.4668 N   0  0  0  0  0  0  0  0  0  0  0  0
   10.2337  -18.0252   26.4231 C   0  0  0  0  0  0  0  0  0  0  0  0
   10.7059  -18.9955   27.2873 O   0  0  0  0  0  0  0  0  0  0  0  0
   11.0471  -17.2823   25.8371 O   0  0  0  0  0  0  0  0  0  0  0  0
  2  4  1  0
  2  1  1  0
  3  2  2  0
  5  6  1  0
  5  4  1  0
  6  7  1  6
  8  6  1  0
  9  8  2  0
 11 10  1  1
 11 12  1  0
 13 11  1  0
 14 13  1  1
 14 15  1  0
 15  8  1  0
 16 17  2  0
 16 14  1  0
 19 21  1  0
 19 18  1  6
 20 19  1  0
 21 22  1  6
 22 16  1  0
 23 21  1  0
 24 23  1  0
 25 23  2  0
M  END
$$$$
