SGM.pdb
     RDKit          3D

 19 18  0  0  1  0  0  0  0  0999 V2000
   26.5831  -19.7710  -19.3139 O   0  0  0  0  0  0  0  0  0  0  0  0
   27.6931  -18.9093  -19.3883 C   0  0  0  0  0  0  0  0  0  0  0  0
   28.5767  -19.2212  -18.2099 C   0  0  2  0  0  0  0  0  0  0  0  0
   28.6512  -20.6665  -18.0641 N   0  0  0  0  0  0  0  0  0  0  0  0
   27.9694  -18.6284  -16.9980 C   0  0  0  0  0  0  0  0  0  0  0  0
   27.5985  -17.4368  -16.9550 O   0  0  0  0  0  0  0  0  0  0  0  0
   27.7884  -19.4228  -15.8231 N   0  0  0  0  0  0  0  0  0  0  0  0
   27.1057  -18.9005  -14.7014 C   0  0  0  0  0  0  0  0  0  0  0  0
   26.3698  -19.8958  -13.8942 C   0  0  0  0  0  0  0  0  0  0  0  0
   26.1251  -21.0641  -14.3742 O   0  0  0  0  0  0  0  0  0  0  0  0
   29.6671  -20.7585  -10.9300 C   0  0  0  0  0  0  0  0  0  0  0  0
   28.2314  -21.7931  -10.6565 S   0  0  0  0  0  0  0  0  0  0  0  0
   26.9180  -20.9426   -9.8789 C   0  0  0  0  0  0  0  0  0  0  0  0
   25.6593  -20.5883  -10.4847 C   0  0  0  0  0  0  0  0  0  0  0  0
   25.2186  -20.8265  -11.8617 C   0  0  2  0  0  0  0  0  0  0  0  0
   25.8913  -19.6751  -12.5941 N   0  0  0  0  0  0  0  0  0  0  0  0
   23.7711  -20.6285  -12.1502 C   0  0  0  0  0  0  0  0  0  0  0  0
   22.8973  -21.7270  -12.0175 O   0  0  0  0  0  0  0  0  0  0  0  0
   23.2526  -19.5780  -12.5007 O   0  0  0  0  0  0  0  0  0  0  0  0
  1  2  1  0
  3  5  1  0
  3  4  1  1
  3  2  1  0
  5  6  2  0
  7  5  1  0
  7  8  1  0
  9 10  2  0
  9  8  1  0
 11 12  1  0
 13 14  1  0
 13 12  1  0
 15 14  1  1
 15 16  1  0
 15 17  1  0
 16  9  1  0
 17 18  1  0
 19 17  2  0
M  END
$$$$
