SGM.pdb
     RDKit          3D

 19 18  0  0  1  0  0  0  0  0999 V2000
   20.7368  -20.0337  -12.9048 O   0  0  0  0  0  0  0  0  0  0  0  0
   21.2006  -20.8524  -13.9511 C   0  0  0  0  0  0  0  0  0  0  0  0
   22.6976  -20.7008  -14.0028 C   0  0  2  0  0  0  0  0  0  0  0  0
   23.1835  -21.3665  -15.2013 N   0  0  0  0  0  0  0  0  0  0  0  0
   23.2764  -21.3469  -12.8043 C   0  0  0  0  0  0  0  0  0  0  0  0
   22.9178  -22.4800  -12.4211 O   0  0  0  0  0  0  0  0  0  0  0  0
   24.2815  -20.6752  -12.0408 N   0  0  0  0  0  0  0  0  0  0  0  0
   24.7396  -21.2200  -10.8199 C   0  0  0  0  0  0  0  0  0  0  0  0
   25.8449  -20.4794  -10.1769 C   0  0  0  0  0  0  0  0  0  0  0  0
   26.3410  -19.4369  -10.7445 O   0  0  0  0  0  0  0  0  0  0  0  0
   28.0968  -19.8127   -3.4803 C   0  0  0  0  0  0  0  0  0  0  0  0
   28.8318  -19.1306   -4.9638 S   0  0  0  0  0  0  0  0  0  0  0  0
   28.9609  -20.2978   -6.2577 C   0  0  0  0  0  0  0  0  0  0  0  0
   27.9223  -20.6452   -7.1944 C   0  0  0  0  0  0  0  0  0  0  0  0
   27.7685  -20.1997   -8.5818 C   0  0  2  0  0  0  0  0  0  0  0  0
   26.4301  -20.8231   -8.9491 N   0  0  0  0  0  0  0  0  0  0  0  0
   28.7099  -20.7739   -9.5826 C   0  0  0  0  0  0  0  0  0  0  0  0
   28.5639  -22.1268   -9.9520 O   0  0  0  0  0  0  0  0  0  0  0  0
   29.6220  -20.1706  -10.1299 O   0  0  0  0  0  0  0  0  0  0  0  0
  1  2  1  0
  3  5  1  0
  3  4  1  6
  3  2  1  0
  5  6  2  0
  7  5  1  0
  7  8  1  0
  9 10  2  0
  9  8  1  0
 11 12  1  0
 13 14  1  0
 13 12  1  0
 15 14  1  1
 15 16  1  0
 15 17  1  0
 16  9  1  0
 17 18  1  0
 19 17  2  0
M  END
$$$$
