SGM.pdb
     RDKit          3D

 19 18  0  0  1  0  0  0  0  0999 V2000
   18.0315  -11.6132  -16.1576 O   0  0  0  0  0  0  0  0  0  0  0  0
   18.3657  -10.8553  -15.0200 C   0  0  0  0  0  0  0  0  0  0  0  0
   17.3593  -11.1911  -13.9517 C   0  0  2  0  0  0  0  0  0  0  0  0
   16.0518  -10.7338  -14.3952 N   0  0  0  0  0  0  0  0  0  0  0  0
   17.7400  -10.4838  -12.7093 C   0  0  0  0  0  0  0  0  0  0  0  0
   18.8169  -10.7097  -12.1188 O   0  0  0  0  0  0  0  0  0  0  0  0
   16.8658   -9.5038  -12.1439 N   0  0  0  0  0  0  0  0  0  0  0  0
   17.2902   -8.7034  -11.0592 C   0  0  0  0  0  0  0  0  0  0  0  0
   16.3578   -7.6243  -10.6721 C   0  0  0  0  0  0  0  0  0  0  0  0
   15.4362   -7.2436  -11.4849 O   0  0  0  0  0  0  0  0  0  0  0  0
   11.4403   -8.8613   -6.6955 C   0  0  0  0  0  0  0  0  0  0  0  0
   12.7971   -7.7295   -6.4047 S   0  0  0  0  0  0  0  0  0  0  0  0
   13.5036   -7.1205   -7.8821 C   0  0  0  0  0  0  0  0  0  0  0  0
   14.7035   -6.3290   -7.9861 C   0  0  0  0  0  0  0  0  0  0  0  0
   15.3654   -5.8437   -9.2000 C   0  0  2  0  0  0  0  0  0  0  0  0
   16.3856   -6.9455   -9.4447 N   0  0  0  0  0  0  0  0  0  0  0  0
   16.1984   -4.6164   -9.0689 C   0  0  0  0  0  0  0  0  0  0  0  0
   15.6481   -3.3788   -9.4606 O   0  0  0  0  0  0  0  0  0  0  0  0
   17.3443   -4.5761   -8.6437 O   0  0  0  0  0  0  0  0  0  0  0  0
  1  2  1  0
  3  5  1  0
  3  4  1  6
  3  2  1  0
  5  6  2  0
  7  5  1  0
  7  8  1  0
  9 10  2  0
  9  8  1  0
 11 12  1  0
 13 14  1  0
 13 12  1  0
 15 14  1  1
 15 16  1  0
 15 17  1  0
 16  9  1  0
 17 18  1  0
 19 17  2  0
M  END
$$$$
