SGM.pdb
     RDKit          3D

 19 18  0  0  1  0  0  0  0  0999 V2000
   41.4967  -28.1028    3.8652 O   0  0  0  0  0  0  0  0  0  0  0  0
   40.1095  -28.2795    3.7078 C   0  0  0  0  0  0  0  0  0  0  0  0
   39.5717  -28.7661    5.0272 C   0  0  2  0  0  0  0  0  0  0  0  0
   39.6068  -30.2201    5.0270 N   0  0  0  0  0  0  0  0  0  0  0  0
   38.1739  -28.3011    5.1644 C   0  0  0  0  0  0  0  0  0  0  0  0
   37.2002  -29.0687    5.0155 O   0  0  0  0  0  0  0  0  0  0  0  0
   37.8992  -26.9334    5.4778 N   0  0  0  0  0  0  0  0  0  0  0  0
   36.5847  -26.5183    5.7893 C   0  0  0  0  0  0  0  0  0  0  0  0
   36.4185  -25.0653    6.0018 C   0  0  0  0  0  0  0  0  0  0  0  0
   37.4431  -24.2876    5.9822 O   0  0  0  0  0  0  0  0  0  0  0  0
   31.6802  -19.6315    3.3415 C   0  0  0  0  0  0  0  0  0  0  0  0
   31.8441  -21.2332    4.1252 S   0  0  0  0  0  0  0  0  0  0  0  0
   33.4067  -21.4692    4.8705 C   0  0  0  0  0  0  0  0  0  0  0  0
   33.8694  -22.6757    5.5086 C   0  0  0  0  0  0  0  0  0  0  0  0
   35.1444  -22.9060    6.1931 C   0  0  2  0  0  0  0  0  0  0  0  0
   35.1913  -24.4262    6.2334 N   0  0  0  0  0  0  0  0  0  0  0  0
   35.2199  -22.5141    7.6277 C   0  0  0  0  0  0  0  0  0  0  0  0
   35.6015  -21.1958    7.9509 O   0  0  0  0  0  0  0  0  0  0  0  0
   34.9771  -23.2438    8.5785 O   0  0  0  0  0  0  0  0  0  0  0  0
  1  2  1  0
  3  5  1  0
  3  4  1  6
  3  2  1  0
  5  6  2  0
  7  5  1  0
  7  8  1  0
  9 10  2  0
  9  8  1  0
 11 12  1  0
 13 14  1  0
 13 12  1  0
 15 14  1  1
 15 16  1  0
 15 17  1  0
 16  9  1  0
 17 18  1  0
 19 17  2  0
M  END
$$$$
