SGM.pdb
     RDKit          3D

 19 18  0  0  1  0  0  0  0  0999 V2000
   18.2608  -14.5752  -16.2375 O   0  0  0  0  0  0  0  0  0  0  0  0
   18.4588  -13.2305  -16.6019 C   0  0  0  0  0  0  0  0  0  0  0  0
   17.4365  -12.4138  -15.8571 C   0  0  2  0  0  0  0  0  0  0  0  0
   16.1203  -12.7376  -16.3844 N   0  0  0  0  0  0  0  0  0  0  0  0
   17.7255  -10.9805  -16.0834 C   0  0  0  0  0  0  0  0  0  0  0  0
   17.1158  -10.3065  -16.9397 O   0  0  0  0  0  0  0  0  0  0  0  0
   18.7302  -10.3195  -15.3102 N   0  0  0  0  0  0  0  0  0  0  0  0
   19.0778   -8.9769  -15.5821 C   0  0  0  0  0  0  0  0  0  0  0  0
   20.2262   -8.4567  -14.8111 C   0  0  0  0  0  0  0  0  0  0  0  0
   20.6876   -9.1212  -13.8108 O   0  0  0  0  0  0  0  0  0  0  0  0
   26.7491  -10.1403  -15.1719 C   0  0  0  0  0  0  0  0  0  0  0  0
   24.9895   -9.9536  -14.8977 S   0  0  0  0  0  0  0  0  0  0  0  0
   24.3107   -8.5835  -15.7432 C   0  0  0  0  0  0  0  0  0  0  0  0
   22.9453   -8.1291  -15.6652 C   0  0  0  0  0  0  0  0  0  0  0  0
   22.3701   -7.1446  -14.7448 C   0  0  2  0  0  0  0  0  0  0  0  0
   20.8901   -7.2507  -15.0809 N   0  0  0  0  0  0  0  0  0  0  0  0
   22.6875   -5.7130  -15.0043 C   0  0  0  0  0  0  0  0  0  0  0  0
   23.6245   -5.0653  -14.1734 O   0  0  0  0  0  0  0  0  0  0  0  0
   22.2015   -5.0258  -15.8913 O   0  0  0  0  0  0  0  0  0  0  0  0
  1  2  1  0
  3  5  1  0
  3  4  1  6
  3  2  1  0
  5  6  2  0
  7  5  1  0
  7  8  1  0
  9 10  2  0
  9  8  1  0
 11 12  1  0
 13 14  1  0
 13 12  1  0
 15 14  1  6
 15 16  1  0
 15 17  1  0
 16  9  1  0
 17 18  1  0
 19 17  2  0
M  END
$$$$
