SGM.pdb
     RDKit          3D

 19 18  0  0  1  0  0  0  0  0999 V2000
   19.0270  -26.0092   -8.5020 O   0  0  0  0  0  0  0  0  0  0  0  0
   17.7420  -25.4399   -8.4312 C   0  0  0  0  0  0  0  0  0  0  0  0
   17.6472  -24.7216   -7.1114 C   0  0  2  0  0  0  0  0  0  0  0  0
   18.9451  -24.1358   -6.8153 N   0  0  0  0  0  0  0  0  0  0  0  0
   17.2943  -25.7065   -6.0653 C   0  0  0  0  0  0  0  0  0  0  0  0
   16.2018  -26.3113   -6.0629 O   0  0  0  0  0  0  0  0  0  0  0  0
   18.2155  -25.9956   -5.0107 N   0  0  0  0  0  0  0  0  0  0  0  0
   17.8669  -26.8975   -3.9800 C   0  0  0  0  0  0  0  0  0  0  0  0
   17.3671  -26.2703   -2.7388 C   0  0  0  0  0  0  0  0  0  0  0  0
   18.1018  -26.2510   -1.6830 O   0  0  0  0  0  0  0  0  0  0  0  0
   15.2984  -20.6617    1.4652 C   0  0  0  0  0  0  0  0  0  0  0  0
   16.1032  -21.8938    0.4451 S   0  0  0  0  0  0  0  0  0  0  0  0
   15.0126  -22.6593   -0.6852 C   0  0  0  0  0  0  0  0  0  0  0  0
   15.3384  -23.7421   -1.5785 C   0  0  0  0  0  0  0  0  0  0  0  0
   15.7140  -25.1164   -1.2360 C   0  0  2  0  0  0  0  0  0  0  0  0
   16.1085  -25.6666   -2.5985 N   0  0  0  0  0  0  0  0  0  0  0  0
   14.6195  -26.0244   -0.7941 C   0  0  0  0  0  0  0  0  0  0  0  0
   14.5747  -26.4240    0.5573 O   0  0  0  0  0  0  0  0  0  0  0  0
   13.7322  -26.4695   -1.5081 O   0  0  0  0  0  0  0  0  0  0  0  0
  1  2  1  0
  3  5  1  0
  3  4  1  1
  3  2  1  0
  5  6  2  0
  7  5  1  0
  7  8  1  0
  9 10  2  0
  9  8  1  0
 11 12  1  0
 13 14  1  0
 13 12  1  0
 15 14  1  6
 15 16  1  0
 15 17  1  0
 16  9  1  0
 17 18  1  0
 19 17  2  0
M  END
$$$$
