SGM.pdb
     RDKit          3D

 19 18  0  0  1  0  0  0  0  0999 V2000
   30.3435  -22.5347  -17.4829 O   0  0  0  0  0  0  0  0  0  0  0  0
   29.0767  -22.0012  -17.1813 C   0  0  0  0  0  0  0  0  0  0  0  0
   29.1063  -21.5772  -15.7370 C   0  0  2  0  0  0  0  0  0  0  0  0
   29.2515  -22.7675  -14.9138 N   0  0  0  0  0  0  0  0  0  0  0  0
   27.8277  -20.9040  -15.4191 C   0  0  0  0  0  0  0  0  0  0  0  0
   27.2286  -20.1888  -16.2491 O   0  0  0  0  0  0  0  0  0  0  0  0
   27.2353  -21.0604  -14.1274 N   0  0  0  0  0  0  0  0  0  0  0  0
   26.2342  -22.0339  -13.9097 C   0  0  0  0  0  0  0  0  0  0  0  0
   25.6810  -22.0709  -12.5399 C   0  0  0  0  0  0  0  0  0  0  0  0
   24.7467  -22.9036  -12.2421 O   0  0  0  0  0  0  0  0  0  0  0  0
   27.6543  -18.7047   -6.9006 C   0  0  0  0  0  0  0  0  0  0  0  0
   28.2052  -20.3864   -7.1740 S   0  0  0  0  0  0  0  0  0  0  0  0
   27.4220  -21.1455   -8.5391 C   0  0  0  0  0  0  0  0  0  0  0  0
   26.2950  -20.6231   -9.2697 C   0  0  0  0  0  0  0  0  0  0  0  0
   25.3746  -21.3453  -10.1519 C   0  0  2  0  0  0  0  0  0  0  0  0
   26.0989  -21.2445  -11.4861 N   0  0  0  0  0  0  0  0  0  0  0  0
   24.0561  -20.7069  -10.4190 C   0  0  0  0  0  0  0  0  0  0  0  0
   22.9537  -21.0677   -9.6173 O   0  0  0  0  0  0  0  0  0  0  0  0
   23.8298  -19.8782  -11.2893 O   0  0  0  0  0  0  0  0  0  0  0  0
  1  2  1  0
  3  5  1  0
  3  4  1  1
  3  2  1  0
  5  6  2  0
  7  5  1  0
  7  8  1  0
  9 10  2  0
  9  8  1  0
 11 12  1  0
 13 14  1  0
 13 12  1  0
 15 14  1  1
 15 16  1  0
 15 17  1  0
 16  9  1  0
 17 18  1  0
 19 17  2  0
M  END
$$$$
