SGM.pdb
     RDKit          3D

 19 18  0  0  1  0  0  0  0  0999 V2000
   26.8099  -15.5041  -15.4890 O   0  0  0  0  0  0  0  0  0  0  0  0
   27.4886  -16.7128  -15.2468 C   0  0  0  0  0  0  0  0  0  0  0  0
   26.4725  -17.8195  -15.3443 C   0  0  2  0  0  0  0  0  0  0  0  0
   25.2895  -17.4211  -14.5977 N   0  0  0  0  0  0  0  0  0  0  0  0
   27.0515  -19.0423  -14.7457 C   0  0  0  0  0  0  0  0  0  0  0  0
   28.1940  -19.0593  -14.2421 O   0  0  0  0  0  0  0  0  0  0  0  0
   26.3004  -20.2588  -14.7290 N   0  0  0  0  0  0  0  0  0  0  0  0
   26.8275  -21.4196  -14.1190 C   0  0  0  0  0  0  0  0  0  0  0  0
   26.4054  -21.6411  -12.7202 C   0  0  0  0  0  0  0  0  0  0  0  0
   26.5977  -22.7831  -12.1600 O   0  0  0  0  0  0  0  0  0  0  0  0
   26.8450  -18.8925   -6.5011 C   0  0  0  0  0  0  0  0  0  0  0  0
   27.7502  -20.1572   -7.3885 S   0  0  0  0  0  0  0  0  0  0  0  0
   26.7584  -21.0258   -8.5352 C   0  0  0  0  0  0  0  0  0  0  0  0
   26.0112  -20.4454   -9.6222 C   0  0  0  0  0  0  0  0  0  0  0  0
   25.1573  -21.1265  -10.5989 C   0  0  2  0  0  0  0  0  0  0  0  0
   25.7863  -20.6779  -11.9096 N   0  0  0  0  0  0  0  0  0  0  0  0
   23.7484  -20.6564  -10.7065 C   0  0  0  0  0  0  0  0  0  0  0  0
   22.7914  -21.1725   -9.8088 O   0  0  0  0  0  0  0  0  0  0  0  0
   23.3290  -19.8449  -11.5196 O   0  0  0  0  0  0  0  0  0  0  0  0
  1  2  1  0
  3  5  1  0
  3  4  1  1
  3  2  1  0
  5  6  2  0
  7  5  1  0
  7  8  1  0
  9 10  2  0
  9  8  1  0
 11 12  1  0
 13 14  1  0
 13 12  1  0
 15 14  1  1
 15 16  1  0
 15 17  1  0
 16  9  1  0
 17 18  1  0
 19 17  2  0
M  END
$$$$
