SGM.pdb
     RDKit          3D

 19 18  0  0  1  0  0  0  0  0999 V2000
   22.2991  -13.0459  -19.8859 O   0  0  0  0  0  0  0  0  0  0  0  0
   23.3290  -12.4079  -20.6018 C   0  0  0  0  0  0  0  0  0  0  0  0
   23.9777  -11.4246  -19.6643 C   0  0  2  0  0  0  0  0  0  0  0  0
   23.7473  -11.8733  -18.3000 N   0  0  0  0  0  0  0  0  0  0  0  0
   23.3507  -10.0999  -19.8661 C   0  0  0  0  0  0  0  0  0  0  0  0
   23.4795   -9.4584  -20.9297 O   0  0  0  0  0  0  0  0  0  0  0  0
   22.5655   -9.5108  -18.8265 N   0  0  0  0  0  0  0  0  0  0  0  0
   21.9794   -8.2371  -19.0035 C   0  0  0  0  0  0  0  0  0  0  0  0
   21.1917   -7.7429  -17.8550 C   0  0  0  0  0  0  0  0  0  0  0  0
   20.6984   -6.5549  -17.8726 O   0  0  0  0  0  0  0  0  0  0  0  0
   16.7747  -11.8466  -15.5046 C   0  0  0  0  0  0  0  0  0  0  0  0
   16.4612  -10.0938  -15.6933 S   0  0  0  0  0  0  0  0  0  0  0  0
   17.7176   -9.0990  -14.9971 C   0  0  0  0  0  0  0  0  0  0  0  0
   19.1016   -9.0751  -15.3981 C   0  0  0  0  0  0  0  0  0  0  0  0
   19.9426   -7.9086  -15.6790 C   0  0  2  0  0  0  0  0  0  0  0  0
   20.9197   -8.4825  -16.6944 N   0  0  0  0  0  0  0  0  0  0  0  0
   20.8222   -7.4303  -14.5767 C   0  0  0  0  0  0  0  0  0  0  0  0
   22.2197   -7.4711  -14.7587 O   0  0  0  0  0  0  0  0  0  0  0  0
   20.4404   -6.9943  -13.4999 O   0  0  0  0  0  0  0  0  0  0  0  0
  1  2  1  0
  3  5  1  0
  3  4  1  1
  3  2  1  0
  5  6  2  0
  7  5  1  0
  7  8  1  0
  9 10  2  0
  9  8  1  0
 11 12  1  0
 13 14  1  0
 13 12  1  0
 15 14  1  1
 15 16  1  0
 15 17  1  0
 16  9  1  0
 17 18  1  0
 19 17  2  0
M  END
$$$$
