SGM.pdb
     RDKit          3D

 19 18  0  0  1  0  0  0  0  0999 V2000
   28.4116  -19.3330  -17.0372 O   0  0  0  0  0  0  0  0  0  0  0  0
   28.1703  -20.5918  -16.4563 C   0  0  0  0  0  0  0  0  0  0  0  0
   26.6936  -20.6746  -16.1746 C   0  0  2  0  0  0  0  0  0  0  0  0
   26.3443  -19.6090  -15.2485 N   0  0  0  0  0  0  0  0  0  0  0  0
   26.4068  -21.9874  -15.5554 C   0  0  0  0  0  0  0  0  0  0  0  0
   26.0406  -22.0959  -14.3665 O   0  0  0  0  0  0  0  0  0  0  0  0
   26.5446  -23.1877  -16.3198 N   0  0  0  0  0  0  0  0  0  0  0  0
   26.1333  -24.4300  -15.7861 C   0  0  0  0  0  0  0  0  0  0  0  0
   24.6709  -24.6197  -15.6909 C   0  0  0  0  0  0  0  0  0  0  0  0
   24.1857  -25.7803  -15.4214 O   0  0  0  0  0  0  0  0  0  0  0  0
   19.4296  -21.9948  -12.4206 C   0  0  0  0  0  0  0  0  0  0  0  0
   20.9446  -21.1714  -12.9039 S   0  0  0  0  0  0  0  0  0  0  0  0
   21.6950  -21.8954  -14.3059 C   0  0  0  0  0  0  0  0  0  0  0  0
   21.8491  -23.3068  -14.5526 C   0  0  0  0  0  0  0  0  0  0  0  0
   22.2441  -23.9702  -15.7980 C   0  0  2  0  0  0  0  0  0  0  0  0
   23.7192  -23.6057  -15.8757 N   0  0  0  0  0  0  0  0  0  0  0  0
   21.6798  -23.4221  -17.0623 C   0  0  0  0  0  0  0  0  0  0  0  0
   22.5466  -22.7755  -17.9670 O   0  0  0  0  0  0  0  0  0  0  0  0
   20.5063  -23.4792  -17.4015 O   0  0  0  0  0  0  0  0  0  0  0  0
  1  2  1  0
  3  5  1  0
  3  4  1  1
  3  2  1  0
  5  6  2  0
  7  5  1  0
  7  8  1  0
  9 10  2  0
  9  8  1  0
 11 12  1  0
 13 14  1  0
 13 12  1  0
 15 14  1  1
 15 16  1  0
 15 17  1  0
 16  9  1  0
 17 18  1  0
 19 17  2  0
M  END
$$$$
