SGM.pdb
     RDKit          3D

 19 18  0  0  1  0  0  0  0  0999 V2000
   23.6739  -18.6992  -15.0955 O   0  0  0  0  0  0  0  0  0  0  0  0
   24.6296  -18.7073  -14.0626 C   0  0  0  0  0  0  0  0  0  0  0  0
   25.9855  -18.7784  -14.7132 C   0  0  2  0  0  0  0  0  0  0  0  0
   25.8011  -19.0931  -16.1212 N   0  0  0  0  0  0  0  0  0  0  0  0
   26.7638  -19.8536  -14.0597 C   0  0  0  0  0  0  0  0  0  0  0  0
   26.5806  -21.0606  -14.3221 O   0  0  0  0  0  0  0  0  0  0  0  0
   27.7655  -19.5292  -13.0924 N   0  0  0  0  0  0  0  0  0  0  0  0
   28.4679  -20.5518  -12.4156 C   0  0  0  0  0  0  0  0  0  0  0  0
   27.8028  -21.0751  -11.2041 C   0  0  0  0  0  0  0  0  0  0  0  0
   28.3599  -22.0050  -10.5113 O   0  0  0  0  0  0  0  0  0  0  0  0
   27.9093  -18.2923   -6.0640 C   0  0  0  0  0  0  0  0  0  0  0  0
   27.7331  -20.0547   -5.8007 S   0  0  0  0  0  0  0  0  0  0  0  0
   26.7167  -20.8230   -6.9963 C   0  0  0  0  0  0  0  0  0  0  0  0
   26.8523  -20.7078   -8.4264 C   0  0  0  0  0  0  0  0  0  0  0  0
   25.9980  -21.2872   -9.4663 C   0  0  2  0  0  0  0  0  0  0  0  0
   26.5640  -20.6319  -10.7173 N   0  0  0  0  0  0  0  0  0  0  0  0
   24.5671  -20.8748   -9.4706 C   0  0  0  0  0  0  0  0  0  0  0  0
   23.6778  -21.5041   -8.5755 O   0  0  0  0  0  0  0  0  0  0  0  0
   24.0747  -20.0209  -10.1944 O   0  0  0  0  0  0  0  0  0  0  0  0
  1  2  1  0
  3  5  1  0
  3  4  1  6
  3  2  1  0
  5  6  2  0
  7  5  1  0
  7  8  1  0
  9 10  2  0
  9  8  1  0
 11 12  1  0
 13 14  1  0
 13 12  1  0
 15 14  1  1
 15 16  1  0
 15 17  1  0
 16  9  1  0
 17 18  1  0
 19 17  2  0
M  END
$$$$
