SGM.pdb
     RDKit          3D

 19 18  0  0  1  0  0  0  0  0999 V2000
   16.6074  -24.1775   -4.7408 O   0  0  0  0  0  0  0  0  0  0  0  0
   15.3722  -23.8491   -4.1520 C   0  0  0  0  0  0  0  0  0  0  0  0
   15.3412  -24.4988   -2.7942 C   0  0  2  0  0  0  0  0  0  0  0  0
   15.2002  -25.9348   -2.9776 N   0  0  0  0  0  0  0  0  0  0  0  0
   14.1753  -23.9744   -2.0495 C   0  0  0  0  0  0  0  0  0  0  0  0
   13.0291  -24.4500   -2.1882 O   0  0  0  0  0  0  0  0  0  0  0  0
   14.3372  -22.8884   -1.1337 N   0  0  0  0  0  0  0  0  0  0  0  0
   13.2199  -22.3438   -0.4612 C   0  0  0  0  0  0  0  0  0  0  0  0
   13.5259  -21.2432    0.4762 C   0  0  0  0  0  0  0  0  0  0  0  0
   14.7405  -20.8520    0.6396 O   0  0  0  0  0  0  0  0  0  0  0  0
   11.2389  -14.0855    1.9279 C   0  0  0  0  0  0  0  0  0  0  0  0
   11.0028  -15.7111    1.2152 S   0  0  0  0  0  0  0  0  0  0  0  0
   12.0449  -16.9221    1.9227 C   0  0  0  0  0  0  0  0  0  0  0  0
   12.1027  -18.3136    1.5524 C   0  0  0  0  0  0  0  0  0  0  0  0
   13.0208  -19.3440    2.0449 C   0  0  2  0  0  0  0  0  0  0  0  0
   12.5716  -20.5540    1.2393 N   0  0  0  0  0  0  0  0  0  0  0  0
   12.8495  -19.7799    3.4585 C   0  0  0  0  0  0  0  0  0  0  0  0
   13.6055  -19.1391    4.4615 O   0  0  0  0  0  0  0  0  0  0  0  0
   12.0973  -20.6633    3.8447 O   0  0  0  0  0  0  0  0  0  0  0  0
  1  2  1  0
  3  5  1  0
  3  4  1  6
  3  2  1  0
  5  6  2  0
  7  5  1  0
  7  8  1  0
  9 10  2  0
  9  8  1  0
 11 12  1  0
 13 14  1  0
 13 12  1  0
 15 14  1  6
 15 16  1  0
 15 17  1  0
 16  9  1  0
 17 18  1  0
 19 17  2  0
M  END
$$$$
