SGM.pdb
     RDKit          3D

 19 18  0  0  1  0  0  0  0  0999 V2000
   23.7631  -22.6979  -14.9068 O   0  0  0  0  0  0  0  0  0  0  0  0
   24.4727  -22.1443  -15.9885 C   0  0  0  0  0  0  0  0  0  0  0  0
   25.9251  -22.4862  -15.7880 C   0  0  2  0  0  0  0  0  0  0  0  0
   26.0429  -23.9313  -15.6725 N   0  0  0  0  0  0  0  0  0  0  0  0
   26.3895  -21.8466  -14.5373 C   0  0  0  0  0  0  0  0  0  0  0  0
   27.4884  -22.1278  -14.0150 O   0  0  0  0  0  0  0  0  0  0  0  0
   25.5743  -20.8705  -13.8840 N   0  0  0  0  0  0  0  0  0  0  0  0
   26.1169  -20.0388  -12.8785 C   0  0  0  0  0  0  0  0  0  0  0  0
   26.0629  -20.5916  -11.5091 C   0  0  0  0  0  0  0  0  0  0  0  0
   25.5546  -21.7549  -11.3010 O   0  0  0  0  0  0  0  0  0  0  0  0
   28.3215  -19.7019   -3.9757 C   0  0  0  0  0  0  0  0  0  0  0  0
   28.6439  -19.5628   -5.7316 S   0  0  0  0  0  0  0  0  0  0  0  0
   27.2005  -19.7226   -6.7031 C   0  0  0  0  0  0  0  0  0  0  0  0
   27.1430  -19.7310   -8.1431 C   0  0  0  0  0  0  0  0  0  0  0  0
   26.3636  -20.6160   -9.0127 C   0  0  2  0  0  0  0  0  0  0  0  0
   26.5360  -19.9357  -10.3627 N   0  0  0  0  0  0  0  0  0  0  0  0
   24.8880  -20.6298   -8.8123 C   0  0  0  0  0  0  0  0  0  0  0  0
   24.3376  -21.5462   -7.8930 O   0  0  0  0  0  0  0  0  0  0  0  0
   24.0855  -19.9046   -9.3828 O   0  0  0  0  0  0  0  0  0  0  0  0
  1  2  1  0
  3  5  1  0
  3  4  1  1
  3  2  1  0
  5  6  2  0
  7  5  1  0
  7  8  1  0
  9 10  2  0
  9  8  1  0
 11 12  1  0
 13 14  1  0
 13 12  1  0
 15 14  1  1
 15 16  1  0
 15 17  1  0
 16  9  1  0
 17 18  1  0
 19 17  2  0
M  END
$$$$
