SGM.pdb
     RDKit          3D

 19 18  0  0  1  0  0  0  0  0999 V2000
   27.2286  -23.6593  -16.7770 O   0  0  0  0  0  0  0  0  0  0  0  0
   27.9891  -22.5988  -16.2503 C   0  0  0  0  0  0  0  0  0  0  0  0
   27.1646  -21.3473  -16.3943 C   0  0  2  0  0  0  0  0  0  0  0  0
   27.6588  -20.6038  -17.5425 N   0  0  0  0  0  0  0  0  0  0  0  0
   27.3255  -20.5356  -15.1679 C   0  0  0  0  0  0  0  0  0  0  0  0
   27.9402  -19.4487  -15.1658 O   0  0  0  0  0  0  0  0  0  0  0  0
   26.7687  -20.9858  -13.9303 N   0  0  0  0  0  0  0  0  0  0  0  0
   26.7935  -20.1549  -12.7874 C   0  0  0  0  0  0  0  0  0  0  0  0
   26.2437  -20.7618  -11.5573 C   0  0  0  0  0  0  0  0  0  0  0  0
   25.5752  -21.8591  -11.6208 O   0  0  0  0  0  0  0  0  0  0  0  0
   27.6756  -18.7899   -5.0808 C   0  0  0  0  0  0  0  0  0  0  0  0
   28.6366  -19.3368   -6.4893 S   0  0  0  0  0  0  0  0  0  0  0  0
   27.7683  -20.4561   -7.5121 C   0  0  0  0  0  0  0  0  0  0  0  0
   26.4056  -20.3154   -7.9596 C   0  0  0  0  0  0  0  0  0  0  0  0
   25.7552  -20.9674   -9.0993 C   0  0  2  0  0  0  0  0  0  0  0  0
   26.3896  -20.2282  -10.2681 N   0  0  0  0  0  0  0  0  0  0  0  0
   24.2976  -20.7193   -9.2763 C   0  0  0  0  0  0  0  0  0  0  0  0
   23.3813  -21.5958   -8.6599 O   0  0  0  0  0  0  0  0  0  0  0  0
   23.8045  -19.8052   -9.9218 O   0  0  0  0  0  0  0  0  0  0  0  0
  1  2  1  0
  3  5  1  0
  3  4  1  6
  3  2  1  0
  5  6  2  0
  7  5  1  0
  7  8  1  0
  9 10  2  0
  9  8  1  0
 11 12  1  0
 13 14  1  0
 13 12  1  0
 15 14  1  1
 15 16  1  0
 15 17  1  0
 16  9  1  0
 17 18  1  0
 19 17  2  0
M  END
$$$$
