WCN.pdb
     RDKit          3D

 29 30  0  0  1  0  0  0  0  0999 V2000
    6.4057  -17.5079   23.9794 N   0  0  0  0  0  0  0  0  0  0  0  0
    7.0604  -16.2837   23.6279 C   0  0  1  0  0  0  0  0  0  0  0  0
    7.8549  -15.6365   24.7103 C   0  0  0  0  0  0  0  0  0  0  0  0
    6.9951  -14.9316   25.6851 C   0  0  0  0  0  0  0  0  0  0  0  0
    6.0932  -15.5055   26.5575 C   0  0  0  0  0  0  0  0  0  0  0  0
    5.5649  -14.4975   27.2612 N   0  0  0  0  0  0  0  0  0  0  0  0
    6.0780  -13.3152   26.8868 C   0  0  0  0  0  0  0  0  0  0  0  0
    5.8515  -12.0206   27.3044 C   0  0  0  0  0  0  0  0  0  0  0  0
    6.5363  -10.9817   26.7188 C   0  0  0  0  0  0  0  0  0  0  0  0
    7.4584  -11.2049   25.7084 C   0  0  0  0  0  0  0  0  0  0  0  0
    7.6641  -12.5097   25.3118 C   0  0  0  0  0  0  0  0  0  0  0  0
    6.9868  -13.5727   25.8874 C   0  0  0  0  0  0  0  0  0  0  0  0
    7.8366  -16.4622   22.3734 C   0  0  0  0  0  0  0  0  0  0  0  0
    8.4580  -17.5505   22.1802 O   0  0  0  0  0  0  0  0  0  0  0  0
    7.9355  -15.4901   21.3602 N   0  0  0  0  0  0  0  0  0  0  0  0
    8.9549  -15.4787   20.3389 C   0  0  1  0  0  0  0  0  0  0  0  0
    8.7950  -14.1889   19.5606 C   0  0  0  0  0  0  0  0  0  0  0  0
    7.1105  -14.1817   18.8860 S   0  0  0  0  0  0  0  0  0  0  0  0
   10.3197  -15.6177   20.9030 C   0  0  0  0  0  0  0  0  0  0  0  0
   10.5147  -15.2819   22.1006 O   0  0  0  0  0  0  0  0  0  0  0  0
   11.5751  -16.7216   23.4593 N   0  0  0  0  0  0  0  0  0  0  0  0
   11.9065  -17.9937   22.9228 C   0  0  0  0  0  0  0  0  0  0  0  0
   12.1459  -18.9152   23.7443 O   0  0  0  0  0  0  0  0  0  0  0  0
   11.9456  -18.1405   21.4673 C   0  0  0  0  0  0  0  0  0  0  0  0
   12.4680  -16.9410   20.7397 C   0  0  2  0  0  0  0  0  0  0  0  0
   11.4325  -16.1063   20.1837 N   0  0  0  0  0  0  0  0  0  0  0  0
   13.5070  -17.2818   19.7337 C   0  0  0  0  0  0  0  0  0  0  0  0
   13.1099  -17.4531   18.3943 O   0  0  0  0  0  0  0  0  0  0  0  0
   14.7056  -17.4286   19.9817 O   0  0  0  0  0  0  0  0  0  0  0  0
  2  1  1  1
  2 13  1  0
  3  2  1  0
  3  4  1  0
  4  5  2  0
  4 12  1  0
  5  6  1  0
  6  7  1  0
  7  8  2  0
  8  9  1  0
 10  9  2  0
 11 10  1  0
 12 11  2  0
 12  7  1  0
 13 14  2  0
 15 16  1  0
 15 13  1  0
 16 17  1  1
 17 18  1  0
 19 16  1  0
 19 26  1  0
 20 19  2  0
 22 21  1  0
 23 22  2  0
 24 22  1  0
 25 26  1  0
 25 24  1  6
 27 25  1  0
 28 27  1  0
 29 27  2  0
M  END
$$$$
