WCN.pdb
     RDKit          3D

 29 30  0  0  1  0  0  0  0  0999 V2000
    6.4649  -17.7076   23.8510 N   0  0  0  0  0  0  0  0  0  0  0  0
    7.1578  -16.5032   23.5047 C   0  0  1  0  0  0  0  0  0  0  0  0
    7.9934  -15.9005   24.5820 C   0  0  0  0  0  0  0  0  0  0  0  0
    7.1827  -15.1273   25.5470 C   0  0  0  0  0  0  0  0  0  0  0  0
    6.2559  -15.6302   26.4369 C   0  0  0  0  0  0  0  0  0  0  0  0
    5.7915  -14.5791   27.1224 N   0  0  0  0  0  0  0  0  0  0  0  0
    6.3688  -13.4363   26.7200 C   0  0  0  0  0  0  0  0  0  0  0  0
    6.2200  -12.1224   27.1114 C   0  0  0  0  0  0  0  0  0  0  0  0
    6.9589  -11.1369   26.4997 C   0  0  0  0  0  0  0  0  0  0  0  0
    7.8590  -11.4336   25.4885 C   0  0  0  0  0  0  0  0  0  0  0  0
    7.9866  -12.7561   25.1184 C   0  0  0  0  0  0  0  0  0  0  0  0
    7.2538  -13.7662   25.7206 C   0  0  0  0  0  0  0  0  0  0  0  0
    7.9060  -16.6922   22.2349 C   0  0  0  0  0  0  0  0  0  0  0  0
    8.3483  -17.8442   21.9432 O   0  0  0  0  0  0  0  0  0  0  0  0
    8.1662  -15.6632   21.3103 N   0  0  0  0  0  0  0  0  0  0  0  0
    8.8834  -15.8436   20.0712 C   0  0  1  0  0  0  0  0  0  0  0  0
    8.2696  -14.9005   19.0568 C   0  0  0  0  0  0  0  0  0  0  0  0
    8.2498  -13.2502   19.8107 S   0  0  0  0  0  0  0  0  0  0  0  0
   10.3411  -15.6161   20.2252 C   0  0  0  0  0  0  0  0  0  0  0  0
   11.0634  -15.6121   19.1940 O   0  0  0  0  0  0  0  0  0  0  0  0
   12.2152  -16.3088   24.7740 N   0  0  0  0  0  0  0  0  0  0  0  0
   11.5557  -17.4243   24.1936 C   0  0  0  0  0  0  0  0  0  0  0  0
   11.1374  -18.3126   24.9792 O   0  0  0  0  0  0  0  0  0  0  0  0
   11.4113  -17.4605   22.7377 C   0  0  0  0  0  0  0  0  0  0  0  0
   11.9849  -16.2721   22.0308 C   0  0  2  0  0  0  0  0  0  0  0  0
   10.9870  -15.4007   21.4625 N   0  0  0  0  0  0  0  0  0  0  0  0
   13.0320  -16.6371   21.0418 C   0  0  0  0  0  0  0  0  0  0  0  0
   12.7345  -17.6292   20.0887 O   0  0  0  0  0  0  0  0  0  0  0  0
   14.1560  -16.1337   20.9886 O   0  0  0  0  0  0  0  0  0  0  0  0
  2  1  1  1
  2 13  1  0
  3  2  1  0
  3  4  1  0
  4  5  2  0
  4 12  1  0
  5  6  1  0
  6  7  1  0
  7  8  2  0
  8  9  1  0
 10  9  2  0
 11 10  1  0
 12 11  2  0
 12  7  1  0
 13 14  2  0
 15 16  1  0
 15 13  1  0
 16 17  1  6
 17 18  1  0
 19 16  1  0
 19 26  1  0
 20 19  2  0
 22 21  1  0
 23 22  2  0
 24 22  1  0
 25 26  1  0
 25 24  1  6
 27 25  1  0
 28 27  1  0
 29 27  2  0
M  END
$$$$
