WCN.pdb
     RDKit          3D

 29 30  0  0  1  0  0  0  0  0999 V2000
    5.5459  -17.0523   24.3073 N   0  0  0  0  0  0  0  0  0  0  0  0
    6.4653  -16.3230   23.4866 C   0  0  1  0  0  0  0  0  0  0  0  0
    7.6860  -15.8121   24.1727 C   0  0  0  0  0  0  0  0  0  0  0  0
    7.3682  -15.1650   25.4636 C   0  0  0  0  0  0  0  0  0  0  0  0
    6.9786  -15.7933   26.6287 C   0  0  0  0  0  0  0  0  0  0  0  0
    6.8259  -14.8248   27.5393 N   0  0  0  0  0  0  0  0  0  0  0  0
    7.0952  -13.6165   27.0210 C   0  0  0  0  0  0  0  0  0  0  0  0
    7.0745  -12.3435   27.5508 C   0  0  0  0  0  0  0  0  0  0  0  0
    7.3996  -11.2664   26.7600 C   0  0  0  0  0  0  0  0  0  0  0  0
    7.7512  -11.4293   25.4293 C   0  0  0  0  0  0  0  0  0  0  0  0
    7.7633  -12.7138   24.9273 C   0  0  0  0  0  0  0  0  0  0  0  0
    7.4405  -13.8143   25.7048 C   0  0  0  0  0  0  0  0  0  0  0  0
    6.7784  -17.0981   22.2582 C   0  0  0  0  0  0  0  0  0  0  0  0
    5.9090  -17.8943   21.7909 O   0  0  0  0  0  0  0  0  0  0  0  0
    7.9967  -17.0122   21.5585 N   0  0  0  0  0  0  0  0  0  0  0  0
    8.3385  -15.9484   20.6454 C   0  0  1  0  0  0  0  0  0  0  0  0
    7.3462  -14.8265   20.8730 C   0  0  0  0  0  0  0  0  0  0  0  0
    7.6543  -13.5779   19.5930 S   0  0  0  0  0  0  0  0  0  0  0  0
    9.7390  -15.4893   20.8133 C   0  0  0  0  0  0  0  0  0  0  0  0
   10.2441  -14.7555   19.9237 O   0  0  0  0  0  0  0  0  0  0  0  0
   14.7503  -16.5005   23.7590 N   0  0  0  0  0  0  0  0  0  0  0  0
   14.2100  -15.5797   22.8229 C   0  0  0  0  0  0  0  0  0  0  0  0
   15.0142  -15.0483   22.0152 O   0  0  0  0  0  0  0  0  0  0  0  0
   12.7709  -15.3172   22.8642 C   0  0  0  0  0  0  0  0  0  0  0  0
   11.9774  -16.0649   21.8383 C   0  0  2  0  0  0  0  0  0  0  0  0
   10.5588  -15.8206   21.9145 N   0  0  0  0  0  0  0  0  0  0  0  0
   12.2904  -17.5172   21.8106 C   0  0  0  0  0  0  0  0  0  0  0  0
   13.1406  -17.9986   20.7975 O   0  0  0  0  0  0  0  0  0  0  0  0
   11.8588  -18.3456   22.6151 O   0  0  0  0  0  0  0  0  0  0  0  0
  2  1  1  1
  2 13  1  0
  3  2  1  0
  3  4  1  0
  4  5  2  0
  4 12  1  0
  5  6  1  0
  6  7  1  0
  7  8  2  0
  8  9  1  0
 10  9  2  0
 11 10  1  0
 12 11  2  0
 12  7  1  0
 13 14  2  0
 15 16  1  0
 15 13  1  0
 16 17  1  1
 17 18  1  0
 19 16  1  0
 19 26  1  0
 20 19  2  0
 22 21  1  0
 23 22  2  0
 24 22  1  0
 25 26  1  0
 25 24  1  1
 27 25  1  0
 28 27  1  0
 29 27  2  0
M  END
$$$$
