WCN.pdb
     RDKit          3D

 29 30  0  0  1  0  0  0  0  0999 V2000
    6.2955  -17.6258   24.6370 N   0  0  0  0  0  0  0  0  0  0  0  0
    6.9853  -16.4539   24.1882 C   0  0  1  0  0  0  0  0  0  0  0  0
    7.7761  -15.7281   25.2225 C   0  0  0  0  0  0  0  0  0  0  0  0
    6.9456  -14.7753   25.9898 C   0  0  0  0  0  0  0  0  0  0  0  0
    5.8674  -15.0814   26.7946 C   0  0  0  0  0  0  0  0  0  0  0  0
    5.4433  -13.9193   27.3044 N   0  0  0  0  0  0  0  0  0  0  0  0
    6.1888  -12.8912   26.8703 C   0  0  0  0  0  0  0  0  0  0  0  0
    6.1409  -11.5333   27.1058 C   0  0  0  0  0  0  0  0  0  0  0  0
    7.0537  -10.7002   26.5023 C   0  0  0  0  0  0  0  0  0  0  0  0
    8.0312  -11.1959   25.6540 C   0  0  0  0  0  0  0  0  0  0  0  0
    8.0546  -12.5577   25.4376 C   0  0  0  0  0  0  0  0  0  0  0  0
    7.1462  -13.4169   26.0349 C   0  0  0  0  0  0  0  0  0  0  0  0
    7.7788  -16.7637   22.9707 C   0  0  0  0  0  0  0  0  0  0  0  0
    8.3687  -17.8829   22.8852 O   0  0  0  0  0  0  0  0  0  0  0  0
    7.9277  -15.8865   21.8799 N   0  0  0  0  0  0  0  0  0  0  0  0
    8.9202  -16.0367   20.8434 C   0  0  1  0  0  0  0  0  0  0  0  0
    8.7405  -14.8812   19.8801 C   0  0  0  0  0  0  0  0  0  0  0  0
    7.0831  -15.0441   19.1596 S   0  0  0  0  0  0  0  0  0  0  0  0
   10.2992  -16.0929   21.3870 C   0  0  0  0  0  0  0  0  0  0  0  0
   10.6697  -15.1939   22.1866 O   0  0  0  0  0  0  0  0  0  0  0  0
   13.7436  -19.2750   24.6192 N   0  0  0  0  0  0  0  0  0  0  0  0
   13.6919  -18.9532   23.2372 C   0  0  0  0  0  0  0  0  0  0  0  0
   14.7686  -19.0306   22.5922 O   0  0  0  0  0  0  0  0  0  0  0  0
   12.4029  -18.5585   22.6678 C   0  0  0  0  0  0  0  0  0  0  0  0
   12.4590  -17.3415   21.7979 C   0  0  2  0  0  0  0  0  0  0  0  0
   11.2404  -17.0964   21.0679 N   0  0  0  0  0  0  0  0  0  0  0  0
   13.6516  -17.3184   20.9118 C   0  0  0  0  0  0  0  0  0  0  0  0
   14.8323  -16.7240   21.3953 O   0  0  0  0  0  0  0  0  0  0  0  0
   13.6901  -17.7845   19.7712 O   0  0  0  0  0  0  0  0  0  0  0  0
  2  1  1  1
  2 13  1  0
  3  2  1  0
  3  4  1  0
  4  5  2  0
  4 12  1  0
  5  6  1  0
  6  7  1  0
  7  8  2  0
  8  9  1  0
 10  9  2  0
 11 10  1  0
 12 11  2  0
 12  7  1  0
 13 14  2  0
 15 16  1  0
 15 13  1  0
 16 17  1  6
 17 18  1  0
 19 16  1  0
 19 26  1  0
 20 19  2  0
 22 21  1  0
 23 22  2  0
 24 22  1  0
 25 26  1  0
 25 24  1  6
 27 25  1  0
 28 27  1  0
 29 27  2  0
M  END
$$$$
