WCN.pdb
     RDKit          3D

 29 30  0  0  1  0  0  0  0  0999 V2000
    6.4374  -18.4724   24.2292 N   0  0  0  0  0  0  0  0  0  0  0  0
    6.7341  -17.0733   24.1578 C   0  0  1  0  0  0  0  0  0  0  0  0
    7.4470  -16.4984   25.3339 C   0  0  0  0  0  0  0  0  0  0  0  0
    6.7586  -15.3057   25.8723 C   0  0  0  0  0  0  0  0  0  0  0  0
    5.4143  -15.1874   26.1599 C   0  0  0  0  0  0  0  0  0  0  0  0
    5.2463  -13.9523   26.6464 N   0  0  0  0  0  0  0  0  0  0  0  0
    6.4057  -13.2775   26.6846 C   0  0  0  0  0  0  0  0  0  0  0  0
    6.7346  -12.0012   27.0904 C   0  0  0  0  0  0  0  0  0  0  0  0
    8.0376  -11.5694   27.0062 C   0  0  0  0  0  0  0  0  0  0  0  0
    9.0397  -12.3931   26.5183 C   0  0  0  0  0  0  0  0  0  0  0  0
    8.6811  -13.6640   26.1203 C   0  0  0  0  0  0  0  0  0  0  0  0
    7.3754  -14.1215   26.1966 C   0  0  0  0  0  0  0  0  0  0  0  0
    7.4045  -16.7590   22.8694 C   0  0  0  0  0  0  0  0  0  0  0  0
    8.1462  -17.6338   22.3287 O   0  0  0  0  0  0  0  0  0  0  0  0
    7.2740  -15.5337   22.1889 N   0  0  0  0  0  0  0  0  0  0  0  0
    7.8953  -15.2359   20.9211 C   0  0  1  0  0  0  0  0  0  0  0  0
    7.4878  -13.8268   20.5424 C   0  0  0  0  0  0  0  0  0  0  0  0
    8.2826  -13.4533   18.9546 S   0  0  0  0  0  0  0  0  0  0  0  0
    9.3698  -15.3911   20.9654 C   0  0  0  0  0  0  0  0  0  0  0  0
   10.0124  -15.3627   19.8831 O   0  0  0  0  0  0  0  0  0  0  0  0
   12.3076  -17.2217   25.2636 N   0  0  0  0  0  0  0  0  0  0  0  0
   11.4895  -16.2564   24.6193 C   0  0  0  0  0  0  0  0  0  0  0  0
   10.2853  -16.1982   24.9769 O   0  0  0  0  0  0  0  0  0  0  0  0
   12.0996  -15.4068   23.5957 C   0  0  0  0  0  0  0  0  0  0  0  0
   11.5555  -15.6145   22.2166 C   0  0  2  0  0  0  0  0  0  0  0  0
   10.1162  -15.5713   22.1508 N   0  0  0  0  0  0  0  0  0  0  0  0
   12.1059  -16.8252   21.5540 C   0  0  0  0  0  0  0  0  0  0  0  0
   11.2048  -17.8055   21.0977 O   0  0  0  0  0  0  0  0  0  0  0  0
   13.3052  -17.0428   21.3694 O   0  0  0  0  0  0  0  0  0  0  0  0
  2  1  1  1
  2 13  1  0
  3  2  1  0
  3  4  1  0
  4  5  2  0
  4 12  1  0
  5  6  1  0
  6  7  1  0
  7  8  2  0
  8  9  1  0
 10  9  2  0
 11 10  1  0
 12 11  2  0
 12  7  1  0
 13 14  2  0
 15 16  1  0
 15 13  1  0
 16 17  1  1
 17 18  1  0
 19 16  1  0
 19 26  1  0
 20 19  2  0
 22 21  1  0
 23 22  2  0
 24 22  1  0
 25 26  1  0
 25 24  1  1
 27 25  1  0
 28 27  1  0
 29 27  2  0
M  END
$$$$
