WCN.pdb
     RDKit          3D

 29 30  0  0  1  0  0  0  0  0999 V2000
    6.8605  -17.2295   24.9973 N   0  0  0  0  0  0  0  0  0  0  0  0
    7.1474  -15.9884   24.3430 C   0  0  1  0  0  0  0  0  0  0  0  0
    8.2156  -15.1561   24.9659 C   0  0  0  0  0  0  0  0  0  0  0  0
    7.8096  -14.6278   26.2859 C   0  0  0  0  0  0  0  0  0  0  0  0
    7.9756  -15.2446   27.5090 C   0  0  0  0  0  0  0  0  0  0  0  0
    7.4882  -14.3961   28.4215 N   0  0  0  0  0  0  0  0  0  0  0  0
    7.0211  -13.2752   27.8500 C   0  0  0  0  0  0  0  0  0  0  0  0
    6.4327  -12.1375   28.3610 C   0  0  0  0  0  0  0  0  0  0  0  0
    6.0390  -11.1291   27.5127 C   0  0  0  0  0  0  0  0  0  0  0  0
    6.2202  -11.2283   26.1423 C   0  0  0  0  0  0  0  0  0  0  0  0
    6.8114  -12.3773   25.6603 C   0  0  0  0  0  0  0  0  0  0  0  0
    7.2170  -13.4061   26.4953 C   0  0  0  0  0  0  0  0  0  0  0  0
    7.3694  -16.2163   22.8915 C   0  0  0  0  0  0  0  0  0  0  0  0
    7.8564  -17.3220   22.5064 O   0  0  0  0  0  0  0  0  0  0  0  0
    7.0723  -15.2739   21.8890 N   0  0  0  0  0  0  0  0  0  0  0  0
    7.7426  -15.2030   20.6132 C   0  0  1  0  0  0  0  0  0  0  0  0
    7.4051  -13.8576   20.0038 C   0  0  0  0  0  0  0  0  0  0  0  0
    8.1713  -13.8127   18.3597 S   0  0  0  0  0  0  0  0  0  0  0  0
    9.2075  -15.4025   20.7340 C   0  0  0  0  0  0  0  0  0  0  0  0
    9.8117  -14.8674   21.7003 O   0  0  0  0  0  0  0  0  0  0  0  0
   12.8091  -19.3165   22.0634 N   0  0  0  0  0  0  0  0  0  0  0  0
   12.6876  -17.9320   21.7724 C   0  0  0  0  0  0  0  0  0  0  0  0
   13.7390  -17.2439   21.8205 O   0  0  0  0  0  0  0  0  0  0  0  0
   11.3613  -17.4099   21.4407 C   0  0  0  0  0  0  0  0  0  0  0  0
   11.2879  -16.7030   20.1232 C   0  0  2  0  0  0  0  0  0  0  0  0
    9.9850  -16.1601   19.8306 N   0  0  0  0  0  0  0  0  0  0  0  0
   11.8149  -17.5191   18.9988 C   0  0  0  0  0  0  0  0  0  0  0  0
   12.9463  -17.0500   18.3052 O   0  0  0  0  0  0  0  0  0  0  0  0
   11.3339  -18.5889   18.6196 O   0  0  0  0  0  0  0  0  0  0  0  0
  2  1  1  1
  2 13  1  0
  3  2  1  0
  3  4  1  0
  4  5  2  0
  4 12  1  0
  5  6  1  0
  6  7  1  0
  7  8  2  0
  8  9  1  0
 10  9  2  0
 11 10  1  0
 12 11  2  0
 12  7  1  0
 13 14  2  0
 15 16  1  0
 15 13  1  0
 16 17  1  1
 17 18  1  0
 19 16  1  0
 19 26  1  0
 20 19  2  0
 22 21  1  0
 23 22  2  0
 24 22  1  0
 25 26  1  0
 25 24  1  1
 27 25  1  0
 28 27  1  0
 29 27  2  0
M  END
$$$$
