WCN.pdb
     RDKit          3D

 29 30  0  0  1  0  0  0  0  0999 V2000
    6.3671  -17.6233   23.4274 N   0  0  0  0  0  0  0  0  0  0  0  0
    7.5760  -16.8560   23.4505 C   0  0  1  0  0  0  0  0  0  0  0  0
    8.1136  -16.5292   24.8019 C   0  0  0  0  0  0  0  0  0  0  0  0
    7.2645  -15.5520   25.5163 C   0  0  0  0  0  0  0  0  0  0  0  0
    6.1073  -15.8207   26.2180 C   0  0  0  0  0  0  0  0  0  0  0  0
    5.6948  -14.6492   26.7158 N   0  0  0  0  0  0  0  0  0  0  0  0
    6.5222  -13.6504   26.3710 C   0  0  0  0  0  0  0  0  0  0  0  0
    6.5171  -12.2964   26.6324 C   0  0  0  0  0  0  0  0  0  0  0  0
    7.5166  -11.4971   26.1290 C   0  0  0  0  0  0  0  0  0  0  0  0
    8.5402  -12.0234   25.3570 C   0  0  0  0  0  0  0  0  0  0  0  0
    8.5192  -13.3805   25.1124 C   0  0  0  0  0  0  0  0  0  0  0  0
    7.5233  -14.2058   25.6094 C   0  0  0  0  0  0  0  0  0  0  0  0
    8.5923  -17.4782   22.5628 C   0  0  0  0  0  0  0  0  0  0  0  0
    8.6984  -18.7415   22.5345 O   0  0  0  0  0  0  0  0  0  0  0  0
    9.4662  -16.7523   21.7316 N   0  0  0  0  0  0  0  0  0  0  0  0
   10.7094  -17.2666   21.2101 C   0  0  1  0  0  0  0  0  0  0  0  0
   10.9987  -16.5202   19.9239 C   0  0  0  0  0  0  0  0  0  0  0  0
   10.9018  -14.7488   20.3053 S   0  0  0  0  0  0  0  0  0  0  0  0
   11.8228  -17.1434   22.1824 C   0  0  0  0  0  0  0  0  0  0  0  0
   12.7373  -16.3098   21.9501 O   0  0  0  0  0  0  0  0  0  0  0  0
   10.9938  -17.5335   26.8015 N   0  0  0  0  0  0  0  0  0  0  0  0
   11.4517  -18.5795   25.9575 C   0  0  0  0  0  0  0  0  0  0  0  0
   10.6095  -19.4495   25.6180 O   0  0  0  0  0  0  0  0  0  0  0  0
   12.8563  -18.5708   25.5470 C   0  0  0  0  0  0  0  0  0  0  0  0
   13.1040  -17.9518   24.2067 C   0  0  2  0  0  0  0  0  0  0  0  0
   11.9332  -17.9043   23.3671 N   0  0  0  0  0  0  0  0  0  0  0  0
   14.2695  -18.5455   23.5018 C   0  0  0  0  0  0  0  0  0  0  0  0
   14.0568  -19.6805   22.6970 O   0  0  0  0  0  0  0  0  0  0  0  0
   15.4238  -18.1177   23.5664 O   0  0  0  0  0  0  0  0  0  0  0  0
  2  1  1  1
  2 13  1  0
  3  2  1  0
  3  4  1  0
  4  5  2  0
  4 12  1  0
  5  6  1  0
  6  7  1  0
  7  8  2  0
  8  9  1  0
 10  9  2  0
 11 10  1  0
 12 11  2  0
 12  7  1  0
 13 14  2  0
 15 16  1  0
 15 13  1  0
 16 17  1  6
 17 18  1  0
 19 16  1  0
 19 26  1  0
 20 19  2  0
 22 21  1  0
 23 22  2  0
 24 22  1  0
 25 26  1  0
 25 24  1  1
 27 25  1  0
 28 27  1  0
 29 27  2  0
M  END
$$$$
