WCN.pdb
     RDKit          3D

 29 30  0  0  1  0  0  0  0  0999 V2000
    7.0824  -16.8940   25.6284 N   0  0  0  0  0  0  0  0  0  0  0  0
    7.3385  -15.9059   24.6241 C   0  0  1  0  0  0  0  0  0  0  0  0
    8.3663  -14.8818   24.9660 C   0  0  0  0  0  0  0  0  0  0  0  0
    8.0033  -14.1125   26.1754 C   0  0  0  0  0  0  0  0  0  0  0  0
    6.7747  -13.5527   26.4604 C   0  0  0  0  0  0  0  0  0  0  0  0
    6.8982  -12.9797   27.6633 N   0  0  0  0  0  0  0  0  0  0  0  0
    8.1343  -13.1421   28.1601 C   0  0  0  0  0  0  0  0  0  0  0  0
    8.7330  -12.7376   29.3347 C   0  0  0  0  0  0  0  0  0  0  0  0
   10.0502  -13.0507   29.5760 C   0  0  0  0  0  0  0  0  0  0  0  0
   10.7998  -13.7701   28.6586 C   0  0  0  0  0  0  0  0  0  0  0  0
   10.1743  -14.1612   27.4933 C   0  0  0  0  0  0  0  0  0  0  0  0
    8.8483  -13.8583   27.2285 C   0  0  0  0  0  0  0  0  0  0  0  0
    7.5945  -16.5624   23.3159 C   0  0  0  0  0  0  0  0  0  0  0  0
    7.7872  -17.8152   23.2799 O   0  0  0  0  0  0  0  0  0  0  0  0
    7.6397  -15.8810   22.0851 N   0  0  0  0  0  0  0  0  0  0  0  0
    8.2439  -16.4065   20.8847 C   0  0  1  0  0  0  0  0  0  0  0  0
    7.6797  -15.6214   19.7183 C   0  0  0  0  0  0  0  0  0  0  0  0
    6.8109  -14.1884   20.4141 S   0  0  0  0  0  0  0  0  0  0  0  0
    9.7254  -16.3460   20.9260 C   0  0  0  0  0  0  0  0  0  0  0  0
   10.2750  -15.5829   21.7629 O   0  0  0  0  0  0  0  0  0  0  0  0
   14.4320  -16.8917   22.8237 N   0  0  0  0  0  0  0  0  0  0  0  0
   14.0004  -16.4776   21.5359 C   0  0  0  0  0  0  0  0  0  0  0  0
   14.8921  -16.2740   20.6729 O   0  0  0  0  0  0  0  0  0  0  0  0
   12.5637  -16.3187   21.3071 C   0  0  0  0  0  0  0  0  0  0  0  0
   11.9982  -17.2394   20.2710 C   0  0  2  0  0  0  0  0  0  0  0  0
   10.5766  -17.0932   20.0823 N   0  0  0  0  0  0  0  0  0  0  0  0
   12.3875  -18.6576   20.4830 C   0  0  0  0  0  0  0  0  0  0  0  0
   11.3688  -19.6071   20.6875 O   0  0  0  0  0  0  0  0  0  0  0  0
   13.5474  -19.0749   20.4944 O   0  0  0  0  0  0  0  0  0  0  0  0
  2  1  1  1
  2 13  1  0
  3  2  1  0
  3  4  1  0
  4  5  2  0
  4 12  1  0
  5  6  1  0
  6  7  1  0
  7  8  2  0
  8  9  1  0
 10  9  2  0
 11 10  1  0
 12 11  2  0
 12  7  1  0
 13 14  2  0
 15 16  1  0
 15 13  1  0
 16 17  1  6
 17 18  1  0
 19 16  1  0
 19 26  1  0
 20 19  2  0
 22 21  1  0
 23 22  2  0
 24 22  1  0
 25 26  1  0
 25 24  1  1
 27 25  1  0
 28 27  1  0
 29 27  2  0
M  END
$$$$
