WCN.pdb
     RDKit          3D

 29 30  0  0  1  0  0  0  0  0999 V2000
    7.3862  -16.0113   22.6274 N   0  0  0  0  0  0  0  0  0  0  0  0
    8.3507  -15.6348   23.6167 C   0  0  1  0  0  0  0  0  0  0  0  0
    7.9307  -15.8128   25.0358 C   0  0  0  0  0  0  0  0  0  0  0  0
    6.9264  -14.8091   25.4482 C   0  0  0  0  0  0  0  0  0  0  0  0
    5.5993  -15.0424   25.7457 C   0  0  0  0  0  0  0  0  0  0  0  0
    5.0829  -13.8575   26.0919 N   0  0  0  0  0  0  0  0  0  0  0  0
    6.0043  -12.8836   26.0314 C   0  0  0  0  0  0  0  0  0  0  0  0
    5.9541  -11.5287   26.2834 C   0  0  0  0  0  0  0  0  0  0  0  0
    7.0834  -10.7598   26.1262 C   0  0  0  0  0  0  0  0  0  0  0  0
    8.2840  -11.3179   25.7163 C   0  0  0  0  0  0  0  0  0  0  0  0
    8.3040  -12.6751   25.4720 C   0  0  0  0  0  0  0  0  0  0  0  0
    7.1794  -13.4702   25.6242 C   0  0  0  0  0  0  0  0  0  0  0  0
    9.6603  -16.2714   23.3208 C   0  0  0  0  0  0  0  0  0  0  0  0
    9.8722  -16.7402   22.1618 O   0  0  0  0  0  0  0  0  0  0  0  0
   10.7074  -16.3954   24.2532 N   0  0  0  0  0  0  0  0  0  0  0  0
   11.9488  -17.0851   23.9972 C   0  0  1  0  0  0  0  0  0  0  0  0
   13.0046  -16.0284   23.7447 C   0  0  0  0  0  0  0  0  0  0  0  0
   14.5615  -16.9015   23.4185 S   0  0  0  0  0  0  0  0  0  0  0  0
   12.3296  -17.9917   25.1077 C   0  0  0  0  0  0  0  0  0  0  0  0
   12.3519  -17.5335   26.2801 O   0  0  0  0  0  0  0  0  0  0  0  0
   12.5632  -22.3961   23.3079 N   0  0  0  0  0  0  0  0  0  0  0  0
   13.5319  -21.8861   24.2122 C   0  0  0  0  0  0  0  0  0  0  0  0
   14.6766  -21.6488   23.7488 O   0  0  0  0  0  0  0  0  0  0  0  0
   13.1335  -21.6752   25.6044 C   0  0  0  0  0  0  0  0  0  0  0  0
   13.0573  -20.2373   26.0136 C   0  0  2  0  0  0  0  0  0  0  0  0
   12.6739  -19.3515   24.9430 N   0  0  0  0  0  0  0  0  0  0  0  0
   14.2830  -19.7685   26.7106 C   0  0  0  0  0  0  0  0  0  0  0  0
   15.0576  -18.7652   26.0987 O   0  0  0  0  0  0  0  0  0  0  0  0
   14.6812  -20.1939   27.7969 O   0  0  0  0  0  0  0  0  0  0  0  0
  2  1  1  6
  2 13  1  0
  3  2  1  0
  3  4  1  0
  4  5  2  0
  4 12  1  0
  5  6  1  0
  6  7  1  0
  7  8  2  0
  8  9  1  0
 10  9  2  0
 11 10  1  0
 12 11  2  0
 12  7  1  0
 13 14  2  0
 15 16  1  0
 15 13  1  0
 16 17  1  1
 17 18  1  0
 19 16  1  0
 19 26  1  0
 20 19  2  0
 22 21  1  0
 23 22  2  0
 24 22  1  0
 25 26  1  0
 25 24  1  6
 27 25  1  0
 28 27  1  0
 29 27  2  0
M  END
$$$$
