WCN.pdb
     RDKit          3D

 29 30  0  0  1  0  0  0  0  0999 V2000
    6.5046  -17.1609   25.1910 N   0  0  0  0  0  0  0  0  0  0  0  0
    7.3824  -16.1505   24.6816 C   0  0  1  0  0  0  0  0  0  0  0  0
    8.4110  -15.6422   25.6332 C   0  0  0  0  0  0  0  0  0  0  0  0
    7.8109  -14.8560   26.7323 C   0  0  0  0  0  0  0  0  0  0  0  0
    7.5523  -15.2935   28.0151 C   0  0  0  0  0  0  0  0  0  0  0  0
    7.0361  -14.2455   28.6675 N   0  0  0  0  0  0  0  0  0  0  0  0
    6.9507  -13.1665   27.8740 C   0  0  0  0  0  0  0  0  0  0  0  0
    6.4925  -11.8828   28.0834 C   0  0  0  0  0  0  0  0  0  0  0  0
    6.5215  -10.9684   27.0565 C   0  0  0  0  0  0  0  0  0  0  0  0
    7.0046  -11.3079   25.8027 C   0  0  0  0  0  0  0  0  0  0  0  0
    7.4563  -12.5985   25.6230 C   0  0  0  0  0  0  0  0  0  0  0  0
    7.4378  -13.5368   26.6425 C   0  0  0  0  0  0  0  0  0  0  0  0
    7.9639  -16.5860   23.3854 C   0  0  0  0  0  0  0  0  0  0  0  0
    8.9099  -17.4305   23.3846 O   0  0  0  0  0  0  0  0  0  0  0  0
    7.5324  -16.1199   22.1292 N   0  0  0  0  0  0  0  0  0  0  0  0
    8.4034  -15.8939   21.0012 C   0  0  1  0  0  0  0  0  0  0  0  0
    7.8201  -14.7422   20.2084 C   0  0  0  0  0  0  0  0  0  0  0  0
    6.1323  -15.2192   19.7433 S   0  0  0  0  0  0  0  0  0  0  0  0
    9.8030  -15.6272   21.4138 C   0  0  0  0  0  0  0  0  0  0  0  0
   10.0078  -14.8720   22.4001 O   0  0  0  0  0  0  0  0  0  0  0  0
   13.3180  -19.6836   22.4638 N   0  0  0  0  0  0  0  0  0  0  0  0
   12.8207  -18.4955   23.0614 C   0  0  0  0  0  0  0  0  0  0  0  0
   13.3971  -18.0970   24.1056 O   0  0  0  0  0  0  0  0  0  0  0  0
   11.6848  -17.8262   22.4263 C   0  0  0  0  0  0  0  0  0  0  0  0
   12.0653  -16.7556   21.4516 C   0  0  2  0  0  0  0  0  0  0  0  0
   10.9390  -16.1668   20.7713 N   0  0  0  0  0  0  0  0  0  0  0  0
   13.1240  -17.1871   20.5026 C   0  0  0  0  0  0  0  0  0  0  0  0
   14.2724  -16.3838   20.3718 O   0  0  0  0  0  0  0  0  0  0  0  0
   13.0764  -18.2064   19.8109 O   0  0  0  0  0  0  0  0  0  0  0  0
  2  1  1  1
  2 13  1  0
  3  2  1  0
  3  4  1  0
  4  5  2  0
  4 12  1  0
  5  6  1  0
  6  7  1  0
  7  8  2  0
  8  9  1  0
 10  9  2  0
 11 10  1  0
 12 11  2  0
 12  7  1  0
 13 14  2  0
 15 16  1  0
 15 13  1  0
 16 17  1  1
 17 18  1  0
 19 16  1  0
 19 26  1  0
 20 19  2  0
 22 21  1  0
 23 22  2  0
 24 22  1  0
 25 26  1  0
 25 24  1  6
 27 25  1  0
 28 27  1  0
 29 27  2  0
M  END
$$$$
