WCN.pdb
     RDKit          3D

 29 30  0  0  1  0  0  0  0  0999 V2000
   10.0136  -14.9860   21.7504 N   0  0  0  0  0  0  0  0  0  0  0  0
    8.8645  -14.7930   22.5829 C   0  0  1  0  0  0  0  0  0  0  0  0
    7.6471  -15.5634   22.2004 C   0  0  0  0  0  0  0  0  0  0  0  0
    7.2464  -15.3101   20.7999 C   0  0  0  0  0  0  0  0  0  0  0  0
    6.5448  -16.1644   19.9741 C   0  0  0  0  0  0  0  0  0  0  0  0
    6.3867  -15.5138   18.8156 N   0  0  0  0  0  0  0  0  0  0  0  0
    6.9474  -14.2952   18.8561 C   0  0  0  0  0  0  0  0  0  0  0  0
    7.0488  -13.2787   17.9297 C   0  0  0  0  0  0  0  0  0  0  0  0
    7.7036  -12.1148   18.2579 C   0  0  0  0  0  0  0  0  0  0  0  0
    8.2708  -11.9352   19.5097 C   0  0  0  0  0  0  0  0  0  0  0  0
    8.1534  -12.9687   20.4153 C   0  0  0  0  0  0  0  0  0  0  0  0
    7.4977  -14.1501   20.1079 C   0  0  0  0  0  0  0  0  0  0  0  0
    9.2332  -14.9727   24.0111 C   0  0  0  0  0  0  0  0  0  0  0  0
   10.3788  -15.4328   24.3009 O   0  0  0  0  0  0  0  0  0  0  0  0
    8.3854  -14.6628   25.0912 N   0  0  0  0  0  0  0  0  0  0  0  0
    8.7437  -14.8226   26.4798 C   0  0  1  0  0  0  0  0  0  0  0  0
    7.6649  -14.1472   27.3015 C   0  0  0  0  0  0  0  0  0  0  0  0
    7.7212  -12.3786   26.8998 S   0  0  0  0  0  0  0  0  0  0  0  0
    8.9153  -16.2466   26.8577 C   0  0  0  0  0  0  0  0  0  0  0  0
    7.9188  -16.8789   27.2963 O   0  0  0  0  0  0  0  0  0  0  0  0
   10.8388  -19.0354   24.2776 N   0  0  0  0  0  0  0  0  0  0  0  0
   11.7166  -18.6033   25.3067 C   0  0  0  0  0  0  0  0  0  0  0  0
   12.6801  -17.8709   24.9653 O   0  0  0  0  0  0  0  0  0  0  0  0
   11.4405  -19.0366   26.6769 C   0  0  0  0  0  0  0  0  0  0  0  0
   10.3938  -18.2299   27.3804 C   0  0  2  0  0  0  0  0  0  0  0  0
   10.1331  -16.9551   26.7600 N   0  0  0  0  0  0  0  0  0  0  0  0
   10.6491  -18.0965   28.8381 C   0  0  0  0  0  0  0  0  0  0  0  0
   10.8299  -16.8059   29.3697 O   0  0  0  0  0  0  0  0  0  0  0  0
   10.7161  -19.0389   29.6300 O   0  0  0  0  0  0  0  0  0  0  0  0
  2  1  1  6
  2 13  1  0
  3  2  1  0
  3  4  1  0
  4  5  2  0
  4 12  1  0
  5  6  1  0
  6  7  1  0
  7  8  2  0
  8  9  1  0
 10  9  2  0
 11 10  1  0
 12 11  2  0
 12  7  1  0
 13 14  2  0
 15 16  1  0
 15 13  1  0
 16 17  1  1
 17 18  1  0
 19 16  1  0
 19 26  1  0
 20 19  2  0
 22 21  1  0
 23 22  2  0
 24 22  1  0
 25 26  1  0
 25 24  1  6
 27 25  1  0
 28 27  1  0
 29 27  2  0
M  END
$$$$
