WCN.pdb
     RDKit          3D

 29 30  0  0  1  0  0  0  0  0999 V2000
    5.9044  -17.5258   24.5883 N   0  0  0  0  0  0  0  0  0  0  0  0
    6.6586  -16.4724   23.9781 C   0  0  1  0  0  0  0  0  0  0  0  0
    7.6285  -15.7686   24.8647 C   0  0  0  0  0  0  0  0  0  0  0  0
    6.9552  -14.8422   25.7999 C   0  0  0  0  0  0  0  0  0  0  0  0
    5.9385  -15.1513   26.6801 C   0  0  0  0  0  0  0  0  0  0  0  0
    5.6604  -14.0198   27.3379 N   0  0  0  0  0  0  0  0  0  0  0  0
    6.4409  -13.0083   26.9270 C   0  0  0  0  0  0  0  0  0  0  0  0
    6.5254  -11.6813   27.2925 C   0  0  0  0  0  0  0  0  0  0  0  0
    7.4399  -10.8579   26.6784 C   0  0  0  0  0  0  0  0  0  0  0  0
    8.2879  -11.3328   25.6904 C   0  0  0  0  0  0  0  0  0  0  0  0
    8.1807  -12.6640   25.3460 C   0  0  0  0  0  0  0  0  0  0  0  0
    7.2679  -13.5129   25.9511 C   0  0  0  0  0  0  0  0  0  0  0  0
    7.2782  -16.9535   22.7160 C   0  0  0  0  0  0  0  0  0  0  0  0
    8.0388  -17.9676   22.7478 O   0  0  0  0  0  0  0  0  0  0  0  0
    7.0786  -16.3530   21.4587 N   0  0  0  0  0  0  0  0  0  0  0  0
    8.1394  -15.8596   20.6140 C   0  0  1  0  0  0  0  0  0  0  0  0
    7.8683  -14.3898   20.3665 C   0  0  0  0  0  0  0  0  0  0  0  0
    9.1914  -13.7811   19.2843 S   0  0  0  0  0  0  0  0  0  0  0  0
    9.4812  -16.0814   21.2062 C   0  0  0  0  0  0  0  0  0  0  0  0
    9.7789  -15.4767   22.2696 O   0  0  0  0  0  0  0  0  0  0  0  0
   11.7208  -20.1254   22.2419 N   0  0  0  0  0  0  0  0  0  0  0  0
   11.6987  -19.5392   20.9488 C   0  0  0  0  0  0  0  0  0  0  0  0
   10.9946  -20.1081   20.0759 O   0  0  0  0  0  0  0  0  0  0  0  0
   12.4887  -18.3275   20.7263 C   0  0  0  0  0  0  0  0  0  0  0  0
   11.8110  -17.0622   21.1512 C   0  0  2  0  0  0  0  0  0  0  0  0
   10.4633  -16.9341   20.6558 N   0  0  0  0  0  0  0  0  0  0  0  0
   12.6230  -15.8494   20.8725 C   0  0  0  0  0  0  0  0  0  0  0  0
   13.9109  -15.7637   21.4338 O   0  0  0  0  0  0  0  0  0  0  0  0
   12.2538  -14.8991   20.1794 O   0  0  0  0  0  0  0  0  0  0  0  0
  2  1  1  1
  2 13  1  0
  3  2  1  0
  3  4  1  0
  4  5  2  0
  4 12  1  0
  5  6  1  0
  6  7  1  0
  7  8  2  0
  8  9  1  0
 10  9  2  0
 11 10  1  0
 12 11  2  0
 12  7  1  0
 13 14  2  0
 15 16  1  0
 15 13  1  0
 16 17  1  1
 17 18  1  0
 19 16  1  0
 19 26  1  0
 20 19  2  0
 22 21  1  0
 23 22  2  0
 24 22  1  0
 25 26  1  0
 25 24  1  6
 27 25  1  0
 28 27  1  0
 29 27  2  0
M  END
$$$$
