TQP.pdb
     RDKit          3D

 24 24  0  0  1  0  0  0  0  0999 V2000
   27.6576  -12.6196  -15.2059 C   0  0  0  0  0  0  0  0  0  0  0  0
   26.8272  -11.5560  -15.9081 C   0  0  1  0  0  0  0  0  0  0  0  0
   27.5469  -10.9056  -16.9003 O   0  0  0  0  0  0  0  0  0  0  0  0
   25.6055  -12.2139  -16.4771 C   0  0  2  0  0  0  0  0  0  0  0  0
   25.9099  -13.1594  -17.5053 N   0  0  0  0  0  0  0  0  0  0  0  0
   24.6115  -11.1871  -16.9301 C   0  0  0  0  0  0  0  0  0  0  0  0
   24.6436  -10.8694  -18.1520 O   0  0  0  0  0  0  0  0  0  0  0  0
   19.9915  -12.1129  -14.5839 N   0  0  0  0  0  0  0  0  0  0  0  0
   20.1885  -12.3056  -15.9657 C   0  0  0  0  0  0  0  0  0  0  0  0
   19.7539  -13.3658  -16.4742 O   0  0  0  0  0  0  0  0  0  0  0  0
   20.8748  -11.3313  -16.8424 C   0  0  0  0  0  0  0  0  0  0  0  0
   21.3243  -10.0877  -16.1919 C   0  0  0  0  0  0  0  0  0  0  0  0
   22.7222   -9.6227  -16.4971 C   0  0  2  0  0  0  0  0  0  0  0  0
   23.6886  -10.6103  -16.0234 N   0  0  0  0  0  0  0  0  0  0  0  0
   22.9434   -8.3808  -15.7145 C   0  0  0  0  0  0  0  0  0  0  0  0
   23.0488   -8.5338  -14.4449 O   0  0  0  0  0  0  0  0  0  0  0  0
   23.0441   -7.0775  -16.2698 N   0  0  0  0  0  0  0  0  0  0  0  0
   23.0098   -6.6810  -17.6353 C   0  0  0  0  0  0  0  0  0  0  0  0
   22.4287   -5.2584  -17.5499 C   0  0  0  0  0  0  0  0  0  0  0  0
   23.1874   -4.6939  -16.3597 C   0  0  0  0  0  0  0  0  0  0  0  0
   23.2624   -5.9043  -15.4392 C   0  0  1  0  0  0  0  0  0  0  0  0
   22.1842   -5.8489  -14.4160 C   0  0  0  0  0  0  0  0  0  0  0  0
   21.0321   -6.5676  -14.5754 O   0  0  0  0  0  0  0  0  0  0  0  0
   22.2925   -5.1425  -13.3733 O   0  0  0  0  0  0  0  0  0  0  0  0
  2  1  1  6
  2  4  1  0
  3  2  1  0
  4  6  1  0
  4  5  1  6
  6  7  2  0
  8  9  1  0
  9 11  1  0
 10  9  2  0
 11 12  1  0
 13 12  1  1
 13 15  1  0
 14  6  1  0
 14 13  1  0
 15 17  1  0
 15 16  2  0
 17 21  1  0
 18 17  1  0
 19 18  1  0
 19 20  1  0
 20 21  1  0
 21 22  1  1
 22 24  2  0
 22 23  1  0
M  END
$$$$
