TQP.pdb
     RDKit          3D

 24 24  0  0  1  0  0  0  0  0999 V2000
   32.9980  -31.2286  -19.2240 C   0  0  0  0  0  0  0  0  0  0  0  0
   33.2980  -32.4934  -18.4340 C   0  0  1  0  0  0  0  0  0  0  0  0
   34.6532  -32.6325  -18.1704 O   0  0  0  0  0  0  0  0  0  0  0  0
   32.5068  -32.4507  -17.1607 C   0  0  2  0  0  0  0  0  0  0  0  0
   32.7699  -33.5644  -16.3039 N   0  0  0  0  0  0  0  0  0  0  0  0
   31.0442  -32.2930  -17.4493 C   0  0  0  0  0  0  0  0  0  0  0  0
   30.3766  -33.3565  -17.5845 O   0  0  0  0  0  0  0  0  0  0  0  0
   25.6772  -31.3978  -16.0910 N   0  0  0  0  0  0  0  0  0  0  0  0
   26.7571  -31.7383  -15.2524 C   0  0  0  0  0  0  0  0  0  0  0  0
   26.5258  -32.5014  -14.2851 O   0  0  0  0  0  0  0  0  0  0  0  0
   28.1388  -31.2483  -15.4506 C   0  0  0  0  0  0  0  0  0  0  0  0
   28.3377  -30.3301  -16.5860 C   0  0  0  0  0  0  0  0  0  0  0  0
   29.0184  -30.8883  -17.8061 C   0  0  2  0  0  0  0  0  0  0  0  0
   30.4533  -31.0104  -17.5621 N   0  0  0  0  0  0  0  0  0  0  0  0
   28.8405  -29.8919  -18.8922 C   0  0  0  0  0  0  0  0  0  0  0  0
   29.4627  -28.7807  -18.7360 O   0  0  0  0  0  0  0  0  0  0  0  0
   28.0506  -30.0905  -20.0557 N   0  0  0  0  0  0  0  0  0  0  0  0
   27.3138  -31.2407  -20.4520 C   0  0  0  0  0  0  0  0  0  0  0  0
   26.1725  -30.6292  -21.2841 C   0  0  0  0  0  0  0  0  0  0  0  0
   26.9194  -29.5858  -22.0991 C   0  0  0  0  0  0  0  0  0  0  0  0
   27.9348  -29.0727  -21.0874 C   0  0  1  0  0  0  0  0  0  0  0  0
   27.4505  -27.8174  -20.4532 C   0  0  0  0  0  0  0  0  0  0  0  0
   27.5622  -26.6188  -21.1015 O   0  0  0  0  0  0  0  0  0  0  0  0
   26.9243  -27.8130  -19.3038 O   0  0  0  0  0  0  0  0  0  0  0  0
  2  1  1  1
  2  4  1  0
  3  2  1  0
  4  6  1  0
  4  5  1  6
  6  7  2  0
  8  9  1  0
  9 11  1  0
 10  9  2  0
 11 12  1  0
 13 12  1  1
 13 15  1  0
 14  6  1  0
 14 13  1  0
 15 17  1  0
 15 16  2  0
 17 21  1  0
 18 17  1  0
 19 18  1  0
 19 20  1  0
 20 21  1  0
 21 22  1  1
 22 24  2  0
 22 23  1  0
M  END
$$$$
