TQP.pdb
     RDKit          3D

 24 24  0  0  1  0  0  0  0  0999 V2000
   26.5142  -18.6072  -14.4390 C   0  0  0  0  0  0  0  0  0  0  0  0
   27.2577  -19.8488  -13.9704 C   0  0  1  0  0  0  0  0  0  0  0  0
   28.6225  -19.6257  -13.8568 O   0  0  0  0  0  0  0  0  0  0  0  0
   26.6745  -20.2776  -12.6569 C   0  0  2  0  0  0  0  0  0  0  0  0
   27.5153  -21.1887  -11.9451 N   0  0  0  0  0  0  0  0  0  0  0  0
   25.2875  -20.8157  -12.8419 C   0  0  0  0  0  0  0  0  0  0  0  0
   25.1911  -22.0364  -13.1512 O   0  0  0  0  0  0  0  0  0  0  0  0
   20.1706  -18.9603   -9.6359 N   0  0  0  0  0  0  0  0  0  0  0  0
   21.1222  -19.9623   -9.3602 C   0  0  0  0  0  0  0  0  0  0  0  0
   21.2159  -20.3675   -8.1776 O   0  0  0  0  0  0  0  0  0  0  0  0
   22.0095  -20.5578  -10.3832 C   0  0  0  0  0  0  0  0  0  0  0  0
   21.9143  -19.9751  -11.7335 C   0  0  0  0  0  0  0  0  0  0  0  0
   22.8109  -20.5548  -12.7935 C   0  0  2  0  0  0  0  0  0  0  0  0
   24.1512  -19.9863  -12.6754 N   0  0  0  0  0  0  0  0  0  0  0  0
   22.2639  -20.1219  -14.1040 C   0  0  0  0  0  0  0  0  0  0  0  0
   22.1306  -18.8554  -14.2610 O   0  0  0  0  0  0  0  0  0  0  0  0
   21.8941  -20.9975  -15.1593 N   0  0  0  0  0  0  0  0  0  0  0  0
   21.9910  -22.4151  -15.2220 C   0  0  0  0  0  0  0  0  0  0  0  0
   20.8344  -22.7820  -16.1689 C   0  0  0  0  0  0  0  0  0  0  0  0
   20.9768  -21.7177  -17.2449 C   0  0  0  0  0  0  0  0  0  0  0  0
   21.3765  -20.4998  -16.4235 C   0  0  1  0  0  0  0  0  0  0  0  0
   20.1894  -19.6494  -16.1401 C   0  0  0  0  0  0  0  0  0  0  0  0
   19.5665  -19.7020  -14.9241 O   0  0  0  0  0  0  0  0  0  0  0  0
   19.7179  -18.8563  -17.0041 O   0  0  0  0  0  0  0  0  0  0  0  0
  2  1  1  1
  2  4  1  0
  3  2  1  0
  4  6  1  0
  4  5  1  6
  6  7  2  0
  8  9  1  0
  9 11  1  0
 10  9  2  0
 11 12  1  0
 13 12  1  1
 13 15  1  0
 14  6  1  0
 14 13  1  0
 15 17  1  0
 15 16  2  0
 17 21  1  0
 18 17  1  0
 19 18  1  0
 19 20  1  0
 20 21  1  0
 21 22  1  1
 22 24  2  0
 22 23  1  0
M  END
$$$$
