TQP.pdb
     RDKit          3D

 24 24  0  0  1  0  0  0  0  0999 V2000
   20.5448  -16.0437  -14.7349 C   0  0  0  0  0  0  0  0  0  0  0  0
   21.4496  -17.1724  -15.2054 C   0  0  1  0  0  0  0  0  0  0  0  0
   20.7588  -18.3674  -15.3479 O   0  0  0  0  0  0  0  0  0  0  0  0
   22.0788  -16.7601  -16.5028 C   0  0  2  0  0  0  0  0  0  0  0  0
   22.9656  -17.7493  -17.0309 N   0  0  0  0  0  0  0  0  0  0  0  0
   22.7403  -15.4213  -16.3704 C   0  0  0  0  0  0  0  0  0  0  0  0
   23.8690  -15.4017  -15.8041 O   0  0  0  0  0  0  0  0  0  0  0  0
   21.7112  -14.2241  -19.9757 N   0  0  0  0  0  0  0  0  0  0  0  0
   23.0237  -13.7286  -20.1076 C   0  0  0  0  0  0  0  0  0  0  0  0
   23.7046  -14.1334  -21.0793 O   0  0  0  0  0  0  0  0  0  0  0  0
   23.6367  -12.7634  -19.1689 C   0  0  0  0  0  0  0  0  0  0  0  0
   22.7558  -12.2586  -18.1007 C   0  0  0  0  0  0  0  0  0  0  0  0
   22.8164  -12.9644  -16.7735 C   0  0  2  0  0  0  0  0  0  0  0  0
   22.1201  -14.2455  -16.8601 N   0  0  0  0  0  0  0  0  0  0  0  0
   22.0702  -12.1234  -15.8041 C   0  0  0  0  0  0  0  0  0  0  0  0
   20.7910  -12.1822  -15.8847 O   0  0  0  0  0  0  0  0  0  0  0  0
   22.6687  -11.2874  -14.8243 N   0  0  0  0  0  0  0  0  0  0  0  0
   24.0483  -11.0670  -14.5574 C   0  0  0  0  0  0  0  0  0  0  0  0
   24.0496   -9.6335  -13.9969 C   0  0  0  0  0  0  0  0  0  0  0  0
   22.8421   -9.6696  -13.0742 C   0  0  0  0  0  0  0  0  0  0  0  0
   21.8731  -10.5354  -13.8677 C   0  0  1  0  0  0  0  0  0  0  0  0
   20.9135   -9.6862  -14.6230 C   0  0  0  0  0  0  0  0  0  0  0  0
   19.8380   -9.1204  -13.9965 O   0  0  0  0  0  0  0  0  0  0  0  0
   21.0555   -9.4597  -15.8585 O   0  0  0  0  0  0  0  0  0  0  0  0
  2  1  1  6
  2  4  1  0
  3  2  1  0
  4  6  1  0
  4  5  1  1
  6  7  2  0
  8  9  1  0
  9 11  1  0
 10  9  2  0
 11 12  1  0
 13 12  1  6
 13 15  1  0
 14  6  1  0
 14 13  1  0
 15 17  1  0
 15 16  2  0
 17 21  1  0
 18 17  1  0
 19 18  1  0
 19 20  1  0
 20 21  1  0
 21 22  1  6
 22 24  2  0
 22 23  1  0
M  END
$$$$
