TQP.pdb
     RDKit          3D

 24 24  0  0  1  0  0  0  0  0999 V2000
   13.2998   -9.6901  -15.5639 C   0  0  0  0  0  0  0  0  0  0  0  0
   14.6661   -9.4969  -14.9237 C   0  0  1  0  0  0  0  0  0  0  0  0
   14.5974   -9.5098  -13.5379 O   0  0  0  0  0  0  0  0  0  0  0  0
   15.5765  -10.5784  -15.4244 C   0  0  2  0  0  0  0  0  0  0  0  0
   15.1563  -11.8869  -15.0304 N   0  0  0  0  0  0  0  0  0  0  0  0
   16.9970  -10.2999  -15.0341 C   0  0  0  0  0  0  0  0  0  0  0  0
   17.4577  -10.9647  -14.0642 O   0  0  0  0  0  0  0  0  0  0  0  0
   22.4347   -9.3157  -18.0916 N   0  0  0  0  0  0  0  0  0  0  0  0
   21.1565   -8.9803  -18.5807 C   0  0  0  0  0  0  0  0  0  0  0  0
   21.0764   -8.5498  -19.7553 O   0  0  0  0  0  0  0  0  0  0  0  0
   19.9133   -9.1084  -17.7891 C   0  0  0  0  0  0  0  0  0  0  0  0
   20.0684   -9.6737  -16.4370 C   0  0  0  0  0  0  0  0  0  0  0  0
   19.1705   -9.1279  -15.3602 C   0  0  2  0  0  0  0  0  0  0  0  0
   17.7721   -9.3373  -15.7264 N   0  0  0  0  0  0  0  0  0  0  0  0
   19.3975   -7.6616  -15.3126 C   0  0  0  0  0  0  0  0  0  0  0  0
   18.7525   -6.9696  -16.1794 O   0  0  0  0  0  0  0  0  0  0  0  0
   20.2559   -7.0017  -14.3935 N   0  0  0  0  0  0  0  0  0  0  0  0
   21.0501   -7.5576  -13.3526 C   0  0  0  0  0  0  0  0  0  0  0  0
   22.2149   -6.5560  -13.2575 C   0  0  0  0  0  0  0  0  0  0  0  0
   21.4804   -5.2290  -13.3599 C   0  0  0  0  0  0  0  0  0  0  0  0
   20.3951   -5.5546  -14.3768 C   0  0  1  0  0  0  0  0  0  0  0  0
   20.8033   -5.1087  -15.7359 C   0  0  0  0  0  0  0  0  0  0  0  0
   20.7723   -3.7846  -16.0755 O   0  0  0  0  0  0  0  0  0  0  0  0
   21.1888   -5.9289  -16.6171 O   0  0  0  0  0  0  0  0  0  0  0  0
  2  1  1  6
  2  4  1  0
  3  2  1  0
  4  6  1  0
  4  5  1  1
  6  7  2  0
  8  9  1  0
  9 11  1  0
 10  9  2  0
 11 12  1  0
 13 12  1  6
 13 15  1  0
 14  6  1  0
 14 13  1  0
 15 17  1  0
 15 16  2  0
 17 21  1  0
 18 17  1  0
 19 18  1  0
 19 20  1  0
 20 21  1  0
 21 22  1  6
 22 24  2  0
 22 23  1  0
M  END
$$$$
