TQP.pdb
     RDKit          3D

 24 24  0  0  1  0  0  0  0  0999 V2000
   21.6573  -20.9530  -16.0874 C   0  0  0  0  0  0  0  0  0  0  0  0
   20.6899  -20.5463  -14.9862 C   0  0  1  0  0  0  0  0  0  0  0  0
   19.3981  -20.9844  -15.2411 O   0  0  0  0  0  0  0  0  0  0  0  0
   21.1963  -21.1003  -13.6879 C   0  0  2  0  0  0  0  0  0  0  0  0
   20.2897  -20.8924  -12.6022 N   0  0  0  0  0  0  0  0  0  0  0  0
   22.5684  -20.5768  -13.3862 C   0  0  0  0  0  0  0  0  0  0  0  0
   22.6839  -19.3241  -13.2748 O   0  0  0  0  0  0  0  0  0  0  0  0
   24.7382  -20.3313  -10.3537 N   0  0  0  0  0  0  0  0  0  0  0  0
   26.0987  -20.6950  -10.3088 C   0  0  0  0  0  0  0  0  0  0  0  0
   26.7875  -20.2593   -9.3563 O   0  0  0  0  0  0  0  0  0  0  0  0
   26.7533  -21.5573  -11.3172 C   0  0  0  0  0  0  0  0  0  0  0  0
   25.9138  -21.9605  -12.4593 C   0  0  0  0  0  0  0  0  0  0  0  0
   25.0140  -20.9102  -13.0515 C   0  0  2  0  0  0  0  0  0  0  0  0
   23.6709  -21.4537  -13.2362 N   0  0  0  0  0  0  0  0  0  0  0  0
   25.5497  -20.5946  -14.3996 C   0  0  0  0  0  0  0  0  0  0  0  0
   25.3196  -21.4698  -15.3092 O   0  0  0  0  0  0  0  0  0  0  0  0
   26.2753  -19.4196  -14.7311 N   0  0  0  0  0  0  0  0  0  0  0  0
   26.6350  -18.3245  -13.8977 C   0  0  0  0  0  0  0  0  0  0  0  0
   27.9336  -17.8241  -14.5551 C   0  0  0  0  0  0  0  0  0  0  0  0
   27.5682  -17.8857  -16.0294 C   0  0  0  0  0  0  0  0  0  0  0  0
   26.7293  -19.1549  -16.0866 C   0  0  1  0  0  0  0  0  0  0  0  0
   27.5562  -20.3068  -16.5359 C   0  0  0  0  0  0  0  0  0  0  0  0
   27.8453  -20.4850  -17.8603 O   0  0  0  0  0  0  0  0  0  0  0  0
   28.0162  -21.1542  -15.7184 O   0  0  0  0  0  0  0  0  0  0  0  0
  2  1  1  6
  2  4  1  0
  3  2  1  0
  4  6  1  0
  4  5  1  1
  6  7  2  0
  8  9  1  0
  9 11  1  0
 10  9  2  0
 11 12  1  0
 13 12  1  6
 13 15  1  0
 14  6  1  0
 14 13  1  0
 15 17  1  0
 15 16  2  0
 17 21  1  0
 18 17  1  0
 19 18  1  0
 19 20  1  0
 20 21  1  0
 21 22  1  1
 22 24  2  0
 22 23  1  0
M  END
$$$$
