TQP.pdb
     RDKit          3D

 24 24  0  0  1  0  0  0  0  0999 V2000
   27.9234  -11.8747  -15.3424 C   0  0  0  0  0  0  0  0  0  0  0  0
   26.6784  -11.2577  -15.9615 C   0  0  1  0  0  0  0  0  0  0  0  0
   26.9704  -10.5454  -17.1160 O   0  0  0  0  0  0  0  0  0  0  0  0
   25.7000  -12.3584  -16.2449 C   0  0  2  0  0  0  0  0  0  0  0  0
   26.2004  -13.3228  -17.1740 N   0  0  0  0  0  0  0  0  0  0  0  0
   24.3772  -11.7964  -16.6715 C   0  0  0  0  0  0  0  0  0  0  0  0
   24.0743  -11.9263  -17.8906 O   0  0  0  0  0  0  0  0  0  0  0  0
   18.9995  -13.2750  -15.2202 N   0  0  0  0  0  0  0  0  0  0  0  0
   18.7152  -11.9550  -15.6229 C   0  0  0  0  0  0  0  0  0  0  0  0
   17.5223  -11.6682  -15.8802 O   0  0  0  0  0  0  0  0  0  0  0  0
   19.7407  -10.8971  -15.7570 C   0  0  0  0  0  0  0  0  0  0  0  0
   21.1190  -11.2920  -15.4164 C   0  0  0  0  0  0  0  0  0  0  0  0
   22.2300  -10.6311  -16.1859 C   0  0  2  0  0  0  0  0  0  0  0  0
   23.5200  -11.1546  -15.7440 N   0  0  0  0  0  0  0  0  0  0  0  0
   22.1977   -9.1888  -15.8355 C   0  0  0  0  0  0  0  0  0  0  0  0
   22.4325   -8.9091  -14.6055 O   0  0  0  0  0  0  0  0  0  0  0  0
   21.9335   -8.1359  -16.7512 N   0  0  0  0  0  0  0  0  0  0  0  0
   21.7024   -8.2053  -18.1529 C   0  0  0  0  0  0  0  0  0  0  0  0
   20.7970   -6.9849  -18.3975 C   0  0  0  0  0  0  0  0  0  0  0  0
   21.4788   -5.9279  -17.5439 C   0  0  0  0  0  0  0  0  0  0  0  0
   21.9168   -6.7430  -16.3348 C   0  0  1  0  0  0  0  0  0  0  0  0
   20.9364   -6.5985  -15.2256 C   0  0  0  0  0  0  0  0  0  0  0  0
   20.8839   -5.4507  -14.4846 O   0  0  0  0  0  0  0  0  0  0  0  0
   20.1253   -7.5220  -14.9304 O   0  0  0  0  0  0  0  0  0  0  0  0
  2  1  1  6
  2  4  1  0
  3  2  1  0
  4  6  1  0
  4  5  1  6
  6  7  2  0
  8  9  1  0
  9 11  1  0
 10  9  2  0
 11 12  1  0
 13 12  1  1
 13 15  1  0
 14  6  1  0
 14 13  1  0
 15 17  1  0
 15 16  2  0
 17 21  1  0
 18 17  1  0
 19 18  1  0
 19 20  1  0
 20 21  1  0
 21 22  1  1
 22 24  2  0
 22 23  1  0
M  END
$$$$
