TQP.pdb
     RDKit          3D

 24 24  0  0  1  0  0  0  0  0999 V2000
   27.8058  -16.2533  -17.0362 C   0  0  0  0  0  0  0  0  0  0  0  0
   26.8755  -17.3800  -16.6129 C   0  0  1  0  0  0  0  0  0  0  0  0
   26.0092  -17.7495  -17.6319 O   0  0  0  0  0  0  0  0  0  0  0  0
   27.7152  -18.5433  -16.1762 C   0  0  2  0  0  0  0  0  0  0  0  0
   28.4527  -19.1321  -17.2501 N   0  0  0  0  0  0  0  0  0  0  0  0
   26.8842  -19.5521  -15.4418 C   0  0  0  0  0  0  0  0  0  0  0  0
   26.5311  -20.5753  -16.0924 O   0  0  0  0  0  0  0  0  0  0  0  0
   25.8376  -19.8599   -9.0313 N   0  0  0  0  0  0  0  0  0  0  0  0
   25.1304  -20.9228   -9.6275 C   0  0  0  0  0  0  0  0  0  0  0  0
   24.5119  -21.7082   -8.8711 O   0  0  0  0  0  0  0  0  0  0  0  0
   25.0782  -21.1599  -11.0869 C   0  0  0  0  0  0  0  0  0  0  0  0
   25.7898  -20.1768  -11.9229 C   0  0  0  0  0  0  0  0  0  0  0  0
   25.6625  -20.3276  -13.4144 C   0  0  2  0  0  0  0  0  0  0  0  0
   26.5205  -19.3554  -14.0869 N   0  0  0  0  0  0  0  0  0  0  0  0
   24.2593  -19.9906  -13.7630 C   0  0  0  0  0  0  0  0  0  0  0  0
   23.8797  -18.8032  -13.4591 O   0  0  0  0  0  0  0  0  0  0  0  0
   23.3440  -20.8745  -14.3939 N   0  0  0  0  0  0  0  0  0  0  0  0
   23.5682  -22.1858  -14.8972 C   0  0  0  0  0  0  0  0  0  0  0  0
   22.1823  -22.8378  -14.7443 C   0  0  0  0  0  0  0  0  0  0  0  0
   21.2694  -21.7210  -15.2240 C   0  0  0  0  0  0  0  0  0  0  0  0
   21.9688  -20.4893  -14.6659 C   0  0  1  0  0  0  0  0  0  0  0  0
   21.3397  -20.0676  -13.3857 C   0  0  0  0  0  0  0  0  0  0  0  0
   20.2076  -19.3009  -13.3827 O   0  0  0  0  0  0  0  0  0  0  0  0
   21.8240  -20.3985  -12.2659 O   0  0  0  0  0  0  0  0  0  0  0  0
  2  1  1  6
  2  4  1  0
  3  2  1  0
  4  6  1  0
  4  5  1  6
  6  7  2  0
  8  9  1  0
  9 11  1  0
 10  9  2  0
 11 12  1  0
 13 12  1  1
 13 15  1  0
 14  6  1  0
 14 13  1  0
 15 17  1  0
 15 16  2  0
 17 21  1  0
 18 17  1  0
 19 18  1  0
 19 20  1  0
 20 21  1  0
 21 22  1  1
 22 24  2  0
 22 23  1  0
M  END
$$$$
