TQP.pdb
     RDKit          3D

 24 24  0  0  1  0  0  0  0  0999 V2000
   19.3355  -12.1692  -19.8023 C   0  0  0  0  0  0  0  0  0  0  0  0
   19.0219  -11.0884  -18.7789 C   0  0  1  0  0  0  0  0  0  0  0  0
   17.6691  -10.7819  -18.7444 O   0  0  0  0  0  0  0  0  0  0  0  0
   19.4981  -11.5597  -17.4372 C   0  0  2  0  0  0  0  0  0  0  0  0
   18.8847  -12.7842  -17.0270 N   0  0  0  0  0  0  0  0  0  0  0  0
   19.3447  -10.4791  -16.4094 C   0  0  0  0  0  0  0  0  0  0  0  0
   18.4119  -10.6247  -15.5705 O   0  0  0  0  0  0  0  0  0  0  0  0
   22.6592   -5.6420  -14.6800 N   0  0  0  0  0  0  0  0  0  0  0  0
   21.9511   -6.0058  -13.5174 C   0  0  0  0  0  0  0  0  0  0  0  0
   22.0038   -5.2282  -12.5355 O   0  0  0  0  0  0  0  0  0  0  0  0
   21.1543   -7.2462  -13.3940 C   0  0  0  0  0  0  0  0  0  0  0  0
   21.2335   -8.1763  -14.5343 C   0  0  0  0  0  0  0  0  0  0  0  0
   20.0106   -8.3006  -15.4019 C   0  0  2  0  0  0  0  0  0  0  0  0
   20.2089   -9.3568  -16.3912 N   0  0  0  0  0  0  0  0  0  0  0  0
   19.8779   -7.0221  -16.1446 C   0  0  0  0  0  0  0  0  0  0  0  0
   20.8745   -6.7031  -16.8871 O   0  0  0  0  0  0  0  0  0  0  0  0
   18.7497   -6.1613  -16.0854 N   0  0  0  0  0  0  0  0  0  0  0  0
   17.4783   -6.3914  -15.4906 C   0  0  0  0  0  0  0  0  0  0  0  0
   17.0340   -4.9692  -15.1046 C   0  0  0  0  0  0  0  0  0  0  0  0
   17.4358   -4.1819  -16.3414 C   0  0  0  0  0  0  0  0  0  0  0  0
   18.7471   -4.8548  -16.7232 C   0  0  1  0  0  0  0  0  0  0  0  0
   19.9032   -4.0778  -16.2015 C   0  0  0  0  0  0  0  0  0  0  0  0
   20.1809   -2.8293  -16.6847 O   0  0  0  0  0  0  0  0  0  0  0  0
   20.6632   -4.5388  -15.3028 O   0  0  0  0  0  0  0  0  0  0  0  0
  2  1  1  6
  2  4  1  0
  3  2  1  0
  4  6  1  0
  4  5  1  1
  6  7  2  0
  8  9  1  0
  9 11  1  0
 10  9  2  0
 11 12  1  0
 13 12  1  1
 13 15  1  0
 14  6  1  0
 14 13  1  0
 15 17  1  0
 15 16  2  0
 17 21  1  0
 18 17  1  0
 19 18  1  0
 19 20  1  0
 20 21  1  0
 21 22  1  1
 22 24  2  0
 22 23  1  0
M  END
$$$$
