TQP.pdb
     RDKit          3D

 24 24  0  0  1  0  0  0  0  0999 V2000
   23.0585  -18.4036  -17.4522 C   0  0  0  0  0  0  0  0  0  0  0  0
   24.4160  -17.9421  -17.9603 C   0  0  1  0  0  0  0  0  0  0  0  0
   24.3227  -16.7765  -18.7074 O   0  0  0  0  0  0  0  0  0  0  0  0
   25.3190  -17.7494  -16.7786 C   0  0  2  0  0  0  0  0  0  0  0  0
   26.5666  -17.1429  -17.1240 N   0  0  0  0  0  0  0  0  0  0  0  0
   25.5040  -19.0384  -16.0357 C   0  0  0  0  0  0  0  0  0  0  0  0
   26.4500  -19.7817  -16.4197 O   0  0  0  0  0  0  0  0  0  0  0  0
   24.4024  -20.0123   -9.8721 N   0  0  0  0  0  0  0  0  0  0  0  0
   24.9741  -21.1937  -10.3849 C   0  0  0  0  0  0  0  0  0  0  0  0
   25.3581  -22.0594   -9.5636 O   0  0  0  0  0  0  0  0  0  0  0  0
   25.1438  -21.4657  -11.8291 C   0  0  0  0  0  0  0  0  0  0  0  0
   24.8072  -20.3538  -12.7358 C   0  0  0  0  0  0  0  0  0  0  0  0
   24.8980  -20.6243  -14.2130 C   0  0  2  0  0  0  0  0  0  0  0  0
   24.6538  -19.3926  -14.9593 N   0  0  0  0  0  0  0  0  0  0  0  0
   23.7995  -21.5654  -14.5467 C   0  0  0  0  0  0  0  0  0  0  0  0
   22.6100  -21.1040  -14.4106 O   0  0  0  0  0  0  0  0  0  0  0  0
   23.9816  -22.9008  -14.9949 N   0  0  0  0  0  0  0  0  0  0  0  0
   25.1904  -23.6302  -15.1677 C   0  0  0  0  0  0  0  0  0  0  0  0
   24.7354  -25.0812  -14.9299 C   0  0  0  0  0  0  0  0  0  0  0  0
   23.4240  -25.1154  -15.6979 C   0  0  0  0  0  0  0  0  0  0  0  0
   22.8622  -23.7297  -15.4114 C   0  0  1  0  0  0  0  0  0  0  0  0
   21.8810  -23.7855  -14.2948 C   0  0  0  0  0  0  0  0  0  0  0  0
   20.6396  -24.3270  -14.4820 O   0  0  0  0  0  0  0  0  0  0  0  0
   22.1560  -23.3385  -13.1448 O   0  0  0  0  0  0  0  0  0  0  0  0
  2  1  1  1
  2  4  1  0
  3  2  1  0
  4  6  1  0
  4  5  1  6
  6  7  2  0
  8  9  1  0
  9 11  1  0
 10  9  2  0
 11 12  1  0
 13 12  1  1
 13 15  1  0
 14  6  1  0
 14 13  1  0
 15 17  1  0
 15 16  2  0
 17 21  1  0
 18 17  1  0
 19 18  1  0
 19 20  1  0
 20 21  1  0
 21 22  1  1
 22 24  2  0
 22 23  1  0
M  END
$$$$
