TQP.pdb
     RDKit          3D

 24 24  0  0  1  0  0  0  0  0999 V2000
   27.9805  -10.9898  -15.8096 C   0  0  0  0  0  0  0  0  0  0  0  0
   26.6496  -10.3351  -16.1473 C   0  0  1  0  0  0  0  0  0  0  0  0
   26.6111   -9.8815  -17.4581 O   0  0  0  0  0  0  0  0  0  0  0  0
   25.5581  -11.3319  -15.8938 C   0  0  2  0  0  0  0  0  0  0  0  0
   25.7201  -12.5380  -16.6439 N   0  0  0  0  0  0  0  0  0  0  0  0
   24.2108  -10.7102  -16.1080 C   0  0  0  0  0  0  0  0  0  0  0  0
   23.5181  -11.1743  -17.0565 O   0  0  0  0  0  0  0  0  0  0  0  0
   19.9177   -9.5255  -11.8793 N   0  0  0  0  0  0  0  0  0  0  0  0
   19.3767   -9.0585  -13.0936 C   0  0  0  0  0  0  0  0  0  0  0  0
   18.1575   -8.7676  -13.1148 O   0  0  0  0  0  0  0  0  0  0  0  0
   20.1638   -8.8935  -14.3353 C   0  0  0  0  0  0  0  0  0  0  0  0
   21.5780   -9.3009  -14.2579 C   0  0  0  0  0  0  0  0  0  0  0  0
   22.4173   -9.0961  -15.4896 C   0  0  2  0  0  0  0  0  0  0  0  0
   23.7501   -9.6562  -15.2811 N   0  0  0  0  0  0  0  0  0  0  0  0
   22.5785   -7.6304  -15.6619 C   0  0  0  0  0  0  0  0  0  0  0  0
   23.0993   -7.0068  -14.6689 O   0  0  0  0  0  0  0  0  0  0  0  0
   22.2049   -6.9028  -16.8230 N   0  0  0  0  0  0  0  0  0  0  0  0
   21.6280   -7.3808  -18.0320 C   0  0  0  0  0  0  0  0  0  0  0  0
   20.8201   -6.1628  -18.5145 C   0  0  0  0  0  0  0  0  0  0  0  0
   21.7967   -5.0288  -18.2482 C   0  0  0  0  0  0  0  0  0  0  0  0
   22.4347   -5.4719  -16.9388 C   0  0  1  0  0  0  0  0  0  0  0  0
   21.7797   -4.7986  -15.7855 C   0  0  0  0  0  0  0  0  0  0  0  0
   22.1023   -3.5124  -15.4521 O   0  0  0  0  0  0  0  0  0  0  0  0
   20.9109   -5.3849  -15.0788 O   0  0  0  0  0  0  0  0  0  0  0  0
  2  1  1  6
  2  4  1  0
  3  2  1  0
  4  6  1  0
  4  5  1  6
  6  7  2  0
  8  9  1  0
  9 11  1  0
 10  9  2  0
 11 12  1  0
 13 12  1  1
 13 15  1  0
 14  6  1  0
 14 13  1  0
 15 17  1  0
 15 16  2  0
 17 21  1  0
 18 17  1  0
 19 18  1  0
 19 20  1  0
 20 21  1  0
 21 22  1  1
 22 24  2  0
 22 23  1  0
M  END
$$$$
