NPD.pdb
     RDKit          3D

 24 24  0  0  1  0  0  0  0  0999 V2000
   18.5601  -12.5661  -20.2120 N   0  0  0  0  0  0  0  0  0  0  0  0
   19.6910  -12.2560  -19.4212 C   0  0  0  0  0  0  0  0  0  0  0  0
   20.7594  -12.8960  -19.5577 O   0  0  0  0  0  0  0  0  0  0  0  0
   19.6367  -11.1719  -18.4187 C   0  0  0  0  0  0  0  0  0  0  0  0
   20.1411  -11.6768  -17.0666 C   0  0  2  0  0  0  0  0  0  0  0  0
   19.1254  -12.5862  -16.5352 N   0  0  0  0  0  0  0  0  0  0  0  0
   20.2130  -10.5068  -16.1234 C   0  0  0  0  0  0  0  0  0  0  0  0
   19.2918   -9.6571  -16.2743 O   0  0  0  0  0  0  0  0  0  0  0  0
   21.2386  -10.4412  -15.1923 N   0  0  0  0  0  0  0  0  0  0  0  0
   21.7662  -11.6186  -14.4776 C   0  0  0  0  0  0  0  0  0  0  0  0
   23.2496  -11.4160  -14.7124 C   0  0  0  0  0  0  0  0  0  0  0  0
   23.4248   -9.9375  -14.9859 C   0  0  0  0  0  0  0  0  0  0  0  0
   22.0035   -9.3940  -14.6385 C   0  0  1  0  0  0  0  0  0  0  0  0
   21.8596   -8.0366  -15.0945 C   0  0  0  0  0  0  0  0  0  0  0  0
   21.9048   -7.6792  -16.2731 O   0  0  0  0  0  0  0  0  0  0  0  0
   21.6457   -7.0009  -14.1142 N   0  0  0  0  0  0  0  0  0  0  0  0
   21.5382   -5.6173  -14.5575 C   0  0  1  0  0  0  0  0  0  0  0  0
   20.1084   -5.1943  -14.5396 C   0  0  0  0  0  0  0  0  0  0  0  0
   20.0184   -3.8027  -15.0355 C   0  0  0  0  0  0  0  0  0  0  0  0
   20.5577   -3.5224  -16.1301 O   0  0  0  0  0  0  0  0  0  0  0  0
   22.3258   -4.7310  -13.6599 C   0  0  0  0  0  0  0  0  0  0  0  0
   22.9141   -3.5776  -14.1415 O   0  0  0  0  0  0  0  0  0  0  0  0
   19.3664   -2.8159  -14.3362 O   0  0  0  0  0  0  0  0  0  0  0  0
   22.4806   -5.0007  -12.4445 O   0  0  0  0  0  0  0  0  0  0  0  0
  2  3  2  0
  2  1  1  0
  4  2  1  0
  5  7  1  0
  5  4  1  0
  5  6  1  1
  7  8  2  0
  9 13  1  0
  9  7  1  0
 10  9  1  0
 11 10  1  0
 11 12  1  0
 12 13  1  0
 13 14  1  6
 14 15  2  0
 14 16  1  0
 16 17  1  0
 17 21  1  0
 17 18  1  1
 19 18  1  0
 20 19  2  0
 21 24  2  0
 21 22  1  0
 23 19  1  0
M  END
$$$$
