NPD.pdb
     RDKit          3D

 24 24  0  0  1  0  0  0  0  0999 V2000
   20.7442  -23.4446  -13.8984 N   0  0  0  0  0  0  0  0  0  0  0  0
   20.9865  -22.6681  -15.0554 C   0  0  0  0  0  0  0  0  0  0  0  0
   20.5257  -23.0185  -16.1665 O   0  0  0  0  0  0  0  0  0  0  0  0
   21.7872  -21.4286  -14.9785 C   0  0  0  0  0  0  0  0  0  0  0  0
   22.2856  -21.2092  -13.5499 C   0  0  2  0  0  0  0  0  0  0  0  0
   21.1967  -20.5815  -12.8007 N   0  0  0  0  0  0  0  0  0  0  0  0
   23.4139  -20.2148  -13.5917 C   0  0  0  0  0  0  0  0  0  0  0  0
   23.1376  -19.1361  -14.1863 O   0  0  0  0  0  0  0  0  0  0  0  0
   24.6276  -20.5327  -13.0011 N   0  0  0  0  0  0  0  0  0  0  0  0
   24.7611  -20.9714  -11.5992 C   0  0  0  0  0  0  0  0  0  0  0  0
   25.6192  -22.2045  -11.7984 C   0  0  0  0  0  0  0  0  0  0  0  0
   26.3329  -22.0005  -13.1177 C   0  0  0  0  0  0  0  0  0  0  0  0
   25.9699  -20.5155  -13.4327 C   0  0  1  0  0  0  0  0  0  0  0  0
   26.3179  -20.1907  -14.7908 C   0  0  0  0  0  0  0  0  0  0  0  0
   25.8746  -20.7616  -15.7891 O   0  0  0  0  0  0  0  0  0  0  0  0
   27.2548  -19.1194  -15.0233 N   0  0  0  0  0  0  0  0  0  0  0  0
   27.5477  -18.7193  -16.3931 C   0  0  1  0  0  0  0  0  0  0  0  0
   28.4571  -17.5376  -16.3873 C   0  0  0  0  0  0  0  0  0  0  0  0
   28.7865  -17.1846  -17.7863 C   0  0  0  0  0  0  0  0  0  0  0  0
   27.9089  -17.3431  -18.6651 O   0  0  0  0  0  0  0  0  0  0  0  0
   28.1988  -19.8389  -17.1239 C   0  0  0  0  0  0  0  0  0  0  0  0
   29.2031  -20.5812  -16.5334 O   0  0  0  0  0  0  0  0  0  0  0  0
   30.0174  -16.6923  -18.1479 O   0  0  0  0  0  0  0  0  0  0  0  0
   27.8593  -20.1432  -18.2927 O   0  0  0  0  0  0  0  0  0  0  0  0
  2  3  2  0
  2  1  1  0
  4  2  1  0
  5  7  1  0
  5  4  1  0
  5  6  1  1
  7  8  2  0
  9 13  1  0
  9  7  1  0
 10  9  1  0
 11 10  1  0
 11 12  1  0
 12 13  1  0
 13 14  1  6
 14 15  2  0
 14 16  1  0
 16 17  1  0
 17 21  1  0
 17 18  1  1
 19 18  1  0
 20 19  2  0
 21 24  2  0
 21 22  1  0
 23 19  1  0
M  END
$$$$
