NPD.pdb
     RDKit          3D

 24 24  0  0  1  0  0  0  0  0999 V2000
   19.0206  -10.0735  -14.4505 N   0  0  0  0  0  0  0  0  0  0  0  0
   18.3592   -8.8344  -14.2840 C   0  0  0  0  0  0  0  0  0  0  0  0
   17.1715   -8.7940  -13.8875 O   0  0  0  0  0  0  0  0  0  0  0  0
   19.0540   -7.5630  -14.5736 C   0  0  0  0  0  0  0  0  0  0  0  0
   20.5003   -7.8338  -14.9886 C   0  0  2  0  0  0  0  0  0  0  0  0
   21.2102   -8.3159  -13.8034 N   0  0  0  0  0  0  0  0  0  0  0  0
   21.1340   -6.5241  -15.3718 C   0  0  0  0  0  0  0  0  0  0  0  0
   21.3703   -5.7542  -14.3998 O   0  0  0  0  0  0  0  0  0  0  0  0
   21.4054   -6.2603  -16.7059 N   0  0  0  0  0  0  0  0  0  0  0  0
   21.7433   -7.3053  -17.6904 C   0  0  0  0  0  0  0  0  0  0  0  0
   20.7797   -6.9324  -18.7990 C   0  0  0  0  0  0  0  0  0  0  0  0
   20.4600   -5.4675  -18.5910 C   0  0  0  0  0  0  0  0  0  0  0  0
   21.4906   -5.0864  -17.4824 C   0  0  1  0  0  0  0  0  0  0  0  0
   21.1780   -3.7954  -16.9286 C   0  0  0  0  0  0  0  0  0  0  0  0
   20.2471   -3.5659  -16.1541 O   0  0  0  0  0  0  0  0  0  0  0  0
   22.0039   -2.6715  -17.2950 N   0  0  0  0  0  0  0  0  0  0  0  0
   21.6834   -1.3537  -16.7634 C   0  0  1  0  0  0  0  0  0  0  0  0
   22.8613   -0.4517  -16.9138 C   0  0  0  0  0  0  0  0  0  0  0  0
   22.5230    0.8709  -16.3420 C   0  0  0  0  0  0  0  0  0  0  0  0
   21.7420    0.9172  -15.3646 O   0  0  0  0  0  0  0  0  0  0  0  0
   20.5239   -0.7765  -17.4942 C   0  0  0  0  0  0  0  0  0  0  0  0
   19.5548   -0.0529  -16.8267 O   0  0  0  0  0  0  0  0  0  0  0  0
   23.0358    2.0411  -16.8476 O   0  0  0  0  0  0  0  0  0  0  0  0
   20.3893   -0.9275  -18.7323 O   0  0  0  0  0  0  0  0  0  0  0  0
  2  3  2  0
  2  1  1  0
  4  2  1  0
  5  7  1  0
  5  4  1  0
  5  6  1  1
  7  8  2  0
  9 13  1  0
  9  7  1  0
 10  9  1  0
 11 10  1  0
 11 12  1  0
 12 13  1  0
 13 14  1  1
 14 15  2  0
 14 16  1  0
 16 17  1  0
 17 21  1  0
 17 18  1  6
 19 18  1  0
 20 19  2  0
 21 24  2  0
 21 22  1  0
 23 19  1  0
M  END
$$$$
