NPD.pdb
     RDKit          3D

 24 24  0  0  1  0  0  0  0  0999 V2000
   25.7799  -23.9336  -18.0431 N   0  0  0  0  0  0  0  0  0  0  0  0
   25.0575  -24.8667  -17.2633 C   0  0  0  0  0  0  0  0  0  0  0  0
   24.8907  -26.0411  -17.6667 O   0  0  0  0  0  0  0  0  0  0  0  0
   24.4850  -24.4770  -15.9581 C   0  0  0  0  0  0  0  0  0  0  0  0
   24.8372  -23.0238  -15.6394 C   0  0  2  0  0  0  0  0  0  0  0  0
   26.1499  -23.0259  -14.9929 N   0  0  0  0  0  0  0  0  0  0  0  0
   23.8530  -22.5123  -14.6228 C   0  0  0  0  0  0  0  0  0  0  0  0
   23.7021  -23.2623  -13.6186 O   0  0  0  0  0  0  0  0  0  0  0  0
   23.2062  -21.3059  -14.8441 N   0  0  0  0  0  0  0  0  0  0  0  0
   23.8959  -20.0827  -15.2953 C   0  0  0  0  0  0  0  0  0  0  0  0
   22.9905  -19.6884  -16.4447 C   0  0  0  0  0  0  0  0  0  0  0  0
   21.6524  -20.3342  -16.1549 C   0  0  0  0  0  0  0  0  0  0  0  0
   21.8767  -20.8580  -14.7017 C   0  0  1  0  0  0  0  0  0  0  0  0
   20.8182  -21.7564  -14.3228 C   0  0  0  0  0  0  0  0  0  0  0  0
   20.4899  -22.7652  -14.9501 O   0  0  0  0  0  0  0  0  0  0  0  0
   20.0725  -21.4728  -13.1216 N   0  0  0  0  0  0  0  0  0  0  0  0
   19.0329  -22.4010  -12.6974 C   0  0  1  0  0  0  0  0  0  0  0  0
   19.3494  -22.9211  -11.3362 C   0  0  0  0  0  0  0  0  0  0  0  0
   18.3146  -23.9071  -10.9519 C   0  0  0  0  0  0  0  0  0  0  0  0
   17.5793  -24.3814  -11.8473 O   0  0  0  0  0  0  0  0  0  0  0  0
   17.7149  -21.7128  -12.6681 C   0  0  0  0  0  0  0  0  0  0  0  0
   17.6229  -20.3497  -12.8724 O   0  0  0  0  0  0  0  0  0  0  0  0
   18.1372  -24.3145   -9.6516 O   0  0  0  0  0  0  0  0  0  0  0  0
   16.6512  -22.3439  -12.4580 O   0  0  0  0  0  0  0  0  0  0  0  0
  2  3  2  0
  2  1  1  0
  4  2  1  0
  5  7  1  0
  5  4  1  0
  5  6  1  1
  7  8  2  0
  9 13  1  0
  9  7  1  0
 10  9  1  0
 11 10  1  0
 11 12  1  0
 12 13  1  0
 13 14  1  6
 14 15  2  0
 14 16  1  0
 16 17  1  0
 17 21  1  0
 17 18  1  1
 19 18  1  0
 20 19  2  0
 21 24  2  0
 21 22  1  0
 23 19  1  0
M  END
$$$$
