NPD.pdb
     RDKit          3D

 24 24  0  0  1  0  0  0  0  0999 V2000
   14.0264  -10.5759    8.1395 N   0  0  0  0  0  0  0  0  0  0  0  0
   15.4402  -10.5713    8.0978 C   0  0  0  0  0  0  0  0  0  0  0  0
   16.0763   -9.4938    8.1598 O   0  0  0  0  0  0  0  0  0  0  0  0
   16.1959  -11.8355    7.9805 C   0  0  0  0  0  0  0  0  0  0  0  0
   17.1282  -11.7834    6.7699 C   0  0  2  0  0  0  0  0  0  0  0  0
   16.2946  -11.9018    5.5732 N   0  0  0  0  0  0  0  0  0  0  0  0
   18.0139  -12.9992    6.8043 C   0  0  0  0  0  0  0  0  0  0  0  0
   17.3928  -14.0981    6.7992 O   0  0  0  0  0  0  0  0  0  0  0  0
   19.3912  -12.8410    6.8372 N   0  0  0  0  0  0  0  0  0  0  0  0
   20.0964  -11.7101    6.2052 C   0  0  0  0  0  0  0  0  0  0  0  0
   20.9747  -11.2784    7.3623 C   0  0  0  0  0  0  0  0  0  0  0  0
   21.1092  -12.4949    8.2531 C   0  0  0  0  0  0  0  0  0  0  0  0
   20.4596  -13.5981    7.3603 C   0  0  1  0  0  0  0  0  0  0  0  0
   20.2278  -14.7933    8.1279 C   0  0  0  0  0  0  0  0  0  0  0  0
   19.5851  -14.8442    9.1783 O   0  0  0  0  0  0  0  0  0  0  0  0
   20.7810  -16.0360    7.6494 N   0  0  0  0  0  0  0  0  0  0  0  0
   20.5439  -17.2561    8.4093 C   0  0  1  0  0  0  0  0  0  0  0  0
   20.1039  -18.3434    7.4884 C   0  0  0  0  0  0  0  0  0  0  0  0
   18.8964  -18.9855    8.0541 C   0  0  0  0  0  0  0  0  0  0  0  0
   18.3789  -18.4865    9.0791 O   0  0  0  0  0  0  0  0  0  0  0  0
   21.7895  -17.6740    9.1059 C   0  0  0  0  0  0  0  0  0  0  0  0
   23.0151  -17.1529    8.7390 O   0  0  0  0  0  0  0  0  0  0  0  0
   18.3304  -20.1049    7.4932 O   0  0  0  0  0  0  0  0  0  0  0  0
   21.7675  -18.5080   10.0428 O   0  0  0  0  0  0  0  0  0  0  0  0
  2  3  2  0
  2  1  1  0
  4  2  1  0
  5  7  1  0
  5  4  1  0
  5  6  1  6
  7  8  2  0
  9 13  1  0
  9  7  1  0
 10  9  1  0
 11 10  1  0
 11 12  1  0
 12 13  1  0
 13 14  1  1
 14 15  2  0
 14 16  1  0
 16 17  1  0
 17 21  1  0
 17 18  1  6
 19 18  1  0
 20 19  2  0
 21 24  2  0
 21 22  1  0
 23 19  1  0
M  END
$$$$
