NPD.pdb
     RDKit          3D

 24 24  0  0  1  0  0  0  0  0999 V2000
   18.4230  -14.8943  -18.2175 N   0  0  0  0  0  0  0  0  0  0  0  0
   18.6575  -13.5097  -18.3856 C   0  0  0  0  0  0  0  0  0  0  0  0
   18.5233  -12.9721  -19.5092 O   0  0  0  0  0  0  0  0  0  0  0  0
   19.0652  -12.6688  -17.2411 C   0  0  0  0  0  0  0  0  0  0  0  0
   20.4066  -11.9952  -17.5316 C   0  0  2  0  0  0  0  0  0  0  0  0
   21.4518  -12.9965  -17.3168 N   0  0  0  0  0  0  0  0  0  0  0  0
   20.6231  -10.9146  -16.5074 C   0  0  0  0  0  0  0  0  0  0  0  0
   19.6628  -10.1033  -16.3932 O   0  0  0  0  0  0  0  0  0  0  0  0
   21.8082  -10.8819  -15.7880 N   0  0  0  0  0  0  0  0  0  0  0  0
   22.4825  -12.0888  -15.2739 C   0  0  0  0  0  0  0  0  0  0  0  0
   23.8891  -11.8278  -15.7739 C   0  0  0  0  0  0  0  0  0  0  0  0
   23.9850  -10.3297  -15.9693 C   0  0  0  0  0  0  0  0  0  0  0  0
   22.6494   -9.8525  -15.3177 C   0  0  1  0  0  0  0  0  0  0  0  0
   22.3988   -8.4723  -15.6393 C   0  0  0  0  0  0  0  0  0  0  0  0
   22.3763   -8.0059  -16.7799 O   0  0  0  0  0  0  0  0  0  0  0  0
   22.1535   -7.5482  -14.5597 N   0  0  0  0  0  0  0  0  0  0  0  0
   21.8689   -6.1540  -14.8716 C   0  0  1  0  0  0  0  0  0  0  0  0
   20.4966   -6.0376  -15.4435 C   0  0  0  0  0  0  0  0  0  0  0  0
   20.2220   -4.6124  -15.7332 C   0  0  0  0  0  0  0  0  0  0  0  0
   21.1042   -3.9399  -16.3137 O   0  0  0  0  0  0  0  0  0  0  0  0
   21.9616   -5.3261  -13.6398 C   0  0  0  0  0  0  0  0  0  0  0  0
   22.0604   -5.9169  -12.3950 O   0  0  0  0  0  0  0  0  0  0  0  0
   19.0372   -4.0089  -15.3867 O   0  0  0  0  0  0  0  0  0  0  0  0
   21.9526   -4.0726  -13.6910 O   0  0  0  0  0  0  0  0  0  0  0  0
  2  3  2  0
  2  1  1  0
  4  2  1  0
  5  7  1  0
  5  4  1  0
  5  6  1  1
  7  8  2  0
  9 13  1  0
  9  7  1  0
 10  9  1  0
 11 10  1  0
 11 12  1  0
 12 13  1  0
 13 14  1  6
 14 15  2  0
 14 16  1  0
 16 17  1  0
 17 21  1  0
 17 18  1  1
 19 18  1  0
 20 19  2  0
 21 24  2  0
 21 22  1  0
 23 19  1  0
M  END
$$$$
