NPD.pdb
     RDKit          3D

 24 24  0  0  1  0  0  0  0  0999 V2000
   23.6250  -17.3985  -17.8698 N   0  0  0  0  0  0  0  0  0  0  0  0
   22.2148  -17.2909  -17.8792 C   0  0  0  0  0  0  0  0  0  0  0  0
   21.6576  -16.2500  -18.2985 O   0  0  0  0  0  0  0  0  0  0  0  0
   21.3697  -18.4022  -17.3955 C   0  0  0  0  0  0  0  0  0  0  0  0
   22.2440  -19.5377  -16.8629 C   0  0  2  0  0  0  0  0  0  0  0  0
   22.8882  -20.1683  -18.0155 N   0  0  0  0  0  0  0  0  0  0  0  0
   21.3455  -20.5749  -16.2461 C   0  0  0  0  0  0  0  0  0  0  0  0
   20.6051  -21.1809  -17.0696 O   0  0  0  0  0  0  0  0  0  0  0  0
   21.3875  -20.7887  -14.8765 N   0  0  0  0  0  0  0  0  0  0  0  0
   22.6121  -20.6450  -14.0670 C   0  0  0  0  0  0  0  0  0  0  0  0
   22.0798  -19.7666  -12.9528 C   0  0  0  0  0  0  0  0  0  0  0  0
   20.5838  -19.9964  -12.9266 C   0  0  0  0  0  0  0  0  0  0  0  0
   20.4441  -21.1987  -13.9121 C   0  0  1  0  0  0  0  0  0  0  0  0
   19.0623  -21.4088  -14.2552 C   0  0  0  0  0  0  0  0  0  0  0  0
   18.4218  -20.7252  -15.0562 O   0  0  0  0  0  0  0  0  0  0  0  0
   18.3549  -22.4961  -13.6253 N   0  0  0  0  0  0  0  0  0  0  0  0
   16.9594  -22.7289  -13.9725 C   0  0  1  0  0  0  0  0  0  0  0  0
   16.5557  -24.0972  -13.5385 C   0  0  0  0  0  0  0  0  0  0  0  0
   17.2615  -25.0899  -14.3792 C   0  0  0  0  0  0  0  0  0  0  0  0
   17.4668  -24.8150  -15.5833 O   0  0  0  0  0  0  0  0  0  0  0  0
   16.0922  -21.7233  -13.3029 C   0  0  0  0  0  0  0  0  0  0  0  0
   14.8289  -21.4431  -13.7866 O   0  0  0  0  0  0  0  0  0  0  0  0
   17.6949  -26.2955  -13.8825 O   0  0  0  0  0  0  0  0  0  0  0  0
   16.4776  -21.1010  -12.2840 O   0  0  0  0  0  0  0  0  0  0  0  0
  2  3  2  0
  2  1  1  0
  4  2  1  0
  5  7  1  0
  5  4  1  0
  5  6  1  6
  7  8  2  0
  9 13  1  0
  9  7  1  0
 10  9  1  0
 11 10  1  0
 11 12  1  0
 12 13  1  0
 13 14  1  6
 14 15  2  0
 14 16  1  0
 16 17  1  0
 17 21  1  0
 17 18  1  1
 19 18  1  0
 20 19  2  0
 21 24  2  0
 21 22  1  0
 23 19  1  0
M  END
$$$$
