NPD.pdb
     RDKit          3D

 24 24  0  0  1  0  0  0  0  0999 V2000
   14.7653  -12.4207  -16.7284 N   0  0  0  0  0  0  0  0  0  0  0  0
   15.9801  -11.7715  -17.0495 C   0  0  0  0  0  0  0  0  0  0  0  0
   16.4056  -11.7615  -18.2278 O   0  0  0  0  0  0  0  0  0  0  0  0
   16.7723  -11.0921  -16.0035 C   0  0  0  0  0  0  0  0  0  0  0  0
   18.2632  -11.3570  -16.2141 C   0  0  2  0  0  0  0  0  0  0  0  0
   18.5078  -12.7598  -15.8776 N   0  0  0  0  0  0  0  0  0  0  0  0
   19.0338  -10.5310  -15.2203 C   0  0  0  0  0  0  0  0  0  0  0  0
   18.5211  -10.4885  -14.0675 O   0  0  0  0  0  0  0  0  0  0  0  0
   20.2033   -9.8999  -15.6165 N   0  0  0  0  0  0  0  0  0  0  0  0
   21.1662  -10.4902  -16.5650 C   0  0  0  0  0  0  0  0  0  0  0  0
   21.3391   -9.3212  -17.5138 C   0  0  0  0  0  0  0  0  0  0  0  0
   20.9613   -8.0883  -16.7208 C   0  0  0  0  0  0  0  0  0  0  0  0
   20.8289   -8.6810  -15.2830 C   0  0  1  0  0  0  0  0  0  0  0  0
   20.2006   -7.7303  -14.4039 C   0  0  0  0  0  0  0  0  0  0  0  0
   18.9841   -7.6116  -14.2458 O   0  0  0  0  0  0  0  0  0  0  0  0
   21.0400   -6.8397  -13.6413 N   0  0  0  0  0  0  0  0  0  0  0  0
   20.4196   -5.8961  -12.7209 C   0  0  1  0  0  0  0  0  0  0  0  0
   19.8917   -6.6269  -11.5331 C   0  0  0  0  0  0  0  0  0  0  0  0
   19.2110   -5.6593  -10.6439 C   0  0  0  0  0  0  0  0  0  0  0  0
   18.7681   -4.5994  -11.1417 O   0  0  0  0  0  0  0  0  0  0  0  0
   21.4167   -4.8866  -12.2757 C   0  0  0  0  0  0  0  0  0  0  0  0
   21.0169   -3.6307  -11.8621 O   0  0  0  0  0  0  0  0  0  0  0  0
   19.0519   -5.8867   -9.2981 O   0  0  0  0  0  0  0  0  0  0  0  0
   22.6450   -5.1414  -12.2617 O   0  0  0  0  0  0  0  0  0  0  0  0
  2  3  2  0
  2  1  1  0
  4  2  1  0
  5  7  1  0
  5  4  1  0
  5  6  1  1
  7  8  2  0
  9 13  1  0
  9  7  1  0
 10  9  1  0
 11 10  1  0
 11 12  1  0
 12 13  1  0
 13 14  1  1
 14 15  2  0
 14 16  1  0
 16 17  1  0
 17 21  1  0
 17 18  1  1
 19 18  1  0
 20 19  2  0
 21 24  2  0
 21 22  1  0
 23 19  1  0
M  END
$$$$
