NPD.pdb
     RDKit          3D

 24 24  0  0  1  0  0  0  0  0999 V2000
   15.3477  -19.4481    2.3624 N   0  0  0  0  0  0  0  0  0  0  0  0
   16.7571  -19.4135    2.4758 C   0  0  0  0  0  0  0  0  0  0  0  0
   17.4812  -19.8930    1.5728 O   0  0  0  0  0  0  0  0  0  0  0  0
   17.4046  -18.8120    3.6599 C   0  0  0  0  0  0  0  0  0  0  0  0
   16.3467  -18.3229    4.6492 C   0  0  2  0  0  0  0  0  0  0  0  0
   15.6018  -17.2475    3.9936 N   0  0  0  0  0  0  0  0  0  0  0  0
   17.0517  -17.7074    5.8273 C   0  0  0  0  0  0  0  0  0  0  0  0
   17.7104  -16.6654    5.5557 O   0  0  0  0  0  0  0  0  0  0  0  0
   16.9369  -18.2969    7.0772 N   0  0  0  0  0  0  0  0  0  0  0  0
   15.7103  -18.9629    7.5540 C   0  0  0  0  0  0  0  0  0  0  0  0
   16.3032  -20.2680    8.0457 C   0  0  0  0  0  0  0  0  0  0  0  0
   17.7598  -19.9750    8.3354 C   0  0  0  0  0  0  0  0  0  0  0  0
   17.7910  -18.4210    8.1923 C   0  0  1  0  0  0  0  0  0  0  0  0
   19.1495  -17.9474    8.1540 C   0  0  0  0  0  0  0  0  0  0  0  0
   19.9934  -18.2896    7.3234 O   0  0  0  0  0  0  0  0  0  0  0  0
   19.5762  -17.0005    9.1543 N   0  0  0  0  0  0  0  0  0  0  0  0
   20.9411  -16.4930    9.1129 C   0  0  1  0  0  0  0  0  0  0  0  0
   20.9493  -15.0451    9.4692 C   0  0  0  0  0  0  0  0  0  0  0  0
   22.3261  -14.5251    9.3131 C   0  0  0  0  0  0  0  0  0  0  0  0
   23.1894  -15.2668    8.7913 O   0  0  0  0  0  0  0  0  0  0  0  0
   21.7937  -17.2421   10.0740 C   0  0  0  0  0  0  0  0  0  0  0  0
   21.2570  -18.2310   10.8754 O   0  0  0  0  0  0  0  0  0  0  0  0
   22.6836  -13.2626    9.7208 O   0  0  0  0  0  0  0  0  0  0  0  0
   23.0197  -17.0013   10.1872 O   0  0  0  0  0  0  0  0  0  0  0  0
  2  3  2  0
  2  1  1  0
  4  2  1  0
  5  7  1  0
  5  4  1  0
  5  6  1  6
  7  8  2  0
  9 13  1  0
  9  7  1  0
 10  9  1  0
 11 10  1  0
 11 12  1  0
 12 13  1  0
 13 14  1  6
 14 15  2  0
 14 16  1  0
 16 17  1  0
 17 21  1  0
 17 18  1  1
 19 18  1  0
 20 19  2  0
 21 24  2  0
 21 22  1  0
 23 19  1  0
M  END
$$$$
