TCP.pdb
     RDKit          3D

 21 21  0  0  1  0  0  0  0  0999 V2000
    9.0191  -18.0590   20.6262 C   0  0  0  0  0  0  0  0  0  0  0  0
    9.2292  -17.2850   21.9078 C   0  0  1  0  0  0  0  0  0  0  0  0
   10.5381  -17.4538   22.3587 O   0  0  0  0  0  0  0  0  0  0  0  0
    8.9735  -15.8112   21.6195 C   0  0  2  0  0  0  0  0  0  0  0  0
    9.9811  -15.3574   20.6955 N   0  0  0  0  0  0  0  0  0  0  0  0
    9.0173  -15.0266   22.8856 C   0  0  0  0  0  0  0  0  0  0  0  0
   10.1175  -14.5077   23.1891 O   0  0  0  0  0  0  0  0  0  0  0  0
    7.8447  -14.9054   23.6685 N   0  0  0  0  0  0  0  0  0  0  0  0
    7.8721  -14.2056   24.9288 C   0  0  1  0  0  0  0  0  0  0  0  0
    6.4913  -13.6986   25.1763 C   0  0  0  0  0  0  0  0  0  0  0  0
    6.5064  -12.9802   26.8692 S   0  0  0  0  0  0  0  0  0  0  0  0
    8.4314  -15.0693   26.0055 C   0  0  0  0  0  0  0  0  0  0  0  0
    7.9029  -16.1989   26.0929 O   0  0  0  0  0  0  0  0  0  0  0  0
    9.4635  -14.6672   26.8578 N   0  0  0  0  0  0  0  0  0  0  0  0
   10.1417  -13.3480   26.8719 C   0  0  0  0  0  0  0  0  0  0  0  0
   10.1094  -13.0030   28.3397 C   0  0  0  0  0  0  0  0  0  0  0  0
    9.8684  -14.3125   29.0632 C   0  0  0  0  0  0  0  0  0  0  0  0
   10.1451  -15.3138   27.9251 C   0  0  1  0  0  0  0  0  0  0  0  0
    9.8386  -16.6653   28.3090 C   0  0  0  0  0  0  0  0  0  0  0  0
    8.6997  -17.2701   27.6873 O   0  0  0  0  0  0  0  0  0  0  0  0
   10.4152  -17.4048   29.1085 O   0  0  0  0  0  0  0  0  0  0  0  0
  2  3  1  0
  2  1  1  6
  4  2  1  0
  4  5  1  6
  6  4  1  0
  6  8  1  0
  7  6  2  0
  9  8  1  0
  9 12  1  0
  9 10  1  1
 11 10  1  0
 12 14  1  0
 12 13  2  0
 14 15  1  0
 16 15  1  0
 17 16  1  0
 18 17  1  0
 18 14  1  0
 18 19  1  1
 19 20  1  0
 21 19  2  0
M  END
$$$$
