TCP.pdb
     RDKit          3D

 21 21  0  0  1  0  0  0  0  0999 V2000
    7.5978  -16.7285   20.2281 C   0  0  0  0  0  0  0  0  0  0  0  0
    8.0768  -16.2248   21.5707 C   0  0  1  0  0  0  0  0  0  0  0  0
    9.4597  -16.3745   21.6714 O   0  0  0  0  0  0  0  0  0  0  0  0
    7.7124  -14.7499   21.6818 C   0  0  2  0  0  0  0  0  0  0  0  0
    8.4347  -14.0352   20.6608 N   0  0  0  0  0  0  0  0  0  0  0  0
    8.0572  -14.2378   23.0381 C   0  0  0  0  0  0  0  0  0  0  0  0
    9.1680  -13.6692   23.1600 O   0  0  0  0  0  0  0  0  0  0  0  0
    7.1388  -14.4120   24.1005 N   0  0  0  0  0  0  0  0  0  0  0  0
    7.5021  -14.0595   25.4505 C   0  0  1  0  0  0  0  0  0  0  0  0
    6.2326  -13.8075   26.1921 C   0  0  0  0  0  0  0  0  0  0  0  0
    6.0393  -11.9802   26.2682 S   0  0  0  0  0  0  0  0  0  0  0  0
    8.3904  -15.0936   26.0502 C   0  0  0  0  0  0  0  0  0  0  0  0
    8.0234  -16.2722   25.8526 O   0  0  0  0  0  0  0  0  0  0  0  0
    9.5449  -14.7900   26.7771 N   0  0  0  0  0  0  0  0  0  0  0  0
   10.3142  -13.5224   26.7353 C   0  0  0  0  0  0  0  0  0  0  0  0
   10.4855  -13.2199   28.2028 C   0  0  0  0  0  0  0  0  0  0  0  0
   10.2393  -14.5304   28.9228 C   0  0  0  0  0  0  0  0  0  0  0  0
   10.3021  -15.5141   27.7385 C   0  0  1  0  0  0  0  0  0  0  0  0
    9.9468  -16.8519   28.1286 C   0  0  0  0  0  0  0  0  0  0  0  0
   11.0253  -17.7453   28.4253 O   0  0  0  0  0  0  0  0  0  0  0  0
    8.8331  -17.3647   28.2513 O   0  0  0  0  0  0  0  0  0  0  0  0
  2  3  1  0
  2  1  1  6
  4  2  1  0
  4  5  1  6
  6  4  1  0
  6  8  1  0
  7  6  2  0
  9  8  1  0
  9 12  1  0
  9 10  1  1
 11 10  1  0
 12 14  1  0
 12 13  2  0
 14 15  1  0
 16 15  1  0
 17 16  1  0
 18 17  1  0
 18 14  1  0
 18 19  1  1
 19 20  1  0
 21 19  2  0
M  END
$$$$
