TCP.pdb
     RDKit          3D

 21 21  0  0  1  0  0  0  0  0999 V2000
    8.3776  -12.6360   20.6518 C   0  0  0  0  0  0  0  0  0  0  0  0
    7.9409  -13.6519   19.6207 C   0  0  1  0  0  0  0  0  0  0  0  0
    8.7596  -13.5717   18.4945 O   0  0  0  0  0  0  0  0  0  0  0  0
    8.0584  -15.0383   20.2408 C   0  0  2  0  0  0  0  0  0  0  0  0
    7.5920  -15.9990   19.2740 N   0  0  0  0  0  0  0  0  0  0  0  0
    7.2555  -15.1085   21.4942 C   0  0  0  0  0  0  0  0  0  0  0  0
    6.0583  -15.4621   21.3772 O   0  0  0  0  0  0  0  0  0  0  0  0
    7.8649  -14.7813   22.7287 N   0  0  0  0  0  0  0  0  0  0  0  0
    7.2813  -15.2152   23.9737 C   0  0  1  0  0  0  0  0  0  0  0  0
    7.0263  -16.6796   23.8489 C   0  0  0  0  0  0  0  0  0  0  0  0
    6.4545  -17.2416   25.5040 S   0  0  0  0  0  0  0  0  0  0  0  0
    8.1335  -14.8175   25.1285 C   0  0  0  0  0  0  0  0  0  0  0  0
    9.0589  -15.6161   25.3911 O   0  0  0  0  0  0  0  0  0  0  0  0
    7.9308  -13.6501   25.8697 N   0  0  0  0  0  0  0  0  0  0  0  0
    7.1152  -12.4760   25.4739 C   0  0  0  0  0  0  0  0  0  0  0  0
    6.2890  -12.2451   26.7143 C   0  0  0  0  0  0  0  0  0  0  0  0
    7.0178  -12.9640   27.8317 C   0  0  0  0  0  0  0  0  0  0  0  0
    8.3756  -13.2285   27.1529 C   0  0  1  0  0  0  0  0  0  0  0  0
    9.2332  -14.0504   27.9633 C   0  0  0  0  0  0  0  0  0  0  0  0
    8.8770  -15.4317   28.0840 O   0  0  0  0  0  0  0  0  0  0  0  0
   10.2521  -13.7472   28.5865 O   0  0  0  0  0  0  0  0  0  0  0  0
  2  3  1  0
  2  1  1  1
  4  2  1  0
  4  5  1  6
  6  4  1  0
  6  8  1  0
  7  6  2  0
  9  8  1  0
  9 12  1  0
  9 10  1  6
 11 10  1  0
 12 14  1  0
 12 13  2  0
 14 15  1  0
 16 15  1  0
 17 16  1  0
 18 17  1  0
 18 14  1  0
 18 19  1  1
 19 20  1  0
 21 19  2  0
M  END
$$$$
