TCP.pdb
     RDKit          3D

 21 21  0  0  1  0  0  0  0  0999 V2000
    8.3551  -16.4281   21.4721 C   0  0  0  0  0  0  0  0  0  0  0  0
    8.7747  -15.1745   20.7387 C   0  0  1  0  0  0  0  0  0  0  0  0
    8.6535  -15.3630   19.3622 O   0  0  0  0  0  0  0  0  0  0  0  0
    7.8624  -14.0377   21.1815 C   0  0  2  0  0  0  0  0  0  0  0  0
    8.0963  -12.9146   20.3102 N   0  0  0  0  0  0  0  0  0  0  0  0
    8.1417  -13.6800   22.6009 C   0  0  0  0  0  0  0  0  0  0  0  0
    9.1575  -12.9772   22.8154 O   0  0  0  0  0  0  0  0  0  0  0  0
    7.2699  -14.1382   23.6170 N   0  0  0  0  0  0  0  0  0  0  0  0
    7.4563  -13.7253   24.9858 C   0  0  1  0  0  0  0  0  0  0  0  0
    6.1141  -13.3430   25.5126 C   0  0  0  0  0  0  0  0  0  0  0  0
    6.3666  -12.8958   27.2786 S   0  0  0  0  0  0  0  0  0  0  0  0
    8.1668  -14.7756   25.7669 C   0  0  0  0  0  0  0  0  0  0  0  0
    7.7016  -15.9280   25.6317 O   0  0  0  0  0  0  0  0  0  0  0  0
    9.2664  -14.5131   26.5888 N   0  0  0  0  0  0  0  0  0  0  0  0
   10.0274  -13.2429   26.6768 C   0  0  0  0  0  0  0  0  0  0  0  0
   10.0953  -13.0296   28.1682 C   0  0  0  0  0  0  0  0  0  0  0  0
    9.8099  -14.3822   28.7890 C   0  0  0  0  0  0  0  0  0  0  0  0
    9.9610  -15.2919   27.5546 C   0  0  1  0  0  0  0  0  0  0  0  0
    9.5896  -16.6520   27.8378 C   0  0  0  0  0  0  0  0  0  0  0  0
   10.3784  -17.3473   28.8092 O   0  0  0  0  0  0  0  0  0  0  0  0
    8.6769  -17.3317   27.3651 O   0  0  0  0  0  0  0  0  0  0  0  0
  2  3  1  0
  2  1  1  1
  4  2  1  0
  4  5  1  6
  6  4  1  0
  6  8  1  0
  7  6  2  0
  9  8  1  0
  9 12  1  0
  9 10  1  1
 11 10  1  0
 12 14  1  0
 12 13  2  0
 14 15  1  0
 16 15  1  0
 17 16  1  0
 18 17  1  0
 18 14  1  0
 18 19  1  1
 19 20  1  0
 21 19  2  0
M  END
$$$$
