TCP.pdb
     RDKit          3D

 21 21  0  0  1  0  0  0  0  0999 V2000
    7.5946  -17.1364   20.3408 C   0  0  0  0  0  0  0  0  0  0  0  0
    8.0451  -16.5489   21.6590 C   0  0  1  0  0  0  0  0  0  0  0  0
    9.3481  -16.9567   21.9434 O   0  0  0  0  0  0  0  0  0  0  0  0
    7.9981  -15.0307   21.5427 C   0  0  2  0  0  0  0  0  0  0  0  0
    8.9547  -14.6314   20.5424 N   0  0  0  0  0  0  0  0  0  0  0  0
    8.3095  -14.4062   22.8593 C   0  0  0  0  0  0  0  0  0  0  0  0
    9.4798  -13.9864   23.0210 O   0  0  0  0  0  0  0  0  0  0  0  0
    7.2961  -14.3174   23.8430 N   0  0  0  0  0  0  0  0  0  0  0  0
    7.5818  -13.7658   25.1441 C   0  0  1  0  0  0  0  0  0  0  0  0
    6.3233  -13.1340   25.6359 C   0  0  0  0  0  0  0  0  0  0  0  0
    6.6445  -12.6445   27.3793 S   0  0  0  0  0  0  0  0  0  0  0  0
    8.1646  -14.7992   26.0444 C   0  0  0  0  0  0  0  0  0  0  0  0
    7.5029  -15.8573   26.1182 O   0  0  0  0  0  0  0  0  0  0  0  0
    9.3538  -14.6189   26.7562 N   0  0  0  0  0  0  0  0  0  0  0  0
   10.2525  -13.4400   26.7018 C   0  0  0  0  0  0  0  0  0  0  0  0
   10.4734  -13.1556   28.1663 C   0  0  0  0  0  0  0  0  0  0  0  0
   10.0988  -14.4319   28.8925 C   0  0  0  0  0  0  0  0  0  0  0  0
   10.0420  -15.4181   27.7099 C   0  0  1  0  0  0  0  0  0  0  0  0
    9.5519  -16.7102   28.1077 C   0  0  0  0  0  0  0  0  0  0  0  0
   10.3274  -17.4240   29.0765 O   0  0  0  0  0  0  0  0  0  0  0  0
    8.5448  -17.3162   27.7379 O   0  0  0  0  0  0  0  0  0  0  0  0
  2  3  1  0
  2  1  1  6
  4  2  1  0
  4  5  1  6
  6  4  1  0
  6  8  1  0
  7  6  2  0
  9  8  1  0
  9 12  1  0
  9 10  1  1
 11 10  1  0
 12 14  1  0
 12 13  2  0
 14 15  1  0
 16 15  1  0
 17 16  1  0
 18 17  1  0
 18 14  1  0
 18 19  1  1
 19 20  1  0
 21 19  2  0
M  END
$$$$
