TCP.pdb
     RDKit          3D

 21 21  0  0  1  0  0  0  0  0999 V2000
    8.6475  -12.3290   20.1734 C   0  0  0  0  0  0  0  0  0  0  0  0
    8.2436  -13.3885   19.1735 C   0  0  1  0  0  0  0  0  0  0  0  0
    9.0727  -13.3294   18.0536 O   0  0  0  0  0  0  0  0  0  0  0  0
    8.3833  -14.7501   19.8421 C   0  0  2  0  0  0  0  0  0  0  0  0
    8.0123  -15.7575   18.8816 N   0  0  0  0  0  0  0  0  0  0  0  0
    7.5148  -14.8187   21.0510 C   0  0  0  0  0  0  0  0  0  0  0  0
    6.2897  -14.9994   20.8551 O   0  0  0  0  0  0  0  0  0  0  0  0
    8.0971  -14.6804   22.3333 N   0  0  0  0  0  0  0  0  0  0  0  0
    7.3552  -15.0320   23.5186 C   0  0  1  0  0  0  0  0  0  0  0  0
    6.9669  -16.4656   23.3808 C   0  0  0  0  0  0  0  0  0  0  0  0
    6.2022  -16.9443   24.9834 S   0  0  0  0  0  0  0  0  0  0  0  0
    8.1279  -14.7012   24.7481 C   0  0  0  0  0  0  0  0  0  0  0  0
    9.0716  -15.4831   24.9951 O   0  0  0  0  0  0  0  0  0  0  0  0
    7.8368  -13.6094   25.5707 N   0  0  0  0  0  0  0  0  0  0  0  0
    7.0924  -12.3838   25.1910 C   0  0  0  0  0  0  0  0  0  0  0  0
    6.1079  -12.2595   26.3266 C   0  0  0  0  0  0  0  0  0  0  0  0
    6.6723  -13.1025   27.4524 C   0  0  0  0  0  0  0  0  0  0  0  0
    8.1072  -13.3281   26.9381 C   0  0  1  0  0  0  0  0  0  0  0  0
    8.8399  -14.2459   27.7680 C   0  0  0  0  0  0  0  0  0  0  0  0
    9.5929  -13.6805   28.8463 O   0  0  0  0  0  0  0  0  0  0  0  0
    8.9250  -15.4731   27.6968 O   0  0  0  0  0  0  0  0  0  0  0  0
  2  3  1  0
  2  1  1  1
  4  2  1  0
  4  5  1  6
  6  4  1  0
  6  8  1  0
  7  6  2  0
  9  8  1  0
  9 12  1  0
  9 10  1  6
 11 10  1  0
 12 14  1  0
 12 13  2  0
 14 15  1  0
 16 15  1  0
 17 16  1  0
 18 17  1  0
 18 14  1  0
 18 19  1  1
 19 20  1  0
 21 19  2  0
M  END
$$$$
