TCP.pdb
     RDKit          3D

 21 21  0  0  1  0  0  0  0  0999 V2000
   11.2006  -17.4887   16.3820 C   0  0  0  0  0  0  0  0  0  0  0  0
   10.9200  -16.5901   15.1990 C   0  0  1  0  0  0  0  0  0  0  0  0
   11.5260  -17.1052   14.0534 O   0  0  0  0  0  0  0  0  0  0  0  0
    9.4114  -16.5292   14.9964 C   0  0  2  0  0  0  0  0  0  0  0  0
    9.1523  -15.7418   13.8183 N   0  0  0  0  0  0  0  0  0  0  0  0
    8.7575  -15.9303   16.1940 C   0  0  0  0  0  0  0  0  0  0  0  0
    8.9272  -14.7010   16.3728 O   0  0  0  0  0  0  0  0  0  0  0  0
    7.9938  -16.7550   17.0537 N   0  0  0  0  0  0  0  0  0  0  0  0
    7.3947  -16.2147   18.2487 C   0  0  1  0  0  0  0  0  0  0  0  0
    6.3299  -17.1693   18.6728 C   0  0  0  0  0  0  0  0  0  0  0  0
    5.7879  -16.6215   20.3426 S   0  0  0  0  0  0  0  0  0  0  0  0
    8.4303  -15.9237   19.2788 C   0  0  0  0  0  0  0  0  0  0  0  0
    9.1060  -16.9148   19.6311 O   0  0  0  0  0  0  0  0  0  0  0  0
    8.6443  -14.6524   19.8185 N   0  0  0  0  0  0  0  0  0  0  0  0
    8.4000  -13.3505   19.1510 C   0  0  0  0  0  0  0  0  0  0  0  0
    7.6289  -12.6035   20.2101 C   0  0  0  0  0  0  0  0  0  0  0  0
    7.9118  -13.3281   21.5107 C   0  0  0  0  0  0  0  0  0  0  0  0
    9.1063  -14.2042   21.0865 C   0  0  1  0  0  0  0  0  0  0  0  0
    9.4926  -15.1269   22.1196 C   0  0  0  0  0  0  0  0  0  0  0  0
   10.5230  -14.6974   23.0158 O   0  0  0  0  0  0  0  0  0  0  0  0
    9.0670  -16.2575   22.3624 O   0  0  0  0  0  0  0  0  0  0  0  0
  2  3  1  0
  2  1  1  1
  4  2  1  0
  4  5  1  6
  6  4  1  0
  6  8  1  0
  7  6  2  0
  9  8  1  0
  9 12  1  0
  9 10  1  1
 11 10  1  0
 12 14  1  0
 12 13  2  0
 14 15  1  0
 16 15  1  0
 17 16  1  0
 18 17  1  0
 18 14  1  0
 18 19  1  1
 19 20  1  0
 21 19  2  0
M  END
$$$$
