TCP.pdb
     RDKit          3D

 21 21  0  0  1  0  0  0  0  0999 V2000
    8.5570  -17.8560   20.5529 C   0  0  0  0  0  0  0  0  0  0  0  0
    8.8647  -17.1181   21.8361 C   0  0  1  0  0  0  0  0  0  0  0  0
   10.1791  -17.3698   22.2286 O   0  0  0  0  0  0  0  0  0  0  0  0
    8.6836  -15.6271   21.5813 C   0  0  2  0  0  0  0  0  0  0  0  0
    9.6802  -15.2148   20.6264 N   0  0  0  0  0  0  0  0  0  0  0  0
    8.8200  -14.8692   22.8570 C   0  0  0  0  0  0  0  0  0  0  0  0
    9.9492  -14.3852   23.1068 O   0  0  0  0  0  0  0  0  0  0  0  0
    7.6972  -14.7334   23.7076 N   0  0  0  0  0  0  0  0  0  0  0  0
    7.8107  -14.0447   24.9693 C   0  0  1  0  0  0  0  0  0  0  0  0
    6.4758  -13.4468   25.2615 C   0  0  0  0  0  0  0  0  0  0  0  0
    6.5753  -12.7872   26.9753 S   0  0  0  0  0  0  0  0  0  0  0  0
    8.3427  -14.9509   26.0247 C   0  0  0  0  0  0  0  0  0  0  0  0
    7.7712  -16.0607   26.0935 O   0  0  0  0  0  0  0  0  0  0  0  0
    9.3952  -14.6064   26.8774 N   0  0  0  0  0  0  0  0  0  0  0  0
   10.1406  -13.3241   26.8963 C   0  0  0  0  0  0  0  0  0  0  0  0
   10.1277  -12.9843   28.3656 C   0  0  0  0  0  0  0  0  0  0  0  0
    9.8202  -14.2828   29.0838 C   0  0  0  0  0  0  0  0  0  0  0  0
   10.0436  -15.2920   27.9410 C   0  0  1  0  0  0  0  0  0  0  0  0
    9.6681  -16.6276   28.3194 C   0  0  0  0  0  0  0  0  0  0  0  0
    8.5475  -17.2004   27.6373 O   0  0  0  0  0  0  0  0  0  0  0  0
   10.1705  -17.3767   29.1590 O   0  0  0  0  0  0  0  0  0  0  0  0
  2  3  1  0
  2  1  1  6
  4  2  1  0
  4  5  1  6
  6  4  1  0
  6  8  1  0
  7  6  2  0
  9  8  1  0
  9 12  1  0
  9 10  1  1
 11 10  1  0
 12 14  1  0
 12 13  2  0
 14 15  1  0
 16 15  1  0
 17 16  1  0
 18 17  1  0
 18 14  1  0
 18 19  1  1
 19 20  1  0
 21 19  2  0
M  END
$$$$
