TCP.pdb
     RDKit          3D

 21 21  0  0  1  0  0  0  0  0999 V2000
    9.0253  -16.3000   21.5157 C   0  0  0  0  0  0  0  0  0  0  0  0
    9.1313  -15.0123   20.7307 C   0  0  1  0  0  0  0  0  0  0  0  0
    9.0735  -15.2801   19.3633 O   0  0  0  0  0  0  0  0  0  0  0  0
    7.9636  -14.1176   21.1266 C   0  0  2  0  0  0  0  0  0  0  0  0
    7.9306  -13.0010   20.2172 N   0  0  0  0  0  0  0  0  0  0  0  0
    8.1262  -13.6559   22.5341 C   0  0  0  0  0  0  0  0  0  0  0  0
    9.0020  -12.7835   22.7431 O   0  0  0  0  0  0  0  0  0  0  0  0
    7.3057  -14.2090   23.5456 N   0  0  0  0  0  0  0  0  0  0  0  0
    7.4496  -13.7914   24.9181 C   0  0  1  0  0  0  0  0  0  0  0  0
    6.0795  -13.5026   25.4322 C   0  0  0  0  0  0  0  0  0  0  0  0
    6.2855  -13.0252   27.1962 S   0  0  0  0  0  0  0  0  0  0  0  0
    8.2208  -14.7956   25.7022 C   0  0  0  0  0  0  0  0  0  0  0  0
    7.7885  -15.9656   25.6166 O   0  0  0  0  0  0  0  0  0  0  0  0
    9.3398  -14.4750   26.4759 N   0  0  0  0  0  0  0  0  0  0  0  0
   10.0713  -13.1846   26.4892 C   0  0  0  0  0  0  0  0  0  0  0  0
   10.1826  -12.9111   27.9681 C   0  0  0  0  0  0  0  0  0  0  0  0
    9.9515  -14.2446   28.6499 C   0  0  0  0  0  0  0  0  0  0  0  0
   10.0849  -15.1985   27.4472 C   0  0  1  0  0  0  0  0  0  0  0  0
    9.7569  -16.5547   27.7950 C   0  0  0  0  0  0  0  0  0  0  0  0
   10.7169  -17.2694   28.5805 O   0  0  0  0  0  0  0  0  0  0  0  0
    8.7554  -17.2167   27.5173 O   0  0  0  0  0  0  0  0  0  0  0  0
  2  3  1  0
  2  1  1  1
  4  2  1  0
  4  5  1  6
  6  4  1  0
  6  8  1  0
  7  6  2  0
  9  8  1  0
  9 12  1  0
  9 10  1  1
 11 10  1  0
 12 14  1  0
 12 13  2  0
 14 15  1  0
 16 15  1  0
 17 16  1  0
 18 17  1  0
 18 14  1  0
 18 19  1  1
 19 20  1  0
 21 19  2  0
M  END
$$$$
