TCP.pdb
     RDKit          3D

 21 21  0  0  1  0  0  0  0  0999 V2000
    9.1168  -15.2253   19.1860 C   0  0  0  0  0  0  0  0  0  0  0  0
    8.8274  -14.9656   20.6470 C   0  0  1  0  0  0  0  0  0  0  0  0
    8.9977  -13.6116   20.9345 O   0  0  0  0  0  0  0  0  0  0  0  0
    7.3851  -15.3700   20.9243 C   0  0  2  0  0  0  0  0  0  0  0  0
    6.5245  -14.4855   20.1812 N   0  0  0  0  0  0  0  0  0  0  0  0
    7.1020  -15.2885   22.3850 C   0  0  0  0  0  0  0  0  0  0  0  0
    6.4748  -14.2780   22.7818 O   0  0  0  0  0  0  0  0  0  0  0  0
    7.5426  -16.3289   23.2370 N   0  0  0  0  0  0  0  0  0  0  0  0
    7.2734  -16.2825   24.6527 C   0  0  1  0  0  0  0  0  0  0  0  0
    6.7990  -17.6394   25.0512 C   0  0  0  0  0  0  0  0  0  0  0  0
    6.8076  -17.6643   26.8901 S   0  0  0  0  0  0  0  0  0  0  0  0
    8.4575  -15.7805   25.4038 C   0  0  0  0  0  0  0  0  0  0  0  0
    9.4212  -16.5757   25.4469 O   0  0  0  0  0  0  0  0  0  0  0  0
    8.5058  -14.5252   26.0165 N   0  0  0  0  0  0  0  0  0  0  0  0
    7.7779  -13.3027   25.5971 C   0  0  0  0  0  0  0  0  0  0  0  0
    7.1846  -12.8366   26.9031 C   0  0  0  0  0  0  0  0  0  0  0  0
    7.9905  -13.5233   27.9873 C   0  0  0  0  0  0  0  0  0  0  0  0
    9.1882  -14.0330   27.1628 C   0  0  1  0  0  0  0  0  0  0  0  0
   10.0613  -14.8704   27.9402 C   0  0  0  0  0  0  0  0  0  0  0  0
    9.8581  -16.2839   27.8393 O   0  0  0  0  0  0  0  0  0  0  0  0
   10.9802  -14.5569   28.6989 O   0  0  0  0  0  0  0  0  0  0  0  0
  2  3  1  0
  2  1  1  6
  4  2  1  0
  4  5  1  6
  6  4  1  0
  6  8  1  0
  7  6  2  0
  9  8  1  0
  9 12  1  0
  9 10  1  1
 11 10  1  0
 12 14  1  0
 12 13  2  0
 14 15  1  0
 16 15  1  0
 17 16  1  0
 18 17  1  0
 18 14  1  0
 18 19  1  1
 19 20  1  0
 21 19  2  0
M  END
$$$$
