TCP.pdb
     RDKit          3D

 21 21  0  0  1  0  0  0  0  0999 V2000
    5.7312  -20.9833   20.9310 C   0  0  0  0  0  0  0  0  0  0  0  0
    5.8550  -19.4861   21.1003 C   0  0  1  0  0  0  0  0  0  0  0  0
    4.7015  -18.8556   20.6346 O   0  0  0  0  0  0  0  0  0  0  0  0
    6.0369  -19.1895   22.5834 C   0  0  2  0  0  0  0  0  0  0  0  0
    4.8874  -19.7025   23.2837 N   0  0  0  0  0  0  0  0  0  0  0  0
    6.1826  -17.7222   22.7982 C   0  0  0  0  0  0  0  0  0  0  0  0
    5.3724  -17.1856   23.5903 O   0  0  0  0  0  0  0  0  0  0  0  0
    7.2031  -17.0183   22.1158 N   0  0  0  0  0  0  0  0  0  0  0  0
    7.6643  -15.7410   22.6001 C   0  0  1  0  0  0  0  0  0  0  0  0
    7.9653  -15.9076   24.0516 C   0  0  0  0  0  0  0  0  0  0  0  0
    8.6926  -14.3131   24.6091 S   0  0  0  0  0  0  0  0  0  0  0  0
    8.7951  -15.2348   21.7736 C   0  0  0  0  0  0  0  0  0  0  0  0
    9.9281  -15.5728   22.1798 O   0  0  0  0  0  0  0  0  0  0  0  0
    8.6229  -14.4456   20.6330 N   0  0  0  0  0  0  0  0  0  0  0  0
    7.3373  -13.9667   20.0690 C   0  0  0  0  0  0  0  0  0  0  0  0
    7.6259  -12.5029   19.8490 C   0  0  0  0  0  0  0  0  0  0  0  0
    9.1363  -12.3791   19.8458 C   0  0  0  0  0  0  0  0  0  0  0  0
    9.5363  -13.8612   19.7131 C   0  0  1  0  0  0  0  0  0  0  0  0
   10.9567  -14.0499   19.8352 C   0  0  0  0  0  0  0  0  0  0  0  0
   11.7221  -13.9867   18.6271 O   0  0  0  0  0  0  0  0  0  0  0  0
   11.6373  -14.2628   20.8401 O   0  0  0  0  0  0  0  0  0  0  0  0
  2  3  1  0
  2  1  1  1
  4  2  1  0
  4  5  1  1
  6  4  1  0
  6  8  1  0
  7  6  2  0
  9  8  1  0
  9 12  1  0
  9 10  1  1
 11 10  1  0
 12 14  1  0
 12 13  2  0
 14 15  1  0
 16 15  1  0
 17 16  1  0
 18 17  1  0
 18 14  1  0
 18 19  1  1
 19 20  1  0
 21 19  2  0
M  END
$$$$
