DRS.pdb
     RDKit          3D

 26 25  0  0  1  0  0  0  0  0999 V2000
   17.4626  -10.1153  -14.8678 N   0  0  0  0  0  0  0  0  0  0  0  0
   18.2833   -9.3419  -13.9812 C   0  0  1  0  0  0  0  0  0  0  0  0
   19.5355   -8.8909  -14.6931 C   0  0  0  0  0  0  0  0  0  0  0  0
   20.4535  -10.0156  -14.9630 C   0  0  0  0  0  0  0  0  0  0  0  0
   20.1584  -11.1852  -14.6034 O   0  0  0  0  0  0  0  0  0  0  0  0
   17.5735   -8.1410  -13.4960 C   0  0  0  0  0  0  0  0  0  0  0  0
   16.9344   -7.4645  -14.3268 O   0  0  0  0  0  0  0  0  0  0  0  0
   21.6487   -9.8057  -15.6107 O   0  0  0  0  0  0  0  0  0  0  0  0
   12.6003   -6.8569   -8.6499 N   0  0  0  0  0  0  0  0  0  0  0  0
   13.1071   -8.0997   -8.1574 C   0  0  0  0  0  0  0  0  0  0  0  0
   12.3235   -9.1100   -8.0641 N   0  0  0  0  0  0  0  0  0  0  0  0
   14.4569   -8.2283   -7.7767 N   0  0  0  0  0  0  0  0  0  0  0  0
   15.4528   -7.2259   -8.1614 C   0  0  0  0  0  0  0  0  0  0  0  0
   15.6660   -7.3860   -9.6471 C   0  0  0  0  0  0  0  0  0  0  0  0
   16.7330   -6.4657  -10.1800 C   0  0  0  0  0  0  0  0  0  0  0  0
   16.9372   -6.5754  -11.6316 C   0  0  2  0  0  0  0  0  0  0  0  0
   17.5937   -7.7376  -12.1413 N   0  0  0  0  0  0  0  0  0  0  0  0
   17.5116   -5.3158  -12.2372 C   0  0  0  0  0  0  0  0  0  0  0  0
   18.7435   -5.0397  -12.1211 O   0  0  0  0  0  0  0  0  0  0  0  0
   12.6668  -10.0517   -7.7126 O   0  0  0  0  0  0  0  0  0  0  0  0
   17.9061   -2.1839  -15.6647 C   0  0  0  0  0  0  0  0  0  0  0  0
   17.4119   -3.3460  -15.0709 C   0  0  1  0  0  0  0  0  0  0  0  0
   17.2613   -3.1815  -13.5763 N   0  0  0  0  0  0  0  0  0  0  0  0
   16.7325   -4.3850  -12.9559 C   0  0  0  0  0  0  0  0  0  0  0  0
   16.4939   -1.9831  -13.1955 O   0  0  0  0  0  0  0  0  0  0  0  0
   15.2917   -2.0892  -12.8925 O   0  0  0  0  0  0  0  0  0  0  0  0
  2  1  1  6
  2  3  1  0
  3  4  1  0
  4  8  1  0
  5  4  2  0
  6 17  1  0
  6  2  1  0
  7  6  2  0
  9 10  1  0
 10 11  2  0
 10 12  1  0
 12 13  1  0
 14 13  1  0
 16 15  1  1
 15 14  1  0
 16 17  1  0
 18 16  1  0
 19 18  2  0
 20 21  1  0
 22 21  1  1
 22 24  1  0
 22 23  1  0
 23 18  1  0
 24 26  1  0
 25 24  2  0
M  END
$$$$
