DRS.pdb
     RDKit          3D

 26 25  0  0  1  0  0  0  0  0999 V2000
   25.5533  -11.7542  -17.6288 N   0  0  0  0  0  0  0  0  0  0  0  0
   25.5856  -10.7079  -16.6479 C   0  0  1  0  0  0  0  0  0  0  0  0
   26.7596   -9.7939  -16.9017 C   0  0  0  0  0  0  0  0  0  0  0  0
   28.0498  -10.4966  -16.7521 C   0  0  0  0  0  0  0  0  0  0  0  0
   28.0836  -11.7326  -16.5170 O   0  0  0  0  0  0  0  0  0  0  0  0
   24.3538   -9.8938  -16.6842 C   0  0  0  0  0  0  0  0  0  0  0  0
   23.8709   -9.6143  -17.8001 O   0  0  0  0  0  0  0  0  0  0  0  0
   29.2381   -9.8131  -16.8653 O   0  0  0  0  0  0  0  0  0  0  0  0
   16.4616  -11.1748  -14.0566 N   0  0  0  0  0  0  0  0  0  0  0  0
   16.8185  -11.1194  -15.4400 C   0  0  0  0  0  0  0  0  0  0  0  0
   15.9823  -11.5194  -16.3256 N   0  0  0  0  0  0  0  0  0  0  0  0
   18.0757  -10.6280  -15.8414 N   0  0  0  0  0  0  0  0  0  0  0  0
   19.0675  -10.1871  -14.8583 C   0  0  0  0  0  0  0  0  0  0  0  0
   20.2379   -9.6502  -15.6459 C   0  0  0  0  0  0  0  0  0  0  0  0
   21.3535   -9.1595  -14.7605 C   0  0  0  0  0  0  0  0  0  0  0  0
   22.5151   -8.6476  -15.5019 C   0  0  2  0  0  0  0  0  0  0  0  0
   23.7128   -9.4266  -15.5141 N   0  0  0  0  0  0  0  0  0  0  0  0
   22.8114   -7.1981  -15.1945 C   0  0  0  0  0  0  0  0  0  0  0  0
   23.4899   -6.8737  -14.1739 O   0  0  0  0  0  0  0  0  0  0  0  0
   16.2195  -11.5110  -17.3608 O   0  0  0  0  0  0  0  0  0  0  0  0
   22.9352   -4.2970  -18.1052 C   0  0  0  0  0  0  0  0  0  0  0  0
   22.2969   -3.8683  -16.9407 C   0  0  2  0  0  0  0  0  0  0  0  0
   22.6654   -4.7339  -15.7582 N   0  0  0  0  0  0  0  0  0  0  0  0
   22.3628   -6.1341  -16.0049 C   0  0  0  0  0  0  0  0  0  0  0  0
   22.0892   -4.2619  -14.4872 O   0  0  0  0  0  0  0  0  0  0  0  0
   20.9148   -4.5517  -14.1953 O   0  0  0  0  0  0  0  0  0  0  0  0
  2  1  1  6
  2  3  1  0
  3  4  1  0
  4  8  1  0
  5  4  2  0
  6 17  1  0
  6  2  1  0
  7  6  2  0
  9 10  1  0
 10 11  2  0
 10 12  1  0
 12 13  1  0
 14 13  1  0
 16 15  1  1
 15 14  1  0
 16 17  1  0
 18 16  1  0
 19 18  2  0
 20 21  1  0
 22 21  1  6
 22 24  1  0
 22 23  1  0
 23 18  1  0
 24 26  1  0
 25 24  2  0
M  END
$$$$
