DRS.pdb
     RDKit          3D

 26 25  0  0  1  0  0  0  0  0999 V2000
   16.6395  -10.2165  -14.1111 N   0  0  0  0  0  0  0  0  0  0  0  0
   17.3940   -9.4963  -13.1263 C   0  0  1  0  0  0  0  0  0  0  0  0
   18.6751   -8.9760  -13.7317 C   0  0  0  0  0  0  0  0  0  0  0  0
   19.5932  -10.0699  -14.1074 C   0  0  0  0  0  0  0  0  0  0  0  0
   19.2736  -11.2715  -13.9116 O   0  0  0  0  0  0  0  0  0  0  0  0
   16.6349   -8.3444  -12.5987 C   0  0  0  0  0  0  0  0  0  0  0  0
   16.0692   -7.5928  -13.4180 O   0  0  0  0  0  0  0  0  0  0  0  0
   20.8150   -9.7959  -14.6766 O   0  0  0  0  0  0  0  0  0  0  0  0
   11.2646   -9.3345   -6.1739 N   0  0  0  0  0  0  0  0  0  0  0  0
   11.3143  -10.0155   -7.4300 C   0  0  0  0  0  0  0  0  0  0  0  0
   10.5214  -10.9989   -7.6484 N   0  0  0  0  0  0  0  0  0  0  0  0
   12.2212   -9.6170   -8.4310 N   0  0  0  0  0  0  0  0  0  0  0  0
   13.1918   -8.5464   -8.1935 C   0  0  0  0  0  0  0  0  0  0  0  0
   13.9526   -8.3676   -9.4847 C   0  0  0  0  0  0  0  0  0  0  0  0
   15.0219   -7.3112   -9.3835 C   0  0  0  0  0  0  0  0  0  0  0  0
   15.7092   -7.0421  -10.6548 C   0  0  2  0  0  0  0  0  0  0  0  0
   16.5294   -8.0685  -11.2163 N   0  0  0  0  0  0  0  0  0  0  0  0
   16.4225   -5.7099  -10.6622 C   0  0  0  0  0  0  0  0  0  0  0  0
   17.5304   -5.5603  -10.0644 O   0  0  0  0  0  0  0  0  0  0  0  0
   10.5212  -11.5205   -8.5735 O   0  0  0  0  0  0  0  0  0  0  0  0
   17.1684   -1.4916  -12.9030 C   0  0  0  0  0  0  0  0  0  0  0  0
   16.4490   -2.6821  -12.7908 C   0  0  2  0  0  0  0  0  0  0  0  0
   16.6183   -3.3030  -11.4236 N   0  0  0  0  0  0  0  0  0  0  0  0
   15.9142   -4.5705  -11.3205 C   0  0  0  0  0  0  0  0  0  0  0  0
   16.2723   -2.3897  -10.3208 O   0  0  0  0  0  0  0  0  0  0  0  0
   15.2039   -2.5447   -9.7018 O   0  0  0  0  0  0  0  0  0  0  0  0
  2  1  1  6
  2  3  1  0
  3  4  1  0
  4  8  1  0
  5  4  2  0
  6 17  1  0
  6  2  1  0
  7  6  2  0
  9 10  1  0
 10 11  2  0
 10 12  1  0
 12 13  1  0
 14 13  1  0
 16 15  1  1
 15 14  1  0
 16 17  1  0
 18 16  1  0
 19 18  2  0
 20 21  1  0
 22 21  1  6
 22 24  1  0
 22 23  1  0
 23 18  1  0
 24 26  1  0
 25 24  2  0
M  END
$$$$
