DRS.pdb
     RDKit          3D

 26 25  0  0  1  0  0  0  0  0999 V2000
   16.5007  -10.8224  -15.6786 N   0  0  0  0  0  0  0  0  0  0  0  0
   17.5845  -10.7478  -14.7418 C   0  0  1  0  0  0  0  0  0  0  0  0
   18.8489  -11.2858  -15.3662 C   0  0  0  0  0  0  0  0  0  0  0  0
   18.7761  -12.7430  -15.5945 C   0  0  0  0  0  0  0  0  0  0  0  0
   18.6256  -13.5368  -14.6294 O   0  0  0  0  0  0  0  0  0  0  0  0
   17.8384   -9.3561  -14.3175 C   0  0  0  0  0  0  0  0  0  0  0  0
   17.8012   -8.4637  -15.1886 O   0  0  0  0  0  0  0  0  0  0  0  0
   18.8731  -13.2597  -16.8656 O   0  0  0  0  0  0  0  0  0  0  0  0
   14.7337   -6.2597   -7.0443 N   0  0  0  0  0  0  0  0  0  0  0  0
   14.0729   -6.9963   -8.0763 C   0  0  0  0  0  0  0  0  0  0  0  0
   12.8539   -7.3583   -7.9138 N   0  0  0  0  0  0  0  0  0  0  0  0
   14.7438   -7.3260   -9.2698 N   0  0  0  0  0  0  0  0  0  0  0  0
   16.1716   -7.0482   -9.4396 C   0  0  0  0  0  0  0  0  0  0  0  0
   16.5328   -7.5112  -10.8301 C   0  0  0  0  0  0  0  0  0  0  0  0
   17.9967   -7.3313  -11.1367 C   0  0  0  0  0  0  0  0  0  0  0  0
   18.3573   -7.6731  -12.5202 C   0  0  2  0  0  0  0  0  0  0  0  0
   18.1187   -9.0058  -12.9770 N   0  0  0  0  0  0  0  0  0  0  0  0
   19.7467   -7.2104  -12.8928 C   0  0  0  0  0  0  0  0  0  0  0  0
   20.7698   -7.8727  -12.5440 O   0  0  0  0  0  0  0  0  0  0  0  0
   12.2914   -7.7935   -8.7027 O   0  0  0  0  0  0  0  0  0  0  0  0
   22.6057   -4.8171  -15.9253 C   0  0  0  0  0  0  0  0  0  0  0  0
   21.3365   -5.2367  -15.5249 C   0  0  2  0  0  0  0  0  0  0  0  0
   21.3109   -5.5951  -14.0571 N   0  0  0  0  0  0  0  0  0  0  0  0
   19.9914   -6.0372  -13.6370 C   0  0  0  0  0  0  0  0  0  0  0  0
   21.8373   -4.5295  -13.1868 O   0  0  0  0  0  0  0  0  0  0  0  0
   23.0201   -4.5729  -12.8026 O   0  0  0  0  0  0  0  0  0  0  0  0
  2  1  1  6
  2  3  1  0
  3  4  1  0
  4  8  1  0
  5  4  2  0
  6 17  1  0
  6  2  1  0
  7  6  2  0
  9 10  1  0
 10 11  2  0
 10 12  1  0
 12 13  1  0
 14 13  1  0
 16 15  1  1
 15 14  1  0
 16 17  1  0
 18 16  1  0
 19 18  2  0
 20 21  1  0
 22 21  1  6
 22 24  1  0
 22 23  1  0
 23 18  1  0
 24 26  1  0
 25 24  2  0
M  END
$$$$
