DRS.pdb
     RDKit          3D

 26 25  0  0  1  0  0  0  0  0999 V2000
   16.4136  -11.2438  -15.5428 N   0  0  0  0  0  0  0  0  0  0  0  0
   17.4412  -11.1808  -14.5439 C   0  0  1  0  0  0  0  0  0  0  0  0
   18.7193  -11.7833  -15.0745 C   0  0  0  0  0  0  0  0  0  0  0  0
   18.6545  -13.2577  -15.1290 C   0  0  0  0  0  0  0  0  0  0  0  0
   17.6530  -13.8729  -14.6788 O   0  0  0  0  0  0  0  0  0  0  0  0
   17.7223   -9.7871  -14.1438 C   0  0  0  0  0  0  0  0  0  0  0  0
   17.8054   -8.9265  -15.0432 O   0  0  0  0  0  0  0  0  0  0  0  0
   19.6880  -13.9857  -15.6710 O   0  0  0  0  0  0  0  0  0  0  0  0
   14.6282   -6.5745   -6.8657 N   0  0  0  0  0  0  0  0  0  0  0  0
   13.9126   -7.1596   -7.9564 C   0  0  0  0  0  0  0  0  0  0  0  0
   12.6599   -7.4026   -7.8336 N   0  0  0  0  0  0  0  0  0  0  0  0
   14.5664   -7.4689   -9.1648 N   0  0  0  0  0  0  0  0  0  0  0  0
   16.0214   -7.3601   -9.2901 C   0  0  0  0  0  0  0  0  0  0  0  0
   16.3566   -7.7483  -10.7097 C   0  0  0  0  0  0  0  0  0  0  0  0
   17.8348   -7.6829  -10.9926 C   0  0  0  0  0  0  0  0  0  0  0  0
   18.1916   -8.0702  -12.3651 C   0  0  2  0  0  0  0  0  0  0  0  0
   17.8985   -9.4008  -12.7954 N   0  0  0  0  0  0  0  0  0  0  0  0
   19.6031   -7.6770  -12.7344 C   0  0  0  0  0  0  0  0  0  0  0  0
   20.5961   -8.3480  -12.3212 O   0  0  0  0  0  0  0  0  0  0  0  0
   12.0716   -7.7285   -8.6556 O   0  0  0  0  0  0  0  0  0  0  0  0
   22.6056   -5.7811  -15.9203 C   0  0  0  0  0  0  0  0  0  0  0  0
   21.3305   -6.1593  -15.4979 C   0  0  1  0  0  0  0  0  0  0  0  0
   21.2404   -6.2095  -13.9903 N   0  0  0  0  0  0  0  0  0  0  0  0
   19.9022   -6.5622  -13.5455 C   0  0  0  0  0  0  0  0  0  0  0  0
   21.7337   -4.9859  -13.3350 O   0  0  0  0  0  0  0  0  0  0  0  0
   20.9322   -4.0885  -13.0174 O   0  0  0  0  0  0  0  0  0  0  0  0
  2  1  1  6
  2  3  1  0
  3  4  1  0
  4  8  1  0
  5  4  2  0
  6 17  1  0
  6  2  1  0
  7  6  2  0
  9 10  1  0
 10 11  2  0
 10 12  1  0
 12 13  1  0
 14 13  1  0
 16 15  1  1
 15 14  1  0
 16 17  1  0
 18 16  1  0
 19 18  2  0
 20 21  1  0
 22 21  1  6
 22 24  1  0
 22 23  1  0
 23 18  1  0
 24 26  1  0
 25 24  2  0
M  END
$$$$
