DRS.pdb
     RDKit          3D

 26 25  0  0  1  0  0  0  0  0999 V2000
   18.4816  -12.1215  -16.9631 N   0  0  0  0  0  0  0  0  0  0  0  0
   18.7926  -11.4072  -15.7586 C   0  0  1  0  0  0  0  0  0  0  0  0
   19.7281  -10.2618  -16.0607 C   0  0  0  0  0  0  0  0  0  0  0  0
   21.0658  -10.7341  -16.4710 C   0  0  0  0  0  0  0  0  0  0  0  0
   21.5481  -11.7924  -15.9897 O   0  0  0  0  0  0  0  0  0  0  0  0
   17.5771  -10.8530  -15.1288 C   0  0  0  0  0  0  0  0  0  0  0  0
   16.7387  -10.2965  -15.8663 O   0  0  0  0  0  0  0  0  0  0  0  0
   21.8100  -10.0254  -17.3853 O   0  0  0  0  0  0  0  0  0  0  0  0
   11.3258  -12.1843  -11.4644 N   0  0  0  0  0  0  0  0  0  0  0  0
   11.3152  -11.1475  -10.4801 C   0  0  0  0  0  0  0  0  0  0  0  0
   10.2000  -10.6258  -10.1227 N   0  0  0  0  0  0  0  0  0  0  0  0
   12.5142  -10.6949   -9.8963 N   0  0  0  0  0  0  0  0  0  0  0  0
   13.8007  -11.3089  -10.2315 C   0  0  0  0  0  0  0  0  0  0  0  0
   14.3519  -10.5304  -11.4012 C   0  0  0  0  0  0  0  0  0  0  0  0
   15.6577  -11.0893  -11.9032 C   0  0  0  0  0  0  0  0  0  0  0  0
   16.1847  -10.3907  -13.0844 C   0  0  2  0  0  0  0  0  0  0  0  0
   17.3349  -10.9302  -13.7382 N   0  0  0  0  0  0  0  0  0  0  0  0
   16.3305   -8.9026  -12.8658 C   0  0  0  0  0  0  0  0  0  0  0  0
   17.2373   -8.4405  -12.1100 O   0  0  0  0  0  0  0  0  0  0  0  0
   10.1458   -9.9024   -9.3470 O   0  0  0  0  0  0  0  0  0  0  0  0
   16.8323   -4.6471  -14.3868 C   0  0  0  0  0  0  0  0  0  0  0  0
   16.6761   -6.0330  -14.4342 C   0  0  1  0  0  0  0  0  0  0  0  0
   15.6854   -6.5129  -13.3990 N   0  0  0  0  0  0  0  0  0  0  0  0
   15.4861   -7.9508  -13.4750 C   0  0  0  0  0  0  0  0  0  0  0  0
   14.4089   -5.7780  -13.4279 O   0  0  0  0  0  0  0  0  0  0  0  0
   13.4269   -6.2674  -14.0150 O   0  0  0  0  0  0  0  0  0  0  0  0
  2  1  1  6
  2  3  1  0
  3  4  1  0
  4  8  1  0
  5  4  2  0
  6 17  1  0
  6  2  1  0
  7  6  2  0
  9 10  1  0
 10 11  2  0
 10 12  1  0
 12 13  1  0
 14 13  1  0
 16 15  1  1
 15 14  1  0
 16 17  1  0
 18 16  1  0
 19 18  2  0
 20 21  1  0
 22 21  1  1
 22 24  1  0
 22 23  1  0
 23 18  1  0
 24 26  1  0
 25 24  2  0
M  END
$$$$
