DRS.pdb
     RDKit          3D

 26 25  0  0  1  0  0  0  0  0999 V2000
   16.0242   -9.9849  -16.7029 N   0  0  0  0  0  0  0  0  0  0  0  0
   16.6353   -9.8538  -15.4117 C   0  0  1  0  0  0  0  0  0  0  0  0
   17.8940  -10.6841  -15.3460 C   0  0  0  0  0  0  0  0  0  0  0  0
   17.6000  -12.1301  -15.2869 C   0  0  0  0  0  0  0  0  0  0  0  0
   16.4118  -12.5447  -15.3113 O   0  0  0  0  0  0  0  0  0  0  0  0
   16.9955   -8.4508  -15.1233 C   0  0  0  0  0  0  0  0  0  0  0  0
   17.1548   -7.6780  -16.0896 O   0  0  0  0  0  0  0  0  0  0  0  0
   18.6189  -13.0503  -15.2023 O   0  0  0  0  0  0  0  0  0  0  0  0
   14.3347   -5.7887   -7.5779 N   0  0  0  0  0  0  0  0  0  0  0  0
   14.2913   -7.0755   -8.1994 C   0  0  0  0  0  0  0  0  0  0  0  0
   13.5130   -7.9792   -7.7294 N   0  0  0  0  0  0  0  0  0  0  0  0
   15.0906   -7.3611   -9.3232 N   0  0  0  0  0  0  0  0  0  0  0  0
   15.6296   -6.2895  -10.1634 C   0  0  0  0  0  0  0  0  0  0  0  0
   16.3326   -6.9650  -11.3157 C   0  0  0  0  0  0  0  0  0  0  0  0
   16.8609   -5.9811  -12.3267 C   0  0  0  0  0  0  0  0  0  0  0  0
   17.5118   -6.6137  -13.4831 C   0  0  2  0  0  0  0  0  0  0  0  0
   17.1638   -7.9608  -13.8080 N   0  0  0  0  0  0  0  0  0  0  0  0
   19.0108   -6.4226  -13.4860 C   0  0  0  0  0  0  0  0  0  0  0  0
   19.7812   -7.3036  -12.9988 O   0  0  0  0  0  0  0  0  0  0  0  0
   13.4223   -8.9320   -8.1898 O   0  0  0  0  0  0  0  0  0  0  0  0
   22.8156   -3.5042  -14.5805 C   0  0  0  0  0  0  0  0  0  0  0  0
   21.4344   -3.7029  -14.5748 C   0  0  1  0  0  0  0  0  0  0  0  0
   21.0773   -5.0850  -14.0788 N   0  0  0  0  0  0  0  0  0  0  0  0
   19.6377   -5.2770  -14.0195 C   0  0  0  0  0  0  0  0  0  0  0  0
   21.7324   -5.4360  -12.8069 O   0  0  0  0  0  0  0  0  0  0  0  0
   21.2602   -5.0210  -11.7330 O   0  0  0  0  0  0  0  0  0  0  0  0
  2  1  1  6
  2  3  1  0
  3  4  1  0
  4  8  1  0
  5  4  2  0
  6 17  1  0
  6  2  1  0
  7  6  2  0
  9 10  1  0
 10 11  2  0
 10 12  1  0
 12 13  1  0
 14 13  1  0
 16 15  1  1
 15 14  1  0
 16 17  1  0
 18 16  1  0
 19 18  2  0
 20 21  1  0
 22 21  1  6
 22 24  1  0
 22 23  1  0
 23 18  1  0
 24 26  1  0
 25 24  2  0
M  END
$$$$
