DRS.pdb
     RDKit          3D

 26 25  0  0  1  0  0  0  0  0999 V2000
   18.5984  -12.3243  -15.6109 N   0  0  0  0  0  0  0  0  0  0  0  0
   19.0400  -11.2260  -16.4211 C   0  0  1  0  0  0  0  0  0  0  0  0
   17.8966  -10.2733  -16.6727 C   0  0  0  0  0  0  0  0  0  0  0  0
   16.8216  -10.8982  -17.4695 C   0  0  0  0  0  0  0  0  0  0  0  0
   15.7007  -11.1449  -16.9528 O   0  0  0  0  0  0  0  0  0  0  0  0
   20.1286  -10.4732  -15.7656 C   0  0  0  0  0  0  0  0  0  0  0  0
   20.0391  -10.2659  -14.5387 O   0  0  0  0  0  0  0  0  0  0  0  0
   17.0259  -11.2236  -18.7902 O   0  0  0  0  0  0  0  0  0  0  0  0
   28.5012  -11.2171  -16.5941 N   0  0  0  0  0  0  0  0  0  0  0  0
   27.2404  -11.8230  -16.2980 C   0  0  0  0  0  0  0  0  0  0  0  0
   27.1370  -13.1007  -16.2977 N   0  0  0  0  0  0  0  0  0  0  0  0
   26.1122  -11.0333  -16.0037 N   0  0  0  0  0  0  0  0  0  0  0  0
   26.2045   -9.5734  -15.9347 C   0  0  0  0  0  0  0  0  0  0  0  0
   24.8361   -9.0789  -15.5333 C   0  0  0  0  0  0  0  0  0  0  0  0
   23.7270   -9.8006  -16.2534 C   0  0  0  0  0  0  0  0  0  0  0  0
   22.3813   -9.3561  -15.8629 C   0  0  2  0  0  0  0  0  0  0  0  0
   21.2525   -9.9862  -16.4714 N   0  0  0  0  0  0  0  0  0  0  0  0
   22.2371   -7.8520  -15.8741 C   0  0  0  0  0  0  0  0  0  0  0  0
   22.0600   -7.2221  -16.9599 O   0  0  0  0  0  0  0  0  0  0  0  0
   26.2076  -13.5851  -16.1258 O   0  0  0  0  0  0  0  0  0  0  0  0
   21.5054   -3.7816  -13.2361 C   0  0  0  0  0  0  0  0  0  0  0  0
   21.7189   -5.1602  -13.2700 C   0  0  1  0  0  0  0  0  0  0  0  0
   22.0454   -5.6343  -14.6671 N   0  0  0  0  0  0  0  0  0  0  0  0
   22.2886   -7.0670  -14.7031 C   0  0  0  0  0  0  0  0  0  0  0  0
   23.1368   -4.8747  -15.3012 O   0  0  0  0  0  0  0  0  0  0  0  0
   24.3196   -5.1409  -15.0208 O   0  0  0  0  0  0  0  0  0  0  0  0
  2  1  1  1
  2  3  1  0
  3  4  1  0
  4  8  1  0
  5  4  2  0
  6 17  1  0
  6  2  1  0
  7  6  2  0
  9 10  1  0
 10 11  2  0
 10 12  1  0
 12 13  1  0
 14 13  1  0
 16 15  1  6
 15 14  1  0
 16 17  1  0
 18 16  1  0
 19 18  2  0
 20 21  1  0
 22 21  1  6
 22 24  1  0
 22 23  1  0
 23 18  1  0
 24 26  1  0
 25 24  2  0
M  END
$$$$
