DRS.pdb
     RDKit          3D

 26 25  0  0  1  0  0  0  0  0999 V2000
   14.4161  -10.8593  -11.1393 N   0  0  0  0  0  0  0  0  0  0  0  0
   15.8453  -10.7473  -11.1913 C   0  0  1  0  0  0  0  0  0  0  0  0
   16.3843  -11.5203  -12.3703 C   0  0  0  0  0  0  0  0  0  0  0  0
   16.2180  -12.9776  -12.1987 C   0  0  0  0  0  0  0  0  0  0  0  0
   15.5692  -13.4388  -11.2238 O   0  0  0  0  0  0  0  0  0  0  0  0
   16.2733   -9.3406  -11.3304 C   0  0  0  0  0  0  0  0  0  0  0  0
   15.9375   -8.7272  -12.3635 O   0  0  0  0  0  0  0  0  0  0  0  0
   16.7703  -13.8577  -13.1001 O   0  0  0  0  0  0  0  0  0  0  0  0
   13.7416   -3.8428   -6.0213 N   0  0  0  0  0  0  0  0  0  0  0  0
   13.0632   -4.8465   -6.7804 C   0  0  0  0  0  0  0  0  0  0  0  0
   11.7918   -4.9703   -6.6719 N   0  0  0  0  0  0  0  0  0  0  0  0
   13.7740   -5.6983   -7.6478 N   0  0  0  0  0  0  0  0  0  0  0  0
   15.2160   -5.5435   -7.8504 C   0  0  0  0  0  0  0  0  0  0  0  0
   15.5982   -6.5101   -8.9450 C   0  0  0  0  0  0  0  0  0  0  0  0
   17.0501   -6.4005   -9.3313 C   0  0  0  0  0  0  0  0  0  0  0  0
   17.4419   -7.3061  -10.4210 C   0  0  2  0  0  0  0  0  0  0  0  0
   17.0400   -8.6752  -10.3466 N   0  0  0  0  0  0  0  0  0  0  0  0
   18.9043   -7.1867  -10.7821 C   0  0  0  0  0  0  0  0  0  0  0  0
   19.8069   -7.5884   -9.9877 O   0  0  0  0  0  0  0  0  0  0  0  0
   11.2601   -5.7342   -7.1835 O   0  0  0  0  0  0  0  0  0  0  0  0
   20.5788   -8.5961  -13.6197 C   0  0  0  0  0  0  0  0  0  0  0  0
   21.0144   -7.2720  -13.6855 C   0  0  2  0  0  0  0  0  0  0  0  0
   20.7483   -6.5381  -12.3916 N   0  0  0  0  0  0  0  0  0  0  0  0
   19.3517   -6.6328  -12.0000 C   0  0  0  0  0  0  0  0  0  0  0  0
   21.2235   -5.1438  -12.4030 O   0  0  0  0  0  0  0  0  0  0  0  0
   20.4147   -4.2165  -12.5886 O   0  0  0  0  0  0  0  0  0  0  0  0
  2  1  1  6
  2  3  1  0
  3  4  1  0
  4  8  1  0
  5  4  2  0
  6 17  1  0
  6  2  1  0
  7  6  2  0
  9 10  1  0
 10 11  2  0
 10 12  1  0
 12 13  1  0
 14 13  1  0
 16 15  1  1
 15 14  1  0
 16 17  1  0
 18 16  1  0
 19 18  2  0
 20 21  1  0
 22 21  1  1
 22 24  1  0
 22 23  1  0
 23 18  1  0
 24 26  1  0
 25 24  2  0
M  END
$$$$
