DRS.pdb
     RDKit          3D

 26 25  0  0  1  0  0  0  0  0999 V2000
   21.5903  -17.8891  -14.8154 N   0  0  0  0  0  0  0  0  0  0  0  0
   22.2075  -19.0373  -15.4141 C   0  0  1  0  0  0  0  0  0  0  0  0
   21.8672  -19.1034  -16.8831 C   0  0  0  0  0  0  0  0  0  0  0  0
   20.4596  -19.4896  -17.1076 C   0  0  0  0  0  0  0  0  0  0  0  0
   19.6737  -19.6431  -16.1365 O   0  0  0  0  0  0  0  0  0  0  0  0
   23.6781  -18.9901  -15.2855 C   0  0  0  0  0  0  0  0  0  0  0  0
   24.2231  -17.8698  -15.2189 O   0  0  0  0  0  0  0  0  0  0  0  0
   19.9819  -19.6904  -18.3818 O   0  0  0  0  0  0  0  0  0  0  0  0
   23.8888  -21.4431  -10.9245 N   0  0  0  0  0  0  0  0  0  0  0  0
   24.8584  -20.9863   -9.9783 C   0  0  0  0  0  0  0  0  0  0  0  0
   24.4708  -20.5393   -8.8410 N   0  0  0  0  0  0  0  0  0  0  0  0
   26.2336  -21.0244  -10.2793 N   0  0  0  0  0  0  0  0  0  0  0  0
   26.7141  -21.5116  -11.5740 C   0  0  0  0  0  0  0  0  0  0  0  0
   26.0422  -20.6613  -12.6247 C   0  0  0  0  0  0  0  0  0  0  0  0
   26.4720  -21.0236  -14.0224 C   0  0  0  0  0  0  0  0  0  0  0  0
   25.8959  -20.1575  -15.0612 C   0  0  2  0  0  0  0  0  0  0  0  0
   24.4779  -20.1547  -15.2364 N   0  0  0  0  0  0  0  0  0  0  0  0
   26.6083  -20.2838  -16.3878 C   0  0  0  0  0  0  0  0  0  0  0  0
   26.2435  -21.1442  -17.2444 O   0  0  0  0  0  0  0  0  0  0  0  0
   25.1537  -20.1182   -8.1450 O   0  0  0  0  0  0  0  0  0  0  0  0
   28.5292  -17.1737  -18.1155 C   0  0  0  0  0  0  0  0  0  0  0  0
   29.2618  -18.3503  -18.2775 C   0  0  2  0  0  0  0  0  0  0  0  0
   28.4103  -19.5714  -18.0177 N   0  0  0  0  0  0  0  0  0  0  0  0
   27.7019  -19.4706  -16.7525 C   0  0  0  0  0  0  0  0  0  0  0  0
   29.1547  -20.8373  -18.1325 O   0  0  0  0  0  0  0  0  0  0  0  0
   29.7507  -21.1105  -19.1902 O   0  0  0  0  0  0  0  0  0  0  0  0
  2  1  1  6
  2  3  1  0
  3  4  1  0
  4  8  1  0
  5  4  2  0
  6 17  1  0
  6  2  1  0
  7  6  2  0
  9 10  1  0
 10 11  2  0
 10 12  1  0
 12 13  1  0
 14 13  1  0
 16 15  1  1
 15 14  1  0
 16 17  1  0
 18 16  1  0
 19 18  2  0
 20 21  1  0
 22 21  1  6
 22 24  1  0
 22 23  1  0
 23 18  1  0
 24 26  1  0
 25 24  2  0
M  END
$$$$
