DRS.pdb
     RDKit          3D

 26 25  0  0  1  0  0  0  0  0999 V2000
   16.2243  -10.2507  -14.9446 N   0  0  0  0  0  0  0  0  0  0  0  0
   16.7337   -9.2860  -15.8761 C   0  0  1  0  0  0  0  0  0  0  0  0
   15.8210   -8.0852  -15.9318 C   0  0  0  0  0  0  0  0  0  0  0  0
   14.4683   -8.4404  -16.4060 C   0  0  0  0  0  0  0  0  0  0  0  0
   14.3151   -9.1873  -17.4074 O   0  0  0  0  0  0  0  0  0  0  0  0
   18.0814   -8.8206  -15.4906 C   0  0  0  0  0  0  0  0  0  0  0  0
   18.2380   -8.3771  -14.3352 O   0  0  0  0  0  0  0  0  0  0  0  0
   13.3510   -7.9602  -15.7632 O   0  0  0  0  0  0  0  0  0  0  0  0
   23.7498  -13.8027  -16.0959 N   0  0  0  0  0  0  0  0  0  0  0  0
   22.8849  -13.4440  -17.1763 C   0  0  0  0  0  0  0  0  0  0  0  0
   22.2298  -14.3576  -17.7925 N   0  0  0  0  0  0  0  0  0  0  0  0
   22.7415  -12.0993  -17.5695 N   0  0  0  0  0  0  0  0  0  0  0  0
   23.2758  -11.0082  -16.7518 C   0  0  0  0  0  0  0  0  0  0  0  0
   22.0937  -10.3823  -16.0523 C   0  0  0  0  0  0  0  0  0  0  0  0
   21.6394   -9.1076  -16.7144 C   0  0  0  0  0  0  0  0  0  0  0  0
   20.5116   -8.4567  -16.0323 C   0  0  2  0  0  0  0  0  0  0  0  0
   19.1842   -8.8598  -16.3742 N   0  0  0  0  0  0  0  0  0  0  0  0
   20.6343   -6.9508  -16.0083 C   0  0  0  0  0  0  0  0  0  0  0  0
   20.5030   -6.2691  -17.0691 O   0  0  0  0  0  0  0  0  0  0  0  0
   21.5926  -14.1311  -18.6115 O   0  0  0  0  0  0  0  0  0  0  0  0
   19.8577   -2.7188  -14.3679 C   0  0  0  0  0  0  0  0  0  0  0  0
   19.7119   -4.1020  -14.4811 C   0  0  1  0  0  0  0  0  0  0  0  0
   21.0325   -4.7742  -14.7774 N   0  0  0  0  0  0  0  0  0  0  0  0
   20.8970   -6.2205  -14.8303 C   0  0  0  0  0  0  0  0  0  0  0  0
   22.1165   -4.3556  -13.8720 O   0  0  0  0  0  0  0  0  0  0  0  0
   22.5129   -5.1302  -12.9824 O   0  0  0  0  0  0  0  0  0  0  0  0
  2  1  1  1
  2  3  1  0
  3  4  1  0
  4  8  1  0
  5  4  2  0
  6 17  1  0
  6  2  1  0
  7  6  2  0
  9 10  1  0
 10 11  2  0
 10 12  1  0
 12 13  1  0
 14 13  1  0
 16 15  1  6
 15 14  1  0
 16 17  1  0
 18 16  1  0
 19 18  2  0
 20 21  1  0
 22 21  1  6
 22 24  1  0
 22 23  1  0
 23 18  1  0
 24 26  1  0
 25 24  2  0
M  END
$$$$
