DRS.pdb
     RDKit          3D

 26 25  0  0  1  0  0  0  0  0999 V2000
   17.3514  -10.9024  -16.7148 N   0  0  0  0  0  0  0  0  0  0  0  0
   18.0236  -10.6724  -15.4686 C   0  0  1  0  0  0  0  0  0  0  0  0
   19.4280  -11.2225  -15.5265 C   0  0  0  0  0  0  0  0  0  0  0  0
   19.4412  -12.6970  -15.6078 C   0  0  0  0  0  0  0  0  0  0  0  0
   18.6697  -13.3860  -14.8907 O   0  0  0  0  0  0  0  0  0  0  0  0
   18.1079   -9.2311  -15.1571 C   0  0  0  0  0  0  0  0  0  0  0  0
   18.3745   -8.4464  -16.0896 O   0  0  0  0  0  0  0  0  0  0  0  0
   20.2980  -13.3445  -16.4672 O   0  0  0  0  0  0  0  0  0  0  0  0
   14.0515   -5.4773   -8.8215 N   0  0  0  0  0  0  0  0  0  0  0  0
   14.8107   -6.6745   -9.0069 C   0  0  0  0  0  0  0  0  0  0  0  0
   15.0234   -7.4498   -8.0084 N   0  0  0  0  0  0  0  0  0  0  0  0
   15.3247   -7.0137  -10.2734 N   0  0  0  0  0  0  0  0  0  0  0  0
   14.9558   -6.2549  -11.4704 C   0  0  0  0  0  0  0  0  0  0  0  0
   15.7378   -6.8559  -12.6130 C   0  0  0  0  0  0  0  0  0  0  0  0
   17.2241   -6.8381  -12.3681 C   0  0  0  0  0  0  0  0  0  0  0  0
   18.0159   -7.3388  -13.5010 C   0  0  2  0  0  0  0  0  0  0  0  0
   17.9001   -8.7179  -13.8564 N   0  0  0  0  0  0  0  0  0  0  0  0
   19.4644   -6.9135  -13.4342 C   0  0  0  0  0  0  0  0  0  0  0  0
   20.2619   -7.4441  -12.6038 O   0  0  0  0  0  0  0  0  0  0  0  0
   15.5915   -8.3419   -8.1058 O   0  0  0  0  0  0  0  0  0  0  0  0
   23.0954   -4.2572  -15.4063 C   0  0  0  0  0  0  0  0  0  0  0  0
   21.7476   -4.6185  -15.4168 C   0  0  2  0  0  0  0  0  0  0  0  0
   21.3999   -5.4889  -14.2314 N   0  0  0  0  0  0  0  0  0  0  0  0
   20.0124   -5.9204  -14.2729 C   0  0  0  0  0  0  0  0  0  0  0  0
   21.7480   -4.8783  -12.9368 O   0  0  0  0  0  0  0  0  0  0  0  0
   20.9080   -4.1858  -12.3340 O   0  0  0  0  0  0  0  0  0  0  0  0
  2  1  1  6
  2  3  1  0
  3  4  1  0
  4  8  1  0
  5  4  2  0
  6 17  1  0
  6  2  1  0
  7  6  2  0
  9 10  1  0
 10 11  2  0
 10 12  1  0
 12 13  1  0
 14 13  1  0
 16 15  1  1
 15 14  1  0
 16 17  1  0
 18 16  1  0
 19 18  2  0
 20 21  1  0
 22 21  1  6
 22 24  1  0
 22 23  1  0
 23 18  1  0
 24 26  1  0
 25 24  2  0
M  END
$$$$
