DRS.pdb
     RDKit          3D

 26 25  0  0  1  0  0  0  0  0999 V2000
   26.2600  -10.7300  -18.7303 N   0  0  0  0  0  0  0  0  0  0  0  0
   25.5127  -10.9988  -17.5357 C   0  0  1  0  0  0  0  0  0  0  0  0
   26.4310  -11.0012  -16.3378 C   0  0  0  0  0  0  0  0  0  0  0  0
   27.3852  -12.1277  -16.3750 C   0  0  0  0  0  0  0  0  0  0  0  0
   28.1594  -12.3449  -15.4066 O   0  0  0  0  0  0  0  0  0  0  0  0
   24.4673   -9.9800  -17.3104 C   0  0  0  0  0  0  0  0  0  0  0  0
   24.7267   -8.7990  -17.6175 O   0  0  0  0  0  0  0  0  0  0  0  0
   27.4468  -12.9591  -17.4691 O   0  0  0  0  0  0  0  0  0  0  0  0
   16.1909  -11.4966  -15.7631 N   0  0  0  0  0  0  0  0  0  0  0  0
   17.0009  -10.8220  -14.7973 C   0  0  0  0  0  0  0  0  0  0  0  0
   16.6644  -10.8476  -13.5605 N   0  0  0  0  0  0  0  0  0  0  0  0
   18.1653  -10.1328  -15.1876 N   0  0  0  0  0  0  0  0  0  0  0  0
   18.2742   -9.5153  -16.5110 C   0  0  0  0  0  0  0  0  0  0  0  0
   19.6536   -8.9069  -16.5846 C   0  0  0  0  0  0  0  0  0  0  0  0
   20.7456   -9.9434  -16.5326 C   0  0  0  0  0  0  0  0  0  0  0  0
   22.0953   -9.3897  -16.7130 C   0  0  2  0  0  0  0  0  0  0  0  0
   23.2009  -10.2932  -16.7660 N   0  0  0  0  0  0  0  0  0  0  0  0
   22.3811   -8.2335  -15.7829 C   0  0  0  0  0  0  0  0  0  0  0  0
   22.8368   -8.4322  -14.6167 O   0  0  0  0  0  0  0  0  0  0  0  0
   17.2297  -10.3407  -12.8179 O   0  0  0  0  0  0  0  0  0  0  0  0
   22.8028   -3.3737  -15.2429 C   0  0  0  0  0  0  0  0  0  0  0  0
   22.4938   -4.4578  -16.0654 C   0  0  2  0  0  0  0  0  0  0  0  0
   22.4659   -5.7521  -15.2859 N   0  0  0  0  0  0  0  0  0  0  0  0
   22.1647   -6.8868  -16.1431 C   0  0  0  0  0  0  0  0  0  0  0  0
   21.5848   -5.7042  -14.1063 O   0  0  0  0  0  0  0  0  0  0  0  0
   20.4168   -6.1255  -14.1894 O   0  0  0  0  0  0  0  0  0  0  0  0
  2  1  1  6
  2  3  1  0
  3  4  1  0
  4  8  1  0
  5  4  2  0
  6 17  1  0
  6  2  1  0
  7  6  2  0
  9 10  1  0
 10 11  2  0
 10 12  1  0
 12 13  1  0
 14 13  1  0
 16 15  1  1
 15 14  1  0
 16 17  1  0
 18 16  1  0
 19 18  2  0
 20 21  1  0
 22 21  1  6
 22 24  1  0
 22 23  1  0
 23 18  1  0
 24 26  1  0
 25 24  2  0
M  END
$$$$
