DRS.pdb
     RDKit          3D

 26 25  0  0  1  0  0  0  0  0999 V2000
   29.5692  -24.0324  -18.5168 N   0  0  0  0  0  0  0  0  0  0  0  0
   29.0278  -22.7044  -18.4818 C   0  0  1  0  0  0  0  0  0  0  0  0
   28.4202  -22.3556  -19.8187 C   0  0  0  0  0  0  0  0  0  0  0  0
   29.4128  -21.7676  -20.7405 C   0  0  0  0  0  0  0  0  0  0  0  0
   30.4362  -21.1857  -20.2952 O   0  0  0  0  0  0  0  0  0  0  0  0
   27.9766  -22.5755  -17.4523 C   0  0  0  0  0  0  0  0  0  0  0  0
   27.0797  -23.4421  -17.4214 O   0  0  0  0  0  0  0  0  0  0  0  0
   29.2365  -21.8433  -22.1026 O   0  0  0  0  0  0  0  0  0  0  0  0
   26.2010  -21.8407  -10.1490 N   0  0  0  0  0  0  0  0  0  0  0  0
   25.2295  -20.8079  -10.3323 C   0  0  0  0  0  0  0  0  0  0  0  0
   24.0914  -20.8991   -9.7493 N   0  0  0  0  0  0  0  0  0  0  0  0
   25.5088  -19.6906  -11.1427 N   0  0  0  0  0  0  0  0  0  0  0  0
   26.6579  -19.6795  -12.0504 C   0  0  0  0  0  0  0  0  0  0  0  0
   26.2555  -20.4930  -13.2564 C   0  0  0  0  0  0  0  0  0  0  0  0
   27.3535  -20.5849  -14.2838 C   0  0  0  0  0  0  0  0  0  0  0  0
   26.9969  -21.3920  -15.4595 C   0  0  2  0  0  0  0  0  0  0  0  0
   27.9523  -21.5181  -16.5144 N   0  0  0  0  0  0  0  0  0  0  0  0
   25.6268  -21.0586  -16.0028 C   0  0  0  0  0  0  0  0  0  0  0  0
   25.4610  -20.0898  -16.8035 O   0  0  0  0  0  0  0  0  0  0  0  0
   23.3463  -20.1504   -9.8600 O   0  0  0  0  0  0  0  0  0  0  0  0
   21.2672  -22.5313  -17.3242 C   0  0  0  0  0  0  0  0  0  0  0  0
   22.5179  -22.7894  -16.7617 C   0  0  2  0  0  0  0  0  0  0  0  0
   23.1480  -21.5296  -16.2144 N   0  0  0  0  0  0  0  0  0  0  0  0
   24.4678  -21.7874  -15.6626 C   0  0  0  0  0  0  0  0  0  0  0  0
   22.2839  -20.8111  -15.2619 O   0  0  0  0  0  0  0  0  0  0  0  0
   22.5725  -20.8010  -14.0515 O   0  0  0  0  0  0  0  0  0  0  0  0
  2  1  1  6
  2  3  1  0
  3  4  1  0
  4  8  1  0
  5  4  2  0
  6 17  1  0
  6  2  1  0
  7  6  2  0
  9 10  1  0
 10 11  2  0
 10 12  1  0
 12 13  1  0
 14 13  1  0
 16 15  1  1
 15 14  1  0
 16 17  1  0
 18 16  1  0
 19 18  2  0
 20 21  1  0
 22 21  1  6
 22 24  1  0
 22 23  1  0
 23 18  1  0
 24 26  1  0
 25 24  2  0
M  END
$$$$
