DRS.pdb
     RDKit          3D

 26 25  0  0  1  0  0  0  0  0999 V2000
   26.9925  -21.0315  -14.0177 N   0  0  0  0  0  0  0  0  0  0  0  0
   27.0049  -19.9443  -14.9535 C   0  0  1  0  0  0  0  0  0  0  0  0
   27.0972  -20.4738  -16.3639 C   0  0  0  0  0  0  0  0  0  0  0  0
   28.3265  -21.2635  -16.5785 C   0  0  0  0  0  0  0  0  0  0  0  0
   29.0988  -21.5219  -15.6188 O   0  0  0  0  0  0  0  0  0  0  0  0
   25.7791  -19.1268  -14.8496 C   0  0  0  0  0  0  0  0  0  0  0  0
   24.7539  -19.6671  -14.3876 O   0  0  0  0  0  0  0  0  0  0  0  0
   28.6511  -21.7298  -17.8312 O   0  0  0  0  0  0  0  0  0  0  0  0
   23.6090  -15.1482  -18.8325 N   0  0  0  0  0  0  0  0  0  0  0  0
   24.4800  -14.0149  -18.7995 C   0  0  0  0  0  0  0  0  0  0  0  0
   24.1141  -12.9192  -19.3554 N   0  0  0  0  0  0  0  0  0  0  0  0
   25.7332  -14.0868  -18.1611 N   0  0  0  0  0  0  0  0  0  0  0  0
   26.1965  -15.3274  -17.5358 C   0  0  0  0  0  0  0  0  0  0  0  0
   26.0372  -15.1388  -16.0467 C   0  0  0  0  0  0  0  0  0  0  0  0
   24.6697  -15.5384  -15.5570 C   0  0  0  0  0  0  0  0  0  0  0  0
   24.5451  -16.9720  -15.2565 C   0  0  2  0  0  0  0  0  0  0  0  0
   25.7287  -17.7722  -15.2507 N   0  0  0  0  0  0  0  0  0  0  0  0
   23.4404  -17.6393  -16.0424 C   0  0  0  0  0  0  0  0  0  0  0  0
   23.7028  -18.3670  -17.0468 O   0  0  0  0  0  0  0  0  0  0  0  0
   24.7435  -12.0639  -19.3704 O   0  0  0  0  0  0  0  0  0  0  0  0
   20.2535  -19.2062  -14.3109 C   0  0  0  0  0  0  0  0  0  0  0  0
   19.8457  -18.4819  -15.4318 C   0  0  2  0  0  0  0  0  0  0  0  0
   20.9994  -18.2254  -16.3734 N   0  0  0  0  0  0  0  0  0  0  0  0
   22.0747  -17.5000  -15.7174 C   0  0  0  0  0  0  0  0  0  0  0  0
   20.5916  -17.5831  -17.6348 O   0  0  0  0  0  0  0  0  0  0  0  0
   20.9267  -16.4073  -17.8665 O   0  0  0  0  0  0  0  0  0  0  0  0
  2  1  1  1
  2  3  1  0
  3  4  1  0
  4  8  1  0
  5  4  2  0
  6 17  1  0
  6  2  1  0
  7  6  2  0
  9 10  1  0
 10 11  2  0
 10 12  1  0
 12 13  1  0
 14 13  1  0
 16 15  1  6
 15 14  1  0
 16 17  1  0
 18 16  1  0
 19 18  2  0
 20 21  1  0
 22 21  1  1
 22 24  1  0
 22 23  1  0
 23 18  1  0
 24 26  1  0
 25 24  2  0
M  END
$$$$
