VTV.pdb
     RDKit          3D

 22 21  0  0  1  0  0  0  0  0999 V2000
   17.3563  -12.9938  -18.7545 C   0  0  0  0  0  0  0  0  0  0  0  0
   17.6726  -13.3509  -17.3241 C   0  0  2  0  0  0  0  0  0  0  0  0
   16.4947  -12.9930  -16.4452 C   0  0  0  0  0  0  0  0  0  0  0  0
   18.8965  -12.6457  -16.8105 C   0  0  2  0  0  0  0  0  0  0  0  0
   19.1895  -13.0042  -15.4256 N   0  0  0  0  0  0  0  0  0  0  0  0
   18.7894  -11.1804  -16.8704 C   0  0  0  0  0  0  0  0  0  0  0  0
   18.7094  -10.5220  -17.9161 O   0  0  0  0  0  0  0  0  0  0  0  0
   16.2078   -9.0034  -15.4285 C   0  0  0  0  0  0  0  0  0  0  0  0
   17.4797   -8.6973  -14.7000 C   0  0  1  0  0  0  0  0  0  0  0  0
   17.5343   -9.3382  -13.4630 O   0  0  0  0  0  0  0  0  0  0  0  0
   18.7067   -9.0382  -15.5475 C   0  0  2  0  0  0  0  0  0  0  0  0
   18.7764  -10.4600  -15.6307 N   0  0  0  0  0  0  0  0  0  0  0  0
   19.9208   -8.3946  -15.0436 C   0  0  0  0  0  0  0  0  0  0  0  0
   20.7213   -9.0151  -14.2765 O   0  0  0  0  0  0  0  0  0  0  0  0
   22.9390   -7.2090  -16.9426 C   0  0  0  0  0  0  0  0  0  0  0  0
   22.4442   -6.0294  -16.1084 C   0  0  2  0  0  0  0  0  0  0  0  0
   23.7008   -5.4380  -15.4915 C   0  0  0  0  0  0  0  0  0  0  0  0
   21.5853   -6.5045  -14.9959 C   0  0  2  0  0  0  0  0  0  0  0  0
   20.3324   -7.0665  -15.3349 N   0  0  0  0  0  0  0  0  0  0  0  0
   21.3502   -5.3702  -14.0655 C   0  0  0  0  0  0  0  0  0  0  0  0
   20.3323   -4.6347  -14.0856 O   0  0  0  0  0  0  0  0  0  0  0  0
   22.2892   -5.0392  -13.0688 O   0  0  0  0  0  0  0  0  0  0  0  0
  2  1  1  6
  2  3  1  0
  4  5  1  1
  4  6  1  0
  4  2  1  0
  6  7  2  0
  9  8  1  6
  9 11  1  0
 10  9  1  0
 11 13  1  0
 11 12  1  1
 12  6  1  0
 13 14  2  0
 13 19  1  0
 16 17  1  1
 16 15  1  0
 18 16  1  0
 18 19  1  6
 20 18  1  0
 20 22  1  0
 21 20  2  0
M  END
$$$$
