VTV.pdb
     RDKit          3D

 22 21  0  0  1  0  0  0  0  0999 V2000
   19.5694  -12.6847  -17.5319 C   0  0  0  0  0  0  0  0  0  0  0  0
   18.8975  -12.8158  -16.1884 C   0  0  2  0  0  0  0  0  0  0  0  0
   18.4826  -14.2544  -15.9730 C   0  0  0  0  0  0  0  0  0  0  0  0
   17.6868  -11.9346  -16.0604 C   0  0  2  0  0  0  0  0  0  0  0  0
   16.6094  -12.3582  -16.9504 N   0  0  0  0  0  0  0  0  0  0  0  0
   17.9653  -10.5205  -16.3519 C   0  0  0  0  0  0  0  0  0  0  0  0
   18.1097  -10.0507  -17.4884 O   0  0  0  0  0  0  0  0  0  0  0  0
   15.9695   -7.6858  -15.8580 C   0  0  0  0  0  0  0  0  0  0  0  0
   17.1214   -7.4649  -14.9271 C   0  0  1  0  0  0  0  0  0  0  0  0
   16.7924   -7.7882  -13.6114 O   0  0  0  0  0  0  0  0  0  0  0  0
   18.3652   -8.2295  -15.3837 C   0  0  2  0  0  0  0  0  0  0  0  0
   18.0780   -9.6191  -15.2426 N   0  0  0  0  0  0  0  0  0  0  0  0
   19.5735   -7.7809  -14.6902 C   0  0  0  0  0  0  0  0  0  0  0  0
   19.9803   -8.3653  -13.6380 O   0  0  0  0  0  0  0  0  0  0  0  0
   22.7182   -5.7602  -16.5953 C   0  0  0  0  0  0  0  0  0  0  0  0
   22.8568   -6.4437  -15.2367 C   0  0  2  0  0  0  0  0  0  0  0  0
   23.0307   -7.9179  -15.5615 C   0  0  0  0  0  0  0  0  0  0  0  0
   21.6024   -6.3064  -14.4563 C   0  0  2  0  0  0  0  0  0  0  0  0
   20.3973   -6.6939  -15.0874 N   0  0  0  0  0  0  0  0  0  0  0  0
   21.4684   -4.8906  -14.0263 C   0  0  0  0  0  0  0  0  0  0  0  0
   20.5852   -4.1018  -14.4451 O   0  0  0  0  0  0  0  0  0  0  0  0
   22.3563   -4.3271  -13.0889 O   0  0  0  0  0  0  0  0  0  0  0  0
  2  1  1  6
  2  3  1  0
  4  5  1  6
  4  6  1  0
  4  2  1  0
  6  7  2  0
  9  8  1  6
  9 11  1  0
 10  9  1  0
 11 13  1  0
 11 12  1  1
 12  6  1  0
 13 14  2  0
 13 19  1  0
 16 17  1  6
 16 15  1  0
 18 16  1  0
 18 19  1  6
 20 18  1  0
 20 22  1  0
 21 20  2  0
M  END
$$$$
