VTV.pdb
     RDKit          3D

 22 21  0  0  1  0  0  0  0  0999 V2000
   32.4457  -28.1238  -20.5804 C   0  0  0  0  0  0  0  0  0  0  0  0
   32.6831  -26.7161  -20.0951 C   0  0  2  0  0  0  0  0  0  0  0  0
   33.9253  -26.1604  -20.7556 C   0  0  0  0  0  0  0  0  0  0  0  0
   32.8485  -26.6402  -18.6032 C   0  0  2  0  0  0  0  0  0  0  0  0
   34.0322  -27.3652  -18.1498 N   0  0  0  0  0  0  0  0  0  0  0  0
   31.6962  -27.1771  -17.8640 C   0  0  0  0  0  0  0  0  0  0  0  0
   31.6930  -28.2509  -17.2474 O   0  0  0  0  0  0  0  0  0  0  0  0
   27.9957  -24.8811  -18.0795 C   0  0  0  0  0  0  0  0  0  0  0  0
   28.5507  -25.4859  -16.8272 C   0  0  1  0  0  0  0  0  0  0  0  0
   27.5564  -25.7075  -15.8753 O   0  0  0  0  0  0  0  0  0  0  0  0
   29.3232  -26.7730  -17.1212 C   0  0  2  0  0  0  0  0  0  0  0  0
   30.4889  -26.4036  -17.8548 N   0  0  0  0  0  0  0  0  0  0  0  0
   28.4858  -27.7824  -17.7710 C   0  0  0  0  0  0  0  0  0  0  0  0
   28.4479  -27.8864  -19.0366 O   0  0  0  0  0  0  0  0  0  0  0  0
   26.6251  -31.1186  -15.7302 C   0  0  0  0  0  0  0  0  0  0  0  0
   26.9004  -31.0762  -17.2317 C   0  0  2  0  0  0  0  0  0  0  0  0
   28.3407  -31.5391  -17.3739 C   0  0  0  0  0  0  0  0  0  0  0  0
   26.8313  -29.6814  -17.7328 C   0  0  2  0  0  0  0  0  0  0  0  0
   27.6559  -28.7212  -17.1016 N   0  0  0  0  0  0  0  0  0  0  0  0
   25.4227  -29.2178  -17.6410 C   0  0  0  0  0  0  0  0  0  0  0  0
   25.0165  -28.3337  -16.8467 O   0  0  0  0  0  0  0  0  0  0  0  0
   24.4216  -29.7618  -18.4695 O   0  0  0  0  0  0  0  0  0  0  0  0
  2  1  1  1
  2  3  1  0
  4  5  1  6
  4  6  1  0
  4  2  1  0
  6  7  2  0
  9  8  1  6
  9 11  1  0
 10  9  1  0
 11 13  1  0
 11 12  1  6
 12  6  1  0
 13 14  2  0
 13 19  1  0
 16 17  1  1
 16 15  1  0
 18 16  1  0
 18 19  1  1
 20 18  1  0
 20 22  1  0
 21 20  2  0
M  END
$$$$
