VTV.pdb
     RDKit          3D

 22 21  0  0  1  0  0  0  0  0999 V2000
   28.6517  -19.7233  -13.2003 C   0  0  0  0  0  0  0  0  0  0  0  0
   28.3277  -19.6646  -14.6717 C   0  0  2  0  0  0  0  0  0  0  0  0
   29.1014  -18.5331  -15.3113 C   0  0  0  0  0  0  0  0  0  0  0  0
   26.8615  -19.4612  -14.9320 C   0  0  2  0  0  0  0  0  0  0  0  0
   26.3975  -18.1653  -14.4446 N   0  0  0  0  0  0  0  0  0  0  0  0
   26.0143  -20.4911  -14.3125 C   0  0  0  0  0  0  0  0  0  0  0  0
   26.0797  -21.7019  -14.5635 O   0  0  0  0  0  0  0  0  0  0  0  0
   25.6654  -21.3365  -10.8463 C   0  0  0  0  0  0  0  0  0  0  0  0
   24.2981  -20.8669  -11.2365 C   0  0  1  0  0  0  0  0  0  0  0  0
   24.0372  -19.5824  -10.7613 O   0  0  0  0  0  0  0  0  0  0  0  0
   24.0904  -20.9430  -12.7502 C   0  0  2  0  0  0  0  0  0  0  0  0
   25.0422  -20.0655  -13.3482 N   0  0  0  0  0  0  0  0  0  0  0  0
   22.7000  -20.6877  -13.1294 C   0  0  0  0  0  0  0  0  0  0  0  0
   22.3225  -19.5311  -13.4955 O   0  0  0  0  0  0  0  0  0  0  0  0
   19.9951  -23.4552  -14.7690 C   0  0  0  0  0  0  0  0  0  0  0  0
   19.7704  -21.9457  -14.7131 C   0  0  2  0  0  0  0  0  0  0  0  0
   20.6171  -21.3867  -15.8443 C   0  0  0  0  0  0  0  0  0  0  0  0
   20.3012  -21.3886  -13.4446 C   0  0  2  0  0  0  0  0  0  0  0  0
   21.6560  -21.6510  -13.1348 N   0  0  0  0  0  0  0  0  0  0  0  0
   19.4624  -21.8873  -12.3243 C   0  0  0  0  0  0  0  0  0  0  0  0
   18.2550  -21.5867  -12.1527 O   0  0  0  0  0  0  0  0  0  0  0  0
   19.9901  -22.7590  -11.3515 O   0  0  0  0  0  0  0  0  0  0  0  0
  2  1  1  1
  2  3  1  0
  4  5  1  1
  4  6  1  0
  4  2  1  0
  6  7  2  0
  9  8  1  6
  9 11  1  0
 10  9  1  0
 11 13  1  0
 11 12  1  6
 12  6  1  0
 13 14  2  0
 13 19  1  0
 16 17  1  6
 16 15  1  0
 18 16  1  0
 18 19  1  1
 20 18  1  0
 20 22  1  0
 21 20  2  0
M  END
$$$$
