VTV.pdb
     RDKit          3D

 22 21  0  0  1  0  0  0  0  0999 V2000
   28.6924  -16.7868  -17.1433 C   0  0  0  0  0  0  0  0  0  0  0  0
   28.4009  -18.1500  -17.7183 C   0  0  2  0  0  0  0  0  0  0  0  0
   29.3520  -18.4263  -18.8616 C   0  0  0  0  0  0  0  0  0  0  0  0
   26.9888  -18.2757  -18.2173 C   0  0  2  0  0  0  0  0  0  0  0  0
   26.6978  -17.3115  -19.2745 N   0  0  0  0  0  0  0  0  0  0  0  0
   25.9820  -18.0863  -17.1624 C   0  0  0  0  0  0  0  0  0  0  0  0
   25.2951  -17.0660  -17.0192 O   0  0  0  0  0  0  0  0  0  0  0  0
   23.2282  -18.2124  -16.9740 C   0  0  0  0  0  0  0  0  0  0  0  0
   23.4208  -19.2948  -15.9574 C   0  0  1  0  0  0  0  0  0  0  0  0
   23.2918  -20.5632  -16.5217 O   0  0  0  0  0  0  0  0  0  0  0  0
   24.7609  -19.1516  -15.2336 C   0  0  2  0  0  0  0  0  0  0  0  0
   25.7790  -19.1583  -16.2321 N   0  0  0  0  0  0  0  0  0  0  0  0
   24.9291  -20.1550  -14.1815 C   0  0  0  0  0  0  0  0  0  0  0  0
   25.6502  -21.1845  -14.3671 O   0  0  0  0  0  0  0  0  0  0  0  0
   25.7058  -21.6078   -9.6970 C   0  0  0  0  0  0  0  0  0  0  0  0
   25.6061  -20.5728  -10.8155 C   0  0  2  0  0  0  0  0  0  0  0  0
   25.0617  -19.3251  -10.1404 C   0  0  0  0  0  0  0  0  0  0  0  0
   24.6104  -20.9988  -11.8295 C   0  0  2  0  0  0  0  0  0  0  0  0
   24.3381  -20.1041  -12.8907 N   0  0  0  0  0  0  0  0  0  0  0  0
   23.3318  -21.3007  -11.1356 C   0  0  0  0  0  0  0  0  0  0  0  0
   22.2855  -20.6143  -11.2444 O   0  0  0  0  0  0  0  0  0  0  0  0
   23.2118  -22.4154  -10.2826 O   0  0  0  0  0  0  0  0  0  0  0  0
  2  1  1  6
  2  3  1  0
  4  5  1  6
  4  6  1  0
  4  2  1  0
  6  7  2  0
  9  8  1  6
  9 11  1  0
 10  9  1  0
 11 13  1  0
 11 12  1  6
 12  6  1  0
 13 14  2  0
 13 19  1  0
 16 17  1  1
 16 15  1  0
 18 16  1  0
 18 19  1  6
 20 18  1  0
 20 22  1  0
 21 20  2  0
M  END
$$$$
