VTV.pdb
     RDKit          3D

 22 21  0  0  1  0  0  0  0  0999 V2000
   15.7203  -11.9232  -17.9970 C   0  0  0  0  0  0  0  0  0  0  0  0
   16.6996  -12.9568  -17.5008 C   0  0  2  0  0  0  0  0  0  0  0  0
   15.9417  -14.1653  -16.9974 C   0  0  0  0  0  0  0  0  0  0  0  0
   17.5773  -12.4370  -16.3970 C   0  0  2  0  0  0  0  0  0  0  0  0
   16.8023  -12.0576  -15.2190 N   0  0  0  0  0  0  0  0  0  0  0  0
   18.3745  -11.2665  -16.7926 C   0  0  0  0  0  0  0  0  0  0  0  0
   19.2272  -11.2656  -17.6904 O   0  0  0  0  0  0  0  0  0  0  0  0
   17.4820   -8.0077  -18.1711 C   0  0  0  0  0  0  0  0  0  0  0  0
   17.9489   -7.7665  -16.7690 C   0  0  1  0  0  0  0  0  0  0  0  0
   16.8802   -7.6411  -15.8824 O   0  0  0  0  0  0  0  0  0  0  0  0
   18.9187   -8.8553  -16.3064 C   0  0  2  0  0  0  0  0  0  0  0  0
   18.1500  -10.0367  -16.0902 N   0  0  0  0  0  0  0  0  0  0  0  0
   19.7201   -8.4283  -15.1585 C   0  0  0  0  0  0  0  0  0  0  0  0
   19.2515   -8.4747  -13.9785 O   0  0  0  0  0  0  0  0  0  0  0  0
   23.9366   -8.4000  -15.1324 C   0  0  0  0  0  0  0  0  0  0  0  0
   23.0827   -8.3574  -13.8671 C   0  0  2  0  0  0  0  0  0  0  0  0
   22.6722   -9.8010  -13.6288 C   0  0  0  0  0  0  0  0  0  0  0  0
   21.8432   -7.5770  -14.1034 C   0  0  2  0  0  0  0  0  0  0  0  0
   21.0511   -7.9353  -15.2191 N   0  0  0  0  0  0  0  0  0  0  0  0
   22.2079   -6.1425  -14.2328 C   0  0  0  0  0  0  0  0  0  0  0  0
   22.7613   -5.4664  -13.3305 O   0  0  0  0  0  0  0  0  0  0  0  0
   21.9450   -5.4284  -15.4184 O   0  0  0  0  0  0  0  0  0  0  0  0
  2  1  1  1
  2  3  1  0
  4  5  1  1
  4  6  1  0
  4  2  1  0
  6  7  2  0
  9  8  1  6
  9 11  1  0
 10  9  1  0
 11 13  1  0
 11 12  1  1
 12  6  1  0
 13 14  2  0
 13 19  1  0
 16 17  1  6
 16 15  1  0
 18 16  1  0
 18 19  1  6
 20 18  1  0
 20 22  1  0
 21 20  2  0
M  END
$$$$
