VTV.pdb
     RDKit          3D

 22 21  0  0  1  0  0  0  0  0999 V2000
   18.1263  -13.3485  -17.5348 C   0  0  0  0  0  0  0  0  0  0  0  0
   19.4074  -13.7144  -18.2410 C   0  0  2  0  0  0  0  0  0  0  0  0
   19.1827  -14.9545  -19.0775 C   0  0  0  0  0  0  0  0  0  0  0  0
   20.5401  -13.9687  -17.2864 C   0  0  2  0  0  0  0  0  0  0  0  0
   20.3766  -15.2322  -16.5729 N   0  0  0  0  0  0  0  0  0  0  0  0
   20.6950  -12.9118  -16.2757 C   0  0  0  0  0  0  0  0  0  0  0  0
   20.1110  -12.8899  -15.1841 O   0  0  0  0  0  0  0  0  0  0  0  0
   23.8059  -11.8139  -14.7112 C   0  0  0  0  0  0  0  0  0  0  0  0
   23.2938  -10.6152  -15.4481 C   0  0  1  0  0  0  0  0  0  0  0  0
   23.9894  -10.4034  -16.6378 O   0  0  0  0  0  0  0  0  0  0  0  0
   21.7891  -10.7158  -15.7044 C   0  0  2  0  0  0  0  0  0  0  0  0
   21.5856  -11.8282  -16.5731 N   0  0  0  0  0  0  0  0  0  0  0  0
   21.2262   -9.4531  -16.1851 C   0  0  0  0  0  0  0  0  0  0  0  0
   20.8863   -9.3079  -17.4006 O   0  0  0  0  0  0  0  0  0  0  0  0
   18.1579   -7.6408  -14.9411 C   0  0  0  0  0  0  0  0  0  0  0  0
   18.9451   -7.1425  -16.1510 C   0  0  2  0  0  0  0  0  0  0  0  0
   18.7368   -8.2086  -17.2136 C   0  0  0  0  0  0  0  0  0  0  0  0
   20.3961   -7.0994  -15.8444 C   0  0  2  0  0  0  0  0  0  0  0  0
   21.0020   -8.2952  -15.3933 N   0  0  0  0  0  0  0  0  0  0  0  0
   20.6302   -6.0452  -14.8239 C   0  0  0  0  0  0  0  0  0  0  0  0
   20.9724   -6.2700  -13.6364 O   0  0  0  0  0  0  0  0  0  0  0  0
   20.4766   -4.6806  -15.1381 O   0  0  0  0  0  0  0  0  0  0  0  0
  2  1  1  1
  2  3  1  0
  4  5  1  1
  4  6  1  0
  4  2  1  0
  6  7  2  0
  9  8  1  6
  9 11  1  0
 10  9  1  0
 11 13  1  0
 11 12  1  6
 12  6  1  0
 13 14  2  0
 13 19  1  0
 16 17  1  6
 16 15  1  0
 18 16  1  0
 18 19  1  1
 20 18  1  0
 20 22  1  0
 21 20  2  0
M  END
$$$$
