VTV.pdb
     RDKit          3D

 22 21  0  0  1  0  0  0  0  0999 V2000
   16.5098  -11.6633  -17.8380 C   0  0  0  0  0  0  0  0  0  0  0  0
   17.3240  -10.9617  -16.7804 C   0  0  2  0  0  0  0  0  0  0  0  0
   17.3446   -9.4764  -17.0661 C   0  0  0  0  0  0  0  0  0  0  0  0
   18.7386  -11.4651  -16.7129 C   0  0  2  0  0  0  0  0  0  0  0  0
   18.7967  -12.8744  -16.3352 N   0  0  0  0  0  0  0  0  0  0  0  0
   19.5739  -10.7210  -15.7585 C   0  0  0  0  0  0  0  0  0  0  0  0
   19.4669  -10.7885  -14.5268 O   0  0  0  0  0  0  0  0  0  0  0  0
   23.1841  -10.8490  -15.2621 C   0  0  0  0  0  0  0  0  0  0  0  0
   22.8824   -9.4835  -15.7975 C   0  0  1  0  0  0  0  0  0  0  0  0
   23.1341   -9.3974  -17.1661 O   0  0  0  0  0  0  0  0  0  0  0  0
   21.4476   -9.0607  -15.4773 C   0  0  2  0  0  0  0  0  0  0  0  0
   20.5857   -9.8549  -16.2897 N   0  0  0  0  0  0  0  0  0  0  0  0
   21.2555   -7.6160  -15.6120 C   0  0  0  0  0  0  0  0  0  0  0  0
   20.9655   -7.0953  -16.7340 O   0  0  0  0  0  0  0  0  0  0  0  0
   19.4984   -5.0882  -12.9202 C   0  0  0  0  0  0  0  0  0  0  0  0
   19.8892   -4.6899  -14.3418 C   0  0  2  0  0  0  0  0  0  0  0  0
   18.8473   -5.3508  -15.2287 C   0  0  0  0  0  0  0  0  0  0  0  0
   21.2077   -5.2688  -14.6991 C   0  0  2  0  0  0  0  0  0  0  0  0
   21.3638   -6.6676  -14.5599 N   0  0  0  0  0  0  0  0  0  0  0  0
   22.2524   -4.6001  -13.8813 C   0  0  0  0  0  0  0  0  0  0  0  0
   22.6154   -3.4070  -14.0305 O   0  0  0  0  0  0  0  0  0  0  0  0
   22.9232   -5.2892  -12.8518 O   0  0  0  0  0  0  0  0  0  0  0  0
  2  1  1  6
  2  3  1  0
  4  5  1  1
  4  6  1  0
  4  2  1  0
  6  7  2  0
  9  8  1  6
  9 11  1  0
 10  9  1  0
 11 13  1  0
 11 12  1  6
 12  6  1  0
 13 14  2  0
 13 19  1  0
 16 17  1  6
 16 15  1  0
 18 16  1  0
 18 19  1  1
 20 18  1  0
 20 22  1  0
 21 20  2  0
M  END
$$$$
