VTV.pdb
     RDKit          3D

 22 21  0  0  1  0  0  0  0  0999 V2000
   26.5113  -20.7370   -8.2371 C   0  0  0  0  0  0  0  0  0  0  0  0
   25.9318  -20.2832   -9.5530 C   0  0  2  0  0  0  0  0  0  0  0  0
   24.4216  -20.2963   -9.4675 C   0  0  0  0  0  0  0  0  0  0  0  0
   26.3627  -21.1499  -10.7028 C   0  0  2  0  0  0  0  0  0  0  0  0
   27.8161  -21.2701  -10.7781 N   0  0  0  0  0  0  0  0  0  0  0  0
   25.8958  -20.6572  -12.0072 C   0  0  0  0  0  0  0  0  0  0  0  0
   26.2781  -19.6078  -12.5419 O   0  0  0  0  0  0  0  0  0  0  0  0
   24.5053  -23.4655  -14.6558 C   0  0  0  0  0  0  0  0  0  0  0  0
   24.8746  -22.0583  -15.0101 C   0  0  1  0  0  0  0  0  0  0  0  0
   24.4305  -21.7126  -16.2857 O   0  0  0  0  0  0  0  0  0  0  0  0
   24.3638  -21.0649  -13.9650 C   0  0  2  0  0  0  0  0  0  0  0  0
   24.9289  -21.4468  -12.7127 N   0  0  0  0  0  0  0  0  0  0  0  0
   22.9039  -20.9605  -13.9710 C   0  0  0  0  0  0  0  0  0  0  0  0
   22.1937  -21.6602  -13.1835 O   0  0  0  0  0  0  0  0  0  0  0  0
   20.8107  -17.7009  -15.7428 C   0  0  0  0  0  0  0  0  0  0  0  0
   20.1697  -18.6136  -14.6996 C   0  0  2  0  0  0  0  0  0  0  0  0
   20.6010  -18.0350  -13.3623 C   0  0  0  0  0  0  0  0  0  0  0  0
   20.7324  -19.9832  -14.7925 C   0  0  2  0  0  0  0  0  0  0  0  0
   22.1411  -20.1084  -14.8136 N   0  0  0  0  0  0  0  0  0  0  0  0
   20.1890  -20.6334  -16.0129 C   0  0  0  0  0  0  0  0  0  0  0  0
   18.9752  -20.9005  -16.1946 O   0  0  0  0  0  0  0  0  0  0  0  0
   21.0332  -21.0031  -17.0784 O   0  0  0  0  0  0  0  0  0  0  0  0
  2  1  1  1
  2  3  1  0
  4  5  1  6
  4  6  1  0
  4  2  1  0
  6  7  2  0
  9  8  1  1
  9 11  1  0
 10  9  1  0
 11 13  1  0
 11 12  1  1
 12  6  1  0
 13 14  2  0
 13 19  1  0
 16 17  1  1
 16 15  1  0
 18 16  1  0
 18 19  1  6
 20 18  1  0
 20 22  1  0
 21 20  2  0
M  END
$$$$
