VTV.pdb
     RDKit          3D

 22 21  0  0  1  0  0  0  0  0999 V2000
   15.6007  -11.2453  -16.7457 C   0  0  0  0  0  0  0  0  0  0  0  0
   16.9421  -11.9329  -16.7093 C   0  0  2  0  0  0  0  0  0  0  0  0
   16.7525  -13.3830  -16.3230 C   0  0  0  0  0  0  0  0  0  0  0  0
   17.8937  -11.2902  -15.7396 C   0  0  2  0  0  0  0  0  0  0  0  0
   17.4173  -11.3904  -14.3630 N   0  0  0  0  0  0  0  0  0  0  0  0
   18.1317   -9.8661  -16.0182 C   0  0  0  0  0  0  0  0  0  0  0  0
   18.6023   -9.4239  -17.0748 O   0  0  0  0  0  0  0  0  0  0  0  0
   15.5431   -7.2780  -16.0304 C   0  0  0  0  0  0  0  0  0  0  0  0
   16.4847   -6.9369  -14.9173 C   0  0  1  0  0  0  0  0  0  0  0  0
   15.9939   -7.3506  -13.6796 O   0  0  0  0  0  0  0  0  0  0  0  0
   17.8814   -7.5071  -15.1704 C   0  0  2  0  0  0  0  0  0  0  0  0
   17.7953   -8.9196  -14.9950 N   0  0  0  0  0  0  0  0  0  0  0  0
   18.9017   -6.8501  -14.3521 C   0  0  0  0  0  0  0  0  0  0  0  0
   19.2336   -7.3177  -13.2184 O   0  0  0  0  0  0  0  0  0  0  0  0
   23.0813   -4.6203  -13.6286 C   0  0  0  0  0  0  0  0  0  0  0  0
   22.0582   -5.4317  -14.4204 C   0  0  2  0  0  0  0  0  0  0  0  0
   22.1994   -4.9408  -15.8516 C   0  0  0  0  0  0  0  0  0  0  0  0
   20.6809   -5.1075  -13.9741 C   0  0  2  0  0  0  0  0  0  0  0  0
   19.6098   -5.6706  -14.7063 N   0  0  0  0  0  0  0  0  0  0  0  0
   20.5210   -3.6304  -13.9768 C   0  0  0  0  0  0  0  0  0  0  0  0
   19.7855   -2.9972  -14.7743 O   0  0  0  0  0  0  0  0  0  0  0  0
   21.2098   -2.8216  -13.0516 O   0  0  0  0  0  0  0  0  0  0  0  0
  2  1  1  1
  2  3  1  0
  4  5  1  1
  4  6  1  0
  4  2  1  0
  6  7  2  0
  9  8  1  6
  9 11  1  0
 10  9  1  0
 11 13  1  0
 11 12  1  1
 12  6  1  0
 13 14  2  0
 13 19  1  0
 16 17  1  6
 16 15  1  0
 18 16  1  0
 18 19  1  6
 20 18  1  0
 20 22  1  0
 21 20  2  0
M  END
$$$$
