VTV.pdb
     RDKit          3D

 22 21  0  0  1  0  0  0  0  0999 V2000
   18.2027  -13.0348  -18.0058 C   0  0  0  0  0  0  0  0  0  0  0  0
   19.5042  -13.6566  -18.4452 C   0  0  2  0  0  0  0  0  0  0  0  0
   19.2424  -15.0510  -18.9698 C   0  0  0  0  0  0  0  0  0  0  0  0
   20.5108  -13.7353  -17.3320 C   0  0  2  0  0  0  0  0  0  0  0  0
   20.3785  -14.9712  -16.5656 N   0  0  0  0  0  0  0  0  0  0  0  0
   20.4126  -12.6178  -16.3813 C   0  0  0  0  0  0  0  0  0  0  0  0
   19.6725  -12.6002  -15.3887 O   0  0  0  0  0  0  0  0  0  0  0  0
   23.3038  -11.3433  -14.6482 C   0  0  0  0  0  0  0  0  0  0  0  0
   22.7531  -10.1438  -15.3553 C   0  0  1  0  0  0  0  0  0  0  0  0
   23.5180   -9.8046  -16.4706 O   0  0  0  0  0  0  0  0  0  0  0  0
   21.2858  -10.3439  -15.7384 C   0  0  2  0  0  0  0  0  0  0  0  0
   21.2316  -11.4649  -16.6180 N   0  0  0  0  0  0  0  0  0  0  0  0
   20.6827   -9.1203  -16.2688 C   0  0  0  0  0  0  0  0  0  0  0  0
   20.2271   -9.0748  -17.4539 O   0  0  0  0  0  0  0  0  0  0  0  0
   17.8731   -5.5250  -16.8268 C   0  0  0  0  0  0  0  0  0  0  0  0
   18.4219   -6.8520  -16.3071 C   0  0  2  0  0  0  0  0  0  0  0  0
   17.7323   -7.0580  -14.9688 C   0  0  0  0  0  0  0  0  0  0  0  0
   19.8780   -6.7440  -16.0438 C   0  0  2  0  0  0  0  0  0  0  0  0
   20.5396   -7.8970  -15.5609 N   0  0  0  0  0  0  0  0  0  0  0  0
   20.1002   -5.6397  -15.0750 C   0  0  0  0  0  0  0  0  0  0  0  0
   19.9623   -4.4205  -15.3439 O   0  0  0  0  0  0  0  0  0  0  0  0
   20.4936   -5.9031  -13.7481 O   0  0  0  0  0  0  0  0  0  0  0  0
  2  1  1  1
  2  3  1  0
  4  5  1  1
  4  6  1  0
  4  2  1  0
  6  7  2  0
  9  8  1  6
  9 11  1  0
 10  9  1  0
 11 13  1  0
 11 12  1  6
 12  6  1  0
 13 14  2  0
 13 19  1  0
 16 17  1  1
 16 15  1  0
 18 16  1  0
 18 19  1  1
 20 18  1  0
 20 22  1  0
 21 20  2  0
M  END
$$$$
