VTV.pdb
     RDKit          3D

 22 21  0  0  1  0  0  0  0  0999 V2000
   16.2172  -16.6439  -18.3505 C   0  0  0  0  0  0  0  0  0  0  0  0
   16.7673  -15.5066  -17.5275 C   0  0  2  0  0  0  0  0  0  0  0  0
   16.2390  -14.1957  -18.0666 C   0  0  0  0  0  0  0  0  0  0  0  0
   18.2696  -15.4655  -17.5314 C   0  0  2  0  0  0  0  0  0  0  0  0
   18.8483  -16.6834  -16.9708 N   0  0  0  0  0  0  0  0  0  0  0  0
   18.8207  -14.3307  -16.7758 C   0  0  0  0  0  0  0  0  0  0  0  0
   18.9260  -14.2900  -15.5427 O   0  0  0  0  0  0  0  0  0  0  0  0
   22.1898  -12.9418  -16.9882 C   0  0  0  0  0  0  0  0  0  0  0  0
   21.2599  -11.8880  -17.5050 C   0  0  1  0  0  0  0  0  0  0  0  0
   21.2144  -11.8768  -18.8985 O   0  0  0  0  0  0  0  0  0  0  0  0
   19.8576  -12.0390  -16.9130 C   0  0  2  0  0  0  0  0  0  0  0  0
   19.2691  -13.1886  -17.5176 N   0  0  0  0  0  0  0  0  0  0  0  0
   19.0709  -10.8111  -17.0389 C   0  0  0  0  0  0  0  0  0  0  0  0
   18.5067  -10.5040  -18.1349 O   0  0  0  0  0  0  0  0  0  0  0  0
   17.0533   -8.9711  -13.8918 C   0  0  0  0  0  0  0  0  0  0  0  0
   16.8092   -8.6207  -15.3580 C   0  0  2  0  0  0  0  0  0  0  0  0
   15.9090   -9.7299  -15.8760 C   0  0  0  0  0  0  0  0  0  0  0  0
   18.0777   -8.6843  -16.1249 C   0  0  2  0  0  0  0  0  0  0  0  0
   18.8526   -9.8615  -16.0052 N   0  0  0  0  0  0  0  0  0  0  0  0
   18.9237   -7.5280  -15.7317 C   0  0  0  0  0  0  0  0  0  0  0  0
   20.0070   -7.6221  -15.1028 O   0  0  0  0  0  0  0  0  0  0  0  0
   18.5482   -6.2086  -16.0520 O   0  0  0  0  0  0  0  0  0  0  0  0
  2  1  1  6
  2  3  1  0
  4  5  1  1
  4  6  1  0
  4  2  1  0
  6  7  2  0
  9  8  1  6
  9 11  1  0
 10  9  1  0
 11 13  1  0
 11 12  1  6
 12  6  1  0
 13 14  2  0
 13 19  1  0
 16 17  1  6
 16 15  1  0
 18 16  1  0
 18 19  1  1
 20 18  1  0
 20 22  1  0
 21 20  2  0
M  END
$$$$
