VTV.pdb
     RDKit          3D

 22 21  0  0  1  0  0  0  0  0999 V2000
   22.5761  -13.9602  -16.5204 C   0  0  0  0  0  0  0  0  0  0  0  0
   23.7533  -13.5056  -17.3457 C   0  0  2  0  0  0  0  0  0  0  0  0
   24.8613  -14.5306  -17.2467 C   0  0  0  0  0  0  0  0  0  0  0  0
   24.2840  -12.1697  -16.9068 C   0  0  2  0  0  0  0  0  0  0  0  0
   24.6872  -12.1792  -15.5034 N   0  0  0  0  0  0  0  0  0  0  0  0
   23.3153  -11.0766  -17.0768 C   0  0  0  0  0  0  0  0  0  0  0  0
   22.8614  -10.7004  -18.1658 O   0  0  0  0  0  0  0  0  0  0  0  0
   19.9489  -10.8759  -16.0688 C   0  0  0  0  0  0  0  0  0  0  0  0
   20.6459   -9.8465  -15.2341 C   0  0  1  0  0  0  0  0  0  0  0  0
   20.9306  -10.3239  -13.9555 O   0  0  0  0  0  0  0  0  0  0  0  0
   21.9125   -9.3324  -15.9208 C   0  0  2  0  0  0  0  0  0  0  0  0
   22.8620  -10.3961  -15.8990 N   0  0  0  0  0  0  0  0  0  0  0  0
   22.3861   -8.0773  -15.3356 C   0  0  0  0  0  0  0  0  0  0  0  0
   23.2463   -8.0737  -14.4007 O   0  0  0  0  0  0  0  0  0  0  0  0
   21.3684   -4.1614  -16.9286 C   0  0  0  0  0  0  0  0  0  0  0  0
   22.6860   -4.4597  -16.2165 C   0  0  2  0  0  0  0  0  0  0  0  0
   23.6115   -4.9642  -17.3110 C   0  0  0  0  0  0  0  0  0  0  0  0
   22.5103   -5.5632  -15.2405 C   0  0  2  0  0  0  0  0  0  0  0  0
   21.9647   -6.7765  -15.7209 N   0  0  0  0  0  0  0  0  0  0  0  0
   21.6541   -5.0758  -14.1284 C   0  0  0  0  0  0  0  0  0  0  0  0
   20.4853   -5.4773  -13.9037 O   0  0  0  0  0  0  0  0  0  0  0  0
   22.1184   -4.0984  -13.2264 O   0  0  0  0  0  0  0  0  0  0  0  0
  2  1  1  1
  2  3  1  0
  4  5  1  1
  4  6  1  0
  4  2  1  0
  6  7  2  0
  9  8  1  6
  9 11  1  0
 10  9  1  0
 11 13  1  0
 11 12  1  1
 12  6  1  0
 13 14  2  0
 13 19  1  0
 16 17  1  6
 16 15  1  0
 18 16  1  0
 18 19  1  6
 20 18  1  0
 20 22  1  0
 21 20  2  0
M  END
$$$$
