VTV.pdb
     RDKit          3D

 22 21  0  0  1  0  0  0  0  0999 V2000
   21.8232  -18.1627  -16.4861 C   0  0  0  0  0  0  0  0  0  0  0  0
   22.9793  -17.4745  -17.1670 C   0  0  2  0  0  0  0  0  0  0  0  0
   22.4481  -16.4469  -18.1416 C   0  0  0  0  0  0  0  0  0  0  0  0
   23.8678  -18.4348  -17.9067 C   0  0  2  0  0  0  0  0  0  0  0  0
   23.1734  -19.0668  -19.0250 N   0  0  0  0  0  0  0  0  0  0  0  0
   24.3955  -19.5106  -17.0544 C   0  0  0  0  0  0  0  0  0  0  0  0
   23.8373  -20.6002  -16.8687 O   0  0  0  0  0  0  0  0  0  0  0  0
   28.4168  -20.9330  -14.5381 C   0  0  0  0  0  0  0  0  0  0  0  0
   27.7259  -20.0837  -15.5596 C   0  0  1  0  0  0  0  0  0  0  0  0
   28.1429  -20.3898  -16.8543 O   0  0  0  0  0  0  0  0  0  0  0  0
   26.2045  -20.1854  -15.4363 C   0  0  2  0  0  0  0  0  0  0  0  0
   25.6459  -19.2845  -16.3901 N   0  0  0  0  0  0  0  0  0  0  0  0
   25.7479  -19.9809  -14.0609 C   0  0  0  0  0  0  0  0  0  0  0  0
   25.4450  -18.8223  -13.6365 O   0  0  0  0  0  0  0  0  0  0  0  0
   23.0426  -19.5537  -12.3793 C   0  0  0  0  0  0  0  0  0  0  0  0
   23.6122  -20.7496  -11.6194 C   0  0  2  0  0  0  0  0  0  0  0  0
   23.3225  -20.4526  -10.1576 C   0  0  0  0  0  0  0  0  0  0  0  0
   25.0863  -20.8099  -11.7761 C   0  0  2  0  0  0  0  0  0  0  0  0
   25.5950  -20.9991  -13.0822 N   0  0  0  0  0  0  0  0  0  0  0  0
   25.6072  -21.8998  -10.9112 C   0  0  0  0  0  0  0  0  0  0  0  0
   25.6640  -21.8458   -9.6576 O   0  0  0  0  0  0  0  0  0  0  0  0
   26.0864  -23.1032  -11.4653 O   0  0  0  0  0  0  0  0  0  0  0  0
  2  1  1  6
  2  3  1  0
  4  5  1  6
  4  6  1  0
  4  2  1  0
  6  7  2  0
  9  8  1  1
  9 11  1  0
 10  9  1  0
 11 13  1  0
 11 12  1  6
 12  6  1  0
 13 14  2  0
 13 19  1  0
 16 17  1  1
 16 15  1  0
 18 16  1  0
 18 19  1  6
 20 18  1  0
 20 22  1  0
 21 20  2  0
M  END
$$$$
