VTV.pdb
     RDKit          3D

 22 21  0  0  1  0  0  0  0  0999 V2000
   25.4635  -12.1686  -16.2637 C   0  0  0  0  0  0  0  0  0  0  0  0
   24.2472  -12.8825  -15.7303 C   0  0  2  0  0  0  0  0  0  0  0  0
   24.5968  -14.3267  -15.4470 C   0  0  0  0  0  0  0  0  0  0  0  0
   23.0878  -12.8397  -16.6858 C   0  0  2  0  0  0  0  0  0  0  0  0
   23.3688  -13.5761  -17.9150 N   0  0  0  0  0  0  0  0  0  0  0  0
   22.7044  -11.4736  -17.0716 C   0  0  0  0  0  0  0  0  0  0  0  0
   23.2822  -10.7962  -17.9322 O   0  0  0  0  0  0  0  0  0  0  0  0
   19.7128  -10.4290  -18.6062 C   0  0  0  0  0  0  0  0  0  0  0  0
   19.6830   -9.7436  -17.2753 C   0  0  1  0  0  0  0  0  0  0  0  0
   18.8509  -10.4038  -16.3721 O   0  0  0  0  0  0  0  0  0  0  0  0
   21.0904   -9.5753  -16.7002 C   0  0  2  0  0  0  0  0  0  0  0  0
   21.5814  -10.8812  -16.4053 N   0  0  0  0  0  0  0  0  0  0  0  0
   21.1173   -8.6425  -15.5726 C   0  0  0  0  0  0  0  0  0  0  0  0
   21.2068   -9.0623  -14.3769 O   0  0  0  0  0  0  0  0  0  0  0  0
   22.0974   -4.3540  -13.4427 C   0  0  0  0  0  0  0  0  0  0  0  0
   22.2504   -5.3485  -14.5914 C   0  0  2  0  0  0  0  0  0  0  0  0
   22.1115   -4.5092  -15.8506 C   0  0  0  0  0  0  0  0  0  0  0  0
   21.1339   -6.3256  -14.5843 C   0  0  2  0  0  0  0  0  0  0  0  0
   21.0505   -7.2269  -15.6711 N   0  0  0  0  0  0  0  0  0  0  0  0
   19.8536   -5.5763  -14.5016 C   0  0  0  0  0  0  0  0  0  0  0  0
   19.0227   -5.4845  -15.4391 O   0  0  0  0  0  0  0  0  0  0  0  0
   19.4810   -4.8990  -13.3238 O   0  0  0  0  0  0  0  0  0  0  0  0
  2  1  1  6
  2  3  1  0
  4  5  1  6
  4  6  1  0
  4  2  1  0
  6  7  2  0
  9  8  1  6
  9 11  1  0
 10  9  1  0
 11 13  1  0
 11 12  1  1
 12  6  1  0
 13 14  2  0
 13 19  1  0
 16 17  1  6
 16 15  1  0
 18 16  1  0
 18 19  1  6
 20 18  1  0
 20 22  1  0
 21 20  2  0
M  END
$$$$
