RPH.pdb
     RDKit          3D

 29 30  0  0  1  0  0  0  0  0999 V2000
   16.3787  -19.7075  -12.3195 N   0  0  0  0  0  0  0  0  0  0  0  0
   16.4862  -21.0091  -12.9194 C   0  0  0  0  0  0  0  0  0  0  0  0
   16.5191  -21.0752  -14.1888 N   0  0  0  0  0  0  0  0  0  0  0  0
   16.5540  -22.1854  -12.1290 N   0  0  0  0  0  0  0  0  0  0  0  0
   16.4290  -22.0687  -10.6960 C   0  0  0  0  0  0  0  0  0  0  0  0
   16.5159  -23.4244  -10.0160 C   0  0  0  0  0  0  0  0  0  0  0  0
   17.8575  -23.6069   -9.3677 C   0  0  0  0  0  0  0  0  0  0  0  0
   17.9980  -24.9687   -8.6677 C   0  0  2  0  0  0  0  0  0  0  0  0
   17.8150  -26.0114   -9.6980 N   0  0  0  0  0  0  0  0  0  0  0  0
   16.8831  -25.1615   -7.6818 C   0  0  0  0  0  0  0  0  0  0  0  0
   15.7521  -24.8298   -8.1613 O   0  0  0  0  0  0  0  0  0  0  0  0
   16.5956  -21.9590  -14.7034 N   0  0  0  0  0  0  0  0  0  0  0  0
   17.0889  -25.6536   -6.3876 C   0  0  0  0  0  0  0  0  0  0  0  0
   17.8829  -26.8580   -6.1016 C   0  0  0  0  0  0  0  0  0  0  0  0
   18.7057  -26.3895   -4.9289 C   0  0  0  0  0  0  0  0  0  0  0  0
   17.9755  -25.1977   -4.3501 C   0  0  2  0  0  0  0  0  0  0  0  0
   16.6297  -25.2670   -5.1147 C   0  0  0  0  0  0  0  0  0  0  0  0
   15.8762  -24.0422   -4.9327 O   0  0  0  0  0  0  0  0  0  0  0  0
   16.0569  -22.9426   -5.4513 N   0  0  0  0  0  0  0  0  0  0  0  0
   14.7609  -24.1135   -4.0212 C   0  0  1  0  0  0  0  0  0  0  0  0
   13.9395  -22.9463   -3.7245 C   0  0  0  0  0  0  0  0  0  0  0  0
   12.8537  -22.7815   -4.7344 C   0  0  0  0  0  0  0  0  0  0  0  0
   11.9874  -21.6079   -4.5085 C   0  0  0  0  0  0  0  0  0  0  0  0
   12.3236  -20.2670   -4.7718 N   0  0  0  0  0  0  0  0  0  0  0  0
   11.3274  -19.4605   -4.4591 C   0  0  0  0  0  0  0  0  0  0  0  0
   10.3336  -20.2621   -3.9900 N   0  0  0  0  0  0  0  0  0  0  0  0
   10.7342  -21.5347   -4.0230 C   0  0  0  0  0  0  0  0  0  0  0  0
   13.3334  -23.2279   -2.4078 O   0  0  0  0  0  0  0  0  0  0  0  0
   12.9044  -22.1918   -1.6049 O   0  0  0  0  0  0  0  0  0  0  0  0
  1  2  1  0
  2  3  2  0
  4  5  1  0
  4  2  1  0
  6  5  1  0
  7  6  1  0
  8  7  1  0
  8  9  1  6
 10 12  1  0
 10  8  1  0
 11 10  2  0
 12 16  1  0
 13 14  1  0
 13 12  1  0
 14 15  1  0
 15 16  1  0
 16 17  1  1
 17 18  2  0
 19 20  1  0
 19 17  1  0
 20 27  1  0
 20 21  1  1
 22 21  1  0
 23 22  2  0
 24 25  1  0
 24 23  1  0
 25 26  2  0
 26 22  1  0
 27 29  2  0
 27 28  1  0
M  END
$$$$
