RPH.pdb
     RDKit          3D

 29 30  0  0  1  0  0  0  0  0999 V2000
   23.0884  -23.1990  -13.2407 N   0  0  0  0  0  0  0  0  0  0  0  0
   22.9931  -21.9759  -12.4921 C   0  0  0  0  0  0  0  0  0  0  0  0
   21.9558  -21.7974  -11.7787 N   0  0  0  0  0  0  0  0  0  0  0  0
   24.0177  -20.9956  -12.5420 N   0  0  0  0  0  0  0  0  0  0  0  0
   24.7591  -20.8261  -13.7685 C   0  0  0  0  0  0  0  0  0  0  0  0
   26.0861  -21.5644  -13.7250 C   0  0  0  0  0  0  0  0  0  0  0  0
   27.1601  -20.7640  -14.4028 C   0  0  0  0  0  0  0  0  0  0  0  0
   27.2409  -21.0389  -15.9135 C   0  0  2  0  0  0  0  0  0  0  0  0
   28.6673  -21.2278  -16.2483 N   0  0  0  0  0  0  0  0  0  0  0  0
   26.7916  -19.8322  -16.6841 C   0  0  0  0  0  0  0  0  0  0  0  0
   27.0878  -18.7446  -16.0936 O   0  0  0  0  0  0  0  0  0  0  0  0
   21.7764  -20.9344  -11.2545 N   0  0  0  0  0  0  0  0  0  0  0  0
   26.1253  -19.9187  -17.9121 C   0  0  0  0  0  0  0  0  0  0  0  0
   26.7892  -20.3217  -19.1610 C   0  0  0  0  0  0  0  0  0  0  0  0
   25.7758  -21.2817  -19.7297 C   0  0  0  0  0  0  0  0  0  0  0  0
   24.4629  -20.9614  -19.0498 C   0  0  2  0  0  0  0  0  0  0  0  0
   24.8113  -19.6351  -18.3288 C   0  0  0  0  0  0  0  0  0  0  0  0
   23.7812  -19.2907  -17.3688 O   0  0  0  0  0  0  0  0  0  0  0  0
   23.7487  -19.5144  -16.1607 N   0  0  0  0  0  0  0  0  0  0  0  0
   22.6348  -18.5902  -17.8931 C   0  0  1  0  0  0  0  0  0  0  0  0
   21.6169  -18.0247  -17.0160 C   0  0  0  0  0  0  0  0  0  0  0  0
   22.1762  -16.9187  -16.1855 C   0  0  0  0  0  0  0  0  0  0  0  0
   21.1846  -16.2445  -15.3246 C   0  0  0  0  0  0  0  0  0  0  0  0
   20.2670  -16.8773  -14.4656 N   0  0  0  0  0  0  0  0  0  0  0  0
   19.5204  -15.9899  -13.8362 C   0  0  0  0  0  0  0  0  0  0  0  0
   19.9402  -14.7729  -14.2753 N   0  0  0  0  0  0  0  0  0  0  0  0
   20.9280  -14.9338  -15.1583 C   0  0  0  0  0  0  0  0  0  0  0  0
   20.5910  -17.4735  -17.9237 O   0  0  0  0  0  0  0  0  0  0  0  0
   19.2520  -17.6078  -17.6216 O   0  0  0  0  0  0  0  0  0  0  0  0
  1  2  1  0
  2  3  2  0
  4  5  1  0
  4  2  1  0
  6  5  1  0
  7  6  1  0
  8  7  1  0
  8  9  1  6
 10 12  1  0
 10  8  1  0
 11 10  2  0
 12 16  1  0
 13 14  1  0
 13 12  1  0
 14 15  1  0
 15 16  1  0
 16 17  1  6
 17 18  2  0
 19 20  1  0
 19 17  1  0
 20 27  1  0
 20 21  1  1
 22 21  1  0
 23 22  2  0
 24 25  1  0
 24 23  1  0
 25 26  2  0
 26 22  1  0
 27 29  2  0
 27 28  1  0
M  END
$$$$
