RPH.pdb
     RDKit          3D

 29 30  0  0  1  0  0  0  0  0999 V2000
   19.8213  -17.0516  -13.3662 N   0  0  0  0  0  0  0  0  0  0  0  0
   19.2748  -18.3727  -13.5127 C   0  0  0  0  0  0  0  0  0  0  0  0
   18.0968  -18.4779  -13.9798 N   0  0  0  0  0  0  0  0  0  0  0  0
   20.0180  -19.5258  -13.1507 N   0  0  0  0  0  0  0  0  0  0  0  0
   21.4463  -19.4078  -12.9806 C   0  0  0  0  0  0  0  0  0  0  0  0
   22.1545  -19.2343  -14.3134 C   0  0  0  0  0  0  0  0  0  0  0  0
   23.6328  -19.0700  -14.1103 C   0  0  0  0  0  0  0  0  0  0  0  0
   24.4204  -20.3538  -14.4196 C   0  0  2  0  0  0  0  0  0  0  0  0
   23.4399  -21.3826  -14.8227 N   0  0  0  0  0  0  0  0  0  0  0  0
   25.0751  -20.8727  -13.1729 C   0  0  0  0  0  0  0  0  0  0  0  0
   24.2285  -21.1636  -12.2685 O   0  0  0  0  0  0  0  0  0  0  0  0
   17.6181  -19.3769  -14.0991 N   0  0  0  0  0  0  0  0  0  0  0  0
   26.4618  -21.0132  -13.0440 C   0  0  0  0  0  0  0  0  0  0  0  0
   27.3282  -21.4805  -14.1367 C   0  0  0  0  0  0  0  0  0  0  0  0
   28.4688  -20.4999  -14.0401 C   0  0  0  0  0  0  0  0  0  0  0  0
   28.4071  -19.9167  -12.6456 C   0  0  2  0  0  0  0  0  0  0  0  0
   27.3623  -20.8441  -11.9757 C   0  0  0  0  0  0  0  0  0  0  0  0
   26.9244  -20.2887  -10.7105 O   0  0  0  0  0  0  0  0  0  0  0  0
   26.1956  -19.3204  -10.5056 N   0  0  0  0  0  0  0  0  0  0  0  0
   27.4036  -20.9563   -9.5254 C   0  0  1  0  0  0  0  0  0  0  0  0
   27.7725  -20.2145   -8.3258 C   0  0  0  0  0  0  0  0  0  0  0  0
   26.7399  -20.3671   -7.2598 C   0  0  0  0  0  0  0  0  0  0  0  0
   27.1221  -19.7882   -5.9569 C   0  0  0  0  0  0  0  0  0  0  0  0
   27.9726  -18.6847   -5.7581 N   0  0  0  0  0  0  0  0  0  0  0  0
   28.1101  -18.4203   -4.4728 C   0  0  0  0  0  0  0  0  0  0  0  0
   27.3543  -19.3442   -3.8205 N   0  0  0  0  0  0  0  0  0  0  0  0
   26.7718  -20.1516   -4.7093 C   0  0  0  0  0  0  0  0  0  0  0  0
   29.0334  -20.8302   -7.8662 O   0  0  0  0  0  0  0  0  0  0  0  0
   29.2742  -22.1697   -8.0899 O   0  0  0  0  0  0  0  0  0  0  0  0
  1  2  1  0
  2  3  2  0
  4  5  1  0
  4  2  1  0
  6  5  1  0
  7  6  1  0
  8  7  1  0
  8  9  1  1
 10 12  1  0
 10  8  1  0
 11 10  2  0
 12 16  1  0
 13 14  1  0
 13 12  1  0
 14 15  1  0
 15 16  1  0
 16 17  1  6
 17 18  2  0
 19 20  1  0
 19 17  1  0
 20 27  1  0
 20 21  1  1
 22 21  1  0
 23 22  2  0
 24 25  1  0
 24 23  1  0
 25 26  2  0
 26 22  1  0
 27 29  2  0
 27 28  1  0
M  END
$$$$
