RPH.pdb
     RDKit          3D

 29 30  0  0  1  0  0  0  0  0999 V2000
   27.9202  -14.8620  -16.6685 N   0  0  0  0  0  0  0  0  0  0  0  0
   26.7247  -15.2620  -17.3586 C   0  0  0  0  0  0  0  0  0  0  0  0
   26.5869  -14.8923  -18.5674 N   0  0  0  0  0  0  0  0  0  0  0  0
   25.7272  -16.0430  -16.7199 N   0  0  0  0  0  0  0  0  0  0  0  0
   25.9673  -16.5155  -15.3775 C   0  0  0  0  0  0  0  0  0  0  0  0
   26.9653  -17.6608  -15.3591 C   0  0  0  0  0  0  0  0  0  0  0  0
   27.0967  -18.2269  -13.9750 C   0  0  0  0  0  0  0  0  0  0  0  0
   27.2716  -19.7545  -13.9729 C   0  0  2  0  0  0  0  0  0  0  0  0
   27.6003  -20.1593  -15.3550 N   0  0  0  0  0  0  0  0  0  0  0  0
   25.9695  -20.4243  -13.6445 C   0  0  0  0  0  0  0  0  0  0  0  0
   25.1709  -20.4386  -14.6352 O   0  0  0  0  0  0  0  0  0  0  0  0
   25.7650  -15.1240  -19.1353 N   0  0  0  0  0  0  0  0  0  0  0  0
   25.6892  -20.9657  -12.3845 C   0  0  0  0  0  0  0  0  0  0  0  0
   26.6904  -21.6729  -11.5718 C   0  0  0  0  0  0  0  0  0  0  0  0
   26.4371  -21.0707  -10.2135 C   0  0  0  0  0  0  0  0  0  0  0  0
   25.0420  -20.4878  -10.2637 C   0  0  2  0  0  0  0  0  0  0  0  0
   24.5216  -21.0633  -11.6047 C   0  0  0  0  0  0  0  0  0  0  0  0
   23.2982  -20.3971  -12.0051 O   0  0  0  0  0  0  0  0  0  0  0  0
   22.9342  -19.2474  -11.7676 N   0  0  0  0  0  0  0  0  0  0  0  0
   22.3764  -21.1817  -12.7890 C   0  0  1  0  0  0  0  0  0  0  0  0
   21.1143  -20.6292  -13.2654 C   0  0  0  0  0  0  0  0  0  0  0  0
   21.0060  -20.7360  -14.7496 C   0  0  0  0  0  0  0  0  0  0  0  0
   21.8352  -19.7652  -15.4904 C   0  0  0  0  0  0  0  0  0  0  0  0
   22.0509  -18.4203  -15.1371 N   0  0  0  0  0  0  0  0  0  0  0  0
   22.8420  -17.8243  -16.0088 C   0  0  0  0  0  0  0  0  0  0  0  0
   23.1504  -18.7693  -16.9373 N   0  0  0  0  0  0  0  0  0  0  0  0
   22.5485  -19.9178  -16.6215 C   0  0  0  0  0  0  0  0  0  0  0  0
   20.0694  -21.4678  -12.6449 O   0  0  0  0  0  0  0  0  0  0  0  0
   20.3599  -22.7544  -12.2419 O   0  0  0  0  0  0  0  0  0  0  0  0
  1  2  1  0
  2  3  2  0
  4  5  1  0
  4  2  1  0
  6  5  1  0
  7  6  1  0
  8  7  1  0
  8  9  1  6
 10 12  1  0
 10  8  1  0
 11 10  2  0
 12 16  1  0
 13 14  1  0
 13 12  1  0
 14 15  1  0
 15 16  1  0
 16 17  1  1
 17 18  2  0
 19 20  1  0
 19 17  1  0
 20 27  1  0
 20 21  1  1
 22 21  1  0
 23 22  2  0
 24 25  1  0
 24 23  1  0
 25 26  2  0
 26 22  1  0
 27 29  2  0
 27 28  1  0
M  END
$$$$
