RPH.pdb
     RDKit          3D

 29 30  0  0  1  0  0  0  0  0999 V2000
   27.5620  -17.2018  -16.6101 N   0  0  0  0  0  0  0  0  0  0  0  0
   27.9766  -18.3292  -17.3991 C   0  0  0  0  0  0  0  0  0  0  0  0
   29.0699  -18.2327  -18.0412 N   0  0  0  0  0  0  0  0  0  0  0  0
   27.1980  -19.5135  -17.4647 N   0  0  0  0  0  0  0  0  0  0  0  0
   25.9596  -19.5736  -16.7260 C   0  0  0  0  0  0  0  0  0  0  0  0
   25.6650  -20.9840  -16.2444 C   0  0  0  0  0  0  0  0  0  0  0  0
   26.9090  -21.6317  -15.7091 C   0  0  0  0  0  0  0  0  0  0  0  0
   26.6294  -22.5532  -14.5105 C   0  0  2  0  0  0  0  0  0  0  0  0
   26.6668  -23.9434  -15.0090 N   0  0  0  0  0  0  0  0  0  0  0  0
   25.2344  -22.3336  -14.0028 C   0  0  0  0  0  0  0  0  0  0  0  0
   24.3578  -22.5112  -14.9080 O   0  0  0  0  0  0  0  0  0  0  0  0
   29.4236  -18.9687  -18.6617 N   0  0  0  0  0  0  0  0  0  0  0  0
   24.9544  -21.9758  -12.6788 C   0  0  0  0  0  0  0  0  0  0  0  0
   25.8385  -22.3080  -11.5514 C   0  0  0  0  0  0  0  0  0  0  0  0
   25.8534  -21.0006  -10.8015 C   0  0  0  0  0  0  0  0  0  0  0  0
   24.6286  -20.2385  -11.2572 C   0  0  2  0  0  0  0  0  0  0  0  0
   23.8712  -21.3310  -12.0529 C   0  0  0  0  0  0  0  0  0  0  0  0
   22.7999  -20.7435  -12.8327 O   0  0  0  0  0  0  0  0  0  0  0  0
   22.8747  -20.0533  -13.8469 N   0  0  0  0  0  0  0  0  0  0  0  0
   21.4604  -20.9980  -12.3625 C   0  0  1  0  0  0  0  0  0  0  0  0
   20.2906  -20.6423  -13.1562 C   0  0  0  0  0  0  0  0  0  0  0  0
   20.1856  -21.4982  -14.3737 C   0  0  0  0  0  0  0  0  0  0  0  0
   19.0304  -21.1859  -15.2379 C   0  0  0  0  0  0  0  0  0  0  0  0
   19.0114  -20.2513  -16.2897 N   0  0  0  0  0  0  0  0  0  0  0  0
   17.8243  -20.2114  -16.8642 C   0  0  0  0  0  0  0  0  0  0  0  0
   17.0580  -21.1155  -16.1968 N   0  0  0  0  0  0  0  0  0  0  0  0
   17.7821  -21.6889  -15.2334 C   0  0  0  0  0  0  0  0  0  0  0  0
   19.1344  -20.9110  -12.2779 O   0  0  0  0  0  0  0  0  0  0  0  0
   18.1131  -19.9901  -12.1730 O   0  0  0  0  0  0  0  0  0  0  0  0
  1  2  1  0
  2  3  2  0
  4  5  1  0
  4  2  1  0
  6  5  1  0
  7  6  1  0
  8  7  1  0
  8  9  1  6
 10 12  1  0
 10  8  1  0
 11 10  2  0
 12 16  1  0
 13 14  1  0
 13 12  1  0
 14 15  1  0
 15 16  1  0
 16 17  1  1
 17 18  2  0
 19 20  1  0
 19 17  1  0
 20 27  1  0
 20 21  1  1
 22 21  1  0
 23 22  2  0
 24 25  1  0
 24 23  1  0
 25 26  2  0
 26 22  1  0
 27 29  2  0
 27 28  1  0
M  END
$$$$
