RPH.pdb
     RDKit          3D

 29 30  0  0  1  0  0  0  0  0999 V2000
   10.7153  -18.8158   -2.8324 N   0  0  0  0  0  0  0  0  0  0  0  0
   10.9636  -19.3438   -1.5190 C   0  0  0  0  0  0  0  0  0  0  0  0
   11.8067  -20.2894   -1.4104 N   0  0  0  0  0  0  0  0  0  0  0  0
   10.2946  -18.8327   -0.3769 N   0  0  0  0  0  0  0  0  0  0  0  0
    9.4845  -17.6467   -0.5180 C   0  0  0  0  0  0  0  0  0  0  0  0
   10.0421  -16.4901    0.2940 C   0  0  0  0  0  0  0  0  0  0  0  0
    9.2812  -16.3288    1.5780 C   0  0  0  0  0  0  0  0  0  0  0  0
    9.7560  -15.1200    2.4012 C   0  0  2  0  0  0  0  0  0  0  0  0
    9.7347  -13.9451    1.5059 N   0  0  0  0  0  0  0  0  0  0  0  0
   11.1884  -15.3023    2.8100 C   0  0  0  0  0  0  0  0  0  0  0  0
   11.9834  -15.2536    1.8175 O   0  0  0  0  0  0  0  0  0  0  0  0
   12.0962  -20.6830   -0.5087 N   0  0  0  0  0  0  0  0  0  0  0  0
   11.5808  -15.5003    4.1389 C   0  0  0  0  0  0  0  0  0  0  0  0
   10.8041  -15.0120    5.2884 C   0  0  0  0  0  0  0  0  0  0  0  0
   10.8409  -16.2163    6.1940 C   0  0  0  0  0  0  0  0  0  0  0  0
   12.0116  -17.0560    5.7325 C   0  0  2  0  0  0  0  0  0  0  0  0
   12.7078  -16.0871    4.7441 C   0  0  0  0  0  0  0  0  0  0  0  0
   13.6988  -16.7901    3.9537 O   0  0  0  0  0  0  0  0  0  0  0  0
   13.5283  -17.5447    2.9987 N   0  0  0  0  0  0  0  0  0  0  0  0
   15.0750  -16.5820    4.3317 C   0  0  1  0  0  0  0  0  0  0  0  0
   16.1599  -17.3356    3.7153 C   0  0  0  0  0  0  0  0  0  0  0  0
   16.8792  -16.5115    2.7008 C   0  0  0  0  0  0  0  0  0  0  0  0
   17.3840  -15.2223    3.2129 C   0  0  0  0  0  0  0  0  0  0  0  0
   17.2286  -14.7335    4.5233 N   0  0  0  0  0  0  0  0  0  0  0  0
   17.7969  -13.5502    4.6561 C   0  0  0  0  0  0  0  0  0  0  0  0
   18.3275  -13.2542    3.4391 N   0  0  0  0  0  0  0  0  0  0  0  0
   18.0776  -14.2522    2.5890 C   0  0  0  0  0  0  0  0  0  0  0  0
   17.0849  -17.6520    4.8219 O   0  0  0  0  0  0  0  0  0  0  0  0
   16.8768  -17.1163    6.0757 O   0  0  0  0  0  0  0  0  0  0  0  0
  1  2  1  0
  2  3  2  0
  4  5  1  0
  4  2  1  0
  6  5  1  0
  7  6  1  0
  8  7  1  0
  8  9  1  6
 10 12  1  0
 10  8  1  0
 11 10  2  0
 12 16  1  0
 13 14  1  0
 13 12  1  0
 14 15  1  0
 15 16  1  0
 16 17  1  1
 17 18  2  0
 19 20  1  0
 19 17  1  0
 20 27  1  0
 20 21  1  6
 22 21  1  0
 23 22  2  0
 24 25  1  0
 24 23  1  0
 25 26  2  0
 26 22  1  0
 27 29  2  0
 27 28  1  0
M  END
$$$$
