RPH.pdb
     RDKit          3D

 29 30  0  0  1  0  0  0  0  0999 V2000
   27.7372  -24.7367  -18.7882 N   0  0  0  0  0  0  0  0  0  0  0  0
   28.4223  -25.3987  -17.7122 C   0  0  0  0  0  0  0  0  0  0  0  0
   29.0406  -26.4775  -17.9786 N   0  0  0  0  0  0  0  0  0  0  0  0
   28.4141  -24.8729  -16.3945 N   0  0  0  0  0  0  0  0  0  0  0  0
   27.7069  -23.6405  -16.1417 C   0  0  0  0  0  0  0  0  0  0  0  0
   28.4381  -22.4465  -16.7314 C   0  0  0  0  0  0  0  0  0  0  0  0
   27.6066  -21.2026  -16.6088 C   0  0  0  0  0  0  0  0  0  0  0  0
   27.6611  -20.5890  -15.2001 C   0  0  2  0  0  0  0  0  0  0  0  0
   27.7984  -21.7048  -14.2416 N   0  0  0  0  0  0  0  0  0  0  0  0
   26.3564  -19.9227  -14.8746 C   0  0  0  0  0  0  0  0  0  0  0  0
   25.4591  -20.7587  -14.5352 O   0  0  0  0  0  0  0  0  0  0  0  0
   29.5813  -27.0015  -17.2824 N   0  0  0  0  0  0  0  0  0  0  0  0
   26.1725  -18.5367  -14.9426 C   0  0  0  0  0  0  0  0  0  0  0  0
   27.2228  -17.5677  -14.5953 C   0  0  0  0  0  0  0  0  0  0  0  0
   27.1007  -16.5889  -15.7350 C   0  0  0  0  0  0  0  0  0  0  0  0
   25.7204  -16.7920  -16.3199 C   0  0  2  0  0  0  0  0  0  0  0  0
   25.0740  -17.7148  -15.2564 C   0  0  0  0  0  0  0  0  0  0  0  0
   23.8366  -18.2804  -15.7564 O   0  0  0  0  0  0  0  0  0  0  0  0
   23.6744  -19.1120  -16.6468 N   0  0  0  0  0  0  0  0  0  0  0  0
   22.6258  -17.8097  -15.1301 C   0  0  1  0  0  0  0  0  0  0  0  0
   21.3128  -18.2832  -15.5510 C   0  0  0  0  0  0  0  0  0  0  0  0
   20.4529  -18.6019  -14.3742 C   0  0  0  0  0  0  0  0  0  0  0  0
   19.0791  -19.0164  -14.7204 C   0  0  0  0  0  0  0  0  0  0  0  0
   18.7218  -20.1383  -15.4911 N   0  0  0  0  0  0  0  0  0  0  0  0
   17.4113  -20.2274  -15.6156 C   0  0  0  0  0  0  0  0  0  0  0  0
   16.9003  -19.1692  -14.9306 N   0  0  0  0  0  0  0  0  0  0  0  0
   17.8974  -18.4562  -14.4027 C   0  0  0  0  0  0  0  0  0  0  0  0
   20.7162  -17.1534  -16.2912 O   0  0  0  0  0  0  0  0  0  0  0  0
   19.9171  -17.3880  -17.3905 O   0  0  0  0  0  0  0  0  0  0  0  0
  1  2  1  0
  2  3  2  0
  4  5  1  0
  4  2  1  0
  6  5  1  0
  7  6  1  0
  8  7  1  0
  8  9  1  1
 10 12  1  0
 10  8  1  0
 11 10  2  0
 12 16  1  0
 13 14  1  0
 13 12  1  0
 14 15  1  0
 15 16  1  0
 16 17  1  6
 17 18  2  0
 19 20  1  0
 19 17  1  0
 20 27  1  0
 20 21  1  6
 22 21  1  0
 23 22  2  0
 24 25  1  0
 24 23  1  0
 25 26  2  0
 26 22  1  0
 27 29  2  0
 27 28  1  0
M  END
$$$$
