RPH.pdb
     RDKit          3D

 29 30  0  0  1  0  0  0  0  0999 V2000
   23.4243  -20.9934   -9.9613 N   0  0  0  0  0  0  0  0  0  0  0  0
   24.6637  -20.6384  -10.5964 C   0  0  0  0  0  0  0  0  0  0  0  0
   25.7425  -20.8920   -9.9729 N   0  0  0  0  0  0  0  0  0  0  0  0
   24.6912  -20.0255  -11.8757 N   0  0  0  0  0  0  0  0  0  0  0  0
   23.4504  -19.8577  -12.5934 C   0  0  0  0  0  0  0  0  0  0  0  0
   23.3794  -20.7700  -13.8060 C   0  0  0  0  0  0  0  0  0  0  0  0
   22.8533  -20.0258  -14.9989 C   0  0  0  0  0  0  0  0  0  0  0  0
   23.8471  -18.9807  -15.5319 C   0  0  2  0  0  0  0  0  0  0  0  0
   23.2124  -18.3258  -16.6941 N   0  0  0  0  0  0  0  0  0  0  0  0
   25.0775  -19.6583  -16.0601 C   0  0  0  0  0  0  0  0  0  0  0  0
   24.7991  -20.6297  -16.8334 O   0  0  0  0  0  0  0  0  0  0  0  0
   26.6679  -20.6117  -10.3147 N   0  0  0  0  0  0  0  0  0  0  0  0
   26.3739  -19.2488  -15.7267 C   0  0  0  0  0  0  0  0  0  0  0  0
   26.7614  -17.8367  -15.5902 C   0  0  0  0  0  0  0  0  0  0  0  0
   27.5726  -17.8815  -14.3206 C   0  0  0  0  0  0  0  0  0  0  0  0
   27.9905  -19.3239  -14.1374 C   0  0  2  0  0  0  0  0  0  0  0  0
   27.5834  -19.9326  -15.5027 C   0  0  0  0  0  0  0  0  0  0  0  0
   27.6238  -21.3805  -15.4479 O   0  0  0  0  0  0  0  0  0  0  0  0
   27.6860  -22.1124  -14.4625 N   0  0  0  0  0  0  0  0  0  0  0  0
   27.5863  -22.0642  -16.7172 C   0  0  1  0  0  0  0  0  0  0  0  0
   27.3748  -23.5038  -16.8047 C   0  0  0  0  0  0  0  0  0  0  0  0
   26.0860  -23.8984  -16.1650 C   0  0  0  0  0  0  0  0  0  0  0  0
   25.7158  -25.3130  -16.3670 C   0  0  0  0  0  0  0  0  0  0  0  0
   26.4504  -26.4317  -15.9321 N   0  0  0  0  0  0  0  0  0  0  0  0
   25.8461  -27.5543  -16.2720 C   0  0  0  0  0  0  0  0  0  0  0  0
   24.7149  -27.1829  -16.9297 N   0  0  0  0  0  0  0  0  0  0  0  0
   24.6460  -25.8510  -16.9812 C   0  0  0  0  0  0  0  0  0  0  0  0
   27.3032  -23.7944  -18.2506 O   0  0  0  0  0  0  0  0  0  0  0  0
   27.7808  -24.9908  -18.7431 O   0  0  0  0  0  0  0  0  0  0  0  0
  1  2  1  0
  2  3  2  0
  4  5  1  0
  4  2  1  0
  6  5  1  0
  7  6  1  0
  8  7  1  0
  8  9  1  6
 10 12  1  0
 10  8  1  0
 11 10  2  0
 12 16  1  0
 13 14  1  0
 13 12  1  0
 14 15  1  0
 15 16  1  0
 16 17  1  1
 17 18  2  0
 19 20  1  0
 19 17  1  0
 20 27  1  0
 20 21  1  6
 22 21  1  0
 23 22  2  0
 24 25  1  0
 24 23  1  0
 25 26  2  0
 26 22  1  0
 27 29  2  0
 27 28  1  0
M  END
$$$$
