RPH.pdb
     RDKit          3D

 29 30  0  0  1  0  0  0  0  0999 V2000
   15.4645  -20.6912  -14.3414 N   0  0  0  0  0  0  0  0  0  0  0  0
   16.3086  -19.5868  -14.7064 C   0  0  0  0  0  0  0  0  0  0  0  0
   15.9850  -18.9076  -15.7316 N   0  0  0  0  0  0  0  0  0  0  0  0
   17.4655  -19.2587  -13.9535 N   0  0  0  0  0  0  0  0  0  0  0  0
   18.2970  -20.3276  -13.4546 C   0  0  0  0  0  0  0  0  0  0  0  0
   19.5226  -19.7916  -12.7346 C   0  0  0  0  0  0  0  0  0  0  0  0
   20.7731  -20.4202  -13.2774 C   0  0  0  0  0  0  0  0  0  0  0  0
   21.8486  -20.6292  -12.1986 C   0  0  2  0  0  0  0  0  0  0  0  0
   22.9700  -21.3522  -12.8327 N   0  0  0  0  0  0  0  0  0  0  0  0
   21.3307  -21.5343  -11.1195 C   0  0  0  0  0  0  0  0  0  0  0  0
   20.3441  -22.2363  -11.5108 O   0  0  0  0  0  0  0  0  0  0  0  0
   16.4622  -18.0421  -16.0054 N   0  0  0  0  0  0  0  0  0  0  0  0
   21.8874  -21.5839   -9.8361 C   0  0  0  0  0  0  0  0  0  0  0  0
   23.2847  -21.2244   -9.5509 C   0  0  0  0  0  0  0  0  0  0  0  0
   23.1189  -20.3828   -8.3115 C   0  0  0  0  0  0  0  0  0  0  0  0
   21.7703  -20.7473   -7.7310 C   0  0  2  0  0  0  0  0  0  0  0  0
   21.4017  -21.9903   -8.5793 C   0  0  0  0  0  0  0  0  0  0  0  0
   20.0068  -22.3384   -8.3946 O   0  0  0  0  0  0  0  0  0  0  0  0
   19.0054  -21.6989   -8.7091 N   0  0  0  0  0  0  0  0  0  0  0  0
   19.7488  -23.6054   -7.7559 C   0  0  1  0  0  0  0  0  0  0  0  0
   18.3922  -24.0561   -7.4706 C   0  0  0  0  0  0  0  0  0  0  0  0
   18.1659  -25.4394   -7.9817 C   0  0  0  0  0  0  0  0  0  0  0  0
   17.8987  -25.5150   -9.4315 C   0  0  0  0  0  0  0  0  0  0  0  0
   17.7296  -24.4214  -10.3008 N   0  0  0  0  0  0  0  0  0  0  0  0
   17.5050  -24.8300  -11.5350 C   0  0  0  0  0  0  0  0  0  0  0  0
   17.5248  -26.1892  -11.4859 N   0  0  0  0  0  0  0  0  0  0  0  0
   17.7591  -26.5867  -10.2336 C   0  0  0  0  0  0  0  0  0  0  0  0
   18.2922  -24.0650   -5.9974 O   0  0  0  0  0  0  0  0  0  0  0  0
   17.0578  -24.0099   -5.3847 O   0  0  0  0  0  0  0  0  0  0  0  0
  1  2  1  0
  2  3  2  0
  4  5  1  0
  4  2  1  0
  6  5  1  0
  7  6  1  0
  8  7  1  0
  8  9  1  6
 10 12  1  0
 10  8  1  0
 11 10  2  0
 12 16  1  0
 13 14  1  0
 13 12  1  0
 14 15  1  0
 15 16  1  0
 16 17  1  1
 17 18  2  0
 19 20  1  0
 19 17  1  0
 20 27  1  0
 20 21  1  1
 22 21  1  0
 23 22  2  0
 24 25  1  0
 24 23  1  0
 25 26  2  0
 26 22  1  0
 27 29  2  0
 27 28  1  0
M  END
$$$$
