RPH.pdb
     RDKit          3D

 29 30  0  0  1  0  0  0  0  0999 V2000
   24.1363  -17.8899  -16.7082 N   0  0  0  0  0  0  0  0  0  0  0  0
   25.1836  -16.9273  -16.9129 C   0  0  0  0  0  0  0  0  0  0  0  0
   25.4824  -16.6230  -18.1109 N   0  0  0  0  0  0  0  0  0  0  0  0
   25.8660  -16.3320  -15.8207 N   0  0  0  0  0  0  0  0  0  0  0  0
   27.2820  -16.5683  -15.6730 C   0  0  0  0  0  0  0  0  0  0  0  0
   27.5822  -18.0415  -15.4551 C   0  0  0  0  0  0  0  0  0  0  0  0
   27.1052  -18.4851  -14.1026 C   0  0  0  0  0  0  0  0  0  0  0  0
   27.2646  -19.9987  -13.8841 C   0  0  2  0  0  0  0  0  0  0  0  0
   27.6670  -20.5876  -15.1778 N   0  0  0  0  0  0  0  0  0  0  0  0
   25.9395  -20.6152  -13.5435 C   0  0  0  0  0  0  0  0  0  0  0  0
   25.2015  -20.7698  -14.5686 O   0  0  0  0  0  0  0  0  0  0  0  0
   26.2685  -16.0116  -18.3556 N   0  0  0  0  0  0  0  0  0  0  0  0
   25.5798  -20.9725  -12.2388 C   0  0  0  0  0  0  0  0  0  0  0  0
   26.5084  -21.6123  -11.2948 C   0  0  0  0  0  0  0  0  0  0  0  0
   26.2313  -20.8255  -10.0394 C   0  0  0  0  0  0  0  0  0  0  0  0
   24.8719  -20.1900  -10.2309 C   0  0  2  0  0  0  0  0  0  0  0  0
   24.3777  -20.9122  -11.5094 C   0  0  0  0  0  0  0  0  0  0  0  0
   23.2082  -20.2483  -12.0503 O   0  0  0  0  0  0  0  0  0  0  0  0
   23.0567  -19.0607  -12.3287 N   0  0  0  0  0  0  0  0  0  0  0  0
   22.0616  -21.0868  -12.2992 C   0  0  1  0  0  0  0  0  0  0  0  0
   20.8338  -20.5525  -12.8756 C   0  0  0  0  0  0  0  0  0  0  0  0
   20.5249  -21.2032  -14.1821 C   0  0  0  0  0  0  0  0  0  0  0  0
   19.3343  -20.6598  -14.8648 C   0  0  0  0  0  0  0  0  0  0  0  0
   18.5253  -19.6042  -14.4048 N   0  0  0  0  0  0  0  0  0  0  0  0
   17.5406  -19.3619  -15.2487 C   0  0  0  0  0  0  0  0  0  0  0  0
   17.6946  -20.2527  -16.2651 N   0  0  0  0  0  0  0  0  0  0  0  0
   18.7617  -21.0187  -16.0286 C   0  0  0  0  0  0  0  0  0  0  0  0
   19.7740  -20.8935  -11.9056 O   0  0  0  0  0  0  0  0  0  0  0  0
   18.7532  -20.0019  -11.6503 O   0  0  0  0  0  0  0  0  0  0  0  0
  1  2  1  0
  2  3  2  0
  4  5  1  0
  4  2  1  0
  6  5  1  0
  7  6  1  0
  8  7  1  0
  8  9  1  6
 10 12  1  0
 10  8  1  0
 11 10  2  0
 12 16  1  0
 13 14  1  0
 13 12  1  0
 14 15  1  0
 15 16  1  0
 16 17  1  1
 17 18  2  0
 19 20  1  0
 19 17  1  0
 20 27  1  0
 20 21  1  1
 22 21  1  0
 23 22  2  0
 24 25  1  0
 24 23  1  0
 25 26  2  0
 26 22  1  0
 27 29  2  0
 27 28  1  0
M  END
$$$$
