SIR.pdb
     RDKit          3D

 26 25  0  0  1  0  0  0  0  0999 V2000
    4.3824  -17.8289   22.7470 O   0  0  0  0  0  0  0  0  0  0  0  0
    5.4314  -18.2303   21.9221 C   0  0  0  0  0  0  0  0  0  0  0  0
    6.7200  -18.0753   22.6950 C   0  0  2  0  0  0  0  0  0  0  0  0
    6.4935  -18.4992   24.0537 N   0  0  0  0  0  0  0  0  0  0  0  0
    7.1777  -16.6499   22.7064 C   0  0  0  0  0  0  0  0  0  0  0  0
    7.4476  -16.1528   21.5939 O   0  0  0  0  0  0  0  0  0  0  0  0
    6.5368  -11.7441   26.4098 C   0  0  0  0  0  0  0  0  0  0  0  0
    7.2301  -12.3705   25.2295 C   0  0  0  0  0  0  0  0  0  0  0  0
    6.8505  -13.8406   25.0929 C   0  0  2  0  0  0  0  0  0  0  0  0
    7.1491  -14.5394   26.4210 C   0  0  0  0  0  0  0  0  0  0  0  0
    7.6427  -14.5017   23.9970 C   0  0  2  0  0  0  0  0  0  0  0  0
    7.2995  -15.9119   23.8770 N   0  0  0  0  0  0  0  0  0  0  0  0
    9.0936  -14.4121   24.2589 C   0  0  0  0  0  0  0  0  0  0  0  0
    9.8533  -13.9268   23.3240 O   0  0  0  0  0  0  0  0  0  0  0  0
    8.1909  -22.2339   26.2856 N   0  0  0  0  0  0  0  0  0  0  0  0
    9.5879  -22.1729   26.0361 C   0  0  0  0  0  0  0  0  0  0  0  0
   10.3120  -23.2423   25.9017 N   0  0  0  0  0  0  0  0  0  0  0  0
   10.1965  -20.9024   25.9332 N   0  0  0  0  0  0  0  0  0  0  0  0
    9.4379  -19.6649   26.0834 C   0  0  0  0  0  0  0  0  0  0  0  0
   10.3675  -18.4882   25.7321 C   0  0  0  0  0  0  0  0  0  0  0  0
    9.6458  -17.1949   25.7867 C   0  0  0  0  0  0  0  0  0  0  0  0
   10.5561  -16.0487   25.4469 C   0  0  2  0  0  0  0  0  0  0  0  0
    9.7670  -14.7936   25.4339 N   0  0  0  0  0  0  0  0  0  0  0  0
   11.2677  -16.1930   24.1579 C   0  0  0  0  0  0  0  0  0  0  0  0
   12.5721  -15.6855   23.9834 O   0  0  0  0  0  0  0  0  0  0  0  0
   10.7688  -16.7635   23.1561 O   0  0  0  0  0  0  0  0  0  0  0  0
  2  1  1  0
  3  2  1  0
  3  4  1  1
  5  3  1  0
  6  5  2  0
  7  8  1  0
  8  9  1  0
  9 10  1  1
  9 11  1  0
 11 12  1  1
 12  5  1  0
 13 11  1  0
 13 14  2  0
 16 15  1  0
 17 16  2  0
 18 16  1  0
 19 18  1  0
 20 21  1  0
 20 19  1  0
 22 21  1  6
 22 23  1  0
 23 13  1  0
 24 22  1  0
 25 24  1  0
 26 24  2  0
M  END
$$$$
