SIR.pdb
     RDKit          3D

 26 25  0  0  1  0  0  0  0  0999 V2000
   10.5559  -17.7751   15.3360 O   0  0  0  0  0  0  0  0  0  0  0  0
    9.3268  -17.2506   14.9407 C   0  0  0  0  0  0  0  0  0  0  0  0
    9.4146  -15.7445   15.0173 C   0  0  2  0  0  0  0  0  0  0  0  0
   10.2893  -15.2824   13.9693 N   0  0  0  0  0  0  0  0  0  0  0  0
    9.9675  -15.2996   16.3355 C   0  0  0  0  0  0  0  0  0  0  0  0
   11.1943  -15.0729   16.3659 O   0  0  0  0  0  0  0  0  0  0  0  0
    6.4620  -12.5086   19.3840 C   0  0  0  0  0  0  0  0  0  0  0  0
    7.7597  -12.9222   18.7428 C   0  0  0  0  0  0  0  0  0  0  0  0
    8.4110  -14.0612   19.5188 C   0  0  2  0  0  0  0  0  0  0  0  0
    8.8947  -13.5123   20.8627 C   0  0  0  0  0  0  0  0  0  0  0  0
    9.5846  -14.6252   18.7636 C   0  0  2  0  0  0  0  0  0  0  0  0
    9.1751  -15.1440   17.4658 N   0  0  0  0  0  0  0  0  0  0  0  0
   10.2185  -15.7307   19.5106 C   0  0  0  0  0  0  0  0  0  0  0  0
   10.0021  -16.9447   19.1037 O   0  0  0  0  0  0  0  0  0  0  0  0
   17.0889  -12.8908   16.7636 N   0  0  0  0  0  0  0  0  0  0  0  0
   17.5373  -14.0952   17.3686 C   0  0  0  0  0  0  0  0  0  0  0  0
   18.7537  -14.5270   17.2272 N   0  0  0  0  0  0  0  0  0  0  0  0
   16.6210  -14.8375   18.1461 N   0  0  0  0  0  0  0  0  0  0  0  0
   15.2326  -14.4211   18.3157 C   0  0  0  0  0  0  0  0  0  0  0  0
   14.5505  -15.4111   19.2783 C   0  0  0  0  0  0  0  0  0  0  0  0
   13.1334  -15.0462   19.5134 C   0  0  0  0  0  0  0  0  0  0  0  0
   12.4923  -15.9681   20.5119 C   0  0  2  0  0  0  0  0  0  0  0  0
   11.0561  -15.6212   20.6358 N   0  0  0  0  0  0  0  0  0  0  0  0
   13.1178  -15.9497   21.8524 C   0  0  0  0  0  0  0  0  0  0  0  0
   13.9047  -17.0291   22.3056 O   0  0  0  0  0  0  0  0  0  0  0  0
   12.9924  -14.9938   22.6577 O   0  0  0  0  0  0  0  0  0  0  0  0
  2  1  1  0
  3  2  1  0
  3  4  1  6
  5  3  1  0
  6  5  2  0
  7  8  1  0
  8  9  1  0
  9 10  1  1
  9 11  1  0
 11 12  1  6
 12  5  1  0
 13 11  1  0
 13 14  2  0
 16 15  1  0
 17 16  2  0
 18 16  1  0
 19 18  1  0
 20 21  1  0
 20 19  1  0
 22 21  1  6
 22 23  1  0
 23 13  1  0
 24 22  1  0
 25 24  1  0
 26 24  2  0
M  END
$$$$
