SIR.pdb
     RDKit          3D

 26 25  0  0  1  0  0  0  0  0999 V2000
    8.8622  -19.4070   18.2224 O   0  0  0  0  0  0  0  0  0  0  0  0
    8.1096  -18.6064   17.3653 C   0  0  0  0  0  0  0  0  0  0  0  0
    8.9400  -17.3970   17.0053 C   0  0  2  0  0  0  0  0  0  0  0  0
   10.0691  -17.8325   16.2227 N   0  0  0  0  0  0  0  0  0  0  0  0
    9.4449  -16.7012   18.2310 C   0  0  0  0  0  0  0  0  0  0  0  0
   10.6577  -16.8503   18.4846 O   0  0  0  0  0  0  0  0  0  0  0  0
    6.5775  -12.2099   19.8116 C   0  0  0  0  0  0  0  0  0  0  0  0
    7.7750  -13.0722   19.5140 C   0  0  0  0  0  0  0  0  0  0  0  0
    7.9454  -14.1519   20.5765 C   0  0  2  0  0  0  0  0  0  0  0  0
    8.3266  -13.4737   21.8942 C   0  0  0  0  0  0  0  0  0  0  0  0
    9.0281  -15.1230   20.1887 C   0  0  2  0  0  0  0  0  0  0  0  0
    8.6248  -15.9322   19.0470 N   0  0  0  0  0  0  0  0  0  0  0  0
    9.3453  -16.0410   21.3016 C   0  0  0  0  0  0  0  0  0  0  0  0
    8.4382  -16.8967   21.6638 O   0  0  0  0  0  0  0  0  0  0  0  0
   15.3322  -22.0851   21.3640 N   0  0  0  0  0  0  0  0  0  0  0  0
   14.7964  -21.1146   20.4759 C   0  0  0  0  0  0  0  0  0  0  0  0
   15.3549  -20.8392   19.3364 N   0  0  0  0  0  0  0  0  0  0  0  0
   13.6182  -20.4345   20.8561 N   0  0  0  0  0  0  0  0  0  0  0  0
   13.6332  -19.3348   21.8153 C   0  0  0  0  0  0  0  0  0  0  0  0
   12.1908  -18.8187   21.9740 C   0  0  0  0  0  0  0  0  0  0  0  0
   12.1186  -17.7107   22.9556 C   0  0  0  0  0  0  0  0  0  0  0  0
   10.7235  -17.1614   23.0550 C   0  0  2  0  0  0  0  0  0  0  0  0
   10.5473  -16.1045   22.0302 N   0  0  0  0  0  0  0  0  0  0  0  0
   10.3728  -16.6170   24.3851 C   0  0  0  0  0  0  0  0  0  0  0  0
   10.1068  -15.2435   24.5647 O   0  0  0  0  0  0  0  0  0  0  0  0
   10.2910  -17.3254   25.4193 O   0  0  0  0  0  0  0  0  0  0  0  0
  2  1  1  0
  3  2  1  0
  3  4  1  6
  5  3  1  0
  6  5  2  0
  7  8  1  0
  8  9  1  0
  9 10  1  1
  9 11  1  0
 11 12  1  6
 12  5  1  0
 13 11  1  0
 13 14  2  0
 16 15  1  0
 17 16  2  0
 18 16  1  0
 19 18  1  0
 20 21  1  0
 20 19  1  0
 22 21  1  1
 22 23  1  0
 23 13  1  0
 24 22  1  0
 25 24  1  0
 26 24  2  0
M  END
$$$$
