SIR.pdb
     RDKit          3D

 26 25  0  0  1  0  0  0  0  0999 V2000
    5.4298  -18.5217   22.0791 O   0  0  0  0  0  0  0  0  0  0  0  0
    5.4226  -17.6227   23.1440 C   0  0  0  0  0  0  0  0  0  0  0  0
    5.5525  -16.2277   22.5792 C   0  0  2  0  0  0  0  0  0  0  0  0
    5.7598  -16.3264   21.1564 N   0  0  0  0  0  0  0  0  0  0  0  0
    6.7144  -15.5032   23.1848 C   0  0  0  0  0  0  0  0  0  0  0  0
    7.7218  -15.3807   22.4583 O   0  0  0  0  0  0  0  0  0  0  0  0
    5.8045  -11.7484   26.9885 C   0  0  0  0  0  0  0  0  0  0  0  0
    6.6335  -12.3670   25.8948 C   0  0  0  0  0  0  0  0  0  0  0  0
    7.3400  -13.6230   26.3920 C   0  0  2  0  0  0  0  0  0  0  0  0
    8.5471  -13.1957   27.2297 C   0  0  0  0  0  0  0  0  0  0  0  0
    7.8120  -14.4674   25.2388 C   0  0  2  0  0  0  0  0  0  0  0  0
    6.6878  -14.9924   24.4763 N   0  0  0  0  0  0  0  0  0  0  0  0
    8.6115  -15.6163   25.7109 C   0  0  0  0  0  0  0  0  0  0  0  0
    8.0051  -16.5447   26.3868 O   0  0  0  0  0  0  0  0  0  0  0  0
   14.8511  -20.3169   21.3307 N   0  0  0  0  0  0  0  0  0  0  0  0
   13.9325  -20.6872   22.3489 C   0  0  0  0  0  0  0  0  0  0  0  0
   13.4853  -21.9005   22.4664 N   0  0  0  0  0  0  0  0  0  0  0  0
   13.4997  -19.6947   23.2559 N   0  0  0  0  0  0  0  0  0  0  0  0
   12.3476  -18.8423   22.9806 C   0  0  0  0  0  0  0  0  0  0  0  0
   11.5072  -18.7436   24.2675 C   0  0  0  0  0  0  0  0  0  0  0  0
   11.7180  -17.4461   24.9520 C   0  0  0  0  0  0  0  0  0  0  0  0
   10.5848  -17.1340   25.8882 C   0  0  2  0  0  0  0  0  0  0  0  0
    9.9862  -15.8332   25.5040 N   0  0  0  0  0  0  0  0  0  0  0  0
   10.9642  -17.0952   27.3176 C   0  0  0  0  0  0  0  0  0  0  0  0
   11.2256  -18.2807   28.0358 O   0  0  0  0  0  0  0  0  0  0  0  0
   11.0758  -16.0286   27.9717 O   0  0  0  0  0  0  0  0  0  0  0  0
  2  1  1  0
  3  2  1  0
  3  4  1  6
  5  3  1  0
  6  5  2  0
  7  8  1  0
  8  9  1  0
  9 10  1  6
  9 11  1  0
 11 12  1  1
 12  5  1  0
 13 11  1  0
 13 14  2  0
 16 15  1  0
 17 16  2  0
 18 16  1  0
 19 18  1  0
 20 21  1  0
 20 19  1  0
 22 21  1  6
 22 23  1  0
 23 13  1  0
 24 22  1  0
 25 24  1  0
 26 24  2  0
M  END
$$$$
