SIR.pdb
     RDKit          3D

 26 25  0  0  1  0  0  0  0  0999 V2000
    8.1294  -17.3800   21.3851 O   0  0  0  0  0  0  0  0  0  0  0  0
    6.8403  -16.8648   21.5070 C   0  0  0  0  0  0  0  0  0  0  0  0
    6.9270  -15.3598   21.4101 C   0  0  2  0  0  0  0  0  0  0  0  0
    7.4609  -15.0136   20.1170 N   0  0  0  0  0  0  0  0  0  0  0  0
    7.8268  -14.7991   22.4671 C   0  0  0  0  0  0  0  0  0  0  0  0
    8.9877  -14.5183   22.1051 O   0  0  0  0  0  0  0  0  0  0  0  0
    5.3989  -11.9754   26.4572 C   0  0  0  0  0  0  0  0  0  0  0  0
    6.4977  -12.3141   25.4856 C   0  0  0  0  0  0  0  0  0  0  0  0
    7.2965  -13.5200   25.9667 C   0  0  2  0  0  0  0  0  0  0  0  0
    8.1572  -13.0837   27.1542 C   0  0  0  0  0  0  0  0  0  0  0  0
    8.1897  -14.0446   24.8746 C   0  0  2  0  0  0  0  0  0  0  0  0
    7.4090  -14.5976   23.7765 N   0  0  0  0  0  0  0  0  0  0  0  0
    9.0776  -15.1123   25.3782 C   0  0  0  0  0  0  0  0  0  0  0  0
    8.5516  -16.2708   25.6382 O   0  0  0  0  0  0  0  0  0  0  0  0
   16.9782  -16.4346   26.1584 N   0  0  0  0  0  0  0  0  0  0  0  0
   16.3354  -16.9443   24.9989 C   0  0  0  0  0  0  0  0  0  0  0  0
   16.5170  -16.4226   23.8238 N   0  0  0  0  0  0  0  0  0  0  0  0
   15.4736  -18.0543   25.1421 N   0  0  0  0  0  0  0  0  0  0  0  0
   14.2455  -17.9860   25.9274 C   0  0  0  0  0  0  0  0  0  0  0  0
   13.1445  -17.3741   25.0412 C   0  0  0  0  0  0  0  0  0  0  0  0
   12.6406  -16.1008   25.6079 C   0  0  0  0  0  0  0  0  0  0  0  0
   11.2083  -16.2281   26.0443 C   0  0  2  0  0  0  0  0  0  0  0  0
   10.4626  -15.0229   25.6091 N   0  0  0  0  0  0  0  0  0  0  0  0
   11.0262  -16.4174   27.5002 C   0  0  0  0  0  0  0  0  0  0  0  0
   11.1216  -17.6962   28.0876 O   0  0  0  0  0  0  0  0  0  0  0  0
   10.7796  -15.4735   28.2917 O   0  0  0  0  0  0  0  0  0  0  0  0
  2  1  1  0
  3  2  1  0
  3  4  1  6
  5  3  1  0
  6  5  2  0
  7  8  1  0
  8  9  1  0
  9 10  1  1
  9 11  1  0
 11 12  1  6
 12  5  1  0
 13 11  1  0
 13 14  2  0
 16 15  1  0
 17 16  2  0
 18 16  1  0
 19 18  1  0
 20 21  1  0
 20 19  1  0
 22 21  1  1
 22 23  1  0
 23 13  1  0
 24 22  1  0
 25 24  1  0
 26 24  2  0
M  END
$$$$
