SIR.pdb
     RDKit          3D

 26 25  0  0  1  0  0  0  0  0999 V2000
    8.4061  -19.7033   18.0548 O   0  0  0  0  0  0  0  0  0  0  0  0
    7.3246  -18.9396   17.6198 C   0  0  0  0  0  0  0  0  0  0  0  0
    7.8621  -17.6428   17.0618 C   0  0  2  0  0  0  0  0  0  0  0  0
    8.7125  -17.9446   15.9381 N   0  0  0  0  0  0  0  0  0  0  0  0
    8.6646  -16.9027   18.0863 C   0  0  0  0  0  0  0  0  0  0  0  0
    9.9048  -16.9740   17.9661 O   0  0  0  0  0  0  0  0  0  0  0  0
    8.0965  -11.8353   21.4697 C   0  0  0  0  0  0  0  0  0  0  0  0
    8.7908  -13.1600   21.2989 C   0  0  0  0  0  0  0  0  0  0  0  0
    8.0489  -14.0379   20.2976 C   0  0  2  0  0  0  0  0  0  0  0  0
    6.6400  -14.2958   20.8359 C   0  0  0  0  0  0  0  0  0  0  0  0
    8.7548  -15.3539   20.1087 C   0  0  2  0  0  0  0  0  0  0  0  0
    8.0784  -16.1758   19.1148 N   0  0  0  0  0  0  0  0  0  0  0  0
    8.8016  -16.1203   21.3705 C   0  0  0  0  0  0  0  0  0  0  0  0
    8.0416  -17.1680   21.4762 O   0  0  0  0  0  0  0  0  0  0  0  0
   15.7291  -19.6684   19.5456 N   0  0  0  0  0  0  0  0  0  0  0  0
   14.7313  -20.4318   20.2084 C   0  0  0  0  0  0  0  0  0  0  0  0
   14.5128  -21.6791   19.9214 N   0  0  0  0  0  0  0  0  0  0  0  0
   13.9590  -19.8021   21.2095 N   0  0  0  0  0  0  0  0  0  0  0  0
   13.5834  -18.3943   21.1282 C   0  0  0  0  0  0  0  0  0  0  0  0
   12.5956  -18.0959   22.2715 C   0  0  0  0  0  0  0  0  0  0  0  0
   11.5346  -17.1566   21.8371 C   0  0  0  0  0  0  0  0  0  0  0  0
   10.5805  -16.8566   22.9586 C   0  0  2  0  0  0  0  0  0  0  0  0
    9.5974  -15.8469   22.4982 N   0  0  0  0  0  0  0  0  0  0  0  0
   11.2264  -16.3800   24.2013 C   0  0  0  0  0  0  0  0  0  0  0  0
   11.4024  -17.2373   25.3075 O   0  0  0  0  0  0  0  0  0  0  0  0
   11.6507  -15.2071   24.3506 O   0  0  0  0  0  0  0  0  0  0  0  0
  2  1  1  0
  3  2  1  0
  3  4  1  6
  5  3  1  0
  6  5  2  0
  7  8  1  0
  8  9  1  0
  9 10  1  1
  9 11  1  0
 11 12  1  6
 12  5  1  0
 13 11  1  0
 13 14  2  0
 16 15  1  0
 17 16  2  0
 18 16  1  0
 19 18  1  0
 20 21  1  0
 20 19  1  0
 22 21  1  6
 22 23  1  0
 23 13  1  0
 24 22  1  0
 25 24  1  0
 26 24  2  0
M  END
$$$$
