SIR.pdb
     RDKit          3D

 26 25  0  0  1  0  0  0  0  0999 V2000
   10.1828  -19.5430   17.6148 O   0  0  0  0  0  0  0  0  0  0  0  0
   10.2255  -18.8430   18.8191 C   0  0  0  0  0  0  0  0  0  0  0  0
   10.5603  -17.4025   18.5111 C   0  0  2  0  0  0  0  0  0  0  0  0
   11.9477  -17.3259   18.1286 N   0  0  0  0  0  0  0  0  0  0  0  0
   10.3424  -16.5275   19.7063 C   0  0  0  0  0  0  0  0  0  0  0  0
   11.3000  -16.4392   20.5017 O   0  0  0  0  0  0  0  0  0  0  0  0
    7.1384  -12.0502   19.2209 C   0  0  0  0  0  0  0  0  0  0  0  0
    8.2603  -12.9376   19.6900 C   0  0  0  0  0  0  0  0  0  0  0  0
    7.7494  -13.9885   20.6690 C   0  0  2  0  0  0  0  0  0  0  0  0
    7.2629  -13.2733   21.9312 C   0  0  0  0  0  0  0  0  0  0  0  0
    8.8416  -14.9561   21.0386 C   0  0  2  0  0  0  0  0  0  0  0  0
    9.1515  -15.8482   19.9300 N   0  0  0  0  0  0  0  0  0  0  0  0
    8.4472  -15.7910   22.1916 C   0  0  0  0  0  0  0  0  0  0  0  0
    7.5630  -16.7219   21.9964 O   0  0  0  0  0  0  0  0  0  0  0  0
   11.8472  -19.0123   29.2405 N   0  0  0  0  0  0  0  0  0  0  0  0
   11.3057  -20.0775   28.4726 C   0  0  0  0  0  0  0  0  0  0  0  0
   11.7984  -21.2781   28.5145 N   0  0  0  0  0  0  0  0  0  0  0  0
   10.1962  -19.8089   27.6407 N   0  0  0  0  0  0  0  0  0  0  0  0
    9.6941  -18.4548   27.4311 C   0  0  0  0  0  0  0  0  0  0  0  0
    9.8386  -18.1172   25.9354 C   0  0  0  0  0  0  0  0  0  0  0  0
    9.4388  -16.7176   25.6566 C   0  0  0  0  0  0  0  0  0  0  0  0
    8.4411  -16.6495   24.5351 C   0  0  2  0  0  0  0  0  0  0  0  0
    8.9334  -15.6995   23.5088 N   0  0  0  0  0  0  0  0  0  0  0  0
    7.0771  -16.2566   24.9517 C   0  0  0  0  0  0  0  0  0  0  0  0
    6.6316  -14.9239   24.8285 O   0  0  0  0  0  0  0  0  0  0  0  0
    6.2442  -17.0650   25.4324 O   0  0  0  0  0  0  0  0  0  0  0  0
  2  1  1  0
  3  2  1  0
  3  4  1  1
  5  3  1  0
  6  5  2  0
  7  8  1  0
  8  9  1  0
  9 10  1  1
  9 11  1  0
 11 12  1  6
 12  5  1  0
 13 11  1  0
 13 14  2  0
 16 15  1  0
 17 16  2  0
 18 16  1  0
 19 18  1  0
 20 21  1  0
 20 19  1  0
 22 21  1  1
 22 23  1  0
 23 13  1  0
 24 22  1  0
 25 24  1  0
 26 24  2  0
M  END
$$$$
