SIR.pdb
     RDKit          3D

 26 25  0  0  1  0  0  0  0  0999 V2000
    7.5912  -15.4518   19.9301 O   0  0  0  0  0  0  0  0  0  0  0  0
    6.4322  -14.7040   20.1291 C   0  0  0  0  0  0  0  0  0  0  0  0
    6.8399  -13.3174   20.5682 C   0  0  2  0  0  0  0  0  0  0  0  0
    7.5567  -12.6867   19.4887 N   0  0  0  0  0  0  0  0  0  0  0  0
    7.7305  -13.3691   21.7706 C   0  0  0  0  0  0  0  0  0  0  0  0
    8.9568  -13.3107   21.5462 O   0  0  0  0  0  0  0  0  0  0  0  0
    5.7059  -11.5599   26.5803 C   0  0  0  0  0  0  0  0  0  0  0  0
    6.7107  -11.8198   25.4899 C   0  0  0  0  0  0  0  0  0  0  0  0
    7.1582  -13.2770   25.4987 C   0  0  2  0  0  0  0  0  0  0  0  0
    7.9772  -13.5207   26.7680 C   0  0  0  0  0  0  0  0  0  0  0  0
    8.0073  -13.5868   24.2950 C   0  0  2  0  0  0  0  0  0  0  0  0
    7.2364  -13.4755   23.0645 N   0  0  0  0  0  0  0  0  0  0  0  0
    8.5501  -14.9588   24.3637 C   0  0  0  0  0  0  0  0  0  0  0  0
    7.7095  -15.9486   24.3518 O   0  0  0  0  0  0  0  0  0  0  0  0
   13.4671  -14.8665   19.3262 N   0  0  0  0  0  0  0  0  0  0  0  0
   14.0047  -14.9988   20.6343 C   0  0  0  0  0  0  0  0  0  0  0  0
   15.1204  -14.4328   20.9822 N   0  0  0  0  0  0  0  0  0  0  0  0
   13.2935  -15.7736   21.5772 N   0  0  0  0  0  0  0  0  0  0  0  0
   12.3186  -16.7820   21.1745 C   0  0  0  0  0  0  0  0  0  0  0  0
   11.0935  -16.6595   22.0999 C   0  0  0  0  0  0  0  0  0  0  0  0
   11.4470  -16.9633   23.5068 C   0  0  0  0  0  0  0  0  0  0  0  0
   10.2687  -16.7678   24.4186 C   0  0  2  0  0  0  0  0  0  0  0  0
    9.9052  -15.3305   24.4355 N   0  0  0  0  0  0  0  0  0  0  0  0
   10.4835  -17.2349   25.8057 C   0  0  0  0  0  0  0  0  0  0  0  0
   10.5355  -18.6106   26.1129 O   0  0  0  0  0  0  0  0  0  0  0  0
   10.6299  -16.4554   26.7799 O   0  0  0  0  0  0  0  0  0  0  0  0
  2  1  1  0
  3  2  1  0
  3  4  1  6
  5  3  1  0
  6  5  2  0
  7  8  1  0
  8  9  1  0
  9 10  1  1
  9 11  1  0
 11 12  1  6
 12  5  1  0
 13 11  1  0
 13 14  2  0
 16 15  1  0
 17 16  2  0
 18 16  1  0
 19 18  1  0
 20 21  1  0
 20 19  1  0
 22 21  1  6
 22 23  1  0
 23 13  1  0
 24 22  1  0
 25 24  1  0
 26 24  2  0
M  END
$$$$
