SIR.pdb
     RDKit          3D

 26 25  0  0  1  0  0  0  0  0999 V2000
    8.2924  -19.9032   19.0965 O   0  0  0  0  0  0  0  0  0  0  0  0
    7.4032  -19.0479   18.4485 C   0  0  0  0  0  0  0  0  0  0  0  0
    8.2053  -17.9484   17.7932 C   0  0  2  0  0  0  0  0  0  0  0  0
    9.2217  -18.5514   16.9684 N   0  0  0  0  0  0  0  0  0  0  0  0
    8.8694  -17.0786   18.8150 C   0  0  0  0  0  0  0  0  0  0  0  0
   10.0981  -17.2436   18.9587 O   0  0  0  0  0  0  0  0  0  0  0  0
    6.6876  -12.1048   19.8049 C   0  0  0  0  0  0  0  0  0  0  0  0
    7.7414  -13.1650   19.6270 C   0  0  0  0  0  0  0  0  0  0  0  0
    7.7936  -14.0888   20.8385 C   0  0  2  0  0  0  0  0  0  0  0  0
    8.3133  -13.2860   22.0330 C   0  0  0  0  0  0  0  0  0  0  0  0
    8.7130  -15.2540   20.5878 C   0  0  2  0  0  0  0  0  0  0  0  0
    8.1731  -16.1398   19.5657 N   0  0  0  0  0  0  0  0  0  0  0  0
    8.9110  -16.0512   21.8155 C   0  0  0  0  0  0  0  0  0  0  0  0
    7.8651  -16.5811   22.3739 O   0  0  0  0  0  0  0  0  0  0  0  0
   12.4610  -20.6409   19.6440 N   0  0  0  0  0  0  0  0  0  0  0  0
   13.4394  -19.7878   20.2207 C   0  0  0  0  0  0  0  0  0  0  0  0
   14.4193  -19.2937   19.5266 N   0  0  0  0  0  0  0  0  0  0  0  0
   13.3315  -19.4746   21.5938 N   0  0  0  0  0  0  0  0  0  0  0  0
   12.2867  -20.0436   22.4390 C   0  0  0  0  0  0  0  0  0  0  0  0
   11.1218  -19.0380   22.5019 C   0  0  0  0  0  0  0  0  0  0  0  0
   11.2728  -18.1077   23.6457 C   0  0  0  0  0  0  0  0  0  0  0  0
   10.1340  -17.1290   23.7053 C   0  0  2  0  0  0  0  0  0  0  0  0
   10.1306  -16.3170   22.4648 N   0  0  0  0  0  0  0  0  0  0  0  0
   10.1606  -16.2292   24.8793 C   0  0  0  0  0  0  0  0  0  0  0  0
    9.6656  -16.6487   26.1318 O   0  0  0  0  0  0  0  0  0  0  0  0
   10.6147  -15.0587   24.8396 O   0  0  0  0  0  0  0  0  0  0  0  0
  2  1  1  0
  3  2  1  0
  3  4  1  6
  5  3  1  0
  6  5  2  0
  7  8  1  0
  8  9  1  0
  9 10  1  1
  9 11  1  0
 11 12  1  6
 12  5  1  0
 13 11  1  0
 13 14  2  0
 16 15  1  0
 17 16  2  0
 18 16  1  0
 19 18  1  0
 20 21  1  0
 20 19  1  0
 22 21  1  6
 22 23  1  0
 23 13  1  0
 24 22  1  0
 25 24  1  0
 26 24  2  0
M  END
$$$$
