SIR.pdb
     RDKit          3D

 26 25  0  0  1  0  0  0  0  0999 V2000
    7.3854  -19.3519   17.2776 O   0  0  0  0  0  0  0  0  0  0  0  0
    8.0854  -18.2976   17.8611 C   0  0  0  0  0  0  0  0  0  0  0  0
    7.8460  -18.3453   19.3518 C   0  0  2  0  0  0  0  0  0  0  0  0
    6.4273  -18.2623   19.5912 N   0  0  0  0  0  0  0  0  0  0  0  0
    8.5181  -17.2018   20.0461 C   0  0  0  0  0  0  0  0  0  0  0  0
    9.7652  -17.1900   19.9996 O   0  0  0  0  0  0  0  0  0  0  0  0
    7.3068  -12.1407   19.2311 C   0  0  0  0  0  0  0  0  0  0  0  0
    8.0606  -13.3749   19.6491 C   0  0  0  0  0  0  0  0  0  0  0  0
    7.6785  -13.7924   21.0645 C   0  0  2  0  0  0  0  0  0  0  0  0
    8.1159  -12.6860   22.0266 C   0  0  0  0  0  0  0  0  0  0  0  0
    8.3584  -15.0793   21.4484 C   0  0  2  0  0  0  0  0  0  0  0  0
    7.8096  -16.2060   20.7066 N   0  0  0  0  0  0  0  0  0  0  0  0
    8.1898  -15.3630   22.8881 C   0  0  0  0  0  0  0  0  0  0  0  0
    6.9838  -15.5303   23.3396 O   0  0  0  0  0  0  0  0  0  0  0  0
    6.5280  -19.3839   27.5305 N   0  0  0  0  0  0  0  0  0  0  0  0
    6.8624  -20.7326   27.2358 C   0  0  0  0  0  0  0  0  0  0  0  0
    6.4339  -21.7232   27.9577 N   0  0  0  0  0  0  0  0  0  0  0  0
    7.6880  -20.9909   26.1191 N   0  0  0  0  0  0  0  0  0  0  0  0
    7.7923  -20.0599   25.0002 C   0  0  0  0  0  0  0  0  0  0  0  0
    8.4175  -18.7527   25.5223 C   0  0  0  0  0  0  0  0  0  0  0  0
    8.5385  -17.7435   24.4437 C   0  0  0  0  0  0  0  0  0  0  0  0
    9.0351  -16.4305   24.9798 C   0  0  2  0  0  0  0  0  0  0  0  0
    9.2076  -15.4835   23.8521 N   0  0  0  0  0  0  0  0  0  0  0  0
   10.2995  -16.5192   25.7425 C   0  0  0  0  0  0  0  0  0  0  0  0
   10.3007  -16.5496   27.1528 O   0  0  0  0  0  0  0  0  0  0  0  0
   11.4302  -16.5715   25.1976 O   0  0  0  0  0  0  0  0  0  0  0  0
  2  1  1  0
  3  2  1  0
  3  4  1  6
  5  3  1  0
  6  5  2  0
  7  8  1  0
  8  9  1  0
  9 10  1  1
  9 11  1  0
 11 12  1  6
 12  5  1  0
 13 11  1  0
 13 14  2  0
 16 15  1  0
 17 16  2  0
 18 16  1  0
 19 18  1  0
 20 21  1  0
 20 19  1  0
 22 21  1  6
 22 23  1  0
 23 13  1  0
 24 22  1  0
 25 24  1  0
 26 24  2  0
M  END
$$$$
