SIR.pdb
     RDKit          3D

 26 25  0  0  1  0  0  0  0  0999 V2000
   10.4978  -16.9856   27.2084 O   0  0  0  0  0  0  0  0  0  0  0  0
    9.6739  -18.0193   27.6498 C   0  0  0  0  0  0  0  0  0  0  0  0
    8.3642  -17.4147   28.0977 C   0  0  2  0  0  0  0  0  0  0  0  0
    7.5467  -18.4585   28.6629 N   0  0  0  0  0  0  0  0  0  0  0  0
    7.6295  -16.7988   26.9477 C   0  0  0  0  0  0  0  0  0  0  0  0
    6.8680  -17.5586   26.3148 O   0  0  0  0  0  0  0  0  0  0  0  0
    6.4704  -11.6599   27.1426 C   0  0  0  0  0  0  0  0  0  0  0  0
    6.1729  -12.9739   26.4711 C   0  0  0  0  0  0  0  0  0  0  0  0
    7.2763  -13.3436   25.4864 C   0  0  2  0  0  0  0  0  0  0  0  0
    6.9348  -12.7273   24.1281 C   0  0  0  0  0  0  0  0  0  0  0  0
    7.3873  -14.8374   25.3381 C   0  0  2  0  0  0  0  0  0  0  0  0
    7.7762  -15.4635   26.5941 N   0  0  0  0  0  0  0  0  0  0  0  0
    8.3975  -15.1993   24.3229 C   0  0  0  0  0  0  0  0  0  0  0  0
    9.6327  -14.8665   24.5461 O   0  0  0  0  0  0  0  0  0  0  0  0
    6.1477  -20.6929   23.1868 N   0  0  0  0  0  0  0  0  0  0  0  0
    7.3001  -21.2624   23.7911 C   0  0  0  0  0  0  0  0  0  0  0  0
    7.2218  -22.0470   24.8227 N   0  0  0  0  0  0  0  0  0  0  0  0
    8.5657  -20.9575   23.2428 N   0  0  0  0  0  0  0  0  0  0  0  0
    8.7256  -20.0198   22.1361 C   0  0  0  0  0  0  0  0  0  0  0  0
    9.0294  -18.6302   22.7265 C   0  0  0  0  0  0  0  0  0  0  0  0
    9.1091  -17.5983   21.6656 C   0  0  0  0  0  0  0  0  0  0  0  0
    9.3294  -16.2319   22.2507 C   0  0  2  0  0  0  0  0  0  0  0  0
    8.1755  -15.8855   23.1148 N   0  0  0  0  0  0  0  0  0  0  0  0
    9.5297  -15.1618   21.2491 C   0  0  0  0  0  0  0  0  0  0  0  0
   10.7348  -15.0574   20.5234 O   0  0  0  0  0  0  0  0  0  0  0  0
    8.6601  -14.2946   20.9847 O   0  0  0  0  0  0  0  0  0  0  0  0
  2  1  1  0
  3  2  1  0
  3  4  1  6
  5  3  1  0
  6  5  2  0
  7  8  1  0
  8  9  1  0
  9 10  1  6
  9 11  1  0
 11 12  1  1
 12  5  1  0
 13 11  1  0
 13 14  2  0
 16 15  1  0
 17 16  2  0
 18 16  1  0
 19 18  1  0
 20 21  1  0
 20 19  1  0
 22 21  1  6
 22 23  1  0
 23 13  1  0
 24 22  1  0
 25 24  1  0
 26 24  2  0
M  END
$$$$
