LAP.pdb
     RDKit          3D

 21 21  0  0  1  0  0  0  0  0999 V2000
    6.0553  -12.1149   26.3697 C   0  0  0  0  0  0  0  0  0  0  0  0
    7.1089  -13.0227   26.9799 C   0  0  2  0  0  0  0  0  0  0  0  0
    8.2893  -12.1719   27.3884 C   0  0  0  0  0  0  0  0  0  0  0  0
    7.5267  -14.0827   26.0147 C   0  0  0  0  0  0  0  0  0  0  0  0
    6.3782  -14.7387   25.3115 C   0  0  2  0  0  0  0  0  0  0  0  0
    5.7068  -15.7220   26.1320 N   0  0  0  0  0  0  0  0  0  0  0  0
    6.8630  -15.4337   24.0830 C   0  0  0  0  0  0  0  0  0  0  0  0
    7.1119  -16.6741   24.0698 O   0  0  0  0  0  0  0  0  0  0  0  0
    7.6266  -14.2240   20.5678 C   0  0  0  0  0  0  0  0  0  0  0  0
    7.6172  -15.2529   21.6641 C   0  0  2  0  0  0  0  0  0  0  0  0
    7.0496  -14.6830   22.8986 N   0  0  0  0  0  0  0  0  0  0  0  0
    8.9286  -15.8744   21.9269 C   0  0  0  0  0  0  0  0  0  0  0  0
    9.6769  -15.2527   22.7415 O   0  0  0  0  0  0  0  0  0  0  0  0
    9.4158  -17.0649   21.3721 N   0  0  0  0  0  0  0  0  0  0  0  0
    8.6932  -17.9301   20.4654 C   0  0  0  0  0  0  0  0  0  0  0  0
    9.7233  -18.8516   19.8486 C   0  0  0  0  0  0  0  0  0  0  0  0
   10.7024  -19.0097   20.9616 C   0  0  0  0  0  0  0  0  0  0  0  0
   10.7213  -17.6354   21.6079 C   0  0  1  0  0  0  0  0  0  0  0  0
   11.8042  -16.8659   20.9078 C   0  0  0  0  0  0  0  0  0  0  0  0
   11.4427  -16.1491   19.9408 O   0  0  0  0  0  0  0  0  0  0  0  0
   13.1263  -16.8995   21.2536 O   0  0  0  0  0  0  0  0  0  0  0  0
  2  1  1  6
  3  2  1  0
  4  2  1  0
  4  5  1  0
  5  6  1  1
  7  5  1  0
  7  8  2  0
 10  9  1  6
 10 11  1  0
 10 12  1  0
 11  7  1  0
 12 14  1  0
 13 12  2  0
 14 18  1  0
 14 15  1  0
 15 16  1  0
 17 16  1  0
 18 17  1  0
 18 19  1  6
 19 21  1  0
 20 19  2  0
M  END
$$$$
