LAP.pdb
     RDKit          3D

 21 21  0  0  1  0  0  0  0  0999 V2000
    9.9563  -21.2689   22.0551 C   0  0  0  0  0  0  0  0  0  0  0  0
   10.8495  -20.1499   21.5485 C   0  0  2  0  0  0  0  0  0  0  0  0
   12.2819  -20.4987   21.8811 C   0  0  0  0  0  0  0  0  0  0  0  0
   10.4663  -18.8413   22.1572 C   0  0  0  0  0  0  0  0  0  0  0  0
    9.0385  -18.4614   21.9104 C   0  0  2  0  0  0  0  0  0  0  0  0
    8.7912  -18.0727   20.5397 N   0  0  0  0  0  0  0  0  0  0  0  0
    8.6606  -17.3086   22.7797 C   0  0  0  0  0  0  0  0  0  0  0  0
    9.0336  -16.1270   22.5241 O   0  0  0  0  0  0  0  0  0  0  0  0
    6.2191  -16.9012   25.6153 C   0  0  0  0  0  0  0  0  0  0  0  0
    7.4384  -16.4762   24.8450 C   0  0  2  0  0  0  0  0  0  0  0  0
    7.8618  -17.5446   23.9231 N   0  0  0  0  0  0  0  0  0  0  0  0
    8.5651  -16.0310   25.6861 C   0  0  0  0  0  0  0  0  0  0  0  0
    9.4965  -16.8772   25.8483 O   0  0  0  0  0  0  0  0  0  0  0  0
    8.7007  -14.7842   26.3104 N   0  0  0  0  0  0  0  0  0  0  0  0
    7.7986  -13.6633   26.1597 C   0  0  0  0  0  0  0  0  0  0  0  0
    8.1218  -12.7056   27.2862 C   0  0  0  0  0  0  0  0  0  0  0  0
    9.5885  -12.9120   27.4561 C   0  0  0  0  0  0  0  0  0  0  0  0
    9.7623  -14.4008   27.2112 C   0  0  1  0  0  0  0  0  0  0  0  0
    9.6230  -15.0581   28.5541 C   0  0  0  0  0  0  0  0  0  0  0  0
    8.5252  -15.6241   28.7865 O   0  0  0  0  0  0  0  0  0  0  0  0
   10.5970  -15.0758   29.5131 O   0  0  0  0  0  0  0  0  0  0  0  0
  2  1  1  1
  3  2  1  0
  4  2  1  0
  4  5  1  0
  5  6  1  6
  7  5  1  0
  7  8  2  0
 10  9  1  1
 10 11  1  0
 10 12  1  0
 11  7  1  0
 12 14  1  0
 13 12  2  0
 14 18  1  0
 14 15  1  0
 15 16  1  0
 17 16  1  0
 18 17  1  0
 18 19  1  1
 19 21  1  0
 20 19  2  0
M  END
$$$$
