LAP.pdb
     RDKit          3D

 21 21  0  0  1  0  0  0  0  0999 V2000
   11.3035  -14.8704   28.6573 C   0  0  0  0  0  0  0  0  0  0  0  0
   10.0283  -14.9100   27.8334 C   0  0  2  0  0  0  0  0  0  0  0  0
    9.3025  -13.5974   28.0190 C   0  0  0  0  0  0  0  0  0  0  0  0
    9.1633  -16.0575   28.2398 C   0  0  0  0  0  0  0  0  0  0  0  0
    7.8896  -16.1536   27.4573 C   0  0  2  0  0  0  0  0  0  0  0  0
    7.0282  -17.2196   27.9183 N   0  0  0  0  0  0  0  0  0  0  0  0
    8.1935  -16.4115   26.0191 C   0  0  0  0  0  0  0  0  0  0  0  0
    8.6162  -17.5334   25.6150 O   0  0  0  0  0  0  0  0  0  0  0  0
    7.8242  -14.3019   22.8890 C   0  0  0  0  0  0  0  0  0  0  0  0
    8.2745  -15.5239   23.6404 C   0  0  2  0  0  0  0  0  0  0  0  0
    8.0033  -15.3704   25.0805 N   0  0  0  0  0  0  0  0  0  0  0  0
    9.6822  -15.8972   23.4078 C   0  0  0  0  0  0  0  0  0  0  0  0
   10.5372  -15.2801   24.1134 O   0  0  0  0  0  0  0  0  0  0  0  0
   10.1545  -16.8520   22.4979 N   0  0  0  0  0  0  0  0  0  0  0  0
    9.3318  -17.7163   21.6798 C   0  0  0  0  0  0  0  0  0  0  0  0
   10.2430  -18.2799   20.6108 C   0  0  0  0  0  0  0  0  0  0  0  0
   11.5446  -18.3731   21.3318 C   0  0  0  0  0  0  0  0  0  0  0  0
   11.5417  -17.1400   22.2184 C   0  0  1  0  0  0  0  0  0  0  0  0
   12.1889  -16.0511   21.4119 C   0  0  0  0  0  0  0  0  0  0  0  0
   11.4134  -15.2826   20.7893 O   0  0  0  0  0  0  0  0  0  0  0  0
   13.5382  -15.8532   21.3190 O   0  0  0  0  0  0  0  0  0  0  0  0
  2  1  1  1
  3  2  1  0
  4  2  1  0
  4  5  1  0
  5  6  1  1
  7  5  1  0
  7  8  2  0
 10  9  1  6
 10 11  1  0
 10 12  1  0
 11  7  1  0
 12 14  1  0
 13 12  2  0
 14 18  1  0
 14 15  1  0
 15 16  1  0
 17 16  1  0
 18 17  1  0
 18 19  1  6
 19 21  1  0
 20 19  2  0
M  END
$$$$
