LAP.pdb
     RDKit          3D

 21 21  0  0  1  0  0  0  0  0999 V2000
   10.0998  -13.6690   19.5375 C   0  0  0  0  0  0  0  0  0  0  0  0
    8.7694  -13.7856   18.8144 C   0  0  2  0  0  0  0  0  0  0  0  0
    8.4007  -12.4223   18.2765 C   0  0  0  0  0  0  0  0  0  0  0  0
    7.7066  -14.3016   19.7278 C   0  0  0  0  0  0  0  0  0  0  0  0
    8.0992  -15.5485   20.4591 C   0  0  2  0  0  0  0  0  0  0  0  0
    7.8123  -16.7514   19.7096 N   0  0  0  0  0  0  0  0  0  0  0  0
    7.3572  -15.6362   21.7511 C   0  0  0  0  0  0  0  0  0  0  0  0
    6.0931  -15.6222   21.7993 O   0  0  0  0  0  0  0  0  0  0  0  0
    7.1544  -17.2926   24.5957 C   0  0  0  0  0  0  0  0  0  0  0  0
    7.4516  -15.8528   24.2802 C   0  0  2  0  0  0  0  0  0  0  0  0
    8.0896  -15.7380   22.9571 N   0  0  0  0  0  0  0  0  0  0  0  0
    8.2460  -15.1557   25.3088 C   0  0  0  0  0  0  0  0  0  0  0  0
    9.4655  -15.4977   25.3853 O   0  0  0  0  0  0  0  0  0  0  0  0
    7.7887  -14.1694   26.1922 N   0  0  0  0  0  0  0  0  0  0  0  0
    6.4314  -13.6755   26.2751 C   0  0  0  0  0  0  0  0  0  0  0  0
    6.3318  -12.9301   27.5886 C   0  0  0  0  0  0  0  0  0  0  0  0
    7.7073  -12.3735   27.7331 C   0  0  0  0  0  0  0  0  0  0  0  0
    8.5903  -13.4746   27.1721 C   0  0  1  0  0  0  0  0  0  0  0  0
    8.9403  -14.3555   28.3368 C   0  0  0  0  0  0  0  0  0  0  0  0
    8.2749  -15.4153   28.4538 O   0  0  0  0  0  0  0  0  0  0  0  0
    9.9161  -14.0778   29.2528 O   0  0  0  0  0  0  0  0  0  0  0  0
  2  1  1  1
  3  2  1  0
  4  2  1  0
  4  5  1  0
  5  6  1  6
  7  5  1  0
  7  8  2  0
 10  9  1  1
 10 11  1  0
 10 12  1  0
 11  7  1  0
 12 14  1  0
 13 12  2  0
 14 18  1  0
 14 15  1  0
 15 16  1  0
 17 16  1  0
 18 17  1  0
 18 19  1  1
 19 21  1  0
 20 19  2  0
M  END
$$$$
