LAP.pdb
     RDKit          3D

 21 21  0  0  1  0  0  0  0  0999 V2000
    6.2262  -11.8079   25.6766 C   0  0  0  0  0  0  0  0  0  0  0  0
    6.2718  -12.6909   26.9114 C   0  0  2  0  0  0  0  0  0  0  0  0
    6.6541  -11.8323   28.0949 C   0  0  0  0  0  0  0  0  0  0  0  0
    7.2421  -13.8119   26.7328 C   0  0  0  0  0  0  0  0  0  0  0  0
    6.9665  -14.6558   25.5263 C   0  0  2  0  0  0  0  0  0  0  0  0
    6.7704  -16.0511   25.8515 N   0  0  0  0  0  0  0  0  0  0  0  0
    8.1129  -14.5730   24.5742 C   0  0  0  0  0  0  0  0  0  0  0  0
    8.9369  -13.6134   24.6006 O   0  0  0  0  0  0  0  0  0  0  0  0
   10.2279  -16.6201   22.5431 C   0  0  0  0  0  0  0  0  0  0  0  0
    9.2274  -15.4991   22.4880 C   0  0  2  0  0  0  0  0  0  0  0  0
    8.2826  -15.5981   23.6142 N   0  0  0  0  0  0  0  0  0  0  0  0
    8.5068  -15.3888   21.2059 C   0  0  0  0  0  0  0  0  0  0  0  0
    7.7807  -16.3825   20.8975 O   0  0  0  0  0  0  0  0  0  0  0  0
    8.5481  -14.3094   20.3139 N   0  0  0  0  0  0  0  0  0  0  0  0
    9.2021  -13.0416   20.5543 C   0  0  0  0  0  0  0  0  0  0  0  0
    9.3135  -12.3607   19.2072 C   0  0  0  0  0  0  0  0  0  0  0  0
    8.0833  -12.8412   18.5154 C   0  0  0  0  0  0  0  0  0  0  0  0
    7.9460  -14.2735   19.0017 C   0  0  1  0  0  0  0  0  0  0  0  0
    8.7008  -15.1175   18.0153 C   0  0  0  0  0  0  0  0  0  0  0  0
    8.1107  -15.3757   16.9362 O   0  0  0  0  0  0  0  0  0  0  0  0
    9.9604  -15.6079   18.2190 O   0  0  0  0  0  0  0  0  0  0  0  0
  2  1  1  6
  3  2  1  0
  4  2  1  0
  4  5  1  0
  5  6  1  1
  7  5  1  0
  7  8  2  0
 10  9  1  6
 10 11  1  0
 10 12  1  0
 11  7  1  0
 12 14  1  0
 13 12  2  0
 14 18  1  0
 14 15  1  0
 15 16  1  0
 17 16  1  0
 18 17  1  0
 18 19  1  6
 19 21  1  0
 20 19  2  0
M  END
$$$$
