LAP.pdb
     RDKit          3D

 21 21  0  0  1  0  0  0  0  0999 V2000
    9.7564  -13.6266   19.7734 C   0  0  0  0  0  0  0  0  0  0  0  0
    8.4355  -13.7048   19.0281 C   0  0  2  0  0  0  0  0  0  0  0  0
    8.0873  -12.3200   18.5332 C   0  0  0  0  0  0  0  0  0  0  0  0
    7.3550  -14.2420   19.9078 C   0  0  0  0  0  0  0  0  0  0  0  0
    7.7019  -15.5491   20.5521 C   0  0  2  0  0  0  0  0  0  0  0  0
    7.2601  -16.6890   19.7799 N   0  0  0  0  0  0  0  0  0  0  0  0
    7.0598  -15.6406   21.8963 C   0  0  0  0  0  0  0  0  0  0  0  0
    5.8061  -15.5603   22.0460 O   0  0  0  0  0  0  0  0  0  0  0  0
    7.1983  -17.2983   24.8626 C   0  0  0  0  0  0  0  0  0  0  0  0
    7.3464  -15.8723   24.4095 C   0  0  2  0  0  0  0  0  0  0  0  0
    7.8776  -15.8223   23.0361 N   0  0  0  0  0  0  0  0  0  0  0  0
    8.1475  -15.0264   25.3138 C   0  0  0  0  0  0  0  0  0  0  0  0
    9.4009  -15.2212   25.2803 O   0  0  0  0  0  0  0  0  0  0  0  0
    7.6630  -14.0459   26.1893 N   0  0  0  0  0  0  0  0  0  0  0  0
    6.2717  -13.6975   26.3781 C   0  0  0  0  0  0  0  0  0  0  0  0
    6.2069  -12.8928   27.6583 C   0  0  0  0  0  0  0  0  0  0  0  0
    7.5182  -12.1836   27.6442 C   0  0  0  0  0  0  0  0  0  0  0  0
    8.4659  -13.2134   27.0541 C   0  0  1  0  0  0  0  0  0  0  0  0
    9.0161  -13.9830   28.2203 C   0  0  0  0  0  0  0  0  0  0  0  0
    9.8929  -13.4017   28.9079 O   0  0  0  0  0  0  0  0  0  0  0  0
    8.6275  -15.2466   28.5676 O   0  0  0  0  0  0  0  0  0  0  0  0
  2  1  1  1
  3  2  1  0
  4  2  1  0
  4  5  1  0
  5  6  1  6
  7  5  1  0
  7  8  2  0
 10  9  1  1
 10 11  1  0
 10 12  1  0
 11  7  1  0
 12 14  1  0
 13 12  2  0
 14 18  1  0
 14 15  1  0
 15 16  1  0
 17 16  1  0
 18 17  1  0
 18 19  1  1
 19 21  1  0
 20 19  2  0
M  END
$$$$
