LAP.pdb
     RDKit          3D

 21 21  0  0  1  0  0  0  0  0999 V2000
    9.7174  -13.3240   19.4441 C   0  0  0  0  0  0  0  0  0  0  0  0
    8.2476  -13.5792   19.1592 C   0  0  2  0  0  0  0  0  0  0  0  0
    7.6399  -12.3039   18.6223 C   0  0  0  0  0  0  0  0  0  0  0  0
    7.5337  -14.0306   20.3907 C   0  0  0  0  0  0  0  0  0  0  0  0
    8.0897  -15.2921   20.9767 C   0  0  2  0  0  0  0  0  0  0  0  0
    7.7339  -16.4682   20.2144 N   0  0  0  0  0  0  0  0  0  0  0  0
    7.5711  -15.4812   22.3633 C   0  0  0  0  0  0  0  0  0  0  0  0
    6.3387  -15.3922   22.6350 O   0  0  0  0  0  0  0  0  0  0  0  0
    7.1949  -17.1079   24.9909 C   0  0  0  0  0  0  0  0  0  0  0  0
    8.0826  -15.9072   24.8147 C   0  0  2  0  0  0  0  0  0  0  0  0
    8.4851  -15.7685   23.4042 N   0  0  0  0  0  0  0  0  0  0  0  0
    9.2606  -15.8858   25.7017 C   0  0  0  0  0  0  0  0  0  0  0  0
   10.1431  -16.7656   25.4631 O   0  0  0  0  0  0  0  0  0  0  0  0
    9.4921  -15.0009   26.7629 N   0  0  0  0  0  0  0  0  0  0  0  0
    8.6724  -13.8580   27.1017 C   0  0  0  0  0  0  0  0  0  0  0  0
    9.0746  -13.4491   28.5023 C   0  0  0  0  0  0  0  0  0  0  0  0
   10.5239  -13.7979   28.5219 C   0  0  0  0  0  0  0  0  0  0  0  0
   10.5870  -15.0746   27.7016 C   0  0  1  0  0  0  0  0  0  0  0  0
   10.4126  -16.2012   28.6790 C   0  0  0  0  0  0  0  0  0  0  0  0
    9.2591  -16.6933   28.7625 O   0  0  0  0  0  0  0  0  0  0  0  0
   11.4110  -16.7090   29.4625 O   0  0  0  0  0  0  0  0  0  0  0  0
  2  1  1  1
  3  2  1  0
  4  2  1  0
  4  5  1  0
  5  6  1  6
  7  5  1  0
  7  8  2  0
 10  9  1  6
 10 11  1  0
 10 12  1  0
 11  7  1  0
 12 14  1  0
 13 12  2  0
 14 18  1  0
 14 15  1  0
 15 16  1  0
 17 16  1  0
 18 17  1  0
 18 19  1  1
 19 21  1  0
 20 19  2  0
M  END
$$$$
