LAP.pdb
     RDKit          3D

 21 21  0  0  1  0  0  0  0  0999 V2000
    9.9044  -14.0120   19.2810 C   0  0  0  0  0  0  0  0  0  0  0  0
    8.4541  -13.8359   18.8659 C   0  0  2  0  0  0  0  0  0  0  0  0
    8.2549  -12.4013   18.4345 C   0  0  0  0  0  0  0  0  0  0  0  0
    7.5301  -14.1874   19.9851 C   0  0  0  0  0  0  0  0  0  0  0  0
    7.7390  -15.5700   20.5223 C   0  0  2  0  0  0  0  0  0  0  0  0
    7.1453  -16.5908   19.6877 N   0  0  0  0  0  0  0  0  0  0  0  0
    7.1281  -15.6870   21.8789 C   0  0  0  0  0  0  0  0  0  0  0  0
    5.8747  -15.6830   22.0512 O   0  0  0  0  0  0  0  0  0  0  0  0
    7.3688  -17.3327   24.8150 C   0  0  0  0  0  0  0  0  0  0  0  0
    7.4727  -15.8951   24.3869 C   0  0  2  0  0  0  0  0  0  0  0  0
    7.9759  -15.8058   23.0050 N   0  0  0  0  0  0  0  0  0  0  0  0
    8.2698  -15.0466   25.2922 C   0  0  0  0  0  0  0  0  0  0  0  0
    9.5247  -15.2301   25.2531 O   0  0  0  0  0  0  0  0  0  0  0  0
    7.7801  -14.0746   26.1743 N   0  0  0  0  0  0  0  0  0  0  0  0
    6.3876  -13.7282   26.3584 C   0  0  0  0  0  0  0  0  0  0  0  0
    6.3153  -12.9359   27.6460 C   0  0  0  0  0  0  0  0  0  0  0  0
    7.6265  -12.2264   27.6462 C   0  0  0  0  0  0  0  0  0  0  0  0
    8.5778  -13.2503   27.0516 C   0  0  1  0  0  0  0  0  0  0  0  0
    9.1215  -14.0309   28.2135 C   0  0  0  0  0  0  0  0  0  0  0  0
    8.6006  -15.1555   28.4222 O   0  0  0  0  0  0  0  0  0  0  0  0
   10.1247  -13.5993   29.0355 O   0  0  0  0  0  0  0  0  0  0  0  0
  2  1  1  1
  3  2  1  0
  4  2  1  0
  4  5  1  0
  5  6  1  6
  7  5  1  0
  7  8  2  0
 10  9  1  1
 10 11  1  0
 10 12  1  0
 11  7  1  0
 12 14  1  0
 13 12  2  0
 14 18  1  0
 14 15  1  0
 15 16  1  0
 17 16  1  0
 18 17  1  0
 18 19  1  1
 19 21  1  0
 20 19  2  0
M  END
$$$$
