LAP.pdb
     RDKit          3D

 21 21  0  0  1  0  0  0  0  0999 V2000
    5.7948  -12.8391   25.6764 C   0  0  0  0  0  0  0  0  0  0  0  0
    6.3664  -13.0209   27.0717 C   0  0  2  0  0  0  0  0  0  0  0  0
    6.8917  -11.6859   27.5469 C   0  0  0  0  0  0  0  0  0  0  0  0
    7.4483  -14.0502   27.0776 C   0  0  0  0  0  0  0  0  0  0  0  0
    7.2532  -15.1298   26.0577 C   0  0  2  0  0  0  0  0  0  0  0  0
    7.2566  -16.4547   26.6369 N   0  0  0  0  0  0  0  0  0  0  0  0
    8.3490  -15.0787   25.0458 C   0  0  0  0  0  0  0  0  0  0  0  0
    9.5653  -14.9818   25.3806 O   0  0  0  0  0  0  0  0  0  0  0  0
    9.9691  -16.3462   22.8271 C   0  0  0  0  0  0  0  0  0  0  0  0
    9.0276  -15.1959   22.6008 C   0  0  2  0  0  0  0  0  0  0  0  0
    8.0175  -15.1405   23.6720 N   0  0  0  0  0  0  0  0  0  0  0  0
    8.3862  -15.1865   21.2728 C   0  0  0  0  0  0  0  0  0  0  0  0
    7.6746  -16.2009   21.0001 O   0  0  0  0  0  0  0  0  0  0  0  0
    8.4870  -14.1807   20.3029 N   0  0  0  0  0  0  0  0  0  0  0  0
    9.3098  -12.9948   20.4005 C   0  0  0  0  0  0  0  0  0  0  0  0
    9.3936  -12.4216   19.0021 C   0  0  0  0  0  0  0  0  0  0  0  0
    8.0611  -12.7832   18.4397 C   0  0  0  0  0  0  0  0  0  0  0  0
    7.7886  -14.1518   19.0392 C   0  0  1  0  0  0  0  0  0  0  0  0
    8.3502  -15.1473   18.0653 C   0  0  0  0  0  0  0  0  0  0  0  0
    7.6605  -15.3736   17.0394 O   0  0  0  0  0  0  0  0  0  0  0  0
    9.5381  -15.8041   18.2269 O   0  0  0  0  0  0  0  0  0  0  0  0
  2  1  1  6
  3  2  1  0
  4  2  1  0
  4  5  1  0
  5  6  1  1
  7  5  1  0
  7  8  2  0
 10  9  1  1
 10 11  1  0
 10 12  1  0
 11  7  1  0
 12 14  1  0
 13 12  2  0
 14 18  1  0
 14 15  1  0
 15 16  1  0
 17 16  1  0
 18 17  1  0
 18 19  1  6
 19 21  1  0
 20 19  2  0
M  END
$$$$
