LAP.pdb
     RDKit          3D

 21 21  0  0  1  0  0  0  0  0999 V2000
    8.8109  -13.3222   21.3745 C   0  0  0  0  0  0  0  0  0  0  0  0
    8.3772  -13.5902   19.9439 C   0  0  2  0  0  0  0  0  0  0  0  0
    7.8488  -12.3008   19.3589 C   0  0  0  0  0  0  0  0  0  0  0  0
    7.3392  -14.6625   19.8907 C   0  0  0  0  0  0  0  0  0  0  0  0
    7.7064  -15.8902   20.6664 C   0  0  2  0  0  0  0  0  0  0  0  0
    7.1310  -17.0956   20.1125 N   0  0  0  0  0  0  0  0  0  0  0  0
    7.2237  -15.7670   22.0733 C   0  0  0  0  0  0  0  0  0  0  0  0
    6.0601  -15.3532   22.3479 O   0  0  0  0  0  0  0  0  0  0  0  0
    6.8923  -17.1499   24.9961 C   0  0  0  0  0  0  0  0  0  0  0  0
    7.7328  -15.9848   24.5523 C   0  0  2  0  0  0  0  0  0  0  0  0
    8.0933  -16.1237   23.1305 N   0  0  0  0  0  0  0  0  0  0  0  0
    8.9321  -15.7500   25.3779 C   0  0  0  0  0  0  0  0  0  0  0  0
    9.9292  -16.4910   25.1202 O   0  0  0  0  0  0  0  0  0  0  0  0
    9.0707  -14.8025   26.4004 N   0  0  0  0  0  0  0  0  0  0  0  0
    8.0387  -13.8968   26.8561 C   0  0  0  0  0  0  0  0  0  0  0  0
    8.5094  -13.3550   28.1887 C   0  0  0  0  0  0  0  0  0  0  0  0
    9.9883  -13.3212   28.0034 C   0  0  0  0  0  0  0  0  0  0  0  0
   10.2652  -14.5645   27.1763 C   0  0  1  0  0  0  0  0  0  0  0  0
   10.5218  -15.6670   28.1630 C   0  0  0  0  0  0  0  0  0  0  0  0
    9.5721  -16.4645   28.3671 O   0  0  0  0  0  0  0  0  0  0  0  0
   11.6988  -15.8480   28.8340 O   0  0  0  0  0  0  0  0  0  0  0  0
  2  1  1  1
  3  2  1  0
  4  2  1  0
  4  5  1  0
  5  6  1  6
  7  5  1  0
  7  8  2  0
 10  9  1  1
 10 11  1  0
 10 12  1  0
 11  7  1  0
 12 14  1  0
 13 12  2  0
 14 18  1  0
 14 15  1  0
 15 16  1  0
 17 16  1  0
 18 17  1  0
 18 19  1  1
 19 21  1  0
 20 19  2  0
M  END
$$$$
