LAP.pdb
     RDKit          3D

 21 21  0  0  1  0  0  0  0  0999 V2000
    7.9837  -13.1887   21.1700 C   0  0  0  0  0  0  0  0  0  0  0  0
    8.5689  -13.5849   19.8257 C   0  0  2  0  0  0  0  0  0  0  0  0
    8.2382  -12.5008   18.8261 C   0  0  0  0  0  0  0  0  0  0  0  0
    8.0326  -14.9040   19.3758 C   0  0  0  0  0  0  0  0  0  0  0  0
    8.2832  -16.0155   20.3483 C   0  0  2  0  0  0  0  0  0  0  0  0
    7.9443  -17.3152   19.8128 N   0  0  0  0  0  0  0  0  0  0  0  0
    7.4652  -15.8092   21.5794 C   0  0  0  0  0  0  0  0  0  0  0  0
    6.2406  -15.4960   21.5246 O   0  0  0  0  0  0  0  0  0  0  0  0
    6.9285  -17.1529   24.6481 C   0  0  0  0  0  0  0  0  0  0  0  0
    7.3516  -15.8114   24.1170 C   0  0  2  0  0  0  0  0  0  0  0  0
    8.0776  -15.9685   22.8445 N   0  0  0  0  0  0  0  0  0  0  0  0
    8.1303  -14.9978   25.0691 C   0  0  0  0  0  0  0  0  0  0  0  0
    9.3737  -15.2462   25.1142 O   0  0  0  0  0  0  0  0  0  0  0  0
    7.6346  -13.9947   25.9121 N   0  0  0  0  0  0  0  0  0  0  0  0
    6.2587  -13.5524   25.9780 C   0  0  0  0  0  0  0  0  0  0  0  0
    6.1306  -12.7577   27.2597 C   0  0  0  0  0  0  0  0  0  0  0  0
    7.4828  -12.1412   27.3776 C   0  0  0  0  0  0  0  0  0  0  0  0
    8.4087  -13.2284   26.8604 C   0  0  1  0  0  0  0  0  0  0  0  0
    8.7947  -14.0456   28.0596 C   0  0  0  0  0  0  0  0  0  0  0  0
    9.6996  -13.5698   28.7906 O   0  0  0  0  0  0  0  0  0  0  0  0
    8.2323  -15.2460   28.3929 O   0  0  0  0  0  0  0  0  0  0  0  0
  2  1  1  1
  3  2  1  0
  4  2  1  0
  4  5  1  0
  5  6  1  6
  7  5  1  0
  7  8  2  0
 10  9  1  1
 10 11  1  0
 10 12  1  0
 11  7  1  0
 12 14  1  0
 13 12  2  0
 14 18  1  0
 14 15  1  0
 15 16  1  0
 17 16  1  0
 18 17  1  0
 18 19  1  1
 19 21  1  0
 20 19  2  0
M  END
$$$$
