LAP.pdb
     RDKit          3D

 21 21  0  0  1  0  0  0  0  0999 V2000
    9.8782  -13.5551   19.6331 C   0  0  0  0  0  0  0  0  0  0  0  0
    8.5759  -13.7823   18.8855 C   0  0  2  0  0  0  0  0  0  0  0  0
    8.1162  -12.4583   18.3202 C   0  0  0  0  0  0  0  0  0  0  0  0
    7.5365  -14.3657   19.7850 C   0  0  0  0  0  0  0  0  0  0  0  0
    7.9967  -15.5883   20.5180 C   0  0  2  0  0  0  0  0  0  0  0  0
    7.8041  -16.8030   19.7576 N   0  0  0  0  0  0  0  0  0  0  0  0
    7.2380  -15.7323   21.7951 C   0  0  0  0  0  0  0  0  0  0  0  0
    6.0728  -16.2241   21.8296 O   0  0  0  0  0  0  0  0  0  0  0  0
    6.8792  -16.9935   24.4877 C   0  0  0  0  0  0  0  0  0  0  0  0
    7.2425  -15.5432   24.3282 C   0  0  2  0  0  0  0  0  0  0  0  0
    7.8398  -15.3062   23.0023 N   0  0  0  0  0  0  0  0  0  0  0  0
    8.1083  -15.0115   25.3971 C   0  0  0  0  0  0  0  0  0  0  0  0
    9.2821  -15.4912   25.4419 O   0  0  0  0  0  0  0  0  0  0  0  0
    7.7624  -14.0440   26.3494 N   0  0  0  0  0  0  0  0  0  0  0  0
    6.4373  -13.5023   26.5580 C   0  0  0  0  0  0  0  0  0  0  0  0
    6.4714  -12.8060   27.9014 C   0  0  0  0  0  0  0  0  0  0  0  0
    7.8757  -12.3084   27.9559 C   0  0  0  0  0  0  0  0  0  0  0  0
    8.6661  -13.4194   27.2868 C   0  0  1  0  0  0  0  0  0  0  0  0
    9.0696  -14.3582   28.3871 C   0  0  0  0  0  0  0  0  0  0  0  0
    8.3632  -15.3882   28.5280 O   0  0  0  0  0  0  0  0  0  0  0  0
   10.1337  -14.1616   29.2222 O   0  0  0  0  0  0  0  0  0  0  0  0
  2  1  1  1
  3  2  1  0
  4  2  1  0
  4  5  1  0
  5  6  1  6
  7  5  1  0
  7  8  2  0
 10  9  1  1
 10 11  1  0
 10 12  1  0
 11  7  1  0
 12 14  1  0
 13 12  2  0
 14 18  1  0
 14 15  1  0
 15 16  1  0
 17 16  1  0
 18 17  1  0
 18 19  1  1
 19 21  1  0
 20 19  2  0
M  END
$$$$
