LAP.pdb
     RDKit          3D

 21 21  0  0  1  0  0  0  0  0999 V2000
    9.7772  -13.8669   19.2182 C   0  0  0  0  0  0  0  0  0  0  0  0
    8.3010  -13.7760   18.8732 C   0  0  2  0  0  0  0  0  0  0  0  0
    8.0056  -12.3648   18.4203 C   0  0  0  0  0  0  0  0  0  0  0  0
    7.4531  -14.1463   20.0453 C   0  0  0  0  0  0  0  0  0  0  0  0
    7.7393  -15.5149   20.5829 C   0  0  2  0  0  0  0  0  0  0  0  0
    7.2175  -16.5680   19.7405 N   0  0  0  0  0  0  0  0  0  0  0  0
    7.1220  -15.6713   21.9326 C   0  0  0  0  0  0  0  0  0  0  0  0
    5.8753  -15.8238   22.0849 O   0  0  0  0  0  0  0  0  0  0  0  0
    7.0897  -17.2504   24.7058 C   0  0  0  0  0  0  0  0  0  0  0  0
    7.4469  -15.8128   24.4479 C   0  0  2  0  0  0  0  0  0  0  0  0
    7.9559  -15.6483   23.0751 N   0  0  0  0  0  0  0  0  0  0  0  0
    8.3834  -15.2330   25.4286 C   0  0  0  0  0  0  0  0  0  0  0  0
    9.5679  -15.6862   25.3904 O   0  0  0  0  0  0  0  0  0  0  0  0
    8.0929  -14.2466   26.3800 N   0  0  0  0  0  0  0  0  0  0  0  0
    6.7909  -13.6629   26.6187 C   0  0  0  0  0  0  0  0  0  0  0  0
    6.8825  -12.9555   27.9536 C   0  0  0  0  0  0  0  0  0  0  0  0
    8.3022  -12.5006   27.9655 C   0  0  0  0  0  0  0  0  0  0  0  0
    9.0402  -13.6413   27.2866 C   0  0  1  0  0  0  0  0  0  0  0  0
    9.4446  -14.5819   28.3851 C   0  0  0  0  0  0  0  0  0  0  0  0
    8.7351  -15.6093   28.5287 O   0  0  0  0  0  0  0  0  0  0  0  0
   10.5129  -14.3895   29.2158 O   0  0  0  0  0  0  0  0  0  0  0  0
  2  1  1  1
  3  2  1  0
  4  2  1  0
  4  5  1  0
  5  6  1  6
  7  5  1  0
  7  8  2  0
 10  9  1  1
 10 11  1  0
 10 12  1  0
 11  7  1  0
 12 14  1  0
 13 12  2  0
 14 18  1  0
 14 15  1  0
 15 16  1  0
 17 16  1  0
 18 17  1  0
 18 19  1  1
 19 21  1  0
 20 19  2  0
M  END
$$$$
