LAP.pdb
     RDKit          3D

 21 21  0  0  1  0  0  0  0  0999 V2000
    9.1283  -13.5146   20.8928 C   0  0  0  0  0  0  0  0  0  0  0  0
    8.6453  -13.7886   19.4793 C   0  0  2  0  0  0  0  0  0  0  0  0
    8.0983  -12.5013   18.9069 C   0  0  0  0  0  0  0  0  0  0  0  0
    7.6050  -14.8599   19.4668 C   0  0  0  0  0  0  0  0  0  0  0  0
    7.9269  -16.0175   20.3613 C   0  0  2  0  0  0  0  0  0  0  0  0
    7.5698  -17.2918   19.7786 N   0  0  0  0  0  0  0  0  0  0  0  0
    7.1839  -15.8881   21.6492 C   0  0  0  0  0  0  0  0  0  0  0  0
    5.9277  -15.7424   21.6854 O   0  0  0  0  0  0  0  0  0  0  0  0
    6.8916  -17.2037   24.6880 C   0  0  0  0  0  0  0  0  0  0  0  0
    7.2637  -15.8355   24.1875 C   0  0  2  0  0  0  0  0  0  0  0  0
    7.9060  -15.9296   22.8649 N   0  0  0  0  0  0  0  0  0  0  0  0
    8.0941  -15.0512   25.1203 C   0  0  0  0  0  0  0  0  0  0  0  0
    9.3267  -15.3515   25.1429 O   0  0  0  0  0  0  0  0  0  0  0  0
    7.6575  -14.0244   25.9674 N   0  0  0  0  0  0  0  0  0  0  0  0
    6.2844  -13.6054   26.1459 C   0  0  0  0  0  0  0  0  0  0  0  0
    6.2592  -12.7624   27.4027 C   0  0  0  0  0  0  0  0  0  0  0  0
    7.6025  -12.1166   27.3687 C   0  0  0  0  0  0  0  0  0  0  0  0
    8.4998  -13.2064   26.8082 C   0  0  1  0  0  0  0  0  0  0  0  0
    9.0144  -13.9675   27.9960 C   0  0  0  0  0  0  0  0  0  0  0  0
    8.4188  -15.0393   28.2720 O   0  0  0  0  0  0  0  0  0  0  0  0
   10.0665  -13.5715   28.7737 O   0  0  0  0  0  0  0  0  0  0  0  0
  2  1  1  1
  3  2  1  0
  4  2  1  0
  4  5  1  0
  5  6  1  6
  7  5  1  0
  7  8  2  0
 10  9  1  1
 10 11  1  0
 10 12  1  0
 11  7  1  0
 12 14  1  0
 13 12  2  0
 14 18  1  0
 14 15  1  0
 15 16  1  0
 17 16  1  0
 18 17  1  0
 18 19  1  1
 19 21  1  0
 20 19  2  0
M  END
$$$$
