LAP.pdb
     RDKit          3D

 21 21  0  0  1  0  0  0  0  0999 V2000
    9.9062  -13.9283   19.3221 C   0  0  0  0  0  0  0  0  0  0  0  0
    8.4479  -13.9094   18.8983 C   0  0  2  0  0  0  0  0  0  0  0  0
    8.1327  -12.5395   18.3436 C   0  0  0  0  0  0  0  0  0  0  0  0
    7.5519  -14.2365   20.0473 C   0  0  0  0  0  0  0  0  0  0  0  0
    7.7965  -15.5947   20.6297 C   0  0  2  0  0  0  0  0  0  0  0  0
    7.2351  -16.6580   19.8264 N   0  0  0  0  0  0  0  0  0  0  0  0
    7.1829  -15.6849   21.9872 C   0  0  0  0  0  0  0  0  0  0  0  0
    5.9402  -15.5346   22.1713 O   0  0  0  0  0  0  0  0  0  0  0  0
    7.2843  -17.3538   24.9604 C   0  0  0  0  0  0  0  0  0  0  0  0
    7.5268  -15.9463   24.4903 C   0  0  2  0  0  0  0  0  0  0  0  0
    8.0157  -15.9461   23.1004 N   0  0  0  0  0  0  0  0  0  0  0  0
    8.4191  -15.1589   25.3612 C   0  0  0  0  0  0  0  0  0  0  0  0
    9.6377  -15.5125   25.3615 O   0  0  0  0  0  0  0  0  0  0  0  0
    8.0540  -14.0768   26.1726 N   0  0  0  0  0  0  0  0  0  0  0  0
    6.7649  -13.4201   26.1724 C   0  0  0  0  0  0  0  0  0  0  0  0
    6.7098  -12.5956   27.4404 C   0  0  0  0  0  0  0  0  0  0  0  0
    8.1367  -12.2005   27.6143 C   0  0  0  0  0  0  0  0  0  0  0  0
    8.8986  -13.4291   27.1486 C   0  0  1  0  0  0  0  0  0  0  0  0
    9.0966  -14.2788   28.3708 C   0  0  0  0  0  0  0  0  0  0  0  0
    8.3024  -15.2422   28.5145 O   0  0  0  0  0  0  0  0  0  0  0  0
   10.0663  -14.0697   29.3112 O   0  0  0  0  0  0  0  0  0  0  0  0
  2  1  1  1
  3  2  1  0
  4  2  1  0
  4  5  1  0
  5  6  1  6
  7  5  1  0
  7  8  2  0
 10  9  1  1
 10 11  1  0
 10 12  1  0
 11  7  1  0
 12 14  1  0
 13 12  2  0
 14 18  1  0
 14 15  1  0
 15 16  1  0
 17 16  1  0
 18 17  1  0
 18 19  1  1
 19 21  1  0
 20 19  2  0
M  END
$$$$
