MLG.pdb
     RDKit          3D

 21 20  0  0  1  0  0  0  0  0999 V2000
    5.5524  -19.2616   20.7383 C   0  0  0  0  0  0  0  0  0  0  0  0
    6.9016  -18.7157   19.6579 S   0  0  0  0  0  0  0  0  0  0  0  0
    7.2081  -16.9453   19.8191 C   0  0  0  0  0  0  0  0  0  0  0  0
    7.2209  -16.5317   21.2650 C   0  0  0  0  0  0  0  0  0  0  0  0
    7.3730  -15.0426   21.4444 C   0  0  2  0  0  0  0  0  0  0  0  0
    7.9336  -14.4258   20.2651 N   0  0  0  0  0  0  0  0  0  0  0  0
    8.0904  -14.6672   22.6814 C   0  0  0  0  0  0  0  0  0  0  0  0
    9.2711  -14.2387   22.6012 O   0  0  0  0  0  0  0  0  0  0  0  0
    7.6861  -11.3862   25.8285 C   0  0  0  0  0  0  0  0  0  0  0  0
    6.6767  -12.5332   25.8658 C   0  0  2  0  0  0  0  0  0  0  0  0
    5.6311  -12.1434   26.8852 C   0  0  0  0  0  0  0  0  0  0  0  0
    7.3494  -13.8155   26.2307 C   0  0  0  0  0  0  0  0  0  0  0  0
    8.2450  -14.3727   25.1981 C   0  0  2  0  0  0  0  0  0  0  0  0
    7.5291  -14.7584   23.9778 N   0  0  0  0  0  0  0  0  0  0  0  0
    9.1255  -15.4818   25.5789 C   0  0  0  0  0  0  0  0  0  0  0  0
    9.7838  -15.4328   26.6664 O   0  0  0  0  0  0  0  0  0  0  0  0
    9.3269  -16.6668   24.8176 N   0  0  0  0  0  0  0  0  0  0  0  0
   10.1153  -17.7742   25.2876 C   0  0  0  0  0  0  0  0  0  0  0  0
   11.5298  -17.5565   24.9648 C   0  0  0  0  0  0  0  0  0  0  0  0
   11.9197  -16.5162   24.3892 O   0  0  0  0  0  0  0  0  0  0  0  0
   12.4721  -18.5130   25.2965 O   0  0  0  0  0  0  0  0  0  0  0  0
  2  1  1  0
  3  2  1  0
  4  3  1  0
  4  5  1  0
  5  6  1  6
  7  8  2  0
  7  5  1  0
 10  9  1  1
 10 12  1  0
 11 10  1  0
 13 14  1  0
 13 12  1  1
 14  7  1  0
 15 13  1  0
 16 15  2  0
 17 15  1  0
 18 17  1  0
 19 18  1  0
 19 21  1  0
 20 19  2  0
M  END
$$$$
