MLG.pdb
     RDKit          3D

 21 20  0  0  1  0  0  0  0  0999 V2000
    8.5050  -11.3445   19.6174 C   0  0  0  0  0  0  0  0  0  0  0  0
    7.7982  -12.7188   18.6702 S   0  0  0  0  0  0  0  0  0  0  0  0
    7.9427  -14.2825   19.5580 C   0  0  0  0  0  0  0  0  0  0  0  0
    8.3906  -14.0560   20.9758 C   0  0  0  0  0  0  0  0  0  0  0  0
    8.5061  -15.3368   21.7626 C   0  0  2  0  0  0  0  0  0  0  0  0
    7.2875  -16.1084   21.6924 N   0  0  0  0  0  0  0  0  0  0  0  0
    8.9769  -15.1371   23.1498 C   0  0  0  0  0  0  0  0  0  0  0  0
   10.1590  -14.7533   23.3483 O   0  0  0  0  0  0  0  0  0  0  0  0
    8.2513  -11.9631   26.0823 C   0  0  0  0  0  0  0  0  0  0  0  0
    7.1011  -12.9535   25.9038 C   0  0  2  0  0  0  0  0  0  0  0  0
    5.9330  -12.3891   26.6794 C   0  0  0  0  0  0  0  0  0  0  0  0
    7.4890  -14.3070   26.4011 C   0  0  0  0  0  0  0  0  0  0  0  0
    8.5761  -14.9658   25.6506 C   0  0  2  0  0  0  0  0  0  0  0  0
    8.1728  -15.3524   24.2948 N   0  0  0  0  0  0  0  0  0  0  0  0
    9.2412  -16.1152   26.2726 C   0  0  0  0  0  0  0  0  0  0  0  0
    9.5821  -16.0723   27.4975 O   0  0  0  0  0  0  0  0  0  0  0  0
    9.5583  -17.3347   25.6119 N   0  0  0  0  0  0  0  0  0  0  0  0
   10.0113  -18.5079   26.3100 C   0  0  0  0  0  0  0  0  0  0  0  0
   11.4483  -18.7017   26.0862 C   0  0  0  0  0  0  0  0  0  0  0  0
   12.1227  -17.8936   25.4097 O   0  0  0  0  0  0  0  0  0  0  0  0
   12.0929  -19.7990   26.6280 O   0  0  0  0  0  0  0  0  0  0  0  0
  2  1  1  0
  3  2  1  0
  4  3  1  0
  4  5  1  0
  5  6  1  1
  7  8  2  0
  7  5  1  0
 10  9  1  1
 10 12  1  0
 11 10  1  0
 13 14  1  0
 13 12  1  1
 14  7  1  0
 15 13  1  0
 16 15  2  0
 17 15  1  0
 18 17  1  0
 19 18  1  0
 19 21  1  0
 20 19  2  0
M  END
$$$$
