MLG.pdb
     RDKit          3D

 21 20  0  0  1  0  0  0  0  0999 V2000
   10.4345  -13.8498   30.0764 C   0  0  0  0  0  0  0  0  0  0  0  0
   11.3674  -15.4026   30.0126 S   0  0  0  0  0  0  0  0  0  0  0  0
   10.5189  -16.6482   29.0212 C   0  0  0  0  0  0  0  0  0  0  0  0
    9.7005  -16.0048   27.9357 C   0  0  0  0  0  0  0  0  0  0  0  0
    9.4253  -16.9365   26.7829 C   0  0  2  0  0  0  0  0  0  0  0  0
   10.6498  -17.3581   26.1440 N   0  0  0  0  0  0  0  0  0  0  0  0
    8.4316  -16.4105   25.8229 C   0  0  0  0  0  0  0  0  0  0  0  0
    7.3156  -16.9828   25.7181 O   0  0  0  0  0  0  0  0  0  0  0  0
    5.8037  -13.4602   26.3678 C   0  0  0  0  0  0  0  0  0  0  0  0
    7.1676  -12.9679   25.8849 C   0  0  2  0  0  0  0  0  0  0  0  0
    7.1943  -11.4785   26.1405 C   0  0  0  0  0  0  0  0  0  0  0  0
    7.3588  -13.2811   24.4374 C   0  0  0  0  0  0  0  0  0  0  0  0
    7.6234  -14.7004   24.1299 C   0  0  2  0  0  0  0  0  0  0  0  0
    8.6534  -15.2833   24.9956 N   0  0  0  0  0  0  0  0  0  0  0  0
    7.9409  -15.0546   22.7428 C   0  0  0  0  0  0  0  0  0  0  0  0
    7.1421  -14.7427   21.8030 O   0  0  0  0  0  0  0  0  0  0  0  0
    9.1111  -15.7451   22.3207 N   0  0  0  0  0  0  0  0  0  0  0  0
    9.3991  -16.0249   20.9395 C   0  0  0  0  0  0  0  0  0  0  0  0
   10.7413  -16.6039   20.8138 C   0  0  0  0  0  0  0  0  0  0  0  0
   11.3240  -17.1294   21.7883 O   0  0  0  0  0  0  0  0  0  0  0  0
   11.3964  -16.5783   19.5959 O   0  0  0  0  0  0  0  0  0  0  0  0
  2  1  1  0
  3  2  1  0
  4  3  1  0
  4  5  1  0
  5  6  1  6
  7  8  2  0
  7  5  1  0
 10  9  1  6
 10 12  1  0
 11 10  1  0
 13 14  1  0
 13 12  1  6
 14  7  1  0
 15 13  1  0
 16 15  2  0
 17 15  1  0
 18 17  1  0
 19 18  1  0
 19 21  1  0
 20 19  2  0
M  END
$$$$
