MLG.pdb
     RDKit          3D

 21 20  0  0  1  0  0  0  0  0999 V2000
    9.2200  -17.7695   29.3975 C   0  0  0  0  0  0  0  0  0  0  0  0
    7.9431  -19.0367   29.6191 S   0  0  0  0  0  0  0  0  0  0  0  0
    7.3932  -19.7105   28.0387 C   0  0  0  0  0  0  0  0  0  0  0  0
    6.6962  -18.6592   27.2196 C   0  0  0  0  0  0  0  0  0  0  0  0
    7.5185  -18.1954   26.0442 C   0  0  2  0  0  0  0  0  0  0  0  0
    8.9313  -18.2442   26.3392 N   0  0  0  0  0  0  0  0  0  0  0  0
    7.0922  -16.8864   25.5052 C   0  0  0  0  0  0  0  0  0  0  0  0
    5.9351  -16.7670   25.0248 O   0  0  0  0  0  0  0  0  0  0  0  0
    5.5148  -13.2391   26.1407 C   0  0  0  0  0  0  0  0  0  0  0  0
    7.0295  -13.2409   26.3441 C   0  0  2  0  0  0  0  0  0  0  0  0
    7.3609  -11.9546   27.0652 C   0  0  0  0  0  0  0  0  0  0  0  0
    7.7373  -13.3343   25.0325 C   0  0  0  0  0  0  0  0  0  0  0  0
    7.8294  -14.6926   24.4621 C   0  0  2  0  0  0  0  0  0  0  0  0
    7.9132  -15.7332   25.4919 N   0  0  0  0  0  0  0  0  0  0  0  0
    8.8765  -14.9504   23.4685 C   0  0  0  0  0  0  0  0  0  0  0  0
   10.0935  -14.6981   23.7402 O   0  0  0  0  0  0  0  0  0  0  0  0
    8.6582  -15.4818   22.1669 N   0  0  0  0  0  0  0  0  0  0  0  0
    9.6462  -15.4259   21.1231 C   0  0  0  0  0  0  0  0  0  0  0  0
   10.6241  -16.5055   21.2989 C   0  0  0  0  0  0  0  0  0  0  0  0
   10.5330  -17.3279   22.2374 O   0  0  0  0  0  0  0  0  0  0  0  0
   11.6808  -16.6347   20.4160 O   0  0  0  0  0  0  0  0  0  0  0  0
  2  1  1  0
  3  2  1  0
  4  3  1  0
  4  5  1  0
  5  6  1  1
  7  8  2  0
  7  5  1  0
 10  9  1  6
 10 12  1  0
 11 10  1  0
 13 14  1  0
 13 12  1  1
 14  7  1  0
 15 13  1  0
 16 15  2  0
 17 15  1  0
 18 17  1  0
 19 18  1  0
 19 21  1  0
 20 19  2  0
M  END
$$$$
