MLG.pdb
     RDKit          3D

 21 20  0  0  1  0  0  0  0  0999 V2000
    7.5946  -12.3033   20.0303 C   0  0  0  0  0  0  0  0  0  0  0  0
    7.4583  -13.7915   19.0047 S   0  0  0  0  0  0  0  0  0  0  0  0
    6.3792  -15.0239   19.7605 C   0  0  0  0  0  0  0  0  0  0  0  0
    7.1668  -15.9701   20.6244 C   0  0  0  0  0  0  0  0  0  0  0  0
    8.5219  -15.4265   20.9998 C   0  0  2  0  0  0  0  0  0  0  0  0
    9.5822  -16.1744   20.3658 N   0  0  0  0  0  0  0  0  0  0  0  0
    8.7171  -15.2828   22.4582 C   0  0  0  0  0  0  0  0  0  0  0  0
    9.6925  -15.8582   23.0074 O   0  0  0  0  0  0  0  0  0  0  0  0
    6.2069  -12.2658   27.3361 C   0  0  0  0  0  0  0  0  0  0  0  0
    7.3375  -13.1448   26.8022 C   0  0  2  0  0  0  0  0  0  0  0  0
    8.6266  -12.4602   27.1944 C   0  0  0  0  0  0  0  0  0  0  0  0
    7.2273  -13.3034   25.3214 C   0  0  0  0  0  0  0  0  0  0  0  0
    8.1042  -14.3340   24.7316 C   0  0  2  0  0  0  0  0  0  0  0  0
    7.8644  -14.5264   23.2978 N   0  0  0  0  0  0  0  0  0  0  0  0
    8.1366  -15.6543   25.3688 C   0  0  0  0  0  0  0  0  0  0  0  0
    7.0654  -16.3276   25.5023 O   0  0  0  0  0  0  0  0  0  0  0  0
    9.3033  -16.2907   25.8767 N   0  0  0  0  0  0  0  0  0  0  0  0
    9.3420  -17.6834   26.2344 C   0  0  0  0  0  0  0  0  0  0  0  0
    9.6177  -17.8260   27.6683 C   0  0  0  0  0  0  0  0  0  0  0  0
    9.8521  -16.8342   28.3941 O   0  0  0  0  0  0  0  0  0  0  0  0
    9.6234  -19.0799   28.2521 O   0  0  0  0  0  0  0  0  0  0  0  0
  2  1  1  0
  3  2  1  0
  4  3  1  0
  4  5  1  0
  5  6  1  1
  7  8  2  0
  7  5  1  0
 10  9  1  6
 10 12  1  0
 11 10  1  0
 13 14  1  0
 13 12  1  1
 14  7  1  0
 15 13  1  0
 16 15  2  0
 17 15  1  0
 18 17  1  0
 19 18  1  0
 19 21  1  0
 20 19  2  0
M  END
$$$$
