MLG.pdb
     RDKit          3D

 21 20  0  0  1  0  0  0  0  0999 V2000
    6.6217  -20.6117   26.7094 C   0  0  0  0  0  0  0  0  0  0  0  0
    6.0066  -21.0382   25.0585 S   0  0  0  0  0  0  0  0  0  0  0  0
    5.7386  -19.5680   24.0481 C   0  0  0  0  0  0  0  0  0  0  0  0
    6.9106  -18.6302   24.1425 C   0  0  0  0  0  0  0  0  0  0  0  0
    6.6525  -17.3048   23.4721 C   0  0  2  0  0  0  0  0  0  0  0  0
    6.7164  -17.4218   22.0342 N   0  0  0  0  0  0  0  0  0  0  0  0
    7.4925  -16.2057   23.9939 C   0  0  0  0  0  0  0  0  0  0  0  0
    8.5407  -15.8863   23.3748 O   0  0  0  0  0  0  0  0  0  0  0  0
    6.8977  -11.7160   24.8653 C   0  0  0  0  0  0  0  0  0  0  0  0
    6.3047  -12.7287   25.8445 C   0  0  2  0  0  0  0  0  0  0  0  0
    5.4447  -11.9369   26.8025 C   0  0  0  0  0  0  0  0  0  0  0  0
    7.3880  -13.4672   26.5595 C   0  0  0  0  0  0  0  0  0  0  0  0
    8.0987  -14.4788   25.7529 C   0  0  2  0  0  0  0  0  0  0  0  0
    7.1930  -15.4721   25.1669 N   0  0  0  0  0  0  0  0  0  0  0  0
    9.2156  -15.1943   26.3781 C   0  0  0  0  0  0  0  0  0  0  0  0
   10.1406  -14.5489   26.9666 O   0  0  0  0  0  0  0  0  0  0  0  0
    9.3765  -16.6078   26.3949 N   0  0  0  0  0  0  0  0  0  0  0  0
   10.4755  -17.2623   27.0528 C   0  0  0  0  0  0  0  0  0  0  0  0
   11.5844  -17.4508   26.1109 C   0  0  0  0  0  0  0  0  0  0  0  0
   11.5439  -16.9908   24.9480 O   0  0  0  0  0  0  0  0  0  0  0  0
   12.7121  -18.1516   26.4984 O   0  0  0  0  0  0  0  0  0  0  0  0
  2  1  1  0
  3  2  1  0
  4  3  1  0
  4  5  1  0
  5  6  1  6
  7  8  2  0
  7  5  1  0
 10  9  1  6
 10 12  1  0
 11 10  1  0
 13 14  1  0
 13 12  1  1
 14  7  1  0
 15 13  1  0
 16 15  2  0
 17 15  1  0
 18 17  1  0
 19 18  1  0
 19 21  1  0
 20 19  2  0
M  END
$$$$
