MLG.pdb
     RDKit          3D

 21 20  0  0  1  0  0  0  0  0999 V2000
    7.4454  -11.7141   20.3435 C   0  0  0  0  0  0  0  0  0  0  0  0
    8.4563  -13.2013   20.5712 S   0  0  0  0  0  0  0  0  0  0  0  0
    7.4710  -14.7049   20.4213 C   0  0  0  0  0  0  0  0  0  0  0  0
    8.2904  -15.9201   20.7586 C   0  0  0  0  0  0  0  0  0  0  0  0
    7.9752  -16.4753   22.1244 C   0  0  2  0  0  0  0  0  0  0  0  0
    6.5573  -16.6945   22.2882 N   0  0  0  0  0  0  0  0  0  0  0  0
    8.5638  -15.6909   23.2308 C   0  0  0  0  0  0  0  0  0  0  0  0
    9.7378  -15.2519   23.1162 O   0  0  0  0  0  0  0  0  0  0  0  0
    7.6232  -11.6387   25.3488 C   0  0  0  0  0  0  0  0  0  0  0  0
    6.6780  -12.7963   25.6687 C   0  0  2  0  0  0  0  0  0  0  0  0
    5.6043  -12.2292   26.5686 C   0  0  0  0  0  0  0  0  0  0  0  0
    7.4169  -13.9128   26.3302 C   0  0  0  0  0  0  0  0  0  0  0  0
    8.4521  -14.5609   25.5012 C   0  0  2  0  0  0  0  0  0  0  0  0
    7.8835  -15.3930   24.4360 N   0  0  0  0  0  0  0  0  0  0  0  0
    9.4890  -15.3414   26.1838 C   0  0  0  0  0  0  0  0  0  0  0  0
   10.2106  -14.8012   27.0816 O   0  0  0  0  0  0  0  0  0  0  0  0
    9.7832  -16.7104   25.9319 N   0  0  0  0  0  0  0  0  0  0  0  0
   10.7146  -17.4690   26.7231 C   0  0  0  0  0  0  0  0  0  0  0  0
   10.7943  -18.8457   26.2222 C   0  0  0  0  0  0  0  0  0  0  0  0
   11.2453  -19.7760   26.9268 O   0  0  0  0  0  0  0  0  0  0  0  0
   10.3652  -19.1437   24.9415 O   0  0  0  0  0  0  0  0  0  0  0  0
  2  1  1  0
  3  2  1  0
  4  3  1  0
  4  5  1  0
  5  6  1  1
  7  8  2  0
  7  5  1  0
 10  9  1  1
 10 12  1  0
 11 10  1  0
 13 14  1  0
 13 12  1  1
 14  7  1  0
 15 13  1  0
 16 15  2  0
 17 15  1  0
 18 17  1  0
 19 18  1  0
 19 21  1  0
 20 19  2  0
M  END
$$$$
