MLG.pdb
     RDKit          3D

 21 20  0  0  1  0  0  0  0  0999 V2000
    8.4355  -11.6467   19.1616 C   0  0  0  0  0  0  0  0  0  0  0  0
    7.4389  -12.9682   18.4228 S   0  0  0  0  0  0  0  0  0  0  0  0
    7.4324  -14.4506   19.4509 C   0  0  0  0  0  0  0  0  0  0  0  0
    8.2194  -14.2320   20.7138 C   0  0  0  0  0  0  0  0  0  0  0  0
    8.2234  -15.4405   21.6150 C   0  0  2  0  0  0  0  0  0  0  0  0
    6.9488  -16.1190   21.5899 N   0  0  0  0  0  0  0  0  0  0  0  0
    8.6900  -15.1516   22.9879 C   0  0  0  0  0  0  0  0  0  0  0  0
    9.8683  -14.7460   23.1638 O   0  0  0  0  0  0  0  0  0  0  0  0
    7.9216  -11.8270   25.8529 C   0  0  0  0  0  0  0  0  0  0  0  0
    6.9094  -12.9495   25.6267 C   0  0  2  0  0  0  0  0  0  0  0  0
    5.6037  -12.4665   26.2150 C   0  0  0  0  0  0  0  0  0  0  0  0
    7.3705  -14.2135   26.2747 C   0  0  0  0  0  0  0  0  0  0  0  0
    8.3521  -14.9969   25.4991 C   0  0  2  0  0  0  0  0  0  0  0  0
    7.8857  -15.3031   24.1430 N   0  0  0  0  0  0  0  0  0  0  0  0
    8.8664  -16.2347   26.0937 C   0  0  0  0  0  0  0  0  0  0  0  0
    8.4444  -16.6234   27.2292 O   0  0  0  0  0  0  0  0  0  0  0  0
    9.8370  -17.0880   25.4987 N   0  0  0  0  0  0  0  0  0  0  0  0
   10.2496  -18.3338   26.0876 C   0  0  0  0  0  0  0  0  0  0  0  0
   11.6766  -18.2816   26.4245 C   0  0  0  0  0  0  0  0  0  0  0  0
   12.4805  -17.5795   25.7716 O   0  0  0  0  0  0  0  0  0  0  0  0
   12.1659  -19.0197   27.4870 O   0  0  0  0  0  0  0  0  0  0  0  0
  2  1  1  0
  3  2  1  0
  4  3  1  0
  4  5  1  0
  5  6  1  1
  7  8  2  0
  7  5  1  0
 10  9  1  1
 10 12  1  0
 11 10  1  0
 13 14  1  0
 13 12  1  1
 14  7  1  0
 15 13  1  0
 16 15  2  0
 17 15  1  0
 18 17  1  0
 19 18  1  0
 19 21  1  0
 20 19  2  0
M  END
$$$$
