MLG.pdb
     RDKit          3D

 21 20  0  0  1  0  0  0  0  0999 V2000
    8.2693  -11.8434   19.6717 C   0  0  0  0  0  0  0  0  0  0  0  0
    7.0380  -13.1649   19.5191 S   0  0  0  0  0  0  0  0  0  0  0  0
    7.7291  -14.7721   19.9591 C   0  0  0  0  0  0  0  0  0  0  0  0
    7.7150  -14.9732   21.4494 C   0  0  0  0  0  0  0  0  0  0  0  0
    9.0994  -15.0738   22.0376 C   0  0  2  0  0  0  0  0  0  0  0  0
    9.8760  -16.0994   21.3814 N   0  0  0  0  0  0  0  0  0  0  0  0
    9.1072  -15.2054   23.5101 C   0  0  0  0  0  0  0  0  0  0  0  0
   10.1548  -15.5985   24.0864 O   0  0  0  0  0  0  0  0  0  0  0  0
    7.9783  -11.8451   26.4272 C   0  0  0  0  0  0  0  0  0  0  0  0
    6.8317  -12.7112   25.9065 C   0  0  2  0  0  0  0  0  0  0  0  0
    5.5567  -12.0624   26.3940 C   0  0  0  0  0  0  0  0  0  0  0  0
    6.9613  -14.1127   26.4054 C   0  0  0  0  0  0  0  0  0  0  0  0
    8.0543  -14.8982   25.7995 C   0  0  2  0  0  0  0  0  0  0  0  0
    7.9939  -14.9135   24.3344 N   0  0  0  0  0  0  0  0  0  0  0  0
    8.2469  -16.2766   26.2613 C   0  0  0  0  0  0  0  0  0  0  0  0
    8.3928  -16.5223   27.5011 O   0  0  0  0  0  0  0  0  0  0  0  0
    8.2877  -17.4242   25.4213 N   0  0  0  0  0  0  0  0  0  0  0  0
    8.3857  -18.7650   25.9326 C   0  0  0  0  0  0  0  0  0  0  0  0
    9.7908  -19.1850   25.9744 C   0  0  0  0  0  0  0  0  0  0  0  0
   10.4544  -19.3640   24.9290 O   0  0  0  0  0  0  0  0  0  0  0  0
   10.4165  -19.3936   27.1902 O   0  0  0  0  0  0  0  0  0  0  0  0
  2  1  1  0
  3  2  1  0
  4  3  1  0
  4  5  1  0
  5  6  1  6
  7  8  2  0
  7  5  1  0
 10  9  1  1
 10 12  1  0
 11 10  1  0
 13 14  1  0
 13 12  1  1
 14  7  1  0
 15 13  1  0
 16 15  2  0
 17 15  1  0
 18 17  1  0
 19 18  1  0
 19 21  1  0
 20 19  2  0
M  END
$$$$
