MLG.pdb
     RDKit          3D

 21 20  0  0  1  0  0  0  0  0999 V2000
   10.4295  -13.8419   28.9165 C   0  0  0  0  0  0  0  0  0  0  0  0
   10.8025  -15.3459   29.8568 S   0  0  0  0  0  0  0  0  0  0  0  0
   10.7831  -16.8107   28.8040 C   0  0  0  0  0  0  0  0  0  0  0  0
    9.3954  -17.0880   28.2948 C   0  0  0  0  0  0  0  0  0  0  0  0
    9.3537  -17.3045   26.8035 C   0  0  2  0  0  0  0  0  0  0  0  0
   10.6637  -17.1560   26.2141 N   0  0  0  0  0  0  0  0  0  0  0  0
    8.3236  -16.4953   26.1180 C   0  0  0  0  0  0  0  0  0  0  0  0
    7.1082  -16.7705   26.2943 O   0  0  0  0  0  0  0  0  0  0  0  0
    5.7461  -13.4791   26.5034 C   0  0  0  0  0  0  0  0  0  0  0  0
    7.1512  -13.0220   26.1129 C   0  0  2  0  0  0  0  0  0  0  0  0
    7.1974  -11.5328   26.3672 C   0  0  0  0  0  0  0  0  0  0  0  0
    7.4319  -13.3446   24.6821 C   0  0  0  0  0  0  0  0  0  0  0  0
    7.6213  -14.7781   24.3853 C   0  0  2  0  0  0  0  0  0  0  0  0
    8.6161  -15.4091   25.2586 N   0  0  0  0  0  0  0  0  0  0  0  0
    7.9236  -15.1587   23.0018 C   0  0  0  0  0  0  0  0  0  0  0  0
    7.1074  -14.8778   22.0672 O   0  0  0  0  0  0  0  0  0  0  0  0
    9.0967  -15.8432   22.5779 N   0  0  0  0  0  0  0  0  0  0  0  0
    9.3482  -16.1877   21.2043 C   0  0  0  0  0  0  0  0  0  0  0  0
   10.6564  -16.8405   21.0818 C   0  0  0  0  0  0  0  0  0  0  0  0
   11.2052  -17.0084   19.9701 O   0  0  0  0  0  0  0  0  0  0  0  0
   11.3164  -17.2888   22.2116 O   0  0  0  0  0  0  0  0  0  0  0  0
  2  1  1  0
  3  2  1  0
  4  3  1  0
  4  5  1  0
  5  6  1  6
  7  8  2  0
  7  5  1  0
 10  9  1  6
 10 12  1  0
 11 10  1  0
 13 14  1  0
 13 12  1  6
 14  7  1  0
 15 13  1  0
 16 15  2  0
 17 15  1  0
 18 17  1  0
 19 18  1  0
 19 21  1  0
 20 19  2  0
M  END
$$$$
