MLG.pdb
     RDKit          3D

 21 20  0  0  1  0  0  0  0  0999 V2000
    8.1428  -11.6390   19.5172 C   0  0  0  0  0  0  0  0  0  0  0  0
    7.6931  -13.1773   18.6705 S   0  0  0  0  0  0  0  0  0  0  0  0
    7.5601  -14.5575   19.8245 C   0  0  0  0  0  0  0  0  0  0  0  0
    8.4177  -14.3275   21.0384 C   0  0  0  0  0  0  0  0  0  0  0  0
    8.3559  -15.4691   22.0210 C   0  0  2  0  0  0  0  0  0  0  0  0
    7.0604  -16.1070   22.0048 N   0  0  0  0  0  0  0  0  0  0  0  0
    8.7937  -15.0994   23.3839 C   0  0  0  0  0  0  0  0  0  0  0  0
    9.9443  -14.6171   23.5501 O   0  0  0  0  0  0  0  0  0  0  0  0
    7.7888  -11.7903   25.9374 C   0  0  0  0  0  0  0  0  0  0  0  0
    6.7933  -12.9500   25.9365 C   0  0  2  0  0  0  0  0  0  0  0  0
    5.5535  -12.4435   26.6371 C   0  0  0  0  0  0  0  0  0  0  0  0
    7.3698  -14.1400   26.6303 C   0  0  0  0  0  0  0  0  0  0  0  0
    8.4229  -14.8555   25.8833 C   0  0  2  0  0  0  0  0  0  0  0  0
    7.9910  -15.2536   24.5397 N   0  0  0  0  0  0  0  0  0  0  0  0
    9.0497  -16.0168   26.5226 C   0  0  0  0  0  0  0  0  0  0  0  0
    9.4134  -15.9590   27.7404 O   0  0  0  0  0  0  0  0  0  0  0  0
    9.3034  -17.2643   25.8873 N   0  0  0  0  0  0  0  0  0  0  0  0
    9.7768  -18.4221   26.5975 C   0  0  0  0  0  0  0  0  0  0  0  0
   11.2227  -18.5750   26.4014 C   0  0  0  0  0  0  0  0  0  0  0  0
   11.7350  -18.5703   25.2599 O   0  0  0  0  0  0  0  0  0  0  0  0
   12.0582  -18.7296   27.4928 O   0  0  0  0  0  0  0  0  0  0  0  0
  2  1  1  0
  3  2  1  0
  4  3  1  0
  4  5  1  0
  5  6  1  1
  7  8  2  0
  7  5  1  0
 10  9  1  1
 10 12  1  0
 11 10  1  0
 13 14  1  0
 13 12  1  1
 14  7  1  0
 15 13  1  0
 16 15  2  0
 17 15  1  0
 18 17  1  0
 19 18  1  0
 19 21  1  0
 20 19  2  0
M  END
$$$$
