MLG.pdb
     RDKit          3D

 21 20  0  0  1  0  0  0  0  0999 V2000
   11.0443  -13.9559   30.0671 C   0  0  0  0  0  0  0  0  0  0  0  0
   10.0210  -14.8240   28.8486 S   0  0  0  0  0  0  0  0  0  0  0  0
   10.0961  -16.6127   29.0702 C   0  0  0  0  0  0  0  0  0  0  0  0
    9.1332  -17.3092   28.1485 C   0  0  0  0  0  0  0  0  0  0  0  0
    9.5420  -17.2174   26.7003 C   0  0  2  0  0  0  0  0  0  0  0  0
   10.8513  -16.6244   26.5604 N   0  0  0  0  0  0  0  0  0  0  0  0
    8.5275  -16.5718   25.8402 C   0  0  0  0  0  0  0  0  0  0  0  0
    7.3808  -17.0831   25.7527 O   0  0  0  0  0  0  0  0  0  0  0  0
    5.7787  -13.7487   26.3363 C   0  0  0  0  0  0  0  0  0  0  0  0
    7.1444  -13.2020   25.9216 C   0  0  2  0  0  0  0  0  0  0  0  0
    7.1191  -11.7226   26.2303 C   0  0  0  0  0  0  0  0  0  0  0  0
    7.3962  -13.4572   24.4720 C   0  0  0  0  0  0  0  0  0  0  0  0
    7.7988  -14.8370   24.1362 C   0  0  2  0  0  0  0  0  0  0  0  0
    8.7617  -15.3929   25.0923 N   0  0  0  0  0  0  0  0  0  0  0  0
    8.3003  -15.0958   22.7827 C   0  0  0  0  0  0  0  0  0  0  0  0
    7.5783  -14.8279   21.7700 O   0  0  0  0  0  0  0  0  0  0  0  0
    9.5767  -15.6421   22.4723 N   0  0  0  0  0  0  0  0  0  0  0  0
   10.0631  -15.7779   21.1255 C   0  0  0  0  0  0  0  0  0  0  0  0
   10.1087  -17.1951   20.7486 C   0  0  0  0  0  0  0  0  0  0  0  0
    9.4312  -18.0573   21.3512 O   0  0  0  0  0  0  0  0  0  0  0  0
   10.9145  -17.6093   19.7035 O   0  0  0  0  0  0  0  0  0  0  0  0
  2  1  1  0
  3  2  1  0
  4  3  1  0
  4  5  1  0
  5  6  1  1
  7  8  2  0
  7  5  1  0
 10  9  1  6
 10 12  1  0
 11 10  1  0
 13 14  1  0
 13 12  1  1
 14  7  1  0
 15 13  1  0
 16 15  2  0
 17 15  1  0
 18 17  1  0
 19 18  1  0
 19 21  1  0
 20 19  2  0
M  END
$$$$
