MLG.pdb
     RDKit          3D

 21 20  0  0  1  0  0  0  0  0999 V2000
    8.1801  -11.9233   18.6447 C   0  0  0  0  0  0  0  0  0  0  0  0
    7.7275  -13.5428   17.9681 S   0  0  0  0  0  0  0  0  0  0  0  0
    7.5961  -14.7918   19.2631 C   0  0  0  0  0  0  0  0  0  0  0  0
    8.6825  -14.6188   20.2886 C   0  0  0  0  0  0  0  0  0  0  0  0
    8.5876  -15.6184   21.4131 C   0  0  2  0  0  0  0  0  0  0  0  0
    7.3773  -16.4006   21.3203 N   0  0  0  0  0  0  0  0  0  0  0  0
    8.7808  -15.0212   22.7518 C   0  0  0  0  0  0  0  0  0  0  0  0
    9.8962  -14.5171   23.0447 O   0  0  0  0  0  0  0  0  0  0  0  0
    5.5360  -12.5126   27.3819 C   0  0  0  0  0  0  0  0  0  0  0  0
    6.8988  -12.9544   26.8496 C   0  0  2  0  0  0  0  0  0  0  0  0
    7.7215  -11.6956   26.6972 C   0  0  0  0  0  0  0  0  0  0  0  0
    6.7490  -13.6743   25.5499 C   0  0  0  0  0  0  0  0  0  0  0  0
    7.9665  -14.3505   25.0607 C   0  0  2  0  0  0  0  0  0  0  0  0
    7.7763  -14.9764   23.7483 N   0  0  0  0  0  0  0  0  0  0  0  0
    8.6094  -15.3297   25.9429 C   0  0  0  0  0  0  0  0  0  0  0  0
    8.9326  -15.0070   27.1303 O   0  0  0  0  0  0  0  0  0  0  0  0
    8.9228  -16.6712   25.5876 N   0  0  0  0  0  0  0  0  0  0  0  0
    9.3453  -17.6563   26.5468 C   0  0  0  0  0  0  0  0  0  0  0  0
   10.7993  -17.8374   26.4733 C   0  0  0  0  0  0  0  0  0  0  0  0
   11.3977  -18.6540   27.2086 O   0  0  0  0  0  0  0  0  0  0  0  0
   11.5460  -17.0965   25.5753 O   0  0  0  0  0  0  0  0  0  0  0  0
  2  1  1  0
  3  2  1  0
  4  3  1  0
  4  5  1  0
  5  6  1  1
  7  8  2  0
  7  5  1  0
 10  9  1  6
 10 12  1  0
 11 10  1  0
 13 14  1  0
 13 12  1  1
 14  7  1  0
 15 13  1  0
 16 15  2  0
 17 15  1  0
 18 17  1  0
 19 18  1  0
 19 21  1  0
 20 19  2  0
M  END
$$$$
