MLG.pdb
     RDKit          3D

 21 20  0  0  1  0  0  0  0  0999 V2000
    8.1362  -11.9948   18.4519 C   0  0  0  0  0  0  0  0  0  0  0  0
    7.4399  -13.5791   17.9126 S   0  0  0  0  0  0  0  0  0  0  0  0
    7.8281  -14.9056   19.0719 C   0  0  0  0  0  0  0  0  0  0  0  0
    8.3535  -14.3504   20.3672 C   0  0  0  0  0  0  0  0  0  0  0  0
    8.5198  -15.4069   21.4297 C   0  0  2  0  0  0  0  0  0  0  0  0
    7.4107  -16.3318   21.4294 N   0  0  0  0  0  0  0  0  0  0  0  0
    8.8032  -14.8551   22.7717 C   0  0  0  0  0  0  0  0  0  0  0  0
    9.9591  -14.4291   23.0294 O   0  0  0  0  0  0  0  0  0  0  0  0
    5.6504  -12.1545   27.3674 C   0  0  0  0  0  0  0  0  0  0  0  0
    7.0043  -12.6080   26.8224 C   0  0  2  0  0  0  0  0  0  0  0  0
    7.7687  -11.3479   26.4873 C   0  0  0  0  0  0  0  0  0  0  0  0
    6.8248  -13.4781   25.6222 C   0  0  0  0  0  0  0  0  0  0  0  0
    8.0685  -14.0417   25.0614 C   0  0  2  0  0  0  0  0  0  0  0  0
    7.8437  -14.7709   23.8091 N   0  0  0  0  0  0  0  0  0  0  0  0
    8.8966  -14.8803   25.9339 C   0  0  0  0  0  0  0  0  0  0  0  0
    9.3273  -14.4237   27.0405 O   0  0  0  0  0  0  0  0  0  0  0  0
    9.2853  -16.2201   25.6545 N   0  0  0  0  0  0  0  0  0  0  0  0
    9.9634  -17.0536   26.6107 C   0  0  0  0  0  0  0  0  0  0  0  0
   10.2374  -18.3702   26.0241 C   0  0  0  0  0  0  0  0  0  0  0  0
    9.3363  -19.2264   25.8817 O   0  0  0  0  0  0  0  0  0  0  0  0
   11.5176  -18.6928   25.6116 O   0  0  0  0  0  0  0  0  0  0  0  0
  2  1  1  0
  3  2  1  0
  4  3  1  0
  4  5  1  0
  5  6  1  1
  7  8  2  0
  7  5  1  0
 10  9  1  6
 10 12  1  0
 11 10  1  0
 13 14  1  0
 13 12  1  1
 14  7  1  0
 15 13  1  0
 16 15  2  0
 17 15  1  0
 18 17  1  0
 19 18  1  0
 19 21  1  0
 20 19  2  0
M  END
$$$$
