MLG.pdb
     RDKit          3D

 21 20  0  0  1  0  0  0  0  0999 V2000
    6.2741  -20.8705   25.3090 C   0  0  0  0  0  0  0  0  0  0  0  0
    5.1126  -20.6789   23.9307 S   0  0  0  0  0  0  0  0  0  0  0  0
    5.5461  -19.2737   22.8858 C   0  0  0  0  0  0  0  0  0  0  0  0
    6.3742  -18.2744   23.6457 C   0  0  0  0  0  0  0  0  0  0  0  0
    6.5809  -16.9894   22.8849 C   0  0  2  0  0  0  0  0  0  0  0  0
    6.9838  -17.2446   21.5219 N   0  0  0  0  0  0  0  0  0  0  0  0
    7.4718  -16.0319   23.5743 C   0  0  0  0  0  0  0  0  0  0  0  0
    8.5947  -15.7660   23.0718 O   0  0  0  0  0  0  0  0  0  0  0  0
    6.7370  -11.7376   25.0276 C   0  0  0  0  0  0  0  0  0  0  0  0
    6.2258  -12.8088   25.9904 C   0  0  2  0  0  0  0  0  0  0  0  0
    5.5285  -12.0722   27.1110 C   0  0  0  0  0  0  0  0  0  0  0  0
    7.3555  -13.6423   26.4994 C   0  0  0  0  0  0  0  0  0  0  0  0
    8.0463  -14.4565   25.4802 C   0  0  2  0  0  0  0  0  0  0  0  0
    7.1422  -15.3795   24.7866 N   0  0  0  0  0  0  0  0  0  0  0  0
    9.2356  -15.2086   25.8927 C   0  0  0  0  0  0  0  0  0  0  0  0
   10.2336  -14.6023   26.3976 O   0  0  0  0  0  0  0  0  0  0  0  0
    9.3933  -16.6181   25.7811 N   0  0  0  0  0  0  0  0  0  0  0  0
   10.6051  -17.3012   26.1470 C   0  0  0  0  0  0  0  0  0  0  0  0
   10.4635  -17.8949   27.4812 C   0  0  0  0  0  0  0  0  0  0  0  0
    9.9492  -19.0234   27.6469 O   0  0  0  0  0  0  0  0  0  0  0  0
   10.9032  -17.2061   28.5971 O   0  0  0  0  0  0  0  0  0  0  0  0
  2  1  1  0
  3  2  1  0
  4  3  1  0
  4  5  1  0
  5  6  1  6
  7  8  2  0
  7  5  1  0
 10  9  1  6
 10 12  1  0
 11 10  1  0
 13 14  1  0
 13 12  1  1
 14  7  1  0
 15 13  1  0
 16 15  2  0
 17 15  1  0
 18 17  1  0
 19 18  1  0
 19 21  1  0
 20 19  2  0
M  END
$$$$
