QAG.pdb
     RDKit          3D

 19 18  0  0  1  0  0  0  0  0999 V2000
   26.3415  -19.8596  -10.9195 N   0  0  0  0  0  0  0  0  0  0  0  0
   25.9051  -21.2114  -10.7290 C   0  0  0  0  0  0  0  0  0  0  0  0
   26.0202  -21.6184   -9.5424 O   0  0  0  0  0  0  0  0  0  0  0  0
   25.3883  -21.9776  -11.8663 C   0  0  0  0  0  0  0  0  0  0  0  0
   25.1931  -21.2796  -13.1477 C   0  0  0  0  0  0  0  0  0  0  0  0
   24.1952  -20.1715  -13.2007 C   0  0  2  0  0  0  0  0  0  0  0  0
   22.8556  -20.5865  -13.5158 N   0  0  0  0  0  0  0  0  0  0  0  0
   24.6298  -19.2149  -14.2527 C   0  0  0  0  0  0  0  0  0  0  0  0
   23.7909  -18.9877  -15.1730 O   0  0  0  0  0  0  0  0  0  0  0  0
   27.4081  -16.7641  -14.9939 C   0  0  0  0  0  0  0  0  0  0  0  0
   26.1883  -17.5656  -15.3377 C   0  0  2  0  0  0  0  0  0  0  0  0
   25.8595  -18.5524  -14.3214 N   0  0  0  0  0  0  0  0  0  0  0  0
   26.3843  -18.2843  -16.6324 C   0  0  0  0  0  0  0  0  0  0  0  0
   26.8744  -19.4447  -16.6688 O   0  0  0  0  0  0  0  0  0  0  0  0
   26.0124  -17.6518  -17.8516 N   0  0  0  0  0  0  0  0  0  0  0  0
   26.1789  -18.3897  -19.0794 C   0  0  0  0  0  0  0  0  0  0  0  0
   24.8948  -19.0028  -19.5204 C   0  0  0  0  0  0  0  0  0  0  0  0
   24.4243  -19.9476  -18.8523 O   0  0  0  0  0  0  0  0  0  0  0  0
   24.2069  -18.5658  -20.6385 O   0  0  0  0  0  0  0  0  0  0  0  0
  2  1  1  0
  3  2  2  0
  4  2  1  0
  5  4  1  0
  6  5  1  0
  6  7  1  6
  8  6  1  0
  8 12  1  0
  9  8  2  0
 11 10  1  1
 11 12  1  0
 11 13  1  0
 13 15  1  0
 14 13  2  0
 15 16  1  0
 16 17  1  0
 17 19  1  0
 18 17  2  0
M  END
$$$$
