QAG.pdb
     RDKit          3D

 19 18  0  0  1  0  0  0  0  0999 V2000
   19.9335  -14.3783  -15.4714 N   0  0  0  0  0  0  0  0  0  0  0  0
   18.5194  -14.6039  -15.5316 C   0  0  0  0  0  0  0  0  0  0  0  0
   18.1514  -15.6669  -14.9644 O   0  0  0  0  0  0  0  0  0  0  0  0
   17.6552  -13.6360  -16.2128 C   0  0  0  0  0  0  0  0  0  0  0  0
   18.2680  -12.4105  -16.7512 C   0  0  0  0  0  0  0  0  0  0  0  0
   17.5881  -11.1088  -16.4866 C   0  0  2  0  0  0  0  0  0  0  0  0
   16.3517  -10.9239  -17.1959 N   0  0  0  0  0  0  0  0  0  0  0  0
   18.5114  -10.0187  -16.8988 C   0  0  0  0  0  0  0  0  0  0  0  0
   18.6598   -9.8630  -18.1462 O   0  0  0  0  0  0  0  0  0  0  0  0
   19.5192   -7.1531  -17.4387 C   0  0  0  0  0  0  0  0  0  0  0  0
   20.1583   -8.1550  -16.5241 C   0  0  2  0  0  0  0  0  0  0  0  0
   19.2216   -9.1621  -16.0517 N   0  0  0  0  0  0  0  0  0  0  0  0
   20.7434   -7.4731  -15.3310 C   0  0  0  0  0  0  0  0  0  0  0  0
   20.0693   -7.2998  -14.2804 O   0  0  0  0  0  0  0  0  0  0  0  0
   22.0875   -7.0079  -15.3752 N   0  0  0  0  0  0  0  0  0  0  0  0
   22.6533   -6.4466  -14.1732 C   0  0  0  0  0  0  0  0  0  0  0  0
   22.1385   -5.0710  -13.9242 C   0  0  0  0  0  0  0  0  0  0  0  0
   22.5962   -4.4291  -12.9553 O   0  0  0  0  0  0  0  0  0  0  0  0
   21.1758   -4.4808  -14.7236 O   0  0  0  0  0  0  0  0  0  0  0  0
  2  1  1  0
  3  2  2  0
  4  2  1  0
  5  4  1  0
  6  5  1  0
  6  7  1  6
  8  6  1  0
  8 12  1  0
  9  8  2  0
 11 10  1  6
 11 12  1  0
 11 13  1  0
 13 15  1  0
 14 13  2  0
 15 16  1  0
 16 17  1  0
 17 19  1  0
 18 17  2  0
M  END
$$$$
