QAG.pdb
     RDKit          3D

 19 18  0  0  1  0  0  0  0  0999 V2000
   17.8841  -13.3403  -17.3488 N   0  0  0  0  0  0  0  0  0  0  0  0
   18.7927  -13.7616  -16.3236 C   0  0  0  0  0  0  0  0  0  0  0  0
   18.3354  -14.6740  -15.5851 O   0  0  0  0  0  0  0  0  0  0  0  0
   20.1120  -13.1327  -16.2154 C   0  0  0  0  0  0  0  0  0  0  0  0
   20.3833  -11.9349  -17.0271 C   0  0  0  0  0  0  0  0  0  0  0  0
   21.7359  -11.7921  -17.6407 C   0  0  2  0  0  0  0  0  0  0  0  0
   22.7266  -12.6962  -17.1238 N   0  0  0  0  0  0  0  0  0  0  0  0
   22.2112  -10.4071  -17.3824 C   0  0  0  0  0  0  0  0  0  0  0  0
   22.7146  -10.2004  -16.2395 O   0  0  0  0  0  0  0  0  0  0  0  0
   22.8227   -7.1527  -19.2047 C   0  0  0  0  0  0  0  0  0  0  0  0
   22.7282   -8.0207  -17.9856 C   0  0  2  0  0  0  0  0  0  0  0  0
   22.1551   -9.3269  -18.2688 N   0  0  0  0  0  0  0  0  0  0  0  0
   21.8860   -7.3637  -16.9416 C   0  0  0  0  0  0  0  0  0  0  0  0
   20.6721   -7.6683  -16.7932 O   0  0  0  0  0  0  0  0  0  0  0  0
   22.4594   -6.3741  -16.0950 N   0  0  0  0  0  0  0  0  0  0  0  0
   21.6396   -5.8165  -15.0477 C   0  0  0  0  0  0  0  0  0  0  0  0
   22.3756   -4.7707  -14.2835 C   0  0  0  0  0  0  0  0  0  0  0  0
   23.5812   -4.5771  -14.5466 O   0  0  0  0  0  0  0  0  0  0  0  0
   21.7750   -4.0092  -13.2968 O   0  0  0  0  0  0  0  0  0  0  0  0
  2  1  1  0
  3  2  2  0
  4  2  1  0
  5  4  1  0
  6  5  1  0
  6  7  1  1
  8  6  1  0
  8 12  1  0
  9  8  2  0
 11 10  1  6
 11 12  1  0
 11 13  1  0
 13 15  1  0
 14 13  2  0
 15 16  1  0
 16 17  1  0
 17 19  1  0
 18 17  2  0
M  END
$$$$
