QAG.pdb
     RDKit          3D

 19 18  0  0  1  0  0  0  0  0999 V2000
   28.2655  -10.8327  -16.5849 N   0  0  0  0  0  0  0  0  0  0  0  0
   27.8082  -12.0374  -15.9575 C   0  0  0  0  0  0  0  0  0  0  0  0
   28.7318  -12.7241  -15.4454 O   0  0  0  0  0  0  0  0  0  0  0  0
   26.3794  -12.3637  -15.9604 C   0  0  0  0  0  0  0  0  0  0  0  0
   25.4423  -11.3913  -16.5464 C   0  0  0  0  0  0  0  0  0  0  0  0
   23.9884  -11.7272  -16.5471 C   0  0  2  0  0  0  0  0  0  0  0  0
   23.6644  -12.9835  -17.1657 N   0  0  0  0  0  0  0  0  0  0  0  0
   23.2728  -10.6592  -17.2940 C   0  0  0  0  0  0  0  0  0  0  0  0
   22.9933  -10.9216  -18.5004 O   0  0  0  0  0  0  0  0  0  0  0  0
   20.5431   -8.9746  -17.4081 C   0  0  0  0  0  0  0  0  0  0  0  0
   21.9690   -8.5172  -17.4886 C   0  0  2  0  0  0  0  0  0  0  0  0
   22.8854   -9.4104  -16.7979 N   0  0  0  0  0  0  0  0  0  0  0  0
   22.1144   -7.1555  -16.8923 C   0  0  0  0  0  0  0  0  0  0  0  0
   21.4602   -6.1739  -17.3357 O   0  0  0  0  0  0  0  0  0  0  0  0
   23.0071   -6.9564  -15.8023 N   0  0  0  0  0  0  0  0  0  0  0  0
   23.2028   -5.6115  -15.3199 C   0  0  0  0  0  0  0  0  0  0  0  0
   22.2315   -5.2771  -14.2409 C   0  0  0  0  0  0  0  0  0  0  0  0
   22.3961   -4.2196  -13.5968 O   0  0  0  0  0  0  0  0  0  0  0  0
   21.1580   -6.0917  -13.9275 O   0  0  0  0  0  0  0  0  0  0  0  0
  2  1  1  0
  3  2  2  0
  4  2  1  0
  5  4  1  0
  6  5  1  0
  6  7  1  6
  8  6  1  0
  8 12  1  0
  9  8  2  0
 11 10  1  1
 11 12  1  0
 11 13  1  0
 13 15  1  0
 14 13  2  0
 15 16  1  0
 16 17  1  0
 17 19  1  0
 18 17  2  0
M  END
$$$$
