QAG.pdb
     RDKit          3D

 19 18  0  0  1  0  0  0  0  0999 V2000
   13.9377  -13.9712   -9.7245 N   0  0  0  0  0  0  0  0  0  0  0  0
   14.4373  -12.8805  -10.5087 C   0  0  0  0  0  0  0  0  0  0  0  0
   15.6900  -12.8840  -10.6414 O   0  0  0  0  0  0  0  0  0  0  0  0
   13.5053  -11.8957  -11.0650 C   0  0  0  0  0  0  0  0  0  0  0  0
   13.9269  -10.4862  -11.1158 C   0  0  0  0  0  0  0  0  0  0  0  0
   13.9250   -9.7047   -9.8446 C   0  0  2  0  0  0  0  0  0  0  0  0
   12.6196   -9.3303   -9.3738 N   0  0  0  0  0  0  0  0  0  0  0  0
   14.6965   -8.4548  -10.0752 C   0  0  0  0  0  0  0  0  0  0  0  0
   14.0585   -7.5036  -10.6141 O   0  0  0  0  0  0  0  0  0  0  0  0
   16.8991   -6.0923   -8.9063 C   0  0  0  0  0  0  0  0  0  0  0  0
   16.7549   -7.0094  -10.0840 C   0  0  2  0  0  0  0  0  0  0  0  0
   16.0406   -8.2336   -9.7585 N   0  0  0  0  0  0  0  0  0  0  0  0
   18.0975   -7.3867  -10.6187 C   0  0  0  0  0  0  0  0  0  0  0  0
   18.7622   -8.3298  -10.1117 O   0  0  0  0  0  0  0  0  0  0  0  0
   18.6421   -6.6712  -11.7216 N   0  0  0  0  0  0  0  0  0  0  0  0
   19.9520   -7.0450  -12.1953 C   0  0  0  0  0  0  0  0  0  0  0  0
   20.4205   -6.1271  -13.2710 C   0  0  0  0  0  0  0  0  0  0  0  0
   19.5857   -5.3797  -13.8230 O   0  0  0  0  0  0  0  0  0  0  0  0
   21.7413   -6.0725  -13.6796 O   0  0  0  0  0  0  0  0  0  0  0  0
  2  1  1  0
  3  2  2  0
  4  2  1  0
  5  4  1  0
  6  5  1  0
  6  7  1  6
  8  6  1  0
  8 12  1  0
  9  8  2  0
 11 10  1  1
 11 12  1  0
 11 13  1  0
 13 15  1  0
 14 13  2  0
 15 16  1  0
 16 17  1  0
 17 19  1  0
 18 17  2  0
M  END
$$$$
