QAG.pdb
     RDKit          3D

 19 18  0  0  1  0  0  0  0  0999 V2000
   20.8626  -14.0312  -19.3713 N   0  0  0  0  0  0  0  0  0  0  0  0
   20.4490  -14.1247  -18.0022 C   0  0  0  0  0  0  0  0  0  0  0  0
   20.1771  -15.2983  -17.6341 O   0  0  0  0  0  0  0  0  0  0  0  0
   20.3753  -12.9145  -17.1788 C   0  0  0  0  0  0  0  0  0  0  0  0
   20.6401  -11.6163  -17.8203 C   0  0  0  0  0  0  0  0  0  0  0  0
   21.3930  -10.5881  -17.0440 C   0  0  2  0  0  0  0  0  0  0  0  0
   21.6618  -10.9469  -15.6783 N   0  0  0  0  0  0  0  0  0  0  0  0
   20.5832   -9.3412  -17.0312 C   0  0  0  0  0  0  0  0  0  0  0  0
   20.2794   -8.8686  -18.1655 O   0  0  0  0  0  0  0  0  0  0  0  0
   17.9545   -7.5340  -15.6603 C   0  0  0  0  0  0  0  0  0  0  0  0
   19.4160   -7.3866  -15.9619 C   0  0  2  0  0  0  0  0  0  0  0  0
   20.1324   -8.6507  -15.9017 N   0  0  0  0  0  0  0  0  0  0  0  0
   20.0562   -6.4468  -14.9935 C   0  0  0  0  0  0  0  0  0  0  0  0
   19.4699   -5.3972  -14.6155 O   0  0  0  0  0  0  0  0  0  0  0  0
   21.3530   -6.7365  -14.4842 N   0  0  0  0  0  0  0  0  0  0  0  0
   21.9114   -5.8452  -13.4976 C   0  0  0  0  0  0  0  0  0  0  0  0
   22.4897   -4.6284  -14.1335 C   0  0  0  0  0  0  0  0  0  0  0  0
   22.5124   -4.5606  -15.3805 O   0  0  0  0  0  0  0  0  0  0  0  0
   23.0006   -3.5750  -13.3963 O   0  0  0  0  0  0  0  0  0  0  0  0
  2  1  1  0
  3  2  2  0
  4  2  1  0
  5  4  1  0
  6  5  1  0
  6  7  1  1
  8  6  1  0
  8 12  1  0
  9  8  2  0
 11 10  1  1
 11 12  1  0
 11 13  1  0
 13 15  1  0
 14 13  2  0
 15 16  1  0
 16 17  1  0
 17 19  1  0
 18 17  2  0
M  END
$$$$
