QAG.pdb
     RDKit          3D

 19 18  0  0  1  0  0  0  0  0999 V2000
   22.6925  -20.4342  -13.3400 N   0  0  0  0  0  0  0  0  0  0  0  0
   22.1780  -20.4411  -12.0023 C   0  0  0  0  0  0  0  0  0  0  0  0
   21.0613  -19.8698  -11.8860 O   0  0  0  0  0  0  0  0  0  0  0  0
   22.9480  -21.0751  -10.9285 C   0  0  0  0  0  0  0  0  0  0  0  0
   24.2552  -21.6648  -11.2610 C   0  0  0  0  0  0  0  0  0  0  0  0
   25.4537  -21.1884  -10.5104 C   0  0  2  0  0  0  0  0  0  0  0  0
   25.1574  -20.3725   -9.3647 N   0  0  0  0  0  0  0  0  0  0  0  0
   26.2822  -20.3760  -11.4401 C   0  0  0  0  0  0  0  0  0  0  0  0
   26.0880  -19.1257  -11.4035 O   0  0  0  0  0  0  0  0  0  0  0  0
   29.4654  -20.3032  -13.2306 C   0  0  0  0  0  0  0  0  0  0  0  0
   27.9964  -20.0023  -13.2423 C   0  0  2  0  0  0  0  0  0  0  0  0
   27.2411  -20.8550  -12.3384 N   0  0  0  0  0  0  0  0  0  0  0  0
   27.4389  -20.1783  -14.6167 C   0  0  0  0  0  0  0  0  0  0  0  0
   27.0788  -21.3106  -15.0366 O   0  0  0  0  0  0  0  0  0  0  0  0
   27.3093  -19.0495  -15.4734 N   0  0  0  0  0  0  0  0  0  0  0  0
   26.7325  -19.2494  -16.7800 C   0  0  0  0  0  0  0  0  0  0  0  0
   27.5198  -18.5474  -17.8320 C   0  0  0  0  0  0  0  0  0  0  0  0
   27.4064  -17.3077  -17.9343 O   0  0  0  0  0  0  0  0  0  0  0  0
   28.3685  -19.2158  -18.6965 O   0  0  0  0  0  0  0  0  0  0  0  0
  2  1  1  0
  3  2  2  0
  4  2  1  0
  5  4  1  0
  6  5  1  0
  6  7  1  1
  8  6  1  0
  8 12  1  0
  9  8  2  0
 11 10  1  6
 11 12  1  0
 11 13  1  0
 13 15  1  0
 14 13  2  0
 15 16  1  0
 16 17  1  0
 17 19  1  0
 18 17  2  0
M  END
$$$$
