QAG.pdb
     RDKit          3D

 19 18  0  0  1  0  0  0  0  0999 V2000
   26.2107  -13.7604  -15.0585 N   0  0  0  0  0  0  0  0  0  0  0  0
   26.4030  -13.7092  -16.4779 C   0  0  0  0  0  0  0  0  0  0  0  0
   27.2001  -14.5823  -16.9130 O   0  0  0  0  0  0  0  0  0  0  0  0
   25.6987  -12.6993  -17.2729 C   0  0  0  0  0  0  0  0  0  0  0  0
   24.7782  -11.7827  -16.5803 C   0  0  0  0  0  0  0  0  0  0  0  0
   23.3178  -11.9076  -16.8600 C   0  0  2  0  0  0  0  0  0  0  0  0
   22.9981  -12.6139  -18.0703 N   0  0  0  0  0  0  0  0  0  0  0  0
   22.7557  -10.5361  -16.9767 C   0  0  0  0  0  0  0  0  0  0  0  0
   23.1413   -9.8648  -17.9782 O   0  0  0  0  0  0  0  0  0  0  0  0
   19.8300   -8.5322  -16.1663 C   0  0  0  0  0  0  0  0  0  0  0  0
   21.3236   -8.5860  -16.2894 C   0  0  2  0  0  0  0  0  0  0  0  0
   21.8552   -9.9259  -16.0977 N   0  0  0  0  0  0  0  0  0  0  0  0
   21.9626   -7.6875  -15.2819 C   0  0  0  0  0  0  0  0  0  0  0  0
   22.3281   -8.1216  -14.1567 O   0  0  0  0  0  0  0  0  0  0  0  0
   22.1654   -6.3136  -15.5925 N   0  0  0  0  0  0  0  0  0  0  0  0
   22.9187   -5.5096  -14.6621 C   0  0  0  0  0  0  0  0  0  0  0  0
   22.0295   -4.8865  -13.6421 C   0  0  0  0  0  0  0  0  0  0  0  0
   20.8043   -5.1239  -13.6940 O   0  0  0  0  0  0  0  0  0  0  0  0
   22.5092   -4.0579  -12.6434 O   0  0  0  0  0  0  0  0  0  0  0  0
  2  1  1  0
  3  2  2  0
  4  2  1  0
  5  4  1  0
  6  5  1  0
  6  7  1  6
  8  6  1  0
  8 12  1  0
  9  8  2  0
 11 10  1  1
 11 12  1  0
 11 13  1  0
 13 15  1  0
 14 13  2  0
 15 16  1  0
 16 17  1  0
 17 19  1  0
 18 17  2  0
M  END
$$$$
