QAG.pdb
     RDKit          3D

 19 18  0  0  1  0  0  0  0  0999 V2000
   14.5322  -11.5941  -14.9772 N   0  0  0  0  0  0  0  0  0  0  0  0
   14.5449  -12.6989  -14.0643 C   0  0  0  0  0  0  0  0  0  0  0  0
   14.6041  -13.8229  -14.6300 O   0  0  0  0  0  0  0  0  0  0  0  0
   14.4889  -12.4522  -12.6207 C   0  0  0  0  0  0  0  0  0  0  0  0
   14.4666  -11.0573  -12.1510 C   0  0  0  0  0  0  0  0  0  0  0  0
   14.4393  -10.8103  -10.6797 C   0  0  2  0  0  0  0  0  0  0  0  0
   13.1846  -11.1094  -10.0454 N   0  0  0  0  0  0  0  0  0  0  0  0
   14.7269   -9.3693  -10.4525 C   0  0  0  0  0  0  0  0  0  0  0  0
   13.7482   -8.5807  -10.6023 O   0  0  0  0  0  0  0  0  0  0  0  0
   16.0107   -6.9188   -8.5244 C   0  0  0  0  0  0  0  0  0  0  0  0
   16.1808   -7.3819   -9.9405 C   0  0  2  0  0  0  0  0  0  0  0  0
   15.9581   -8.8106  -10.0950 N   0  0  0  0  0  0  0  0  0  0  0  0
   17.5588   -7.0743  -10.4277 C   0  0  0  0  0  0  0  0  0  0  0  0
   18.0631   -5.9284  -10.2837 O   0  0  0  0  0  0  0  0  0  0  0  0
   18.3221   -8.0905  -11.0678 N   0  0  0  0  0  0  0  0  0  0  0  0
   19.6261   -7.7435  -11.5767 C   0  0  0  0  0  0  0  0  0  0  0  0
   19.5313   -7.1151  -12.9241 C   0  0  0  0  0  0  0  0  0  0  0  0
   18.3985   -6.9168  -13.4115 O   0  0  0  0  0  0  0  0  0  0  0  0
   20.6478   -6.7447  -13.6524 O   0  0  0  0  0  0  0  0  0  0  0  0
  2  1  1  0
  3  2  2  0
  4  2  1  0
  5  4  1  0
  6  5  1  0
  6  7  1  6
  8  6  1  0
  8 12  1  0
  9  8  2  0
 11 10  1  1
 11 12  1  0
 11 13  1  0
 13 15  1  0
 14 13  2  0
 15 16  1  0
 16 17  1  0
 17 19  1  0
 18 17  2  0
M  END
$$$$
