QAG.pdb
     RDKit          3D

 19 18  0  0  1  0  0  0  0  0999 V2000
   29.7311  -39.4174   -3.8109 N   0  0  0  0  0  0  0  0  0  0  0  0
   29.2110  -38.1814   -4.3168 C   0  0  0  0  0  0  0  0  0  0  0  0
   28.0729  -38.2895   -4.8460 O   0  0  0  0  0  0  0  0  0  0  0  0
   29.9994  -36.9525   -4.1900 C   0  0  0  0  0  0  0  0  0  0  0  0
   29.5003  -35.8915   -3.3000 C   0  0  0  0  0  0  0  0  0  0  0  0
   28.2298  -35.2019   -3.6703 C   0  0  2  0  0  0  0  0  0  0  0  0
   28.3256  -34.3486   -4.8230 N   0  0  0  0  0  0  0  0  0  0  0  0
   27.8150  -34.3583   -2.5184 C   0  0  0  0  0  0  0  0  0  0  0  0
   28.4174  -33.2513   -2.3995 O   0  0  0  0  0  0  0  0  0  0  0  0
   24.9521  -33.8223   -0.2331 C   0  0  0  0  0  0  0  0  0  0  0  0
   26.4243  -33.7577   -0.5105 C   0  0  2  0  0  0  0  0  0  0  0  0
   26.8373  -34.6673   -1.5673 N   0  0  0  0  0  0  0  0  0  0  0  0
   27.2021  -34.0953    0.7191 C   0  0  0  0  0  0  0  0  0  0  0  0
   27.0292  -33.4646    1.7964 O   0  0  0  0  0  0  0  0  0  0  0  0
   28.1583  -35.1484    0.6799 N   0  0  0  0  0  0  0  0  0  0  0  0
   28.8376  -35.4967    1.9034 C   0  0  0  0  0  0  0  0  0  0  0  0
   29.7802  -36.6313    1.6947 C   0  0  0  0  0  0  0  0  0  0  0  0
   30.4808  -37.0095    2.6572 O   0  0  0  0  0  0  0  0  0  0  0  0
   29.9076  -37.2788    0.4787 O   0  0  0  0  0  0  0  0  0  0  0  0
  2  1  1  0
  3  2  2  0
  4  2  1  0
  5  4  1  0
  6  5  1  0
  6  7  1  6
  8  6  1  0
  8 12  1  0
  9  8  2  0
 11 10  1  1
 11 12  1  0
 11 13  1  0
 13 15  1  0
 14 13  2  0
 15 16  1  0
 16 17  1  0
 17 19  1  0
 18 17  2  0
M  END
$$$$
