KVC.pdb
     RDKit          3D

 23 22  0  0  1  0  0  0  0  0999 V2000
   21.2044  -27.9860  -11.4055 N   0  0  0  0  0  0  0  0  0  0  0  0
   19.8982  -28.0590  -10.8043 C   0  0  1  0  0  0  0  0  0  0  0  0
   19.5995  -29.4406  -10.3005 C   0  0  0  0  0  0  0  0  0  0  0  0
   19.7021  -30.4425  -11.4066 C   0  0  0  0  0  0  0  0  0  0  0  0
   20.7116  -31.5359  -11.1582 C   0  0  0  0  0  0  0  0  0  0  0  0
   20.6752  -32.4443  -12.3891 C   0  0  0  0  0  0  0  0  0  0  0  0
   21.7208  -33.4474  -12.1974 N   0  0  0  0  0  0  0  0  0  0  0  0
   19.7155  -27.0326   -9.7404 C   0  0  0  0  0  0  0  0  0  0  0  0
   20.7332  -26.3708   -9.4169 O   0  0  0  0  0  0  0  0  0  0  0  0
   18.5888  -24.1478  -10.3460 C   0  0  0  0  0  0  0  0  0  0  0  0
   17.6916  -24.4941   -9.2234 C   0  0  2  0  0  0  0  0  0  0  0  0
   17.2877  -23.2316   -8.4925 C   0  0  0  0  0  0  0  0  0  0  0  0
   18.2900  -25.5212   -8.3156 C   0  0  2  0  0  0  0  0  0  0  0  0
   18.5085  -26.7702   -9.0981 N   0  0  0  0  0  0  0  0  0  0  0  0
   17.4570  -25.8850   -7.1448 C   0  0  0  0  0  0  0  0  0  0  0  0
   16.4021  -26.6106   -7.3048 O   0  0  0  0  0  0  0  0  0  0  0  0
   17.7017  -25.5140   -5.8172 N   0  0  0  0  0  0  0  0  0  0  0  0
   16.8827  -25.9518   -4.6987 C   0  0  1  0  0  0  0  0  0  0  0  0
   17.7102  -25.6269   -3.4454 C   0  0  0  0  0  0  0  0  0  0  0  0
   19.2818  -26.4902   -3.4442 S   0  0  0  0  0  0  0  0  0  0  0  0
   15.6855  -25.0991   -4.6323 C   0  0  0  0  0  0  0  0  0  0  0  0
   15.6371  -23.9367   -5.1360 O   0  0  0  0  0  0  0  0  0  0  0  0
   14.5461  -25.5461   -4.0044 O   0  0  0  0  0  0  0  0  0  0  0  0
  2  1  1  1
  2  3  1  0
  3  4  1  0
  4  5  1  0
  5  6  1  0
  6  7  1  0
  8  2  1  0
  8 14  1  0
  9  8  2  0
 11 10  1  6
 11 13  1  0
 11 12  1  0
 13 14  1  6
 15 17  1  0
 15 13  1  0
 16 15  2  0
 18 17  1  0
 18 21  1  0
 18 19  1  1
 20 19  1  0
 21 23  1  0
 22 21  2  0
M  END
$$$$
