KVC.pdb
     RDKit          3D

 23 22  0  0  1  0  0  0  0  0999 V2000
   19.5111  -17.1588  -15.2063 N   0  0  0  0  0  0  0  0  0  0  0  0
   19.5082  -15.9397  -15.9722 C   0  0  1  0  0  0  0  0  0  0  0  0
   18.1405  -15.3244  -16.0241 C   0  0  0  0  0  0  0  0  0  0  0  0
   17.0862  -16.3815  -16.1170 C   0  0  0  0  0  0  0  0  0  0  0  0
   15.6803  -15.8443  -16.2238 C   0  0  0  0  0  0  0  0  0  0  0  0
   14.7551  -17.0624  -16.2654 C   0  0  0  0  0  0  0  0  0  0  0  0
   14.4179  -17.3768  -14.8785 N   0  0  0  0  0  0  0  0  0  0  0  0
   20.5302  -14.9719  -15.4847 C   0  0  0  0  0  0  0  0  0  0  0  0
   20.5092  -14.7026  -14.2577 O   0  0  0  0  0  0  0  0  0  0  0  0
   24.2893  -15.0981  -16.0135 C   0  0  0  0  0  0  0  0  0  0  0  0
   23.8246  -13.7365  -16.3531 C   0  0  2  0  0  0  0  0  0  0  0  0
   24.8950  -12.7316  -15.9849 C   0  0  0  0  0  0  0  0  0  0  0  0
   22.4986  -13.4202  -15.7377 C   0  0  2  0  0  0  0  0  0  0  0  0
   21.4860  -14.3620  -16.2925 N   0  0  0  0  0  0  0  0  0  0  0  0
   21.9992  -12.0484  -15.9944 C   0  0  0  0  0  0  0  0  0  0  0  0
   22.6492  -11.0304  -15.5405 O   0  0  0  0  0  0  0  0  0  0  0  0
   20.8451  -11.7172  -16.7144 N   0  0  0  0  0  0  0  0  0  0  0  0
   20.4124  -10.3495  -16.9500 C   0  0  1  0  0  0  0  0  0  0  0  0
   19.2554  -10.4632  -17.9547 C   0  0  0  0  0  0  0  0  0  0  0  0
   18.3810   -8.9088  -18.1403 S   0  0  0  0  0  0  0  0  0  0  0  0
   19.8266   -9.8224  -15.7075 C   0  0  0  0  0  0  0  0  0  0  0  0
   19.1523  -10.5360  -14.9054 O   0  0  0  0  0  0  0  0  0  0  0  0
   19.9950   -8.5011  -15.3639 O   0  0  0  0  0  0  0  0  0  0  0  0
  2  1  1  1
  2  3  1  0
  3  4  1  0
  4  5  1  0
  5  6  1  0
  6  7  1  0
  8  2  1  0
  8 14  1  0
  9  8  2  0
 11 10  1  1
 11 13  1  0
 11 12  1  0
 13 14  1  6
 15 17  1  0
 15 13  1  0
 16 15  2  0
 18 17  1  0
 18 21  1  0
 18 19  1  6
 20 19  1  0
 21 23  1  0
 22 21  2  0
M  END
$$$$
