KVC.pdb
     RDKit          3D

 23 22  0  0  1  0  0  0  0  0999 V2000
   27.6463  -22.2625  -16.3691 N   0  0  0  0  0  0  0  0  0  0  0  0
   27.1264  -21.0972  -15.7024 C   0  0  1  0  0  0  0  0  0  0  0  0
   26.4348  -20.1748  -16.6632 C   0  0  0  0  0  0  0  0  0  0  0  0
   27.3549  -19.7793  -17.7744 C   0  0  0  0  0  0  0  0  0  0  0  0
   28.5420  -18.9602  -17.3316 C   0  0  0  0  0  0  0  0  0  0  0  0
   29.3028  -18.5805  -18.6039 C   0  0  0  0  0  0  0  0  0  0  0  0
   30.5313  -17.9169  -18.1722 N   0  0  0  0  0  0  0  0  0  0  0  0
   26.2482  -21.4566  -14.5541 C   0  0  0  0  0  0  0  0  0  0  0  0
   25.5185  -22.4689  -14.6997 O   0  0  0  0  0  0  0  0  0  0  0  0
   27.0220  -21.3660  -10.6350 C   0  0  0  0  0  0  0  0  0  0  0  0
   25.7699  -20.6565  -10.9726 C   0  0  2  0  0  0  0  0  0  0  0  0
   24.7818  -20.8082   -9.8359 C   0  0  0  0  0  0  0  0  0  0  0  0
   25.2084  -21.0926  -12.2886 C   0  0  2  0  0  0  0  0  0  0  0  0
   26.1908  -20.7509  -13.3554 N   0  0  0  0  0  0  0  0  0  0  0  0
   23.9236  -20.4561  -12.6642 C   0  0  0  0  0  0  0  0  0  0  0  0
   23.8754  -19.1869  -12.8918 O   0  0  0  0  0  0  0  0  0  0  0  0
   22.6955  -21.1120  -12.8113 N   0  0  0  0  0  0  0  0  0  0  0  0
   21.4593  -20.4302  -13.1583 C   0  0  1  0  0  0  0  0  0  0  0  0
   21.1383  -20.8876  -14.5897 C   0  0  0  0  0  0  0  0  0  0  0  0
   21.1757  -22.6739  -14.7409 S   0  0  0  0  0  0  0  0  0  0  0  0
   20.3797  -20.9554  -12.3079 C   0  0  0  0  0  0  0  0  0  0  0  0
   19.2080  -20.4713  -12.3021 O   0  0  0  0  0  0  0  0  0  0  0  0
   20.6107  -22.0190  -11.4666 O   0  0  0  0  0  0  0  0  0  0  0  0
  2  1  1  6
  2  3  1  0
  3  4  1  0
  4  5  1  0
  5  6  1  0
  6  7  1  0
  8  2  1  0
  8 14  1  0
  9  8  2  0
 11 10  1  1
 11 13  1  0
 11 12  1  0
 13 14  1  6
 15 17  1  0
 15 13  1  0
 16 15  2  0
 18 17  1  0
 18 21  1  0
 18 19  1  6
 20 19  1  0
 21 23  1  0
 22 21  2  0
M  END
$$$$
