KVC.pdb
     RDKit          3D

 23 22  0  0  1  0  0  0  0  0999 V2000
   21.6278  -16.7339  -15.3837 N   0  0  0  0  0  0  0  0  0  0  0  0
   21.5541  -15.5252  -16.1625 C   0  0  1  0  0  0  0  0  0  0  0  0
   20.1412  -15.2085  -16.5564 C   0  0  0  0  0  0  0  0  0  0  0  0
   19.5861  -16.2760  -17.4453 C   0  0  0  0  0  0  0  0  0  0  0  0
   18.8347  -17.3605  -16.7132 C   0  0  0  0  0  0  0  0  0  0  0  0
   18.2363  -18.2711  -17.7876 C   0  0  0  0  0  0  0  0  0  0  0  0
   17.5767  -19.3687  -17.0830 N   0  0  0  0  0  0  0  0  0  0  0  0
   22.2050  -14.3765  -15.4729 C   0  0  0  0  0  0  0  0  0  0  0  0
   21.9466  -14.2341  -14.2517 O   0  0  0  0  0  0  0  0  0  0  0  0
   25.7944  -13.4504  -14.9704 C   0  0  0  0  0  0  0  0  0  0  0  0
   25.1171  -12.2900  -15.5867 C   0  0  2  0  0  0  0  0  0  0  0  0
   25.7679  -11.0113  -15.1041 C   0  0  0  0  0  0  0  0  0  0  0  0
   23.6392  -12.3086  -15.3573 C   0  0  2  0  0  0  0  0  0  0  0  0
   23.0643  -13.4715  -16.0902 N   0  0  0  0  0  0  0  0  0  0  0  0
   22.9165  -11.1023  -15.8259 C   0  0  0  0  0  0  0  0  0  0  0  0
   22.7699  -10.8893  -17.0901 O   0  0  0  0  0  0  0  0  0  0  0  0
   22.3426  -10.1210  -15.0088 N   0  0  0  0  0  0  0  0  0  0  0  0
   21.7005   -8.9233  -15.5250 C   0  0  1  0  0  0  0  0  0  0  0  0
   20.2135   -9.2895  -15.6519 C   0  0  0  0  0  0  0  0  0  0  0  0
   19.1897   -7.8375  -15.8940 S   0  0  0  0  0  0  0  0  0  0  0  0
   21.7778   -7.8709  -14.4998 C   0  0  0  0  0  0  0  0  0  0  0  0
   21.8577   -8.1201  -13.2593 O   0  0  0  0  0  0  0  0  0  0  0  0
   21.7660   -6.5438  -14.8617 O   0  0  0  0  0  0  0  0  0  0  0  0
  2  1  1  1
  2  3  1  0
  3  4  1  0
  4  5  1  0
  5  6  1  0
  6  7  1  0
  8  2  1  0
  8 14  1  0
  9  8  2  0
 11 10  1  1
 11 13  1  0
 11 12  1  0
 13 14  1  6
 15 17  1  0
 15 13  1  0
 16 15  2  0
 18 17  1  0
 18 21  1  0
 18 19  1  1
 20 19  1  0
 21 23  1  0
 22 21  2  0
M  END
$$$$
