KVC.pdb
     RDKit          3D

 23 22  0  0  1  0  0  0  0  0999 V2000
   28.5095  -21.4748  -15.4803 N   0  0  0  0  0  0  0  0  0  0  0  0
   27.6034  -20.4441  -15.0447 C   0  0  1  0  0  0  0  0  0  0  0  0
   27.0152  -19.6996  -16.2072 C   0  0  0  0  0  0  0  0  0  0  0  0
   27.9323  -18.6064  -16.6561 C   0  0  0  0  0  0  0  0  0  0  0  0
   28.6019  -18.8675  -17.9827 C   0  0  0  0  0  0  0  0  0  0  0  0
   29.4813  -17.6484  -18.2693 C   0  0  0  0  0  0  0  0  0  0  0  0
   30.2680  -17.9725  -19.4576 N   0  0  0  0  0  0  0  0  0  0  0  0
   26.5471  -20.9760  -14.1390 C   0  0  0  0  0  0  0  0  0  0  0  0
   26.0951  -22.1162  -14.4112 O   0  0  0  0  0  0  0  0  0  0  0  0
   26.7212  -20.9812  -10.2691 C   0  0  0  0  0  0  0  0  0  0  0  0
   25.3956  -20.4960  -10.7080 C   0  0  2  0  0  0  0  0  0  0  0  0
   24.3460  -20.9165   -9.7016 C   0  0  0  0  0  0  0  0  0  0  0  0
   25.0665  -20.9288  -12.1014 C   0  0  2  0  0  0  0  0  0  0  0  0
   26.0431  -20.2973  -13.0328 N   0  0  0  0  0  0  0  0  0  0  0  0
   23.7131  -20.5502  -12.5725 C   0  0  0  0  0  0  0  0  0  0  0  0
   23.4660  -19.3293  -12.9094 O   0  0  0  0  0  0  0  0  0  0  0  0
   22.6189  -21.4137  -12.7034 N   0  0  0  0  0  0  0  0  0  0  0  0
   21.2866  -20.9682  -13.0773 C   0  0  1  0  0  0  0  0  0  0  0  0
   21.0230  -21.6037  -14.4513 C   0  0  0  0  0  0  0  0  0  0  0  0
   19.3004  -21.4639  -14.9289 S   0  0  0  0  0  0  0  0  0  0  0  0
   20.3140  -21.5715  -12.1528 C   0  0  0  0  0  0  0  0  0  0  0  0
   20.4532  -22.7339  -11.6663 O   0  0  0  0  0  0  0  0  0  0  0  0
   19.1892  -20.8760  -11.7740 O   0  0  0  0  0  0  0  0  0  0  0  0
  2  1  1  6
  2  3  1  0
  3  4  1  0
  4  5  1  0
  5  6  1  0
  6  7  1  0
  8  2  1  0
  8 14  1  0
  9  8  2  0
 11 10  1  1
 11 13  1  0
 11 12  1  0
 13 14  1  6
 15 17  1  0
 15 13  1  0
 16 15  2  0
 18 17  1  0
 18 21  1  0
 18 19  1  6
 20 19  1  0
 21 23  1  0
 22 21  2  0
M  END
$$$$
