KVC.pdb
     RDKit          3D

 23 22  0  0  1  0  0  0  0  0999 V2000
   27.5132  -23.2128  -17.8018 N   0  0  0  0  0  0  0  0  0  0  0  0
   28.7113  -22.8255  -17.1037 C   0  0  1  0  0  0  0  0  0  0  0  0
   29.7786  -22.3659  -18.0532 C   0  0  0  0  0  0  0  0  0  0  0  0
   29.1826  -21.5964  -19.1892 C   0  0  0  0  0  0  0  0  0  0  0  0
   30.1668  -20.7230  -19.9274 C   0  0  0  0  0  0  0  0  0  0  0  0
   29.8694  -19.2834  -19.5022 C   0  0  0  0  0  0  0  0  0  0  0  0
   30.7592  -18.4263  -20.2831 N   0  0  0  0  0  0  0  0  0  0  0  0
   28.4386  -21.8110  -16.0477 C   0  0  0  0  0  0  0  0  0  0  0  0
   29.4370  -21.3483  -15.4413 O   0  0  0  0  0  0  0  0  0  0  0  0
   27.6195  -18.5289  -16.3666 C   0  0  0  0  0  0  0  0  0  0  0  0
   26.5549  -19.0252  -15.4692 C   0  0  2  0  0  0  0  0  0  0  0  0
   26.1042  -17.9067  -14.5543 C   0  0  0  0  0  0  0  0  0  0  0  0
   26.9704  -20.2519  -14.7210 C   0  0  2  0  0  0  0  0  0  0  0  0
   27.1692  -21.3560  -15.7015 N   0  0  0  0  0  0  0  0  0  0  0  0
   25.9926  -20.7359  -13.7176 C   0  0  0  0  0  0  0  0  0  0  0  0
   25.0102  -21.4873  -14.0853 O   0  0  0  0  0  0  0  0  0  0  0  0
   26.0199  -20.4583  -12.3457 N   0  0  0  0  0  0  0  0  0  0  0  0
   25.0616  -21.0040  -11.3984 C   0  0  1  0  0  0  0  0  0  0  0  0
   25.5569  -20.5444  -10.0184 C   0  0  0  0  0  0  0  0  0  0  0  0
   27.2241  -21.1149   -9.6866 S   0  0  0  0  0  0  0  0  0  0  0  0
   23.7646  -20.3425  -11.6101 C   0  0  0  0  0  0  0  0  0  0  0  0
   23.6325  -19.2865  -12.2991 O   0  0  0  0  0  0  0  0  0  0  0  0
   22.6190  -20.8612  -11.0524 O   0  0  0  0  0  0  0  0  0  0  0  0
  2  1  1  6
  2  3  1  0
  3  4  1  0
  4  5  1  0
  5  6  1  0
  6  7  1  0
  8  2  1  0
  8 14  1  0
  9  8  2  0
 11 10  1  1
 11 13  1  0
 11 12  1  0
 13 14  1  6
 15 17  1  0
 15 13  1  0
 16 15  2  0
 18 17  1  0
 18 21  1  0
 18 19  1  1
 20 19  1  0
 21 23  1  0
 22 21  2  0
M  END
$$$$
