KVC.pdb
     RDKit          3D

 23 22  0  0  1  0  0  0  0  0999 V2000
   19.5129  -13.3766  -16.9980 N   0  0  0  0  0  0  0  0  0  0  0  0
   19.7400  -11.9857  -17.2924 C   0  0  1  0  0  0  0  0  0  0  0  0
   18.4815  -11.3052  -17.7450 C   0  0  0  0  0  0  0  0  0  0  0  0
   17.7621  -12.1390  -18.7575 C   0  0  0  0  0  0  0  0  0  0  0  0
   16.4347  -11.5708  -19.1950 C   0  0  0  0  0  0  0  0  0  0  0  0
   15.8464  -12.5694  -20.1942 C   0  0  0  0  0  0  0  0  0  0  0  0
   16.5916  -12.4000  -21.4400 N   0  0  0  0  0  0  0  0  0  0  0  0
   20.3737  -11.2697  -16.1501 C   0  0  0  0  0  0  0  0  0  0  0  0
   19.8962  -11.4959  -15.0103 O   0  0  0  0  0  0  0  0  0  0  0  0
   24.2758   -9.9677  -15.9109 C   0  0  0  0  0  0  0  0  0  0  0  0
   23.3362  -10.1396  -14.7828 C   0  0  2  0  0  0  0  0  0  0  0  0
   23.3297  -11.5895  -14.3480 C   0  0  0  0  0  0  0  0  0  0  0  0
   21.9682   -9.6255  -15.1011 C   0  0  2  0  0  0  0  0  0  0  0  0
   21.4412  -10.3840  -16.2702 N   0  0  0  0  0  0  0  0  0  0  0  0
   21.9052   -8.1875  -15.4551 C   0  0  0  0  0  0  0  0  0  0  0  0
   22.3139   -7.7902  -16.6127 O   0  0  0  0  0  0  0  0  0  0  0  0
   21.4236   -7.1611  -14.6338 N   0  0  0  0  0  0  0  0  0  0  0  0
   21.4531   -5.7562  -15.0062 C   0  0  1  0  0  0  0  0  0  0  0  0
   19.9833   -5.3725  -15.2379 C   0  0  0  0  0  0  0  0  0  0  0  0
   18.9285   -5.9473  -13.9067 S   0  0  0  0  0  0  0  0  0  0  0  0
   21.9035   -4.9728  -13.8450 C   0  0  0  0  0  0  0  0  0  0  0  0
   22.0207   -3.7107  -13.8672 O   0  0  0  0  0  0  0  0  0  0  0  0
   22.2215   -5.6002  -12.6628 O   0  0  0  0  0  0  0  0  0  0  0  0
  2  1  1  1
  2  3  1  0
  3  4  1  0
  4  5  1  0
  5  6  1  0
  6  7  1  0
  8  2  1  0
  8 14  1  0
  9  8  2  0
 11 10  1  6
 11 13  1  0
 11 12  1  0
 13 14  1  6
 15 17  1  0
 15 13  1  0
 16 15  2  0
 18 17  1  0
 18 21  1  0
 18 19  1  1
 20 19  1  0
 21 23  1  0
 22 21  2  0
M  END
$$$$
