KVC.pdb
     RDKit          3D

 23 22  0  0  1  0  0  0  0  0999 V2000
   15.7837  -10.8043  -17.6065 N   0  0  0  0  0  0  0  0  0  0  0  0
   15.7328   -9.5708  -16.8657 C   0  0  1  0  0  0  0  0  0  0  0  0
   15.4172   -9.8096  -15.4182 C   0  0  0  0  0  0  0  0  0  0  0  0
   14.0414  -10.3757  -15.2615 C   0  0  0  0  0  0  0  0  0  0  0  0
   13.5665  -10.4583  -13.8317 C   0  0  0  0  0  0  0  0  0  0  0  0
   12.1101  -10.9247  -13.8873 C   0  0  0  0  0  0  0  0  0  0  0  0
   11.6097  -10.8919  -12.5144 N   0  0  0  0  0  0  0  0  0  0  0  0
   16.9757   -8.7673  -17.0337 C   0  0  0  0  0  0  0  0  0  0  0  0
   18.0073   -9.3937  -17.3830 O   0  0  0  0  0  0  0  0  0  0  0  0
   17.7607   -5.8738  -19.3354 C   0  0  0  0  0  0  0  0  0  0  0  0
   18.0260   -5.4690  -17.9386 C   0  0  2  0  0  0  0  0  0  0  0  0
   19.1217   -4.4249  -17.9154 C   0  0  0  0  0  0  0  0  0  0  0  0
   18.3240   -6.6394  -17.0562 C   0  0  2  0  0  0  0  0  0  0  0  0
   17.0584   -7.3924  -16.8305 N   0  0  0  0  0  0  0  0  0  0  0  0
   18.8663   -6.2956  -15.7203 C   0  0  0  0  0  0  0  0  0  0  0  0
   18.1524   -5.6112  -14.8915 O   0  0  0  0  0  0  0  0  0  0  0  0
   20.1287   -6.6521  -15.2311 N   0  0  0  0  0  0  0  0  0  0  0  0
   20.6457   -6.2070  -13.9473 C   0  0  1  0  0  0  0  0  0  0  0  0
   21.3023   -7.4503  -13.3275 C   0  0  0  0  0  0  0  0  0  0  0  0
   22.0467   -7.0861  -11.7375 S   0  0  0  0  0  0  0  0  0  0  0  0
   21.7331   -5.2455  -14.1877 C   0  0  0  0  0  0  0  0  0  0  0  0
   22.5066   -5.3145  -15.1899 O   0  0  0  0  0  0  0  0  0  0  0  0
   21.9541   -4.2101  -13.3094 O   0  0  0  0  0  0  0  0  0  0  0  0
  2  1  1  6
  2  3  1  0
  3  4  1  0
  4  5  1  0
  5  6  1  0
  6  7  1  0
  8  2  1  0
  8 14  1  0
  9  8  2  0
 11 10  1  6
 11 13  1  0
 11 12  1  0
 13 14  1  1
 15 17  1  0
 15 13  1  0
 16 15  2  0
 18 17  1  0
 18 21  1  0
 18 19  1  6
 20 19  1  0
 21 23  1  0
 22 21  2  0
M  END
$$$$
