KVC.pdb
     RDKit          3D

 23 22  0  0  1  0  0  0  0  0999 V2000
   27.7950  -21.3587  -16.4081 N   0  0  0  0  0  0  0  0  0  0  0  0
   27.1165  -20.3177  -15.6809 C   0  0  1  0  0  0  0  0  0  0  0  0
   26.4063  -19.3724  -16.6051 C   0  0  0  0  0  0  0  0  0  0  0  0
   27.3755  -18.4341  -17.2517 C   0  0  0  0  0  0  0  0  0  0  0  0
   28.7061  -19.0585  -17.5925 C   0  0  0  0  0  0  0  0  0  0  0  0
   29.5194  -17.9772  -18.3073 C   0  0  0  0  0  0  0  0  0  0  0  0
   30.8218  -18.5674  -18.6097 N   0  0  0  0  0  0  0  0  0  0  0  0
   26.1996  -20.8679  -14.6439 C   0  0  0  0  0  0  0  0  0  0  0  0
   25.6245  -21.9505  -14.9192 O   0  0  0  0  0  0  0  0  0  0  0  0
   26.8941  -21.1355  -10.7871 C   0  0  0  0  0  0  0  0  0  0  0  0
   25.5607  -20.5502  -11.0412 C   0  0  2  0  0  0  0  0  0  0  0  0
   24.6097  -20.9640   -9.9385 C   0  0  0  0  0  0  0  0  0  0  0  0
   25.0452  -20.8850  -12.4048 C   0  0  2  0  0  0  0  0  0  0  0  0
   25.9489  -20.2650  -13.4143 N   0  0  0  0  0  0  0  0  0  0  0  0
   23.6754  -20.3985  -12.6944 C   0  0  0  0  0  0  0  0  0  0  0  0
   23.4475  -19.1318  -12.7871 O   0  0  0  0  0  0  0  0  0  0  0  0
   22.5451  -21.2004  -12.8928 N   0  0  0  0  0  0  0  0  0  0  0  0
   21.2170  -20.6654  -13.1446 C   0  0  1  0  0  0  0  0  0  0  0  0
   20.6357  -21.5465  -14.2611 C   0  0  0  0  0  0  0  0  0  0  0  0
   18.8906  -21.2261  -14.5203 S   0  0  0  0  0  0  0  0  0  0  0  0
   20.3824  -20.9045  -11.9567 C   0  0  0  0  0  0  0  0  0  0  0  0
   20.4826  -21.9460  -11.2409 O   0  0  0  0  0  0  0  0  0  0  0  0
   19.4388  -19.9807  -11.5712 O   0  0  0  0  0  0  0  0  0  0  0  0
  2  1  1  6
  2  3  1  0
  3  4  1  0
  4  5  1  0
  5  6  1  0
  6  7  1  0
  8  2  1  0
  8 14  1  0
  9  8  2  0
 11 10  1  1
 11 13  1  0
 11 12  1  0
 13 14  1  6
 15 17  1  0
 15 13  1  0
 16 15  2  0
 18 17  1  0
 18 21  1  0
 18 19  1  6
 20 19  1  0
 21 23  1  0
 22 21  2  0
M  END
$$$$
