KVC.pdb
     RDKit          3D

 23 22  0  0  1  0  0  0  0  0999 V2000
   19.4595  -14.9318  -15.8327 N   0  0  0  0  0  0  0  0  0  0  0  0
   19.4384  -13.7197  -16.6094 C   0  0  1  0  0  0  0  0  0  0  0  0
   18.0781  -13.4583  -17.1868 C   0  0  0  0  0  0  0  0  0  0  0  0
   17.7087  -14.5185  -18.1754 C   0  0  0  0  0  0  0  0  0  0  0  0
   18.5920  -14.5580  -19.3979 C   0  0  0  0  0  0  0  0  0  0  0  0
   17.9917  -15.6128  -20.3299 C   0  0  0  0  0  0  0  0  0  0  0  0
   18.8664  -15.6820  -21.4987 N   0  0  0  0  0  0  0  0  0  0  0  0
   19.9422  -12.5515  -15.8344 C   0  0  0  0  0  0  0  0  0  0  0  0
   19.5211  -12.4344  -14.6565 O   0  0  0  0  0  0  0  0  0  0  0  0
   23.4852  -10.4418  -16.6736 C   0  0  0  0  0  0  0  0  0  0  0  0
   22.8024  -10.5718  -15.3690 C   0  0  2  0  0  0  0  0  0  0  0  0
   23.2437  -11.8527  -14.6940 C   0  0  0  0  0  0  0  0  0  0  0  0
   21.3156  -10.4672  -15.4944 C   0  0  2  0  0  0  0  0  0  0  0  0
   20.8331  -11.6030  -16.3293 N   0  0  0  0  0  0  0  0  0  0  0  0
   20.8262   -9.2226  -16.1337 C   0  0  0  0  0  0  0  0  0  0  0  0
   20.7878   -9.1309  -17.4202 O   0  0  0  0  0  0  0  0  0  0  0  0
   20.3741   -8.0795  -15.4636 N   0  0  0  0  0  0  0  0  0  0  0  0
   19.9372   -6.8717  -16.1445 C   0  0  1  0  0  0  0  0  0  0  0  0
   18.5175   -6.6075  -15.6194 C   0  0  0  0  0  0  0  0  0  0  0  0
   17.9573   -4.9523  -16.0215 S   0  0  0  0  0  0  0  0  0  0  0  0
   20.7629   -5.7464  -15.6789 C   0  0  0  0  0  0  0  0  0  0  0  0
   21.4339   -5.7810  -14.6039 O   0  0  0  0  0  0  0  0  0  0  0  0
   20.8374   -4.5862  -16.4144 O   0  0  0  0  0  0  0  0  0  0  0  0
  2  1  1  1
  2  3  1  0
  3  4  1  0
  4  5  1  0
  5  6  1  0
  6  7  1  0
  8  2  1  0
  8 14  1  0
  9  8  2  0
 11 10  1  6
 11 13  1  0
 11 12  1  0
 13 14  1  6
 15 17  1  0
 15 13  1  0
 16 15  2  0
 18 17  1  0
 18 21  1  0
 18 19  1  1
 20 19  1  0
 21 23  1  0
 22 21  2  0
M  END
$$$$
