KVC.pdb
     RDKit          3D

 23 22  0  0  1  0  0  0  0  0999 V2000
   19.7326  -20.8870  -11.2667 N   0  0  0  0  0  0  0  0  0  0  0  0
   20.4666  -21.5290  -12.3259 C   0  0  1  0  0  0  0  0  0  0  0  0
   19.6218  -21.7064  -13.5533 C   0  0  0  0  0  0  0  0  0  0  0  0
   19.1585  -23.1232  -13.6784 C   0  0  0  0  0  0  0  0  0  0  0  0
   17.9883  -23.4711  -12.7917 C   0  0  0  0  0  0  0  0  0  0  0  0
   17.6244  -24.9234  -13.1079 C   0  0  0  0  0  0  0  0  0  0  0  0
   16.4830  -25.2608  -12.2597 N   0  0  0  0  0  0  0  0  0  0  0  0
   21.7407  -20.8202  -12.6312 C   0  0  0  0  0  0  0  0  0  0  0  0
   21.7158  -19.5658  -12.5657 O   0  0  0  0  0  0  0  0  0  0  0  0
   25.3246  -21.5962  -11.2946 C   0  0  0  0  0  0  0  0  0  0  0  0
   25.3434  -21.4602  -12.7664 C   0  0  2  0  0  0  0  0  0  0  0  0
   26.6688  -20.8728  -13.2019 C   0  0  0  0  0  0  0  0  0  0  0  0
   24.1714  -20.6852  -13.2791 C   0  0  2  0  0  0  0  0  0  0  0  0
   22.9312  -21.4537  -12.9772 N   0  0  0  0  0  0  0  0  0  0  0  0
   24.1777  -20.4313  -14.7394 C   0  0  0  0  0  0  0  0  0  0  0  0
   23.9695  -21.4022  -15.5633 O   0  0  0  0  0  0  0  0  0  0  0  0
   24.3909  -19.1923  -15.3555 N   0  0  0  0  0  0  0  0  0  0  0  0
   24.4140  -19.0075  -16.7972 C   0  0  1  0  0  0  0  0  0  0  0  0
   23.3078  -17.9811  -17.0869 C   0  0  0  0  0  0  0  0  0  0  0  0
   23.3437  -17.4287  -18.7924 S   0  0  0  0  0  0  0  0  0  0  0  0
   25.6821  -18.3593  -17.1665 C   0  0  0  0  0  0  0  0  0  0  0  0
   26.2412  -17.4769  -16.4482 O   0  0  0  0  0  0  0  0  0  0  0  0
   26.3225  -18.6978  -18.3360 O   0  0  0  0  0  0  0  0  0  0  0  0
  2  1  1  1
  2  3  1  0
  3  4  1  0
  4  5  1  0
  5  6  1  0
  6  7  1  0
  8  2  1  0
  8 14  1  0
  9  8  2  0
 11 10  1  1
 11 13  1  0
 11 12  1  0
 13 14  1  6
 15 17  1  0
 15 13  1  0
 16 15  2  0
 18 17  1  0
 18 21  1  0
 18 19  1  1
 20 19  1  0
 21 23  1  0
 22 21  2  0
M  END
$$$$
