WMQ.pdb
     RDKit          3D

 32 33  0  0  1  0  0  0  0  0999 V2000
   25.2616  -21.8286  -13.1365 N   0  0  0  0  0  0  0  0  0  0  0  0
   24.7605  -20.4997  -12.9590 C   0  0  1  0  0  0  0  0  0  0  0  0
   25.4016  -19.7172  -11.8576 C   0  0  0  0  0  0  0  0  0  0  0  0
   25.1878  -20.2993  -10.5200 C   0  0  0  0  0  0  0  0  0  0  0  0
   26.1689  -20.5296   -9.5969 C   0  0  0  0  0  0  0  0  0  0  0  0
   25.5770  -21.0414   -8.5108 N   0  0  0  0  0  0  0  0  0  0  0  0
   24.2530  -21.1442   -8.7135 C   0  0  0  0  0  0  0  0  0  0  0  0
   23.2200  -21.5993   -7.9369 C   0  0  0  0  0  0  0  0  0  0  0  0
   21.9153  -21.6103   -8.3787 C   0  0  0  0  0  0  0  0  0  0  0  0
   21.6477  -21.1452   -9.6494 C   0  0  0  0  0  0  0  0  0  0  0  0
   22.6772  -20.6838  -10.4427 C   0  0  0  0  0  0  0  0  0  0  0  0
   23.9838  -20.6775   -9.9863 C   0  0  0  0  0  0  0  0  0  0  0  0
   24.9854  -19.7415  -14.2390 C   0  0  0  0  0  0  0  0  0  0  0  0
   24.5776  -18.5578  -14.3467 O   0  0  0  0  0  0  0  0  0  0  0  0
   28.3796  -16.2642  -18.8993 C   0  0  0  0  0  0  0  0  0  0  0  0
   28.8708  -17.7643  -17.9685 S   0  0  0  0  0  0  0  0  0  0  0  0
   27.6130  -19.0162  -18.2627 C   0  0  0  0  0  0  0  0  0  0  0  0
   27.2381  -19.7784  -17.0400 C   0  0  0  0  0  0  0  0  0  0  0  0
   25.8195  -19.5317  -16.5605 C   0  0  2  0  0  0  0  0  0  0  0  0
   25.6472  -20.3078  -15.3482 N   0  0  0  0  0  0  0  0  0  0  0  0
   24.8363  -19.9625  -17.5976 C   0  0  0  0  0  0  0  0  0  0  0  0
   24.7130  -21.1597  -17.9446 O   0  0  0  0  0  0  0  0  0  0  0  0
   20.0219  -16.0582  -17.2042 N   0  0  0  0  0  0  0  0  0  0  0  0
   21.2096  -16.7440  -17.5408 C   0  0  0  0  0  0  0  0  0  0  0  0
   22.2934  -16.1643  -17.3533 O   0  0  0  0  0  0  0  0  0  0  0  0
   21.1513  -18.1025  -18.0966 C   0  0  0  0  0  0  0  0  0  0  0  0
   21.9696  -18.3186  -19.3251 C   0  0  0  0  0  0  0  0  0  0  0  0
   22.9842  -19.4130  -19.2416 C   0  0  2  0  0  0  0  0  0  0  0  0
   23.9820  -19.0232  -18.2479 N   0  0  0  0  0  0  0  0  0  0  0  0
   23.6017  -19.7485  -20.5271 C   0  0  0  0  0  0  0  0  0  0  0  0
   22.8734  -20.4587  -21.4909 O   0  0  0  0  0  0  0  0  0  0  0  0
   24.7747  -19.4385  -20.8452 O   0  0  0  0  0  0  0  0  0  0  0  0
  2  1  1  6
  2 13  1  0
  2  3  1  0
  4  5  2  0
  4  3  1  0
  6  5  1  0
  7 12  2  0
  7  6  1  0
  8  7  1  0
  9  8  2  0
  9 10  1  0
 10 11  2  0
 11 12  1  0
 12  4  1  0
 13 14  2  0
 16 15  1  0
 17 18  1  0
 17 16  1  0
 19 18  1  6
 19 21  1  0
 20 19  1  0
 20 13  1  0
 21 22  2  0
 23 24  1  0
 24 26  1  0
 24 25  2  0
 26 27  1  0
 28 27  1  6
 28 30  1  0
 29 21  1  0
 29 28  1  0
 30 32  2  0
 30 31  1  0
M  END
$$$$
