WMQ.pdb
     RDKit          3D

 32 33  0  0  1  0  0  0  0  0999 V2000
   23.4807  -19.4273  -17.5918 N   0  0  0  0  0  0  0  0  0  0  0  0
   22.4294  -18.9514  -16.7451 C   0  0  1  0  0  0  0  0  0  0  0  0
   21.1199  -18.7116  -17.4262 C   0  0  0  0  0  0  0  0  0  0  0  0
   21.1446  -17.5770  -18.3672 C   0  0  0  0  0  0  0  0  0  0  0  0
   21.5068  -17.6544  -19.6828 C   0  0  0  0  0  0  0  0  0  0  0  0
   21.3782  -16.4267  -20.2008 N   0  0  0  0  0  0  0  0  0  0  0  0
   20.9469  -15.5723  -19.2581 C   0  0  0  0  0  0  0  0  0  0  0  0
   20.6655  -14.2314  -19.2687 C   0  0  0  0  0  0  0  0  0  0  0  0
   20.2320  -13.5605  -18.1464 C   0  0  0  0  0  0  0  0  0  0  0  0
   20.0786  -14.2711  -16.9742 C   0  0  0  0  0  0  0  0  0  0  0  0
   20.3578  -15.6214  -16.9481 C   0  0  0  0  0  0  0  0  0  0  0  0
   20.7920  -16.2837  -18.0832 C   0  0  0  0  0  0  0  0  0  0  0  0
   22.1956  -19.9778  -15.6699 C   0  0  0  0  0  0  0  0  0  0  0  0
   22.1938  -21.2004  -15.9598 O   0  0  0  0  0  0  0  0  0  0  0  0
   24.6129  -21.0933   -9.5474 C   0  0  0  0  0  0  0  0  0  0  0  0
   22.8569  -20.6011   -9.3677 S   0  0  0  0  0  0  0  0  0  0  0  0
   22.0054  -21.0841  -10.8768 C   0  0  0  0  0  0  0  0  0  0  0  0
   22.3380  -20.2246  -12.0459 C   0  0  0  0  0  0  0  0  0  0  0  0
   21.6822  -20.6557  -13.3449 C   0  0  2  0  0  0  0  0  0  0  0  0
   21.9740  -19.6257  -14.3224 N   0  0  0  0  0  0  0  0  0  0  0  0
   20.2075  -20.7966  -13.1628 C   0  0  0  0  0  0  0  0  0  0  0  0
   19.4469  -19.8047  -13.0803 O   0  0  0  0  0  0  0  0  0  0  0  0
   16.9518  -25.4607  -15.5647 N   0  0  0  0  0  0  0  0  0  0  0  0
   17.3045  -25.7740  -14.2336 C   0  0  0  0  0  0  0  0  0  0  0  0
   17.3253  -26.9715  -13.9000 O   0  0  0  0  0  0  0  0  0  0  0  0
   17.6340  -24.7054  -13.2809 C   0  0  0  0  0  0  0  0  0  0  0  0
   17.7208  -23.3376  -13.8701 C   0  0  0  0  0  0  0  0  0  0  0  0
   18.1451  -22.2552  -12.9309 C   0  0  2  0  0  0  0  0  0  0  0  0
   19.5885  -22.0788  -13.0742 N   0  0  0  0  0  0  0  0  0  0  0  0
   17.7643  -22.4968  -11.5368 C   0  0  0  0  0  0  0  0  0  0  0  0
   16.4447  -22.2736  -11.1215 O   0  0  0  0  0  0  0  0  0  0  0  0
   18.5559  -22.9029  -10.6527 O   0  0  0  0  0  0  0  0  0  0  0  0
  2  1  1  6
  2 13  1  0
  2  3  1  0
  4  5  2  0
  4  3  1  0
  6  5  1  0
  7 12  2  0
  7  6  1  0
  8  7  1  0
  9  8  2  0
  9 10  1  0
 10 11  2  0
 11 12  1  0
 12  4  1  0
 13 14  2  0
 16 15  1  0
 17 18  1  0
 17 16  1  0
 19 18  1  1
 19 21  1  0
 20 19  1  0
 20 13  1  0
 21 22  2  0
 23 24  1  0
 24 26  1  0
 24 25  2  0
 26 27  1  0
 28 27  1  6
 28 30  1  0
 29 21  1  0
 29 28  1  0
 30 32  2  0
 30 31  1  0
M  END
$$$$
