WMQ.pdb
     RDKit          3D

 32 33  0  0  1  0  0  0  0  0999 V2000
   22.4095  -21.6538  -13.9620 N   0  0  0  0  0  0  0  0  0  0  0  0
   22.7233  -20.4180  -14.6124 C   0  0  1  0  0  0  0  0  0  0  0  0
   21.7630  -19.3003  -14.3576 C   0  0  0  0  0  0  0  0  0  0  0  0
   20.3890  -19.5908  -14.8061 C   0  0  0  0  0  0  0  0  0  0  0  0
   19.2826  -19.5863  -14.0037 C   0  0  0  0  0  0  0  0  0  0  0  0
   18.2306  -19.8743  -14.7798 N   0  0  0  0  0  0  0  0  0  0  0  0
   18.6320  -20.0618  -16.0480 C   0  0  0  0  0  0  0  0  0  0  0  0
   17.9660  -20.3751  -17.2038 C   0  0  0  0  0  0  0  0  0  0  0  0
   18.6135  -20.5234  -18.4104 C   0  0  0  0  0  0  0  0  0  0  0  0
   19.9813  -20.3490  -18.4482 C   0  0  0  0  0  0  0  0  0  0  0  0
   20.6654  -20.0333  -17.2930 C   0  0  0  0  0  0  0  0  0  0  0  0
   20.0024  -19.8864  -16.0870 C   0  0  0  0  0  0  0  0  0  0  0  0
   24.0757  -19.9675  -14.1306 C   0  0  0  0  0  0  0  0  0  0  0  0
   24.4541  -18.7873  -14.3378 O   0  0  0  0  0  0  0  0  0  0  0  0
   24.1415  -20.5597   -8.8290 C   0  0  0  0  0  0  0  0  0  0  0  0
   24.6633  -21.2849  -10.4290 S   0  0  0  0  0  0  0  0  0  0  0  0
   26.3132  -20.6648  -10.7884 C   0  0  0  0  0  0  0  0  0  0  0  0
   26.8729  -21.1774  -12.0692 C   0  0  0  0  0  0  0  0  0  0  0  0
   26.3562  -20.4656  -13.3059 C   0  0  2  0  0  0  0  0  0  0  0  0
   24.9584  -20.8250  -13.4418 N   0  0  0  0  0  0  0  0  0  0  0  0
   27.1227  -20.8944  -14.5127 C   0  0  0  0  0  0  0  0  0  0  0  0
   28.3369  -20.6259  -14.6631 O   0  0  0  0  0  0  0  0  0  0  0  0
   25.5732  -25.8714  -16.2102 N   0  0  0  0  0  0  0  0  0  0  0  0
   26.9679  -25.8193  -16.4254 C   0  0  0  0  0  0  0  0  0  0  0  0
   27.6399  -26.8301  -16.1563 O   0  0  0  0  0  0  0  0  0  0  0  0
   27.5937  -24.5989  -16.9517 C   0  0  0  0  0  0  0  0  0  0  0  0
   26.6716  -23.4385  -17.1219 C   0  0  0  0  0  0  0  0  0  0  0  0
   27.2312  -22.1067  -16.7384 C   0  0  2  0  0  0  0  0  0  0  0  0
   26.5037  -21.6378  -15.5612 N   0  0  0  0  0  0  0  0  0  0  0  0
   27.2058  -21.1191  -17.8202 C   0  0  0  0  0  0  0  0  0  0  0  0
   28.3576  -20.8850  -18.5835 O   0  0  0  0  0  0  0  0  0  0  0  0
   26.1968  -20.4411  -18.1289 O   0  0  0  0  0  0  0  0  0  0  0  0
  2  1  1  1
  2 13  1  0
  2  3  1  0
  4  5  2  0
  4  3  1  0
  6  5  1  0
  7 12  2  0
  7  6  1  0
  8  7  1  0
  9  8  2  0
  9 10  1  0
 10 11  2  0
 11 12  1  0
 12  4  1  0
 13 14  2  0
 16 15  1  0
 17 18  1  0
 17 16  1  0
 19 18  1  1
 19 21  1  0
 20 19  1  0
 20 13  1  0
 21 22  2  0
 23 24  1  0
 24 26  1  0
 24 25  2  0
 26 27  1  0
 28 27  1  6
 28 30  1  0
 29 21  1  0
 29 28  1  0
 30 32  2  0
 30 31  1  0
M  END
$$$$
