WMQ.pdb
     RDKit          3D

 32 33  0  0  1  0  0  0  0  0999 V2000
   26.1403  -20.9551  -13.3178 N   0  0  0  0  0  0  0  0  0  0  0  0
   25.0670  -20.5257  -12.4740 C   0  0  1  0  0  0  0  0  0  0  0  0
   23.7088  -21.0079  -12.8730 C   0  0  0  0  0  0  0  0  0  0  0  0
   23.2797  -20.5280  -14.1994 C   0  0  0  0  0  0  0  0  0  0  0  0
   23.5541  -21.1477  -15.3862 C   0  0  0  0  0  0  0  0  0  0  0  0
   22.9790  -20.4220  -16.3529 N   0  0  0  0  0  0  0  0  0  0  0  0
   22.3489  -19.3621  -15.8197 C   0  0  0  0  0  0  0  0  0  0  0  0
   21.6273  -18.3317  -16.3629 C   0  0  0  0  0  0  0  0  0  0  0  0
   21.0703  -17.3354  -15.5918 C   0  0  0  0  0  0  0  0  0  0  0  0
   21.2502  -17.3837  -14.2251 C   0  0  0  0  0  0  0  0  0  0  0  0
   21.9742  -18.4148  -13.6639 C   0  0  0  0  0  0  0  0  0  0  0  0
   22.5280  -19.4101  -14.4501 C   0  0  0  0  0  0  0  0  0  0  0  0
   25.3342  -21.0349  -11.0836 C   0  0  0  0  0  0  0  0  0  0  0  0
   25.2134  -22.2596  -10.8302 O   0  0  0  0  0  0  0  0  0  0  0  0
   28.0509  -19.8281   -3.8241 C   0  0  0  0  0  0  0  0  0  0  0  0
   27.9735  -19.1747   -5.5344 S   0  0  0  0  0  0  0  0  0  0  0  0
   26.7438  -20.1400   -6.4242 C   0  0  0  0  0  0  0  0  0  0  0  0
   26.6465  -19.7897   -7.8678 C   0  0  0  0  0  0  0  0  0  0  0  0
   25.7006  -20.6714   -8.6623 C   0  0  2  0  0  0  0  0  0  0  0  0
   25.7231  -20.1847  -10.0277 N   0  0  0  0  0  0  0  0  0  0  0  0
   24.3188  -20.5894   -8.1040 C   0  0  0  0  0  0  0  0  0  0  0  0
   23.6009  -19.5726   -8.2444 O   0  0  0  0  0  0  0  0  0  0  0  0
   20.6412  -25.5728   -7.0953 N   0  0  0  0  0  0  0  0  0  0  0  0
   19.8957  -24.5447   -6.4778 C   0  0  0  0  0  0  0  0  0  0  0  0
   18.7775  -24.8297   -6.0149 O   0  0  0  0  0  0  0  0  0  0  0  0
   20.4375  -23.1819   -6.3927 C   0  0  0  0  0  0  0  0  0  0  0  0
   21.8181  -23.0156   -6.9330 C   0  0  0  0  0  0  0  0  0  0  0  0
   22.3887  -21.6377   -6.8348 C   0  0  2  0  0  0  0  0  0  0  0  0
   23.7445  -21.6750   -7.3783 N   0  0  0  0  0  0  0  0  0  0  0  0
   22.3630  -21.0804   -5.4801 C   0  0  0  0  0  0  0  0  0  0  0  0
   21.2219  -20.4102   -5.0190 O   0  0  0  0  0  0  0  0  0  0  0  0
   23.3173  -21.1587   -4.6700 O   0  0  0  0  0  0  0  0  0  0  0  0
  2  1  1  6
  2 13  1  0
  2  3  1  0
  4  5  2  0
  4  3  1  0
  6  5  1  0
  7 12  2  0
  7  6  1  0
  8  7  1  0
  9  8  2  0
  9 10  1  0
 10 11  2  0
 11 12  1  0
 12  4  1  0
 13 14  2  0
 16 15  1  0
 17 18  1  0
 17 16  1  0
 19 18  1  1
 19 21  1  0
 20 19  1  0
 20 13  1  0
 21 22  2  0
 23 24  1  0
 24 26  1  0
 24 25  2  0
 26 27  1  0
 28 27  1  1
 28 30  1  0
 29 21  1  0
 29 28  1  0
 30 32  2  0
 30 31  1  0
M  END
$$$$
