WMQ.pdb
     RDKit          3D

 32 33  0  0  1  0  0  0  0  0999 V2000
   27.6268  -21.0542  -16.3705 N   0  0  0  0  0  0  0  0  0  0  0  0
   27.5131  -20.1781  -15.2444 C   0  0  1  0  0  0  0  0  0  0  0  0
   26.7928  -18.8937  -15.5047 C   0  0  0  0  0  0  0  0  0  0  0  0
   27.4406  -18.0519  -16.5271 C   0  0  0  0  0  0  0  0  0  0  0  0
   26.7930  -17.4221  -17.5527 C   0  0  0  0  0  0  0  0  0  0  0  0
   27.7160  -16.7439  -18.2454 N   0  0  0  0  0  0  0  0  0  0  0  0
   28.9281  -16.9222  -17.6943 C   0  0  0  0  0  0  0  0  0  0  0  0
   30.1784  -16.4619  -18.0141 C   0  0  0  0  0  0  0  0  0  0  0  0
   31.2964  -16.7965  -17.2823 C   0  0  0  0  0  0  0  0  0  0  0  0
   31.1434  -17.6251  -16.1903 C   0  0  0  0  0  0  0  0  0  0  0  0
   29.8911  -18.0964  -15.8560 C   0  0  0  0  0  0  0  0  0  0  0  0
   28.7757  -17.7518  -16.5994 C   0  0  0  0  0  0  0  0  0  0  0  0
   26.7608  -20.9042  -14.1624 C   0  0  0  0  0  0  0  0  0  0  0  0
   26.0580  -21.9052  -14.4507 O   0  0  0  0  0  0  0  0  0  0  0  0
   26.1770  -19.0745   -7.5172 C   0  0  0  0  0  0  0  0  0  0  0  0
   26.3626  -20.8866   -7.7167 S   0  0  0  0  0  0  0  0  0  0  0  0
   25.6932  -21.3220   -9.3286 C   0  0  0  0  0  0  0  0  0  0  0  0
   26.4736  -20.7611  -10.4655 C   0  0  0  0  0  0  0  0  0  0  0  0
   25.9548  -21.1579  -11.8354 C   0  0  2  0  0  0  0  0  0  0  0  0
   26.8079  -20.5068  -12.8101 N   0  0  0  0  0  0  0  0  0  0  0  0
   24.5396  -20.7150  -12.0053 C   0  0  0  0  0  0  0  0  0  0  0  0
   24.2349  -19.5187  -12.2171 O   0  0  0  0  0  0  0  0  0  0  0  0
   22.5033  -21.8004  -16.2358 N   0  0  0  0  0  0  0  0  0  0  0  0
   21.9035  -20.9935  -15.2441 C   0  0  0  0  0  0  0  0  0  0  0  0
   22.2539  -19.8031  -15.1674 O   0  0  0  0  0  0  0  0  0  0  0  0
   20.8967  -21.5579  -14.3355 C   0  0  0  0  0  0  0  0  0  0  0  0
   21.4434  -22.1871  -13.0983 C   0  0  0  0  0  0  0  0  0  0  0  0
   22.0617  -21.2472  -12.1143 C   0  0  2  0  0  0  0  0  0  0  0  0
   23.4571  -21.6416  -11.9347 N   0  0  0  0  0  0  0  0  0  0  0  0
   21.3501  -21.1748  -10.8357 C   0  0  0  0  0  0  0  0  0  0  0  0
   22.0139  -21.4967   -9.6443 O   0  0  0  0  0  0  0  0  0  0  0  0
   20.1485  -20.8346  -10.7188 O   0  0  0  0  0  0  0  0  0  0  0  0
  2  1  1  6
  2 13  1  0
  2  3  1  0
  4  5  2  0
  4  3  1  0
  6  5  1  0
  7 12  2  0
  7  6  1  0
  8  7  1  0
  9  8  2  0
  9 10  1  0
 10 11  2  0
 11 12  1  0
 12  4  1  0
 13 14  2  0
 16 15  1  0
 17 18  1  0
 17 16  1  0
 19 18  1  1
 19 21  1  0
 20 19  1  0
 20 13  1  0
 21 22  2  0
 23 24  1  0
 24 26  1  0
 24 25  2  0
 26 27  1  0
 28 27  1  6
 28 30  1  0
 29 21  1  0
 29 28  1  0
 30 32  2  0
 30 31  1  0
M  END
$$$$
