WMQ.pdb
     RDKit          3D

 32 33  0  0  1  0  0  0  0  0999 V2000
   26.5217  -21.5530  -13.8005 N   0  0  0  0  0  0  0  0  0  0  0  0
   25.6718  -20.6200  -13.1255 C   0  0  1  0  0  0  0  0  0  0  0  0
   24.2373  -20.6419  -13.5475 C   0  0  0  0  0  0  0  0  0  0  0  0
   24.0286  -20.2267  -14.9467 C   0  0  0  0  0  0  0  0  0  0  0  0
   24.3351  -20.9807  -16.0446 C   0  0  0  0  0  0  0  0  0  0  0  0
   23.9802  -20.2711  -17.1227 N   0  0  0  0  0  0  0  0  0  0  0  0
   23.4590  -19.0915  -16.7462 C   0  0  0  0  0  0  0  0  0  0  0  0
   22.9593  -18.0237  -17.4443 C   0  0  0  0  0  0  0  0  0  0  0  0
   22.4750  -16.8959  -16.8190 C   0  0  0  0  0  0  0  0  0  0  0  0
   22.4978  -16.8476  -15.4407 C   0  0  0  0  0  0  0  0  0  0  0  0
   22.9978  -17.9148  -14.7243 C   0  0  0  0  0  0  0  0  0  0  0  0
   23.4807  -19.0425  -15.3651 C   0  0  0  0  0  0  0  0  0  0  0  0
   25.7123  -20.9318  -11.6541 C   0  0  0  0  0  0  0  0  0  0  0  0
   25.5347  -22.1109  -11.2577 O   0  0  0  0  0  0  0  0  0  0  0  0
   28.2423  -19.1808   -4.7023 C   0  0  0  0  0  0  0  0  0  0  0  0
   28.0067  -19.9572   -6.3454 S   0  0  0  0  0  0  0  0  0  0  0  0
   26.4564  -19.3384   -7.0157 C   0  0  0  0  0  0  0  0  0  0  0  0
   26.4805  -19.1555   -8.4929 C   0  0  0  0  0  0  0  0  0  0  0  0
   25.7994  -20.2662   -9.2712 C   0  0  2  0  0  0  0  0  0  0  0  0
   25.9459  -19.9424  -10.6766 N   0  0  0  0  0  0  0  0  0  0  0  0
   24.3548  -20.3493   -8.9049 C   0  0  0  0  0  0  0  0  0  0  0  0
   23.5298  -19.4671   -9.2365 O   0  0  0  0  0  0  0  0  0  0  0  0
   20.3581  -23.1827  -11.2153 N   0  0  0  0  0  0  0  0  0  0  0  0
   19.7691  -22.1042  -10.5196 C   0  0  0  0  0  0  0  0  0  0  0  0
   18.6807  -21.6666  -10.9314 O   0  0  0  0  0  0  0  0  0  0  0  0
   20.4349  -21.5249   -9.3453 C   0  0  0  0  0  0  0  0  0  0  0  0
   21.7139  -22.1856   -8.9536 C   0  0  0  0  0  0  0  0  0  0  0  0
   22.4296  -21.5718   -7.7939 C   0  0  2  0  0  0  0  0  0  0  0  0
   23.8403  -21.4475   -8.1536 N   0  0  0  0  0  0  0  0  0  0  0  0
   22.2534  -22.3005   -6.5352 C   0  0  0  0  0  0  0  0  0  0  0  0
   23.2869  -23.1080   -6.0416 O   0  0  0  0  0  0  0  0  0  0  0  0
   21.2115  -22.2570   -5.8383 O   0  0  0  0  0  0  0  0  0  0  0  0
  2  1  1  6
  2 13  1  0
  2  3  1  0
  4  5  2  0
  4  3  1  0
  6  5  1  0
  7 12  2  0
  7  6  1  0
  8  7  1  0
  9  8  2  0
  9 10  1  0
 10 11  2  0
 11 12  1  0
 12  4  1  0
 13 14  2  0
 16 15  1  0
 17 18  1  0
 17 16  1  0
 19 18  1  1
 19 21  1  0
 20 19  1  0
 20 13  1  0
 21 22  2  0
 23 24  1  0
 24 26  1  0
 24 25  2  0
 26 27  1  0
 28 27  1  6
 28 30  1  0
 29 21  1  0
 29 28  1  0
 30 32  2  0
 30 31  1  0
M  END
$$$$
