WMQ.pdb
     RDKit          3D

 32 33  0  0  1  0  0  0  0  0999 V2000
   25.4905  -22.3421  -12.4202 N   0  0  0  0  0  0  0  0  0  0  0  0
   25.1689  -21.3466  -11.4433 C   0  0  1  0  0  0  0  0  0  0  0  0
   26.1017  -20.1790  -11.3903 C   0  0  0  0  0  0  0  0  0  0  0  0
   27.4021  -20.4918  -10.7699 C   0  0  0  0  0  0  0  0  0  0  0  0
   28.5324  -20.8483  -11.4504 C   0  0  0  0  0  0  0  0  0  0  0  0
   29.5000  -21.0269  -10.5428 N   0  0  0  0  0  0  0  0  0  0  0  0
   29.0219  -20.7962   -9.3088 C   0  0  0  0  0  0  0  0  0  0  0  0
   29.5876  -20.8448   -8.0618 C   0  0  0  0  0  0  0  0  0  0  0  0
   28.8739  -20.5648   -6.9173 C   0  0  0  0  0  0  0  0  0  0  0  0
   27.5427  -20.2246   -7.0396 C   0  0  0  0  0  0  0  0  0  0  0  0
   26.9594  -20.1716   -8.2882 C   0  0  0  0  0  0  0  0  0  0  0  0
   27.6882  -20.4545   -9.4303 C   0  0  0  0  0  0  0  0  0  0  0  0
   23.7973  -20.8124  -11.7556 C   0  0  0  0  0  0  0  0  0  0  0  0
   23.3219  -19.8690  -11.0753 O   0  0  0  0  0  0  0  0  0  0  0  0
   19.9402  -16.4665  -13.0402 C   0  0  0  0  0  0  0  0  0  0  0  0
   20.1992  -18.2711  -12.8543 S   0  0  0  0  0  0  0  0  0  0  0  0
   21.2553  -18.8056  -14.2088 C   0  0  0  0  0  0  0  0  0  0  0  0
   21.4460  -20.2810  -14.2647 C   0  0  0  0  0  0  0  0  0  0  0  0
   21.6102  -20.9416  -12.9082 C   0  0  2  0  0  0  0  0  0  0  0  0
   23.0023  -21.3310  -12.7987 N   0  0  0  0  0  0  0  0  0  0  0  0
   20.7256  -22.1390  -12.8010 C   0  0  0  0  0  0  0  0  0  0  0  0
   20.7593  -23.0714  -13.6368 O   0  0  0  0  0  0  0  0  0  0  0  0
   18.7655  -24.2945   -7.2837 N   0  0  0  0  0  0  0  0  0  0  0  0
   18.1275  -25.1853   -8.1746 C   0  0  0  0  0  0  0  0  0  0  0  0
   17.5062  -26.1489   -7.6939 O   0  0  0  0  0  0  0  0  0  0  0  0
   18.2047  -24.9680   -9.6253 C   0  0  0  0  0  0  0  0  0  0  0  0
   18.9542  -23.7475  -10.0428 C   0  0  0  0  0  0  0  0  0  0  0  0
   19.0111  -23.4961  -11.5150 C   0  0  2  0  0  0  0  0  0  0  0  0
   19.7921  -22.2803  -11.7316 N   0  0  0  0  0  0  0  0  0  0  0  0
   17.6951  -23.4160  -12.1541 C   0  0  0  0  0  0  0  0  0  0  0  0
   16.9830  -22.2092  -12.1443 O   0  0  0  0  0  0  0  0  0  0  0  0
   17.1347  -24.3784  -12.7310 O   0  0  0  0  0  0  0  0  0  0  0  0
  2  1  1  6
  2 13  1  0
  2  3  1  0
  4  5  2  0
  4  3  1  0
  6  5  1  0
  7 12  2  0
  7  6  1  0
  8  7  1  0
  9  8  2  0
  9 10  1  0
 10 11  2  0
 11 12  1  0
 12  4  1  0
 13 14  2  0
 16 15  1  0
 17 18  1  0
 17 16  1  0
 19 18  1  6
 19 21  1  0
 20 19  1  0
 20 13  1  0
 21 22  2  0
 23 24  1  0
 24 26  1  0
 24 25  2  0
 26 27  1  0
 28 27  1  1
 28 30  1  0
 29 21  1  0
 29 28  1  0
 30 32  2  0
 30 31  1  0
M  END
$$$$
