WMQ.pdb
     RDKit          3D

 32 33  0  0  1  0  0  0  0  0999 V2000
   24.7536  -18.9517   -9.3037 N   0  0  0  0  0  0  0  0  0  0  0  0
   25.8596  -19.7658   -9.7072 C   0  0  1  0  0  0  0  0  0  0  0  0
   26.1243  -20.9573   -8.8432 C   0  0  0  0  0  0  0  0  0  0  0  0
   26.4502  -20.6118   -7.4475 C   0  0  0  0  0  0  0  0  0  0  0  0
   25.5345  -20.3263   -6.4738 C   0  0  0  0  0  0  0  0  0  0  0  0
   26.2172  -20.0869   -5.3476 N   0  0  0  0  0  0  0  0  0  0  0  0
   27.5357  -20.2104   -5.5735 C   0  0  0  0  0  0  0  0  0  0  0  0
   28.6395  -20.0680   -4.7742 C   0  0  0  0  0  0  0  0  0  0  0  0
   29.9206  -20.2448   -5.2485 C   0  0  0  0  0  0  0  0  0  0  0  0
   30.0898  -20.5767   -6.5766 C   0  0  0  0  0  0  0  0  0  0  0  0
   28.9882  -20.7236   -7.3934 C   0  0  0  0  0  0  0  0  0  0  0  0
   27.7062  -20.5438   -6.9039 C   0  0  0  0  0  0  0  0  0  0  0  0
   25.5842  -20.2710  -11.0976 C   0  0  0  0  0  0  0  0  0  0  0  0
   24.3991  -20.4307  -11.4836 O   0  0  0  0  0  0  0  0  0  0  0  0
   30.4340  -20.7820  -15.2609 C   0  0  0  0  0  0  0  0  0  0  0  0
   29.1097  -20.4442  -16.4817 S   0  0  0  0  0  0  0  0  0  0  0  0
   27.5345  -20.6516  -15.6383 C   0  0  0  0  0  0  0  0  0  0  0  0
   27.6490  -20.6258  -14.1542 C   0  0  0  0  0  0  0  0  0  0  0  0
   26.3202  -20.6901  -13.4239 C   0  0  2  0  0  0  0  0  0  0  0  0
   26.6152  -20.5803  -12.0088 N   0  0  0  0  0  0  0  0  0  0  0  0
   25.6288  -21.9812  -13.7120 C   0  0  0  0  0  0  0  0  0  0  0  0
   25.7875  -22.9978  -12.9976 O   0  0  0  0  0  0  0  0  0  0  0  0
   20.2774  -21.1558  -14.0198 N   0  0  0  0  0  0  0  0  0  0  0  0
   20.2621  -22.4307  -13.4129 C   0  0  0  0  0  0  0  0  0  0  0  0
   19.1656  -22.8970  -13.0581 O   0  0  0  0  0  0  0  0  0  0  0  0
   21.5136  -23.1733  -13.2119 C   0  0  0  0  0  0  0  0  0  0  0  0
   22.7574  -22.4149  -13.5338 C   0  0  0  0  0  0  0  0  0  0  0  0
   23.4925  -22.8672  -14.7540 C   0  0  2  0  0  0  0  0  0  0  0  0
   24.7460  -22.1198  -14.8240 N   0  0  0  0  0  0  0  0  0  0  0  0
   22.7185  -22.7447  -15.9920 C   0  0  0  0  0  0  0  0  0  0  0  0
   22.6385  -21.5099  -16.6498 O   0  0  0  0  0  0  0  0  0  0  0  0
   22.0987  -23.6932  -16.5297 O   0  0  0  0  0  0  0  0  0  0  0  0
  2  1  1  1
  2 13  1  0
  2  3  1  0
  4  5  2  0
  4  3  1  0
  6  5  1  0
  7 12  2  0
  7  6  1  0
  8  7  1  0
  9  8  2  0
  9 10  1  0
 10 11  2  0
 11 12  1  0
 12  4  1  0
 13 14  2  0
 16 15  1  0
 17 18  1  0
 17 16  1  0
 19 18  1  6
 19 21  1  0
 20 19  1  0
 20 13  1  0
 21 22  2  0
 23 24  1  0
 24 26  1  0
 24 25  2  0
 26 27  1  0
 28 27  1  1
 28 30  1  0
 29 21  1  0
 29 28  1  0
 30 32  2  0
 30 31  1  0
M  END
$$$$
