WMQ.pdb
     RDKit          3D

 32 33  0  0  1  0  0  0  0  0999 V2000
   28.3983  -21.0369  -14.8467 N   0  0  0  0  0  0  0  0  0  0  0  0
   27.5345  -20.1578  -14.1188 C   0  0  1  0  0  0  0  0  0  0  0  0
   26.4629  -19.5005  -14.9286 C   0  0  0  0  0  0  0  0  0  0  0  0
   26.9774  -18.5148  -15.8968 C   0  0  0  0  0  0  0  0  0  0  0  0
   27.2459  -18.7710  -17.2122 C   0  0  0  0  0  0  0  0  0  0  0  0
   27.6715  -17.6256  -17.7588 N   0  0  0  0  0  0  0  0  0  0  0  0
   27.6826  -16.6508  -16.8345 C   0  0  0  0  0  0  0  0  0  0  0  0
   28.0303  -15.3261  -16.8758 C   0  0  0  0  0  0  0  0  0  0  0  0
   27.9603  -14.5110  -15.7675 C   0  0  0  0  0  0  0  0  0  0  0  0
   27.5239  -15.0555  -14.5776 C   0  0  0  0  0  0  0  0  0  0  0  0
   27.1704  -16.3874  -14.5207 C   0  0  0  0  0  0  0  0  0  0  0  0
   27.2447  -17.1952  -15.6420 C   0  0  0  0  0  0  0  0  0  0  0  0
   26.8560  -20.9580  -13.0403 C   0  0  0  0  0  0  0  0  0  0  0  0
   26.4250  -22.1112  -13.2921 O   0  0  0  0  0  0  0  0  0  0  0  0
   28.7748  -20.4920   -6.5897 C   0  0  0  0  0  0  0  0  0  0  0  0
   27.1666  -19.9262   -7.2617 S   0  0  0  0  0  0  0  0  0  0  0  0
   26.9471  -20.7112   -8.8652 C   0  0  0  0  0  0  0  0  0  0  0  0
   25.7018  -20.2918   -9.5648 C   0  0  0  0  0  0  0  0  0  0  0  0
   25.5318  -20.8890  -10.9496 C   0  0  2  0  0  0  0  0  0  0  0  0
   26.6770  -20.4652  -11.7310 N   0  0  0  0  0  0  0  0  0  0  0  0
   24.2670  -20.4029  -11.5755 C   0  0  0  0  0  0  0  0  0  0  0  0
   24.1663  -19.2594  -12.0768 O   0  0  0  0  0  0  0  0  0  0  0  0
   21.1826  -23.2820  -15.7464 N   0  0  0  0  0  0  0  0  0  0  0  0
   20.7308  -23.7411  -14.4897 C   0  0  0  0  0  0  0  0  0  0  0  0
   20.1841  -24.8565  -14.4361 O   0  0  0  0  0  0  0  0  0  0  0  0
   20.9072  -22.9137  -13.2888 C   0  0  0  0  0  0  0  0  0  0  0  0
   21.6712  -21.6496  -13.4985 C   0  0  0  0  0  0  0  0  0  0  0  0
   21.8638  -20.8017  -12.2828 C   0  0  2  0  0  0  0  0  0  0  0  0
   23.1025  -21.2249  -11.6337 N   0  0  0  0  0  0  0  0  0  0  0  0
   20.7296  -20.8282  -11.3557 C   0  0  0  0  0  0  0  0  0  0  0  0
   19.5215  -20.2112  -11.7076 O   0  0  0  0  0  0  0  0  0  0  0  0
   20.7554  -21.3802  -10.2298 O   0  0  0  0  0  0  0  0  0  0  0  0
  2  1  1  6
  2 13  1  0
  2  3  1  0
  4  5  2  0
  4  3  1  0
  6  5  1  0
  7 12  2  0
  7  6  1  0
  8  7  1  0
  9  8  2  0
  9 10  1  0
 10 11  2  0
 11 12  1  0
 12  4  1  0
 13 14  2  0
 16 15  1  0
 17 18  1  0
 17 16  1  0
 19 18  1  1
 19 21  1  0
 20 19  1  0
 20 13  1  0
 21 22  2  0
 23 24  1  0
 24 26  1  0
 24 25  2  0
 26 27  1  0
 28 27  1  6
 28 30  1  0
 29 21  1  0
 29 28  1  0
 30 32  2  0
 30 31  1  0
M  END
$$$$
