WMQ.pdb
     RDKit          3D

 32 33  0  0  1  0  0  0  0  0999 V2000
   27.4387  -21.4018  -15.8443 N   0  0  0  0  0  0  0  0  0  0  0  0
   27.4684  -20.4001  -14.8224 C   0  0  1  0  0  0  0  0  0  0  0  0
   26.7314  -19.1389  -15.1427 C   0  0  0  0  0  0  0  0  0  0  0  0
   27.3683  -18.3382  -16.2043 C   0  0  0  0  0  0  0  0  0  0  0  0
   26.7049  -17.7135  -17.2229 C   0  0  0  0  0  0  0  0  0  0  0  0
   27.6229  -17.0767  -17.9602 N   0  0  0  0  0  0  0  0  0  0  0  0
   28.8470  -17.2764  -17.4441 C   0  0  0  0  0  0  0  0  0  0  0  0
   30.0982  -16.8581  -17.8141 C   0  0  0  0  0  0  0  0  0  0  0  0
   31.2300  -17.2073  -17.1108 C   0  0  0  0  0  0  0  0  0  0  0  0
   31.0902  -18.0070  -15.9956 C   0  0  0  0  0  0  0  0  0  0  0  0
   29.8371  -18.4358  -15.6108 C   0  0  0  0  0  0  0  0  0  0  0  0
   28.7079  -18.0770  -16.3261 C   0  0  0  0  0  0  0  0  0  0  0  0
   26.8467  -20.9812  -13.5814 C   0  0  0  0  0  0  0  0  0  0  0  0
   26.0735  -21.9676  -13.6702 O   0  0  0  0  0  0  0  0  0  0  0  0
   28.6919  -20.5053   -7.2525 C   0  0  0  0  0  0  0  0  0  0  0  0
   26.9476  -19.9463   -7.1959 S   0  0  0  0  0  0  0  0  0  0  0  0
   26.1354  -20.5663   -8.6763 C   0  0  0  0  0  0  0  0  0  0  0  0
   26.9031  -20.3086   -9.9254 C   0  0  0  0  0  0  0  0  0  0  0  0
   26.2403  -20.8336  -11.1857 C   0  0  2  0  0  0  0  0  0  0  0  0
   27.0962  -20.4605  -12.2946 N   0  0  0  0  0  0  0  0  0  0  0  0
   24.8841  -20.2325  -11.3507 C   0  0  0  0  0  0  0  0  0  0  0  0
   24.7163  -19.0779  -11.8065 O   0  0  0  0  0  0  0  0  0  0  0  0
   23.1455  -23.3339  -15.3408 N   0  0  0  0  0  0  0  0  0  0  0  0
   21.8788  -22.7369  -15.1579 C   0  0  0  0  0  0  0  0  0  0  0  0
   21.0065  -22.9390  -16.0205 O   0  0  0  0  0  0  0  0  0  0  0  0
   21.6137  -21.9026  -13.9783 C   0  0  0  0  0  0  0  0  0  0  0  0
   22.7326  -21.8243  -12.9948 C   0  0  0  0  0  0  0  0  0  0  0  0
   22.4929  -20.9425  -11.8120 C   0  0  2  0  0  0  0  0  0  0  0  0
   23.7041  -20.9508  -10.9948 N   0  0  0  0  0  0  0  0  0  0  0  0
   21.3090  -21.3080  -11.0302 C   0  0  0  0  0  0  0  0  0  0  0  0
   20.0458  -20.8316  -11.4059 O   0  0  0  0  0  0  0  0  0  0  0  0
   21.3379  -22.0413  -10.0130 O   0  0  0  0  0  0  0  0  0  0  0  0
  2  1  1  6
  2 13  1  0
  2  3  1  0
  4  5  2  0
  4  3  1  0
  6  5  1  0
  7 12  2  0
  7  6  1  0
  8  7  1  0
  9  8  2  0
  9 10  1  0
 10 11  2  0
 11 12  1  0
 12  4  1  0
 13 14  2  0
 16 15  1  0
 17 18  1  0
 17 16  1  0
 19 18  1  1
 19 21  1  0
 20 19  1  0
 20 13  1  0
 21 22  2  0
 23 24  1  0
 24 26  1  0
 24 25  2  0
 26 27  1  0
 28 27  1  6
 28 30  1  0
 29 21  1  0
 29 28  1  0
 30 32  2  0
 30 31  1  0
M  END
$$$$
