WMQ.pdb
     RDKit          3D

 32 33  0  0  1  0  0  0  0  0999 V2000
   25.2837  -18.8106  -10.1370 N   0  0  0  0  0  0  0  0  0  0  0  0
   26.2722  -19.8189  -10.3713 C   0  0  1  0  0  0  0  0  0  0  0  0
   26.1702  -21.0284   -9.4977 C   0  0  0  0  0  0  0  0  0  0  0  0
   26.2777  -20.7262   -8.0587 C   0  0  0  0  0  0  0  0  0  0  0  0
   25.2209  -20.5916   -7.2026 C   0  0  0  0  0  0  0  0  0  0  0  0
   25.7258  -20.3427   -5.9881 N   0  0  0  0  0  0  0  0  0  0  0  0
   27.0677  -20.3143   -6.0444 C   0  0  0  0  0  0  0  0  0  0  0  0
   28.0395  -20.0998   -5.1026 C   0  0  0  0  0  0  0  0  0  0  0  0
   29.3817  -20.1150   -5.4120 C   0  0  0  0  0  0  0  0  0  0  0  0
   29.7523  -20.3552   -6.7188 C   0  0  0  0  0  0  0  0  0  0  0  0
   28.7854  -20.5730   -7.6778 C   0  0  0  0  0  0  0  0  0  0  0  0
   27.4401  -20.5558   -7.3533 C   0  0  0  0  0  0  0  0  0  0  0  0
   26.1381  -20.2813  -11.7968 C   0  0  0  0  0  0  0  0  0  0  0  0
   24.9978  -20.4581  -12.2942 O   0  0  0  0  0  0  0  0  0  0  0  0
   26.2746  -15.5023  -15.6159 C   0  0  0  0  0  0  0  0  0  0  0  0
   27.5460  -16.8204  -15.5524 S   0  0  0  0  0  0  0  0  0  0  0  0
   26.7965  -18.2537  -14.7653 C   0  0  0  0  0  0  0  0  0  0  0  0
   27.7074  -19.4283  -14.6826 C   0  0  0  0  0  0  0  0  0  0  0  0
   27.0827  -20.6602  -14.0537 C   0  0  2  0  0  0  0  0  0  0  0  0
   27.2557  -20.5309  -12.6201 N   0  0  0  0  0  0  0  0  0  0  0  0
   27.7561  -21.8968  -14.5489 C   0  0  0  0  0  0  0  0  0  0  0  0
   28.9859  -22.0893  -14.4093 O   0  0  0  0  0  0  0  0  0  0  0  0
   24.4059  -26.3450  -14.5537 N   0  0  0  0  0  0  0  0  0  0  0  0
   24.1690  -25.4391  -15.6108 C   0  0  0  0  0  0  0  0  0  0  0  0
   22.9896  -25.1948  -15.9191 O   0  0  0  0  0  0  0  0  0  0  0  0
   25.2934  -24.8115  -16.3178 C   0  0  0  0  0  0  0  0  0  0  0  0
   26.6467  -25.2041  -15.8279 C   0  0  0  0  0  0  0  0  0  0  0  0
   27.6624  -24.1084  -15.7877 C   0  0  2  0  0  0  0  0  0  0  0  0
   27.0244  -22.9277  -15.2100 N   0  0  0  0  0  0  0  0  0  0  0  0
   28.2695  -23.8147  -17.0885 C   0  0  0  0  0  0  0  0  0  0  0  0
   27.6779  -22.8740  -17.9422 O   0  0  0  0  0  0  0  0  0  0  0  0
   29.3161  -24.3592  -17.5142 O   0  0  0  0  0  0  0  0  0  0  0  0
  2  1  1  1
  2 13  1  0
  2  3  1  0
  4  5  2  0
  4  3  1  0
  6  5  1  0
  7 12  2  0
  7  6  1  0
  8  7  1  0
  9  8  2  0
  9 10  1  0
 10 11  2  0
 11 12  1  0
 12  4  1  0
 13 14  2  0
 16 15  1  0
 17 18  1  0
 17 16  1  0
 19 18  1  6
 19 21  1  0
 20 19  1  0
 20 13  1  0
 21 22  2  0
 23 24  1  0
 24 26  1  0
 24 25  2  0
 26 27  1  0
 28 27  1  6
 28 30  1  0
 29 21  1  0
 29 28  1  0
 30 32  2  0
 30 31  1  0
M  END
$$$$
