WMQ.pdb
     RDKit          3D

 32 33  0  0  1  0  0  0  0  0999 V2000
   26.0347  -18.2159  -12.0527 N   0  0  0  0  0  0  0  0  0  0  0  0
   25.6948  -19.5102  -12.5605 C   0  0  1  0  0  0  0  0  0  0  0  0
   26.5254  -19.9834  -13.7105 C   0  0  0  0  0  0  0  0  0  0  0  0
   26.6177  -19.0070  -14.8113 C   0  0  0  0  0  0  0  0  0  0  0  0
   27.7739  -18.4276  -15.2534 C   0  0  0  0  0  0  0  0  0  0  0  0
   27.4479  -17.6227  -16.2721 N   0  0  0  0  0  0  0  0  0  0  0  0
   26.1235  -17.6712  -16.4914 C   0  0  0  0  0  0  0  0  0  0  0  0
   25.3006  -17.0478  -17.3924 C   0  0  0  0  0  0  0  0  0  0  0  0
   23.9399  -17.2603  -17.4175 C   0  0  0  0  0  0  0  0  0  0  0  0
   23.3939  -18.1331  -16.4994 C   0  0  0  0  0  0  0  0  0  0  0  0
   24.2095  -18.7681  -15.5863 C   0  0  0  0  0  0  0  0  0  0  0  0
   25.5756  -18.5461  -15.5724 C   0  0  0  0  0  0  0  0  0  0  0  0
   25.8611  -20.5071  -11.4457 C   0  0  0  0  0  0  0  0  0  0  0  0
   25.8500  -21.7380  -11.6983 O   0  0  0  0  0  0  0  0  0  0  0  0
   27.8193  -18.4028   -5.8177 C   0  0  0  0  0  0  0  0  0  0  0  0
   28.3801  -20.0985   -6.2277 S   0  0  0  0  0  0  0  0  0  0  0  0
   27.6029  -20.5613   -7.7825 C   0  0  0  0  0  0  0  0  0  0  0  0
   26.1166  -20.4819   -7.7488 C   0  0  0  0  0  0  0  0  0  0  0  0
   25.4390  -20.9053   -9.0390 C   0  0  2  0  0  0  0  0  0  0  0  0
   26.0332  -20.1177  -10.1012 N   0  0  0  0  0  0  0  0  0  0  0  0
   23.9699  -20.6521   -8.9638 C   0  0  0  0  0  0  0  0  0  0  0  0
   23.4845  -19.5017   -9.0629 O   0  0  0  0  0  0  0  0  0  0  0  0
   19.8762  -22.2436  -12.5959 N   0  0  0  0  0  0  0  0  0  0  0  0
   19.0060  -22.0100  -11.5085 C   0  0  0  0  0  0  0  0  0  0  0  0
   17.7815  -22.0426  -11.7213 O   0  0  0  0  0  0  0  0  0  0  0  0
   19.5460  -21.7366  -10.1699 C   0  0  0  0  0  0  0  0  0  0  0  0
   21.0341  -21.7669  -10.0702 C   0  0  0  0  0  0  0  0  0  0  0  0
   21.5959  -21.5090   -8.7094 C   0  0  2  0  0  0  0  0  0  0  0  0
   23.0406  -21.7178   -8.7747 N   0  0  0  0  0  0  0  0  0  0  0  0
   20.9793  -22.3131   -7.6512 C   0  0  0  0  0  0  0  0  0  0  0  0
   19.6565  -22.0639   -7.2615 O   0  0  0  0  0  0  0  0  0  0  0  0
   21.5638  -23.2419   -7.0438 O   0  0  0  0  0  0  0  0  0  0  0  0
  2  1  1  1
  2 13  1  0
  2  3  1  0
  4  5  2  0
  4  3  1  0
  6  5  1  0
  7 12  2  0
  7  6  1  0
  8  7  1  0
  9  8  2  0
  9 10  1  0
 10 11  2  0
 11 12  1  0
 12  4  1  0
 13 14  2  0
 16 15  1  0
 17 18  1  0
 17 16  1  0
 19 18  1  1
 19 21  1  0
 20 19  1  0
 20 13  1  0
 21 22  2  0
 23 24  1  0
 24 26  1  0
 24 25  2  0
 26 27  1  0
 28 27  1  6
 28 30  1  0
 29 21  1  0
 29 28  1  0
 30 32  2  0
 30 31  1  0
M  END
$$$$
