WMQ.pdb
     RDKit          3D

 32 33  0  0  1  0  0  0  0  0999 V2000
   27.7190  -21.7269  -13.9750 N   0  0  0  0  0  0  0  0  0  0  0  0
   26.7951  -21.9088  -12.8970 C   0  0  1  0  0  0  0  0  0  0  0  0
   26.7323  -20.7843  -11.9131 C   0  0  0  0  0  0  0  0  0  0  0  0
   27.7935  -20.8364  -10.8909 C   0  0  0  0  0  0  0  0  0  0  0  0
   29.1320  -20.9290  -11.1512 C   0  0  0  0  0  0  0  0  0  0  0  0
   29.7647  -20.9278   -9.9715 N   0  0  0  0  0  0  0  0  0  0  0  0
   28.8728  -20.8379   -8.9709 C   0  0  0  0  0  0  0  0  0  0  0  0
   28.9972  -20.8032   -7.6068 C   0  0  0  0  0  0  0  0  0  0  0  0
   27.9071  -20.7118   -6.7696 C   0  0  0  0  0  0  0  0  0  0  0  0
   26.6491  -20.6538   -7.3324 C   0  0  0  0  0  0  0  0  0  0  0  0
   26.5082  -20.6877   -8.7039 C   0  0  0  0  0  0  0  0  0  0  0  0
   27.6119  -20.7789   -9.5339 C   0  0  0  0  0  0  0  0  0  0  0  0
   25.4191  -22.0697  -13.4841 C   0  0  0  0  0  0  0  0  0  0  0  0
   24.9487  -21.1776  -14.2336 O   0  0  0  0  0  0  0  0  0  0  0  0
   24.4649  -26.6352  -17.8188 C   0  0  0  0  0  0  0  0  0  0  0  0
   23.2527  -25.8788  -16.6714 S   0  0  0  0  0  0  0  0  0  0  0  0
   24.0800  -25.6463  -15.0912 C   0  0  0  0  0  0  0  0  0  0  0  0
   23.2398  -24.9485  -14.0795 C   0  0  0  0  0  0  0  0  0  0  0  0
   23.4352  -23.4441  -14.0355 C   0  0  2  0  0  0  0  0  0  0  0  0
   24.6142  -23.1992  -13.2283 N   0  0  0  0  0  0  0  0  0  0  0  0
   22.2433  -22.7811  -13.4292 C   0  0  0  0  0  0  0  0  0  0  0  0
   21.9384  -22.9283  -12.2232 O   0  0  0  0  0  0  0  0  0  0  0  0
   19.9786  -17.2973  -15.2899 N   0  0  0  0  0  0  0  0  0  0  0  0
   18.9968  -17.6932  -14.3552 C   0  0  0  0  0  0  0  0  0  0  0  0
   18.0951  -16.8843  -14.0754 O   0  0  0  0  0  0  0  0  0  0  0  0
   19.0522  -19.0252  -13.7383 C   0  0  0  0  0  0  0  0  0  0  0  0
   20.2392  -19.8471  -14.1140 C   0  0  0  0  0  0  0  0  0  0  0  0
   20.2212  -21.2638  -13.6378 C   0  0  2  0  0  0  0  0  0  0  0  0
   21.3876  -21.9400  -14.2009 N   0  0  0  0  0  0  0  0  0  0  0  0
   18.9794  -21.9774  -13.9468 C   0  0  0  0  0  0  0  0  0  0  0  0
   17.8844  -21.8886  -13.0768 O   0  0  0  0  0  0  0  0  0  0  0  0
   18.8127  -22.6880  -14.9668 O   0  0  0  0  0  0  0  0  0  0  0  0
  2  1  1  6
  2 13  1  0
  2  3  1  0
  4  5  2  0
  4  3  1  0
  6  5  1  0
  7 12  2  0
  7  6  1  0
  8  7  1  0
  9  8  2  0
  9 10  1  0
 10 11  2  0
 11 12  1  0
 12  4  1  0
 13 14  2  0
 16 15  1  0
 17 18  1  0
 17 16  1  0
 19 18  1  1
 19 21  1  0
 20 19  1  0
 20 13  1  0
 21 22  2  0
 23 24  1  0
 24 26  1  0
 24 25  2  0
 26 27  1  0
 28 27  1  6
 28 30  1  0
 29 21  1  0
 29 28  1  0
 30 32  2  0
 30 31  1  0
M  END
$$$$
