PFD.pdb
     RDKit          3D

 27 28  0  0  1  0  0  0  0  0999 V2000
   20.4225  -10.0461  -17.4875 N   0  0  0  0  0  0  0  0  0  0  0  0
   20.4968  -11.4898  -17.6460 C   0  0  0  0  0  0  0  0  0  0  0  0
   20.2440  -11.9341  -16.2025 C   0  0  0  0  0  0  0  0  0  0  0  0
   19.0326  -11.0855  -15.8595 C   0  0  0  0  0  0  0  0  0  0  0  0
   19.2140   -9.8621  -16.7063 C   0  0  1  0  0  0  0  0  0  0  0  0
   19.3338   -8.6799  -15.8168 C   0  0  0  0  0  0  0  0  0  0  0  0
   18.4059   -8.4487  -15.0081 O   0  0  0  0  0  0  0  0  0  0  0  0
   20.4883   -7.8566  -15.9121 N   0  0  0  0  0  0  0  0  0  0  0  0
   20.7214   -6.7717  -15.0146 C   0  0  1  0  0  0  0  0  0  0  0  0
   22.0762   -6.8086  -14.3419 C   0  0  0  0  0  0  0  0  0  0  0  0
   22.1793   -7.9687  -13.4207 C   0  0  0  0  0  0  0  0  0  0  0  0
   21.5533   -7.9169  -12.1767 C   0  0  0  0  0  0  0  0  0  0  0  0
   21.6812   -9.0197  -11.3648 C   0  0  0  0  0  0  0  0  0  0  0  0
   22.3903  -10.1294  -11.7478 C   0  0  0  0  0  0  0  0  0  0  0  0
   22.9971  -10.1540  -12.9782 C   0  0  0  0  0  0  0  0  0  0  0  0
   22.8938   -9.0609  -13.8319 C   0  0  0  0  0  0  0  0  0  0  0  0
   20.4786   -5.4445  -15.6367 C   0  0  0  0  0  0  0  0  0  0  0  0
   21.0903   -5.1602  -16.6768 O   0  0  0  0  0  0  0  0  0  0  0  0
   19.5881   -4.5218  -15.0834 N   0  0  0  0  0  0  0  0  0  0  0  0
   19.1652   -3.2829  -15.7315 C   0  0  1  0  0  0  0  0  0  0  0  0
   17.6781   -3.1242  -15.7126 C   0  0  0  0  0  0  0  0  0  0  0  0
   17.2993   -1.8795  -16.4069 C   0  0  0  0  0  0  0  0  0  0  0  0
   18.1820   -1.1392  -16.9687 O   0  0  0  0  0  0  0  0  0  0  0  0
   19.7651   -2.2033  -14.9188 C   0  0  0  0  0  0  0  0  0  0  0  0
   19.6114   -1.0137  -15.2591 O   0  0  0  0  0  0  0  0  0  0  0  0
   16.0072   -1.3927  -16.5211 O   0  0  0  0  0  0  0  0  0  0  0  0
   20.4945   -2.4737  -13.7883 O   0  0  0  0  0  0  0  0  0  0  0  0
  1  2  1  0
  3  2  1  0
  4  5  1  0
  4  3  1  0
  5  6  1  1
  5  1  1  0
  6  7  2  0
  8  9  1  0
  8  6  1  0
 10 11  1  0
  9 10  1  6
 11 16  2  0
 12 13  2  0
 12 11  1  0
 13 14  1  0
 14 15  2  0
 16 15  1  0
 17 18  2  0
 17  9  1  0
 19 17  1  0
 20 24  1  0
 20 19  1  0
 20 21  1  1
 22 21  1  0
 22 26  1  0
 23 22  2  0
 24 27  1  0
 25 24  2  0
M  END
$$$$
