PFD.pdb
     RDKit          3D

 27 28  0  0  1  0  0  0  0  0999 V2000
   30.6215  -20.5375  -10.1254 N   0  0  0  0  0  0  0  0  0  0  0  0
   32.0019  -20.9126   -9.8637 C   0  0  0  0  0  0  0  0  0  0  0  0
   31.7891  -22.0342   -8.8431 C   0  0  0  0  0  0  0  0  0  0  0  0
   30.7096  -22.8425   -9.5407 C   0  0  0  0  0  0  0  0  0  0  0  0
   29.9681  -21.8148  -10.3411 C   0  0  1  0  0  0  0  0  0  0  0  0
   28.5592  -21.7735   -9.8761 C   0  0  0  0  0  0  0  0  0  0  0  0
   27.9170  -22.8478   -9.8315 O   0  0  0  0  0  0  0  0  0  0  0  0
   27.9909  -20.5263   -9.5002 N   0  0  0  0  0  0  0  0  0  0  0  0
   26.6235  -20.4035   -9.1105 C   0  0  1  0  0  0  0  0  0  0  0  0
   26.3802  -19.3696   -8.0329 C   0  0  0  0  0  0  0  0  0  0  0  0
   27.1452  -19.6959   -6.8028 C   0  0  0  0  0  0  0  0  0  0  0  0
   26.7702  -20.7936   -6.0304 C   0  0  0  0  0  0  0  0  0  0  0  0
   27.5145  -21.0494   -4.9025 C   0  0  0  0  0  0  0  0  0  0  0  0
   28.5818  -20.2681   -4.5399 C   0  0  0  0  0  0  0  0  0  0  0  0
   28.9296  -19.1931   -5.3184 C   0  0  0  0  0  0  0  0  0  0  0  0
   28.2048  -18.8973   -6.4679 C   0  0  0  0  0  0  0  0  0  0  0  0
   25.7112  -20.1872  -10.2631 C   0  0  0  0  0  0  0  0  0  0  0  0
   25.9270  -19.2240  -11.0130 O   0  0  0  0  0  0  0  0  0  0  0  0
   24.6299  -21.0338  -10.5176 N   0  0  0  0  0  0  0  0  0  0  0  0
   23.7606  -20.9432  -11.6880 C   0  0  1  0  0  0  0  0  0  0  0  0
   22.9777  -22.2001  -11.8986 C   0  0  0  0  0  0  0  0  0  0  0  0
   22.1868  -22.0944  -13.1388 C   0  0  0  0  0  0  0  0  0  0  0  0
   22.5705  -21.3486  -14.1079 O   0  0  0  0  0  0  0  0  0  0  0  0
   22.8182  -19.8466  -11.3792 C   0  0  0  0  0  0  0  0  0  0  0  0
   22.3981  -19.7008  -10.2144 O   0  0  0  0  0  0  0  0  0  0  0  0
   20.9942  -22.7567  -13.3818 O   0  0  0  0  0  0  0  0  0  0  0  0
   22.3868  -18.9743  -12.3467 O   0  0  0  0  0  0  0  0  0  0  0  0
  1  2  1  0
  3  2  1  0
  4  5  1  0
  4  3  1  0
  5  6  1  1
  5  1  1  0
  6  7  2  0
  8  9  1  0
  8  6  1  0
 10 11  1  0
  9 10  1  1
 11 16  2  0
 12 13  2  0
 12 11  1  0
 13 14  1  0
 14 15  2  0
 16 15  1  0
 17 18  2  0
 17  9  1  0
 19 17  1  0
 20 24  1  0
 20 19  1  0
 20 21  1  1
 22 21  1  0
 22 26  1  0
 23 22  2  0
 24 27  1  0
 25 24  2  0
M  END
$$$$
