PFD.pdb
     RDKit          3D

 27 28  0  0  1  0  0  0  0  0999 V2000
   27.9841  -20.7698  -17.5245 N   0  0  0  0  0  0  0  0  0  0  0  0
   29.2520  -20.8172  -18.2352 C   0  0  0  0  0  0  0  0  0  0  0  0
   30.0830  -21.6461  -17.2517 C   0  0  0  0  0  0  0  0  0  0  0  0
   29.1202  -22.7849  -16.9664 C   0  0  0  0  0  0  0  0  0  0  0  0
   27.7724  -22.1515  -17.1358 C   0  0  1  0  0  0  0  0  0  0  0  0
   27.0419  -22.2322  -15.8463 C   0  0  0  0  0  0  0  0  0  0  0  0
   26.6127  -23.3490  -15.4759 O   0  0  0  0  0  0  0  0  0  0  0  0
   26.8556  -21.0491  -15.0813 N   0  0  0  0  0  0  0  0  0  0  0  0
   26.1349  -21.0489  -13.8495 C   0  0  1  0  0  0  0  0  0  0  0  0
   26.7181  -20.1348  -12.7943 C   0  0  0  0  0  0  0  0  0  0  0  0
   26.0356  -20.3278  -11.4897 C   0  0  0  0  0  0  0  0  0  0  0  0
   24.8288  -19.6764  -11.2417 C   0  0  0  0  0  0  0  0  0  0  0  0
   24.2407  -19.8921  -10.0173 C   0  0  0  0  0  0  0  0  0  0  0  0
   24.8042  -20.7094   -9.0711 C   0  0  0  0  0  0  0  0  0  0  0  0
   25.9932  -21.3387   -9.3411 C   0  0  0  0  0  0  0  0  0  0  0  0
   26.6231  -21.1494  -10.5665 C   0  0  0  0  0  0  0  0  0  0  0  0
   24.6835  -20.7866  -14.0292 C   0  0  0  0  0  0  0  0  0  0  0  0
   24.3386  -19.7236  -14.5657 O   0  0  0  0  0  0  0  0  0  0  0  0
   23.7115  -21.6989  -13.6127 N   0  0  0  0  0  0  0  0  0  0  0  0
   22.2798  -21.5632  -13.8689 C   0  0  1  0  0  0  0  0  0  0  0  0
   21.5765  -22.8819  -13.8123 C   0  0  0  0  0  0  0  0  0  0  0  0
   20.1477  -22.7005  -14.1285 C   0  0  0  0  0  0  0  0  0  0  0  0
   19.2656  -22.6442  -13.2003 O   0  0  0  0  0  0  0  0  0  0  0  0
   21.7749  -20.7118  -12.7706 C   0  0  0  0  0  0  0  0  0  0  0  0
   22.2624  -20.8210  -11.6283 O   0  0  0  0  0  0  0  0  0  0  0  0
   19.6235  -22.5794  -15.4053 O   0  0  0  0  0  0  0  0  0  0  0  0
   20.7744  -19.7945  -12.9725 O   0  0  0  0  0  0  0  0  0  0  0  0
  1  2  1  0
  3  2  1  0
  4  5  1  0
  4  3  1  0
  5  6  1  1
  5  1  1  0
  6  7  2  0
  8  9  1  0
  8  6  1  0
 10 11  1  0
  9 10  1  1
 11 16  2  0
 12 13  2  0
 12 11  1  0
 13 14  1  0
 14 15  2  0
 16 15  1  0
 17 18  2  0
 17  9  1  0
 19 17  1  0
 20 24  1  0
 20 19  1  0
 20 21  1  1
 22 21  1  0
 22 26  1  0
 23 22  2  0
 24 27  1  0
 25 24  2  0
M  END
$$$$
