PFD.pdb
     RDKit          3D

 27 28  0  0  1  0  0  0  0  0999 V2000
   27.5975  -18.8761  -14.0133 N   0  0  0  0  0  0  0  0  0  0  0  0
   28.9433  -18.4610  -14.3758 C   0  0  0  0  0  0  0  0  0  0  0  0
   29.7648  -19.4671  -13.5646 C   0  0  0  0  0  0  0  0  0  0  0  0
   29.0500  -20.7587  -13.9196 C   0  0  0  0  0  0  0  0  0  0  0  0
   27.6413  -20.3168  -14.1784 C   0  0  1  0  0  0  0  0  0  0  0  0
   26.7443  -20.9883  -13.2051 C   0  0  0  0  0  0  0  0  0  0  0  0
   26.6065  -22.2307  -13.2837 O   0  0  0  0  0  0  0  0  0  0  0  0
   26.0772  -20.2053  -12.2245 N   0  0  0  0  0  0  0  0  0  0  0  0
   25.0010  -20.7243  -11.4441 C   0  0  1  0  0  0  0  0  0  0  0  0
   24.9130  -20.1414  -10.0506 C   0  0  0  0  0  0  0  0  0  0  0  0
   26.1653  -20.3898   -9.2921 C   0  0  0  0  0  0  0  0  0  0  0  0
   26.4875  -19.5729   -8.2099 C   0  0  0  0  0  0  0  0  0  0  0  0
   27.6585  -19.8490   -7.5436 C   0  0  0  0  0  0  0  0  0  0  0  0
   28.4839  -20.8793   -7.9152 C   0  0  0  0  0  0  0  0  0  0  0  0
   28.1429  -21.6684   -8.9847 C   0  0  0  0  0  0  0  0  0  0  0  0
   26.9676  -21.4253   -9.6876 C   0  0  0  0  0  0  0  0  0  0  0  0
   23.6892  -20.6340  -12.1361 C   0  0  0  0  0  0  0  0  0  0  0  0
   23.3273  -19.5313  -12.5718 O   0  0  0  0  0  0  0  0  0  0  0  0
   22.8654  -21.7492  -12.3047 N   0  0  0  0  0  0  0  0  0  0  0  0
   21.5992  -21.7448  -13.0330 C   0  0  1  0  0  0  0  0  0  0  0  0
   21.1213  -23.1312  -13.3272 C   0  0  0  0  0  0  0  0  0  0  0  0
   19.8031  -23.0763  -13.9859 C   0  0  0  0  0  0  0  0  0  0  0  0
   19.5818  -22.2729  -14.9597 O   0  0  0  0  0  0  0  0  0  0  0  0
   20.6350  -21.0979  -12.1176 C   0  0  0  0  0  0  0  0  0  0  0  0
   19.6577  -20.4797  -12.5837 O   0  0  0  0  0  0  0  0  0  0  0  0
   18.7066  -23.8493  -13.6393 O   0  0  0  0  0  0  0  0  0  0  0  0
   20.7847  -21.1578  -10.7548 O   0  0  0  0  0  0  0  0  0  0  0  0
  1  2  1  0
  3  2  1  0
  4  5  1  0
  4  3  1  0
  5  6  1  1
  5  1  1  0
  6  7  2  0
  8  9  1  0
  8  6  1  0
 10 11  1  0
  9 10  1  1
 11 16  2  0
 12 13  2  0
 12 11  1  0
 13 14  1  0
 14 15  2  0
 16 15  1  0
 17 18  2  0
 17  9  1  0
 19 17  1  0
 20 24  1  0
 20 19  1  0
 20 21  1  1
 22 21  1  0
 22 26  1  0
 23 22  2  0
 24 27  1  0
 25 24  2  0
M  END
$$$$
