PFD.pdb
     RDKit          3D

 27 28  0  0  1  0  0  0  0  0999 V2000
   36.6198  -27.5276    4.6479 N   0  0  0  0  0  0  0  0  0  0  0  0
   37.2366  -28.2075    3.5200 C   0  0  0  0  0  0  0  0  0  0  0  0
   37.7308  -27.0026    2.7146 C   0  0  0  0  0  0  0  0  0  0  0  0
   38.4038  -26.1944    3.8097 C   0  0  0  0  0  0  0  0  0  0  0  0
   37.6256  -26.5576    5.0382 C   0  0  1  0  0  0  0  0  0  0  0  0
   36.9936  -25.3300    5.5827 C   0  0  0  0  0  0  0  0  0  0  0  0
   37.7342  -24.3704    5.8975 O   0  0  0  0  0  0  0  0  0  0  0  0
   35.5805  -25.2852    5.7274 N   0  0  0  0  0  0  0  0  0  0  0  0
   34.9144  -24.1702    6.3190 C   0  0  1  0  0  0  0  0  0  0  0  0
   33.4472  -24.0692    5.9635 C   0  0  0  0  0  0  0  0  0  0  0  0
   33.1206  -22.7188    5.4391 C   0  0  0  0  0  0  0  0  0  0  0  0
   33.1802  -22.4806    4.0673 C   0  0  0  0  0  0  0  0  0  0  0  0
   32.8669  -21.2123    3.6376 C   0  0  0  0  0  0  0  0  0  0  0  0
   32.5095  -20.2145    4.5081 C   0  0  0  0  0  0  0  0  0  0  0  0
   32.4588  -20.4761    5.8541 C   0  0  0  0  0  0  0  0  0  0  0  0
   32.7677  -21.7447    6.3330 C   0  0  0  0  0  0  0  0  0  0  0  0
   35.1057  -24.0970    7.7906 C   0  0  0  0  0  0  0  0  0  0  0  0
   35.0021  -25.1408    8.4512 O   0  0  0  0  0  0  0  0  0  0  0  0
   35.3959  -22.8940    8.4382 N   0  0  0  0  0  0  0  0  0  0  0  0
   35.6600  -22.7627    9.8688 C   0  0  1  0  0  0  0  0  0  0  0  0
   36.5141  -21.5725   10.1704 C   0  0  0  0  0  0  0  0  0  0  0  0
   36.8062  -21.5199   11.6149 C   0  0  0  0  0  0  0  0  0  0  0  0
   36.3600  -22.4170   12.4142 O   0  0  0  0  0  0  0  0  0  0  0  0
   34.3315  -22.5581   10.4847 C   0  0  0  0  0  0  0  0  0  0  0  0
   34.1244  -22.9430   11.6523 O   0  0  0  0  0  0  0  0  0  0  0  0
   37.5580  -20.5384   12.2403 O   0  0  0  0  0  0  0  0  0  0  0  0
   33.3076  -21.9505    9.8023 O   0  0  0  0  0  0  0  0  0  0  0  0
  1  2  1  0
  3  2  1  0
  4  5  1  0
  4  3  1  0
  5  6  1  6
  5  1  1  0
  6  7  2  0
  8  9  1  0
  8  6  1  0
 10 11  1  0
  9 10  1  1
 11 16  2  0
 12 13  2  0
 12 11  1  0
 13 14  1  0
 14 15  2  0
 16 15  1  0
 17 18  2  0
 17  9  1  0
 19 17  1  0
 20 24  1  0
 20 19  1  0
 20 21  1  6
 22 21  1  0
 22 26  1  0
 23 22  2  0
 24 27  1  0
 25 24  2  0
M  END
$$$$
