PFD.pdb
     RDKit          3D

 27 28  0  0  1  0  0  0  0  0999 V2000
   19.4246  -11.8087  -16.9725 N   0  0  0  0  0  0  0  0  0  0  0  0
   19.2364  -13.2314  -17.2075 C   0  0  0  0  0  0  0  0  0  0  0  0
   18.4197  -13.6051  -15.9672 C   0  0  0  0  0  0  0  0  0  0  0  0
   17.3761  -12.5023  -15.9800 C   0  0  0  0  0  0  0  0  0  0  0  0
   18.0922  -11.3532  -16.6230 C   0  0  1  0  0  0  0  0  0  0  0  0
   18.1541  -10.2287  -15.6562 C   0  0  0  0  0  0  0  0  0  0  0  0
   17.0773   -9.7325  -15.2528 O   0  0  0  0  0  0  0  0  0  0  0  0
   19.4231   -9.7566  -15.2243 N   0  0  0  0  0  0  0  0  0  0  0  0
   19.5565   -8.6513  -14.3314 C   0  0  1  0  0  0  0  0  0  0  0  0
   20.6307   -8.8333  -13.2815 C   0  0  0  0  0  0  0  0  0  0  0  0
   20.6105   -7.7164  -12.3033 C   0  0  0  0  0  0  0  0  0  0  0  0
   21.2993   -6.5390  -12.5892 C   0  0  0  0  0  0  0  0  0  0  0  0
   21.2455   -5.5377  -11.6479 C   0  0  0  0  0  0  0  0  0  0  0  0
   20.5492   -5.6759  -10.4745 C   0  0  0  0  0  0  0  0  0  0  0  0
   19.8798   -6.8458  -10.2180 C   0  0  0  0  0  0  0  0  0  0  0  0
   19.9068   -7.8850  -11.1419 C   0  0  0  0  0  0  0  0  0  0  0  0
   19.7251   -7.3550  -15.0376 C   0  0  0  0  0  0  0  0  0  0  0  0
   20.6416   -7.2496  -15.8656 O   0  0  0  0  0  0  0  0  0  0  0  0
   18.8848   -6.2665  -14.7928 N   0  0  0  0  0  0  0  0  0  0  0  0
   18.9377   -4.9970  -15.5134 C   0  0  1  0  0  0  0  0  0  0  0  0
   17.7325   -4.7957  -16.3759 C   0  0  0  0  0  0  0  0  0  0  0  0
   17.8237   -3.4963  -17.0671 C   0  0  0  0  0  0  0  0  0  0  0  0
   18.9275   -3.0947  -17.5802 O   0  0  0  0  0  0  0  0  0  0  0  0
   18.9420   -3.9601  -14.4595 C   0  0  0  0  0  0  0  0  0  0  0  0
   19.1065   -2.7635  -14.7686 O   0  0  0  0  0  0  0  0  0  0  0  0
   16.7756   -2.6046  -17.2285 O   0  0  0  0  0  0  0  0  0  0  0  0
   18.7684   -4.2783  -13.1359 O   0  0  0  0  0  0  0  0  0  0  0  0
  1  2  1  0
  3  2  1  0
  4  5  1  0
  4  3  1  0
  5  6  1  1
  5  1  1  0
  6  7  2  0
  8  9  1  0
  8  6  1  0
 10 11  1  0
  9 10  1  1
 11 16  2  0
 12 13  2  0
 12 11  1  0
 13 14  1  0
 14 15  2  0
 16 15  1  0
 17 18  2  0
 17  9  1  0
 19 17  1  0
 20 24  1  0
 20 19  1  0
 20 21  1  6
 22 21  1  0
 22 26  1  0
 23 22  2  0
 24 27  1  0
 25 24  2  0
M  END
$$$$
