PFD.pdb
     RDKit          3D

 27 28  0  0  1  0  0  0  0  0999 V2000
   18.9821  -13.6491  -18.2412 N   0  0  0  0  0  0  0  0  0  0  0  0
   18.2821  -14.9193  -18.3473 C   0  0  0  0  0  0  0  0  0  0  0  0
   18.8015  -15.6209  -17.0892 C   0  0  0  0  0  0  0  0  0  0  0  0
   18.6079  -14.5221  -16.0594 C   0  0  0  0  0  0  0  0  0  0  0  0
   18.7589  -13.2642  -16.8603 C   0  0  1  0  0  0  0  0  0  0  0  0
   19.9147  -12.4979  -16.3313 C   0  0  0  0  0  0  0  0  0  0  0  0
   19.8997  -12.1572  -15.1262 O   0  0  0  0  0  0  0  0  0  0  0  0
   20.9909  -12.1789  -17.2031 N   0  0  0  0  0  0  0  0  0  0  0  0
   22.1188  -11.4203  -16.7684 C   0  0  1  0  0  0  0  0  0  0  0  0
   23.4016  -11.7487  -17.5004 C   0  0  0  0  0  0  0  0  0  0  0  0
   24.5709  -11.1331  -16.8230 C   0  0  0  0  0  0  0  0  0  0  0  0
   25.1137   -9.9520  -17.3255 C   0  0  0  0  0  0  0  0  0  0  0  0
   26.1952   -9.4261  -16.6581 C   0  0  0  0  0  0  0  0  0  0  0  0
   26.7280  -10.0255  -15.5455 C   0  0  0  0  0  0  0  0  0  0  0  0
   26.1742  -11.1881  -15.0718 C   0  0  0  0  0  0  0  0  0  0  0  0
   25.0795  -11.7553  -15.7154 C   0  0  0  0  0  0  0  0  0  0  0  0
   21.8682   -9.9558  -16.7765 C   0  0  0  0  0  0  0  0  0  0  0  0
   21.3465   -9.4526  -17.7822 O   0  0  0  0  0  0  0  0  0  0  0  0
   22.2028   -9.1437  -15.6906 N   0  0  0  0  0  0  0  0  0  0  0  0
   21.8594   -7.7287  -15.5738 C   0  0  1  0  0  0  0  0  0  0  0  0
   21.8846   -7.2652  -14.1520 C   0  0  0  0  0  0  0  0  0  0  0  0
   21.5308   -5.8351  -14.0861 C   0  0  0  0  0  0  0  0  0  0  0  0
   22.3887   -4.9565  -13.7189 O   0  0  0  0  0  0  0  0  0  0  0  0
   22.9178   -7.0164  -16.3211 C   0  0  0  0  0  0  0  0  0  0  0  0
   24.0545   -7.5196  -16.4158 O   0  0  0  0  0  0  0  0  0  0  0  0
   20.2881   -5.3069  -14.3963 O   0  0  0  0  0  0  0  0  0  0  0  0
   22.6844   -5.8042  -16.9205 O   0  0  0  0  0  0  0  0  0  0  0  0
  1  2  1  0
  3  2  1  0
  4  5  1  0
  4  3  1  0
  5  6  1  1
  5  1  1  0
  6  7  2  0
  8  9  1  0
  8  6  1  0
 10 11  1  0
  9 10  1  6
 11 16  2  0
 12 13  2  0
 12 11  1  0
 13 14  1  0
 14 15  2  0
 16 15  1  0
 17 18  2  0
 17  9  1  0
 19 17  1  0
 20 24  1  0
 20 19  1  0
 20 21  1  1
 22 21  1  0
 22 26  1  0
 23 22  2  0
 24 27  1  0
 25 24  2  0
M  END
$$$$
