PFD.pdb
     RDKit          3D

 27 28  0  0  1  0  0  0  0  0999 V2000
   26.8309  -19.5010  -13.2950 N   0  0  0  0  0  0  0  0  0  0  0  0
   27.6908  -19.4329  -14.4657 C   0  0  0  0  0  0  0  0  0  0  0  0
   28.8349  -20.3455  -14.0150 C   0  0  0  0  0  0  0  0  0  0  0  0
   28.0505  -21.5350  -13.4908 C   0  0  0  0  0  0  0  0  0  0  0  0
   26.7675  -20.9232  -13.0150 C   0  0  1  0  0  0  0  0  0  0  0  0
   26.6331  -21.1699  -11.5576 C   0  0  0  0  0  0  0  0  0  0  0  0
   26.4070  -22.3398  -11.1718 O   0  0  0  0  0  0  0  0  0  0  0  0
   26.7644  -20.0791  -10.6561 N   0  0  0  0  0  0  0  0  0  0  0  0
   26.6129  -20.2390   -9.2460 C   0  0  1  0  0  0  0  0  0  0  0  0
   27.3798  -19.2256   -8.4249 C   0  0  0  0  0  0  0  0  0  0  0  0
   27.4087  -19.6165   -6.9927 C   0  0  0  0  0  0  0  0  0  0  0  0
   28.2698  -20.6289   -6.5732 C   0  0  0  0  0  0  0  0  0  0  0  0
   28.2554  -20.9492   -5.2357 C   0  0  0  0  0  0  0  0  0  0  0  0
   27.4356  -20.3099   -4.3412 C   0  0  0  0  0  0  0  0  0  0  0  0
   26.5973  -19.3166   -4.7809 C   0  0  0  0  0  0  0  0  0  0  0  0
   26.5789  -18.9599   -6.1251 C   0  0  0  0  0  0  0  0  0  0  0  0
   25.1905  -20.2937   -8.8200 C   0  0  0  0  0  0  0  0  0  0  0  0
   24.3965  -19.4779   -9.3106 O   0  0  0  0  0  0  0  0  0  0  0  0
   24.7338  -21.2316   -7.8913 N   0  0  0  0  0  0  0  0  0  0  0  0
   23.3278  -21.5447   -7.6488 C   0  0  1  0  0  0  0  0  0  0  0  0
   23.1682  -22.7202   -6.7380 C   0  0  0  0  0  0  0  0  0  0  0  0
   21.7355  -22.9932   -6.5204 C   0  0  0  0  0  0  0  0  0  0  0  0
   20.8998  -22.9609   -7.4916 O   0  0  0  0  0  0  0  0  0  0  0  0
   22.7814  -20.3478   -6.9743 C   0  0  0  0  0  0  0  0  0  0  0  0
   23.5243  -19.6462   -6.2600 O   0  0  0  0  0  0  0  0  0  0  0  0
   21.1594  -23.2977   -5.2976 O   0  0  0  0  0  0  0  0  0  0  0  0
   21.4661  -19.9813   -7.1121 O   0  0  0  0  0  0  0  0  0  0  0  0
  1  2  1  0
  3  2  1  0
  4  5  1  0
  4  3  1  0
  5  6  1  1
  5  1  1  0
  6  7  2  0
  8  9  1  0
  8  6  1  0
 10 11  1  0
  9 10  1  1
 11 16  2  0
 12 13  2  0
 12 11  1  0
 13 14  1  0
 14 15  2  0
 16 15  1  0
 17 18  2  0
 17  9  1  0
 19 17  1  0
 20 24  1  0
 20 19  1  0
 20 21  1  1
 22 21  1  0
 22 26  1  0
 23 22  2  0
 24 27  1  0
 25 24  2  0
M  END
$$$$
