PFD.pdb
     RDKit          3D

 27 28  0  0  1  0  0  0  0  0999 V2000
   23.8782  -19.0913  -18.2423 N   0  0  0  0  0  0  0  0  0  0  0  0
   23.4211  -20.4663  -18.3658 C   0  0  0  0  0  0  0  0  0  0  0  0
   22.1860  -20.4235  -17.4616 C   0  0  0  0  0  0  0  0  0  0  0  0
   21.5154  -19.1590  -17.9683 C   0  0  0  0  0  0  0  0  0  0  0  0
   22.6648  -18.3215  -18.4416 C   0  0  1  0  0  0  0  0  0  0  0  0
   22.6984  -17.0665  -17.6498 C   0  0  0  0  0  0  0  0  0  0  0  0
   22.2848  -17.0988  -16.4681 O   0  0  0  0  0  0  0  0  0  0  0  0
   23.1947  -15.8800  -18.2544 N   0  0  0  0  0  0  0  0  0  0  0  0
   23.1935  -14.6254  -17.5741 C   0  0  1  0  0  0  0  0  0  0  0  0
   24.5708  -14.0329  -17.3714 C   0  0  0  0  0  0  0  0  0  0  0  0
   25.4906  -15.0262  -16.7612 C   0  0  0  0  0  0  0  0  0  0  0  0
   25.5447  -15.1525  -15.3743 C   0  0  0  0  0  0  0  0  0  0  0  0
   26.4136  -16.0886  -14.8641 C   0  0  0  0  0  0  0  0  0  0  0  0
   27.1992  -16.8713  -15.6711 C   0  0  0  0  0  0  0  0  0  0  0  0
   27.1263  -16.7264  -17.0336 C   0  0  0  0  0  0  0  0  0  0  0  0
   26.2613  -15.7920  -17.5931 C   0  0  0  0  0  0  0  0  0  0  0  0
   22.2794  -13.6321  -18.1951 C   0  0  0  0  0  0  0  0  0  0  0  0
   22.1913  -13.6043  -19.4313 O   0  0  0  0  0  0  0  0  0  0  0  0
   21.5269  -12.7406  -17.4273 N   0  0  0  0  0  0  0  0  0  0  0  0
   20.6471  -11.7104  -17.9736 C   0  0  1  0  0  0  0  0  0  0  0  0
   19.5891  -11.3064  -16.9966 C   0  0  0  0  0  0  0  0  0  0  0  0
   18.6470  -12.4220  -16.7904 C   0  0  0  0  0  0  0  0  0  0  0  0
   18.1725  -13.0806  -17.7823 O   0  0  0  0  0  0  0  0  0  0  0  0
   21.5279  -10.5492  -18.2220 C   0  0  0  0  0  0  0  0  0  0  0  0
   22.7141  -10.5786  -17.8391 O   0  0  0  0  0  0  0  0  0  0  0  0
   18.1884  -12.8600  -15.5585 O   0  0  0  0  0  0  0  0  0  0  0  0
   21.0745   -9.4269  -18.8686 O   0  0  0  0  0  0  0  0  0  0  0  0
  1  2  1  0
  3  2  1  0
  4  5  1  0
  4  3  1  0
  5  6  1  1
  5  1  1  0
  6  7  2  0
  8  9  1  0
  8  6  1  0
 10 11  1  0
  9 10  1  6
 11 16  2  0
 12 13  2  0
 12 11  1  0
 13 14  1  0
 14 15  2  0
 16 15  1  0
 17 18  2  0
 17  9  1  0
 19 17  1  0
 20 24  1  0
 20 19  1  0
 20 21  1  1
 22 21  1  0
 22 26  1  0
 23 22  2  0
 24 27  1  0
 25 24  2  0
M  END
$$$$
