PFD.pdb
     RDKit          3D

 27 28  0  0  1  0  0  0  0  0999 V2000
   31.0645  -20.9487   -9.8603 N   0  0  0  0  0  0  0  0  0  0  0  0
   32.4220  -21.3263   -9.5005 C   0  0  0  0  0  0  0  0  0  0  0  0
   32.1383  -22.2816   -8.3379 C   0  0  0  0  0  0  0  0  0  0  0  0
   31.0509  -23.1470   -8.9494 C   0  0  0  0  0  0  0  0  0  0  0  0
   30.3714  -22.2222   -9.9134 C   0  0  1  0  0  0  0  0  0  0  0  0
   28.9519  -22.0692   -9.5077 C   0  0  0  0  0  0  0  0  0  0  0  0
   28.2524  -23.1018   -9.3936 O   0  0  0  0  0  0  0  0  0  0  0  0
   28.4383  -20.7666   -9.2643 N   0  0  0  0  0  0  0  0  0  0  0  0
   27.0682  -20.5419   -8.9343 C   0  0  1  0  0  0  0  0  0  0  0  0
   26.8514  -19.4421   -7.9180 C   0  0  0  0  0  0  0  0  0  0  0  0
   27.6461  -19.6920   -6.6888 C   0  0  0  0  0  0  0  0  0  0  0  0
   28.7779  -18.9202   -6.4326 C   0  0  0  0  0  0  0  0  0  0  0  0
   29.4752  -19.1946   -5.2793 C   0  0  0  0  0  0  0  0  0  0  0  0
   29.0871  -20.1812   -4.4093 C   0  0  0  0  0  0  0  0  0  0  0  0
   27.9687  -20.9265   -4.6857 C   0  0  0  0  0  0  0  0  0  0  0  0
   27.2331  -20.6833   -5.8407 C   0  0  0  0  0  0  0  0  0  0  0  0
   26.2129  -20.3292  -10.1305 C   0  0  0  0  0  0  0  0  0  0  0  0
   26.4302  -19.3373  -10.8416 O   0  0  0  0  0  0  0  0  0  0  0  0
   25.1829  -21.2103  -10.4675 N   0  0  0  0  0  0  0  0  0  0  0  0
   24.3597  -21.1059  -11.6697 C   0  0  1  0  0  0  0  0  0  0  0  0
   23.9613  -22.4504  -12.1900 C   0  0  0  0  0  0  0  0  0  0  0  0
   23.1406  -22.2930  -13.4050 C   0  0  0  0  0  0  0  0  0  0  0  0
   23.5842  -21.6590  -14.4267 O   0  0  0  0  0  0  0  0  0  0  0  0
   23.1420  -20.3877  -11.2369 C   0  0  0  0  0  0  0  0  0  0  0  0
   22.4614  -19.7627  -12.0739 O   0  0  0  0  0  0  0  0  0  0  0  0
   21.8566  -22.7874  -13.5685 O   0  0  0  0  0  0  0  0  0  0  0  0
   22.7333  -20.3881   -9.9269 O   0  0  0  0  0  0  0  0  0  0  0  0
  1  2  1  0
  3  2  1  0
  4  5  1  0
  4  3  1  0
  5  6  1  1
  5  1  1  0
  6  7  2  0
  8  9  1  0
  8  6  1  0
 10 11  1  0
  9 10  1  1
 11 16  2  0
 12 13  2  0
 12 11  1  0
 13 14  1  0
 14 15  2  0
 16 15  1  0
 17 18  2  0
 17  9  1  0
 19 17  1  0
 20 24  1  0
 20 19  1  0
 20 21  1  1
 22 21  1  0
 22 26  1  0
 23 22  2  0
 24 27  1  0
 25 24  2  0
M  END
$$$$
