PFD.pdb
     RDKit          3D

 27 28  0  0  1  0  0  0  0  0999 V2000
   27.3834  -19.2051  -14.9875 N   0  0  0  0  0  0  0  0  0  0  0  0
   28.7280  -18.8037  -15.3692 C   0  0  0  0  0  0  0  0  0  0  0  0
   29.5496  -19.6284  -14.3744 C   0  0  0  0  0  0  0  0  0  0  0  0
   28.8923  -20.9879  -14.5320 C   0  0  0  0  0  0  0  0  0  0  0  0
   27.4811  -20.6504  -14.9078 C   0  0  1  0  0  0  0  0  0  0  0  0
   26.5691  -21.1857  -13.8663 C   0  0  0  0  0  0  0  0  0  0  0  0
   26.3950  -22.4246  -13.8093 O   0  0  0  0  0  0  0  0  0  0  0  0
   25.9292  -20.2815  -12.9758 N   0  0  0  0  0  0  0  0  0  0  0  0
   24.9233  -20.7071  -12.0573 C   0  0  1  0  0  0  0  0  0  0  0  0
   24.9405  -19.9668  -10.7379 C   0  0  0  0  0  0  0  0  0  0  0  0
   26.0962  -20.3905   -9.9074 C   0  0  0  0  0  0  0  0  0  0  0  0
   26.0673  -20.1803   -8.5300 C   0  0  0  0  0  0  0  0  0  0  0  0
   27.1641  -20.5930   -7.8102 C   0  0  0  0  0  0  0  0  0  0  0  0
   28.2468  -21.1871   -8.4067 C   0  0  0  0  0  0  0  0  0  0  0  0
   28.2495  -21.3821   -9.7649 C   0  0  0  0  0  0  0  0  0  0  0  0
   27.1613  -20.9803  -10.5321 C   0  0  0  0  0  0  0  0  0  0  0  0
   23.5600  -20.6981  -12.6482 C   0  0  0  0  0  0  0  0  0  0  0  0
   23.1472  -19.6481  -13.1620 O   0  0  0  0  0  0  0  0  0  0  0  0
   22.7437  -21.8313  -12.6380 N   0  0  0  0  0  0  0  0  0  0  0  0
   21.4176  -21.9060  -13.2460 C   0  0  1  0  0  0  0  0  0  0  0  0
   20.8789  -23.3013  -13.2371 C   0  0  0  0  0  0  0  0  0  0  0  0
   19.5466  -23.3268  -13.8689 C   0  0  0  0  0  0  0  0  0  0  0  0
   19.0037  -22.2545  -14.3140 O   0  0  0  0  0  0  0  0  0  0  0  0
   20.5571  -21.0626  -12.3892 C   0  0  0  0  0  0  0  0  0  0  0  0
   20.6996  -21.0897  -11.1509 O   0  0  0  0  0  0  0  0  0  0  0  0
   18.7681  -24.4600  -14.0408 O   0  0  0  0  0  0  0  0  0  0  0  0
   19.5951  -20.2413  -12.9216 O   0  0  0  0  0  0  0  0  0  0  0  0
  1  2  1  0
  3  2  1  0
  4  5  1  0
  4  3  1  0
  5  6  1  1
  5  1  1  0
  6  7  2  0
  8  9  1  0
  8  6  1  0
 10 11  1  0
  9 10  1  1
 11 16  2  0
 12 13  2  0
 12 11  1  0
 13 14  1  0
 14 15  2  0
 16 15  1  0
 17 18  2  0
 17  9  1  0
 19 17  1  0
 20 24  1  0
 20 19  1  0
 20 21  1  1
 22 21  1  0
 22 26  1  0
 23 22  2  0
 24 27  1  0
 25 24  2  0
M  END
$$$$
