PFD.pdb
     RDKit          3D

 27 28  0  0  1  0  0  0  0  0999 V2000
   30.6918  -20.7024   -9.9531 N   0  0  0  0  0  0  0  0  0  0  0  0
   32.0743  -21.0555   -9.6725 C   0  0  0  0  0  0  0  0  0  0  0  0
   31.8751  -22.0172   -8.4976 C   0  0  0  0  0  0  0  0  0  0  0  0
   30.7704  -22.9017   -9.0477 C   0  0  0  0  0  0  0  0  0  0  0  0
   30.0201  -21.9883   -9.9693 C   0  0  1  0  0  0  0  0  0  0  0  0
   28.6236  -21.8618   -9.4826 C   0  0  0  0  0  0  0  0  0  0  0  0
   27.9411  -22.9047   -9.3590 O   0  0  0  0  0  0  0  0  0  0  0  0
   28.1119  -20.5719   -9.1757 N   0  0  0  0  0  0  0  0  0  0  0  0
   26.7553  -20.3689   -8.7821 C   0  0  1  0  0  0  0  0  0  0  0  0
   26.5822  -19.3692   -7.6596 C   0  0  0  0  0  0  0  0  0  0  0  0
   27.4157  -19.7387   -6.4875 C   0  0  0  0  0  0  0  0  0  0  0  0
   27.0490  -20.8273   -5.6983 C   0  0  0  0  0  0  0  0  0  0  0  0
   27.8578  -21.1244   -4.6264 C   0  0  0  0  0  0  0  0  0  0  0  0
   28.9793  -20.3915   -4.3333 C   0  0  0  0  0  0  0  0  0  0  0  0
   29.3175  -19.3244   -5.1267 C   0  0  0  0  0  0  0  0  0  0  0  0
   28.5284  -18.9879   -6.2214 C   0  0  0  0  0  0  0  0  0  0  0  0
   25.8654  -20.0367   -9.9246 C   0  0  0  0  0  0  0  0  0  0  0  0
   25.9571  -18.9108  -10.4351 O   0  0  0  0  0  0  0  0  0  0  0  0
   24.9400  -20.9526  -10.4300 N   0  0  0  0  0  0  0  0  0  0  0  0
   24.2517  -20.8178  -11.7113 C   0  0  1  0  0  0  0  0  0  0  0  0
   24.1939  -22.1161  -12.4516 C   0  0  0  0  0  0  0  0  0  0  0  0
   23.4577  -21.9378  -13.7169 C   0  0  0  0  0  0  0  0  0  0  0  0
   22.2407  -22.3219  -13.8351 O   0  0  0  0  0  0  0  0  0  0  0  0
   22.8734  -20.4116  -11.3630 C   0  0  0  0  0  0  0  0  0  0  0  0
   22.1749  -19.8089  -12.2015 O   0  0  0  0  0  0  0  0  0  0  0  0
   23.9768  -21.3646  -14.8665 O   0  0  0  0  0  0  0  0  0  0  0  0
   22.3333  -20.6809  -10.1305 O   0  0  0  0  0  0  0  0  0  0  0  0
  1  2  1  0
  3  2  1  0
  4  5  1  0
  4  3  1  0
  5  6  1  1
  5  1  1  0
  6  7  2  0
  8  9  1  0
  8  6  1  0
 10 11  1  0
  9 10  1  1
 11 16  2  0
 12 13  2  0
 12 11  1  0
 13 14  1  0
 14 15  2  0
 16 15  1  0
 17 18  2  0
 17  9  1  0
 19 17  1  0
 20 24  1  0
 20 19  1  0
 20 21  1  1
 22 21  1  0
 22 26  1  0
 23 22  2  0
 24 27  1  0
 25 24  2  0
M  END
$$$$
