PFD.pdb
     RDKit          3D

 27 28  0  0  1  0  0  0  0  0999 V2000
   23.1826  -13.3336  -20.9027 N   0  0  0  0  0  0  0  0  0  0  0  0
   23.5174  -14.4616  -21.7572 C   0  0  0  0  0  0  0  0  0  0  0  0
   23.2888  -15.6186  -20.7805 C   0  0  0  0  0  0  0  0  0  0  0  0
   21.9335  -15.2376  -20.2120 C   0  0  0  0  0  0  0  0  0  0  0  0
   21.9298  -13.7410  -20.2949 C   0  0  1  0  0  0  0  0  0  0  0  0
   21.8025  -13.1876  -18.9236 C   0  0  0  0  0  0  0  0  0  0  0  0
   20.8370  -13.5623  -18.2194 O   0  0  0  0  0  0  0  0  0  0  0  0
   22.7727  -12.2585  -18.4595 N   0  0  0  0  0  0  0  0  0  0  0  0
   22.7330  -11.7173  -17.1396 C   0  0  1  0  0  0  0  0  0  0  0  0
   23.9482  -12.0480  -16.3010 C   0  0  0  0  0  0  0  0  0  0  0  0
   24.0485  -13.5110  -16.0670 C   0  0  0  0  0  0  0  0  0  0  0  0
   23.4153  -14.0757  -14.9614 C   0  0  0  0  0  0  0  0  0  0  0  0
   23.5410  -15.4351  -14.7943 C   0  0  0  0  0  0  0  0  0  0  0  0
   24.2546  -16.2147  -15.6682 C   0  0  0  0  0  0  0  0  0  0  0  0
   24.8684  -15.6330  -16.7488 C   0  0  0  0  0  0  0  0  0  0  0  0
   24.7677  -14.2616  -16.9568 C   0  0  0  0  0  0  0  0  0  0  0  0
   22.4630  -10.2563  -17.1218 C   0  0  0  0  0  0  0  0  0  0  0  0
   23.0622   -9.5363  -17.9337 O   0  0  0  0  0  0  0  0  0  0  0  0
   21.5608   -9.6834  -16.2227 N   0  0  0  0  0  0  0  0  0  0  0  0
   21.2427   -8.2592  -16.1581 C   0  0  1  0  0  0  0  0  0  0  0  0
   19.8782   -7.9684  -16.6972 C   0  0  0  0  0  0  0  0  0  0  0  0
   19.6066   -6.5213  -16.6161 C   0  0  0  0  0  0  0  0  0  0  0  0
   20.3935   -5.6679  -17.1595 O   0  0  0  0  0  0  0  0  0  0  0  0
   21.2606   -7.9294  -14.7170 C   0  0  0  0  0  0  0  0  0  0  0  0
   21.3552   -8.8430  -13.8738 O   0  0  0  0  0  0  0  0  0  0  0  0
   18.5222   -5.9493  -15.9705 O   0  0  0  0  0  0  0  0  0  0  0  0
   21.1753   -6.6334  -14.2739 O   0  0  0  0  0  0  0  0  0  0  0  0
  1  2  1  0
  3  2  1  0
  4  5  1  0
  4  3  1  0
  5  6  1  1
  5  1  1  0
  6  7  2  0
  8  9  1  0
  8  6  1  0
 10 11  1  0
  9 10  1  6
 11 16  2  0
 12 13  2  0
 12 11  1  0
 13 14  1  0
 14 15  2  0
 16 15  1  0
 17 18  2  0
 17  9  1  0
 19 17  1  0
 20 24  1  0
 20 19  1  0
 20 21  1  1
 22 21  1  0
 22 26  1  0
 23 22  2  0
 24 27  1  0
 25 24  2  0
M  END
$$$$
