PFD.pdb
     RDKit          3D

 27 28  0  0  1  0  0  0  0  0999 V2000
   28.4241  -20.6263  -15.1783 N   0  0  0  0  0  0  0  0  0  0  0  0
   28.8833  -19.5954  -16.0954 C   0  0  0  0  0  0  0  0  0  0  0  0
   27.6941  -18.6325  -16.0381 C   0  0  0  0  0  0  0  0  0  0  0  0
   27.4893  -18.5341  -14.5368 C   0  0  0  0  0  0  0  0  0  0  0  0
   27.9588  -19.8657  -14.0338 C   0  0  1  0  0  0  0  0  0  0  0  0
   26.8229  -20.5519  -13.3690 C   0  0  0  0  0  0  0  0  0  0  0  0
   26.3798  -21.6033  -13.8855 O   0  0  0  0  0  0  0  0  0  0  0  0
   26.2805  -19.9972  -12.1782 N   0  0  0  0  0  0  0  0  0  0  0  0
   25.2111  -20.6225  -11.4697 C   0  0  1  0  0  0  0  0  0  0  0  0
   25.0576  -20.1482  -10.0412 C   0  0  0  0  0  0  0  0  0  0  0  0
   26.3161  -20.3470   -9.2786 C   0  0  0  0  0  0  0  0  0  0  0  0
   27.2399  -21.2965   -9.7112 C   0  0  0  0  0  0  0  0  0  0  0  0
   28.3880  -21.4377   -8.9672 C   0  0  0  0  0  0  0  0  0  0  0  0
   28.6283  -20.6849   -7.8463 C   0  0  0  0  0  0  0  0  0  0  0  0
   27.7019  -19.7569   -7.4423 C   0  0  0  0  0  0  0  0  0  0  0  0
   26.5266  -19.5805   -8.1647 C   0  0  0  0  0  0  0  0  0  0  0  0
   23.9152  -20.5442  -12.1924 C   0  0  0  0  0  0  0  0  0  0  0  0
   23.6362  -19.4946  -12.7903 O   0  0  0  0  0  0  0  0  0  0  0  0
   23.0159  -21.6126  -12.2132 N   0  0  0  0  0  0  0  0  0  0  0  0
   21.8070  -21.6658  -13.0313 C   0  0  1  0  0  0  0  0  0  0  0  0
   21.2672  -23.0566  -13.1373 C   0  0  0  0  0  0  0  0  0  0  0  0
   20.0956  -23.0713  -14.0327 C   0  0  0  0  0  0  0  0  0  0  0  0
   20.0311  -22.2973  -15.0522 O   0  0  0  0  0  0  0  0  0  0  0  0
   20.8219  -20.8311  -12.3110 C   0  0  0  0  0  0  0  0  0  0  0  0
   20.8877  -20.7274  -11.0702 O   0  0  0  0  0  0  0  0  0  0  0  0
   18.9840  -23.8837  -13.8769 O   0  0  0  0  0  0  0  0  0  0  0  0
   19.8258  -20.1592  -12.9740 O   0  0  0  0  0  0  0  0  0  0  0  0
  1  2  1  0
  3  2  1  0
  4  5  1  0
  4  3  1  0
  5  6  1  6
  5  1  1  0
  6  7  2  0
  8  9  1  0
  8  6  1  0
 10 11  1  0
  9 10  1  1
 11 16  2  0
 12 13  2  0
 12 11  1  0
 13 14  1  0
 14 15  2  0
 16 15  1  0
 17 18  2  0
 17  9  1  0
 19 17  1  0
 20 24  1  0
 20 19  1  0
 20 21  1  1
 22 21  1  0
 22 26  1  0
 23 22  2  0
 24 27  1  0
 25 24  2  0
M  END
$$$$
