PFD.pdb
     RDKit          3D

 27 28  0  0  1  0  0  0  0  0999 V2000
   26.9504  -18.5339  -14.5226 N   0  0  0  0  0  0  0  0  0  0  0  0
   28.1594  -17.7938  -14.8473 C   0  0  0  0  0  0  0  0  0  0  0  0
   29.2028  -18.9064  -14.7114 C   0  0  0  0  0  0  0  0  0  0  0  0
   28.5335  -20.0126  -15.5073 C   0  0  0  0  0  0  0  0  0  0  0  0
   27.0716  -19.7335  -15.3295 C   0  0  1  0  0  0  0  0  0  0  0  0
   26.4437  -20.8939  -14.6498 C   0  0  0  0  0  0  0  0  0  0  0  0
   26.4067  -21.9889  -15.2567 O   0  0  0  0  0  0  0  0  0  0  0  0
   25.9097  -20.7250  -13.3436 N   0  0  0  0  0  0  0  0  0  0  0  0
   24.8731  -21.5633  -12.8346 C   0  0  1  0  0  0  0  0  0  0  0  0
   25.2419  -22.2970  -11.5637 C   0  0  0  0  0  0  0  0  0  0  0  0
   25.8264  -21.3664  -10.5650 C   0  0  0  0  0  0  0  0  0  0  0  0
   27.2084  -21.1945  -10.5112 C   0  0  0  0  0  0  0  0  0  0  0  0
   27.6945  -20.3201   -9.5675 C   0  0  0  0  0  0  0  0  0  0  0  0
   26.8689  -19.6394   -8.7096 C   0  0  0  0  0  0  0  0  0  0  0  0
   25.5117  -19.8271   -8.7840 C   0  0  0  0  0  0  0  0  0  0  0  0
   24.9763  -20.7020   -9.7233 C   0  0  0  0  0  0  0  0  0  0  0  0
   23.5795  -20.8502  -12.6741 C   0  0  0  0  0  0  0  0  0  0  0  0
   23.5705  -19.7785  -12.0512 O   0  0  0  0  0  0  0  0  0  0  0  0
   22.3887  -21.3536  -13.2026 N   0  0  0  0  0  0  0  0  0  0  0  0
   21.1096  -20.6482  -13.1893 C   0  0  1  0  0  0  0  0  0  0  0  0
   20.8967  -19.8578  -14.4411 C   0  0  0  0  0  0  0  0  0  0  0  0
   19.5453  -19.2678  -14.4360 C   0  0  0  0  0  0  0  0  0  0  0  0
   19.1666  -18.4870  -13.4927 O   0  0  0  0  0  0  0  0  0  0  0  0
   20.0870  -21.7140  -13.1248 C   0  0  0  0  0  0  0  0  0  0  0  0
   20.2403  -22.7601  -13.7856 O   0  0  0  0  0  0  0  0  0  0  0  0
   18.5779  -19.4844  -15.4040 O   0  0  0  0  0  0  0  0  0  0  0  0
   18.9611  -21.5855  -12.3509 O   0  0  0  0  0  0  0  0  0  0  0  0
  1  2  1  0
  3  2  1  0
  4  5  1  0
  4  3  1  0
  5  6  1  1
  5  1  1  0
  6  7  2  0
  8  9  1  0
  8  6  1  0
 10 11  1  0
  9 10  1  1
 11 16  2  0
 12 13  2  0
 12 11  1  0
 13 14  1  0
 14 15  2  0
 16 15  1  0
 17 18  2  0
 17  9  1  0
 19 17  1  0
 20 24  1  0
 20 19  1  0
 20 21  1  6
 22 21  1  0
 22 26  1  0
 23 22  2  0
 24 27  1  0
 25 24  2  0
M  END
$$$$
