PFD.pdb
     RDKit          3D

 27 28  0  0  1  0  0  0  0  0999 V2000
   28.5536  -20.1797  -15.2345 N   0  0  0  0  0  0  0  0  0  0  0  0
   28.9438  -19.0422  -16.0522 C   0  0  0  0  0  0  0  0  0  0  0  0
   27.7277  -18.1337  -15.8504 C   0  0  0  0  0  0  0  0  0  0  0  0
   27.5787  -18.2013  -14.3409 C   0  0  0  0  0  0  0  0  0  0  0  0
   28.1094  -19.5609  -13.9996 C   0  0  1  0  0  0  0  0  0  0  0  0
   27.0227  -20.3534  -13.3719 C   0  0  0  0  0  0  0  0  0  0  0  0
   26.5692  -21.3391  -13.9974 O   0  0  0  0  0  0  0  0  0  0  0  0
   26.5371  -19.9699  -12.0924 N   0  0  0  0  0  0  0  0  0  0  0  0
   25.5145  -20.7032  -11.4192 C   0  0  1  0  0  0  0  0  0  0  0  0
   25.4255  -20.4170   -9.9361 C   0  0  0  0  0  0  0  0  0  0  0  0
   26.7337  -20.6472   -9.2723 C   0  0  0  0  0  0  0  0  0  0  0  0
   27.6131  -21.5937   -9.7949 C   0  0  0  0  0  0  0  0  0  0  0  0
   28.8105  -21.7648   -9.1403 C   0  0  0  0  0  0  0  0  0  0  0  0
   29.1398  -21.0436   -8.0211 C   0  0  0  0  0  0  0  0  0  0  0  0
   28.2554  -20.1180   -7.5275 C   0  0  0  0  0  0  0  0  0  0  0  0
   27.0329  -19.9119   -8.1577 C   0  0  0  0  0  0  0  0  0  0  0  0
   24.1829  -20.5626  -12.0632 C   0  0  0  0  0  0  0  0  0  0  0  0
   23.7515  -19.4212  -12.2818 O   0  0  0  0  0  0  0  0  0  0  0  0
   23.4163  -21.6731  -12.4234 N   0  0  0  0  0  0  0  0  0  0  0  0
   22.3075  -21.6448  -13.3740 C   0  0  1  0  0  0  0  0  0  0  0  0
   22.0333  -22.9976  -13.9499 C   0  0  0  0  0  0  0  0  0  0  0  0
   20.9099  -22.9174  -14.9018 C   0  0  0  0  0  0  0  0  0  0  0  0
   20.7101  -21.8637  -15.6037 O   0  0  0  0  0  0  0  0  0  0  0  0
   21.1342  -21.2240  -12.5789 C   0  0  0  0  0  0  0  0  0  0  0  0
   20.0943  -20.8533  -13.1583 O   0  0  0  0  0  0  0  0  0  0  0  0
   19.9860  -23.9244  -15.1304 O   0  0  0  0  0  0  0  0  0  0  0  0
   21.1550  -21.2289  -11.2068 O   0  0  0  0  0  0  0  0  0  0  0  0
  1  2  1  0
  3  2  1  0
  4  5  1  0
  4  3  1  0
  5  6  1  6
  5  1  1  0
  6  7  2  0
  8  9  1  0
  8  6  1  0
 10 11  1  0
  9 10  1  1
 11 16  2  0
 12 13  2  0
 12 11  1  0
 13 14  1  0
 14 15  2  0
 16 15  1  0
 17 18  2  0
 17  9  1  0
 19 17  1  0
 20 24  1  0
 20 19  1  0
 20 21  1  1
 22 21  1  0
 22 26  1  0
 23 22  2  0
 24 27  1  0
 25 24  2  0
M  END
$$$$
