PFD.pdb
     RDKit          3D

 27 28  0  0  1  0  0  0  0  0999 V2000
   30.5983  -20.8145  -10.3101 N   0  0  0  0  0  0  0  0  0  0  0  0
   32.0033  -21.0856  -10.0506 C   0  0  0  0  0  0  0  0  0  0  0  0
   31.8947  -21.8189   -8.7107 C   0  0  0  0  0  0  0  0  0  0  0  0
   30.7871  -22.8086   -9.0253 C   0  0  0  0  0  0  0  0  0  0  0  0
   29.9629  -22.0931  -10.0527 C   0  0  1  0  0  0  0  0  0  0  0  0
   28.5917  -21.9041   -9.5169 C   0  0  0  0  0  0  0  0  0  0  0  0
   27.8612  -22.9129   -9.3858 O   0  0  0  0  0  0  0  0  0  0  0  0
   28.1573  -20.5953   -9.1734 N   0  0  0  0  0  0  0  0  0  0  0  0
   26.8327  -20.3334   -8.7114 C   0  0  1  0  0  0  0  0  0  0  0  0
   26.7561  -19.2898   -7.6186 C   0  0  0  0  0  0  0  0  0  0  0  0
   27.5563  -19.6999   -6.4369 C   0  0  0  0  0  0  0  0  0  0  0  0
   28.5999  -18.8875   -5.9972 C   0  0  0  0  0  0  0  0  0  0  0  0
   29.3067  -19.3160   -4.8980 C   0  0  0  0  0  0  0  0  0  0  0  0
   29.0102  -20.4887   -4.2516 C   0  0  0  0  0  0  0  0  0  0  0  0
   27.9775  -21.2699   -4.7054 C   0  0  0  0  0  0  0  0  0  0  0  0
   27.2358  -20.8753   -5.8138 C   0  0  0  0  0  0  0  0  0  0  0  0
   25.8892  -20.0119   -9.8133 C   0  0  0  0  0  0  0  0  0  0  0  0
   25.9321  -18.8788  -10.3142 O   0  0  0  0  0  0  0  0  0  0  0  0
   24.9670  -20.9456  -10.2913 N   0  0  0  0  0  0  0  0  0  0  0  0
   24.1986  -20.7986  -11.5249 C   0  0  1  0  0  0  0  0  0  0  0  0
   24.2969  -22.0145  -12.3903 C   0  0  0  0  0  0  0  0  0  0  0  0
   25.1958  -21.7467  -13.5282 C   0  0  0  0  0  0  0  0  0  0  0  0
   25.6919  -20.5807  -13.7207 O   0  0  0  0  0  0  0  0  0  0  0  0
   22.7956  -20.6454  -11.0842 C   0  0  0  0  0  0  0  0  0  0  0  0
   22.5120  -20.7464   -9.8744 O   0  0  0  0  0  0  0  0  0  0  0  0
   25.5838  -22.6820  -14.4741 O   0  0  0  0  0  0  0  0  0  0  0  0
   21.7843  -20.3926  -11.9767 O   0  0  0  0  0  0  0  0  0  0  0  0
  1  2  1  0
  3  2  1  0
  4  5  1  0
  4  3  1  0
  5  6  1  1
  5  1  1  0
  6  7  2  0
  8  9  1  0
  8  6  1  0
 10 11  1  0
  9 10  1  1
 11 16  2  0
 12 13  2  0
 12 11  1  0
 13 14  1  0
 14 15  2  0
 16 15  1  0
 17 18  2  0
 17  9  1  0
 19 17  1  0
 20 24  1  0
 20 19  1  0
 20 21  1  6
 22 21  1  0
 22 26  1  0
 23 22  2  0
 24 27  1  0
 25 24  2  0
M  END
$$$$
