RVP.pdb
     RDKit          3D

 26 26  0  0  1  0  0  0  0  0999 V2000
   11.6988  -23.4624   -0.7080 N   0  0  0  0  0  0  0  0  0  0  0  0
   12.7922  -24.0663   -1.3942 C   0  0  0  0  0  0  0  0  0  0  0  0
   12.7464  -24.1670   -2.6756 N   0  0  0  0  0  0  0  0  0  0  0  0
   13.9298  -24.5607   -0.7143 N   0  0  0  0  0  0  0  0  0  0  0  0
   14.7912  -23.6367   -0.0235 C   0  0  0  0  0  0  0  0  0  0  0  0
   14.1969  -23.1779    1.2859 C   0  0  0  0  0  0  0  0  0  0  0  0
   15.1133  -22.2560    2.0272 C   0  0  0  0  0  0  0  0  0  0  0  0
   14.5595  -20.8646    2.1902 C   0  0  2  0  0  0  0  0  0  0  0  0
   13.8938  -20.3937    1.0078 N   0  0  0  0  0  0  0  0  0  0  0  0
   15.7228  -19.9693    2.5314 C   0  0  0  0  0  0  0  0  0  0  0  0
   16.3089  -19.3222    1.6542 O   0  0  0  0  0  0  0  0  0  0  0  0
   13.5369  -24.5209   -3.2185 C   0  0  0  0  0  0  0  0  0  0  0  0
   17.5609  -16.3745    4.1379 C   0  0  2  0  0  0  0  0  0  0  0  0
   16.6023  -17.4973    3.8283 C   0  0  0  0  0  0  0  0  0  0  0  0
   15.2723  -17.1124    4.4903 C   0  0  2  0  0  0  0  0  0  0  0  0
   17.0709  -18.8431    4.3494 N   0  0  0  0  0  0  0  0  0  0  0  0
   16.1739  -19.8506    3.8860 C   0  0  0  0  0  0  0  0  0  0  0  0
   17.3725  -18.8224    5.7778 O   0  0  0  0  0  0  0  0  0  0  0  0
   16.3538  -18.7241    6.5674 N   0  0  0  0  0  0  0  0  0  0  0  0
   18.6535  -18.8985    6.3697 C   0  0  0  0  0  0  0  0  0  0  0  0
   19.8871  -18.6843    5.5857 C   0  0  0  0  0  0  0  0  0  0  0  0
   21.0321  -18.8338    6.5255 C   0  0  0  0  0  0  0  0  0  0  0  0
   20.4532  -19.7997    7.5455 C   0  0  1  0  0  0  0  0  0  0  0  0
   19.0641  -19.1617    7.7296 C   0  0  0  0  0  0  0  0  0  0  0  0
   19.3481  -17.8970    8.4841 O   0  0  0  0  0  0  0  0  0  0  0  0
   19.5126  -17.9886    9.8458 O   0  0  0  0  0  0  0  0  0  0  0  0
  2  3  2  0
  2  1  1  0
  4  2  1  0
  5  4  1  0
  6  5  1  0
  7  8  1  0
  7  6  1  0
  8 10  1  0
  8  9  1  6
 10 11  2  0
 13 12  1  6
 13 14  1  0
 13 15  1  0
 15 16  1  1
 16 10  1  0
 17 15  1  0
 17 18  2  0
 19 23  1  0
 19 17  1  0
 20 19  1  0
 21 22  1  0
 21 20  1  0
 22 23  1  0
 23 24  1  1
 24 26  2  0
 24 25  1  0
M  END
$$$$
