RVP.pdb
     RDKit          3D

 26 26  0  0  1  0  0  0  0  0999 V2000
   22.0428  -18.7291  -13.1038 N   0  0  0  0  0  0  0  0  0  0  0  0
   21.4860  -19.7060  -13.9794 C   0  0  0  0  0  0  0  0  0  0  0  0
   20.9780  -19.3250  -15.0979 N   0  0  0  0  0  0  0  0  0  0  0  0
   21.4718  -21.0842  -13.6615 N   0  0  0  0  0  0  0  0  0  0  0  0
   22.1105  -21.5319  -12.4513 C   0  0  0  0  0  0  0  0  0  0  0  0
   23.6100  -21.3687  -12.5076 C   0  0  0  0  0  0  0  0  0  0  0  0
   24.1402  -20.6282  -11.3203 C   0  0  0  0  0  0  0  0  0  0  0  0
   25.6187  -20.3509  -11.3989 C   0  0  2  0  0  0  0  0  0  0  0  0
   26.2225  -20.9066  -12.5778 N   0  0  0  0  0  0  0  0  0  0  0  0
   26.2400  -20.9429  -10.1601 C   0  0  0  0  0  0  0  0  0  0  0  0
   25.8095  -21.9949   -9.6704 O   0  0  0  0  0  0  0  0  0  0  0  0
   20.4975  -19.9758  -15.7228 C   0  0  0  0  0  0  0  0  0  0  0  0
   30.2350  -19.8429   -9.0003 C   0  0  1  0  0  0  0  0  0  0  0  0
   29.4336  -21.0707   -8.6457 C   0  0  0  0  0  0  0  0  0  0  0  0
   29.5259  -22.0018   -9.8622 C   0  0  1  0  0  0  0  0  0  0  0  0
   27.9801  -20.7657   -8.3348 N   0  0  0  0  0  0  0  0  0  0  0  0
   27.3473  -20.2943   -9.5229 C   0  0  0  0  0  0  0  0  0  0  0  0
   27.8170  -19.9621   -7.1267 O   0  0  0  0  0  0  0  0  0  0  0  0
   27.0670  -18.9159   -7.2429 N   0  0  0  0  0  0  0  0  0  0  0  0
   28.3930  -20.2163   -5.8615 C   0  0  0  0  0  0  0  0  0  0  0  0
   29.3152  -21.3490   -5.6396 C   0  0  0  0  0  0  0  0  0  0  0  0
   29.7233  -21.3044   -4.2084 C   0  0  0  0  0  0  0  0  0  0  0  0
   28.5070  -20.6511   -3.5743 C   0  0  1  0  0  0  0  0  0  0  0  0
   28.2683  -19.5265   -4.5984 C   0  0  0  0  0  0  0  0  0  0  0  0
   29.4070  -18.5793   -4.3620 O   0  0  0  0  0  0  0  0  0  0  0  0
   29.3226  -17.7363   -3.2795 O   0  0  0  0  0  0  0  0  0  0  0  0
  2  3  2  0
  2  1  1  0
  4  2  1  0
  5  4  1  0
  6  5  1  0
  7  8  1  0
  7  6  1  0
  8 10  1  0
  8  9  1  6
 10 11  2  0
 13 12  1  1
 13 14  1  0
 13 15  1  0
 15 16  1  6
 16 10  1  0
 17 15  1  0
 17 18  2  0
 19 23  1  0
 19 17  1  0
 20 19  1  0
 21 22  1  0
 21 20  1  0
 22 23  1  0
 23 24  1  1
 24 26  2  0
 24 25  1  0
M  END
$$$$
