RVP.pdb
     RDKit          3D

 26 26  0  0  1  0  0  0  0  0999 V2000
   19.9034  -21.3031  -15.8758 N   0  0  0  0  0  0  0  0  0  0  0  0
   19.2306  -20.6039  -16.9197 C   0  0  0  0  0  0  0  0  0  0  0  0
   18.1418  -19.9749  -16.6493 N   0  0  0  0  0  0  0  0  0  0  0  0
   19.7189  -20.5769  -18.2469 N   0  0  0  0  0  0  0  0  0  0  0  0
   20.9633  -21.2344  -18.5505 C   0  0  0  0  0  0  0  0  0  0  0  0
   21.6002  -21.8380  -17.3223 C   0  0  0  0  0  0  0  0  0  0  0  0
   23.0104  -22.2703  -17.5748 C   0  0  0  0  0  0  0  0  0  0  0  0
   23.8887  -21.1676  -18.1056 C   0  0  2  0  0  0  0  0  0  0  0  0
   24.5078  -21.5088  -19.3560 N   0  0  0  0  0  0  0  0  0  0  0  0
   24.9359  -20.9003  -17.0553 C   0  0  0  0  0  0  0  0  0  0  0  0
   25.8892  -21.6729  -16.8932 O   0  0  0  0  0  0  0  0  0  0  0  0
   17.6086  -19.4833  -17.3696 C   0  0  0  0  0  0  0  0  0  0  0  0
   26.9510  -17.6671  -13.9038 C   0  0  1  0  0  0  0  0  0  0  0  0
   26.0813  -18.0373  -15.0795 C   0  0  0  0  0  0  0  0  0  0  0  0
   24.8349  -17.1473  -14.9802 C   0  0  2  0  0  0  0  0  0  0  0  0
   25.6759  -19.4994  -15.0853 N   0  0  0  0  0  0  0  0  0  0  0  0
   24.8461  -19.7396  -16.2203 C   0  0  0  0  0  0  0  0  0  0  0  0
   25.1827  -19.9544  -13.7885 O   0  0  0  0  0  0  0  0  0  0  0  0
   23.9174  -19.7937  -13.5789 N   0  0  0  0  0  0  0  0  0  0  0  0
   25.9465  -20.5450  -12.7566 C   0  0  0  0  0  0  0  0  0  0  0  0
   27.4234  -20.5558  -12.7900 C   0  0  0  0  0  0  0  0  0  0  0  0
   27.8821  -21.2477  -11.5540 C   0  0  0  0  0  0  0  0  0  0  0  0
   26.7160  -22.1852  -11.2899 C   0  0  1  0  0  0  0  0  0  0  0  0
   25.5522  -21.2074  -11.5348 C   0  0  0  0  0  0  0  0  0  0  0  0
   25.6059  -20.2840  -10.3540 O   0  0  0  0  0  0  0  0  0  0  0  0
   24.9676  -20.6809   -9.2031 O   0  0  0  0  0  0  0  0  0  0  0  0
  2  3  2  0
  2  1  1  0
  4  2  1  0
  5  4  1  0
  6  5  1  0
  7  8  1  0
  7  6  1  0
  8 10  1  0
  8  9  1  6
 10 11  2  0
 13 12  1  6
 13 14  1  0
 13 15  1  0
 15 16  1  1
 16 10  1  0
 17 15  1  0
 17 18  2  0
 19 23  1  0
 19 17  1  0
 20 19  1  0
 21 22  1  0
 21 20  1  0
 22 23  1  0
 23 24  1  1
 24 26  2  0
 24 25  1  0
M  END
$$$$
