RVP.pdb
     RDKit          3D

 26 26  0  0  1  0  0  0  0  0999 V2000
   18.6991  -25.5712   -5.2083 N   0  0  0  0  0  0  0  0  0  0  0  0
   17.3569  -25.4331   -5.6671 C   0  0  0  0  0  0  0  0  0  0  0  0
   16.3958  -25.8487   -4.9202 N   0  0  0  0  0  0  0  0  0  0  0  0
   17.0427  -24.8535   -6.9185 N   0  0  0  0  0  0  0  0  0  0  0  0
   17.8002  -25.2391   -8.0806 C   0  0  0  0  0  0  0  0  0  0  0  0
   19.0902  -24.4645   -8.1994 C   0  0  0  0  0  0  0  0  0  0  0  0
   19.7756  -24.7102   -9.5067 C   0  0  0  0  0  0  0  0  0  0  0  0
   18.8211  -24.9325  -10.6507 C   0  0  2  0  0  0  0  0  0  0  0  0
   18.2435  -26.2476  -10.6398 N   0  0  0  0  0  0  0  0  0  0  0  0
   19.6025  -24.7111  -11.9201 C   0  0  0  0  0  0  0  0  0  0  0  0
   20.2805  -25.6186  -12.4187 O   0  0  0  0  0  0  0  0  0  0  0  0
   15.4208  -25.8156   -5.2257 C   0  0  0  0  0  0  0  0  0  0  0  0
   18.2390  -23.0461  -15.2116 C   0  0  1  0  0  0  0  0  0  0  0  0
   19.4262  -22.2891  -14.6702 C   0  0  0  0  0  0  0  0  0  0  0  0
   20.2273  -21.8269  -15.8949 C   0  0  2  0  0  0  0  0  0  0  0  0
   20.3053  -23.1280  -13.7615 N   0  0  0  0  0  0  0  0  0  0  0  0
   19.5744  -23.4380  -12.5766 C   0  0  0  0  0  0  0  0  0  0  0  0
   21.6430  -22.5673  -13.5942 O   0  0  0  0  0  0  0  0  0  0  0  0
   21.7149  -21.4781  -12.9020 N   0  0  0  0  0  0  0  0  0  0  0  0
   22.8483  -23.0951  -14.1097 C   0  0  0  0  0  0  0  0  0  0  0  0
   22.8711  -24.3178  -14.9384 C   0  0  0  0  0  0  0  0  0  0  0  0
   24.2923  -24.5704  -15.3033 C   0  0  0  0  0  0  0  0  0  0  0  0
   25.0160  -23.9523  -14.1190 C   0  0  1  0  0  0  0  0  0  0  0  0
   24.2157  -22.6427  -13.9963 C   0  0  0  0  0  0  0  0  0  0  0  0
   24.6442  -21.8476  -15.1936 O   0  0  0  0  0  0  0  0  0  0  0  0
   25.8600  -21.2087  -15.1345 O   0  0  0  0  0  0  0  0  0  0  0  0
  2  3  2  0
  2  1  1  0
  4  2  1  0
  5  4  1  0
  6  5  1  0
  7  8  1  0
  7  6  1  0
  8 10  1  0
  8  9  1  6
 10 11  2  0
 13 12  1  6
 13 14  1  0
 13 15  1  0
 15 16  1  6
 16 10  1  0
 17 15  1  0
 17 18  2  0
 19 23  1  0
 19 17  1  0
 20 19  1  0
 21 22  1  0
 21 20  1  0
 22 23  1  0
 23 24  1  6
 24 26  2  0
 24 25  1  0
M  END
$$$$
