RVP.pdb
     RDKit          3D

 26 26  0  0  1  0  0  0  0  0999 V2000
   21.7519  -26.5850  -17.4293 N   0  0  0  0  0  0  0  0  0  0  0  0
   22.5901  -27.5410  -18.0731 C   0  0  0  0  0  0  0  0  0  0  0  0
   22.0871  -28.6671  -18.4382 N   0  0  0  0  0  0  0  0  0  0  0  0
   23.9599  -27.2952  -18.3259 N   0  0  0  0  0  0  0  0  0  0  0  0
   24.8288  -26.9671  -17.2258 C   0  0  0  0  0  0  0  0  0  0  0  0
   24.4286  -25.6770  -16.5522 C   0  0  0  0  0  0  0  0  0  0  0  0
   25.6164  -24.8741  -16.1238 C   0  0  0  0  0  0  0  0  0  0  0  0
   25.7424  -23.5587  -16.8470 C   0  0  2  0  0  0  0  0  0  0  0  0
   26.3850  -23.6909  -18.1248 N   0  0  0  0  0  0  0  0  0  0  0  0
   26.5357  -22.6426  -15.9511 C   0  0  0  0  0  0  0  0  0  0  0  0
   27.7686  -22.7269  -15.8828 O   0  0  0  0  0  0  0  0  0  0  0  0
   22.6398  -29.3712  -18.9319 C   0  0  0  0  0  0  0  0  0  0  0  0
   25.1821  -18.8267  -14.5671 C   0  0  1  0  0  0  0  0  0  0  0  0
   26.5444  -19.4649  -14.4551 C   0  0  0  0  0  0  0  0  0  0  0  0
   27.2058  -19.2935  -15.8293 C   0  0  1  0  0  0  0  0  0  0  0  0
   26.4862  -20.9357  -14.0870 N   0  0  0  0  0  0  0  0  0  0  0  0
   25.8725  -21.6513  -15.1573 C   0  0  0  0  0  0  0  0  0  0  0  0
   25.9606  -21.1618  -12.7437 O   0  0  0  0  0  0  0  0  0  0  0  0
   24.7605  -21.6377  -12.6809 N   0  0  0  0  0  0  0  0  0  0  0  0
   26.6300  -20.9134  -11.5241 C   0  0  0  0  0  0  0  0  0  0  0  0
   28.0309  -20.4460  -11.4863 C   0  0  0  0  0  0  0  0  0  0  0  0
   28.3988  -20.2876  -10.0523 C   0  0  0  0  0  0  0  0  0  0  0  0
   27.4983  -21.3230   -9.3999 C   0  0  1  0  0  0  0  0  0  0  0  0
   26.1893  -21.0215  -10.1525 C   0  0  0  0  0  0  0  0  0  0  0  0
   25.7539  -19.6978   -9.5976 O   0  0  0  0  0  0  0  0  0  0  0  0
   25.0024  -19.7036   -8.4466 O   0  0  0  0  0  0  0  0  0  0  0  0
  2  3  2  0
  2  1  1  0
  4  2  1  0
  5  4  1  0
  6  5  1  0
  7  8  1  0
  7  6  1  0
  8 10  1  0
  8  9  1  6
 10 11  2  0
 13 12  1  1
 13 14  1  0
 13 15  1  0
 15 16  1  6
 16 10  1  0
 17 15  1  0
 17 18  2  0
 19 23  1  0
 19 17  1  0
 20 19  1  0
 21 22  1  0
 21 20  1  0
 22 23  1  0
 23 24  1  1
 24 26  2  0
 24 25  1  0
M  END
$$$$
