RVP.pdb
     RDKit          3D

 26 26  0  0  1  0  0  0  0  0999 V2000
   19.4108  -23.3366   -7.6196 N   0  0  0  0  0  0  0  0  0  0  0  0
   18.8735  -23.5617   -8.9203 C   0  0  0  0  0  0  0  0  0  0  0  0
   17.8578  -24.3400   -9.0504 N   0  0  0  0  0  0  0  0  0  0  0  0
   19.4191  -22.9580  -10.0773 N   0  0  0  0  0  0  0  0  0  0  0  0
   20.7962  -22.5381  -10.0669 C   0  0  0  0  0  0  0  0  0  0  0  0
   20.9411  -21.0776   -9.7141 C   0  0  0  0  0  0  0  0  0  0  0  0
   22.0634  -20.4274  -10.4603 C   0  0  0  0  0  0  0  0  0  0  0  0
   23.4236  -20.9320  -10.0550 C   0  0  2  0  0  0  0  0  0  0  0  0
   23.6849  -20.7502   -8.6543 N   0  0  0  0  0  0  0  0  0  0  0  0
   24.4329  -20.1771  -10.8812 C   0  0  0  0  0  0  0  0  0  0  0  0
   24.5804  -18.9553  -10.7489 O   0  0  0  0  0  0  0  0  0  0  0  0
   17.4464  -24.5435   -9.9637 C   0  0  0  0  0  0  0  0  0  0  0  0
   28.6467  -20.3422  -13.3375 C   0  0  1  0  0  0  0  0  0  0  0  0
   27.5258  -20.9793  -12.5543 C   0  0  0  0  0  0  0  0  0  0  0  0
   27.3748  -22.4010  -13.1126 C   0  0  2  0  0  0  0  0  0  0  0  0
   26.2114  -20.2314  -12.6770 N   0  0  0  0  0  0  0  0  0  0  0  0
   25.2450  -20.8646  -11.8406 C   0  0  0  0  0  0  0  0  0  0  0  0
   25.8320  -19.9789  -14.0641 O   0  0  0  0  0  0  0  0  0  0  0  0
   25.1619  -20.9193  -14.6451 N   0  0  0  0  0  0  0  0  0  0  0  0
   26.1237  -18.8211  -14.8201 C   0  0  0  0  0  0  0  0  0  0  0  0
   27.0775  -17.7993  -14.3420 C   0  0  0  0  0  0  0  0  0  0  0  0
   27.1389  -16.7387  -15.3852 C   0  0  0  0  0  0  0  0  0  0  0  0
   25.7508  -16.8421  -15.9941 C   0  0  1  0  0  0  0  0  0  0  0  0
   25.6440  -18.3739  -16.1073 C   0  0  0  0  0  0  0  0  0  0  0  0
   26.5983  -18.7188  -17.2119 O   0  0  0  0  0  0  0  0  0  0  0  0
   27.7763  -19.3385  -16.8682 O   0  0  0  0  0  0  0  0  0  0  0  0
  2  3  2  0
  2  1  1  0
  4  2  1  0
  5  4  1  0
  6  5  1  0
  7  8  1  0
  7  6  1  0
  8 10  1  0
  8  9  1  1
 10 11  2  0
 13 12  1  1
 13 14  1  0
 13 15  1  0
 15 16  1  6
 16 10  1  0
 17 15  1  0
 17 18  2  0
 19 23  1  0
 19 17  1  0
 20 19  1  0
 21 22  1  0
 21 20  1  0
 22 23  1  0
 23 24  1  6
 24 26  2  0
 24 25  1  0
M  END
$$$$
