RVP.pdb
     RDKit          3D

 26 26  0  0  1  0  0  0  0  0999 V2000
   23.5942  -24.8191  -13.6973 N   0  0  0  0  0  0  0  0  0  0  0  0
   23.8220  -24.5484  -15.0779 C   0  0  0  0  0  0  0  0  0  0  0  0
   25.0292  -24.5375  -15.5213 N   0  0  0  0  0  0  0  0  0  0  0  0
   22.7644  -24.2904  -15.9811 N   0  0  0  0  0  0  0  0  0  0  0  0
   21.6103  -23.5629  -15.5211 C   0  0  0  0  0  0  0  0  0  0  0  0
   21.5631  -22.1617  -16.0803 C   0  0  0  0  0  0  0  0  0  0  0  0
   20.9808  -21.1865  -15.1061 C   0  0  0  0  0  0  0  0  0  0  0  0
   21.3922  -21.4463  -13.6805 C   0  0  2  0  0  0  0  0  0  0  0  0
   20.3433  -21.1586  -12.7423 N   0  0  0  0  0  0  0  0  0  0  0  0
   22.5944  -20.5792  -13.4084 C   0  0  0  0  0  0  0  0  0  0  0  0
   22.5070  -19.3446  -13.4217 O   0  0  0  0  0  0  0  0  0  0  0  0
   25.2396  -24.4058  -16.5129 C   0  0  0  0  0  0  0  0  0  0  0  0
   26.3607  -22.4773  -12.2919 C   0  0  1  0  0  0  0  0  0  0  0  0
   26.0289  -21.0168  -12.1122 C   0  0  0  0  0  0  0  0  0  0  0  0
   25.3494  -20.9032  -10.7408 C   0  0  1  0  0  0  0  0  0  0  0  0
   25.1110  -20.4756  -13.1924 N   0  0  0  0  0  0  0  0  0  0  0  0
   23.8680  -21.1722  -13.1278 C   0  0  0  0  0  0  0  0  0  0  0  0
   25.7620  -20.3897  -14.4965 O   0  0  0  0  0  0  0  0  0  0  0  0
   25.5376  -21.3735  -15.3043 N   0  0  0  0  0  0  0  0  0  0  0  0
   26.6016  -19.3483  -14.9521 C   0  0  0  0  0  0  0  0  0  0  0  0
   27.0992  -18.2955  -14.0430 C   0  0  0  0  0  0  0  0  0  0  0  0
   27.9483  -17.3826  -14.8568 C   0  0  0  0  0  0  0  0  0  0  0  0
   27.3126  -17.5320  -16.2287 C   0  0  1  0  0  0  0  0  0  0  0  0
   27.1469  -19.0625  -16.2590 C   0  0  0  0  0  0  0  0  0  0  0  0
   28.5502  -19.5717  -16.4045 O   0  0  0  0  0  0  0  0  0  0  0  0
   29.1812  -19.3706  -17.6092 O   0  0  0  0  0  0  0  0  0  0  0  0
  2  3  2  0
  2  1  1  0
  4  2  1  0
  5  4  1  0
  6  5  1  0
  7  8  1  0
  7  6  1  0
  8 10  1  0
  8  9  1  1
 10 11  2  0
 13 12  1  1
 13 14  1  0
 13 15  1  0
 15 16  1  1
 16 10  1  0
 17 15  1  0
 17 18  2  0
 19 23  1  0
 19 17  1  0
 20 19  1  0
 21 22  1  0
 21 20  1  0
 22 23  1  0
 23 24  1  6
 24 26  2  0
 24 25  1  0
M  END
$$$$
