RVP.pdb
     RDKit          3D

 26 26  0  0  1  0  0  0  0  0999 V2000
   21.2262  -22.2356   -8.1065 N   0  0  0  0  0  0  0  0  0  0  0  0
   20.5969  -22.1037   -9.3784 C   0  0  0  0  0  0  0  0  0  0  0  0
   19.3475  -22.3882   -9.4896 N   0  0  0  0  0  0  0  0  0  0  0  0
   21.2994  -21.6696  -10.5268 N   0  0  0  0  0  0  0  0  0  0  0  0
   22.7325  -21.5451  -10.4676 C   0  0  0  0  0  0  0  0  0  0  0  0
   23.1631  -20.2293   -9.8661 C   0  0  0  0  0  0  0  0  0  0  0  0
   24.6377  -20.0088   -9.9923 C   0  0  0  0  0  0  0  0  0  0  0  0
   25.3152  -20.9983  -10.9040 C   0  0  2  0  0  0  0  0  0  0  0  0
   26.3047  -21.7871  -10.2243 N   0  0  0  0  0  0  0  0  0  0  0  0
   25.9488  -20.2034  -12.0166 C   0  0  0  0  0  0  0  0  0  0  0  0
   26.6646  -19.2234  -11.7734 O   0  0  0  0  0  0  0  0  0  0  0  0
   18.8551  -22.3199  -10.3827 C   0  0  0  0  0  0  0  0  0  0  0  0
   28.0511  -21.7305  -14.7129 C   0  0  1  0  0  0  0  0  0  0  0  0
   26.9674  -20.9378  -15.4006 C   0  0  0  0  0  0  0  0  0  0  0  0
   27.6415  -20.2469  -16.5938 C   0  0  2  0  0  0  0  0  0  0  0  0
   26.3212  -19.9026  -14.4988 N   0  0  0  0  0  0  0  0  0  0  0  0
   25.7324  -20.5703  -13.3845 C   0  0  0  0  0  0  0  0  0  0  0  0
   25.4825  -18.9589  -15.2322 O   0  0  0  0  0  0  0  0  0  0  0  0
   24.3304  -19.4057  -15.6113 N   0  0  0  0  0  0  0  0  0  0  0  0
   25.8063  -17.6233  -15.5614 C   0  0  0  0  0  0  0  0  0  0  0  0
   27.1317  -17.0460  -15.2570 C   0  0  0  0  0  0  0  0  0  0  0  0
   27.1165  -15.6393  -15.7444 C   0  0  0  0  0  0  0  0  0  0  0  0
   25.6411  -15.2988  -15.6190 C   0  0  1  0  0  0  0  0  0  0  0  0
   25.0392  -16.5861  -16.2116 C   0  0  0  0  0  0  0  0  0  0  0  0
   25.3552  -16.4887  -17.6746 O   0  0  0  0  0  0  0  0  0  0  0  0
   24.6029  -15.6249  -18.4346 O   0  0  0  0  0  0  0  0  0  0  0  0
  2  3  2  0
  2  1  1  0
  4  2  1  0
  5  4  1  0
  6  5  1  0
  7  8  1  0
  7  6  1  0
  8 10  1  0
  8  9  1  1
 10 11  2  0
 13 12  1  6
 13 14  1  0
 13 15  1  0
 15 16  1  1
 16 10  1  0
 17 15  1  0
 17 18  2  0
 19 23  1  0
 19 17  1  0
 20 19  1  0
 21 22  1  0
 21 20  1  0
 22 23  1  0
 23 24  1  6
 24 26  2  0
 24 25  1  0
M  END
$$$$
