RVP.pdb
     RDKit          3D

 26 26  0  0  1  0  0  0  0  0999 V2000
   23.0807  -21.6956   -7.8743 N   0  0  0  0  0  0  0  0  0  0  0  0
   22.0287  -20.7769   -8.1580 C   0  0  0  0  0  0  0  0  0  0  0  0
   21.1748  -20.5013   -7.2365 N   0  0  0  0  0  0  0  0  0  0  0  0
   21.8894  -20.1553   -9.4209 N   0  0  0  0  0  0  0  0  0  0  0  0
   22.0893  -20.9366  -10.6136 C   0  0  0  0  0  0  0  0  0  0  0  0
   23.5426  -21.2842  -10.8270 C   0  0  0  0  0  0  0  0  0  0  0  0
   23.8565  -21.5290  -12.2695 C   0  0  0  0  0  0  0  0  0  0  0  0
   23.1097  -20.6174  -13.2078 C   0  0  2  0  0  0  0  0  0  0  0  0
   21.8557  -21.1725  -13.6350 N   0  0  0  0  0  0  0  0  0  0  0  0
   24.0103  -20.3780  -14.3922 C   0  0  0  0  0  0  0  0  0  0  0  0
   23.9772  -21.1230  -15.3801 O   0  0  0  0  0  0  0  0  0  0  0  0
   20.4012  -19.8517   -7.3933 C   0  0  0  0  0  0  0  0  0  0  0  0
   27.2044  -17.0651  -16.3988 C   0  0  2  0  0  0  0  0  0  0  0  0
   26.3177  -17.5394  -15.2744 C   0  0  0  0  0  0  0  0  0  0  0  0
   27.1854  -17.5061  -14.0089 C   0  0  2  0  0  0  0  0  0  0  0  0
   25.7727  -18.9384  -15.4933 N   0  0  0  0  0  0  0  0  0  0  0  0
   24.9266  -19.2767  -14.3959 C   0  0  0  0  0  0  0  0  0  0  0  0
   26.8104  -19.8986  -15.8579 O   0  0  0  0  0  0  0  0  0  0  0  0
   27.5893  -20.2780  -14.8987 N   0  0  0  0  0  0  0  0  0  0  0  0
   27.0402  -20.4442  -17.1412 C   0  0  0  0  0  0  0  0  0  0  0  0
   26.2491  -20.0274  -18.3172 C   0  0  0  0  0  0  0  0  0  0  0  0
   26.7644  -20.7961  -19.4835 C   0  0  0  0  0  0  0  0  0  0  0  0
   27.2668  -22.0599  -18.8061 C   0  0  1  0  0  0  0  0  0  0  0  0
   27.9934  -21.4251  -17.6062 C   0  0  0  0  0  0  0  0  0  0  0  0
   29.2035  -20.7845  -18.2184 O   0  0  0  0  0  0  0  0  0  0  0  0
   29.1425  -19.4397  -18.4969 O   0  0  0  0  0  0  0  0  0  0  0  0
  2  3  2  0
  2  1  1  0
  4  2  1  0
  5  4  1  0
  6  5  1  0
  7  8  1  0
  7  6  1  0
  8 10  1  0
  8  9  1  6
 10 11  2  0
 13 12  1  1
 13 14  1  0
 13 15  1  0
 15 16  1  6
 16 10  1  0
 17 15  1  0
 17 18  2  0
 19 23  1  0
 19 17  1  0
 20 19  1  0
 21 22  1  0
 21 20  1  0
 22 23  1  0
 23 24  1  6
 24 26  2  0
 24 25  1  0
M  END
$$$$
