RVP.pdb
     RDKit          3D

 26 26  0  0  1  0  0  0  0  0999 V2000
   21.2071  -21.4362  -11.8117 N   0  0  0  0  0  0  0  0  0  0  0  0
   21.4991  -20.4170  -12.7641 C   0  0  0  0  0  0  0  0  0  0  0  0
   20.5775  -20.0407  -13.5785 N   0  0  0  0  0  0  0  0  0  0  0  0
   22.7704  -19.8022  -12.8461 N   0  0  0  0  0  0  0  0  0  0  0  0
   23.6547  -19.8648  -11.7117 C   0  0  0  0  0  0  0  0  0  0  0  0
   23.7596  -21.2622  -11.1507 C   0  0  0  0  0  0  0  0  0  0  0  0
   25.0356  -21.4717  -10.3976 C   0  0  0  0  0  0  0  0  0  0  0  0
   26.1549  -20.5731  -10.8543 C   0  0  2  0  0  0  0  0  0  0  0  0
   26.7629  -21.0256  -12.0745 N   0  0  0  0  0  0  0  0  0  0  0  0
   27.1700  -20.5404   -9.7409 C   0  0  0  0  0  0  0  0  0  0  0  0
   27.9695  -21.4711   -9.5785 O   0  0  0  0  0  0  0  0  0  0  0  0
   20.7613  -19.3757  -14.3328 C   0  0  0  0  0  0  0  0  0  0  0  0
   29.2770  -17.6584   -6.2420 C   0  0  1  0  0  0  0  0  0  0  0  0
   28.3202  -17.8710   -7.3887 C   0  0  0  0  0  0  0  0  0  0  0  0
   26.9918  -17.2370   -6.9539 C   0  0  2  0  0  0  0  0  0  0  0  0
   28.1101  -19.3350   -7.7274 N   0  0  0  0  0  0  0  0  0  0  0  0
   27.2280  -19.4241   -8.8447 C   0  0  0  0  0  0  0  0  0  0  0  0
   27.7892  -20.1458   -6.5562 O   0  0  0  0  0  0  0  0  0  0  0  0
   26.5553  -20.5150   -6.4474 N   0  0  0  0  0  0  0  0  0  0  0  0
   28.6868  -20.5587   -5.5458 C   0  0  0  0  0  0  0  0  0  0  0  0
   30.1143  -20.1790   -5.5700 C   0  0  0  0  0  0  0  0  0  0  0  0
   30.7451  -20.7787   -4.3621 C   0  0  0  0  0  0  0  0  0  0  0  0
   29.8684  -22.0006   -4.1463 C   0  0  1  0  0  0  0  0  0  0  0  0
   28.4870  -21.3539   -4.3563 C   0  0  0  0  0  0  0  0  0  0  0  0
   28.3017  -20.5011   -3.1365 O   0  0  0  0  0  0  0  0  0  0  0  0
   27.8843  -21.1196   -1.9819 O   0  0  0  0  0  0  0  0  0  0  0  0
  2  3  2  0
  2  1  1  0
  4  2  1  0
  5  4  1  0
  6  5  1  0
  7  8  1  0
  7  6  1  0
  8 10  1  0
  8  9  1  6
 10 11  2  0
 13 12  1  6
 13 14  1  0
 13 15  1  0
 15 16  1  1
 16 10  1  0
 17 15  1  0
 17 18  2  0
 19 23  1  0
 19 17  1  0
 20 19  1  0
 21 22  1  0
 21 20  1  0
 22 23  1  0
 23 24  1  1
 24 26  2  0
 24 25  1  0
M  END
$$$$
