RVP.pdb
     RDKit          3D

 26 26  0  0  1  0  0  0  0  0999 V2000
   21.2912  -16.4033  -19.9876 N   0  0  0  0  0  0  0  0  0  0  0  0
   21.3347  -16.7281  -18.6006 C   0  0  0  0  0  0  0  0  0  0  0  0
   20.3903  -16.3135  -17.8321 N   0  0  0  0  0  0  0  0  0  0  0  0
   22.3828  -17.4925  -18.0367 N   0  0  0  0  0  0  0  0  0  0  0  0
   23.4418  -17.9676  -18.8886 C   0  0  0  0  0  0  0  0  0  0  0  0
   24.4779  -18.7526  -18.1214 C   0  0  0  0  0  0  0  0  0  0  0  0
   23.8606  -19.8179  -17.2711 C   0  0  0  0  0  0  0  0  0  0  0  0
   24.8610  -20.5680  -16.4309 C   0  0  2  0  0  0  0  0  0  0  0  0
   25.8009  -21.3106  -17.2236 N   0  0  0  0  0  0  0  0  0  0  0  0
   24.0747  -21.4954  -15.5405 C   0  0  0  0  0  0  0  0  0  0  0  0
   23.7788  -22.6383  -15.9119 O   0  0  0  0  0  0  0  0  0  0  0  0
   20.3883  -16.5031  -16.8277 C   0  0  0  0  0  0  0  0  0  0  0  0
   23.3810  -20.4604  -11.3232 C   0  0  1  0  0  0  0  0  0  0  0  0
   23.4437  -21.8182  -11.9775 C   0  0  0  0  0  0  0  0  0  0  0  0
   24.9327  -22.1824  -12.0536 C   0  0  1  0  0  0  0  0  0  0  0  0
   22.8324  -21.8407  -13.3660 N   0  0  0  0  0  0  0  0  0  0  0  0
   23.6529  -21.0677  -14.2398 C   0  0  0  0  0  0  0  0  0  0  0  0
   21.4021  -21.5475  -13.3587 O   0  0  0  0  0  0  0  0  0  0  0  0
   21.0832  -20.3000  -13.2455 N   0  0  0  0  0  0  0  0  0  0  0  0
   20.3493  -22.4846  -13.4622 C   0  0  0  0  0  0  0  0  0  0  0  0
   20.5994  -23.9406  -13.4512 C   0  0  0  0  0  0  0  0  0  0  0  0
   19.2754  -24.6109  -13.5716 C   0  0  0  0  0  0  0  0  0  0  0  0
   18.4867  -23.5703  -14.3485 C   0  0  1  0  0  0  0  0  0  0  0  0
   18.9205  -22.3078  -13.5814 C   0  0  0  0  0  0  0  0  0  0  0  0
   18.2273  -22.4373  -12.2576 O   0  0  0  0  0  0  0  0  0  0  0  0
   16.8865  -22.1382  -12.2065 O   0  0  0  0  0  0  0  0  0  0  0  0
  2  3  2  0
  2  1  1  0
  4  2  1  0
  5  4  1  0
  6  5  1  0
  7  8  1  0
  7  6  1  0
  8 10  1  0
  8  9  1  6
 10 11  2  0
 13 12  1  1
 13 14  1  0
 13 15  1  0
 15 16  1  6
 16 10  1  0
 17 15  1  0
 17 18  2  0
 19 23  1  0
 19 17  1  0
 20 19  1  0
 21 22  1  0
 21 20  1  0
 22 23  1  0
 23 24  1  1
 24 26  2  0
 24 25  1  0
M  END
$$$$
