RVP.pdb
     RDKit          3D

 26 26  0  0  1  0  0  0  0  0999 V2000
   28.2277  -27.3641  -15.8102 N   0  0  0  0  0  0  0  0  0  0  0  0
   28.3221  -27.1608  -17.2177 C   0  0  0  0  0  0  0  0  0  0  0  0
   28.3307  -28.1837  -17.9973 N   0  0  0  0  0  0  0  0  0  0  0  0
   28.4071  -25.8701  -17.7899 N   0  0  0  0  0  0  0  0  0  0  0  0
   28.0869  -24.7219  -16.9825 C   0  0  0  0  0  0  0  0  0  0  0  0
   26.6083  -24.6254  -16.6947 C   0  0  0  0  0  0  0  0  0  0  0  0
   26.2732  -23.4232  -15.8692 C   0  0  0  0  0  0  0  0  0  0  0  0
   25.9570  -22.2013  -16.6915 C   0  0  2  0  0  0  0  0  0  0  0  0
   27.1371  -21.5003  -17.1145 N   0  0  0  0  0  0  0  0  0  0  0  0
   25.0940  -21.3107  -15.8353 C   0  0  0  0  0  0  0  0  0  0  0  0
   25.5978  -20.4956  -15.0519 O   0  0  0  0  0  0  0  0  0  0  0  0
   28.4408  -28.0911  -19.0093 C   0  0  0  0  0  0  0  0  0  0  0  0
   21.4401  -20.1060  -17.2605 C   0  0  1  0  0  0  0  0  0  0  0  0
   22.1881  -19.5184  -16.0897 C   0  0  0  0  0  0  0  0  0  0  0  0
   23.3138  -18.6664  -16.6918 C   0  0  1  0  0  0  0  0  0  0  0  0
   22.7715  -20.5705  -15.1651 N   0  0  0  0  0  0  0  0  0  0  0  0
   23.6657  -21.3920  -15.9133 C   0  0  0  0  0  0  0  0  0  0  0  0
   21.7543  -21.2463  -14.3647 O   0  0  0  0  0  0  0  0  0  0  0  0
   21.2184  -22.2928  -14.9015 N   0  0  0  0  0  0  0  0  0  0  0  0
   21.3074  -20.8699  -13.0780 C   0  0  0  0  0  0  0  0  0  0  0  0
   21.8749  -19.7063  -12.3663 C   0  0  0  0  0  0  0  0  0  0  0  0
   21.1695  -19.6088  -11.0588 C   0  0  0  0  0  0  0  0  0  0  0  0
   20.8063  -21.0629  -10.8097 C   0  0  1  0  0  0  0  0  0  0  0  0
   20.2964  -21.4345  -12.2141 C   0  0  0  0  0  0  0  0  0  0  0  0
   18.9914  -20.7038  -12.3263 O   0  0  0  0  0  0  0  0  0  0  0  0
   17.9095  -21.2217  -11.6547 O   0  0  0  0  0  0  0  0  0  0  0  0
  2  3  2  0
  2  1  1  0
  4  2  1  0
  5  4  1  0
  6  5  1  0
  7  8  1  0
  7  6  1  0
  8 10  1  0
  8  9  1  1
 10 11  2  0
 13 12  1  6
 13 14  1  0
 13 15  1  0
 15 16  1  6
 16 10  1  0
 17 15  1  0
 17 18  2  0
 19 23  1  0
 19 17  1  0
 20 19  1  0
 21 22  1  0
 21 20  1  0
 22 23  1  0
 23 24  1  6
 24 26  2  0
 24 25  1  0
M  END
$$$$
