SCR.pdb
     RDKit          3D

 24 23  0  0  1  0  0  0  0  0999 V2000
    8.4700  -15.4421   16.2491 O   0  0  0  0  0  0  0  0  0  0  0  0
    8.2303  -15.4081   17.5999 C   0  0  0  0  0  0  0  0  0  0  0  0
    8.1586  -13.9918   18.1674 C   0  0  2  0  0  0  0  0  0  0  0  0
    8.7013  -13.1227   17.1352 N   0  0  0  0  0  0  0  0  0  0  0  0
    8.9564  -13.9340   19.4031 C   0  0  0  0  0  0  0  0  0  0  0  0
   10.2096  -13.6943   19.4123 O   0  0  0  0  0  0  0  0  0  0  0  0
    8.3893  -14.1412   20.6961 N   0  0  0  0  0  0  0  0  0  0  0  0
    9.1803  -14.1965   21.8948 C   0  0  1  0  0  0  0  0  0  0  0  0
    8.4287  -13.6471   23.0963 C   0  0  0  0  0  0  0  0  0  0  0  0
    6.8422  -14.5015   23.3124 S   0  0  0  0  0  0  0  0  0  0  0  0
    9.7457  -15.5385   22.1855 C   0  0  0  0  0  0  0  0  0  0  0  0
    9.0330  -16.5896   22.0261 O   0  0  0  0  0  0  0  0  0  0  0  0
   16.2933  -14.9290   19.5392 N   0  0  0  0  0  0  0  0  0  0  0  0
   14.9162  -14.6893   19.2395 C   0  0  0  0  0  0  0  0  0  0  0  0
   14.6342  -13.8286   18.2959 N   0  0  0  0  0  0  0  0  0  0  0  0
   13.8855  -15.3593   19.9412 N   0  0  0  0  0  0  0  0  0  0  0  0
   13.6872  -16.7723   19.7607 C   0  0  0  0  0  0  0  0  0  0  0  0
   12.5527  -17.3351   20.5821 C   0  0  0  0  0  0  0  0  0  0  0  0
   12.8250  -17.3193   22.0476 C   0  0  0  0  0  0  0  0  0  0  0  0
   11.5820  -17.0918   22.8826 C   0  0  2  0  0  0  0  0  0  0  0  0
   11.0669  -15.7626   22.6441 N   0  0  0  0  0  0  0  0  0  0  0  0
   11.8153  -17.2928   24.3127 C   0  0  0  0  0  0  0  0  0  0  0  0
   11.6165  -16.3352   25.1302 O   0  0  0  0  0  0  0  0  0  0  0  0
   12.2506  -18.4772   24.8859 O   0  0  0  0  0  0  0  0  0  0  0  0
  1  2  1  0
  2  3  1  0
  3  5  1  0
  3  4  1  6
  5  6  2  0
  7  8  1  0
  7  5  1  0
  8 11  1  0
  8  9  1  1
 10  9  1  0
 11 12  2  0
 11 21  1  0
 14 13  1  0
 15 14  2  0
 16 14  1  0
 17 16  1  0
 18 17  1  0
 19 18  1  0
 20 19  1  6
 21 20  1  0
 22 24  1  0
 22 20  1  0
 23 22  2  0
M  END
$$$$
