SCR.pdb
     RDKit          3D

 24 23  0  0  1  0  0  0  0  0999 V2000
    6.0926  -21.9420   20.1195 O   0  0  0  0  0  0  0  0  0  0  0  0
    6.0306  -20.7965   20.8725 C   0  0  0  0  0  0  0  0  0  0  0  0
    4.9712  -20.8502   21.9716 C   0  0  2  0  0  0  0  0  0  0  0  0
    3.7125  -20.5113   21.3264 N   0  0  0  0  0  0  0  0  0  0  0  0
    5.3246  -19.8795   23.0202 C   0  0  0  0  0  0  0  0  0  0  0  0
    4.8265  -18.7062   23.0795 O   0  0  0  0  0  0  0  0  0  0  0  0
    6.2561  -20.1745   24.0602 N   0  0  0  0  0  0  0  0  0  0  0  0
    6.6424  -19.2135   25.0567 C   0  0  1  0  0  0  0  0  0  0  0  0
    6.6510  -19.8157   26.4523 C   0  0  0  0  0  0  0  0  0  0  0  0
    7.4981  -18.7191   27.6243 S   0  0  0  0  0  0  0  0  0  0  0  0
    7.9232  -18.5209   24.7652 C   0  0  0  0  0  0  0  0  0  0  0  0
    8.9753  -19.1951   24.4883 O   0  0  0  0  0  0  0  0  0  0  0  0
    7.2325  -12.0750   19.8024 N   0  0  0  0  0  0  0  0  0  0  0  0
    7.5219  -13.3701   19.2707 C   0  0  0  0  0  0  0  0  0  0  0  0
    7.4232  -13.5388   17.9774 N   0  0  0  0  0  0  0  0  0  0  0  0
    7.9020  -14.4413   20.1145 N   0  0  0  0  0  0  0  0  0  0  0  0
    8.0639  -14.2270   21.5274 C   0  0  0  0  0  0  0  0  0  0  0  0
    8.3765  -15.4859   22.2995 C   0  0  0  0  0  0  0  0  0  0  0  0
    9.0526  -15.2229   23.6019 C   0  0  0  0  0  0  0  0  0  0  0  0
    9.3308  -16.4833   24.3944 C   0  0  2  0  0  0  0  0  0  0  0  0
    8.0848  -17.1138   24.7672 N   0  0  0  0  0  0  0  0  0  0  0  0
   10.1464  -16.2366   25.5834 C   0  0  0  0  0  0  0  0  0  0  0  0
   11.3487  -15.8322   25.4571 O   0  0  0  0  0  0  0  0  0  0  0  0
    9.7159  -16.4088   26.8895 O   0  0  0  0  0  0  0  0  0  0  0  0
  1  2  1  0
  2  3  1  0
  3  5  1  0
  3  4  1  6
  5  6  2  0
  7  8  1  0
  7  5  1  0
  8 11  1  0
  8  9  1  1
 10  9  1  0
 11 12  2  0
 11 21  1  0
 14 13  1  0
 15 14  2  0
 16 14  1  0
 17 16  1  0
 18 17  1  0
 19 18  1  0
 20 19  1  1
 21 20  1  0
 22 24  1  0
 22 20  1  0
 23 22  2  0
M  END
$$$$
