SCR.pdb
     RDKit          3D

 24 23  0  0  1  0  0  0  0  0999 V2000
   10.6630  -14.4284   17.4165 O   0  0  0  0  0  0  0  0  0  0  0  0
    9.8313  -13.4708   17.9402 C   0  0  0  0  0  0  0  0  0  0  0  0
    8.3628  -13.8906   17.9640 C   0  0  2  0  0  0  0  0  0  0  0  0
    7.6026  -12.6939   17.6393 N   0  0  0  0  0  0  0  0  0  0  0  0
    8.0349  -14.3967   19.3068 C   0  0  0  0  0  0  0  0  0  0  0  0
    7.9018  -13.6376   20.3238 O   0  0  0  0  0  0  0  0  0  0  0  0
    7.8374  -15.7833   19.5800 N   0  0  0  0  0  0  0  0  0  0  0  0
    7.6605  -16.2986   20.9100 C   0  0  1  0  0  0  0  0  0  0  0  0
    6.8156  -17.5621   20.9212 C   0  0  0  0  0  0  0  0  0  0  0  0
    5.0499  -17.1581   21.0345 S   0  0  0  0  0  0  0  0  0  0  0  0
    8.9290  -16.4969   21.6560 C   0  0  0  0  0  0  0  0  0  0  0  0
   10.0223  -16.7155   21.0275 O   0  0  0  0  0  0  0  0  0  0  0  0
   10.5454  -15.1351   30.0728 N   0  0  0  0  0  0  0  0  0  0  0  0
   10.1480  -14.4385   28.8894 C   0  0  0  0  0  0  0  0  0  0  0  0
    9.6039  -13.2569   29.0262 N   0  0  0  0  0  0  0  0  0  0  0  0
   10.3336  -15.0069   27.6064 N   0  0  0  0  0  0  0  0  0  0  0  0
   11.3366  -16.0171   27.4007 C   0  0  0  0  0  0  0  0  0  0  0  0
   11.4278  -16.4990   25.9731 C   0  0  0  0  0  0  0  0  0  0  0  0
   10.2019  -16.2088   25.1762 C   0  0  0  0  0  0  0  0  0  0  0  0
   10.2837  -16.7145   23.7509 C   0  0  2  0  0  0  0  0  0  0  0  0
    9.0351  -16.4620   23.0680 N   0  0  0  0  0  0  0  0  0  0  0  0
   10.6228  -18.1353   23.6723 C   0  0  0  0  0  0  0  0  0  0  0  0
    9.6956  -19.0095   23.6411 O   0  0  0  0  0  0  0  0  0  0  0  0
   11.9123  -18.6410   23.6265 O   0  0  0  0  0  0  0  0  0  0  0  0
  1  2  1  0
  2  3  1  0
  3  5  1  0
  3  4  1  1
  5  6  2  0
  7  8  1  0
  7  5  1  0
  8 11  1  0
  8  9  1  6
 10  9  1  0
 11 12  2  0
 11 21  1  0
 14 13  1  0
 15 14  2  0
 16 14  1  0
 17 16  1  0
 18 17  1  0
 19 18  1  0
 20 19  1  1
 21 20  1  0
 22 24  1  0
 22 20  1  0
 23 22  2  0
M  END
$$$$
