SCR.pdb
     RDKit          3D

 24 23  0  0  1  0  0  0  0  0999 V2000
    4.6276  -20.3873   19.7886 O   0  0  0  0  0  0  0  0  0  0  0  0
    4.2834  -19.3588   20.6293 C   0  0  0  0  0  0  0  0  0  0  0  0
    4.4089  -19.7174   22.1088 C   0  0  2  0  0  0  0  0  0  0  0  0
    3.0554  -19.9861   22.5683 N   0  0  0  0  0  0  0  0  0  0  0  0
    5.0115  -18.5805   22.8239 C   0  0  0  0  0  0  0  0  0  0  0  0
    4.3237  -17.7160   23.4625 O   0  0  0  0  0  0  0  0  0  0  0  0
    6.4198  -18.3535   22.8614 N   0  0  0  0  0  0  0  0  0  0  0  0
    7.0319  -17.3945   23.7395 C   0  0  1  0  0  0  0  0  0  0  0  0
    6.5133  -17.5167   25.1631 C   0  0  0  0  0  0  0  0  0  0  0  0
    7.3534  -16.3406   26.2605 S   0  0  0  0  0  0  0  0  0  0  0  0
    8.5165  -17.4063   23.7084 C   0  0  0  0  0  0  0  0  0  0  0  0
    9.1679  -18.3601   24.2598 O   0  0  0  0  0  0  0  0  0  0  0  0
    7.8200  -12.4128   19.5947 N   0  0  0  0  0  0  0  0  0  0  0  0
    8.3847  -13.3647   18.6899 C   0  0  0  0  0  0  0  0  0  0  0  0
    8.0277  -13.3036   17.4330 N   0  0  0  0  0  0  0  0  0  0  0  0
    9.3014  -14.3467   19.1362 N   0  0  0  0  0  0  0  0  0  0  0  0
    9.7797  -14.3268   20.4923 C   0  0  0  0  0  0  0  0  0  0  0  0
   10.8196  -15.3815   20.7839 C   0  0  0  0  0  0  0  0  0  0  0  0
   11.2993  -15.3584   22.1952 C   0  0  0  0  0  0  0  0  0  0  0  0
   10.7484  -16.4952   23.0308 C   0  0  2  0  0  0  0  0  0  0  0  0
    9.3071  -16.4062   23.0912 N   0  0  0  0  0  0  0  0  0  0  0  0
   11.3083  -16.5285   24.3818 C   0  0  0  0  0  0  0  0  0  0  0  0
   10.5967  -16.1630   25.3743 O   0  0  0  0  0  0  0  0  0  0  0  0
   12.5945  -16.9376   24.6967 O   0  0  0  0  0  0  0  0  0  0  0  0
  1  2  1  0
  2  3  1  0
  3  5  1  0
  3  4  1  1
  5  6  2  0
  7  8  1  0
  7  5  1  0
  8 11  1  0
  8  9  1  1
 10  9  1  0
 11 12  2  0
 11 21  1  0
 14 13  1  0
 15 14  2  0
 16 14  1  0
 17 16  1  0
 18 17  1  0
 19 18  1  0
 20 19  1  6
 21 20  1  0
 22 24  1  0
 22 20  1  0
 23 22  2  0
M  END
$$$$
