SCR.pdb
     RDKit          3D

 24 23  0  0  1  0  0  0  0  0999 V2000
    7.7498  -13.5103   20.1792 O   0  0  0  0  0  0  0  0  0  0  0  0
    8.6689  -14.5217   20.3037 C   0  0  0  0  0  0  0  0  0  0  0  0
    8.3790  -15.4639   21.4704 C   0  0  2  0  0  0  0  0  0  0  0  0
    7.0031  -15.9014   21.2949 N   0  0  0  0  0  0  0  0  0  0  0  0
    8.5599  -14.7276   22.7322 C   0  0  0  0  0  0  0  0  0  0  0  0
    9.6723  -14.2107   23.0834 O   0  0  0  0  0  0  0  0  0  0  0  0
    7.5003  -14.5310   23.6675 N   0  0  0  0  0  0  0  0  0  0  0  0
    7.6881  -13.8735   24.9317 C   0  0  1  0  0  0  0  0  0  0  0  0
    6.4161  -13.1943   25.4125 C   0  0  0  0  0  0  0  0  0  0  0  0
    6.5885  -12.6422   27.1327 S   0  0  0  0  0  0  0  0  0  0  0  0
    8.2608  -14.7457   25.9883 C   0  0  0  0  0  0  0  0  0  0  0  0
    7.5624  -15.6898   26.4972 O   0  0  0  0  0  0  0  0  0  0  0  0
   14.4134  -19.1094   24.0146 N   0  0  0  0  0  0  0  0  0  0  0  0
   13.0924  -19.1377   23.4690 C   0  0  0  0  0  0  0  0  0  0  0  0
   12.8992  -19.8092   22.3633 N   0  0  0  0  0  0  0  0  0  0  0  0
   12.0229  -18.4595   24.1014 N   0  0  0  0  0  0  0  0  0  0  0  0
   12.2742  -17.6077   25.2326 C   0  0  0  0  0  0  0  0  0  0  0  0
   11.0203  -17.0566   25.8670 C   0  0  0  0  0  0  0  0  0  0  0  0
   11.2900  -16.2263   27.0754 C   0  0  0  0  0  0  0  0  0  0  0  0
   10.0734  -15.4648   27.5593 C   0  0  2  0  0  0  0  0  0  0  0  0
    9.5741  -14.6147   26.5024 N   0  0  0  0  0  0  0  0  0  0  0  0
   10.3412  -14.6725   28.7594 C   0  0  0  0  0  0  0  0  0  0  0  0
   10.2556  -13.4014   28.7143 O   0  0  0  0  0  0  0  0  0  0  0  0
   10.6940  -15.1967   29.9929 O   0  0  0  0  0  0  0  0  0  0  0  0
  1  2  1  0
  2  3  1  0
  3  5  1  0
  3  4  1  6
  5  6  2  0
  7  8  1  0
  7  5  1  0
  8 11  1  0
  8  9  1  1
 10  9  1  0
 11 12  2  0
 11 21  1  0
 14 13  1  0
 15 14  2  0
 16 14  1  0
 17 16  1  0
 18 17  1  0
 19 18  1  0
 20 19  1  6
 21 20  1  0
 22 24  1  0
 22 20  1  0
 23 22  2  0
M  END
$$$$
