SCR.pdb
     RDKit          3D

 24 23  0  0  1  0  0  0  0  0999 V2000
    7.6976  -15.3279   19.9979 O   0  0  0  0  0  0  0  0  0  0  0  0
    6.7784  -14.3123   20.0797 C   0  0  0  0  0  0  0  0  0  0  0  0
    7.3776  -12.9890   20.5518 C   0  0  2  0  0  0  0  0  0  0  0  0
    8.3222  -12.5905   19.5202 N   0  0  0  0  0  0  0  0  0  0  0  0
    8.0437  -13.2041   21.8468 C   0  0  0  0  0  0  0  0  0  0  0  0
    9.3005  -13.3933   21.9604 O   0  0  0  0  0  0  0  0  0  0  0  0
    7.3343  -13.2170   23.0848 N   0  0  0  0  0  0  0  0  0  0  0  0
    7.9492  -13.5800   24.3321 C   0  0  1  0  0  0  0  0  0  0  0  0
    7.3434  -12.8250   25.5041 C   0  0  0  0  0  0  0  0  0  0  0  0
    5.5604  -13.1412   25.6247 S   0  0  0  0  0  0  0  0  0  0  0  0
    7.9730  -15.0417   24.5925 C   0  0  0  0  0  0  0  0  0  0  0  0
    7.2116  -15.8296   23.9309 O   0  0  0  0  0  0  0  0  0  0  0  0
   10.6102  -19.4811   19.7106 N   0  0  0  0  0  0  0  0  0  0  0  0
   11.5851  -19.9782   20.6305 C   0  0  0  0  0  0  0  0  0  0  0  0
   12.3014  -21.0107   20.2673 N   0  0  0  0  0  0  0  0  0  0  0  0
   11.7719  -19.3761   21.8978 N   0  0  0  0  0  0  0  0  0  0  0  0
   10.9653  -18.2521   22.2909 C   0  0  0  0  0  0  0  0  0  0  0  0
   11.3444  -17.6735   23.6326 C   0  0  0  0  0  0  0  0  0  0  0  0
   10.4899  -16.5209   24.0373 C   0  0  0  0  0  0  0  0  0  0  0  0
    9.6143  -16.8200   25.2365 C   0  0  2  0  0  0  0  0  0  0  0  0
    8.8057  -15.6649   25.5540 N   0  0  0  0  0  0  0  0  0  0  0  0
   10.3829  -17.2352   26.4098 C   0  0  0  0  0  0  0  0  0  0  0  0
   10.8292  -16.3584   27.2205 O   0  0  0  0  0  0  0  0  0  0  0  0
   10.6837  -18.5481   26.7363 O   0  0  0  0  0  0  0  0  0  0  0  0
  1  2  1  0
  2  3  1  0
  3  5  1  0
  3  4  1  6
  5  6  2  0
  7  8  1  0
  7  5  1  0
  8 11  1  0
  8  9  1  1
 10  9  1  0
 11 12  2  0
 11 21  1  0
 14 13  1  0
 15 14  2  0
 16 14  1  0
 17 16  1  0
 18 17  1  0
 19 18  1  0
 20 19  1  6
 21 20  1  0
 22 24  1  0
 22 20  1  0
 23 22  2  0
M  END
$$$$
