SCR.pdb
     RDKit          3D

 24 23  0  0  1  0  0  0  0  0999 V2000
    8.0656  -18.5990   19.7286 O   0  0  0  0  0  0  0  0  0  0  0  0
    7.7499  -18.1060   18.4875 C   0  0  0  0  0  0  0  0  0  0  0  0
    8.7971  -17.1415   17.9341 C   0  0  2  0  0  0  0  0  0  0  0  0
    9.8935  -17.9733   17.4634 N   0  0  0  0  0  0  0  0  0  0  0  0
    9.2250  -16.2349   19.0120 C   0  0  0  0  0  0  0  0  0  0  0  0
   10.3510  -16.3386   19.6032 O   0  0  0  0  0  0  0  0  0  0  0  0
    8.4115  -15.1614   19.4835 N   0  0  0  0  0  0  0  0  0  0  0  0
    8.8737  -14.1958   20.4425 C   0  0  1  0  0  0  0  0  0  0  0  0
    7.8919  -13.0476   20.6097 C   0  0  0  0  0  0  0  0  0  0  0  0
    6.3615  -13.6157   21.4026 S   0  0  0  0  0  0  0  0  0  0  0  0
    9.2446  -14.7781   21.7572 C   0  0  0  0  0  0  0  0  0  0  0  0
    9.8388  -14.0635   22.6372 O   0  0  0  0  0  0  0  0  0  0  0  0
    4.7170  -21.1789   21.9684 N   0  0  0  0  0  0  0  0  0  0  0  0
    4.1349  -19.8831   22.1286 C   0  0  0  0  0  0  0  0  0  0  0  0
    2.9002  -19.7116   21.7325 N   0  0  0  0  0  0  0  0  0  0  0  0
    4.8691  -18.8142   22.6961 N   0  0  0  0  0  0  0  0  0  0  0  0
    6.2707  -18.9690   22.9793 C   0  0  0  0  0  0  0  0  0  0  0  0
    6.9328  -17.7052   23.4723 C   0  0  0  0  0  0  0  0  0  0  0  0
    8.3959  -17.8635   23.7099 C   0  0  0  0  0  0  0  0  0  0  0  0
    9.1774  -16.5848   23.4899 C   0  0  2  0  0  0  0  0  0  0  0  0
    8.9832  -16.1177   22.1360 N   0  0  0  0  0  0  0  0  0  0  0  0
   10.6049  -16.7377   23.7704 C   0  0  0  0  0  0  0  0  0  0  0  0
   10.9911  -17.0727   24.9381 O   0  0  0  0  0  0  0  0  0  0  0  0
   11.6194  -16.5443   22.8462 O   0  0  0  0  0  0  0  0  0  0  0  0
  1  2  1  0
  2  3  1  0
  3  5  1  0
  3  4  1  1
  5  6  2  0
  7  8  1  0
  7  5  1  0
  8 11  1  0
  8  9  1  1
 10  9  1  0
 11 12  2  0
 11 21  1  0
 14 13  1  0
 15 14  2  0
 16 14  1  0
 17 16  1  0
 18 17  1  0
 19 18  1  0
 20 19  1  6
 21 20  1  0
 22 24  1  0
 22 20  1  0
 23 22  2  0
M  END
$$$$
