SCR.pdb
     RDKit          3D

 24 23  0  0  1  0  0  0  0  0999 V2000
    8.8481  -16.8017   16.5983 O   0  0  0  0  0  0  0  0  0  0  0  0
    9.0419  -15.7058   15.7954 C   0  0  0  0  0  0  0  0  0  0  0  0
    8.4637  -14.4177   16.3781 C   0  0  2  0  0  0  0  0  0  0  0  0
    8.7518  -13.3769   15.4038 N   0  0  0  0  0  0  0  0  0  0  0  0
    9.1127  -14.1479   17.6715 C   0  0  0  0  0  0  0  0  0  0  0  0
   10.2749  -13.6310   17.7730 O   0  0  0  0  0  0  0  0  0  0  0  0
    8.4907  -14.4430   18.9215 N   0  0  0  0  0  0  0  0  0  0  0  0
    9.0796  -14.0976   20.1862 C   0  0  1  0  0  0  0  0  0  0  0  0
    8.0735  -13.4467   21.1215 C   0  0  0  0  0  0  0  0  0  0  0  0
    6.6574  -14.5438   21.4124 S   0  0  0  0  0  0  0  0  0  0  0  0
    9.7811  -15.2227   20.8547 C   0  0  0  0  0  0  0  0  0  0  0  0
    9.2342  -16.3779   20.9223 O   0  0  0  0  0  0  0  0  0  0  0  0
   14.2787  -15.8711   18.0698 N   0  0  0  0  0  0  0  0  0  0  0  0
   14.7885  -14.5514   18.2748 C   0  0  0  0  0  0  0  0  0  0  0  0
   14.8889  -13.7637   17.2354 N   0  0  0  0  0  0  0  0  0  0  0  0
   15.1762  -14.1065   19.5615 N   0  0  0  0  0  0  0  0  0  0  0  0
   15.0075  -14.9630   20.7045 C   0  0  0  0  0  0  0  0  0  0  0  0
   13.7226  -15.7550   20.6843 C   0  0  0  0  0  0  0  0  0  0  0  0
   13.2081  -16.0737   22.0467 C   0  0  0  0  0  0  0  0  0  0  0  0
   11.7039  -16.2454   22.0908 C   0  0  2  0  0  0  0  0  0  0  0  0
   11.0624  -15.1200   21.4497 N   0  0  0  0  0  0  0  0  0  0  0  0
   11.1919  -16.4094   23.4513 C   0  0  0  0  0  0  0  0  0  0  0  0
   11.6196  -17.3631   24.1810 O   0  0  0  0  0  0  0  0  0  0  0  0
   10.2455  -15.5901   24.0461 O   0  0  0  0  0  0  0  0  0  0  0  0
  1  2  1  0
  2  3  1  0
  3  5  1  0
  3  4  1  6
  5  6  2  0
  7  8  1  0
  7  5  1  0
  8 11  1  0
  8  9  1  1
 10  9  1  0
 11 12  2  0
 11 21  1  0
 14 13  1  0
 15 14  2  0
 16 14  1  0
 17 16  1  0
 18 17  1  0
 19 18  1  0
 20 19  1  1
 21 20  1  0
 22 24  1  0
 22 20  1  0
 23 22  2  0
M  END
$$$$
