SCR.pdb
     RDKit          3D

 24 23  0  0  1  0  0  0  0  0999 V2000
   -5.7203  -17.5874   16.4048 O   0  0  0  0  0  0  0  0  0  0  0  0
   -5.3295  -17.5084   17.7179 C   0  0  0  0  0  0  0  0  0  0  0  0
   -6.3555  -18.0852   18.6914 C   0  0  2  0  0  0  0  0  0  0  0  0
   -7.5056  -17.1970   18.6284 N   0  0  0  0  0  0  0  0  0  0  0  0
   -5.7655  -18.1178   20.0396 C   0  0  0  0  0  0  0  0  0  0  0  0
   -6.0932  -17.3005   20.9630 O   0  0  0  0  0  0  0  0  0  0  0  0
   -4.7760  -19.0714   20.4241 N   0  0  0  0  0  0  0  0  0  0  0  0
   -4.3075  -19.2068   21.7761 C   0  0  1  0  0  0  0  0  0  0  0  0
   -5.4349  -19.5523   22.7353 C   0  0  0  0  0  0  0  0  0  0  0  0
   -6.1220  -21.1901   22.3622 S   0  0  0  0  0  0  0  0  0  0  0  0
   -3.1675  -20.1457   21.9305 C   0  0  0  0  0  0  0  0  0  0  0  0
   -3.1666  -21.2692   21.3174 O   0  0  0  0  0  0  0  0  0  0  0  0
    5.3515  -20.9733   24.0040 N   0  0  0  0  0  0  0  0  0  0  0  0
    4.2750  -21.9138   24.0119 C   0  0  0  0  0  0  0  0  0  0  0  0
    4.4737  -23.0693   24.5918 N   0  0  0  0  0  0  0  0  0  0  0  0
    3.0305  -21.6094   23.4100 N   0  0  0  0  0  0  0  0  0  0  0  0
    2.7895  -20.2985   22.8696 C   0  0  0  0  0  0  0  0  0  0  0  0
    1.4199  -20.1383   22.2555 C   0  0  0  0  0  0  0  0  0  0  0  0
    0.3252  -20.0926   23.2664 C   0  0  0  0  0  0  0  0  0  0  0  0
   -0.9269  -20.8201   22.8226 C   0  0  2  0  0  0  0  0  0  0  0  0
   -2.0298  -19.8901   22.7346 N   0  0  0  0  0  0  0  0  0  0  0  0
   -1.2767  -21.9348   23.7029 C   0  0  0  0  0  0  0  0  0  0  0  0
   -0.7008  -23.0630   23.5597 O   0  0  0  0  0  0  0  0  0  0  0  0
   -2.2152  -21.8763   24.7211 O   0  0  0  0  0  0  0  0  0  0  0  0
  1  2  1  0
  2  3  1  0
  3  5  1  0
  3  4  1  1
  5  6  2  0
  7  8  1  0
  7  5  1  0
  8 11  1  0
  8  9  1  1
 10  9  1  0
 11 12  2  0
 11 21  1  0
 14 13  1  0
 15 14  2  0
 16 14  1  0
 17 16  1  0
 18 17  1  0
 19 18  1  0
 20 19  1  1
 21 20  1  0
 22 24  1  0
 22 20  1  0
 23 22  2  0
M  END
$$$$
