SCR.pdb
     RDKit          3D

 24 23  0  0  1  0  0  0  0  0999 V2000
    8.3529  -18.3450   18.2479 O   0  0  0  0  0  0  0  0  0  0  0  0
    8.0342  -17.7752   17.0409 C   0  0  0  0  0  0  0  0  0  0  0  0
    8.8377  -16.5126   16.7356 C   0  0  2  0  0  0  0  0  0  0  0  0
    9.9941  -16.9532   15.9712 N   0  0  0  0  0  0  0  0  0  0  0  0
    9.2324  -15.8817   18.0056 C   0  0  0  0  0  0  0  0  0  0  0  0
   10.3664  -16.0768   18.5573 O   0  0  0  0  0  0  0  0  0  0  0  0
    8.3750  -14.9962   18.7246 N   0  0  0  0  0  0  0  0  0  0  0  0
    8.7436  -14.4023   19.9805 C   0  0  1  0  0  0  0  0  0  0  0  0
    7.7821  -13.2986   20.3900 C   0  0  0  0  0  0  0  0  0  0  0  0
    7.2922  -12.3024   18.9543 S   0  0  0  0  0  0  0  0  0  0  0  0
    8.9335  -15.3815   21.0805 C   0  0  0  0  0  0  0  0  0  0  0  0
    8.1514  -16.3884   21.1930 O   0  0  0  0  0  0  0  0  0  0  0  0
   13.1087  -21.2841   19.0502 N   0  0  0  0  0  0  0  0  0  0  0  0
   11.9966  -20.3961   18.9151 C   0  0  0  0  0  0  0  0  0  0  0  0
   11.3180  -20.4279   17.7973 N   0  0  0  0  0  0  0  0  0  0  0  0
   11.6379  -19.5061   19.9557 N   0  0  0  0  0  0  0  0  0  0  0  0
   12.3968  -19.4775   21.1771 C   0  0  0  0  0  0  0  0  0  0  0  0
   11.8271  -18.5504   22.2233 C   0  0  0  0  0  0  0  0  0  0  0  0
   11.1342  -17.3652   21.6425 C   0  0  0  0  0  0  0  0  0  0  0  0
   10.5183  -16.4617   22.6906 C   0  0  2  0  0  0  0  0  0  0  0  0
    9.9537  -15.2908   22.0588 N   0  0  0  0  0  0  0  0  0  0  0  0
   11.4709  -16.0651   23.7274 C   0  0  0  0  0  0  0  0  0  0  0  0
   12.2101  -15.0413   23.5537 O   0  0  0  0  0  0  0  0  0  0  0  0
   11.6523  -16.7264   24.9318 O   0  0  0  0  0  0  0  0  0  0  0  0
  1  2  1  0
  2  3  1  0
  3  5  1  0
  3  4  1  1
  5  6  2  0
  7  8  1  0
  7  5  1  0
  8 11  1  0
  8  9  1  1
 10  9  1  0
 11 12  2  0
 11 21  1  0
 14 13  1  0
 15 14  2  0
 16 14  1  0
 17 16  1  0
 18 17  1  0
 19 18  1  0
 20 19  1  6
 21 20  1  0
 22 24  1  0
 22 20  1  0
 23 22  2  0
M  END
$$$$
