SCR.pdb
     RDKit          3D

 24 23  0  0  1  0  0  0  0  0999 V2000
    0.5459  -28.7474   29.1445 O   0  0  0  0  0  0  0  0  0  0  0  0
    1.6491  -28.3799   28.4158 C   0  0  0  0  0  0  0  0  0  0  0  0
    1.3182  -27.9593   26.9852 C   0  0  2  0  0  0  0  0  0  0  0  0
    1.3206  -29.1841   26.2008 N   0  0  0  0  0  0  0  0  0  0  0  0
    2.3437  -27.0118   26.5190 C   0  0  0  0  0  0  0  0  0  0  0  0
    3.0599  -27.2150   25.4827 O   0  0  0  0  0  0  0  0  0  0  0  0
    2.6198  -25.7837   27.1912 N   0  0  0  0  0  0  0  0  0  0  0  0
    3.6055  -24.8458   26.7282 C   0  0  1  0  0  0  0  0  0  0  0  0
    3.1740  -23.4073   26.9626 C   0  0  0  0  0  0  0  0  0  0  0  0
    2.7614  -23.1324   28.7084 S   0  0  0  0  0  0  0  0  0  0  0  0
    4.9697  -25.0886   27.2619 C   0  0  0  0  0  0  0  0  0  0  0  0
    5.9493  -24.3513   26.8944 O   0  0  0  0  0  0  0  0  0  0  0  0
   10.9475  -21.9949   31.2709 N   0  0  0  0  0  0  0  0  0  0  0  0
   11.5288  -23.0078   30.4465 C   0  0  0  0  0  0  0  0  0  0  0  0
   12.8319  -23.1214   30.4405 N   0  0  0  0  0  0  0  0  0  0  0  0
   10.7230  -23.8630   29.6572 N   0  0  0  0  0  0  0  0  0  0  0  0
    9.2896  -23.7578   29.7088 C   0  0  0  0  0  0  0  0  0  0  0  0
    8.5776  -24.7197   28.7888 C   0  0  0  0  0  0  0  0  0  0  0  0
    7.0937  -24.6716   28.9241 C   0  0  0  0  0  0  0  0  0  0  0  0
    6.4603  -26.0431   29.0333 C   0  0  2  0  0  0  0  0  0  0  0  0
    5.2918  -26.1130   28.1855 N   0  0  0  0  0  0  0  0  0  0  0  0
    6.1072  -26.3963   30.4082 C   0  0  0  0  0  0  0  0  0  0  0  0
    4.9807  -26.0405   30.8869 O   0  0  0  0  0  0  0  0  0  0  0  0
    6.9174  -27.1121   31.2756 O   0  0  0  0  0  0  0  0  0  0  0  0
  1  2  1  0
  2  3  1  0
  3  5  1  0
  3  4  1  6
  5  6  2  0
  7  8  1  0
  7  5  1  0
  8 11  1  0
  8  9  1  1
 10  9  1  0
 11 12  2  0
 11 21  1  0
 14 13  1  0
 15 14  2  0
 16 14  1  0
 17 16  1  0
 18 17  1  0
 19 18  1  0
 20 19  1  1
 21 20  1  0
 22 24  1  0
 22 20  1  0
 23 22  2  0
M  END
$$$$
