SCR.pdb
     RDKit          3D

 24 23  0  0  1  0  0  0  0  0999 V2000
    9.1560  -17.0980   17.3530 O   0  0  0  0  0  0  0  0  0  0  0  0
    9.3776  -16.0126   16.5432 C   0  0  0  0  0  0  0  0  0  0  0  0
    8.5129  -14.8046   16.8983 C   0  0  2  0  0  0  0  0  0  0  0  0
    8.9353  -13.7376   16.0048 N   0  0  0  0  0  0  0  0  0  0  0  0
    8.7409  -14.4554   18.3100 C   0  0  0  0  0  0  0  0  0  0  0  0
    9.7858  -13.8463   18.7166 O   0  0  0  0  0  0  0  0  0  0  0  0
    7.8068  -14.7706   19.3417 N   0  0  0  0  0  0  0  0  0  0  0  0
    8.0577  -14.4985   20.7305 C   0  0  1  0  0  0  0  0  0  0  0  0
    6.8044  -14.0314   21.4526 C   0  0  0  0  0  0  0  0  0  0  0  0
    7.0955  -13.9092   23.2397 S   0  0  0  0  0  0  0  0  0  0  0  0
    8.7087  -15.6172   21.4584 C   0  0  0  0  0  0  0  0  0  0  0  0
    8.2404  -16.8052   21.3720 O   0  0  0  0  0  0  0  0  0  0  0  0
   17.0412  -15.6199   22.4459 N   0  0  0  0  0  0  0  0  0  0  0  0
   16.4210  -15.9755   21.2079 C   0  0  0  0  0  0  0  0  0  0  0  0
   17.1695  -16.0166   20.1360 N   0  0  0  0  0  0  0  0  0  0  0  0
   15.0388  -16.2730   21.1387 N   0  0  0  0  0  0  0  0  0  0  0  0
   14.2184  -16.1780   22.3162 C   0  0  0  0  0  0  0  0  0  0  0  0
   12.7836  -16.5891   22.0901 C   0  0  0  0  0  0  0  0  0  0  0  0
   11.9032  -16.3152   23.2614 C   0  0  0  0  0  0  0  0  0  0  0  0
   10.4396  -16.5899   22.9844 C   0  0  2  0  0  0  0  0  0  0  0  0
    9.8562  -15.4732   22.2762 N   0  0  0  0  0  0  0  0  0  0  0  0
    9.6757  -16.8705   24.1999 C   0  0  0  0  0  0  0  0  0  0  0  0
    9.0009  -15.9426   24.7553 O   0  0  0  0  0  0  0  0  0  0  0  0
    9.6144  -18.1031   24.8305 O   0  0  0  0  0  0  0  0  0  0  0  0
  1  2  1  0
  2  3  1  0
  3  5  1  0
  3  4  1  6
  5  6  2  0
  7  8  1  0
  7  5  1  0
  8 11  1  0
  8  9  1  1
 10  9  1  0
 11 12  2  0
 11 21  1  0
 14 13  1  0
 15 14  2  0
 16 14  1  0
 17 16  1  0
 18 17  1  0
 19 18  1  0
 20 19  1  1
 21 20  1  0
 22 24  1  0
 22 20  1  0
 23 22  2  0
M  END
$$$$
