SCR.pdb
     RDKit          3D

 24 23  0  0  1  0  0  0  0  0999 V2000
   12.5983  -19.1322   16.8083 O   0  0  0  0  0  0  0  0  0  0  0  0
   13.3093  -20.3041   16.8732 C   0  0  0  0  0  0  0  0  0  0  0  0
   12.4438  -21.5211   17.1942 C   0  0  2  0  0  0  0  0  0  0  0  0
   11.5671  -21.6984   16.0473 N   0  0  0  0  0  0  0  0  0  0  0  0
   11.6828  -21.2518   18.4251 C   0  0  0  0  0  0  0  0  0  0  0  0
   10.6486  -21.9179   18.7642 O   0  0  0  0  0  0  0  0  0  0  0  0
   12.0429  -20.2201   19.3428 N   0  0  0  0  0  0  0  0  0  0  0  0
   11.4011  -20.0515   20.6177 C   0  0  1  0  0  0  0  0  0  0  0  0
   11.4789  -21.3124   21.4631 C   0  0  0  0  0  0  0  0  0  0  0  0
   10.9626  -20.9787   23.1706 S   0  0  0  0  0  0  0  0  0  0  0  0
   11.8707  -18.8668   21.3799 C   0  0  0  0  0  0  0  0  0  0  0  0
   13.0910  -18.7815   21.7566 O   0  0  0  0  0  0  0  0  0  0  0  0
    7.8934  -13.4870   18.1025 N   0  0  0  0  0  0  0  0  0  0  0  0
    8.0973  -13.1016   19.4640 C   0  0  0  0  0  0  0  0  0  0  0  0
    7.2867  -12.2133   19.9784 N   0  0  0  0  0  0  0  0  0  0  0  0
    9.1445  -13.6601   20.2355 N   0  0  0  0  0  0  0  0  0  0  0  0
   10.1685  -14.4476   19.6031 C   0  0  0  0  0  0  0  0  0  0  0  0
   11.2871  -14.8480   20.5342 C   0  0  0  0  0  0  0  0  0  0  0  0
   10.8023  -15.3659   21.8454 C   0  0  0  0  0  0  0  0  0  0  0  0
   11.5794  -16.5703   22.3348 C   0  0  2  0  0  0  0  0  0  0  0  0
   11.0446  -17.7742   21.7403 N   0  0  0  0  0  0  0  0  0  0  0  0
   11.5840  -16.6874   23.7929 C   0  0  0  0  0  0  0  0  0  0  0  0
   10.7687  -17.4795   24.3698 O   0  0  0  0  0  0  0  0  0  0  0  0
   12.4277  -15.9882   24.6415 O   0  0  0  0  0  0  0  0  0  0  0  0
  1  2  1  0
  2  3  1  0
  3  5  1  0
  3  4  1  6
  5  6  2  0
  7  8  1  0
  7  5  1  0
  8 11  1  0
  8  9  1  1
 10  9  1  0
 11 12  2  0
 11 21  1  0
 14 13  1  0
 15 14  2  0
 16 14  1  0
 17 16  1  0
 18 17  1  0
 19 18  1  0
 20 19  1  1
 21 20  1  0
 22 24  1  0
 22 20  1  0
 23 22  2  0
M  END
$$$$
