SCR.pdb
     RDKit          3D

 24 23  0  0  1  0  0  0  0  0999 V2000
   11.1751  -19.3871   20.0148 O   0  0  0  0  0  0  0  0  0  0  0  0
   10.9695  -18.7478   21.2115 C   0  0  0  0  0  0  0  0  0  0  0  0
   10.5308  -17.2932   21.0542 C   0  0  2  0  0  0  0  0  0  0  0  0
   11.4582  -16.6995   20.1040 N   0  0  0  0  0  0  0  0  0  0  0  0
   10.5984  -16.6317   22.3674 C   0  0  0  0  0  0  0  0  0  0  0  0
   11.0781  -15.4611   22.5336 O   0  0  0  0  0  0  0  0  0  0  0  0
   10.1294  -17.2490   23.5655 N   0  0  0  0  0  0  0  0  0  0  0  0
   10.0498  -16.5541   24.8211 C   0  0  1  0  0  0  0  0  0  0  0  0
    9.2666  -15.2567   24.7027 C   0  0  0  0  0  0  0  0  0  0  0  0
    7.4931  -15.5878   24.5061 S   0  0  0  0  0  0  0  0  0  0  0  0
    9.5414  -17.3852   25.9417 C   0  0  0  0  0  0  0  0  0  0  0  0
    8.7000  -18.3241   25.7214 O   0  0  0  0  0  0  0  0  0  0  0  0
   12.8994  -23.3886   26.6117 N   0  0  0  0  0  0  0  0  0  0  0  0
   13.6704  -23.1434   27.7904 C   0  0  0  0  0  0  0  0  0  0  0  0
   14.1083  -24.1761   28.4632 N   0  0  0  0  0  0  0  0  0  0  0  0
   13.9522  -21.8249   28.2214 N   0  0  0  0  0  0  0  0  0  0  0  0
   13.4083  -20.6993   27.5103 C   0  0  0  0  0  0  0  0  0  0  0  0
   12.2043  -20.0831   28.1805 C   0  0  0  0  0  0  0  0  0  0  0  0
   11.6490  -18.9184   27.4338 C   0  0  0  0  0  0  0  0  0  0  0  0
   10.4242  -18.3174   28.0917 C   0  0  2  0  0  0  0  0  0  0  0  0
    9.9279  -17.2190   27.2942 N   0  0  0  0  0  0  0  0  0  0  0  0
   10.6782  -17.8713   29.4615 C   0  0  0  0  0  0  0  0  0  0  0  0
   10.6996  -18.7196   30.4128 O   0  0  0  0  0  0  0  0  0  0  0  0
   10.9074  -16.5572   29.8374 O   0  0  0  0  0  0  0  0  0  0  0  0
  1  2  1  0
  2  3  1  0
  3  5  1  0
  3  4  1  6
  5  6  2  0
  7  8  1  0
  7  5  1  0
  8 11  1  0
  8  9  1  6
 10  9  1  0
 11 12  2  0
 11 21  1  0
 14 13  1  0
 15 14  2  0
 16 14  1  0
 17 16  1  0
 18 17  1  0
 19 18  1  0
 20 19  1  6
 21 20  1  0
 22 24  1  0
 22 20  1  0
 23 22  2  0
M  END
$$$$
