SCR.pdb
     RDKit          3D

 24 23  0  0  1  0  0  0  0  0999 V2000
    8.4183  -15.0988   19.7820 O   0  0  0  0  0  0  0  0  0  0  0  0
    7.3563  -14.2410   19.6422 C   0  0  0  0  0  0  0  0  0  0  0  0
    7.5720  -12.8927   20.3267 C   0  0  2  0  0  0  0  0  0  0  0  0
    8.6043  -12.2171   19.5564 N   0  0  0  0  0  0  0  0  0  0  0  0
    7.9956  -13.1278   21.7168 C   0  0  0  0  0  0  0  0  0  0  0  0
    9.2196  -13.1594   22.0758 O   0  0  0  0  0  0  0  0  0  0  0  0
    7.0669  -13.3389   22.7794 N   0  0  0  0  0  0  0  0  0  0  0  0
    7.4752  -13.6592   24.1197 C   0  0  1  0  0  0  0  0  0  0  0  0
    6.3475  -13.4597   25.1193 C   0  0  0  0  0  0  0  0  0  0  0  0
    6.9106  -13.8125   26.8081 S   0  0  0  0  0  0  0  0  0  0  0  0
    8.0835  -15.0064   24.2616 C   0  0  0  0  0  0  0  0  0  0  0  0
    7.4563  -16.0458   23.8562 O   0  0  0  0  0  0  0  0  0  0  0  0
   13.8013  -14.6595   20.3518 N   0  0  0  0  0  0  0  0  0  0  0  0
   12.6284  -15.2667   19.8047 C   0  0  0  0  0  0  0  0  0  0  0  0
   12.4240  -15.1570   18.5174 N   0  0  0  0  0  0  0  0  0  0  0  0
   11.7120  -15.9647   20.6272 N   0  0  0  0  0  0  0  0  0  0  0  0
   11.9192  -16.0287   22.0490 C   0  0  0  0  0  0  0  0  0  0  0  0
   10.8208  -16.7520   22.7898 C   0  0  0  0  0  0  0  0  0  0  0  0
   11.0725  -16.8582   24.2553 C   0  0  0  0  0  0  0  0  0  0  0  0
    9.8408  -16.5847   25.0932 C   0  0  2  0  0  0  0  0  0  0  0  0
    9.3569  -15.2479   24.8328 N   0  0  0  0  0  0  0  0  0  0  0  0
   10.0782  -16.7647   26.5254 C   0  0  0  0  0  0  0  0  0  0  0  0
    9.9042  -15.7885   27.3264 O   0  0  0  0  0  0  0  0  0  0  0  0
   10.4921  -17.9474   27.1176 O   0  0  0  0  0  0  0  0  0  0  0  0
  1  2  1  0
  2  3  1  0
  3  5  1  0
  3  4  1  6
  5  6  2  0
  7  8  1  0
  7  5  1  0
  8 11  1  0
  8  9  1  1
 10  9  1  0
 11 12  2  0
 11 21  1  0
 14 13  1  0
 15 14  2  0
 16 14  1  0
 17 16  1  0
 18 17  1  0
 19 18  1  0
 20 19  1  6
 21 20  1  0
 22 24  1  0
 22 20  1  0
 23 22  2  0
M  END
$$$$
