DQE.pdb
     RDKit          3D

 27 26  0  0  1  0  0  0  0  0999 V2000
   10.7832  -15.2766   13.0708 N   0  0  0  0  0  0  0  0  0  0  0  0
   10.8426  -16.0760   14.2607 C   0  0  1  0  0  0  0  0  0  0  0  0
   11.8869  -17.1656   14.1674 C   0  0  0  0  0  0  0  0  0  0  0  0
   11.3794  -18.4371   14.7917 C   0  0  0  0  0  0  0  0  0  0  0  0
   10.2105  -18.8389   14.5641 O   0  0  0  0  0  0  0  0  0  0  0  0
   11.0273  -15.2253   15.4481 C   0  0  0  0  0  0  0  0  0  0  0  0
   12.1272  -14.6092   15.6236 O   0  0  0  0  0  0  0  0  0  0  0  0
   12.2355  -19.1450   15.6189 O   0  0  0  0  0  0  0  0  0  0  0  0
    6.6377  -13.2557   19.4970 N   0  0  0  0  0  0  0  0  0  0  0  0
    7.8118  -12.9161   20.2054 C   0  0  0  0  0  0  0  0  0  0  0  0
    7.7531  -12.3331   21.3093 O   0  0  0  0  0  0  0  0  0  0  0  0
    9.1829  -13.2503   19.6447 C   0  0  0  0  0  0  0  0  0  0  0  0
    8.9996  -13.9496   18.3367 C   0  0  0  0  0  0  0  0  0  0  0  0
   10.2984  -14.2741   17.6884 C   0  0  2  0  0  0  0  0  0  0  0  0
   10.0436  -15.0315   16.4452 N   0  0  0  0  0  0  0  0  0  0  0  0
   11.2399  -14.9791   18.5369 C   0  0  0  0  0  0  0  0  0  0  0  0
   11.1384  -16.2546   18.6234 O   0  0  0  0  0  0  0  0  0  0  0  0
   12.2823  -14.3852   19.2842 N   0  0  0  0  0  0  0  0  0  0  0  0
   13.2529  -15.2026   20.0029 C   0  0  1  0  0  0  0  0  0  0  0  0
   14.5885  -14.4766   20.0638 C   0  0  0  0  0  0  0  0  0  0  0  0
   15.6471  -15.2204   20.7972 C   0  0  0  0  0  0  0  0  0  0  0  0
   16.9687  -14.5745   20.7815 C   0  0  0  0  0  0  0  0  0  0  0  0
   17.6341  -14.2069   21.7607 O   0  0  0  0  0  0  0  0  0  0  0  0
   12.7681  -15.3984   21.3855 C   0  0  0  0  0  0  0  0  0  0  0  0
   13.3901  -16.3138   22.2532 O   0  0  0  0  0  0  0  0  0  0  0  0
   17.5344  -14.3518   19.5198 O   0  0  0  0  0  0  0  0  0  0  0  0
   11.8008  -14.7606   21.8158 O   0  0  0  0  0  0  0  0  0  0  0  0
  2  3  1  0
  2  6  1  0
  2  1  1  6
  4  5  2  0
  4  3  1  0
  6  7  2  0
  8  4  1  0
 10  9  1  0
 10 12  1  0
 11 10  2  0
 13 12  1  0
 14 13  1  1
 15 14  1  0
 15  6  1  0
 16 17  2  0
 16 14  1  0
 18 16  1  0
 19 18  1  0
 19 20  1  1
 21 20  1  0
 21 22  1  0
 22 26  1  0
 23 22  2  0
 24 19  1  0
 25 24  1  0
 27 24  2  0
M  END
$$$$
