DQE.pdb
     RDKit          3D

 27 26  0  0  1  0  0  0  0  0999 V2000
    8.6429  -16.9643   21.3331 N   0  0  0  0  0  0  0  0  0  0  0  0
    9.9724  -16.8189   21.8523 C   0  0  1  0  0  0  0  0  0  0  0  0
   10.8521  -15.9841   20.9491 C   0  0  0  0  0  0  0  0  0  0  0  0
   10.9801  -16.6286   19.5954 C   0  0  0  0  0  0  0  0  0  0  0  0
   10.7156  -17.8474   19.4401 O   0  0  0  0  0  0  0  0  0  0  0  0
    9.9371  -16.3025   23.2306 C   0  0  0  0  0  0  0  0  0  0  0  0
   11.0074  -15.8891   23.7819 O   0  0  0  0  0  0  0  0  0  0  0  0
   11.3957  -15.8413   18.5345 O   0  0  0  0  0  0  0  0  0  0  0  0
    7.9834  -12.8060   27.0413 N   0  0  0  0  0  0  0  0  0  0  0  0
    7.4874  -12.6558   25.7271 C   0  0  0  0  0  0  0  0  0  0  0  0
    7.2947  -11.5227   25.2361 O   0  0  0  0  0  0  0  0  0  0  0  0
    7.1731  -13.8697   24.8707 C   0  0  0  0  0  0  0  0  0  0  0  0
    7.4260  -15.0982   25.6833 C   0  0  0  0  0  0  0  0  0  0  0  0
    8.7586  -15.6941   25.3976 C   0  0  2  0  0  0  0  0  0  0  0  0
    8.7658  -16.2266   24.0191 N   0  0  0  0  0  0  0  0  0  0  0  0
    9.1844  -16.7079   26.3433 C   0  0  0  0  0  0  0  0  0  0  0  0
    8.4296  -17.7304   26.5144 O   0  0  0  0  0  0  0  0  0  0  0  0
   10.3770  -16.6803   27.1014 N   0  0  0  0  0  0  0  0  0  0  0  0
   10.7018  -17.7549   28.0323 C   0  0  1  0  0  0  0  0  0  0  0  0
   12.1493  -18.1807   27.8376 C   0  0  0  0  0  0  0  0  0  0  0  0
   12.4019  -18.8938   26.5572 C   0  0  0  0  0  0  0  0  0  0  0  0
   13.7999  -19.3035   26.3527 C   0  0  0  0  0  0  0  0  0  0  0  0
   14.2231  -20.4532   26.1633 O   0  0  0  0  0  0  0  0  0  0  0  0
   10.5506  -17.2425   29.4105 C   0  0  0  0  0  0  0  0  0  0  0  0
   10.2909  -15.8827   29.6582 O   0  0  0  0  0  0  0  0  0  0  0  0
   14.7551  -18.2795   26.3751 O   0  0  0  0  0  0  0  0  0  0  0  0
   10.6487  -17.9983   30.3835 O   0  0  0  0  0  0  0  0  0  0  0  0
  2  3  1  0
  2  6  1  0
  2  1  1  6
  4  5  2  0
  4  3  1  0
  6  7  2  0
  8  4  1  0
 10  9  1  0
 10 12  1  0
 11 10  2  0
 13 12  1  0
 14 13  1  1
 15 14  1  0
 15  6  1  0
 16 17  2  0
 16 14  1  0
 18 16  1  0
 19 18  1  0
 19 20  1  6
 21 20  1  0
 21 22  1  0
 22 26  1  0
 23 22  2  0
 24 19  1  0
 25 24  1  0
 27 24  2  0
M  END
$$$$
