DQE.pdb
     RDKit          3D

 27 26  0  0  1  0  0  0  0  0999 V2000
   11.2584  -17.2512   15.7622 N   0  0  0  0  0  0  0  0  0  0  0  0
   10.5273  -17.8203   16.8576 C   0  0  1  0  0  0  0  0  0  0  0  0
   10.9885  -19.2221   17.1876 C   0  0  0  0  0  0  0  0  0  0  0  0
   10.9950  -20.0797   15.9512 C   0  0  0  0  0  0  0  0  0  0  0  0
    9.9514  -20.2201   15.2650 O   0  0  0  0  0  0  0  0  0  0  0  0
   10.5693  -16.9283   18.0282 C   0  0  0  0  0  0  0  0  0  0  0  0
   11.6419  -16.3053   18.3142 O   0  0  0  0  0  0  0  0  0  0  0  0
   12.1790  -20.7045   15.5966 O   0  0  0  0  0  0  0  0  0  0  0  0
    9.2136  -12.7092   19.7871 N   0  0  0  0  0  0  0  0  0  0  0  0
    8.2470  -13.1500   18.8558 C   0  0  0  0  0  0  0  0  0  0  0  0
    7.8960  -12.4262   17.8993 O   0  0  0  0  0  0  0  0  0  0  0  0
    7.6049  -14.5195   18.9902 C   0  0  0  0  0  0  0  0  0  0  0  0
    8.1480  -15.1764   20.2178 C   0  0  0  0  0  0  0  0  0  0  0  0
    9.5130  -15.7261   20.0015 C   0  0  2  0  0  0  0  0  0  0  0  0
    9.4727  -16.7006   18.8912 N   0  0  0  0  0  0  0  0  0  0  0  0
   10.1239  -16.3124   21.1790 C   0  0  0  0  0  0  0  0  0  0  0  0
    9.7408  -17.4817   21.5404 O   0  0  0  0  0  0  0  0  0  0  0  0
   11.1248  -15.7112   21.9755 N   0  0  0  0  0  0  0  0  0  0  0  0
   11.7140  -16.4203   23.1054 C   0  0  1  0  0  0  0  0  0  0  0  0
   13.0930  -15.8511   23.4043 C   0  0  0  0  0  0  0  0  0  0  0  0
   14.0958  -16.1061   22.3360 C   0  0  0  0  0  0  0  0  0  0  0  0
   15.4288  -15.5447   22.6045 C   0  0  0  0  0  0  0  0  0  0  0  0
   15.8370  -15.0618   23.6708 O   0  0  0  0  0  0  0  0  0  0  0  0
   10.8574  -16.2067   24.2909 C   0  0  0  0  0  0  0  0  0  0  0  0
   11.0871  -16.9029   25.4911 O   0  0  0  0  0  0  0  0  0  0  0  0
   16.3337  -15.5589   21.5357 O   0  0  0  0  0  0  0  0  0  0  0  0
    9.9144  -15.4084   24.2577 O   0  0  0  0  0  0  0  0  0  0  0  0
  2  3  1  0
  2  6  1  0
  2  1  1  6
  4  5  2  0
  4  3  1  0
  6  7  2  0
  8  4  1  0
 10  9  1  0
 10 12  1  0
 11 10  2  0
 13 12  1  0
 14 13  1  1
 15 14  1  0
 15  6  1  0
 16 17  2  0
 16 14  1  0
 18 16  1  0
 19 18  1  0
 19 20  1  1
 21 20  1  0
 21 22  1  0
 22 26  1  0
 23 22  2  0
 24 19  1  0
 25 24  1  0
 27 24  2  0
M  END
$$$$
