DQE.pdb
     RDKit          3D

 27 26  0  0  1  0  0  0  0  0999 V2000
    7.7986  -20.0437   20.1166 N   0  0  0  0  0  0  0  0  0  0  0  0
    7.8957  -18.6296   19.8948 C   0  0  1  0  0  0  0  0  0  0  0  0
    7.6076  -18.2537   18.4587 C   0  0  0  0  0  0  0  0  0  0  0  0
    8.8149  -18.5033   17.5960 C   0  0  0  0  0  0  0  0  0  0  0  0
    9.4876  -19.5568   17.7272 O   0  0  0  0  0  0  0  0  0  0  0  0
    7.0442  -17.8960   20.8459 C   0  0  0  0  0  0  0  0  0  0  0  0
    7.0799  -16.6241   20.8806 O   0  0  0  0  0  0  0  0  0  0  0  0
    9.1581  -17.5421   16.6599 O   0  0  0  0  0  0  0  0  0  0  0  0
    1.9868  -20.2271   22.2533 N   0  0  0  0  0  0  0  0  0  0  0  0
    2.3882  -19.5445   21.0833 C   0  0  0  0  0  0  0  0  0  0  0  0
    1.8933  -19.8260   19.9707 O   0  0  0  0  0  0  0  0  0  0  0  0
    3.4353  -18.4464   21.1436 C   0  0  0  0  0  0  0  0  0  0  0  0
    3.8888  -18.3048   22.5606 C   0  0  0  0  0  0  0  0  0  0  0  0
    5.2663  -17.7517   22.6550 C   0  0  2  0  0  0  0  0  0  0  0  0
    6.1578  -18.5152   21.7570 N   0  0  0  0  0  0  0  0  0  0  0  0
    5.8089  -17.7029   23.9992 C   0  0  0  0  0  0  0  0  0  0  0  0
    5.0995  -17.1583   24.9183 O   0  0  0  0  0  0  0  0  0  0  0  0
    7.0633  -18.2148   24.4018 N   0  0  0  0  0  0  0  0  0  0  0  0
    7.5122  -18.1042   25.7849 C   0  0  1  0  0  0  0  0  0  0  0  0
    8.0710  -19.4407   26.2501 C   0  0  0  0  0  0  0  0  0  0  0  0
    8.5976  -19.4236   27.6409 C   0  0  0  0  0  0  0  0  0  0  0  0
    9.1746  -20.7001   28.0902 C   0  0  0  0  0  0  0  0  0  0  0  0
    9.4729  -21.6759   27.3862 O   0  0  0  0  0  0  0  0  0  0  0  0
    8.5965  -17.1015   25.8468 C   0  0  0  0  0  0  0  0  0  0  0  0
    9.0038  -16.5432   27.0717 O   0  0  0  0  0  0  0  0  0  0  0  0
    9.4116  -20.8230   29.4650 O   0  0  0  0  0  0  0  0  0  0  0  0
    9.1747  -16.7269   24.8207 O   0  0  0  0  0  0  0  0  0  0  0  0
  2  3  1  0
  2  6  1  0
  2  1  1  6
  4  5  2  0
  4  3  1  0
  6  7  2  0
  8  4  1  0
 10  9  1  0
 10 12  1  0
 11 10  2  0
 13 12  1  0
 14 13  1  1
 15 14  1  0
 15  6  1  0
 16 17  2  0
 16 14  1  0
 18 16  1  0
 19 18  1  0
 19 20  1  6
 21 20  1  0
 21 22  1  0
 22 26  1  0
 23 22  2  0
 24 19  1  0
 25 24  1  0
 27 24  2  0
M  END
$$$$
