DQE.pdb
     RDKit          3D

 27 26  0  0  1  0  0  0  0  0999 V2000
    7.5300  -18.8396   17.8623 N   0  0  0  0  0  0  0  0  0  0  0  0
    8.4939  -17.9004   17.3653 C   0  0  1  0  0  0  0  0  0  0  0  0
    8.1537  -17.4117   15.9753 C   0  0  0  0  0  0  0  0  0  0  0  0
    9.4077  -17.1768   15.1774 C   0  0  0  0  0  0  0  0  0  0  0  0
   10.2530  -16.3251   15.5510 O   0  0  0  0  0  0  0  0  0  0  0  0
    8.6772  -16.7926   18.3176 C   0  0  0  0  0  0  0  0  0  0  0  0
    8.5221  -15.5898   17.9309 O   0  0  0  0  0  0  0  0  0  0  0  0
    9.5986  -17.9237   14.0269 O   0  0  0  0  0  0  0  0  0  0  0  0
    7.5101  -12.7881   19.6547 N   0  0  0  0  0  0  0  0  0  0  0  0
    7.4465  -12.8855   21.0627 C   0  0  0  0  0  0  0  0  0  0  0  0
    7.3688  -11.8628   21.7770 O   0  0  0  0  0  0  0  0  0  0  0  0
    7.4708  -14.2389   21.7508 C   0  0  0  0  0  0  0  0  0  0  0  0
    7.6106  -15.2971   20.7048 C   0  0  0  0  0  0  0  0  0  0  0  0
    8.9848  -15.8647   20.6627 C   0  0  2  0  0  0  0  0  0  0  0  0
    9.0246  -16.9654   19.6774 N   0  0  0  0  0  0  0  0  0  0  0  0
    9.4988  -16.3038   21.9459 C   0  0  0  0  0  0  0  0  0  0  0  0
    8.8946  -17.2649   22.5425 O   0  0  0  0  0  0  0  0  0  0  0  0
   10.6268  -15.7699   22.6095 N   0  0  0  0  0  0  0  0  0  0  0  0
   11.5602  -16.6352   23.3213 C   0  0  1  0  0  0  0  0  0  0  0  0
   12.9211  -15.9602   23.4059 C   0  0  0  0  0  0  0  0  0  0  0  0
   13.9246  -16.7218   24.1965 C   0  0  0  0  0  0  0  0  0  0  0  0
   15.2804  -16.7188   23.6256 C   0  0  0  0  0  0  0  0  0  0  0  0
   15.8305  -15.7956   23.0076 O   0  0  0  0  0  0  0  0  0  0  0  0
   11.0566  -16.8372   24.6962 C   0  0  0  0  0  0  0  0  0  0  0  0
   11.6262  -17.8014   25.5468 O   0  0  0  0  0  0  0  0  0  0  0  0
   16.0292  -17.8892   23.8015 O   0  0  0  0  0  0  0  0  0  0  0  0
   10.1190  -16.1618   25.1349 O   0  0  0  0  0  0  0  0  0  0  0  0
  2  3  1  0
  2  6  1  0
  2  1  1  1
  4  5  2  0
  4  3  1  0
  6  7  2  0
  8  4  1  0
 10  9  1  0
 10 12  1  0
 11 10  2  0
 13 12  1  0
 14 13  1  1
 15 14  1  0
 15  6  1  0
 16 17  2  0
 16 14  1  0
 18 16  1  0
 19 18  1  0
 19 20  1  1
 21 20  1  0
 21 22  1  0
 22 26  1  0
 23 22  2  0
 24 19  1  0
 25 24  1  0
 27 24  2  0
M  END
$$$$
