DQE.pdb
     RDKit          3D

 27 26  0  0  1  0  0  0  0  0999 V2000
   11.0783  -16.4860   15.6217 N   0  0  0  0  0  0  0  0  0  0  0  0
   12.3709  -16.0167   16.0306 C   0  0  1  0  0  0  0  0  0  0  0  0
   13.0060  -15.1138   14.9971 C   0  0  0  0  0  0  0  0  0  0  0  0
   13.0277  -15.7866   13.6514 C   0  0  0  0  0  0  0  0  0  0  0  0
   12.9516  -17.0378   13.5609 O   0  0  0  0  0  0  0  0  0  0  0  0
   12.2962  -15.3817   17.3568 C   0  0  0  0  0  0  0  0  0  0  0  0
   13.3522  -14.9296   17.9054 O   0  0  0  0  0  0  0  0  0  0  0  0
   13.1336  -14.9886   12.5244 O   0  0  0  0  0  0  0  0  0  0  0  0
    7.1120  -13.4815   20.3721 N   0  0  0  0  0  0  0  0  0  0  0  0
    7.6169  -13.0459   19.1266 C   0  0  0  0  0  0  0  0  0  0  0  0
    6.9252  -12.3400   18.3616 O   0  0  0  0  0  0  0  0  0  0  0  0
    9.0183  -13.4236   18.6801 C   0  0  0  0  0  0  0  0  0  0  0  0
    9.6527  -14.2403   19.7590 C   0  0  0  0  0  0  0  0  0  0  0  0
   11.0584  -14.6021   19.4341 C   0  0  2  0  0  0  0  0  0  0  0  0
   11.1008  -15.2287   18.0964 N   0  0  0  0  0  0  0  0  0  0  0  0
   11.7101  -15.4450   20.4182 C   0  0  0  0  0  0  0  0  0  0  0  0
   11.4226  -16.6948   20.4293 O   0  0  0  0  0  0  0  0  0  0  0  0
   12.6548  -15.0147   21.3774 N   0  0  0  0  0  0  0  0  0  0  0  0
   13.3820  -15.9743   22.2002 C   0  0  1  0  0  0  0  0  0  0  0  0
   14.8261  -15.5223   22.3583 C   0  0  0  0  0  0  0  0  0  0  0  0
   15.6355  -16.3897   23.2551 C   0  0  0  0  0  0  0  0  0  0  0  0
   17.0351  -15.9653   23.4138 C   0  0  0  0  0  0  0  0  0  0  0  0
   18.0030  -16.3009   22.7156 O   0  0  0  0  0  0  0  0  0  0  0  0
   12.7583  -16.0104   23.5398 C   0  0  0  0  0  0  0  0  0  0  0  0
   13.0643  -17.0298   24.4590 O   0  0  0  0  0  0  0  0  0  0  0  0
   17.2996  -15.0855   24.4709 O   0  0  0  0  0  0  0  0  0  0  0  0
   11.9494  -15.1430   23.8875 O   0  0  0  0  0  0  0  0  0  0  0  0
  2  3  1  0
  2  6  1  0
  2  1  1  6
  4  5  2  0
  4  3  1  0
  6  7  2  0
  8  4  1  0
 10  9  1  0
 10 12  1  0
 11 10  2  0
 13 12  1  0
 14 13  1  1
 15 14  1  0
 15  6  1  0
 16 17  2  0
 16 14  1  0
 18 16  1  0
 19 18  1  0
 19 20  1  1
 21 20  1  0
 21 22  1  0
 22 26  1  0
 23 22  2  0
 24 19  1  0
 25 24  1  0
 27 24  2  0
M  END
$$$$
