DQE.pdb
     RDKit          3D

 27 26  0  0  1  0  0  0  0  0999 V2000
   12.5265  -20.1540   20.3202 N   0  0  0  0  0  0  0  0  0  0  0  0
   12.0351  -18.8107   20.4316 C   0  0  1  0  0  0  0  0  0  0  0  0
   11.3850  -18.3306   19.1535 C   0  0  0  0  0  0  0  0  0  0  0  0
   12.4253  -17.8290   18.1890 C   0  0  0  0  0  0  0  0  0  0  0  0
   13.6477  -17.9026   18.4718 O   0  0  0  0  0  0  0  0  0  0  0  0
   11.1430  -18.6799   21.5955 C   0  0  0  0  0  0  0  0  0  0  0  0
   10.6579  -17.5431   21.8998 O   0  0  0  0  0  0  0  0  0  0  0  0
   11.9955  -17.2878   16.9888 O   0  0  0  0  0  0  0  0  0  0  0  0
    7.4104  -23.1172   25.0672 N   0  0  0  0  0  0  0  0  0  0  0  0
    7.3336  -21.7068   25.0927 C   0  0  0  0  0  0  0  0  0  0  0  0
    6.2393  -21.1181   24.9589 O   0  0  0  0  0  0  0  0  0  0  0  0
    8.5815  -20.8630   25.2839 C   0  0  0  0  0  0  0  0  0  0  0  0
    9.3963  -20.9362   24.0332 C   0  0  0  0  0  0  0  0  0  0  0  0
    9.8680  -19.5960   23.5930 C   0  0  2  0  0  0  0  0  0  0  0  0
   10.7688  -19.7564   22.4325 N   0  0  0  0  0  0  0  0  0  0  0  0
   10.5015  -18.8055   24.6309 C   0  0  0  0  0  0  0  0  0  0  0  0
   11.7478  -18.9995   24.8631 O   0  0  0  0  0  0  0  0  0  0  0  0
    9.8676  -17.8182   25.4192 N   0  0  0  0  0  0  0  0  0  0  0  0
   10.6025  -17.0894   26.4465 C   0  0  1  0  0  0  0  0  0  0  0  0
    9.7461  -15.9492   26.9769 C   0  0  0  0  0  0  0  0  0  0  0  0
   10.3898  -15.1666   28.0654 C   0  0  0  0  0  0  0  0  0  0  0  0
    9.5760  -14.0545   28.5803 C   0  0  0  0  0  0  0  0  0  0  0  0
    8.4109  -13.7710   28.2655 O   0  0  0  0  0  0  0  0  0  0  0  0
   10.8871  -18.0141   27.5640 C   0  0  0  0  0  0  0  0  0  0  0  0
   12.0761  -17.9137   28.3083 O   0  0  0  0  0  0  0  0  0  0  0  0
   10.1877  -13.2271   29.5303 O   0  0  0  0  0  0  0  0  0  0  0  0
   10.0851  -18.9020   27.8738 O   0  0  0  0  0  0  0  0  0  0  0  0
  2  3  1  0
  2  6  1  0
  2  1  1  6
  4  5  2  0
  4  3  1  0
  6  7  2  0
  8  4  1  0
 10  9  1  0
 10 12  1  0
 11 10  2  0
 13 12  1  0
 14 13  1  1
 15 14  1  0
 15  6  1  0
 16 17  2  0
 16 14  1  0
 18 16  1  0
 19 18  1  0
 19 20  1  1
 21 20  1  0
 21 22  1  0
 22 26  1  0
 23 22  2  0
 24 19  1  0
 25 24  1  0
 27 24  2  0
M  END
$$$$
