DQE.pdb
     RDKit          3D

 27 26  0  0  1  0  0  0  0  0999 V2000
    7.0972  -16.9514   20.2395 N   0  0  0  0  0  0  0  0  0  0  0  0
    8.1698  -16.0214   20.0319 C   0  0  1  0  0  0  0  0  0  0  0  0
    7.7650  -14.8699   19.1393 C   0  0  0  0  0  0  0  0  0  0  0  0
    7.9725  -15.2264   17.6922 C   0  0  0  0  0  0  0  0  0  0  0  0
    8.4201  -16.3557   17.3698 O   0  0  0  0  0  0  0  0  0  0  0  0
    8.7161  -15.5642   21.3204 C   0  0  0  0  0  0  0  0  0  0  0  0
    9.7457  -14.8161   21.3445 O   0  0  0  0  0  0  0  0  0  0  0  0
    7.6569  -14.2771   16.7345 O   0  0  0  0  0  0  0  0  0  0  0  0
    5.7831  -14.3293   26.6352 N   0  0  0  0  0  0  0  0  0  0  0  0
    6.2748  -13.3071   25.7931 C   0  0  0  0  0  0  0  0  0  0  0  0
    5.8643  -12.1313   25.8989 O   0  0  0  0  0  0  0  0  0  0  0  0
    7.3189  -13.6078   24.7324 C   0  0  0  0  0  0  0  0  0  0  0  0
    7.6354  -15.0675   24.7829 C   0  0  0  0  0  0  0  0  0  0  0  0
    8.7410  -15.4331   23.8575 C   0  0  2  0  0  0  0  0  0  0  0  0
    8.1677  -15.9027   22.5789 N   0  0  0  0  0  0  0  0  0  0  0  0
    9.6794  -16.4035   24.3880 C   0  0  0  0  0  0  0  0  0  0  0  0
    9.3186  -17.6334   24.4297 O   0  0  0  0  0  0  0  0  0  0  0  0
   10.9796  -16.1194   24.8640 N   0  0  0  0  0  0  0  0  0  0  0  0
   11.8067  -17.1618   25.4608 C   0  0  1  0  0  0  0  0  0  0  0  0
   13.2746  -16.8691   25.1883 C   0  0  0  0  0  0  0  0  0  0  0  0
   13.5915  -16.6588   23.7506 C   0  0  0  0  0  0  0  0  0  0  0  0
   14.9831  -16.2625   23.4844 C   0  0  0  0  0  0  0  0  0  0  0  0
   15.8792  -16.0695   24.3190 O   0  0  0  0  0  0  0  0  0  0  0  0
   11.5949  -17.1478   26.9236 C   0  0  0  0  0  0  0  0  0  0  0  0
   12.2025  -18.1038   27.7572 O   0  0  0  0  0  0  0  0  0  0  0  0
   15.3301  -16.0847   22.1394 O   0  0  0  0  0  0  0  0  0  0  0  0
   10.8762  -16.2931   27.4533 O   0  0  0  0  0  0  0  0  0  0  0  0
  2  3  1  0
  2  6  1  0
  2  1  1  1
  4  5  2  0
  4  3  1  0
  6  7  2  0
  8  4  1  0
 10  9  1  0
 10 12  1  0
 11 10  2  0
 13 12  1  0
 14 13  1  1
 15 14  1  0
 15  6  1  0
 16 17  2  0
 16 14  1  0
 18 16  1  0
 19 18  1  0
 19 20  1  1
 21 20  1  0
 21 22  1  0
 22 26  1  0
 23 22  2  0
 24 19  1  0
 25 24  1  0
 27 24  2  0
M  END
$$$$
