DQE.pdb
     RDKit          3D

 27 26  0  0  1  0  0  0  0  0999 V2000
    9.3824  -16.1337   19.6019 N   0  0  0  0  0  0  0  0  0  0  0  0
    8.5970  -16.5779   20.7173 C   0  0  1  0  0  0  0  0  0  0  0  0
    8.5926  -18.0841   20.8514 C   0  0  0  0  0  0  0  0  0  0  0  0
    7.9396  -18.7181   19.6531 C   0  0  0  0  0  0  0  0  0  0  0  0
    8.5996  -19.4614   18.8840 O   0  0  0  0  0  0  0  0  0  0  0  0
    9.0292  -15.9081   21.9552 C   0  0  0  0  0  0  0  0  0  0  0  0
   10.2697  -15.7501   22.1925 O   0  0  0  0  0  0  0  0  0  0  0  0
    6.5983  -18.4581   19.4270 O   0  0  0  0  0  0  0  0  0  0  0  0
    5.4071  -12.5979   25.9122 N   0  0  0  0  0  0  0  0  0  0  0  0
    6.7027  -12.3477   26.4166 C   0  0  0  0  0  0  0  0  0  0  0  0
    6.9031  -11.4492   27.2620 O   0  0  0  0  0  0  0  0  0  0  0  0
    7.8925  -13.1650   25.9453 C   0  0  0  0  0  0  0  0  0  0  0  0
    7.4714  -13.9691   24.7581 C   0  0  0  0  0  0  0  0  0  0  0  0
    8.6052  -14.7270   24.1644 C   0  0  2  0  0  0  0  0  0  0  0  0
    8.1429  -15.4084   22.9371 N   0  0  0  0  0  0  0  0  0  0  0  0
    9.2437  -15.6671   25.0656 C   0  0  0  0  0  0  0  0  0  0  0  0
    8.6328  -16.7638   25.3277 O   0  0  0  0  0  0  0  0  0  0  0  0
   10.5010  -15.4907   25.6868 N   0  0  0  0  0  0  0  0  0  0  0  0
   11.0948  -16.5480   26.4969 C   0  0  1  0  0  0  0  0  0  0  0  0
   12.6099  -16.5037   26.3655 C   0  0  0  0  0  0  0  0  0  0  0  0
   13.0943  -16.5066   24.9594 C   0  0  0  0  0  0  0  0  0  0  0  0
   14.5543  -16.3954   24.8171 C   0  0  0  0  0  0  0  0  0  0  0  0
   15.3520  -17.3061   24.5504 O   0  0  0  0  0  0  0  0  0  0  0  0
   10.7449  -16.3061   27.9125 C   0  0  0  0  0  0  0  0  0  0  0  0
   11.1246  -17.2090   28.9217 O   0  0  0  0  0  0  0  0  0  0  0  0
   15.0996  -15.1191   25.0042 O   0  0  0  0  0  0  0  0  0  0  0  0
   10.1077  -15.3011   28.2466 O   0  0  0  0  0  0  0  0  0  0  0  0
  2  3  1  0
  2  6  1  0
  2  1  1  6
  4  5  2  0
  4  3  1  0
  6  7  2  0
  8  4  1  0
 10  9  1  0
 10 12  1  0
 11 10  2  0
 13 12  1  0
 14 13  1  1
 15 14  1  0
 15  6  1  0
 16 17  2  0
 16 14  1  0
 18 16  1  0
 19 18  1  0
 19 20  1  1
 21 20  1  0
 21 22  1  0
 22 26  1  0
 23 22  2  0
 24 19  1  0
 25 24  1  0
 27 24  2  0
M  END
$$$$
