DQE.pdb
     RDKit          3D

 27 26  0  0  1  0  0  0  0  0999 V2000
   13.8863  -18.4510   17.8340 N   0  0  0  0  0  0  0  0  0  0  0  0
   15.1920  -17.9514   18.1563 C   0  0  1  0  0  0  0  0  0  0  0  0
   15.7257  -17.0160   17.0947 C   0  0  0  0  0  0  0  0  0  0  0  0
   17.1924  -16.7571   17.3093 C   0  0  0  0  0  0  0  0  0  0  0  0
   17.8854  -17.5426   18.0037 O   0  0  0  0  0  0  0  0  0  0  0  0
   15.1966  -17.3380   19.4947 C   0  0  0  0  0  0  0  0  0  0  0  0
   16.2026  -16.6598   19.8796 O   0  0  0  0  0  0  0  0  0  0  0  0
   17.7496  -15.6337   16.7214 O   0  0  0  0  0  0  0  0  0  0  0  0
   10.3185  -16.9445   23.4570 N   0  0  0  0  0  0  0  0  0  0  0  0
   11.3343  -16.3398   24.2305 C   0  0  0  0  0  0  0  0  0  0  0  0
   11.0850  -15.8509   25.3534 O   0  0  0  0  0  0  0  0  0  0  0  0
   12.7621  -16.2661   23.7189 C   0  0  0  0  0  0  0  0  0  0  0  0
   12.8164  -16.9219   22.3770 C   0  0  0  0  0  0  0  0  0  0  0  0
   14.1649  -16.8191   21.7578 C   0  0  2  0  0  0  0  0  0  0  0  0
   14.1331  -17.4468   20.4202 N   0  0  0  0  0  0  0  0  0  0  0  0
   15.2428  -17.3678   22.5583 C   0  0  0  0  0  0  0  0  0  0  0  0
   15.3983  -18.6407   22.5720 O   0  0  0  0  0  0  0  0  0  0  0  0
   16.1595  -16.6200   23.3316 N   0  0  0  0  0  0  0  0  0  0  0  0
   17.1785  -17.2815   24.1384 C   0  0  1  0  0  0  0  0  0  0  0  0
   18.3580  -16.3427   24.3438 C   0  0  0  0  0  0  0  0  0  0  0  0
   19.0671  -15.9804   23.0876 C   0  0  0  0  0  0  0  0  0  0  0  0
   20.2230  -15.0900   23.2749 C   0  0  0  0  0  0  0  0  0  0  0  0
   20.2125  -13.8516   23.3319 O   0  0  0  0  0  0  0  0  0  0  0  0
   16.5986  -17.5938   25.4617 C   0  0  0  0  0  0  0  0  0  0  0  0
   15.3208  -17.1320   25.8249 O   0  0  0  0  0  0  0  0  0  0  0  0
   21.4707  -15.7130   23.4024 O   0  0  0  0  0  0  0  0  0  0  0  0
   17.2237  -18.2707   26.2854 O   0  0  0  0  0  0  0  0  0  0  0  0
  2  3  1  0
  2  6  1  0
  2  1  1  6
  4  5  2  0
  4  3  1  0
  6  7  2  0
  8  4  1  0
 10  9  1  0
 10 12  1  0
 11 10  2  0
 13 12  1  0
 14 13  1  1
 15 14  1  0
 15  6  1  0
 16 17  2  0
 16 14  1  0
 18 16  1  0
 19 18  1  0
 19 20  1  1
 21 20  1  0
 21 22  1  0
 22 26  1  0
 23 22  2  0
 24 19  1  0
 25 24  1  0
 27 24  2  0
M  END
$$$$
