DQE.pdb
     RDKit          3D

 27 26  0  0  1  0  0  0  0  0999 V2000
    9.0471  -15.8411   19.2725 N   0  0  0  0  0  0  0  0  0  0  0  0
    8.1673  -16.2298   20.3369 C   0  0  1  0  0  0  0  0  0  0  0  0
    7.9022  -17.7186   20.3464 C   0  0  0  0  0  0  0  0  0  0  0  0
    7.1905  -18.1354   19.0880 C   0  0  0  0  0  0  0  0  0  0  0  0
    7.8362  -18.3659   18.0347 O   0  0  0  0  0  0  0  0  0  0  0  0
    8.6734  -15.7442   21.6314 C   0  0  0  0  0  0  0  0  0  0  0  0
    9.9240  -15.7536   21.8687 O   0  0  0  0  0  0  0  0  0  0  0  0
    5.8114  -18.2560   19.1276 O   0  0  0  0  0  0  0  0  0  0  0  0
    5.5078  -12.3936   25.9068 N   0  0  0  0  0  0  0  0  0  0  0  0
    6.7506  -12.5576   26.5583 C   0  0  0  0  0  0  0  0  0  0  0  0
    7.0131  -11.9383   27.6117 O   0  0  0  0  0  0  0  0  0  0  0  0
    7.8062  -13.4933   25.9962 C   0  0  0  0  0  0  0  0  0  0  0  0
    7.3450  -13.9754   24.6589 C   0  0  0  0  0  0  0  0  0  0  0  0
    8.3858  -14.7794   23.9641 C   0  0  2  0  0  0  0  0  0  0  0  0
    7.8503  -15.2503   22.6696 N   0  0  0  0  0  0  0  0  0  0  0  0
    8.9119  -15.8879   24.7374 C   0  0  0  0  0  0  0  0  0  0  0  0
    8.1776  -16.9300   24.8774 O   0  0  0  0  0  0  0  0  0  0  0  0
   10.1822  -15.9337   25.3552 N   0  0  0  0  0  0  0  0  0  0  0  0
   10.6622  -17.1509   25.9992 C   0  0  1  0  0  0  0  0  0  0  0  0
   11.9947  -17.5611   25.3901 C   0  0  0  0  0  0  0  0  0  0  0  0
   13.0960  -16.5933   25.6398 C   0  0  0  0  0  0  0  0  0  0  0  0
   14.2085  -16.6747   24.6806 C   0  0  0  0  0  0  0  0  0  0  0  0
   14.3230  -17.4647   23.7321 O   0  0  0  0  0  0  0  0  0  0  0  0
   10.8757  -16.8687   27.4343 C   0  0  0  0  0  0  0  0  0  0  0  0
   11.2403  -17.8887   28.3313 O   0  0  0  0  0  0  0  0  0  0  0  0
   15.2511  -15.7574   24.8619 O   0  0  0  0  0  0  0  0  0  0  0  0
   10.7390  -15.7257   27.8842 O   0  0  0  0  0  0  0  0  0  0  0  0
  2  3  1  0
  2  6  1  0
  2  1  1  6
  4  5  2  0
  4  3  1  0
  6  7  2  0
  8  4  1  0
 10  9  1  0
 10 12  1  0
 11 10  2  0
 13 12  1  0
 14 13  1  1
 15 14  1  0
 15  6  1  0
 16 17  2  0
 16 14  1  0
 18 16  1  0
 19 18  1  0
 19 20  1  6
 21 20  1  0
 21 22  1  0
 22 26  1  0
 23 22  2  0
 24 19  1  0
 25 24  1  0
 27 24  2  0
M  END
$$$$
