VMQ.pdb
     RDKit          3D

 25 24  0  0  1  0  0  0  0  0999 V2000
    7.2633  -16.0285   19.8395 C   0  0  0  0  0  0  0  0  0  0  0  0
    8.0147  -14.9017   19.2097 C   0  0  1  0  0  0  0  0  0  0  0  0
    7.4542  -14.6935   17.8135 C   0  0  0  0  0  0  0  0  0  0  0  0
    7.8976  -13.6052   19.9417 C   0  0  2  0  0  0  0  0  0  0  0  0
    8.6186  -12.5893   19.2128 N   0  0  0  0  0  0  0  0  0  0  0  0
    8.3474  -13.6952   21.3568 C   0  0  0  0  0  0  0  0  0  0  0  0
    9.5768  -13.7874   21.6061 O   0  0  0  0  0  0  0  0  0  0  0  0
    6.0304  -10.9336   26.9137 C   0  0  0  0  0  0  0  0  0  0  0  0
    6.0147  -12.7165   27.2962 S   0  0  0  0  0  0  0  0  0  0  0  0
    7.2582  -13.5604   26.2547 C   0  0  0  0  0  0  0  0  0  0  0  0
    6.8900  -13.2889   24.8299 C   0  0  0  0  0  0  0  0  0  0  0  0
    7.8830  -13.8065   23.8332 C   0  0  2  0  0  0  0  0  0  0  0  0
    7.4538  -13.6829   22.4637 N   0  0  0  0  0  0  0  0  0  0  0  0
    8.3496  -15.1790   24.1556 C   0  0  0  0  0  0  0  0  0  0  0  0
    7.5392  -16.1393   24.1269 O   0  0  0  0  0  0  0  0  0  0  0  0
   13.7791  -15.8804   21.4787 N   0  0  0  0  0  0  0  0  0  0  0  0
   13.1509  -15.9814   22.7413 C   0  0  0  0  0  0  0  0  0  0  0  0
   13.7088  -15.4948   23.7432 O   0  0  0  0  0  0  0  0  0  0  0  0
   11.8355  -16.6570   22.9013 C   0  0  0  0  0  0  0  0  0  0  0  0
   11.5825  -16.9321   24.3556 C   0  0  0  0  0  0  0  0  0  0  0  0
   10.1471  -16.8521   24.7445 C   0  0  2  0  0  0  0  0  0  0  0  0
    9.6939  -15.4667   24.5021 N   0  0  0  0  0  0  0  0  0  0  0  0
    9.9593  -17.0990   26.1893 C   0  0  0  0  0  0  0  0  0  0  0  0
   10.2669  -18.2277   26.6958 O   0  0  0  0  0  0  0  0  0  0  0  0
    9.4595  -16.1670   27.0639 O   0  0  0  0  0  0  0  0  0  0  0  0
  2  1  1  1
  3  2  1  0
  4  2  1  0
  4  5  1  6
  6  4  1  0
  7  6  2  0
  9 10  1  0
  9  8  1  0
 11 10  1  0
 12 11  1  1
 12 13  1  0
 13  6  1  0
 14 12  1  0
 14 15  2  0
 17 16  1  0
 17 19  1  0
 18 17  2  0
 19 20  1  0
 21 20  1  1
 21 22  1  0
 22 14  1  0
 23 21  1  0
 24 23  2  0
 25 23  1  0
M  END
$$$$
