VMQ.pdb
     RDKit          3D

 25 24  0  0  1  0  0  0  0  0999 V2000
    6.5491  -14.7043   18.4155 C   0  0  0  0  0  0  0  0  0  0  0  0
    7.2154  -14.8077   19.7483 C   0  0  1  0  0  0  0  0  0  0  0  0
    8.5922  -15.4118   19.5331 C   0  0  0  0  0  0  0  0  0  0  0  0
    7.3998  -13.4980   20.4420 C   0  0  2  0  0  0  0  0  0  0  0  0
    8.1716  -12.6229   19.5925 N   0  0  0  0  0  0  0  0  0  0  0  0
    8.0089  -13.6372   21.7921 C   0  0  0  0  0  0  0  0  0  0  0  0
    9.2541  -13.5146   21.9199 O   0  0  0  0  0  0  0  0  0  0  0  0
    7.3971  -11.9455   28.0996 C   0  0  0  0  0  0  0  0  0  0  0  0
    5.8613  -12.0890   27.1271 S   0  0  0  0  0  0  0  0  0  0  0  0
    6.2878  -12.4936   25.3957 C   0  0  0  0  0  0  0  0  0  0  0  0
    6.9082  -13.8553   25.4066 C   0  0  0  0  0  0  0  0  0  0  0  0
    7.8456  -14.1084   24.2644 C   0  0  2  0  0  0  0  0  0  0  0  0
    7.2531  -13.9054   22.9671 N   0  0  0  0  0  0  0  0  0  0  0  0
    8.5308  -15.4216   24.3713 C   0  0  0  0  0  0  0  0  0  0  0  0
    7.9528  -16.4643   23.9733 O   0  0  0  0  0  0  0  0  0  0  0  0
   15.1510  -18.4270   23.6329 N   0  0  0  0  0  0  0  0  0  0  0  0
   14.1682  -17.4466   23.9009 C   0  0  0  0  0  0  0  0  0  0  0  0
   14.4577  -16.2410   23.7807 O   0  0  0  0  0  0  0  0  0  0  0  0
   12.7927  -17.8226   24.3242 C   0  0  0  0  0  0  0  0  0  0  0  0
   11.9378  -16.5914   24.4146 C   0  0  0  0  0  0  0  0  0  0  0  0
   10.5474  -16.8546   24.8787 C   0  0  2  0  0  0  0  0  0  0  0  0
    9.8339  -15.5610   24.9122 N   0  0  0  0  0  0  0  0  0  0  0  0
   10.5235  -17.3730   26.2622 C   0  0  0  0  0  0  0  0  0  0  0  0
   10.1803  -16.6158   27.2287 O   0  0  0  0  0  0  0  0  0  0  0  0
   10.8550  -18.6612   26.6001 O   0  0  0  0  0  0  0  0  0  0  0  0
  2  1  1  6
  3  2  1  0
  4  2  1  0
  4  5  1  6
  6  4  1  0
  7  6  2  0
  9 10  1  0
  9  8  1  0
 11 10  1  0
 12 11  1  1
 12 13  1  0
 13  6  1  0
 14 12  1  0
 14 15  2  0
 17 16  1  0
 17 19  1  0
 18 17  2  0
 19 20  1  0
 21 20  1  1
 21 22  1  0
 22 14  1  0
 23 21  1  0
 24 23  2  0
 25 23  1  0
M  END
$$$$
