VMQ.pdb
     RDKit          3D

 25 24  0  0  1  0  0  0  0  0999 V2000
    6.5060  -17.2813   20.9006 C   0  0  0  0  0  0  0  0  0  0  0  0
    7.6622  -16.9116   20.0303 C   0  0  1  0  0  0  0  0  0  0  0  0
    7.2076  -17.0180   18.5850 C   0  0  0  0  0  0  0  0  0  0  0  0
    8.1676  -15.5225   20.2440 C   0  0  2  0  0  0  0  0  0  0  0  0
    9.1892  -15.2401   19.2644 N   0  0  0  0  0  0  0  0  0  0  0  0
    8.6513  -15.2880   21.6312 C   0  0  0  0  0  0  0  0  0  0  0  0
    9.7353  -15.8085   22.0001 O   0  0  0  0  0  0  0  0  0  0  0  0
    5.4044  -11.7171   26.3810 C   0  0  0  0  0  0  0  0  0  0  0  0
    7.1830  -11.6708   26.7808 S   0  0  0  0  0  0  0  0  0  0  0  0
    7.9748  -13.1945   26.1526 C   0  0  0  0  0  0  0  0  0  0  0  0
    7.5511  -13.3495   24.7259 C   0  0  0  0  0  0  0  0  0  0  0  0
    8.3643  -14.3430   23.9518 C   0  0  2  0  0  0  0  0  0  0  0  0
    7.9480  -14.4964   22.5813 N   0  0  0  0  0  0  0  0  0  0  0  0
    8.4869  -15.6466   24.6525 C   0  0  0  0  0  0  0  0  0  0  0  0
    7.4864  -16.4007   24.7530 O   0  0  0  0  0  0  0  0  0  0  0  0
   11.6213  -20.0506   23.1664 N   0  0  0  0  0  0  0  0  0  0  0  0
   11.6639  -20.4367   24.5258 C   0  0  0  0  0  0  0  0  0  0  0  0
   12.0705  -21.5751   24.8263 O   0  0  0  0  0  0  0  0  0  0  0  0
   11.2330  -19.5122   25.6085 C   0  0  0  0  0  0  0  0  0  0  0  0
   10.8479  -18.1867   25.0173 C   0  0  0  0  0  0  0  0  0  0  0  0
    9.8294  -17.4446   25.8111 C   0  0  2  0  0  0  0  0  0  0  0  0
    9.7038  -16.0931   25.2268 N   0  0  0  0  0  0  0  0  0  0  0  0
   10.2649  -17.2489   27.2095 C   0  0  0  0  0  0  0  0  0  0  0  0
   10.0624  -18.1571   28.0810 O   0  0  0  0  0  0  0  0  0  0  0  0
   10.8982  -16.1178   27.6602 O   0  0  0  0  0  0  0  0  0  0  0  0
  2  1  1  1
  3  2  1  0
  4  2  1  0
  4  5  1  6
  6  4  1  0
  7  6  2  0
  9 10  1  0
  9  8  1  0
 11 10  1  0
 12 11  1  1
 12 13  1  0
 13  6  1  0
 14 12  1  0
 14 15  2  0
 17 16  1  0
 17 19  1  0
 18 17  2  0
 19 20  1  0
 21 20  1  6
 21 22  1  0
 22 14  1  0
 23 21  1  0
 24 23  2  0
 25 23  1  0
M  END
$$$$
