VMQ.pdb
     RDKit          3D

 25 24  0  0  1  0  0  0  0  0999 V2000
    8.6269  -12.0902   20.2964 C   0  0  0  0  0  0  0  0  0  0  0  0
    7.6675  -13.2276   20.1666 C   0  0  1  0  0  0  0  0  0  0  0  0
    7.2737  -13.3377   18.7039 C   0  0  0  0  0  0  0  0  0  0  0  0
    8.2257  -14.5481   20.5851 C   0  0  2  0  0  0  0  0  0  0  0  0
    7.2556  -15.5780   20.3001 N   0  0  0  0  0  0  0  0  0  0  0  0
    8.6553  -14.5714   22.0092 C   0  0  0  0  0  0  0  0  0  0  0  0
    9.7548  -14.0503   22.3278 O   0  0  0  0  0  0  0  0  0  0  0  0
    6.3292  -10.6605   26.7386 C   0  0  0  0  0  0  0  0  0  0  0  0
    6.5512  -12.4672   26.8475 S   0  0  0  0  0  0  0  0  0  0  0  0
    7.1037  -13.0988   25.2230 C   0  0  0  0  0  0  0  0  0  0  0  0
    7.2756  -14.5784   25.3663 C   0  0  0  0  0  0  0  0  0  0  0  0
    8.2883  -15.1688   24.4318 C   0  0  2  0  0  0  0  0  0  0  0  0
    7.8828  -15.1585   23.0496 N   0  0  0  0  0  0  0  0  0  0  0  0
    8.7552  -16.5082   24.8718 C   0  0  0  0  0  0  0  0  0  0  0  0
    8.0113  -17.5106   24.7250 O   0  0  0  0  0  0  0  0  0  0  0  0
   13.8736  -18.9438   23.4667 N   0  0  0  0  0  0  0  0  0  0  0  0
   13.5830  -19.8436   24.5179 C   0  0  0  0  0  0  0  0  0  0  0  0
   14.2916  -20.8568   24.6696 O   0  0  0  0  0  0  0  0  0  0  0  0
   12.4476  -19.6075   25.4493 C   0  0  0  0  0  0  0  0  0  0  0  0
   11.8146  -18.2797   25.1477 C   0  0  0  0  0  0  0  0  0  0  0  0
   10.4991  -18.0726   25.8145 C   0  0  2  0  0  0  0  0  0  0  0  0
   10.0269  -16.7173   25.4626 N   0  0  0  0  0  0  0  0  0  0  0  0
   10.6248  -18.0945   27.2867 C   0  0  0  0  0  0  0  0  0  0  0  0
   10.9444  -19.1708   27.8906 O   0  0  0  0  0  0  0  0  0  0  0  0
   10.4165  -16.9989   28.0866 O   0  0  0  0  0  0  0  0  0  0  0  0
  2  1  1  6
  3  2  1  0
  4  2  1  0
  4  5  1  1
  6  4  1  0
  7  6  2  0
  9 10  1  0
  9  8  1  0
 11 10  1  0
 12 11  1  1
 12 13  1  0
 13  6  1  0
 14 12  1  0
 14 15  2  0
 17 16  1  0
 17 19  1  0
 18 17  2  0
 19 20  1  0
 21 20  1  6
 21 22  1  0
 22 14  1  0
 23 21  1  0
 24 23  2  0
 25 23  1  0
M  END
$$$$
