VMQ.pdb
     RDKit          3D

 25 24  0  0  1  0  0  0  0  0999 V2000
    8.3727  -12.1430   19.8744 C   0  0  0  0  0  0  0  0  0  0  0  0
    7.5892  -13.4109   19.7762 C   0  0  1  0  0  0  0  0  0  0  0  0
    7.3102  -13.6712   18.3061 C   0  0  0  0  0  0  0  0  0  0  0  0
    8.2954  -14.6088   20.3212 C   0  0  2  0  0  0  0  0  0  0  0  0
    7.4567  -15.7693   20.1401 N   0  0  0  0  0  0  0  0  0  0  0  0
    8.7106  -14.4420   21.7400 C   0  0  0  0  0  0  0  0  0  0  0  0
    9.8733  -14.0367   21.9962 O   0  0  0  0  0  0  0  0  0  0  0  0
    7.0861  -10.6783   26.8385 C   0  0  0  0  0  0  0  0  0  0  0  0
    6.4345  -12.3563   27.1301 S   0  0  0  0  0  0  0  0  0  0  0  0
    7.6167  -13.5796   26.4597 C   0  0  0  0  0  0  0  0  0  0  0  0
    7.1804  -13.8864   25.0616 C   0  0  0  0  0  0  0  0  0  0  0  0
    8.2419  -14.5241   24.2167 C   0  0  2  0  0  0  0  0  0  0  0  0
    7.8555  -14.7188   22.8427 N   0  0  0  0  0  0  0  0  0  0  0  0
    8.7887  -15.7618   24.8288 C   0  0  0  0  0  0  0  0  0  0  0  0
    8.1064  -16.8174   24.8242 O   0  0  0  0  0  0  0  0  0  0  0  0
   14.6129  -15.8775   24.5735 N   0  0  0  0  0  0  0  0  0  0  0  0
   13.8557  -16.7668   23.7767 C   0  0  0  0  0  0  0  0  0  0  0  0
   14.4167  -17.3949   22.8587 O   0  0  0  0  0  0  0  0  0  0  0  0
   12.4009  -16.9702   24.0099 C   0  0  0  0  0  0  0  0  0  0  0  0
   12.1300  -17.0349   25.4854 C   0  0  0  0  0  0  0  0  0  0  0  0
   10.6828  -17.0975   25.8315 C   0  0  2  0  0  0  0  0  0  0  0  0
   10.0707  -15.8133   25.4319 N   0  0  0  0  0  0  0  0  0  0  0  0
   10.4757  -17.2153   27.2898 C   0  0  0  0  0  0  0  0  0  0  0  0
   10.8642  -18.2568   27.9142 O   0  0  0  0  0  0  0  0  0  0  0  0
    9.8735  -16.2486   28.0554 O   0  0  0  0  0  0  0  0  0  0  0  0
  2  1  1  6
  3  2  1  0
  4  2  1  0
  4  5  1  1
  6  4  1  0
  7  6  2  0
  9 10  1  0
  9  8  1  0
 11 10  1  0
 12 11  1  1
 12 13  1  0
 13  6  1  0
 14 12  1  0
 14 15  2  0
 17 16  1  0
 17 19  1  0
 18 17  2  0
 19 20  1  0
 21 20  1  1
 21 22  1  0
 22 14  1  0
 23 21  1  0
 24 23  2  0
 25 23  1  0
M  END
$$$$
