VMQ.pdb
     RDKit          3D

 25 24  0  0  1  0  0  0  0  0999 V2000
    6.8536  -17.4963   21.2465 C   0  0  0  0  0  0  0  0  0  0  0  0
    8.0697  -17.2491   20.4152 C   0  0  1  0  0  0  0  0  0  0  0  0
    7.6684  -17.3788   18.9561 C   0  0  0  0  0  0  0  0  0  0  0  0
    8.6706  -15.8944   20.6000 C   0  0  2  0  0  0  0  0  0  0  0  0
    9.7707  -15.7405   19.6785 N   0  0  0  0  0  0  0  0  0  0  0  0
    9.0838  -15.6295   22.0043 C   0  0  0  0  0  0  0  0  0  0  0  0
   10.1392  -16.1542   22.4435 O   0  0  0  0  0  0  0  0  0  0  0  0
    7.1459  -11.3801   26.9324 C   0  0  0  0  0  0  0  0  0  0  0  0
    5.8401  -12.2513   26.0043 S   0  0  0  0  0  0  0  0  0  0  0  0
    6.5393  -13.7797   25.2842 C   0  0  0  0  0  0  0  0  0  0  0  0
    7.9669  -13.4877   24.9441 C   0  0  0  0  0  0  0  0  0  0  0  0
    8.6828  -14.6274   24.2837 C   0  0  2  0  0  0  0  0  0  0  0  0
    8.3430  -14.8038   22.8950 N   0  0  0  0  0  0  0  0  0  0  0  0
    8.5729  -15.8915   25.0554 C   0  0  0  0  0  0  0  0  0  0  0  0
    7.5991  -16.6620   24.8608 O   0  0  0  0  0  0  0  0  0  0  0  0
   10.1486  -20.6063   23.7430 N   0  0  0  0  0  0  0  0  0  0  0  0
   11.2415  -19.7709   24.0691 C   0  0  0  0  0  0  0  0  0  0  0  0
   12.3251  -19.9198   23.4727 O   0  0  0  0  0  0  0  0  0  0  0  0
   11.1272  -18.7153   25.1108 C   0  0  0  0  0  0  0  0  0  0  0  0
    9.7067  -18.6307   25.5903 C   0  0  0  0  0  0  0  0  0  0  0  0
    9.4892  -17.6151   26.6576 C   0  0  2  0  0  0  0  0  0  0  0  0
    9.5334  -16.2815   26.0226 N   0  0  0  0  0  0  0  0  0  0  0  0
   10.5788  -17.6313   27.6556 C   0  0  0  0  0  0  0  0  0  0  0  0
   10.7811  -18.6658   28.3727 O   0  0  0  0  0  0  0  0  0  0  0  0
   11.4257  -16.5744   27.8778 O   0  0  0  0  0  0  0  0  0  0  0  0
  2  1  1  1
  3  2  1  0
  4  2  1  0
  4  5  1  6
  6  4  1  0
  7  6  2  0
  9 10  1  0
  9  8  1  0
 11 10  1  0
 12 11  1  1
 12 13  1  0
 13  6  1  0
 14 12  1  0
 14 15  2  0
 17 16  1  0
 17 19  1  0
 18 17  2  0
 19 20  1  0
 21 20  1  6
 21 22  1  0
 22 14  1  0
 23 21  1  0
 24 23  2  0
 25 23  1  0
M  END
$$$$
