VMQ.pdb
     RDKit          3D

 25 24  0  0  1  0  0  0  0  0999 V2000
    7.0776  -19.2683   19.6387 C   0  0  0  0  0  0  0  0  0  0  0  0
    7.6969  -18.5668   20.8029 C   0  0  1  0  0  0  0  0  0  0  0  0
    8.9005  -19.3795   21.2475 C   0  0  0  0  0  0  0  0  0  0  0  0
    8.1723  -17.1838   20.5001 C   0  0  2  0  0  0  0  0  0  0  0  0
    9.1716  -17.2492   19.4608 N   0  0  0  0  0  0  0  0  0  0  0  0
    8.6716  -16.4653   21.7033 C   0  0  0  0  0  0  0  0  0  0  0  0
    9.9084  -16.4318   21.9297 O   0  0  0  0  0  0  0  0  0  0  0  0
    7.0615  -11.7697   27.9240 C   0  0  0  0  0  0  0  0  0  0  0  0
    6.5002  -12.5488   26.3737 S   0  0  0  0  0  0  0  0  0  0  0  0
    7.7335  -13.7937   25.8518 C   0  0  0  0  0  0  0  0  0  0  0  0
    7.3288  -14.2638   24.4900 C   0  0  0  0  0  0  0  0  0  0  0  0
    8.2760  -15.2519   23.8786 C   0  0  2  0  0  0  0  0  0  0  0  0
    7.8181  -15.8028   22.6287 N   0  0  0  0  0  0  0  0  0  0  0  0
    8.6968  -16.3048   24.8376 C   0  0  0  0  0  0  0  0  0  0  0  0
    7.8557  -17.1346   25.2662 O   0  0  0  0  0  0  0  0  0  0  0  0
   14.2347  -19.4837   24.8692 N   0  0  0  0  0  0  0  0  0  0  0  0
   13.3140  -18.7028   24.1335 C   0  0  0  0  0  0  0  0  0  0  0  0
   13.7025  -18.0914   23.1200 O   0  0  0  0  0  0  0  0  0  0  0  0
   11.8882  -18.5940   24.5429 C   0  0  0  0  0  0  0  0  0  0  0  0
   11.7978  -17.9306   25.8870 C   0  0  0  0  0  0  0  0  0  0  0  0
   10.4231  -17.4882   26.2508 C   0  0  2  0  0  0  0  0  0  0  0  0
   10.0302  -16.4232   25.3047 N   0  0  0  0  0  0  0  0  0  0  0  0
   10.3850  -16.8774   27.5958 C   0  0  0  0  0  0  0  0  0  0  0  0
   10.6765  -17.5689   28.6264 O   0  0  0  0  0  0  0  0  0  0  0  0
   10.0473  -15.5680   27.8298 O   0  0  0  0  0  0  0  0  0  0  0  0
  2  1  1  6
  3  2  1  0
  4  2  1  0
  4  5  1  6
  6  4  1  0
  7  6  2  0
  9 10  1  0
  9  8  1  0
 11 10  1  0
 12 11  1  1
 12 13  1  0
 13  6  1  0
 14 12  1  0
 14 15  2  0
 17 16  1  0
 17 19  1  0
 18 17  2  0
 19 20  1  0
 21 20  1  6
 21 22  1  0
 22 14  1  0
 23 21  1  0
 24 23  2  0
 25 23  1  0
M  END
$$$$
