VMQ.pdb
     RDKit          3D

 25 24  0  0  1  0  0  0  0  0999 V2000
    7.6854  -16.2890   19.6287 C   0  0  0  0  0  0  0  0  0  0  0  0
    8.1955  -15.0516   18.9656 C   0  0  1  0  0  0  0  0  0  0  0  0
    7.6063  -14.9983   17.5668 C   0  0  0  0  0  0  0  0  0  0  0  0
    7.8192  -13.7857   19.6631 C   0  0  2  0  0  0  0  0  0  0  0  0
    8.3571  -12.6674   18.9262 N   0  0  0  0  0  0  0  0  0  0  0  0
    8.2399  -13.7621   21.0898 C   0  0  0  0  0  0  0  0  0  0  0  0
    9.4481  -13.5536   21.3706 O   0  0  0  0  0  0  0  0  0  0  0  0
    7.7232  -11.6134   28.1860 C   0  0  0  0  0  0  0  0  0  0  0  0
    6.8728  -11.8040   26.5842 S   0  0  0  0  0  0  0  0  0  0  0  0
    7.1836  -13.4871   25.9410 C   0  0  0  0  0  0  0  0  0  0  0  0
    6.7301  -13.4993   24.5150 C   0  0  0  0  0  0  0  0  0  0  0  0
    7.7565  -14.0155   23.5521 C   0  0  2  0  0  0  0  0  0  0  0  0
    7.3411  -13.9651   22.1737 N   0  0  0  0  0  0  0  0  0  0  0  0
    8.2741  -15.3536   23.9357 C   0  0  0  0  0  0  0  0  0  0  0  0
    7.4733  -16.3018   24.1348 O   0  0  0  0  0  0  0  0  0  0  0  0
   10.7828  -14.2167   28.5025 N   0  0  0  0  0  0  0  0  0  0  0  0
   10.5059  -15.5764   28.7733 C   0  0  0  0  0  0  0  0  0  0  0  0
   10.7919  -16.0487   29.8900 O   0  0  0  0  0  0  0  0  0  0  0  0
    9.8791  -16.4585   27.7527 C   0  0  0  0  0  0  0  0  0  0  0  0
    9.6526  -15.6840   26.4864 C   0  0  0  0  0  0  0  0  0  0  0  0
   10.1714  -16.3594   25.2646 C   0  0  2  0  0  0  0  0  0  0  0  0
    9.6576  -15.6210   24.0923 N   0  0  0  0  0  0  0  0  0  0  0  0
    9.6528  -17.7376   25.1418 C   0  0  0  0  0  0  0  0  0  0  0  0
   10.0461  -18.6482   25.9425 O   0  0  0  0  0  0  0  0  0  0  0  0
    8.7413  -18.1280   24.1930 O   0  0  0  0  0  0  0  0  0  0  0  0
  2  1  1  1
  3  2  1  0
  4  2  1  0
  4  5  1  6
  6  4  1  0
  7  6  2  0
  9 10  1  0
  9  8  1  0
 11 10  1  0
 12 11  1  1
 12 13  1  0
 13  6  1  0
 14 12  1  0
 14 15  2  0
 17 16  1  0
 17 19  1  0
 18 17  2  0
 19 20  1  0
 21 20  1  1
 21 22  1  0
 22 14  1  0
 23 21  1  0
 24 23  2  0
 25 23  1  0
M  END
$$$$
