VMQ.pdb
     RDKit          3D

 25 24  0  0  1  0  0  0  0  0999 V2000
    7.6724  -13.7323   17.9212 C   0  0  0  0  0  0  0  0  0  0  0  0
    8.2134  -13.5196   19.2971 C   0  0  1  0  0  0  0  0  0  0  0  0
    7.2043  -12.6869   20.0687 C   0  0  0  0  0  0  0  0  0  0  0  0
    8.4411  -14.7799   20.0653 C   0  0  2  0  0  0  0  0  0  0  0  0
    7.3059  -15.6519   19.8812 N   0  0  0  0  0  0  0  0  0  0  0  0
    8.7256  -14.5383   21.5054 C   0  0  0  0  0  0  0  0  0  0  0  0
    9.8377  -14.0550   21.8392 O   0  0  0  0  0  0  0  0  0  0  0  0
    6.4169  -11.9179   28.3577 C   0  0  0  0  0  0  0  0  0  0  0  0
    5.9499  -12.5357   26.7068 S   0  0  0  0  0  0  0  0  0  0  0  0
    7.2156  -13.7251   26.1355 C   0  0  0  0  0  0  0  0  0  0  0  0
    6.9134  -14.0278   24.7015 C   0  0  0  0  0  0  0  0  0  0  0  0
    8.0721  -14.5985   23.9405 C   0  0  2  0  0  0  0  0  0  0  0  0
    7.7981  -14.8267   22.5448 N   0  0  0  0  0  0  0  0  0  0  0  0
    8.6543  -15.7934   24.6029 C   0  0  0  0  0  0  0  0  0  0  0  0
    7.9359  -16.8014   24.8212 O   0  0  0  0  0  0  0  0  0  0  0  0
   14.6397  -17.3162   24.4447 N   0  0  0  0  0  0  0  0  0  0  0  0
   13.6897  -17.0846   23.4235 C   0  0  0  0  0  0  0  0  0  0  0  0
   14.0728  -16.9854   22.2423 O   0  0  0  0  0  0  0  0  0  0  0  0
   12.2395  -16.9562   23.7279 C   0  0  0  0  0  0  0  0  0  0  0  0
   12.0124  -17.1569   25.1986 C   0  0  0  0  0  0  0  0  0  0  0  0
   10.5813  -17.0824   25.6043 C   0  0  2  0  0  0  0  0  0  0  0  0
   10.0108  -15.8553   25.0106 N   0  0  0  0  0  0  0  0  0  0  0  0
   10.4365  -16.9366   27.0676 C   0  0  0  0  0  0  0  0  0  0  0  0
   10.8422  -17.8573   27.8505 O   0  0  0  0  0  0  0  0  0  0  0  0
    9.8765  -15.8399   27.6733 O   0  0  0  0  0  0  0  0  0  0  0  0
  2  1  1  6
  3  2  1  0
  4  2  1  0
  4  5  1  1
  6  4  1  0
  7  6  2  0
  9 10  1  0
  9  8  1  0
 11 10  1  0
 12 11  1  1
 12 13  1  0
 13  6  1  0
 14 12  1  0
 14 15  2  0
 17 16  1  0
 17 19  1  0
 18 17  2  0
 19 20  1  0
 21 20  1  1
 21 22  1  0
 22 14  1  0
 23 21  1  0
 24 23  2  0
 25 23  1  0
M  END
$$$$
