VMQ.pdb
     RDKit          3D

 25 24  0  0  1  0  0  0  0  0999 V2000
    6.6509  -15.3852   18.5478 C   0  0  0  0  0  0  0  0  0  0  0  0
    7.2342  -15.3977   19.9228 C   0  0  1  0  0  0  0  0  0  0  0  0
    8.6193  -16.0144   19.8336 C   0  0  0  0  0  0  0  0  0  0  0  0
    7.3809  -14.0438   20.5361 C   0  0  2  0  0  0  0  0  0  0  0  0
    8.1663  -13.2133   19.6550 N   0  0  0  0  0  0  0  0  0  0  0  0
    7.9512  -14.0877   21.9094 C   0  0  0  0  0  0  0  0  0  0  0  0
    9.1944  -13.9735   22.0624 O   0  0  0  0  0  0  0  0  0  0  0  0
    7.2578  -11.8289   27.9816 C   0  0  0  0  0  0  0  0  0  0  0  0
    5.7358  -11.9669   26.9868 S   0  0  0  0  0  0  0  0  0  0  0  0
    6.1678  -12.5757   25.3177 C   0  0  0  0  0  0  0  0  0  0  0  0
    6.7529  -13.9421   25.4901 C   0  0  0  0  0  0  0  0  0  0  0  0
    7.7121  -14.3368   24.4077 C   0  0  2  0  0  0  0  0  0  0  0  0
    7.1598  -14.2541   23.0799 N   0  0  0  0  0  0  0  0  0  0  0  0
    8.3559  -15.6493   24.6692 C   0  0  0  0  0  0  0  0  0  0  0  0
    7.6860  -16.7077   24.5650 O   0  0  0  0  0  0  0  0  0  0  0  0
   14.3778  -16.9795   24.2155 N   0  0  0  0  0  0  0  0  0  0  0  0
   13.4135  -16.9666   23.1817 C   0  0  0  0  0  0  0  0  0  0  0  0
   13.7894  -16.9385   21.9944 O   0  0  0  0  0  0  0  0  0  0  0  0
   11.9564  -16.9860   23.4799 C   0  0  0  0  0  0  0  0  0  0  0  0
   11.7456  -17.0451   24.9655 C   0  0  0  0  0  0  0  0  0  0  0  0
   10.3131  -17.0825   25.3711 C   0  0  2  0  0  0  0  0  0  0  0  0
    9.7192  -15.7708   25.0389 N   0  0  0  0  0  0  0  0  0  0  0  0
   10.1644  -17.2426   26.8325 C   0  0  0  0  0  0  0  0  0  0  0  0
    9.7549  -16.2711   27.5492 O   0  0  0  0  0  0  0  0  0  0  0  0
   10.4437  -18.4060   27.5048 O   0  0  0  0  0  0  0  0  0  0  0  0
  2  1  1  6
  3  2  1  0
  4  2  1  0
  4  5  1  6
  6  4  1  0
  7  6  2  0
  9 10  1  0
  9  8  1  0
 11 10  1  0
 12 11  1  1
 12 13  1  0
 13  6  1  0
 14 12  1  0
 14 15  2  0
 17 16  1  0
 17 19  1  0
 18 17  2  0
 19 20  1  0
 21 20  1  1
 21 22  1  0
 22 14  1  0
 23 21  1  0
 24 23  2  0
 25 23  1  0
M  END
$$$$
