VMQ.pdb
     RDKit          3D

 25 24  0  0  1  0  0  0  0  0999 V2000
    6.0286  -18.8377   24.1536 C   0  0  0  0  0  0  0  0  0  0  0  0
    6.4163  -18.9620   22.7165 C   0  0  1  0  0  0  0  0  0  0  0  0
    5.4327  -19.9088   22.0509 C   0  0  0  0  0  0  0  0  0  0  0  0
    6.3847  -17.6736   21.9618 C   0  0  2  0  0  0  0  0  0  0  0  0
    6.6351  -17.9423   20.5661 N   0  0  0  0  0  0  0  0  0  0  0  0
    7.3253  -16.6584   22.5074 C   0  0  0  0  0  0  0  0  0  0  0  0
    8.4868  -16.5785   22.0314 O   0  0  0  0  0  0  0  0  0  0  0  0
    5.8445  -12.2342   27.2704 C   0  0  0  0  0  0  0  0  0  0  0  0
    7.1639  -11.4273   26.3044 S   0  0  0  0  0  0  0  0  0  0  0  0
    8.1778  -12.7128   25.4904 C   0  0  0  0  0  0  0  0  0  0  0  0
    7.2283  -13.6978   24.8842 C   0  0  0  0  0  0  0  0  0  0  0  0
    7.8959  -14.7831   24.0944 C   0  0  2  0  0  0  0  0  0  0  0  0
    6.9828  -15.7573   23.5537 N   0  0  0  0  0  0  0  0  0  0  0  0
    9.0203  -15.4135   24.8318 C   0  0  0  0  0  0  0  0  0  0  0  0
    9.9443  -14.6988   25.2959 O   0  0  0  0  0  0  0  0  0  0  0  0
   10.9185  -21.3112   24.2509 N   0  0  0  0  0  0  0  0  0  0  0  0
   11.9445  -20.7229   25.0256 C   0  0  0  0  0  0  0  0  0  0  0  0
   13.0359  -21.3116   25.1441 O   0  0  0  0  0  0  0  0  0  0  0  0
   11.7501  -19.4137   25.7042 C   0  0  0  0  0  0  0  0  0  0  0  0
   10.5272  -18.7370   25.1554 C   0  0  0  0  0  0  0  0  0  0  0  0
   10.2402  -17.4134   25.7749 C   0  0  2  0  0  0  0  0  0  0  0  0
    9.1057  -16.8128   25.0430 N   0  0  0  0  0  0  0  0  0  0  0  0
   11.3737  -16.4791   25.6141 C   0  0  0  0  0  0  0  0  0  0  0  0
   11.9620  -15.9969   26.6372 O   0  0  0  0  0  0  0  0  0  0  0  0
   11.8627  -16.0751   24.3971 O   0  0  0  0  0  0  0  0  0  0  0  0
  2  1  1  1
  3  2  1  0
  4  2  1  0
  4  5  1  6
  6  4  1  0
  7  6  2  0
  9 10  1  0
  9  8  1  0
 11 10  1  0
 12 11  1  1
 12 13  1  0
 13  6  1  0
 14 12  1  0
 14 15  2  0
 17 16  1  0
 17 19  1  0
 18 17  2  0
 19 20  1  0
 21 20  1  6
 21 22  1  0
 22 14  1  0
 23 21  1  0
 24 23  2  0
 25 23  1  0
M  END
$$$$
