VMQ.pdb
     RDKit          3D

 25 24  0  0  1  0  0  0  0  0999 V2000
    6.5397  -14.7931   18.9885 C   0  0  0  0  0  0  0  0  0  0  0  0
    7.2652  -14.7898   20.2942 C   0  0  1  0  0  0  0  0  0  0  0  0
    8.5213  -15.6274   20.1290 C   0  0  0  0  0  0  0  0  0  0  0  0
    7.6843  -13.4328   20.7563 C   0  0  2  0  0  0  0  0  0  0  0  0
    8.2909  -12.7288   19.6520 N   0  0  0  0  0  0  0  0  0  0  0  0
    8.5790  -13.4751   21.9441 C   0  0  0  0  0  0  0  0  0  0  0  0
    9.4211  -12.5560   22.1119 O   0  0  0  0  0  0  0  0  0  0  0  0
    6.8744  -10.3774   26.5225 C   0  0  0  0  0  0  0  0  0  0  0  0
    7.6951  -12.0054   26.5591 S   0  0  0  0  0  0  0  0  0  0  0  0
    6.5445  -13.2677   25.9064 C   0  0  0  0  0  0  0  0  0  0  0  0
    6.9185  -13.5003   24.4763 C   0  0  0  0  0  0  0  0  0  0  0  0
    8.1777  -14.2935   24.2956 C   0  0  2  0  0  0  0  0  0  0  0  0
    8.5376  -14.5113   22.9179 N   0  0  0  0  0  0  0  0  0  0  0  0
    8.1744  -15.5528   25.0828 C   0  0  0  0  0  0  0  0  0  0  0  0
    7.8864  -15.5266   26.3059 O   0  0  0  0  0  0  0  0  0  0  0  0
   12.2004  -17.7447   21.9718 N   0  0  0  0  0  0  0  0  0  0  0  0
   12.9277  -17.2737   23.0890 C   0  0  0  0  0  0  0  0  0  0  0  0
   14.1729  -17.2719   23.0522 O   0  0  0  0  0  0  0  0  0  0  0  0
   12.2384  -16.7787   24.3106 C   0  0  0  0  0  0  0  0  0  0  0  0
   10.8017  -16.4788   23.9934 C   0  0  0  0  0  0  0  0  0  0  0  0
    9.8337  -17.4052   24.6438 C   0  0  2  0  0  0  0  0  0  0  0  0
    8.4870  -16.8117   24.5104 N   0  0  0  0  0  0  0  0  0  0  0  0
   10.0869  -17.5278   26.0944 C   0  0  0  0  0  0  0  0  0  0  0  0
   10.3945  -18.6560   26.6021 O   0  0  0  0  0  0  0  0  0  0  0  0
   10.0147  -16.4760   26.9730 O   0  0  0  0  0  0  0  0  0  0  0  0
  2  1  1  6
  3  2  1  0
  4  2  1  0
  4  5  1  6
  6  4  1  0
  7  6  2  0
  9 10  1  0
  9  8  1  0
 11 10  1  0
 12 11  1  6
 12 13  1  0
 13  6  1  0
 14 12  1  0
 14 15  2  0
 17 16  1  0
 17 19  1  0
 18 17  2  0
 19 20  1  0
 21 20  1  1
 21 22  1  0
 22 14  1  0
 23 21  1  0
 24 23  2  0
 25 23  1  0
M  END
$$$$
