VMQ.pdb
     RDKit          3D

 25 24  0  0  1  0  0  0  0  0999 V2000
    6.7930  -17.2191   18.8810 C   0  0  0  0  0  0  0  0  0  0  0  0
    7.3168  -16.9622   20.2559 C   0  0  1  0  0  0  0  0  0  0  0  0
    8.1157  -18.1812   20.6832 C   0  0  0  0  0  0  0  0  0  0  0  0
    8.2171  -15.7746   20.3543 C   0  0  2  0  0  0  0  0  0  0  0  0
    9.3332  -15.9576   19.4578 N   0  0  0  0  0  0  0  0  0  0  0  0
    8.6646  -15.4995   21.7461 C   0  0  0  0  0  0  0  0  0  0  0  0
    9.7389  -16.0077   22.1578 O   0  0  0  0  0  0  0  0  0  0  0  0
    7.4440  -11.1423   27.2096 C   0  0  0  0  0  0  0  0  0  0  0  0
    6.1312  -12.2944   26.6859 S   0  0  0  0  0  0  0  0  0  0  0  0
    6.9011  -13.7813   25.9513 C   0  0  0  0  0  0  0  0  0  0  0  0
    7.5816  -13.3431   24.6928 C   0  0  0  0  0  0  0  0  0  0  0  0
    8.3576  -14.4280   24.0086 C   0  0  2  0  0  0  0  0  0  0  0  0
    7.9367  -14.6815   22.6544 N   0  0  0  0  0  0  0  0  0  0  0  0
    8.4314  -15.6712   24.8175 C   0  0  0  0  0  0  0  0  0  0  0  0
    7.5766  -16.5778   24.6527 O   0  0  0  0  0  0  0  0  0  0  0  0
   10.6503  -20.1178   23.2983 N   0  0  0  0  0  0  0  0  0  0  0  0
   11.7981  -19.6249   23.9604 C   0  0  0  0  0  0  0  0  0  0  0  0
   12.9244  -19.8359   23.4718 O   0  0  0  0  0  0  0  0  0  0  0  0
   11.6916  -18.8581   25.2304 C   0  0  0  0  0  0  0  0  0  0  0  0
   10.9350  -17.5837   24.9890 C   0  0  0  0  0  0  0  0  0  0  0  0
    9.9614  -17.2466   26.0644 C   0  0  2  0  0  0  0  0  0  0  0  0
    9.4407  -15.8915   25.7886 N   0  0  0  0  0  0  0  0  0  0  0  0
   10.6145  -17.1743   27.3880 C   0  0  0  0  0  0  0  0  0  0  0  0
   10.8989  -16.0446   27.9057 O   0  0  0  0  0  0  0  0  0  0  0  0
   10.9511  -18.2760   28.1339 O   0  0  0  0  0  0  0  0  0  0  0  0
  2  1  1  6
  3  2  1  0
  4  2  1  0
  4  5  1  6
  6  4  1  0
  7  6  2  0
  9 10  1  0
  9  8  1  0
 11 10  1  0
 12 11  1  1
 12 13  1  0
 13  6  1  0
 14 12  1  0
 14 15  2  0
 17 16  1  0
 17 19  1  0
 18 17  2  0
 19 20  1  0
 21 20  1  6
 21 22  1  0
 22 14  1  0
 23 21  1  0
 24 23  2  0
 25 23  1  0
M  END
$$$$
