LMP.pdb
     RDKit          3D

 24 24  0  0  1  0  0  0  0  0999 V2000
   11.5511  -19.4348   22.7390 C   0  0  0  0  0  0  0  0  0  0  0  0
   10.4131  -18.5089   22.4233 C   0  0  2  0  0  0  0  0  0  0  0  0
    9.2186  -19.3651   22.0507 C   0  0  0  0  0  0  0  0  0  0  0  0
   10.7293  -17.5047   21.3533 C   0  0  0  0  0  0  0  0  0  0  0  0
    9.6107  -16.4798   21.2523 C   0  0  2  0  0  0  0  0  0  0  0  0
    9.9686  -15.5788   20.1726 N   0  0  0  0  0  0  0  0  0  0  0  0
    9.5615  -15.6611   22.5023 C   0  0  0  0  0  0  0  0  0  0  0  0
   10.5092  -14.8649   22.8222 O   0  0  0  0  0  0  0  0  0  0  0  0
    5.9823  -11.8499   24.7171 C   0  0  0  0  0  0  0  0  0  0  0  0
    6.7478  -12.4943   26.2332 S   0  0  0  0  0  0  0  0  0  0  0  0
    6.5912  -14.3288   26.2894 C   0  0  0  0  0  0  0  0  0  0  0  0
    6.9771  -14.8255   24.9570 C   0  0  0  0  0  0  0  0  0  0  0  0
    8.4764  -14.9784   24.6990 C   0  0  2  0  0  0  0  0  0  0  0  0
    8.4741  -15.7144   23.4024 N   0  0  0  0  0  0  0  0  0  0  0  0
    9.1709  -15.7516   25.7210 C   0  0  0  0  0  0  0  0  0  0  0  0
    9.3005  -17.0082   25.5169 O   0  0  0  0  0  0  0  0  0  0  0  0
    9.7026  -15.2125   26.8909 N   0  0  0  0  0  0  0  0  0  0  0  0
    9.5262  -13.8716   27.4090 C   0  0  0  0  0  0  0  0  0  0  0  0
   10.9234  -13.6089   28.0171 C   0  0  0  0  0  0  0  0  0  0  0  0
   11.0990  -14.9003   28.7864 C   0  0  0  0  0  0  0  0  0  0  0  0
   10.5816  -15.9384   27.8205 C   0  0  1  0  0  0  0  0  0  0  0  0
    9.7746  -16.9159   28.5956 C   0  0  0  0  0  0  0  0  0  0  0  0
   10.3369  -17.7136   29.3862 O   0  0  0  0  0  0  0  0  0  0  0  0
    8.3956  -16.9996   28.4921 O   0  0  0  0  0  0  0  0  0  0  0  0
  2  1  1  6
  2  3  1  0
  4  2  1  0
  4  5  1  0
  5  6  1  6
  7  5  1  0
  7  8  2  0
 10 11  1  0
 10  9  1  0
 11 12  1  0
 13 12  1  1
 14 13  1  0
 14  7  1  0
 15 16  2  0
 15 13  1  0
 17 15  1  0
 18 17  1  0
 19 18  1  0
 19 20  1  0
 20 21  1  0
 21 17  1  0
 21 22  1  1
 23 22  2  0
 24 22  1  0
M  END
$$$$
