LMP.pdb
     RDKit          3D

 24 24  0  0  1  0  0  0  0  0999 V2000
    6.0278  -22.1531   23.1054 C   0  0  0  0  0  0  0  0  0  0  0  0
    5.3285  -21.3874   24.1903 C   0  0  2  0  0  0  0  0  0  0  0  0
    3.9588  -22.0099   24.3774 C   0  0  0  0  0  0  0  0  0  0  0  0
    5.2345  -19.9128   23.9257 C   0  0  0  0  0  0  0  0  0  0  0  0
    6.5883  -19.3730   23.4921 C   0  0  2  0  0  0  0  0  0  0  0  0
    7.4644  -19.4735   24.6446 N   0  0  0  0  0  0  0  0  0  0  0  0
    6.4702  -17.9196   23.1622 C   0  0  0  0  0  0  0  0  0  0  0  0
    5.6317  -17.4926   22.2968 O   0  0  0  0  0  0  0  0  0  0  0  0
    7.1856  -11.7665   26.3581 C   0  0  0  0  0  0  0  0  0  0  0  0
    7.4565  -13.4864   26.8760 S   0  0  0  0  0  0  0  0  0  0  0  0
    6.7445  -14.6410   25.6297 C   0  0  0  0  0  0  0  0  0  0  0  0
    7.7553  -14.7905   24.5682 C   0  0  0  0  0  0  0  0  0  0  0  0
    7.3058  -15.5215   23.3027 C   0  0  2  0  0  0  0  0  0  0  0  0
    7.2709  -16.9335   23.7802 N   0  0  0  0  0  0  0  0  0  0  0  0
    8.2335  -15.3853   22.1867 C   0  0  0  0  0  0  0  0  0  0  0  0
    8.9857  -16.3870   21.9254 O   0  0  0  0  0  0  0  0  0  0  0  0
    8.3466  -14.2469   21.3910 N   0  0  0  0  0  0  0  0  0  0  0  0
    7.6897  -12.9691   21.5734 C   0  0  0  0  0  0  0  0  0  0  0  0
    7.4223  -12.5675   20.1043 C   0  0  0  0  0  0  0  0  0  0  0  0
    8.7914  -12.8483   19.5238 C   0  0  0  0  0  0  0  0  0  0  0  0
    9.1693  -14.1565   20.1749 C   0  0  1  0  0  0  0  0  0  0  0  0
   10.6025  -14.0746   20.5578 C   0  0  0  0  0  0  0  0  0  0  0  0
   11.4948  -14.0956   19.6742 O   0  0  0  0  0  0  0  0  0  0  0  0
   11.0225  -13.9733   21.8742 O   0  0  0  0  0  0  0  0  0  0  0  0
  2  1  1  6
  2  3  1  0
  4  2  1  0
  4  5  1  0
  5  6  1  1
  7  5  1  0
  7  8  2  0
 10 11  1  0
 10  9  1  0
 11 12  1  0
 13 12  1  1
 14 13  1  0
 14  7  1  0
 15 16  2  0
 15 13  1  0
 17 15  1  0
 18 17  1  0
 19 18  1  0
 19 20  1  0
 20 21  1  0
 21 17  1  0
 21 22  1  1
 23 22  2  0
 24 22  1  0
M  END
$$$$
