LMP.pdb
     RDKit          3D

 24 24  0  0  1  0  0  0  0  0999 V2000
    6.9523  -22.1572   24.0759 C   0  0  0  0  0  0  0  0  0  0  0  0
    6.2297  -21.3477   25.1126 C   0  0  2  0  0  0  0  0  0  0  0  0
    4.9565  -22.0913   25.4658 C   0  0  0  0  0  0  0  0  0  0  0  0
    5.9463  -19.9360   24.6882 C   0  0  0  0  0  0  0  0  0  0  0  0
    7.2054  -19.2983   24.1226 C   0  0  2  0  0  0  0  0  0  0  0  0
    8.1314  -19.1528   25.2304 N   0  0  0  0  0  0  0  0  0  0  0  0
    6.8966  -17.9204   23.6314 C   0  0  0  0  0  0  0  0  0  0  0  0
    5.9548  -17.7000   22.7954 O   0  0  0  0  0  0  0  0  0  0  0  0
    6.5246  -11.6575   26.8314 C   0  0  0  0  0  0  0  0  0  0  0  0
    7.4962  -13.1915   26.8835 S   0  0  0  0  0  0  0  0  0  0  0  0
    6.8189  -14.4094   25.6789 C   0  0  0  0  0  0  0  0  0  0  0  0
    7.8061  -14.5191   24.5907 C   0  0  0  0  0  0  0  0  0  0  0  0
    7.4352  -15.4429   23.4300 C   0  0  2  0  0  0  0  0  0  0  0  0
    7.6196  -16.7834   24.0559 N   0  0  0  0  0  0  0  0  0  0  0  0
    8.3034  -15.3009   22.2678 C   0  0  0  0  0  0  0  0  0  0  0  0
    9.1412  -16.2421   22.0448 O   0  0  0  0  0  0  0  0  0  0  0  0
    8.2740  -14.2188   21.3902 N   0  0  0  0  0  0  0  0  0  0  0  0
    7.4329  -13.0420   21.4619 C   0  0  0  0  0  0  0  0  0  0  0  0
    7.1550  -12.7917   19.9615 C   0  0  0  0  0  0  0  0  0  0  0  0
    8.5676  -12.9088   19.4311 C   0  0  0  0  0  0  0  0  0  0  0  0
    9.1117  -14.0964   20.1872 C   0  0  1  0  0  0  0  0  0  0  0  0
   10.5053  -13.7766   20.5910 C   0  0  0  0  0  0  0  0  0  0  0  0
   10.7551  -13.4158   21.7678 O   0  0  0  0  0  0  0  0  0  0  0  0
   11.5767  -13.8564   19.7162 O   0  0  0  0  0  0  0  0  0  0  0  0
  2  1  1  6
  2  3  1  0
  4  2  1  0
  4  5  1  0
  5  6  1  1
  7  5  1  0
  7  8  2  0
 10 11  1  0
 10  9  1  0
 11 12  1  0
 13 12  1  1
 14 13  1  0
 14  7  1  0
 15 16  2  0
 15 13  1  0
 17 15  1  0
 18 17  1  0
 19 18  1  0
 19 20  1  0
 20 21  1  0
 21 17  1  0
 21 22  1  1
 23 22  2  0
 24 22  1  0
M  END
$$$$
