LMP.pdb
     RDKit          3D

 24 24  0  0  1  0  0  0  0  0999 V2000
    9.6485  -14.4770   18.1698 C   0  0  0  0  0  0  0  0  0  0  0  0
    8.2231  -14.2520   18.5819 C   0  0  2  0  0  0  0  0  0  0  0  0
    7.6127  -13.2743   17.5970 C   0  0  0  0  0  0  0  0  0  0  0  0
    8.0705  -13.7785   19.9981 C   0  0  0  0  0  0  0  0  0  0  0  0
    8.7783  -14.7330   20.9468 C   0  0  2  0  0  0  0  0  0  0  0  0
    7.9743  -15.9399   20.9987 N   0  0  0  0  0  0  0  0  0  0  0  0
    8.7881  -14.1584   22.3270 C   0  0  0  0  0  0  0  0  0  0  0  0
    8.4447  -12.9480   22.5538 O   0  0  0  0  0  0  0  0  0  0  0  0
    5.8824  -11.7872   27.6228 C   0  0  0  0  0  0  0  0  0  0  0  0
    6.7929  -12.3820   26.1677 S   0  0  0  0  0  0  0  0  0  0  0  0
    6.4743  -14.1785   25.9141 C   0  0  0  0  0  0  0  0  0  0  0  0
    7.2373  -14.5768   24.7184 C   0  0  0  0  0  0  0  0  0  0  0  0
    8.7608  -14.5358   24.8420 C   0  0  2  0  0  0  0  0  0  0  0  0
    9.1743  -14.9097   23.4592 N   0  0  0  0  0  0  0  0  0  0  0  0
    9.2961  -15.4878   25.8073 C   0  0  0  0  0  0  0  0  0  0  0  0
    9.3024  -16.7221   25.4702 O   0  0  0  0  0  0  0  0  0  0  0  0
    9.8020  -15.1405   27.0585 N   0  0  0  0  0  0  0  0  0  0  0  0
    9.5366  -13.9369   27.8190 C   0  0  0  0  0  0  0  0  0  0  0  0
   10.9188  -13.6924   28.4678 C   0  0  0  0  0  0  0  0  0  0  0  0
   11.1954  -15.0890   28.9811 C   0  0  0  0  0  0  0  0  0  0  0  0
   10.7417  -15.9623   27.8367 C   0  0  1  0  0  0  0  0  0  0  0  0
   10.0160  -17.1236   28.4130 C   0  0  0  0  0  0  0  0  0  0  0  0
    8.7649  -17.1925   28.3273 O   0  0  0  0  0  0  0  0  0  0  0  0
   10.6611  -18.1658   29.0589 O   0  0  0  0  0  0  0  0  0  0  0  0
  2  1  1  6
  2  3  1  0
  4  2  1  0
  4  5  1  0
  5  6  1  1
  7  5  1  0
  7  8  2  0
 10 11  1  0
 10  9  1  0
 11 12  1  0
 13 12  1  6
 14 13  1  0
 14  7  1  0
 15 16  2  0
 15 13  1  0
 17 15  1  0
 18 17  1  0
 19 18  1  0
 19 20  1  0
 20 21  1  0
 21 17  1  0
 21 22  1  1
 23 22  2  0
 24 22  1  0
M  END
$$$$
