LMP.pdb
     RDKit          3D

 24 24  0  0  1  0  0  0  0  0999 V2000
    7.2623  -21.9581   24.9340 C   0  0  0  0  0  0  0  0  0  0  0  0
    6.8719  -21.7975   23.4938 C   0  0  2  0  0  0  0  0  0  0  0  0
    7.8846  -22.5572   22.6596 C   0  0  0  0  0  0  0  0  0  0  0  0
    6.7552  -20.3669   23.0547 C   0  0  0  0  0  0  0  0  0  0  0  0
    5.7772  -19.6238   23.9510 C   0  0  2  0  0  0  0  0  0  0  0  0
    4.4456  -20.0191   23.5311 N   0  0  0  0  0  0  0  0  0  0  0  0
    5.8892  -18.1525   23.7102 C   0  0  0  0  0  0  0  0  0  0  0  0
    5.4742  -17.6151   22.6270 O   0  0  0  0  0  0  0  0  0  0  0  0
    7.0861  -11.2237   26.8522 C   0  0  0  0  0  0  0  0  0  0  0  0
    6.6443  -12.9853   26.8919 S   0  0  0  0  0  0  0  0  0  0  0  0
    7.7052  -13.9292   25.7185 C   0  0  0  0  0  0  0  0  0  0  0  0
    7.1792  -15.3051   25.6885 C   0  0  0  0  0  0  0  0  0  0  0  0
    6.8441  -15.8725   24.3087 C   0  0  2  0  0  0  0  0  0  0  0  0
    6.4561  -17.2695   24.6560 N   0  0  0  0  0  0  0  0  0  0  0  0
    7.9722  -15.8729   23.3857 C   0  0  0  0  0  0  0  0  0  0  0  0
    8.7977  -16.8469   23.4709 O   0  0  0  0  0  0  0  0  0  0  0  0
    8.2019  -14.8926   22.4222 N   0  0  0  0  0  0  0  0  0  0  0  0
    7.4619  -13.6655   22.2122 C   0  0  0  0  0  0  0  0  0  0  0  0
    7.5013  -13.5627   20.6699 C   0  0  0  0  0  0  0  0  0  0  0  0
    8.9755  -13.8232   20.4478 C   0  0  0  0  0  0  0  0  0  0  0  0
    9.2639  -14.9531   21.4062 C   0  0  1  0  0  0  0  0  0  0  0  0
   10.5742  -14.6776   22.0501 C   0  0  0  0  0  0  0  0  0  0  0  0
   10.6234  -14.3049   23.2484 O   0  0  0  0  0  0  0  0  0  0  0  0
   11.7810  -14.8127   21.3829 O   0  0  0  0  0  0  0  0  0  0  0  0
  2  1  1  1
  2  3  1  0
  4  2  1  0
  4  5  1  0
  5  6  1  6
  7  5  1  0
  7  8  2  0
 10 11  1  0
 10  9  1  0
 11 12  1  0
 13 12  1  1
 14 13  1  0
 14  7  1  0
 15 16  2  0
 15 13  1  0
 17 15  1  0
 18 17  1  0
 19 18  1  0
 19 20  1  0
 20 21  1  0
 21 17  1  0
 21 22  1  1
 23 22  2  0
 24 22  1  0
M  END
$$$$
