LMP.pdb
     RDKit          3D

 24 24  0  0  1  0  0  0  0  0999 V2000
    6.9434  -17.6433   21.1198 C   0  0  0  0  0  0  0  0  0  0  0  0
    6.7822  -17.2624   19.6771 C   0  0  2  0  0  0  0  0  0  0  0  0
    7.0954  -18.4896   18.8439 C   0  0  0  0  0  0  0  0  0  0  0  0
    7.6185  -16.0858   19.2652 C   0  0  0  0  0  0  0  0  0  0  0  0
    7.1732  -14.8406   20.0155 C   0  0  2  0  0  0  0  0  0  0  0  0
    7.5414  -13.7045   19.1912 N   0  0  0  0  0  0  0  0  0  0  0  0
    7.9422  -14.7180   21.2918 C   0  0  0  0  0  0  0  0  0  0  0  0
    9.2001  -14.4901   21.2994 O   0  0  0  0  0  0  0  0  0  0  0  0
    6.9416  -10.9410   26.9921 C   0  0  0  0  0  0  0  0  0  0  0  0
    6.1547  -12.5673   26.8030 S   0  0  0  0  0  0  0  0  0  0  0  0
    7.3615  -13.7767   26.1143 C   0  0  0  0  0  0  0  0  0  0  0  0
    7.0556  -13.9061   24.6789 C   0  0  0  0  0  0  0  0  0  0  0  0
    8.0892  -14.6471   23.8299 C   0  0  2  0  0  0  0  0  0  0  0  0
    7.3333  -14.8450   22.5601 N   0  0  0  0  0  0  0  0  0  0  0  0
    8.4922  -15.9323   24.3871 C   0  0  0  0  0  0  0  0  0  0  0  0
    7.6044  -16.8524   24.4375 O   0  0  0  0  0  0  0  0  0  0  0  0
    9.7720  -16.2203   24.8573 N   0  0  0  0  0  0  0  0  0  0  0  0
   10.9145  -15.3325   24.9185 C   0  0  0  0  0  0  0  0  0  0  0  0
   12.0628  -16.3132   24.5862 C   0  0  0  0  0  0  0  0  0  0  0  0
   11.6960  -17.4422   25.5249 C   0  0  0  0  0  0  0  0  0  0  0  0
   10.1970  -17.5313   25.3718 C   0  0  1  0  0  0  0  0  0  0  0  0
    9.6152  -17.7394   26.7229 C   0  0  0  0  0  0  0  0  0  0  0  0
    9.0627  -16.7866   27.3266 O   0  0  0  0  0  0  0  0  0  0  0  0
    9.6489  -18.9620   27.3739 O   0  0  0  0  0  0  0  0  0  0  0  0
  2  1  1  1
  2  3  1  0
  4  2  1  0
  4  5  1  0
  5  6  1  6
  7  5  1  0
  7  8  2  0
 10 11  1  0
 10  9  1  0
 11 12  1  0
 13 12  1  1
 14 13  1  0
 14  7  1  0
 15 16  2  0
 15 13  1  0
 17 15  1  0
 18 17  1  0
 19 18  1  0
 19 20  1  0
 20 21  1  0
 21 17  1  0
 21 22  1  1
 23 22  2  0
 24 22  1  0
M  END
$$$$
