LMP.pdb
     RDKit          3D

 24 24  0  0  1  0  0  0  0  0999 V2000
    8.3287  -19.2460   20.2007 C   0  0  0  0  0  0  0  0  0  0  0  0
    7.6269  -17.9691   20.5600 C   0  0  2  0  0  0  0  0  0  0  0  0
    6.1392  -18.2597   20.5911 C   0  0  0  0  0  0  0  0  0  0  0  0
    7.9478  -16.8240   19.6440 C   0  0  0  0  0  0  0  0  0  0  0  0
    7.4658  -15.5171   20.2535 C   0  0  2  0  0  0  0  0  0  0  0  0
    7.8788  -14.4596   19.3496 N   0  0  0  0  0  0  0  0  0  0  0  0
    8.1670  -15.2765   21.5518 C   0  0  0  0  0  0  0  0  0  0  0  0
    9.4262  -15.0626   21.6064 O   0  0  0  0  0  0  0  0  0  0  0  0
    5.7616  -11.5329   26.5051 C   0  0  0  0  0  0  0  0  0  0  0  0
    7.4030  -12.3059   26.5951 S   0  0  0  0  0  0  0  0  0  0  0  0
    7.2632  -14.1203   26.3095 C   0  0  0  0  0  0  0  0  0  0  0  0
    7.0330  -14.3030   24.8657 C   0  0  0  0  0  0  0  0  0  0  0  0
    8.1747  -14.9400   24.0728 C   0  0  2  0  0  0  0  0  0  0  0  0
    7.4887  -15.2703   22.7910 N   0  0  0  0  0  0  0  0  0  0  0  0
    8.7124  -16.1474   24.6873 C   0  0  0  0  0  0  0  0  0  0  0  0
    7.9308  -17.1566   24.7763 O   0  0  0  0  0  0  0  0  0  0  0  0
   10.0126  -16.2721   25.1729 N   0  0  0  0  0  0  0  0  0  0  0  0
   11.0799  -15.2951   25.1098 C   0  0  0  0  0  0  0  0  0  0  0  0
   12.3027  -16.2146   24.8859 C   0  0  0  0  0  0  0  0  0  0  0  0
   12.0310  -17.2444   25.9610 C   0  0  0  0  0  0  0  0  0  0  0  0
   10.5437  -17.4712   25.8393 C   0  0  1  0  0  0  0  0  0  0  0  0
    9.9845  -17.5565   27.2131 C   0  0  0  0  0  0  0  0  0  0  0  0
   10.2305  -18.5547   27.9345 O   0  0  0  0  0  0  0  0  0  0  0  0
    9.1829  -16.5673   27.7595 O   0  0  0  0  0  0  0  0  0  0  0  0
  2  1  1  6
  2  3  1  0
  4  2  1  0
  4  5  1  0
  5  6  1  6
  7  5  1  0
  7  8  2  0
 10 11  1  0
 10  9  1  0
 11 12  1  0
 13 12  1  1
 14 13  1  0
 14  7  1  0
 15 16  2  0
 15 13  1  0
 17 15  1  0
 18 17  1  0
 19 18  1  0
 19 20  1  0
 20 21  1  0
 21 17  1  0
 21 22  1  1
 23 22  2  0
 24 22  1  0
M  END
$$$$
