LMP.pdb
     RDKit          3D

 24 24  0  0  1  0  0  0  0  0999 V2000
    6.7155  -22.2294   23.7125 C   0  0  0  0  0  0  0  0  0  0  0  0
    5.8652  -21.4121   24.6405 C   0  0  2  0  0  0  0  0  0  0  0  0
    4.5630  -22.1612   24.8443 C   0  0  0  0  0  0  0  0  0  0  0  0
    5.6274  -20.0085   24.1644 C   0  0  0  0  0  0  0  0  0  0  0  0
    6.9322  -19.3912   23.6865 C   0  0  2  0  0  0  0  0  0  0  0  0
    7.8311  -19.3852   24.8257 N   0  0  0  0  0  0  0  0  0  0  0  0
    6.7056  -17.9635   23.3050 C   0  0  0  0  0  0  0  0  0  0  0  0
    5.7972  -17.6266   22.4710 O   0  0  0  0  0  0  0  0  0  0  0  0
    6.8558  -11.8494   26.7395 C   0  0  0  0  0  0  0  0  0  0  0  0
    7.5167  -13.5304   26.9322 S   0  0  0  0  0  0  0  0  0  0  0  0
    6.8027  -14.6409   25.6475 C   0  0  0  0  0  0  0  0  0  0  0  0
    7.7860  -14.7046   24.5522 C   0  0  0  0  0  0  0  0  0  0  0  0
    7.3754  -15.5100   23.3190 C   0  0  2  0  0  0  0  0  0  0  0  0
    7.4743  -16.9045   23.8371 N   0  0  0  0  0  0  0  0  0  0  0  0
    8.2637  -15.3278   22.1778 C   0  0  0  0  0  0  0  0  0  0  0  0
    9.0471  -16.2964   21.8855 O   0  0  0  0  0  0  0  0  0  0  0  0
    8.3081  -14.1793   21.3897 N   0  0  0  0  0  0  0  0  0  0  0  0
    7.5452  -12.9597   21.5568 C   0  0  0  0  0  0  0  0  0  0  0  0
    7.2897  -12.5723   20.0817 C   0  0  0  0  0  0  0  0  0  0  0  0
    8.6936  -12.7386   19.5415 C   0  0  0  0  0  0  0  0  0  0  0  0
    9.1564  -14.0159   20.1991 C   0  0  1  0  0  0  0  0  0  0  0  0
   10.5664  -13.8210   20.6250 C   0  0  0  0  0  0  0  0  0  0  0  0
   10.8328  -13.5462   21.8213 O   0  0  0  0  0  0  0  0  0  0  0  0
   11.6357  -13.9286   19.7507 O   0  0  0  0  0  0  0  0  0  0  0  0
  2  1  1  6
  2  3  1  0
  4  2  1  0
  4  5  1  0
  5  6  1  1
  7  5  1  0
  7  8  2  0
 10 11  1  0
 10  9  1  0
 11 12  1  0
 13 12  1  1
 14 13  1  0
 14  7  1  0
 15 16  2  0
 15 13  1  0
 17 15  1  0
 18 17  1  0
 19 18  1  0
 19 20  1  0
 20 21  1  0
 21 17  1  0
 21 22  1  1
 23 22  2  0
 24 22  1  0
M  END
$$$$
