LMP.pdb
     RDKit          3D

 24 24  0  0  1  0  0  0  0  0999 V2000
    3.4969  -22.2613   22.7235 C   0  0  0  0  0  0  0  0  0  0  0  0
    4.7657  -21.7120   23.3070 C   0  0  2  0  0  0  0  0  0  0  0  0
    5.0212  -22.4418   24.6111 C   0  0  0  0  0  0  0  0  0  0  0  0
    4.7478  -20.2235   23.5004 C   0  0  0  0  0  0  0  0  0  0  0  0
    6.1647  -19.6738   23.4526 C   0  0  2  0  0  0  0  0  0  0  0  0
    6.7175  -19.8327   24.7848 N   0  0  0  0  0  0  0  0  0  0  0  0
    6.1276  -18.2061   23.1704 C   0  0  0  0  0  0  0  0  0  0  0  0
    5.5944  -17.7392   22.1064 O   0  0  0  0  0  0  0  0  0  0  0  0
    7.7941  -12.2852   27.6477 C   0  0  0  0  0  0  0  0  0  0  0  0
    6.5008  -13.0784   26.6487 S   0  0  0  0  0  0  0  0  0  0  0  0
    7.2179  -13.7114   25.0744 C   0  0  0  0  0  0  0  0  0  0  0  0
    6.9845  -15.1661   25.0602 C   0  0  0  0  0  0  0  0  0  0  0  0
    6.8133  -15.8114   23.6846 C   0  0  2  0  0  0  0  0  0  0  0  0
    6.6748  -17.2493   24.0540 N   0  0  0  0  0  0  0  0  0  0  0  0
    7.9575  -15.6214   22.8018 C   0  0  0  0  0  0  0  0  0  0  0  0
    8.9039  -16.4792   22.8777 O   0  0  0  0  0  0  0  0  0  0  0  0
    8.0808  -14.5786   21.8857 N   0  0  0  0  0  0  0  0  0  0  0  0
    7.2481  -13.3996   21.7673 C   0  0  0  0  0  0  0  0  0  0  0  0
    7.2225  -13.2148   20.2323 C   0  0  0  0  0  0  0  0  0  0  0  0
    8.7021  -13.3554   19.9471 C   0  0  0  0  0  0  0  0  0  0  0  0
    9.1057  -14.5090   20.8328 C   0  0  1  0  0  0  0  0  0  0  0  0
   10.4163  -14.1723   21.4463 C   0  0  0  0  0  0  0  0  0  0  0  0
   11.4442  -14.0809   20.7304 O   0  0  0  0  0  0  0  0  0  0  0  0
   10.5730  -13.9467   22.8043 O   0  0  0  0  0  0  0  0  0  0  0  0
  2  1  1  1
  2  3  1  0
  4  2  1  0
  4  5  1  0
  5  6  1  1
  7  5  1  0
  7  8  2  0
 10 11  1  0
 10  9  1  0
 11 12  1  0
 13 12  1  1
 14 13  1  0
 14  7  1  0
 15 16  2  0
 15 13  1  0
 17 15  1  0
 18 17  1  0
 19 18  1  0
 19 20  1  0
 20 21  1  0
 21 17  1  0
 21 22  1  1
 23 22  2  0
 24 22  1  0
M  END
$$$$
