LMP.pdb
     RDKit          3D

 24 24  0  0  1  0  0  0  0  0999 V2000
    7.1610  -21.8578   25.2885 C   0  0  0  0  0  0  0  0  0  0  0  0
    6.8416  -21.6422   23.8381 C   0  0  2  0  0  0  0  0  0  0  0  0
    7.8324  -22.4545   23.0274 C   0  0  0  0  0  0  0  0  0  0  0  0
    6.8420  -20.1986   23.4267 C   0  0  0  0  0  0  0  0  0  0  0  0
    5.7374  -19.4483   24.1539 C   0  0  2  0  0  0  0  0  0  0  0  0
    4.4855  -19.8604   23.5467 N   0  0  0  0  0  0  0  0  0  0  0  0
    5.8769  -17.9804   23.9071 C   0  0  0  0  0  0  0  0  0  0  0  0
    5.4624  -17.4380   22.8261 O   0  0  0  0  0  0  0  0  0  0  0  0
    5.9240  -12.6648   27.3448 C   0  0  0  0  0  0  0  0  0  0  0  0
    7.0340  -12.5200   25.9142 S   0  0  0  0  0  0  0  0  0  0  0  0
    8.1648  -13.9724   25.8426 C   0  0  0  0  0  0  0  0  0  0  0  0
    7.3100  -15.1724   25.8466 C   0  0  0  0  0  0  0  0  0  0  0  0
    6.9240  -15.7339   24.4777 C   0  0  2  0  0  0  0  0  0  0  0  0
    6.4706  -17.1061   24.8444 N   0  0  0  0  0  0  0  0  0  0  0  0
    8.0355  -15.8003   23.5371 C   0  0  0  0  0  0  0  0  0  0  0  0
    8.8463  -16.7829   23.6578 O   0  0  0  0  0  0  0  0  0  0  0  0
    8.2641  -14.8740   22.5214 N   0  0  0  0  0  0  0  0  0  0  0  0
    7.5481  -13.6408   22.2687 C   0  0  0  0  0  0  0  0  0  0  0  0
    7.5517  -13.6142   20.7227 C   0  0  0  0  0  0  0  0  0  0  0  0
    9.0134  -13.9214   20.4790 C   0  0  0  0  0  0  0  0  0  0  0  0
    9.2990  -15.0100   21.4848 C   0  0  1  0  0  0  0  0  0  0  0  0
   10.6309  -14.7358   22.0833 C   0  0  0  0  0  0  0  0  0  0  0  0
   10.7189  -14.3159   23.2637 O   0  0  0  0  0  0  0  0  0  0  0  0
   11.8169  -14.9229   21.3917 O   0  0  0  0  0  0  0  0  0  0  0  0
  2  1  1  1
  2  3  1  0
  4  2  1  0
  4  5  1  0
  5  6  1  6
  7  5  1  0
  7  8  2  0
 10 11  1  0
 10  9  1  0
 11 12  1  0
 13 12  1  1
 14 13  1  0
 14  7  1  0
 15 16  2  0
 15 13  1  0
 17 15  1  0
 18 17  1  0
 19 18  1  0
 19 20  1  0
 20 21  1  0
 21 17  1  0
 21 22  1  1
 23 22  2  0
 24 22  1  0
M  END
$$$$
