LMP.pdb
     RDKit          3D

 24 24  0  0  1  0  0  0  0  0999 V2000
    6.1689  -21.9492   22.8558 C   0  0  0  0  0  0  0  0  0  0  0  0
    5.4947  -21.3995   24.0787 C   0  0  2  0  0  0  0  0  0  0  0  0
    4.0999  -21.9909   24.1351 C   0  0  0  0  0  0  0  0  0  0  0  0
    5.4621  -19.8996   24.1288 C   0  0  0  0  0  0  0  0  0  0  0  0
    6.7739  -19.3314   23.6107 C   0  0  2  0  0  0  0  0  0  0  0  0
    7.7155  -19.3873   24.7135 N   0  0  0  0  0  0  0  0  0  0  0  0
    6.5970  -17.8879   23.2640 C   0  0  0  0  0  0  0  0  0  0  0  0
    5.7214  -17.5025   22.4161 O   0  0  0  0  0  0  0  0  0  0  0  0
    7.1710  -11.7517   26.4188 C   0  0  0  0  0  0  0  0  0  0  0  0
    7.4510  -13.4665   26.9488 S   0  0  0  0  0  0  0  0  0  0  0  0
    6.7812  -14.6337   25.6908 C   0  0  0  0  0  0  0  0  0  0  0  0
    7.7715  -14.6926   24.6015 C   0  0  0  0  0  0  0  0  0  0  0  0
    7.3542  -15.4613   23.3473 C   0  0  2  0  0  0  0  0  0  0  0  0
    7.3796  -16.8660   23.8462 N   0  0  0  0  0  0  0  0  0  0  0  0
    8.2756  -15.3024   22.2291 C   0  0  0  0  0  0  0  0  0  0  0  0
    9.0889  -16.2634   22.0000 O   0  0  0  0  0  0  0  0  0  0  0  0
    8.3214  -14.1840   21.3990 N   0  0  0  0  0  0  0  0  0  0  0  0
    7.5286  -12.9758   21.4951 C   0  0  0  0  0  0  0  0  0  0  0  0
    7.3122  -12.6505   19.9989 C   0  0  0  0  0  0  0  0  0  0  0  0
    8.7356  -12.8065   19.5092 C   0  0  0  0  0  0  0  0  0  0  0  0
    9.2036  -14.0475   20.2298 C   0  0  1  0  0  0  0  0  0  0  0  0
   10.5949  -13.8059   20.6913 C   0  0  0  0  0  0  0  0  0  0  0  0
   10.8169  -13.4731   21.8819 O   0  0  0  0  0  0  0  0  0  0  0  0
   11.6942  -13.9306   19.8573 O   0  0  0  0  0  0  0  0  0  0  0  0
  2  1  1  6
  2  3  1  0
  4  2  1  0
  4  5  1  0
  5  6  1  1
  7  5  1  0
  7  8  2  0
 10 11  1  0
 10  9  1  0
 11 12  1  0
 13 12  1  1
 14 13  1  0
 14  7  1  0
 15 16  2  0
 15 13  1  0
 17 15  1  0
 18 17  1  0
 19 18  1  0
 19 20  1  0
 20 21  1  0
 21 17  1  0
 21 22  1  1
 23 22  2  0
 24 22  1  0
M  END
$$$$
