TNV.pdb
     RDKit          3D

 23 22  0  0  1  0  0  0  0  0999 V2000
    8.5524  -12.4932   20.1057 C   0  0  0  0  0  0  0  0  0  0  0  0
    8.1858  -13.4042   18.9555 C   0  0  1  0  0  0  0  0  0  0  0  0
    8.7790  -12.9851   17.7737 O   0  0  0  0  0  0  0  0  0  0  0  0
    8.5072  -14.8509   19.2778 C   0  0  2  0  0  0  0  0  0  0  0  0
    8.1971  -15.6953   18.1419 N   0  0  0  0  0  0  0  0  0  0  0  0
    7.7736  -15.3592   20.4561 C   0  0  0  0  0  0  0  0  0  0  0  0
    6.5475  -15.6609   20.3637 O   0  0  0  0  0  0  0  0  0  0  0  0
    5.8755  -18.2478   24.2882 N   0  0  0  0  0  0  0  0  0  0  0  0
    7.3208  -18.1294   24.1504 C   0  0  0  0  0  0  0  0  0  0  0  0
    7.9603  -18.6620   25.0529 O   0  0  0  0  0  0  0  0  0  0  0  0
    7.8554  -17.4245   23.0103 C   0  0  0  0  0  0  0  0  0  0  0  0
    7.5456  -15.9656   22.9089 C   0  0  2  0  0  0  0  0  0  0  0  0
    8.3660  -15.5381   21.7219 N   0  0  0  0  0  0  0  0  0  0  0  0
    8.0568  -15.1548   24.0108 C   0  0  0  0  0  0  0  0  0  0  0  0
    9.3233  -14.9445   24.0785 O   0  0  0  0  0  0  0  0  0  0  0  0
    6.4840  -11.9323   25.4867 C   0  0  0  0  0  0  0  0  0  0  0  0
    7.0317  -12.7501   26.6243 C   0  0  2  0  0  0  0  0  0  0  0  0
    7.5875  -11.9355   27.7443 C   0  0  0  0  0  0  0  0  0  0  0  0
    8.0046  -13.8157   26.1303 C   0  0  2  0  0  0  0  0  0  0  0  0
    7.3383  -14.5350   25.0544 N   0  0  0  0  0  0  0  0  0  0  0  0
    8.4720  -14.6811   27.2008 C   0  0  0  0  0  0  0  0  0  0  0  0
    9.5872  -14.3450   27.9374 O   0  0  0  0  0  0  0  0  0  0  0  0
    7.8878  -15.7464   27.4885 O   0  0  0  0  0  0  0  0  0  0  0  0
  2  1  1  1
  3  2  1  0
  4  2  1  0
  4  6  1  0
  4  5  1  6
  6  7  2  0
  8  9  1  0
  9 11  1  0
 10  9  2  0
 12 11  1  1
 12 14  1  0
 13 12  1  0
 13  6  1  0
 14 20  1  0
 14 15  2  0
 17 16  1  6
 17 19  1  0
 18 17  1  0
 19 21  1  0
 19 20  1  6
 21 23  2  0
 21 22  1  0
M  END
$$$$
