TNV.pdb
     RDKit          3D

 23 22  0  0  1  0  0  0  0  0999 V2000
    8.6696  -12.4051   20.2276 C   0  0  0  0  0  0  0  0  0  0  0  0
    8.0297  -13.2747   19.1685 C   0  0  1  0  0  0  0  0  0  0  0  0
    8.2486  -12.7626   17.8981 O   0  0  0  0  0  0  0  0  0  0  0  0
    8.4857  -14.7158   19.2931 C   0  0  2  0  0  0  0  0  0  0  0  0
    7.8783  -15.5223   18.2539 N   0  0  0  0  0  0  0  0  0  0  0  0
    8.1604  -15.3155   20.6044 C   0  0  0  0  0  0  0  0  0  0  0  0
    6.9706  -15.6530   20.8749 O   0  0  0  0  0  0  0  0  0  0  0  0
    8.5830  -19.4287   22.3010 N   0  0  0  0  0  0  0  0  0  0  0  0
    9.6343  -18.4514   22.0524 C   0  0  0  0  0  0  0  0  0  0  0  0
   10.3141  -18.6821   21.0565 O   0  0  0  0  0  0  0  0  0  0  0  0
    9.7803  -17.3404   22.9616 C   0  0  0  0  0  0  0  0  0  0  0  0
    8.7494  -16.2607   22.8839 C   0  0  2  0  0  0  0  0  0  0  0  0
    9.1182  -15.5464   21.6117 N   0  0  0  0  0  0  0  0  0  0  0  0
    8.8601  -15.2351   23.9178 C   0  0  0  0  0  0  0  0  0  0  0  0
    9.9446  -14.5478   23.9832 O   0  0  0  0  0  0  0  0  0  0  0  0
    6.3593  -12.5521   24.9352 C   0  0  0  0  0  0  0  0  0  0  0  0
    6.9391  -13.1102   26.2060 C   0  0  2  0  0  0  0  0  0  0  0  0
    7.0988  -12.1015   27.2940 C   0  0  0  0  0  0  0  0  0  0  0  0
    8.2175  -13.8981   25.9396 C   0  0  2  0  0  0  0  0  0  0  0  0
    7.9124  -14.8644   24.8945 N   0  0  0  0  0  0  0  0  0  0  0  0
    8.7592  -14.5032   27.1453 C   0  0  0  0  0  0  0  0  0  0  0  0
    9.5324  -13.7639   28.0141 O   0  0  0  0  0  0  0  0  0  0  0  0
    8.5465  -15.6992   27.4344 O   0  0  0  0  0  0  0  0  0  0  0  0
  2  1  1  1
  3  2  1  0
  4  2  1  0
  4  6  1  0
  4  5  1  6
  6  7  2  0
  8  9  1  0
  9 11  1  0
 10  9  2  0
 12 11  1  1
 12 14  1  0
 13 12  1  0
 13  6  1  0
 14 20  1  0
 14 15  2  0
 17 16  1  6
 17 19  1  0
 18 17  1  0
 19 21  1  0
 19 20  1  6
 21 23  2  0
 21 22  1  0
M  END
$$$$
