TNV.pdb
     RDKit          3D

 23 22  0  0  1  0  0  0  0  0999 V2000
   -1.5311  -19.1624   23.4953 C   0  0  0  0  0  0  0  0  0  0  0  0
   -0.3833  -20.1375   23.6332 C   0  0  1  0  0  0  0  0  0  0  0  0
   -0.8178  -21.3587   24.1267 O   0  0  0  0  0  0  0  0  0  0  0  0
    0.3731  -20.2823   22.3267 C   0  0  2  0  0  0  0  0  0  0  0  0
   -0.5033  -20.8073   21.2991 N   0  0  0  0  0  0  0  0  0  0  0  0
    1.5532  -21.1657   22.4347 C   0  0  0  0  0  0  0  0  0  0  0  0
    1.5114  -22.3460   21.9786 O   0  0  0  0  0  0  0  0  0  0  0  0
    7.4247  -20.6100   23.8995 N   0  0  0  0  0  0  0  0  0  0  0  0
    6.4369  -21.2655   23.0529 C   0  0  0  0  0  0  0  0  0  0  0  0
    6.8541  -22.2595   22.4655 O   0  0  0  0  0  0  0  0  0  0  0  0
    5.1061  -20.7123   22.9804 C   0  0  0  0  0  0  0  0  0  0  0  0
    3.9668  -21.6790   23.0245 C   0  0  2  0  0  0  0  0  0  0  0  0
    2.7667  -20.7709   23.0321 N   0  0  0  0  0  0  0  0  0  0  0  0
    3.8546  -22.4344   24.2695 C   0  0  0  0  0  0  0  0  0  0  0  0
    3.4776  -21.8126   25.3297 O   0  0  0  0  0  0  0  0  0  0  0  0
    1.6889  -25.2158   25.2081 C   0  0  0  0  0  0  0  0  0  0  0  0
    3.0638  -25.6170   25.6681 C   0  0  2  0  0  0  0  0  0  0  0  0
    3.0676  -26.4917   26.8771 C   0  0  0  0  0  0  0  0  0  0  0  0
    3.9813  -24.4072   25.8122 C   0  0  2  0  0  0  0  0  0  0  0  0
    4.1025  -23.8049   24.4925 N   0  0  0  0  0  0  0  0  0  0  0  0
    5.2613  -24.7482   26.4111 C   0  0  0  0  0  0  0  0  0  0  0  0
    5.4959  -24.5080   27.7477 O   0  0  0  0  0  0  0  0  0  0  0  0
    6.1828  -25.2647   25.7454 O   0  0  0  0  0  0  0  0  0  0  0  0
  2  1  1  6
  3  2  1  0
  4  2  1  0
  4  6  1  0
  4  5  1  6
  6  7  2  0
  8  9  1  0
  9 11  1  0
 10  9  2  0
 12 11  1  1
 12 14  1  0
 13 12  1  0
 13  6  1  0
 14 20  1  0
 14 15  2  0
 17 16  1  1
 17 19  1  0
 18 17  1  0
 19 21  1  0
 19 20  1  6
 21 23  2  0
 21 22  1  0
M  END
$$$$
