TNV.pdb
     RDKit          3D

 23 22  0  0  1  0  0  0  0  0999 V2000
    8.5931  -12.2857   20.2911 C   0  0  0  0  0  0  0  0  0  0  0  0
    8.0670  -13.1978   19.2055 C   0  0  1  0  0  0  0  0  0  0  0  0
    8.4233  -12.7380   17.9463 O   0  0  0  0  0  0  0  0  0  0  0  0
    8.5008  -14.6325   19.4369 C   0  0  2  0  0  0  0  0  0  0  0  0
    8.0123  -15.4795   18.3675 N   0  0  0  0  0  0  0  0  0  0  0  0
    8.0269  -15.1810   20.7251 C   0  0  0  0  0  0  0  0  0  0  0  0
    6.8139  -15.5129   20.8704 O   0  0  0  0  0  0  0  0  0  0  0  0
    7.4550  -18.9059   22.3275 N   0  0  0  0  0  0  0  0  0  0  0  0
    8.7972  -18.3454   22.2477 C   0  0  0  0  0  0  0  0  0  0  0  0
    9.5069  -18.8534   21.3843 O   0  0  0  0  0  0  0  0  0  0  0  0
    9.1627  -17.2837   23.1541 C   0  0  0  0  0  0  0  0  0  0  0  0
    8.3495  -16.0308   23.0937 C   0  0  2  0  0  0  0  0  0  0  0  0
    8.8626  -15.3671   21.8442 N   0  0  0  0  0  0  0  0  0  0  0  0
    8.6318  -15.0679   24.1548 C   0  0  0  0  0  0  0  0  0  0  0  0
    9.8268  -14.6052   24.2581 O   0  0  0  0  0  0  0  0  0  0  0  0
    5.8724  -13.3424   27.0221 C   0  0  0  0  0  0  0  0  0  0  0  0
    7.1138  -12.6794   26.4909 C   0  0  2  0  0  0  0  0  0  0  0  0
    6.8670  -11.7650   25.3378 C   0  0  0  0  0  0  0  0  0  0  0  0
    8.2161  -13.6960   26.2124 C   0  0  2  0  0  0  0  0  0  0  0  0
    7.7508  -14.5409   25.1221 N   0  0  0  0  0  0  0  0  0  0  0  0
    8.5967  -14.4431   27.3999 C   0  0  0  0  0  0  0  0  0  0  0  0
    9.2938  -13.8315   28.4193 O   0  0  0  0  0  0  0  0  0  0  0  0
    8.3095  -15.6503   27.5383 O   0  0  0  0  0  0  0  0  0  0  0  0
  2  1  1  1
  3  2  1  0
  4  2  1  0
  4  6  1  0
  4  5  1  6
  6  7  2  0
  8  9  1  0
  9 11  1  0
 10  9  2  0
 12 11  1  1
 12 14  1  0
 13 12  1  0
 13  6  1  0
 14 20  1  0
 14 15  2  0
 17 16  1  6
 17 19  1  0
 18 17  1  0
 19 21  1  0
 19 20  1  6
 21 23  2  0
 21 22  1  0
M  END
$$$$
