TNV.pdb
     RDKit          3D

 23 22  0  0  1  0  0  0  0  0999 V2000
    9.1939  -12.2897   20.2746 C   0  0  0  0  0  0  0  0  0  0  0  0
    8.4292  -12.9908   19.1740 C   0  0  1  0  0  0  0  0  0  0  0  0
    8.6804  -12.4108   17.9394 O   0  0  0  0  0  0  0  0  0  0  0  0
    8.7088  -14.4814   19.1758 C   0  0  2  0  0  0  0  0  0  0  0  0
    7.9838  -15.1258   18.0994 N   0  0  0  0  0  0  0  0  0  0  0  0
    8.3433  -15.1384   20.4485 C   0  0  0  0  0  0  0  0  0  0  0  0
    7.1380  -15.4443   20.6862 O   0  0  0  0  0  0  0  0  0  0  0  0
   10.8080  -18.9397   21.1084 N   0  0  0  0  0  0  0  0  0  0  0  0
    9.6987  -18.4612   21.9223 C   0  0  0  0  0  0  0  0  0  0  0  0
    8.6682  -19.1189   21.8096 O   0  0  0  0  0  0  0  0  0  0  0  0
    9.8983  -17.3016   22.7576 C   0  0  0  0  0  0  0  0  0  0  0  0
    8.8643  -16.2248   22.6811 C   0  0  2  0  0  0  0  0  0  0  0  0
    9.2778  -15.4600   21.4527 N   0  0  0  0  0  0  0  0  0  0  0  0
    8.9279  -15.2394   23.7572 C   0  0  0  0  0  0  0  0  0  0  0  0
   10.0411  -14.6299   23.9626 O   0  0  0  0  0  0  0  0  0  0  0  0
    6.2322  -12.6375   24.8977 C   0  0  0  0  0  0  0  0  0  0  0  0
    6.8546  -13.2639   26.1155 C   0  0  2  0  0  0  0  0  0  0  0  0
    6.9772  -12.3371   27.2787 C   0  0  0  0  0  0  0  0  0  0  0  0
    8.1674  -13.9626   25.7770 C   0  0  2  0  0  0  0  0  0  0  0  0
    7.9057  -14.8332   24.6400 N   0  0  0  0  0  0  0  0  0  0  0  0
    8.7370  -14.6593   26.9187 C   0  0  0  0  0  0  0  0  0  0  0  0
    9.5371  -13.9908   27.8199 O   0  0  0  0  0  0  0  0  0  0  0  0
    8.5250  -15.8729   27.1221 O   0  0  0  0  0  0  0  0  0  0  0  0
  2  1  1  1
  3  2  1  0
  4  2  1  0
  4  6  1  0
  4  5  1  6
  6  7  2  0
  8  9  1  0
  9 11  1  0
 10  9  2  0
 12 11  1  1
 12 14  1  0
 13 12  1  0
 13  6  1  0
 14 20  1  0
 14 15  2  0
 17 16  1  6
 17 19  1  0
 18 17  1  0
 19 21  1  0
 19 20  1  6
 21 23  2  0
 21 22  1  0
M  END
$$$$
