TNV.pdb
     RDKit          3D

 23 22  0  0  1  0  0  0  0  0999 V2000
    8.6098  -12.5381   19.9754 C   0  0  0  0  0  0  0  0  0  0  0  0
    8.2771  -13.4753   18.8359 C   0  0  1  0  0  0  0  0  0  0  0  0
    8.9588  -13.1232   17.6804 O   0  0  0  0  0  0  0  0  0  0  0  0
    8.5177  -14.9208   19.2268 C   0  0  2  0  0  0  0  0  0  0  0  0
    8.1639  -15.7991   18.1299 N   0  0  0  0  0  0  0  0  0  0  0  0
    7.7546  -15.3324   20.4239 C   0  0  0  0  0  0  0  0  0  0  0  0
    6.6141  -15.8683   20.3013 O   0  0  0  0  0  0  0  0  0  0  0  0
    5.7275  -18.2324   24.0911 N   0  0  0  0  0  0  0  0  0  0  0  0
    7.1272  -17.8302   24.0551 C   0  0  0  0  0  0  0  0  0  0  0  0
    7.7768  -18.1705   25.0396 O   0  0  0  0  0  0  0  0  0  0  0  0
    7.6106  -17.0956   22.9109 C   0  0  0  0  0  0  0  0  0  0  0  0
    7.4081  -15.6145   22.9213 C   0  0  2  0  0  0  0  0  0  0  0  0
    8.2259  -15.1638   21.7410 N   0  0  0  0  0  0  0  0  0  0  0  0
    8.0080  -14.9241   24.0598 C   0  0  0  0  0  0  0  0  0  0  0  0
    9.2869  -14.9541   24.1881 O   0  0  0  0  0  0  0  0  0  0  0  0
    5.8841  -12.9163   27.0991 C   0  0  0  0  0  0  0  0  0  0  0  0
    7.2305  -12.4014   26.6691 C   0  0  2  0  0  0  0  0  0  0  0  0
    7.1655  -11.2309   25.7458 C   0  0  0  0  0  0  0  0  0  0  0  0
    8.1156  -13.5239   26.1374 C   0  0  2  0  0  0  0  0  0  0  0  0
    7.3684  -14.1918   25.0816 N   0  0  0  0  0  0  0  0  0  0  0  0
    8.5622  -14.4247   27.1873 C   0  0  0  0  0  0  0  0  0  0  0  0
    8.0868  -15.7166   27.2516 O   0  0  0  0  0  0  0  0  0  0  0  0
    9.3823  -14.0658   28.0578 O   0  0  0  0  0  0  0  0  0  0  0  0
  2  1  1  1
  3  2  1  0
  4  2  1  0
  4  6  1  0
  4  5  1  6
  6  7  2  0
  8  9  1  0
  9 11  1  0
 10  9  2  0
 12 11  1  1
 12 14  1  0
 13 12  1  0
 13  6  1  0
 14 20  1  0
 14 15  2  0
 17 16  1  6
 17 19  1  0
 18 17  1  0
 19 21  1  0
 19 20  1  6
 21 23  2  0
 21 22  1  0
M  END
$$$$
