TNV.pdb
     RDKit          3D

 23 22  0  0  1  0  0  0  0  0999 V2000
   10.2015  -13.0227   18.6552 C   0  0  0  0  0  0  0  0  0  0  0  0
    9.2674  -13.2948   19.8132 C   0  0  1  0  0  0  0  0  0  0  0  0
    8.4190  -12.2207   20.0376 O   0  0  0  0  0  0  0  0  0  0  0  0
    8.5096  -14.5931   19.6130 C   0  0  2  0  0  0  0  0  0  0  0  0
    7.5800  -14.4624   18.5091 N   0  0  0  0  0  0  0  0  0  0  0  0
    7.7580  -15.0169   20.8131 C   0  0  0  0  0  0  0  0  0  0  0  0
    6.5172  -14.7828   20.9054 O   0  0  0  0  0  0  0  0  0  0  0  0
    6.0087  -18.1335   24.8988 N   0  0  0  0  0  0  0  0  0  0  0  0
    7.4291  -18.0544   24.5856 C   0  0  0  0  0  0  0  0  0  0  0  0
    8.1652  -18.5099   25.4561 O   0  0  0  0  0  0  0  0  0  0  0  0
    7.8329  -17.4707   23.3292 C   0  0  0  0  0  0  0  0  0  0  0  0
    7.5516  -16.0152   23.1363 C   0  0  2  0  0  0  0  0  0  0  0  0
    8.3484  -15.6883   21.9021 N   0  0  0  0  0  0  0  0  0  0  0  0
    8.1098  -15.1437   24.1667 C   0  0  0  0  0  0  0  0  0  0  0  0
    9.3884  -15.0731   24.2806 O   0  0  0  0  0  0  0  0  0  0  0  0
    5.9493  -12.5432   26.7965 C   0  0  0  0  0  0  0  0  0  0  0  0
    7.3601  -12.2836   26.3436 C   0  0  2  0  0  0  0  0  0  0  0  0
    7.4623  -11.3552   25.1798 C   0  0  0  0  0  0  0  0  0  0  0  0
    8.1280  -13.5840   26.1302 C   0  0  2  0  0  0  0  0  0  0  0  0
    7.4278  -14.3268   25.0925 N   0  0  0  0  0  0  0  0  0  0  0  0
    8.3009  -14.3363   27.3621 C   0  0  0  0  0  0  0  0  0  0  0  0
    7.6506  -15.5371   27.5472 O   0  0  0  0  0  0  0  0  0  0  0  0
    9.0355  -13.9275   28.2854 O   0  0  0  0  0  0  0  0  0  0  0  0
  2  1  1  6
  3  2  1  0
  4  2  1  0
  4  6  1  0
  4  5  1  6
  6  7  2  0
  8  9  1  0
  9 11  1  0
 10  9  2  0
 12 11  1  1
 12 14  1  0
 13 12  1  0
 13  6  1  0
 14 20  1  0
 14 15  2  0
 17 16  1  6
 17 19  1  0
 18 17  1  0
 19 21  1  0
 19 20  1  6
 21 23  2  0
 21 22  1  0
M  END
$$$$
