TNV.pdb
     RDKit          3D

 23 22  0  0  1  0  0  0  0  0999 V2000
    8.8653  -12.9240   18.2814 C   0  0  0  0  0  0  0  0  0  0  0  0
    8.6318  -13.3912   19.7008 C   0  0  1  0  0  0  0  0  0  0  0  0
    7.7697  -12.5389   20.3750 O   0  0  0  0  0  0  0  0  0  0  0  0
    8.1573  -14.8313   19.7330 C   0  0  2  0  0  0  0  0  0  0  0  0
    6.9193  -14.9648   18.9920 N   0  0  0  0  0  0  0  0  0  0  0  0
    7.9422  -15.3404   21.1039 C   0  0  0  0  0  0  0  0  0  0  0  0
    6.7809  -15.3464   21.6081 O   0  0  0  0  0  0  0  0  0  0  0  0
    8.8207  -19.0785   25.0809 N   0  0  0  0  0  0  0  0  0  0  0  0
    9.8796  -18.1863   24.6281 C   0  0  0  0  0  0  0  0  0  0  0  0
   10.8223  -18.0837   25.4077 O   0  0  0  0  0  0  0  0  0  0  0  0
    9.7351  -17.5261   23.3531 C   0  0  0  0  0  0  0  0  0  0  0  0
    8.6810  -16.4710   23.2516 C   0  0  2  0  0  0  0  0  0  0  0  0
    8.9783  -15.8380   21.9190 N   0  0  0  0  0  0  0  0  0  0  0  0
    8.8183  -15.3766   24.2088 C   0  0  0  0  0  0  0  0  0  0  0  0
    9.8059  -14.5650   24.0715 O   0  0  0  0  0  0  0  0  0  0  0  0
    6.3637  -12.7455   25.0819 C   0  0  0  0  0  0  0  0  0  0  0  0
    6.9591  -13.1865   26.3910 C   0  0  2  0  0  0  0  0  0  0  0  0
    7.0663  -12.0978   27.4059 C   0  0  0  0  0  0  0  0  0  0  0  0
    8.2732  -13.9329   26.1853 C   0  0  2  0  0  0  0  0  0  0  0  0
    7.9909  -15.0579   25.3057 N   0  0  0  0  0  0  0  0  0  0  0  0
    8.8935  -14.3230   27.4408 C   0  0  0  0  0  0  0  0  0  0  0  0
    9.5987  -13.4054   28.1891 O   0  0  0  0  0  0  0  0  0  0  0  0
    8.8111  -15.4883   27.8817 O   0  0  0  0  0  0  0  0  0  0  0  0
  2  1  1  6
  3  2  1  0
  4  2  1  0
  4  6  1  0
  4  5  1  6
  6  7  2  0
  8  9  1  0
  9 11  1  0
 10  9  2  0
 12 11  1  1
 12 14  1  0
 13 12  1  0
 13  6  1  0
 14 20  1  0
 14 15  2  0
 17 16  1  6
 17 19  1  0
 18 17  1  0
 19 21  1  0
 19 20  1  6
 21 23  2  0
 21 22  1  0
M  END
$$$$
