TNV.pdb
     RDKit          3D

 23 22  0  0  1  0  0  0  0  0999 V2000
    8.5778  -12.5197   20.1397 C   0  0  0  0  0  0  0  0  0  0  0  0
    7.9784  -13.3936   19.0607 C   0  0  1  0  0  0  0  0  0  0  0  0
    8.4400  -13.0290   17.8045 O   0  0  0  0  0  0  0  0  0  0  0  0
    8.2106  -14.8634   19.3535 C   0  0  2  0  0  0  0  0  0  0  0  0
    7.6605  -15.6769   18.2880 N   0  0  0  0  0  0  0  0  0  0  0  0
    7.6158  -15.3006   20.6341 C   0  0  0  0  0  0  0  0  0  0  0  0
    6.4421  -15.7744   20.6643 O   0  0  0  0  0  0  0  0  0  0  0  0
    8.9749  -18.6584   25.0286 N   0  0  0  0  0  0  0  0  0  0  0  0
    7.9065  -17.8787   24.4182 C   0  0  0  0  0  0  0  0  0  0  0  0
    6.8358  -17.9327   25.0162 O   0  0  0  0  0  0  0  0  0  0  0  0
    8.1874  -17.1392   23.2112 C   0  0  0  0  0  0  0  0  0  0  0  0
    7.6561  -15.7443   23.1317 C   0  0  2  0  0  0  0  0  0  0  0  0
    8.2892  -15.2240   21.8694 N   0  0  0  0  0  0  0  0  0  0  0  0
    8.1419  -14.8453   24.1751 C   0  0  0  0  0  0  0  0  0  0  0  0
    9.3908  -14.5405   24.1864 O   0  0  0  0  0  0  0  0  0  0  0  0
    5.8086  -12.6640   27.0680 C   0  0  0  0  0  0  0  0  0  0  0  0
    7.0933  -12.1952   26.4414 C   0  0  2  0  0  0  0  0  0  0  0  0
    6.9021  -11.3342   25.2376 C   0  0  0  0  0  0  0  0  0  0  0  0
    8.0503  -13.3560   26.1905 C   0  0  2  0  0  0  0  0  0  0  0  0
    7.4144  -14.2290   25.2145 N   0  0  0  0  0  0  0  0  0  0  0  0
    8.4288  -14.0394   27.4164 C   0  0  0  0  0  0  0  0  0  0  0  0
    8.0768  -15.3558   27.6224 O   0  0  0  0  0  0  0  0  0  0  0  0
    9.0784  -13.4665   28.3158 O   0  0  0  0  0  0  0  0  0  0  0  0
  2  1  1  1
  3  2  1  0
  4  2  1  0
  4  6  1  0
  4  5  1  6
  6  7  2  0
  8  9  1  0
  9 11  1  0
 10  9  2  0
 12 11  1  1
 12 14  1  0
 13 12  1  0
 13  6  1  0
 14 20  1  0
 14 15  2  0
 17 16  1  6
 17 19  1  0
 18 17  1  0
 19 21  1  0
 19 20  1  6
 21 23  2  0
 21 22  1  0
M  END
$$$$
