TNV.pdb
     RDKit          3D

 23 22  0  0  1  0  0  0  0  0999 V2000
    9.3240  -12.4267   18.4016 C   0  0  0  0  0  0  0  0  0  0  0  0
    8.7562  -12.9382   19.7067 C   0  0  1  0  0  0  0  0  0  0  0  0
    7.7066  -12.1437   20.1438 O   0  0  0  0  0  0  0  0  0  0  0  0
    8.3642  -14.3993   19.5990 C   0  0  2  0  0  0  0  0  0  0  0  0
    7.2721  -14.5543   18.6594 N   0  0  0  0  0  0  0  0  0  0  0  0
    7.9587  -14.9878   20.8928 C   0  0  0  0  0  0  0  0  0  0  0  0
    6.7454  -14.9627   21.2536 O   0  0  0  0  0  0  0  0  0  0  0  0
    9.6700  -19.0308   21.1882 N   0  0  0  0  0  0  0  0  0  0  0  0
    8.7514  -18.5715   22.2212 C   0  0  0  0  0  0  0  0  0  0  0  0
    7.6733  -19.1586   22.2369 O   0  0  0  0  0  0  0  0  0  0  0  0
    9.1707  -17.5083   23.1022 C   0  0  0  0  0  0  0  0  0  0  0  0
    8.3804  -16.2402   23.0585 C   0  0  2  0  0  0  0  0  0  0  0  0
    8.8621  -15.5976   21.7858 N   0  0  0  0  0  0  0  0  0  0  0  0
    8.7182  -15.2739   24.1001 C   0  0  0  0  0  0  0  0  0  0  0  0
    9.8891  -14.7432   24.0849 O   0  0  0  0  0  0  0  0  0  0  0  0
    6.1242  -13.5072   27.0999 C   0  0  0  0  0  0  0  0  0  0  0  0
    7.2972  -12.8613   26.4146 C   0  0  2  0  0  0  0  0  0  0  0  0
    6.9322  -12.0739   25.2007 C   0  0  0  0  0  0  0  0  0  0  0  0
    8.4151  -13.8653   26.1525 C   0  0  2  0  0  0  0  0  0  0  0  0
    7.9162  -14.8098   25.1635 N   0  0  0  0  0  0  0  0  0  0  0  0
    8.8884  -14.5012   27.3711 C   0  0  0  0  0  0  0  0  0  0  0  0
    8.6801  -15.8464   27.5861 O   0  0  0  0  0  0  0  0  0  0  0  0
    9.4930  -13.8605   28.2559 O   0  0  0  0  0  0  0  0  0  0  0  0
  2  1  1  6
  3  2  1  0
  4  2  1  0
  4  6  1  0
  4  5  1  6
  6  7  2  0
  8  9  1  0
  9 11  1  0
 10  9  2  0
 12 11  1  1
 12 14  1  0
 13 12  1  0
 13  6  1  0
 14 20  1  0
 14 15  2  0
 17 16  1  6
 17 19  1  0
 18 17  1  0
 19 21  1  0
 19 20  1  6
 21 23  2  0
 21 22  1  0
M  END
$$$$
