TNV.pdb
     RDKit          3D

 23 22  0  0  1  0  0  0  0  0999 V2000
    8.2684  -12.6197   20.3087 C   0  0  0  0  0  0  0  0  0  0  0  0
    7.8493  -13.5506   19.1928 C   0  0  1  0  0  0  0  0  0  0  0  0
    8.4141  -13.1721   17.9838 O   0  0  0  0  0  0  0  0  0  0  0  0
    8.1525  -14.9953   19.5410 C   0  0  2  0  0  0  0  0  0  0  0  0
    7.7089  -15.8688   18.4734 N   0  0  0  0  0  0  0  0  0  0  0  0
    7.5174  -15.4334   20.8018 C   0  0  0  0  0  0  0  0  0  0  0  0
    6.2780  -15.6890   20.8374 O   0  0  0  0  0  0  0  0  0  0  0  0
    6.1437  -18.1318   25.1341 N   0  0  0  0  0  0  0  0  0  0  0  0
    7.5367  -17.9942   24.7308 C   0  0  0  0  0  0  0  0  0  0  0  0
    8.3452  -18.4166   25.5524 O   0  0  0  0  0  0  0  0  0  0  0  0
    7.8347  -17.3971   23.4514 C   0  0  0  0  0  0  0  0  0  0  0  0
    7.5046  -15.9485   23.2859 C   0  0  2  0  0  0  0  0  0  0  0  0
    8.2218  -15.5925   22.0117 N   0  0  0  0  0  0  0  0  0  0  0  0
    8.0964  -15.0687   24.2902 C   0  0  0  0  0  0  0  0  0  0  0  0
    9.3745  -14.9301   24.3043 O   0  0  0  0  0  0  0  0  0  0  0  0
    6.0631  -12.5006   27.0834 C   0  0  0  0  0  0  0  0  0  0  0  0
    7.4379  -12.2568   26.5237 C   0  0  2  0  0  0  0  0  0  0  0  0
    7.4567  -11.3629   25.3290 C   0  0  0  0  0  0  0  0  0  0  0  0
    8.1890  -13.5643   26.2943 C   0  0  2  0  0  0  0  0  0  0  0  0
    7.4484  -14.3098   25.2870 N   0  0  0  0  0  0  0  0  0  0  0  0
    8.3989  -14.3084   27.5253 C   0  0  0  0  0  0  0  0  0  0  0  0
    9.3111  -13.8717   28.4614 O   0  0  0  0  0  0  0  0  0  0  0  0
    7.7687  -15.3566   27.7764 O   0  0  0  0  0  0  0  0  0  0  0  0
  2  1  1  1
  3  2  1  0
  4  2  1  0
  4  6  1  0
  4  5  1  6
  6  7  2  0
  8  9  1  0
  9 11  1  0
 10  9  2  0
 12 11  1  1
 12 14  1  0
 13 12  1  0
 13  6  1  0
 14 20  1  0
 14 15  2  0
 17 16  1  6
 17 19  1  0
 18 17  1  0
 19 21  1  0
 19 20  1  6
 21 23  2  0
 21 22  1  0
M  END
$$$$
