TNV.pdb
     RDKit          3D

 23 22  0  0  1  0  0  0  0  0999 V2000
    8.8201  -12.4724   20.2599 C   0  0  0  0  0  0  0  0  0  0  0  0
    8.0117  -13.2388   19.2369 C   0  0  1  0  0  0  0  0  0  0  0  0
    8.2032  -12.7295   17.9610 O   0  0  0  0  0  0  0  0  0  0  0  0
    8.3016  -14.7256   19.3112 C   0  0  2  0  0  0  0  0  0  0  0  0
    7.5213  -15.4357   18.3179 N   0  0  0  0  0  0  0  0  0  0  0  0
    8.0133  -15.3069   20.6393 C   0  0  0  0  0  0  0  0  0  0  0  0
    6.8310  -15.6373   20.9489 O   0  0  0  0  0  0  0  0  0  0  0  0
   10.8947  -18.9544   24.4303 N   0  0  0  0  0  0  0  0  0  0  0  0
    9.7317  -18.1182   24.1656 C   0  0  0  0  0  0  0  0  0  0  0  0
    8.8353  -18.2202   24.9982 O   0  0  0  0  0  0  0  0  0  0  0  0
    9.7330  -17.2754   22.9942 C   0  0  0  0  0  0  0  0  0  0  0  0
    8.6679  -16.2299   22.9100 C   0  0  2  0  0  0  0  0  0  0  0  0
    8.9996  -15.5273   21.6211 N   0  0  0  0  0  0  0  0  0  0  0  0
    8.7582  -15.1831   23.9243 C   0  0  0  0  0  0  0  0  0  0  0  0
    9.7903  -14.4165   23.9213 O   0  0  0  0  0  0  0  0  0  0  0  0
    6.1376  -12.6515   24.9650 C   0  0  0  0  0  0  0  0  0  0  0  0
    6.7927  -13.1351   26.2298 C   0  0  2  0  0  0  0  0  0  0  0  0
    6.9149  -12.0897   27.2876 C   0  0  0  0  0  0  0  0  0  0  0  0
    8.1140  -13.8404   25.9418 C   0  0  2  0  0  0  0  0  0  0  0  0
    7.8404  -14.8683   24.9481 N   0  0  0  0  0  0  0  0  0  0  0  0
    8.7438  -14.3549   27.1467 C   0  0  0  0  0  0  0  0  0  0  0  0
    9.4927  -13.5268   27.9545 O   0  0  0  0  0  0  0  0  0  0  0  0
    8.6307  -15.5503   27.4895 O   0  0  0  0  0  0  0  0  0  0  0  0
  2  1  1  1
  3  2  1  0
  4  2  1  0
  4  6  1  0
  4  5  1  6
  6  7  2  0
  8  9  1  0
  9 11  1  0
 10  9  2  0
 12 11  1  1
 12 14  1  0
 13 12  1  0
 13  6  1  0
 14 20  1  0
 14 15  2  0
 17 16  1  6
 17 19  1  0
 18 17  1  0
 19 21  1  0
 19 20  1  6
 21 23  2  0
 21 22  1  0
M  END
$$$$
