TNV.pdb
     RDKit          3D

 23 22  0  0  1  0  0  0  0  0999 V2000
    8.3900  -12.9491   17.8582 C   0  0  0  0  0  0  0  0  0  0  0  0
    7.6190  -13.6127   18.9773 C   0  0  1  0  0  0  0  0  0  0  0  0
    6.9587  -14.7471   18.5289 O   0  0  0  0  0  0  0  0  0  0  0  0
    8.5167  -13.9026   20.1648 C   0  0  2  0  0  0  0  0  0  0  0  0
    9.4928  -14.9151   19.8162 N   0  0  0  0  0  0  0  0  0  0  0  0
    7.7717  -14.3582   21.3574 C   0  0  0  0  0  0  0  0  0  0  0  0
    6.8430  -13.6464   21.8408 O   0  0  0  0  0  0  0  0  0  0  0  0
    8.0682  -19.0648   25.1286 N   0  0  0  0  0  0  0  0  0  0  0  0
    7.1379  -18.1003   24.5573 C   0  0  0  0  0  0  0  0  0  0  0  0
    6.1101  -17.9414   25.2096 O   0  0  0  0  0  0  0  0  0  0  0  0
    7.4903  -17.4410   23.3230 C   0  0  0  0  0  0  0  0  0  0  0  0
    7.2729  -15.9635   23.2576 C   0  0  2  0  0  0  0  0  0  0  0  0
    8.0329  -15.5750   22.0181 N   0  0  0  0  0  0  0  0  0  0  0  0
    7.9152  -15.2038   24.3268 C   0  0  0  0  0  0  0  0  0  0  0  0
    9.1991  -15.2091   24.3940 O   0  0  0  0  0  0  0  0  0  0  0  0
    6.0162  -12.8661   27.4471 C   0  0  0  0  0  0  0  0  0  0  0  0
    7.3589  -12.5603   26.8417 C   0  0  2  0  0  0  0  0  0  0  0  0
    7.3165  -11.5336   25.7596 C   0  0  0  0  0  0  0  0  0  0  0  0
    8.0858  -13.8329   26.4196 C   0  0  2  0  0  0  0  0  0  0  0  0
    7.3132  -14.4258   25.3376 N   0  0  0  0  0  0  0  0  0  0  0  0
    8.3109  -14.7400   27.5330 C   0  0  0  0  0  0  0  0  0  0  0  0
    9.2357  -14.4363   28.5086 O   0  0  0  0  0  0  0  0  0  0  0  0
    7.6829  -15.8134   27.6449 O   0  0  0  0  0  0  0  0  0  0  0  0
  2  1  1  6
  3  2  1  0
  4  2  1  0
  4  6  1  0
  4  5  1  6
  6  7  2  0
  8  9  1  0
  9 11  1  0
 10  9  2  0
 12 11  1  1
 12 14  1  0
 13 12  1  0
 13  6  1  0
 14 20  1  0
 14 15  2  0
 17 16  1  6
 17 19  1  0
 18 17  1  0
 19 21  1  0
 19 20  1  6
 21 23  2  0
 21 22  1  0
M  END
$$$$
