TNV.pdb
     RDKit          3D

 23 22  0  0  1  0  0  0  0  0999 V2000
    8.3775  -12.4663   18.4544 C   0  0  0  0  0  0  0  0  0  0  0  0
    8.3639  -13.2329   19.7580 C   0  0  1  0  0  0  0  0  0  0  0  0
    7.2855  -12.8622   20.5478 O   0  0  0  0  0  0  0  0  0  0  0  0
    8.4099  -14.7292   19.5147 C   0  0  2  0  0  0  0  0  0  0  0  0
    7.3003  -15.1318   18.6744 N   0  0  0  0  0  0  0  0  0  0  0  0
    8.3668  -15.5211   20.7621 C   0  0  0  0  0  0  0  0  0  0  0  0
    7.3052  -16.1220   21.1007 O   0  0  0  0  0  0  0  0  0  0  0  0
    9.9123  -18.9865   24.5766 N   0  0  0  0  0  0  0  0  0  0  0  0
   10.9076  -18.0699   24.0370 C   0  0  0  0  0  0  0  0  0  0  0  0
   11.9577  -18.0325   24.6719 O   0  0  0  0  0  0  0  0  0  0  0  0
   10.5867  -17.3147   22.8500 C   0  0  0  0  0  0  0  0  0  0  0  0
    9.3569  -16.4661   22.8982 C   0  0  2  0  0  0  0  0  0  0  0  0
    9.4660  -15.6589   21.6327 N   0  0  0  0  0  0  0  0  0  0  0  0
    9.3460  -15.4667   23.9631 C   0  0  0  0  0  0  0  0  0  0  0  0
   10.3336  -14.6473   24.0423 O   0  0  0  0  0  0  0  0  0  0  0  0
    6.7362  -12.9904   24.7272 C   0  0  0  0  0  0  0  0  0  0  0  0
    7.1873  -13.4893   26.0726 C   0  0  2  0  0  0  0  0  0  0  0  0
    7.1769  -12.4472   27.1406 C   0  0  0  0  0  0  0  0  0  0  0  0
    8.5201  -14.2250   25.9791 C   0  0  2  0  0  0  0  0  0  0  0  0
    8.3694  -15.2512   24.9577 N   0  0  0  0  0  0  0  0  0  0  0  0
    8.9580  -14.7478   27.2629 C   0  0  0  0  0  0  0  0  0  0  0  0
    9.6428  -13.9455   28.1497 O   0  0  0  0  0  0  0  0  0  0  0  0
    8.7325  -15.9274   27.6047 O   0  0  0  0  0  0  0  0  0  0  0  0
  2  1  1  6
  3  2  1  0
  4  2  1  0
  4  6  1  0
  4  5  1  6
  6  7  2  0
  8  9  1  0
  9 11  1  0
 10  9  2  0
 12 11  1  1
 12 14  1  0
 13 12  1  0
 13  6  1  0
 14 20  1  0
 14 15  2  0
 17 16  1  6
 17 19  1  0
 18 17  1  0
 19 21  1  0
 19 20  1  6
 21 23  2  0
 21 22  1  0
M  END
$$$$
