KQA.pdb
     RDKit          3D

 24 23  0  0  1  0  0  0  0  0999 V2000
    7.9669  -12.8223   18.5120 N   0  0  0  0  0  0  0  0  0  0  0  0
    7.6798  -13.9803   19.3372 C   0  0  1  0  0  0  0  0  0  0  0  0
    8.0913  -15.1896   18.5653 C   0  0  0  0  0  0  0  0  0  0  0  0
    6.9960  -15.8290   17.7669 C   0  0  0  0  0  0  0  0  0  0  0  0
    7.5652  -16.9789   16.9471 C   0  0  0  0  0  0  0  0  0  0  0  0
    6.4459  -17.5706   16.0891 C   0  0  0  0  0  0  0  0  0  0  0  0
    6.9943  -18.6573   15.3066 N   0  0  0  0  0  0  0  0  0  0  0  0
    8.3181  -13.8689   20.6740 C   0  0  0  0  0  0  0  0  0  0  0  0
    9.5301  -13.5592   20.7919 O   0  0  0  0  0  0  0  0  0  0  0  0
    5.6637  -12.8409   26.2545 N   0  0  0  0  0  0  0  0  0  0  0  0
    7.0238  -13.0297   26.6139 C   0  0  0  0  0  0  0  0  0  0  0  0
    7.4010  -12.7720   27.7762 O   0  0  0  0  0  0  0  0  0  0  0  0
    7.9733  -13.5266   25.6127 C   0  0  0  0  0  0  0  0  0  0  0  0
    7.3062  -13.5726   24.2734 C   0  0  0  0  0  0  0  0  0  0  0  0
    8.2480  -14.0486   23.1880 C   0  0  2  0  0  0  0  0  0  0  0  0
    7.6131  -14.1012   21.8972 N   0  0  0  0  0  0  0  0  0  0  0  0
    8.7409  -15.4075   23.5213 C   0  0  0  0  0  0  0  0  0  0  0  0
    8.3110  -16.4470   22.9370 O   0  0  0  0  0  0  0  0  0  0  0  0
   11.1910  -17.2260   23.3806 C   0  0  0  0  0  0  0  0  0  0  0  0
   10.4424  -16.9007   24.6476 C   0  0  2  0  0  0  0  0  0  0  0  0
    9.7319  -15.6354   24.5223 N   0  0  0  0  0  0  0  0  0  0  0  0
   11.3469  -16.8808   25.8307 C   0  0  0  0  0  0  0  0  0  0  0  0
   11.5470  -15.8688   26.5182 O   0  0  0  0  0  0  0  0  0  0  0  0
   11.9988  -18.0505   26.1834 O   0  0  0  0  0  0  0  0  0  0  0  0
  2  1  1  6
  3  2  1  0
  4  5  1  0
  4  3  1  0
  6  5  1  0
  7  6  1  0
  8  9  2  0
  8  2  1  0
 11 10  1  0
 12 11  2  0
 13 11  1  0
 14 13  1  0
 15 14  1  1
 15 16  1  0
 16  8  1  0
 17 15  1  0
 18 17  2  0
 20 19  1  6
 20 21  1  0
 21 17  1  0
 22 20  1  0
 22 24  1  0
 23 22  2  0
M  END
$$$$
