KQA.pdb
     RDKit          3D

 24 23  0  0  1  0  0  0  0  0999 V2000
    8.3679  -15.9612   19.2805 N   0  0  0  0  0  0  0  0  0  0  0  0
    7.6057  -16.2626   20.4774 C   0  0  1  0  0  0  0  0  0  0  0  0
    7.4378  -17.7445   20.5363 C   0  0  0  0  0  0  0  0  0  0  0  0
    6.5503  -18.3196   19.4744 C   0  0  0  0  0  0  0  0  0  0  0  0
    6.4438  -19.8273   19.6583 C   0  0  0  0  0  0  0  0  0  0  0  0
    5.6049  -20.4026   18.5162 C   0  0  0  0  0  0  0  0  0  0  0  0
    5.5545  -21.8411   18.6645 N   0  0  0  0  0  0  0  0  0  0  0  0
    8.2366  -15.6760   21.6876 C   0  0  0  0  0  0  0  0  0  0  0  0
    9.4783  -15.7395   21.8691 O   0  0  0  0  0  0  0  0  0  0  0  0
    5.4014  -12.4138   26.3450 N   0  0  0  0  0  0  0  0  0  0  0  0
    6.7550  -12.4193   26.7720 C   0  0  0  0  0  0  0  0  0  0  0  0
    7.0797  -11.8165   27.8164 O   0  0  0  0  0  0  0  0  0  0  0  0
    7.7598  -13.1352   25.9790 C   0  0  0  0  0  0  0  0  0  0  0  0
    7.1148  -13.7021   24.7527 C   0  0  0  0  0  0  0  0  0  0  0  0
    8.1030  -14.4608   23.8929 C   0  0  2  0  0  0  0  0  0  0  0  0
    7.4911  -15.0105   22.7116 N   0  0  0  0  0  0  0  0  0  0  0  0
    8.6879  -15.5758   24.6773 C   0  0  0  0  0  0  0  0  0  0  0  0
    7.9857  -16.5316   25.1246 O   0  0  0  0  0  0  0  0  0  0  0  0
   12.1034  -16.9869   25.2515 C   0  0  0  0  0  0  0  0  0  0  0  0
   10.6732  -16.7792   25.6792 C   0  0  2  0  0  0  0  0  0  0  0  0
   10.0803  -15.6466   24.9812 N   0  0  0  0  0  0  0  0  0  0  0  0
   10.5602  -16.6056   27.1540 C   0  0  0  0  0  0  0  0  0  0  0  0
   10.9468  -17.4538   27.9713 O   0  0  0  0  0  0  0  0  0  0  0  0
    9.9951  -15.4387   27.6403 O   0  0  0  0  0  0  0  0  0  0  0  0
  2  1  1  6
  3  2  1  0
  4  5  1  0
  4  3  1  0
  6  5  1  0
  7  6  1  0
  8  9  2  0
  8  2  1  0
 11 10  1  0
 12 11  2  0
 13 11  1  0
 14 13  1  0
 15 14  1  1
 15 16  1  0
 16  8  1  0
 17 15  1  0
 18 17  2  0
 20 19  1  1
 20 21  1  0
 21 17  1  0
 22 20  1  0
 22 24  1  0
 23 22  2  0
M  END
$$$$
