KQA.pdb
     RDKit          3D

 24 23  0  0  1  0  0  0  0  0999 V2000
    6.2256  -17.5416   20.6689 N   0  0  0  0  0  0  0  0  0  0  0  0
    7.1941  -16.6581   21.2900 C   0  0  1  0  0  0  0  0  0  0  0  0
    7.0529  -15.3196   20.6450 C   0  0  0  0  0  0  0  0  0  0  0  0
    7.8996  -15.1168   19.4251 C   0  0  0  0  0  0  0  0  0  0  0  0
    7.7581  -13.6813   18.9374 C   0  0  0  0  0  0  0  0  0  0  0  0
    8.5270  -13.5318   17.6238 C   0  0  0  0  0  0  0  0  0  0  0  0
    8.3667  -12.1735   17.1513 N   0  0  0  0  0  0  0  0  0  0  0  0
    7.0438  -16.6371   22.7678 C   0  0  0  0  0  0  0  0  0  0  0  0
    5.9113  -16.5498   23.3050 O   0  0  0  0  0  0  0  0  0  0  0  0
   10.8640  -18.8183   27.2071 N   0  0  0  0  0  0  0  0  0  0  0  0
   10.0034  -18.0008   27.9855 C   0  0  0  0  0  0  0  0  0  0  0  0
   10.1115  -17.9923   29.2295 O   0  0  0  0  0  0  0  0  0  0  0  0
    8.9938  -17.1731   27.3171 C   0  0  0  0  0  0  0  0  0  0  0  0
    9.0529  -17.4110   25.8403 C   0  0  0  0  0  0  0  0  0  0  0  0
    8.0148  -16.6001   25.0945 C   0  0  2  0  0  0  0  0  0  0  0  0
    8.1547  -16.7134   23.6663 N   0  0  0  0  0  0  0  0  0  0  0  0
    8.1450  -15.1693   25.4640 C   0  0  0  0  0  0  0  0  0  0  0  0
    9.1234  -14.4576   25.0858 O   0  0  0  0  0  0  0  0  0  0  0  0
    6.0250  -12.4958   27.0598 C   0  0  0  0  0  0  0  0  0  0  0  0
    7.3525  -13.1257   26.7246 C   0  0  2  0  0  0  0  0  0  0  0  0
    7.1776  -14.4985   26.2704 N   0  0  0  0  0  0  0  0  0  0  0  0
    8.2943  -13.0692   27.8770 C   0  0  0  0  0  0  0  0  0  0  0  0
    8.7107  -14.0772   28.4665 O   0  0  0  0  0  0  0  0  0  0  0  0
    8.7289  -11.8294   28.3146 O   0  0  0  0  0  0  0  0  0  0  0  0
  2  1  1  6
  3  2  1  0
  4  5  1  0
  4  3  1  0
  6  5  1  0
  7  6  1  0
  8  9  2  0
  8  2  1  0
 11 10  1  0
 12 11  2  0
 13 11  1  0
 14 13  1  0
 15 14  1  1
 15 16  1  0
 16  8  1  0
 17 15  1  0
 18 17  2  0
 20 19  1  1
 20 21  1  0
 21 17  1  0
 22 20  1  0
 22 24  1  0
 23 22  2  0
M  END
$$$$
