KQA.pdb
     RDKit          3D

 24 23  0  0  1  0  0  0  0  0999 V2000
    9.3947  -17.7332   13.8613 N   0  0  0  0  0  0  0  0  0  0  0  0
   10.6994  -17.8806   14.4783 C   0  0  1  0  0  0  0  0  0  0  0  0
   11.6980  -17.2566   13.5613 C   0  0  0  0  0  0  0  0  0  0  0  0
   12.9962  -17.9969   13.4477 C   0  0  0  0  0  0  0  0  0  0  0  0
   13.9017  -17.2906   12.4479 C   0  0  0  0  0  0  0  0  0  0  0  0
   15.2191  -18.0613   12.3498 C   0  0  0  0  0  0  0  0  0  0  0  0
   16.1509  -17.2778   11.5677 N   0  0  0  0  0  0  0  0  0  0  0  0
   10.7158  -17.3287   15.8574 C   0  0  0  0  0  0  0  0  0  0  0  0
   10.4010  -16.1335   16.0832 O   0  0  0  0  0  0  0  0  0  0  0  0
   11.5609  -19.2867   22.8623 N   0  0  0  0  0  0  0  0  0  0  0  0
   10.6919  -19.0497   21.7653 C   0  0  0  0  0  0  0  0  0  0  0  0
    9.6429  -19.7169   21.6480 O   0  0  0  0  0  0  0  0  0  0  0  0
   11.0376  -18.0206   20.7791 C   0  0  0  0  0  0  0  0  0  0  0  0
   10.9506  -18.6013   19.4020 C   0  0  0  0  0  0  0  0  0  0  0  0
   11.1515  -17.5506   18.3310 C   0  0  2  0  0  0  0  0  0  0  0  0
   11.0832  -18.1027   17.0034 N   0  0  0  0  0  0  0  0  0  0  0  0
   12.4805  -16.9148   18.5042 C   0  0  0  0  0  0  0  0  0  0  0  0
   13.5591  -17.5017   18.1894 O   0  0  0  0  0  0  0  0  0  0  0  0
   13.8078  -13.4592   19.0081 C   0  0  0  0  0  0  0  0  0  0  0  0
   13.9323  -14.9530   19.1651 C   0  0  2  0  0  0  0  0  0  0  0  0
   12.6338  -15.6001   19.0372 N   0  0  0  0  0  0  0  0  0  0  0  0
   14.5766  -15.3180   20.4573 C   0  0  0  0  0  0  0  0  0  0  0  0
   15.7307  -14.9828   20.7617 O   0  0  0  0  0  0  0  0  0  0  0  0
   13.8524  -16.0697   21.3673 O   0  0  0  0  0  0  0  0  0  0  0  0
  2  1  1  6
  3  2  1  0
  4  5  1  0
  4  3  1  0
  6  5  1  0
  7  6  1  0
  8  9  2  0
  8  2  1  0
 11 10  1  0
 12 11  2  0
 13 11  1  0
 14 13  1  0
 15 14  1  1
 15 16  1  0
 16  8  1  0
 17 15  1  0
 18 17  2  0
 20 19  1  1
 20 21  1  0
 21 17  1  0
 22 20  1  0
 22 24  1  0
 23 22  2  0
M  END
$$$$
