KQA.pdb
     RDKit          3D

 24 23  0  0  1  0  0  0  0  0999 V2000
   10.3853  -18.4872   17.8823 N   0  0  0  0  0  0  0  0  0  0  0  0
   11.6164  -17.7497   17.6701 C   0  0  1  0  0  0  0  0  0  0  0  0
   11.7593  -17.5364   16.1999 C   0  0  0  0  0  0  0  0  0  0  0  0
   10.5157  -17.0648   15.5090 C   0  0  0  0  0  0  0  0  0  0  0  0
   10.7963  -16.8746   14.0246 C   0  0  0  0  0  0  0  0  0  0  0  0
    9.8654  -15.7878   13.4849 C   0  0  0  0  0  0  0  0  0  0  0  0
   10.0266  -15.7184   12.0485 N   0  0  0  0  0  0  0  0  0  0  0  0
   11.6467  -16.4979   18.4695 C   0  0  0  0  0  0  0  0  0  0  0  0
   12.6580  -15.7522   18.4716 O   0  0  0  0  0  0  0  0  0  0  0  0
    7.0982  -12.5618   19.3948 N   0  0  0  0  0  0  0  0  0  0  0  0
    6.9044  -13.9057   19.8087 C   0  0  0  0  0  0  0  0  0  0  0  0
    5.7480  -14.3359   20.0018 O   0  0  0  0  0  0  0  0  0  0  0  0
    8.0684  -14.7760   20.0055 C   0  0  0  0  0  0  0  0  0  0  0  0
    9.3216  -13.9934   19.7648 C   0  0  0  0  0  0  0  0  0  0  0  0
   10.5633  -14.8233   20.0120 C   0  0  2  0  0  0  0  0  0  0  0  0
   10.5494  -16.0608   19.2770 N   0  0  0  0  0  0  0  0  0  0  0  0
   10.6674  -15.1402   21.4574 C   0  0  0  0  0  0  0  0  0  0  0  0
   10.6517  -14.2417   22.3514 O   0  0  0  0  0  0  0  0  0  0  0  0
    9.6082  -17.1288   23.9720 C   0  0  0  0  0  0  0  0  0  0  0  0
   10.9402  -16.7913   23.3529 C   0  0  2  0  0  0  0  0  0  0  0  0
   10.7925  -16.4778   21.9382 N   0  0  0  0  0  0  0  0  0  0  0  0
   11.9303  -17.8866   23.5481 C   0  0  0  0  0  0  0  0  0  0  0  0
   12.3627  -18.5871   22.6211 O   0  0  0  0  0  0  0  0  0  0  0  0
   12.3933  -18.1380   24.8287 O   0  0  0  0  0  0  0  0  0  0  0  0
  2  1  1  6
  3  2  1  0
  4  5  1  0
  4  3  1  0
  6  5  1  0
  7  6  1  0
  8  9  2  0
  8  2  1  0
 11 10  1  0
 12 11  2  0
 13 11  1  0
 14 13  1  0
 15 14  1  1
 15 16  1  0
 16  8  1  0
 17 15  1  0
 18 17  2  0
 20 19  1  6
 20 21  1  0
 21 17  1  0
 22 20  1  0
 22 24  1  0
 23 22  2  0
M  END
$$$$
