KQA.pdb
     RDKit          3D

 24 23  0  0  1  0  0  0  0  0999 V2000
   12.2962  -18.2738   16.4565 N   0  0  0  0  0  0  0  0  0  0  0  0
   11.2052  -17.9156   17.3430 C   0  0  1  0  0  0  0  0  0  0  0  0
   10.8624  -19.1302   18.1397 C   0  0  0  0  0  0  0  0  0  0  0  0
   11.1521  -20.4326   17.4571 C   0  0  0  0  0  0  0  0  0  0  0  0
   10.6952  -21.5856   18.3404 C   0  0  0  0  0  0  0  0  0  0  0  0
   10.9544  -22.9004   17.6035 C   0  0  0  0  0  0  0  0  0  0  0  0
   10.5362  -23.9930   18.4552 N   0  0  0  0  0  0  0  0  0  0  0  0
   11.5404  -16.7257   18.1668 C   0  0  0  0  0  0  0  0  0  0  0  0
   12.7172  -16.2902   18.2314 O   0  0  0  0  0  0  0  0  0  0  0  0
    7.2917  -12.6557   19.7846 N   0  0  0  0  0  0  0  0  0  0  0  0
    7.7767  -12.9596   18.4857 C   0  0  0  0  0  0  0  0  0  0  0  0
    7.0877  -12.6772   17.4832 O   0  0  0  0  0  0  0  0  0  0  0  0
    9.0856  -13.6041   18.3359 C   0  0  0  0  0  0  0  0  0  0  0  0
    9.6782  -13.8483   19.6887 C   0  0  0  0  0  0  0  0  0  0  0  0
   10.8684  -14.7816   19.6251 C   0  0  2  0  0  0  0  0  0  0  0  0
   10.5674  -16.0053   18.9294 N   0  0  0  0  0  0  0  0  0  0  0  0
   11.3044  -15.1224   21.0014 C   0  0  0  0  0  0  0  0  0  0  0  0
   11.7565  -14.2522   21.8045 O   0  0  0  0  0  0  0  0  0  0  0  0
   10.5843  -17.6395   23.5429 C   0  0  0  0  0  0  0  0  0  0  0  0
   11.6330  -16.7862   22.8769 C   0  0  2  0  0  0  0  0  0  0  0  0
   11.2443  -16.4530   21.5133 N   0  0  0  0  0  0  0  0  0  0  0  0
   12.9697  -17.4426   22.8970 C   0  0  0  0  0  0  0  0  0  0  0  0
   13.5475  -17.8429   21.8758 O   0  0  0  0  0  0  0  0  0  0  0  0
   13.6020  -17.6161   24.1168 O   0  0  0  0  0  0  0  0  0  0  0  0
  2  1  1  1
  3  2  1  0
  4  5  1  0
  4  3  1  0
  6  5  1  0
  7  6  1  0
  8  9  2  0
  8  2  1  0
 11 10  1  0
 12 11  2  0
 13 11  1  0
 14 13  1  0
 15 14  1  1
 15 16  1  0
 16  8  1  0
 17 15  1  0
 18 17  2  0
 20 19  1  6
 20 21  1  0
 21 17  1  0
 22 20  1  0
 22 24  1  0
 23 22  2  0
M  END
$$$$
