KQA.pdb
     RDKit          3D

 24 23  0  0  1  0  0  0  0  0999 V2000
    2.5937  -19.5549   20.2960 N   0  0  0  0  0  0  0  0  0  0  0  0
    2.8454  -18.4061   21.1453 C   0  0  1  0  0  0  0  0  0  0  0  0
    2.1662  -18.6600   22.4498 C   0  0  0  0  0  0  0  0  0  0  0  0
    1.1267  -19.7392   22.4180 C   0  0  0  0  0  0  0  0  0  0  0  0
    1.6559  -20.9798   23.1246 C   0  0  0  0  0  0  0  0  0  0  0  0
    0.6041  -22.0859   23.0269 C   0  0  0  0  0  0  0  0  0  0  0  0
    1.0857  -23.2412   23.7530 N   0  0  0  0  0  0  0  0  0  0  0  0
    4.2991  -18.1241   21.2642 C   0  0  0  0  0  0  0  0  0  0  0  0
    5.1513  -19.0386   21.1370 O   0  0  0  0  0  0  0  0  0  0  0  0
    7.0664  -12.7437   19.9045 N   0  0  0  0  0  0  0  0  0  0  0  0
    8.1865  -13.5200   20.3013 C   0  0  0  0  0  0  0  0  0  0  0  0
    9.3423  -13.0956   20.0925 O   0  0  0  0  0  0  0  0  0  0  0  0
    7.9726  -14.8159   20.9541 C   0  0  0  0  0  0  0  0  0  0  0  0
    6.5061  -15.1125   21.0034 C   0  0  0  0  0  0  0  0  0  0  0  0
    6.2292  -16.5179   21.4931 C   0  0  2  0  0  0  0  0  0  0  0  0
    4.8219  -16.8182   21.5263 N   0  0  0  0  0  0  0  0  0  0  0  0
    6.7736  -16.6810   22.8633 C   0  0  0  0  0  0  0  0  0  0  0  0
    6.2838  -16.0765   23.8640 O   0  0  0  0  0  0  0  0  0  0  0  0
    8.3520  -19.0550   24.9951 C   0  0  0  0  0  0  0  0  0  0  0  0
    8.4645  -17.6437   24.4782 C   0  0  2  0  0  0  0  0  0  0  0  0
    7.8856  -17.5292   23.1466 N   0  0  0  0  0  0  0  0  0  0  0  0
    9.8759  -17.1684   24.4806 C   0  0  0  0  0  0  0  0  0  0  0  0
   10.4841  -16.8347   23.4531 O   0  0  0  0  0  0  0  0  0  0  0  0
   10.5457  -17.0941   25.6903 O   0  0  0  0  0  0  0  0  0  0  0  0
  2  1  1  6
  3  2  1  0
  4  5  1  0
  4  3  1  0
  6  5  1  0
  7  6  1  0
  8  9  2  0
  8  2  1  0
 11 10  1  0
 12 11  2  0
 13 11  1  0
 14 13  1  0
 15 14  1  1
 15 16  1  0
 16  8  1  0
 17 15  1  0
 18 17  2  0
 20 19  1  6
 20 21  1  0
 21 17  1  0
 22 20  1  0
 22 24  1  0
 23 22  2  0
M  END
$$$$
