KQA.pdb
     RDKit          3D

 24 23  0  0  1  0  0  0  0  0999 V2000
    8.6869  -19.8668   17.4119 N   0  0  0  0  0  0  0  0  0  0  0  0
    7.9630  -19.3355   18.5511 C   0  0  1  0  0  0  0  0  0  0  0  0
    7.4596  -20.4982   19.3399 C   0  0  0  0  0  0  0  0  0  0  0  0
    8.4942  -21.5323   19.6660 C   0  0  0  0  0  0  0  0  0  0  0  0
    7.8313  -22.7219   20.3469 C   0  0  0  0  0  0  0  0  0  0  0  0
    8.9000  -23.7750   20.6439 C   0  0  0  0  0  0  0  0  0  0  0  0
    8.2800  -24.8660   21.3646 N   0  0  0  0  0  0  0  0  0  0  0  0
    8.7977  -18.3884   19.3341 C   0  0  0  0  0  0  0  0  0  0  0  0
   10.0109  -18.6249   19.5603 O   0  0  0  0  0  0  0  0  0  0  0  0
    7.4158  -12.4348   20.6206 N   0  0  0  0  0  0  0  0  0  0  0  0
    8.0276  -12.8626   19.4134 C   0  0  0  0  0  0  0  0  0  0  0  0
    8.0177  -12.1154   18.4129 O   0  0  0  0  0  0  0  0  0  0  0  0
    8.6662  -14.1817   19.3551 C   0  0  0  0  0  0  0  0  0  0  0  0
    8.5298  -14.8601   20.6825 C   0  0  0  0  0  0  0  0  0  0  0  0
    9.0938  -16.2647   20.6608 C   0  0  2  0  0  0  0  0  0  0  0  0
    8.2908  -17.1646   19.8751 N   0  0  0  0  0  0  0  0  0  0  0  0
    9.1650  -16.7911   22.0458 C   0  0  0  0  0  0  0  0  0  0  0  0
    8.1580  -17.2859   22.6358 O   0  0  0  0  0  0  0  0  0  0  0  0
   10.0902  -18.8959   23.9846 C   0  0  0  0  0  0  0  0  0  0  0  0
   10.4961  -17.4484   24.0927 C   0  0  2  0  0  0  0  0  0  0  0  0
   10.3718  -16.7754   22.8070 N   0  0  0  0  0  0  0  0  0  0  0  0
   11.8773  -17.3036   24.6306 C   0  0  0  0  0  0  0  0  0  0  0  0
   12.7924  -16.7378   24.0146 O   0  0  0  0  0  0  0  0  0  0  0  0
   12.1569  -17.8263   25.8821 O   0  0  0  0  0  0  0  0  0  0  0  0
  2  1  1  6
  3  2  1  0
  4  5  1  0
  4  3  1  0
  6  5  1  0
  7  6  1  0
  8  9  2  0
  8  2  1  0
 11 10  1  0
 12 11  2  0
 13 11  1  0
 14 13  1  0
 15 14  1  1
 15 16  1  0
 16  8  1  0
 17 15  1  0
 18 17  2  0
 20 19  1  6
 20 21  1  0
 21 17  1  0
 22 20  1  0
 22 24  1  0
 23 22  2  0
M  END
$$$$
