KQA.pdb
     RDKit          3D

 24 23  0  0  1  0  0  0  0  0999 V2000
    4.7495  -18.7549   21.4175 N   0  0  0  0  0  0  0  0  0  0  0  0
    5.9793  -18.0635   21.7552 C   0  0  1  0  0  0  0  0  0  0  0  0
    6.1287  -16.9285   20.7976 C   0  0  0  0  0  0  0  0  0  0  0  0
    6.9136  -17.2477   19.5614 C   0  0  0  0  0  0  0  0  0  0  0  0
    8.4030  -17.1459   19.8610 C   0  0  0  0  0  0  0  0  0  0  0  0
    9.1827  -17.4569   18.5825 C   0  0  0  0  0  0  0  0  0  0  0  0
   10.5766  -17.1403   18.8077 N   0  0  0  0  0  0  0  0  0  0  0  0
    6.0017  -17.6573   23.1839 C   0  0  0  0  0  0  0  0  0  0  0  0
    5.0111  -17.0965   23.7160 O   0  0  0  0  0  0  0  0  0  0  0  0
   10.2172  -18.7968   28.4408 N   0  0  0  0  0  0  0  0  0  0  0  0
    8.8046  -18.9277   28.4898 C   0  0  0  0  0  0  0  0  0  0  0  0
    8.2875  -19.8255   29.1871 O   0  0  0  0  0  0  0  0  0  0  0  0
    7.9663  -18.0041   27.7184 C   0  0  0  0  0  0  0  0  0  0  0  0
    8.0065  -18.3855   26.2714 C   0  0  0  0  0  0  0  0  0  0  0  0
    7.1495  -17.4720   25.4213 C   0  0  2  0  0  0  0  0  0  0  0  0
    7.1291  -17.8714   24.0386 N   0  0  0  0  0  0  0  0  0  0  0  0
    7.6743  -16.0867   25.4992 C   0  0  0  0  0  0  0  0  0  0  0  0
    8.7708  -15.7459   24.9623 O   0  0  0  0  0  0  0  0  0  0  0  0
    6.4015  -12.7053   26.5752 C   0  0  0  0  0  0  0  0  0  0  0  0
    7.5054  -13.6908   26.2894 C   0  0  2  0  0  0  0  0  0  0  0  0
    6.9800  -15.0451   26.1841 N   0  0  0  0  0  0  0  0  0  0  0  0
    8.5822  -13.6229   27.3160 C   0  0  0  0  0  0  0  0  0  0  0  0
    9.2375  -12.5966   27.5489 O   0  0  0  0  0  0  0  0  0  0  0  0
    8.8685  -14.7622   28.0492 O   0  0  0  0  0  0  0  0  0  0  0  0
  2  1  1  6
  3  2  1  0
  4  5  1  0
  4  3  1  0
  6  5  1  0
  7  6  1  0
  8  9  2  0
  8  2  1  0
 11 10  1  0
 12 11  2  0
 13 11  1  0
 14 13  1  0
 15 14  1  1
 15 16  1  0
 16  8  1  0
 17 15  1  0
 18 17  2  0
 20 19  1  1
 20 21  1  0
 21 17  1  0
 22 20  1  0
 22 24  1  0
 23 22  2  0
M  END
$$$$
