KQA.pdb
     RDKit          3D

 24 23  0  0  1  0  0  0  0  0999 V2000
   10.6319  -19.4386   18.5246 N   0  0  0  0  0  0  0  0  0  0  0  0
   11.1702  -18.2052   17.9833 C   0  0  1  0  0  0  0  0  0  0  0  0
   10.6435  -18.0619   16.5942 C   0  0  0  0  0  0  0  0  0  0  0  0
   11.6870  -18.0971   15.5190 C   0  0  0  0  0  0  0  0  0  0  0  0
   11.0212  -17.9682   14.1558 C   0  0  0  0  0  0  0  0  0  0  0  0
   12.1057  -17.9777   13.0775 C   0  0  0  0  0  0  0  0  0  0  0  0
   11.5099  -17.5652   11.8250 N   0  0  0  0  0  0  0  0  0  0  0  0
   10.8741  -17.0474   18.8657 C   0  0  0  0  0  0  0  0  0  0  0  0
   10.6653  -15.9036   18.3894 O   0  0  0  0  0  0  0  0  0  0  0  0
    6.3993  -15.1028   21.0783 N   0  0  0  0  0  0  0  0  0  0  0  0
    7.2061  -14.3205   21.9455 C   0  0  0  0  0  0  0  0  0  0  0  0
    6.6944  -13.3836   22.5936 O   0  0  0  0  0  0  0  0  0  0  0  0
    8.6358  -14.6227   22.0705 C   0  0  0  0  0  0  0  0  0  0  0  0
    8.9765  -15.7891   21.1962 C   0  0  0  0  0  0  0  0  0  0  0  0
   10.4687  -16.0376   21.1402 C   0  0  2  0  0  0  0  0  0  0  0  0
   10.8065  -17.1498   20.2912 N   0  0  0  0  0  0  0  0  0  0  0  0
   10.9748  -16.3219   22.5053 C   0  0  0  0  0  0  0  0  0  0  0  0
   11.0274  -15.4333   23.4078 O   0  0  0  0  0  0  0  0  0  0  0  0
   11.5163  -19.2481   24.7073 C   0  0  0  0  0  0  0  0  0  0  0  0
   11.9623  -17.8922   24.2236 C   0  0  2  0  0  0  0  0  0  0  0  0
   11.4368  -17.6149   22.8939 N   0  0  0  0  0  0  0  0  0  0  0  0
   13.4460  -17.7635   24.2400 C   0  0  0  0  0  0  0  0  0  0  0  0
   14.1205  -17.5273   23.2270 O   0  0  0  0  0  0  0  0  0  0  0  0
   14.1088  -17.9147   25.4464 O   0  0  0  0  0  0  0  0  0  0  0  0
  2  1  1  1
  3  2  1  0
  4  5  1  0
  4  3  1  0
  6  5  1  0
  7  6  1  0
  8  9  2  0
  8  2  1  0
 11 10  1  0
 12 11  2  0
 13 11  1  0
 14 13  1  0
 15 14  1  1
 15 16  1  0
 16  8  1  0
 17 15  1  0
 18 17  2  0
 20 19  1  6
 20 21  1  0
 21 17  1  0
 22 20  1  0
 22 24  1  0
 23 22  2  0
M  END
$$$$
