KQA.pdb
     RDKit          3D

 24 23  0  0  1  0  0  0  0  0999 V2000
    9.3470  -16.7512   17.5324 N   0  0  0  0  0  0  0  0  0  0  0  0
    8.8328  -17.6237   18.5710 C   0  0  1  0  0  0  0  0  0  0  0  0
    7.8828  -18.5749   17.9228 C   0  0  0  0  0  0  0  0  0  0  0  0
    7.7802  -18.4442   16.4333 C   0  0  0  0  0  0  0  0  0  0  0  0
    6.7746  -19.4552   15.8994 C   0  0  0  0  0  0  0  0  0  0  0  0
    6.7205  -19.3352   14.3757 C   0  0  0  0  0  0  0  0  0  0  0  0
    5.8158  -20.3444   13.8686 N   0  0  0  0  0  0  0  0  0  0  0  0
    9.9315  -18.2830   19.3227 C   0  0  0  0  0  0  0  0  0  0  0  0
    9.6888  -19.1103   20.2367 O   0  0  0  0  0  0  0  0  0  0  0  0
   16.9887  -18.6945   18.6120 N   0  0  0  0  0  0  0  0  0  0  0  0
   15.8044  -19.4768   18.6232 C   0  0  0  0  0  0  0  0  0  0  0  0
   15.6133  -20.3279   17.7296 O   0  0  0  0  0  0  0  0  0  0  0  0
   14.8157  -19.2755   19.6876 C   0  0  0  0  0  0  0  0  0  0  0  0
   13.7443  -18.3490   19.2034 C   0  0  0  0  0  0  0  0  0  0  0  0
   12.3781  -18.7428   19.7231 C   0  0  2  0  0  0  0  0  0  0  0  0
   11.3157  -18.0285   19.0649 N   0  0  0  0  0  0  0  0  0  0  0  0
   12.3007  -18.4586   21.1770 C   0  0  0  0  0  0  0  0  0  0  0  0
   12.7313  -17.3779   21.6805 O   0  0  0  0  0  0  0  0  0  0  0  0
   10.2209  -19.3877   24.0206 C   0  0  0  0  0  0  0  0  0  0  0  0
   11.6133  -19.0888   23.5272 C   0  0  2  0  0  0  0  0  0  0  0  0
   11.7366  -19.3830   22.1061 N   0  0  0  0  0  0  0  0  0  0  0  0
   12.6437  -19.8278   24.3085 C   0  0  0  0  0  0  0  0  0  0  0  0
   12.8621  -19.6241   25.5117 O   0  0  0  0  0  0  0  0  0  0  0  0
   13.3977  -20.7921   23.6610 O   0  0  0  0  0  0  0  0  0  0  0  0
  2  1  1  6
  3  2  1  0
  4  5  1  0
  4  3  1  0
  6  5  1  0
  7  6  1  0
  8  9  2  0
  8  2  1  0
 11 10  1  0
 12 11  2  0
 13 11  1  0
 14 13  1  0
 15 14  1  6
 15 16  1  0
 16  8  1  0
 17 15  1  0
 18 17  2  0
 20 19  1  1
 20 21  1  0
 21 17  1  0
 22 20  1  0
 22 24  1  0
 23 22  2  0
M  END
$$$$
