KQA.pdb
     RDKit          3D

 24 23  0  0  1  0  0  0  0  0999 V2000
    7.9153  -16.4801   21.2268 N   0  0  0  0  0  0  0  0  0  0  0  0
    9.2801  -15.9956   21.3106 C   0  0  1  0  0  0  0  0  0  0  0  0
    9.6095  -15.3650   19.9986 C   0  0  0  0  0  0  0  0  0  0  0  0
    8.4282  -15.0924   19.1175 C   0  0  0  0  0  0  0  0  0  0  0  0
    8.9001  -14.4883   17.8019 C   0  0  0  0  0  0  0  0  0  0  0  0
    7.6944  -14.3308   16.8742 C   0  0  0  0  0  0  0  0  0  0  0  0
    8.1516  -13.7730   15.6197 N   0  0  0  0  0  0  0  0  0  0  0  0
    9.4690  -15.0973   22.4786 C   0  0  0  0  0  0  0  0  0  0  0  0
   10.5217  -14.4258   22.6189 O   0  0  0  0  0  0  0  0  0  0  0  0
    5.0408  -13.0075   26.4762 N   0  0  0  0  0  0  0  0  0  0  0  0
    6.1656  -12.2067   26.8057 C   0  0  0  0  0  0  0  0  0  0  0  0
    6.0277  -11.2226   27.5619 O   0  0  0  0  0  0  0  0  0  0  0  0
    7.4807  -12.5457   26.2521 C   0  0  0  0  0  0  0  0  0  0  0  0
    7.3105  -13.5065   25.1168 C   0  0  0  0  0  0  0  0  0  0  0  0
    8.6403  -14.0099   24.5972 C   0  0  2  0  0  0  0  0  0  0  0  0
    8.4861  -14.9357   23.5058 N   0  0  0  0  0  0  0  0  0  0  0  0
    9.3717  -14.6953   25.6907 C   0  0  0  0  0  0  0  0  0  0  0  0
    9.6623  -14.1153   26.7798 O   0  0  0  0  0  0  0  0  0  0  0  0
   10.3135  -15.9709   27.9750 C   0  0  0  0  0  0  0  0  0  0  0  0
   10.4227  -16.7630   26.6974 C   0  0  2  0  0  0  0  0  0  0  0  0
    9.7976  -16.0534   25.5896 N   0  0  0  0  0  0  0  0  0  0  0  0
    9.8403  -18.1258   26.8443 C   0  0  0  0  0  0  0  0  0  0  0  0
    8.8751  -18.5295   26.1791 O   0  0  0  0  0  0  0  0  0  0  0  0
   10.4031  -18.9884   27.7699 O   0  0  0  0  0  0  0  0  0  0  0  0
  2  1  1  6
  3  2  1  0
  4  5  1  0
  4  3  1  0
  6  5  1  0
  7  6  1  0
  8  9  2  0
  8  2  1  0
 11 10  1  0
 12 11  2  0
 13 11  1  0
 14 13  1  0
 15 14  1  1
 15 16  1  0
 16  8  1  0
 17 15  1  0
 18 17  2  0
 20 19  1  1
 20 21  1  0
 21 17  1  0
 22 20  1  0
 22 24  1  0
 23 22  2  0
M  END
$$$$
