KQA.pdb
     RDKit          3D

 24 23  0  0  1  0  0  0  0  0999 V2000
    9.5209  -15.6319   19.5045 N   0  0  0  0  0  0  0  0  0  0  0  0
    8.6864  -16.1959   20.5485 C   0  0  1  0  0  0  0  0  0  0  0  0
    8.6117  -17.6676   20.3118 C   0  0  0  0  0  0  0  0  0  0  0  0
    8.2103  -18.0616   18.9226 C   0  0  0  0  0  0  0  0  0  0  0  0
    8.1121  -19.5783   18.8295 C   0  0  0  0  0  0  0  0  0  0  0  0
    6.6349  -19.9730   18.7976 C   0  0  0  0  0  0  0  0  0  0  0  0
    6.1593  -19.8574   17.4359 N   0  0  0  0  0  0  0  0  0  0  0  0
    9.1782  -15.8241   21.9000 C   0  0  0  0  0  0  0  0  0  0  0  0
   10.3962  -15.5971   22.1090 O   0  0  0  0  0  0  0  0  0  0  0  0
    5.7153  -13.4540   26.4605 N   0  0  0  0  0  0  0  0  0  0  0  0
    6.6678  -12.5959   25.8511 C   0  0  0  0  0  0  0  0  0  0  0  0
    6.5618  -11.3584   25.9804 O   0  0  0  0  0  0  0  0  0  0  0  0
    7.7689  -13.1748   25.0743 C   0  0  0  0  0  0  0  0  0  0  0  0
    7.7230  -14.6673   25.1812 C   0  0  0  0  0  0  0  0  0  0  0  0
    8.7960  -15.3281   24.3425 C   0  0  2  0  0  0  0  0  0  0  0  0
    8.3180  -15.7001   23.0367 N   0  0  0  0  0  0  0  0  0  0  0  0
    9.2778  -16.5515   25.0292 C   0  0  0  0  0  0  0  0  0  0  0  0
    8.5294  -17.5541   25.2327 O   0  0  0  0  0  0  0  0  0  0  0  0
   12.5505  -18.1410   25.8074 C   0  0  0  0  0  0  0  0  0  0  0  0
   11.1039  -17.8936   26.1506 C   0  0  2  0  0  0  0  0  0  0  0  0
   10.6160  -16.6815   25.5070 N   0  0  0  0  0  0  0  0  0  0  0  0
   10.8918  -17.8288   27.6233 C   0  0  0  0  0  0  0  0  0  0  0  0
   11.1879  -18.7524   28.3955 O   0  0  0  0  0  0  0  0  0  0  0  0
   10.3358  -16.6799   28.1606 O   0  0  0  0  0  0  0  0  0  0  0  0
  2  1  1  6
  3  2  1  0
  4  5  1  0
  4  3  1  0
  6  5  1  0
  7  6  1  0
  8  9  2  0
  8  2  1  0
 11 10  1  0
 12 11  2  0
 13 11  1  0
 14 13  1  0
 15 14  1  1
 15 16  1  0
 16  8  1  0
 17 15  1  0
 18 17  2  0
 20 19  1  1
 20 21  1  0
 21 17  1  0
 22 20  1  0
 22 24  1  0
 23 22  2  0
M  END
$$$$
