KQA.pdb
     RDKit          3D

 24 23  0  0  1  0  0  0  0  0999 V2000
    9.9888  -15.7896   18.5048 N   0  0  0  0  0  0  0  0  0  0  0  0
    9.6294  -14.7201   19.4166 C   0  0  1  0  0  0  0  0  0  0  0  0
    8.4715  -13.9944   18.8166 C   0  0  0  0  0  0  0  0  0  0  0  0
    8.0677  -14.4714   17.4544 C   0  0  0  0  0  0  0  0  0  0  0  0
    7.2633  -13.3870   16.7505 C   0  0  0  0  0  0  0  0  0  0  0  0
    6.8483  -13.9016   15.3713 C   0  0  0  0  0  0  0  0  0  0  0  0
    5.9782  -12.9207   14.7593 N   0  0  0  0  0  0  0  0  0  0  0  0
    9.3776  -15.2339   20.7875 C   0  0  0  0  0  0  0  0  0  0  0  0
    9.2864  -14.4533   21.7678 O   0  0  0  0  0  0  0  0  0  0  0  0
    6.8052  -18.2031   24.7145 N   0  0  0  0  0  0  0  0  0  0  0  0
    6.0867  -18.0199   23.5041 C   0  0  0  0  0  0  0  0  0  0  0  0
    4.8629  -17.7738   23.5390 O   0  0  0  0  0  0  0  0  0  0  0  0
    6.7924  -18.1223   22.2225 C   0  0  0  0  0  0  0  0  0  0  0  0
    8.2431  -18.3935   22.4732 C   0  0  0  0  0  0  0  0  0  0  0  0
    9.0723  -17.1280   22.4236 C   0  0  2  0  0  0  0  0  0  0  0  0
    9.2237  -16.6254   21.0833 N   0  0  0  0  0  0  0  0  0  0  0  0
   10.4223  -17.3986   22.9757 C   0  0  0  0  0  0  0  0  0  0  0  0
   10.5956  -17.9810   24.0882 O   0  0  0  0  0  0  0  0  0  0  0  0
   13.9551  -17.3201   21.6571 C   0  0  0  0  0  0  0  0  0  0  0  0
   12.9425  -17.3843   22.7716 C   0  0  2  0  0  0  0  0  0  0  0  0
   11.6162  -17.0211   22.2916 N   0  0  0  0  0  0  0  0  0  0  0  0
   13.3378  -16.5270   23.9234 C   0  0  0  0  0  0  0  0  0  0  0  0
   14.3683  -16.7111   24.5876 O   0  0  0  0  0  0  0  0  0  0  0  0
   12.5148  -15.4696   24.2729 O   0  0  0  0  0  0  0  0  0  0  0  0
  2  1  1  6
  3  2  1  0
  4  5  1  0
  4  3  1  0
  6  5  1  0
  7  6  1  0
  8  9  2  0
  8  2  1  0
 11 10  1  0
 12 11  2  0
 13 11  1  0
 14 13  1  0
 15 14  1  6
 15 16  1  0
 16  8  1  0
 17 15  1  0
 18 17  2  0
 20 19  1  6
 20 21  1  0
 21 17  1  0
 22 20  1  0
 22 24  1  0
 23 22  2  0
M  END
$$$$
