KQA.pdb
     RDKit          3D

 24 23  0  0  1  0  0  0  0  0999 V2000
    9.6549  -15.9576   19.7055 N   0  0  0  0  0  0  0  0  0  0  0  0
    8.7073  -16.3365   20.7364 C   0  0  1  0  0  0  0  0  0  0  0  0
    8.6117  -17.8259   20.7269 C   0  0  0  0  0  0  0  0  0  0  0  0
    8.4181  -18.4351   19.3714 C   0  0  0  0  0  0  0  0  0  0  0  0
    8.1342  -19.9240   19.5158 C   0  0  0  0  0  0  0  0  0  0  0  0
    7.9582  -20.5271   18.1214 C   0  0  0  0  0  0  0  0  0  0  0  0
    7.5520  -21.9083   18.2677 N   0  0  0  0  0  0  0  0  0  0  0  0
    9.0778  -15.7618   22.0553 C   0  0  0  0  0  0  0  0  0  0  0  0
   10.2704  -15.7572   22.4506 O   0  0  0  0  0  0  0  0  0  0  0  0
    5.3443  -12.5070   26.0208 N   0  0  0  0  0  0  0  0  0  0  0  0
    6.5807  -12.5069   26.7180 C   0  0  0  0  0  0  0  0  0  0  0  0
    6.6889  -11.8775   27.7911 O   0  0  0  0  0  0  0  0  0  0  0  0
    7.7203  -13.2482   26.1678 C   0  0  0  0  0  0  0  0  0  0  0  0
    7.3524  -13.8045   24.8276 C   0  0  0  0  0  0  0  0  0  0  0  0
    8.4913  -14.5847   24.2066 C   0  0  2  0  0  0  0  0  0  0  0  0
    8.1230  -15.1842   22.9508 N   0  0  0  0  0  0  0  0  0  0  0  0
    8.9151  -15.6636   25.1323 C   0  0  0  0  0  0  0  0  0  0  0  0
    8.1214  -16.5705   25.5251 O   0  0  0  0  0  0  0  0  0  0  0  0
   12.0952  -17.2375   26.2191 C   0  0  0  0  0  0  0  0  0  0  0  0
   10.6759  -16.8308   26.5217 C   0  0  2  0  0  0  0  0  0  0  0  0
   10.2445  -15.7524   25.6428 N   0  0  0  0  0  0  0  0  0  0  0  0
   10.5076  -16.4441   27.9501 C   0  0  0  0  0  0  0  0  0  0  0  0
   10.7716  -17.2006   28.8962 O   0  0  0  0  0  0  0  0  0  0  0  0
   10.0323  -15.1761   28.2395 O   0  0  0  0  0  0  0  0  0  0  0  0
  2  1  1  6
  3  2  1  0
  4  5  1  0
  4  3  1  0
  6  5  1  0
  7  6  1  0
  8  9  2  0
  8  2  1  0
 11 10  1  0
 12 11  2  0
 13 11  1  0
 14 13  1  0
 15 14  1  1
 15 16  1  0
 16  8  1  0
 17 15  1  0
 18 17  2  0
 20 19  1  1
 20 21  1  0
 21 17  1  0
 22 20  1  0
 22 24  1  0
 23 22  2  0
M  END
$$$$
