FWS.pdb
     RDKit          3D

 32 34  0  0  1  0  0  0  0  0999 V2000
   27.8219  -21.1593  -15.4445 N   0  0  0  0  0  0  0  0  0  0  0  0
   28.0265  -20.2767  -14.3179 C   0  0  1  0  0  0  0  0  0  0  0  0
   27.4266  -18.8961  -14.5501 C   0  0  0  0  0  0  0  0  0  0  0  0
   28.2029  -18.2296  -15.5985 C   0  0  0  0  0  0  0  0  0  0  0  0
   29.5739  -18.0787  -15.4998 C   0  0  0  0  0  0  0  0  0  0  0  0
   30.3165  -17.4527  -16.4786 C   0  0  0  0  0  0  0  0  0  0  0  0
   29.6656  -16.9647  -17.5868 C   0  0  0  0  0  0  0  0  0  0  0  0
   28.2844  -17.1033  -17.7118 C   0  0  0  0  0  0  0  0  0  0  0  0
   27.5663  -17.7389  -16.7082 C   0  0  0  0  0  0  0  0  0  0  0  0
   27.3105  -20.8400  -13.1436 C   0  0  0  0  0  0  0  0  0  0  0  0
   26.2301  -21.4783  -13.3063 O   0  0  0  0  0  0  0  0  0  0  0  0
   27.8270  -20.6666  -11.8620 N   0  0  0  0  0  0  0  0  0  0  0  0
   27.0376  -21.0772  -10.6816 C   0  0  1  0  0  0  0  0  0  0  0  0
   27.8748  -20.8463   -9.4820 C   0  0  0  0  0  0  0  0  0  0  0  0
   27.1405  -20.7092   -8.2275 C   0  0  0  0  0  0  0  0  0  0  0  0
   25.7559  -20.8543   -8.0767 C   0  0  0  0  0  0  0  0  0  0  0  0
   25.5062  -20.6470   -6.7878 N   0  0  0  0  0  0  0  0  0  0  0  0
   26.6316  -20.3804   -6.1047 C   0  0  0  0  0  0  0  0  0  0  0  0
   26.8984  -20.1217   -4.7643 C   0  0  0  0  0  0  0  0  0  0  0  0
   28.1923  -19.9048   -4.3503 C   0  0  0  0  0  0  0  0  0  0  0  0
   29.2635  -19.9323   -5.2253 C   0  0  0  0  0  0  0  0  0  0  0  0
   28.9941  -20.1884   -6.5526 C   0  0  0  0  0  0  0  0  0  0  0  0
   27.6971  -20.4081   -6.9779 C   0  0  0  0  0  0  0  0  0  0  0  0
   25.7465  -20.4002  -10.7745 C   0  0  0  0  0  0  0  0  0  0  0  0
   25.6758  -19.1163  -10.7874 O   0  0  0  0  0  0  0  0  0  0  0  0
   22.7403  -21.7404  -12.8833 O   0  0  0  0  0  0  0  0  0  0  0  0
   22.8996  -20.3816  -12.6259 C   0  0  0  0  0  0  0  0  0  0  0  0
   23.2619  -20.2758  -11.1331 C   0  0  2  0  0  0  0  0  0  0  0  0
   24.4683  -21.0352  -10.8691 N   0  0  0  0  0  0  0  0  0  0  0  0
   22.0843  -20.7146  -10.3820 C   0  0  0  0  0  0  0  0  0  0  0  0
   22.1616  -21.7848   -9.5217 O   0  0  0  0  0  0  0  0  0  0  0  0
   20.9963  -20.1213  -10.5175 O   0  0  0  0  0  0  0  0  0  0  0  0
  2  1  1  6
  2 10  1  0
  3  2  1  0
  3  4  1  0
  4  9  1  0
  4  5  2  0
  5  6  1  0
  6  7  2  0
  8  7  1  0
  9  8  2  0
 10 11  2  0
 12 10  1  0
 12 13  1  0
 13 14  1  1
 15 14  1  0
 16 15  2  0
 17 18  1  0
 17 16  1  0
 18 23  2  0
 19 20  2  0
 19 18  1  0
 20 21  1  0
 21 22  2  0
 23 22  1  0
 23 15  1  0
 24 13  1  0
 24 25  2  0
 26 27  1  0
 28 27  1  6
 28 30  1  0
 29 28  1  0
 29 24  1  0
 30 32  2  0
 30 31  1  0
M  END
$$$$
