FWS.pdb
     RDKit          3D

 32 34  0  0  1  0  0  0  0  0999 V2000
   27.7740  -21.2292  -15.4505 N   0  0  0  0  0  0  0  0  0  0  0  0
   28.0157  -20.3356  -14.3400 C   0  0  1  0  0  0  0  0  0  0  0  0
   27.4955  -18.9293  -14.6073 C   0  0  0  0  0  0  0  0  0  0  0  0
   28.3036  -18.3372  -15.6761 C   0  0  0  0  0  0  0  0  0  0  0  0
   29.5890  -17.8823  -15.4454 C   0  0  0  0  0  0  0  0  0  0  0  0
   30.3601  -17.3221  -16.4419 C   0  0  0  0  0  0  0  0  0  0  0  0
   29.8269  -17.2155  -17.7045 C   0  0  0  0  0  0  0  0  0  0  0  0
   28.5338  -17.6660  -17.9647 C   0  0  0  0  0  0  0  0  0  0  0  0
   27.7840  -18.2251  -16.9390 C   0  0  0  0  0  0  0  0  0  0  0  0
   27.2579  -20.8337  -13.1625 C   0  0  0  0  0  0  0  0  0  0  0  0
   26.2376  -21.5636  -13.3278 O   0  0  0  0  0  0  0  0  0  0  0  0
   27.6689  -20.4981  -11.8750 N   0  0  0  0  0  0  0  0  0  0  0  0
   26.9155  -20.9916  -10.7028 C   0  0  1  0  0  0  0  0  0  0  0  0
   27.7567  -20.7682   -9.5047 C   0  0  0  0  0  0  0  0  0  0  0  0
   27.0396  -20.7627   -8.2328 C   0  0  0  0  0  0  0  0  0  0  0  0
   25.7186  -21.1869   -8.0433 C   0  0  0  0  0  0  0  0  0  0  0  0
   25.4619  -21.0125   -6.7510 N   0  0  0  0  0  0  0  0  0  0  0  0
   26.5239  -20.5078   -6.1016 C   0  0  0  0  0  0  0  0  0  0  0  0
   26.7631  -20.1759   -4.7721 C   0  0  0  0  0  0  0  0  0  0  0  0
   27.9939  -19.6901   -4.3955 C   0  0  0  0  0  0  0  0  0  0  0  0
   29.0269  -19.5122   -5.2984 C   0  0  0  0  0  0  0  0  0  0  0  0
   28.7850  -19.8419   -6.6147 C   0  0  0  0  0  0  0  0  0  0  0  0
   27.5515  -20.3313   -7.0024 C   0  0  0  0  0  0  0  0  0  0  0  0
   25.5928  -20.3737  -10.7541 C   0  0  0  0  0  0  0  0  0  0  0  0
   25.4587  -19.0976  -10.6695 O   0  0  0  0  0  0  0  0  0  0  0  0
   22.5645  -22.1070  -12.5506 O   0  0  0  0  0  0  0  0  0  0  0  0
   22.5065  -20.7180  -12.4771 C   0  0  0  0  0  0  0  0  0  0  0  0
   23.1047  -20.3438  -11.1085 C   0  0  2  0  0  0  0  0  0  0  0  0
   24.3481  -21.0615  -10.9071 N   0  0  0  0  0  0  0  0  0  0  0  0
   22.0706  -20.6158  -10.1084 C   0  0  0  0  0  0  0  0  0  0  0  0
   20.8485  -19.9888  -10.1768 O   0  0  0  0  0  0  0  0  0  0  0  0
   22.2901  -21.4196   -9.1810 O   0  0  0  0  0  0  0  0  0  0  0  0
  2  1  1  6
  2 10  1  0
  3  2  1  0
  3  4  1  0
  4  9  1  0
  4  5  2  0
  5  6  1  0
  6  7  2  0
  8  7  1  0
  9  8  2  0
 10 11  2  0
 12 10  1  0
 12 13  1  0
 13 14  1  1
 15 14  1  0
 16 15  2  0
 17 18  1  0
 17 16  1  0
 18 23  2  0
 19 20  2  0
 19 18  1  0
 20 21  1  0
 21 22  2  0
 23 22  1  0
 23 15  1  0
 24 13  1  0
 24 25  2  0
 26 27  1  0
 28 27  1  6
 28 30  1  0
 29 28  1  0
 29 24  1  0
 30 32  2  0
 30 31  1  0
M  END
$$$$
