FWS.pdb
     RDKit          3D

 32 34  0  0  1  0  0  0  0  0999 V2000
   27.6844  -21.0452  -18.8253 N   0  0  0  0  0  0  0  0  0  0  0  0
   26.8309  -21.8662  -17.9961 C   0  0  1  0  0  0  0  0  0  0  0  0
   27.5539  -22.3854  -16.7601 C   0  0  0  0  0  0  0  0  0  0  0  0
   26.6202  -23.2196  -15.9997 C   0  0  0  0  0  0  0  0  0  0  0  0
   26.4321  -24.5560  -16.3009 C   0  0  0  0  0  0  0  0  0  0  0  0
   25.5558  -25.3522  -15.5941 C   0  0  0  0  0  0  0  0  0  0  0  0
   24.8490  -24.7921  -14.5565 C   0  0  0  0  0  0  0  0  0  0  0  0
   25.0194  -23.4475  -14.2314 C   0  0  0  0  0  0  0  0  0  0  0  0
   25.9096  -22.6736  -14.9631 C   0  0  0  0  0  0  0  0  0  0  0  0
   25.7148  -21.0243  -17.4918 C   0  0  0  0  0  0  0  0  0  0  0  0
   25.9582  -19.9060  -16.9520 O   0  0  0  0  0  0  0  0  0  0  0  0
   24.3990  -21.4641  -17.6124 N   0  0  0  0  0  0  0  0  0  0  0  0
   23.2908  -20.6469  -17.0744 C   0  0  1  0  0  0  0  0  0  0  0  0
   22.7277  -19.8631  -18.1976 C   0  0  0  0  0  0  0  0  0  0  0  0
   22.4297  -18.4663  -17.8941 C   0  0  0  0  0  0  0  0  0  0  0  0
   22.8005  -17.7923  -16.7241 C   0  0  0  0  0  0  0  0  0  0  0  0
   22.3327  -16.5549  -16.8527 N   0  0  0  0  0  0  0  0  0  0  0  0
   21.6902  -16.3902  -18.0208 C   0  0  0  0  0  0  0  0  0  0  0  0
   21.0599  -15.3052  -18.6211 C   0  0  0  0  0  0  0  0  0  0  0  0
   20.4985  -15.4408  -19.8697 C   0  0  0  0  0  0  0  0  0  0  0  0
   20.5324  -16.6331  -20.5706 C   0  0  0  0  0  0  0  0  0  0  0  0
   21.1575  -17.7055  -19.9715 C   0  0  0  0  0  0  0  0  0  0  0  0
   21.7250  -17.5786  -18.7172 C   0  0  0  0  0  0  0  0  0  0  0  0
   22.4091  -21.5522  -16.3416 C   0  0  0  0  0  0  0  0  0  0  0  0
   22.0430  -22.6731  -16.8546 O   0  0  0  0  0  0  0  0  0  0  0  0
   20.4968  -20.6299  -12.8622 O   0  0  0  0  0  0  0  0  0  0  0  0
   20.9060  -21.9604  -12.8791 C   0  0  0  0  0  0  0  0  0  0  0  0
   21.0672  -22.3321  -14.3646 C   0  0  2  0  0  0  0  0  0  0  0  0
   21.8772  -21.3321  -15.0323 N   0  0  0  0  0  0  0  0  0  0  0  0
   19.7170  -22.4904  -14.9080 C   0  0  0  0  0  0  0  0  0  0  0  0
   18.9802  -23.6188  -14.6340 O   0  0  0  0  0  0  0  0  0  0  0  0
   19.2220  -21.6015  -15.6285 O   0  0  0  0  0  0  0  0  0  0  0  0
  2  1  1  6
  2 10  1  0
  3  2  1  0
  3  4  1  0
  4  9  1  0
  4  5  2  0
  5  6  1  0
  6  7  2  0
  8  7  1  0
  9  8  2  0
 10 11  2  0
 12 10  1  0
 12 13  1  0
 13 14  1  6
 15 14  1  0
 16 15  2  0
 17 18  1  0
 17 16  1  0
 18 23  2  0
 19 20  2  0
 19 18  1  0
 20 21  1  0
 21 22  2  0
 23 22  1  0
 23 15  1  0
 24 13  1  0
 24 25  2  0
 26 27  1  0
 28 27  1  1
 28 30  1  0
 29 28  1  0
 29 24  1  0
 30 32  2  0
 30 31  1  0
M  END
$$$$
