FWS.pdb
     RDKit          3D

 32 34  0  0  1  0  0  0  0  0999 V2000
   28.7030  -21.1058  -12.6311 N   0  0  0  0  0  0  0  0  0  0  0  0
   27.6030  -20.1983  -12.3929 C   0  0  1  0  0  0  0  0  0  0  0  0
   26.7897  -19.9341  -13.6533 C   0  0  0  0  0  0  0  0  0  0  0  0
   27.4924  -18.9245  -14.4488 C   0  0  0  0  0  0  0  0  0  0  0  0
   27.4033  -17.5770  -14.1514 C   0  0  0  0  0  0  0  0  0  0  0  0
   28.0585  -16.6161  -14.8924 C   0  0  0  0  0  0  0  0  0  0  0  0
   28.8241  -17.0185  -15.9610 C   0  0  0  0  0  0  0  0  0  0  0  0
   28.9313  -18.3704  -16.2829 C   0  0  0  0  0  0  0  0  0  0  0  0
   28.2588  -19.3123  -15.5164 C   0  0  0  0  0  0  0  0  0  0  0  0
   26.6675  -20.8363  -11.4303 C   0  0  0  0  0  0  0  0  0  0  0  0
   26.6399  -22.0960  -11.3134 O   0  0  0  0  0  0  0  0  0  0  0  0
   25.8194  -20.0494  -10.6552 N   0  0  0  0  0  0  0  0  0  0  0  0
   24.8699  -20.6836   -9.7163 C   0  0  1  0  0  0  0  0  0  0  0  0
   24.8562  -19.8712   -8.4782 C   0  0  0  0  0  0  0  0  0  0  0  0
   26.1635  -19.6420   -7.8697 C   0  0  0  0  0  0  0  0  0  0  0  0
   27.0853  -18.6662   -8.2684 C   0  0  0  0  0  0  0  0  0  0  0  0
   28.1323  -18.8026   -7.4611 N   0  0  0  0  0  0  0  0  0  0  0  0
   27.9452  -19.7950   -6.5753 C   0  0  0  0  0  0  0  0  0  0  0  0
   28.7133  -20.3048   -5.5337 C   0  0  0  0  0  0  0  0  0  0  0  0
   28.2296  -21.3377   -4.7645 C   0  0  0  0  0  0  0  0  0  0  0  0
   26.9873  -21.9053   -4.9847 C   0  0  0  0  0  0  0  0  0  0  0  0
   26.2301  -21.3972   -6.0184 C   0  0  0  0  0  0  0  0  0  0  0  0
   26.7077  -20.3590   -6.7964 C   0  0  0  0  0  0  0  0  0  0  0  0
   23.6162  -20.8755  -10.4411 C   0  0  0  0  0  0  0  0  0  0  0  0
   23.2588  -20.0572  -11.3664 O   0  0  0  0  0  0  0  0  0  0  0  0
   20.8572  -23.5663   -9.3369 O   0  0  0  0  0  0  0  0  0  0  0  0
   20.7485  -23.3590  -10.7092 C   0  0  0  0  0  0  0  0  0  0  0  0
   21.4426  -22.0130  -10.9876 C   0  0  2  0  0  0  0  0  0  0  0  0
   22.6819  -21.9395  -10.2390 N   0  0  0  0  0  0  0  0  0  0  0  0
   20.4712  -20.9647  -10.6701 C   0  0  0  0  0  0  0  0  0  0  0  0
   19.2518  -20.9249  -11.3048 O   0  0  0  0  0  0  0  0  0  0  0  0
   20.7424  -20.0941   -9.8200 O   0  0  0  0  0  0  0  0  0  0  0  0
  2  1  1  6
  2 10  1  0
  3  2  1  0
  3  4  1  0
  4  9  1  0
  4  5  2  0
  5  6  1  0
  6  7  2  0
  8  7  1  0
  9  8  2  0
 10 11  2  0
 12 10  1  0
 12 13  1  0
 13 14  1  1
 15 14  1  0
 16 15  2  0
 17 18  1  0
 17 16  1  0
 18 23  2  0
 19 20  2  0
 19 18  1  0
 20 21  1  0
 21 22  2  0
 23 22  1  0
 23 15  1  0
 24 13  1  0
 24 25  2  0
 26 27  1  0
 28 27  1  1
 28 30  1  0
 29 28  1  0
 29 24  1  0
 30 32  2  0
 30 31  1  0
M  END
$$$$
