FWS.pdb
     RDKit          3D

 32 34  0  0  1  0  0  0  0  0999 V2000
   24.8622  -20.4171   -7.6636 N   0  0  0  0  0  0  0  0  0  0  0  0
   26.0520  -19.9701   -8.3525 C   0  0  1  0  0  0  0  0  0  0  0  0
   27.2537  -20.8611   -8.0660 C   0  0  0  0  0  0  0  0  0  0  0  0
   27.9243  -20.3542   -6.8664 C   0  0  0  0  0  0  0  0  0  0  0  0
   27.8500  -19.0220   -6.5030 C   0  0  0  0  0  0  0  0  0  0  0  0
   28.4771  -18.5314   -5.3771 C   0  0  0  0  0  0  0  0  0  0  0  0
   29.1985  -19.4014   -4.5944 C   0  0  0  0  0  0  0  0  0  0  0  0
   29.2899  -20.7493   -4.9375 C   0  0  0  0  0  0  0  0  0  0  0  0
   28.6465  -21.2108   -6.0776 C   0  0  0  0  0  0  0  0  0  0  0  0
   25.8122  -20.0674   -9.8160 C   0  0  0  0  0  0  0  0  0  0  0  0
   24.7041  -20.4981  -10.2495 O   0  0  0  0  0  0  0  0  0  0  0  0
   26.8061  -19.6849  -10.7133 N   0  0  0  0  0  0  0  0  0  0  0  0
   26.4931  -19.5404  -12.1508 C   0  0  1  0  0  0  0  0  0  0  0  0
   27.4533  -18.5680  -12.7214 C   0  0  0  0  0  0  0  0  0  0  0  0
   27.0961  -18.0378  -14.0341 C   0  0  0  0  0  0  0  0  0  0  0  0
   26.0551  -17.1371  -14.2905 C   0  0  0  0  0  0  0  0  0  0  0  0
   26.0750  -16.9210  -15.6018 N   0  0  0  0  0  0  0  0  0  0  0  0
   27.0540  -17.6186  -16.2011 C   0  0  0  0  0  0  0  0  0  0  0  0
   27.4912  -17.7155  -17.5180 C   0  0  0  0  0  0  0  0  0  0  0  0
   28.5660  -18.5162  -17.8284 C   0  0  0  0  0  0  0  0  0  0  0  0
   29.2463  -19.2457  -16.8698 C   0  0  0  0  0  0  0  0  0  0  0  0
   28.8090  -19.1470  -15.5664 C   0  0  0  0  0  0  0  0  0  0  0  0
   27.7302  -18.3445  -15.2449 C   0  0  0  0  0  0  0  0  0  0  0  0
   26.4429  -20.8872  -12.7145 C   0  0  0  0  0  0  0  0  0  0  0  0
   27.3087  -21.7754  -12.3754 O   0  0  0  0  0  0  0  0  0  0  0  0
   23.2429  -22.6074  -14.2242 O   0  0  0  0  0  0  0  0  0  0  0  0
   24.2897  -23.4856  -13.9578 C   0  0  0  0  0  0  0  0  0  0  0  0
   25.5822  -22.6954  -14.2334 C   0  0  2  0  0  0  0  0  0  0  0  0
   25.4774  -21.3713  -13.6522 N   0  0  0  0  0  0  0  0  0  0  0  0
   25.7865  -22.7145  -15.6829 C   0  0  0  0  0  0  0  0  0  0  0  0
   25.7228  -21.5515  -16.4142 O   0  0  0  0  0  0  0  0  0  0  0  0
   26.0188  -23.7895  -16.2700 O   0  0  0  0  0  0  0  0  0  0  0  0
  2  1  1  1
  2 10  1  0
  3  2  1  0
  3  4  1  0
  4  9  1  0
  4  5  2  0
  5  6  1  0
  6  7  2  0
  8  7  1  0
  9  8  2  0
 10 11  2  0
 12 10  1  0
 12 13  1  0
 13 14  1  6
 15 14  1  0
 16 15  2  0
 17 18  1  0
 17 16  1  0
 18 23  2  0
 19 20  2  0
 19 18  1  0
 20 21  1  0
 21 22  2  0
 23 22  1  0
 23 15  1  0
 24 13  1  0
 24 25  2  0
 26 27  1  0
 28 27  1  6
 28 30  1  0
 29 28  1  0
 29 24  1  0
 30 32  2  0
 30 31  1  0
M  END
$$$$
