FWS.pdb
     RDKit          3D

 32 34  0  0  1  0  0  0  0  0999 V2000
   28.4128  -20.4082  -16.7008 N   0  0  0  0  0  0  0  0  0  0  0  0
   28.2467  -19.9061  -15.3553 C   0  0  1  0  0  0  0  0  0  0  0  0
   27.6201  -18.5181  -15.3306 C   0  0  0  0  0  0  0  0  0  0  0  0
   28.4765  -17.6149  -16.1031 C   0  0  0  0  0  0  0  0  0  0  0  0
   27.9452  -16.6170  -16.8994 C   0  0  0  0  0  0  0  0  0  0  0  0
   28.7396  -15.7608  -17.6324 C   0  0  0  0  0  0  0  0  0  0  0  0
   30.1046  -15.9099  -17.5645 C   0  0  0  0  0  0  0  0  0  0  0  0
   30.6666  -16.9075  -16.7696 C   0  0  0  0  0  0  0  0  0  0  0  0
   29.8385  -17.7529  -16.0442 C   0  0  0  0  0  0  0  0  0  0  0  0
   27.2973  -20.7949  -14.6359 C   0  0  0  0  0  0  0  0  0  0  0  0
   26.5520  -21.5845  -15.2856 O   0  0  0  0  0  0  0  0  0  0  0  0
   27.2258  -20.7604  -13.2456 N   0  0  0  0  0  0  0  0  0  0  0  0
   26.3080  -21.6694  -12.5266 C   0  0  1  0  0  0  0  0  0  0  0  0
   26.9607  -22.0465  -11.2520 C   0  0  0  0  0  0  0  0  0  0  0  0
   26.6377  -21.1942  -10.1113 C   0  0  0  0  0  0  0  0  0  0  0  0
   25.4556  -20.4603   -9.9547 C   0  0  0  0  0  0  0  0  0  0  0  0
   25.5708  -19.8279   -8.7914 N   0  0  0  0  0  0  0  0  0  0  0  0
   26.7413  -20.1054   -8.1937 C   0  0  0  0  0  0  0  0  0  0  0  0
   27.3130  -19.7216   -6.9852 C   0  0  0  0  0  0  0  0  0  0  0  0
   28.5502  -20.2040   -6.6259 C   0  0  0  0  0  0  0  0  0  0  0  0
   29.2677  -21.0720   -7.4295 C   0  0  0  0  0  0  0  0  0  0  0  0
   28.6975  -21.4490   -8.6264 C   0  0  0  0  0  0  0  0  0  0  0  0
   27.4544  -20.9698   -8.9956 C   0  0  0  0  0  0  0  0  0  0  0  0
   25.0054  -21.0100  -12.4774 C   0  0  0  0  0  0  0  0  0  0  0  0
   24.9039  -19.7789  -12.1198 O   0  0  0  0  0  0  0  0  0  0  0  0
   22.1068  -21.8812  -14.7929 O   0  0  0  0  0  0  0  0  0  0  0  0
   21.9227  -20.6667  -14.1379 C   0  0  0  0  0  0  0  0  0  0  0  0
   22.5091  -20.8566  -12.7268 C   0  0  2  0  0  0  0  0  0  0  0  0
   23.7481  -21.6049  -12.8104 N   0  0  0  0  0  0  0  0  0  0  0  0
   21.4647  -21.4880  -11.9182 C   0  0  0  0  0  0  0  0  0  0  0  0
   20.2409  -20.8813  -11.7579 O   0  0  0  0  0  0  0  0  0  0  0  0
   21.6766  -22.5843  -11.3638 O   0  0  0  0  0  0  0  0  0  0  0  0
  2  1  1  6
  2 10  1  0
  3  2  1  0
  3  4  1  0
  4  9  1  0
  4  5  2  0
  5  6  1  0
  6  7  2  0
  8  7  1  0
  9  8  2  0
 10 11  2  0
 12 10  1  0
 12 13  1  0
 13 14  1  1
 15 14  1  0
 16 15  2  0
 17 18  1  0
 17 16  1  0
 18 23  2  0
 19 20  2  0
 19 18  1  0
 20 21  1  0
 21 22  2  0
 23 22  1  0
 23 15  1  0
 24 13  1  0
 24 25  2  0
 26 27  1  0
 28 27  1  6
 28 30  1  0
 29 28  1  0
 29 24  1  0
 30 32  2  0
 30 31  1  0
M  END
$$$$
