FWS.pdb
     RDKit          3D

 32 34  0  0  1  0  0  0  0  0999 V2000
   19.2999  -10.6219  -19.2095 N   0  0  0  0  0  0  0  0  0  0  0  0
   20.2945   -9.8221  -18.5304 C   0  0  1  0  0  0  0  0  0  0  0  0
   20.7916   -8.6674  -19.3904 C   0  0  0  0  0  0  0  0  0  0  0  0
   21.4635   -9.2273  -20.5655 C   0  0  0  0  0  0  0  0  0  0  0  0
   20.9305   -9.0984  -21.8349 C   0  0  0  0  0  0  0  0  0  0  0  0
   21.5518   -9.6214  -22.9493 C   0  0  0  0  0  0  0  0  0  0  0  0
   22.7406  -10.2921  -22.7854 C   0  0  0  0  0  0  0  0  0  0  0  0
   23.3002  -10.4366  -21.5171 C   0  0  0  0  0  0  0  0  0  0  0  0
   22.6490   -9.8980  -20.4159 C   0  0  0  0  0  0  0  0  0  0  0  0
   19.6629   -9.1997  -17.3378 C   0  0  0  0  0  0  0  0  0  0  0  0
   18.4022   -9.1478  -17.2427 O   0  0  0  0  0  0  0  0  0  0  0  0
   20.4569   -8.6722  -16.3226 N   0  0  0  0  0  0  0  0  0  0  0  0
   19.8312   -8.1077  -15.1081 C   0  0  1  0  0  0  0  0  0  0  0  0
   20.6757   -8.4881  -13.9526 C   0  0  0  0  0  0  0  0  0  0  0  0
   20.2199   -7.9901  -12.6579 C   0  0  0  0  0  0  0  0  0  0  0  0
   19.3786   -8.6767  -11.7738 C   0  0  0  0  0  0  0  0  0  0  0  0
   19.2141   -7.8725  -10.7286 N   0  0  0  0  0  0  0  0  0  0  0  0
   19.8901   -6.7218  -10.8814 C   0  0  0  0  0  0  0  0  0  0  0  0
   20.0544   -5.5956  -10.0818 C   0  0  0  0  0  0  0  0  0  0  0  0
   20.8502   -4.5584  -10.5102 C   0  0  0  0  0  0  0  0  0  0  0  0
   21.5084   -4.5847  -11.7269 C   0  0  0  0  0  0  0  0  0  0  0  0
   21.3420   -5.7024  -12.5160 C   0  0  0  0  0  0  0  0  0  0  0  0
   20.5447   -6.7499  -12.0935 C   0  0  0  0  0  0  0  0  0  0  0  0
   19.5984   -6.6890  -15.3675 C   0  0  0  0  0  0  0  0  0  0  0  0
   20.5232   -5.9517  -15.8720 O   0  0  0  0  0  0  0  0  0  0  0  0
   16.0159   -4.9768  -15.5206 O   0  0  0  0  0  0  0  0  0  0  0  0
   17.0213   -4.1699  -16.0460 C   0  0  0  0  0  0  0  0  0  0  0  0
   18.3021   -4.5377  -15.2744 C   0  0  2  0  0  0  0  0  0  0  0  0
   18.3826   -5.9771  -15.1211 N   0  0  0  0  0  0  0  0  0  0  0  0
   18.2663   -3.7881  -14.0174 C   0  0  0  0  0  0  0  0  0  0  0  0
   18.1866   -4.4458  -12.8122 O   0  0  0  0  0  0  0  0  0  0  0  0
   18.3056   -2.5420  -14.0282 O   0  0  0  0  0  0  0  0  0  0  0  0
  2  1  1  6
  2 10  1  0
  3  2  1  0
  3  4  1  0
  4  9  1  0
  4  5  2  0
  5  6  1  0
  6  7  2  0
  8  7  1  0
  9  8  2  0
 10 11  2  0
 12 10  1  0
 12 13  1  0
 13 14  1  1
 15 14  1  0
 16 15  2  0
 17 18  1  0
 17 16  1  0
 18 23  2  0
 19 20  2  0
 19 18  1  0
 20 21  1  0
 21 22  2  0
 23 22  1  0
 23 15  1  0
 24 13  1  0
 24 25  2  0
 26 27  1  0
 28 27  1  1
 28 30  1  0
 29 28  1  0
 29 24  1  0
 30 32  2  0
 30 31  1  0
M  END
$$$$
