FWS.pdb
     RDKit          3D

 32 34  0  0  1  0  0  0  0  0999 V2000
   23.1250  -18.9944  -19.8598 N   0  0  0  0  0  0  0  0  0  0  0  0
   22.2549  -18.4778  -18.8272 C   0  0  1  0  0  0  0  0  0  0  0  0
   20.8051  -18.3887  -19.2856 C   0  0  0  0  0  0  0  0  0  0  0  0
   20.6891  -17.2694  -20.2236 C   0  0  0  0  0  0  0  0  0  0  0  0
   20.5637  -17.4751  -21.5852 C   0  0  0  0  0  0  0  0  0  0  0  0
   20.4547  -16.4309  -22.4792 C   0  0  0  0  0  0  0  0  0  0  0  0
   20.4720  -15.1449  -21.9934 C   0  0  0  0  0  0  0  0  0  0  0  0
   20.5973  -14.9090  -20.6255 C   0  0  0  0  0  0  0  0  0  0  0  0
   20.7049  -15.9828  -19.7524 C   0  0  0  0  0  0  0  0  0  0  0  0
   22.2637  -19.4295  -17.6857 C   0  0  0  0  0  0  0  0  0  0  0  0
   22.4468  -20.6645  -17.8915 O   0  0  0  0  0  0  0  0  0  0  0  0
   22.0704  -18.9642  -16.3874 N   0  0  0  0  0  0  0  0  0  0  0  0
   22.1053  -19.9058  -15.2484 C   0  0  1  0  0  0  0  0  0  0  0  0
   22.7057  -19.1927  -14.0977 C   0  0  0  0  0  0  0  0  0  0  0  0
   22.9135  -20.0046  -12.9020 C   0  0  0  0  0  0  0  0  0  0  0  0
   23.9103  -20.9749  -12.7422 C   0  0  0  0  0  0  0  0  0  0  0  0
   23.7429  -21.4715  -11.5208 N   0  0  0  0  0  0  0  0  0  0  0  0
   22.7112  -20.8877  -10.8890 C   0  0  0  0  0  0  0  0  0  0  0  0
   22.1590  -21.0351   -9.6209 C   0  0  0  0  0  0  0  0  0  0  0  0
   21.0906  -20.2559   -9.2414 C   0  0  0  0  0  0  0  0  0  0  0  0
   20.5277  -19.3123  -10.0820 C   0  0  0  0  0  0  0  0  0  0  0  0
   21.0778  -19.1703  -11.3378 C   0  0  0  0  0  0  0  0  0  0  0  0
   22.1519  -19.9485  -11.7278 C   0  0  0  0  0  0  0  0  0  0  0  0
   20.7590  -20.4545  -15.1063 C   0  0  0  0  0  0  0  0  0  0  0  0
   19.7261  -19.6921  -15.1804 O   0  0  0  0  0  0  0  0  0  0  0  0
   19.9037  -24.4233  -14.4223 O   0  0  0  0  0  0  0  0  0  0  0  0
   18.9353  -23.7455  -15.1575 C   0  0  0  0  0  0  0  0  0  0  0  0
   19.0542  -22.2662  -14.7469 C   0  0  2  0  0  0  0  0  0  0  0  0
   20.4292  -21.8295  -14.8905 N   0  0  0  0  0  0  0  0  0  0  0  0
   18.5159  -22.1613  -13.3895 C   0  0  0  0  0  0  0  0  0  0  0  0
   17.1954  -22.4498  -13.1361 O   0  0  0  0  0  0  0  0  0  0  0  0
   19.2519  -21.8061  -12.4480 O   0  0  0  0  0  0  0  0  0  0  0  0
  2  1  1  6
  2 10  1  0
  3  2  1  0
  3  4  1  0
  4  9  1  0
  4  5  2  0
  5  6  1  0
  6  7  2  0
  8  7  1  0
  9  8  2  0
 10 11  2  0
 12 10  1  0
 12 13  1  0
 13 14  1  1
 15 14  1  0
 16 15  2  0
 17 18  1  0
 17 16  1  0
 18 23  2  0
 19 20  2  0
 19 18  1  0
 20 21  1  0
 21 22  2  0
 23 22  1  0
 23 15  1  0
 24 13  1  0
 24 25  2  0
 26 27  1  0
 28 27  1  1
 28 30  1  0
 29 28  1  0
 29 24  1  0
 30 32  2  0
 30 31  1  0
M  END
$$$$
