FWS.pdb
     RDKit          3D

 32 34  0  0  1  0  0  0  0  0999 V2000
   27.5052  -21.2192  -14.7869 N   0  0  0  0  0  0  0  0  0  0  0  0
   26.9521  -20.1261  -14.0193 C   0  0  1  0  0  0  0  0  0  0  0  0
   25.7520  -19.4878  -14.7065 C   0  0  0  0  0  0  0  0  0  0  0  0
   26.2402  -18.6911  -15.8347 C   0  0  0  0  0  0  0  0  0  0  0  0
   26.5285  -19.2678  -17.0580 C   0  0  0  0  0  0  0  0  0  0  0  0
   26.9897  -18.5299  -18.1277 C   0  0  0  0  0  0  0  0  0  0  0  0
   27.1663  -17.1763  -17.9656 C   0  0  0  0  0  0  0  0  0  0  0  0
   26.8833  -16.5692  -16.7433 C   0  0  0  0  0  0  0  0  0  0  0  0
   26.4205  -17.3409  -15.6863 C   0  0  0  0  0  0  0  0  0  0  0  0
   26.4445  -20.6660  -12.7310 C   0  0  0  0  0  0  0  0  0  0  0  0
   25.9027  -21.8088  -12.6922 O   0  0  0  0  0  0  0  0  0  0  0  0
   26.5642  -19.9155  -11.5640 N   0  0  0  0  0  0  0  0  0  0  0  0
   26.0855  -20.4628  -10.2770 C   0  0  1  0  0  0  0  0  0  0  0  0
   26.8414  -19.7892   -9.1963 C   0  0  0  0  0  0  0  0  0  0  0  0
   26.5245  -20.2363   -7.8430 C   0  0  0  0  0  0  0  0  0  0  0  0
   25.4984  -21.1255   -7.5007 C   0  0  0  0  0  0  0  0  0  0  0  0
   25.5557  -21.2567   -6.1793 N   0  0  0  0  0  0  0  0  0  0  0  0
   26.5448  -20.5155   -5.6532 C   0  0  0  0  0  0  0  0  0  0  0  0
   27.0168  -20.3312   -4.3579 C   0  0  0  0  0  0  0  0  0  0  0  0
   28.0928  -19.5051   -4.1292 C   0  0  0  0  0  0  0  0  0  0  0  0
   28.7407  -18.8341   -5.1510 C   0  0  0  0  0  0  0  0  0  0  0  0
   28.2690  -19.0194   -6.4328 C   0  0  0  0  0  0  0  0  0  0  0  0
   27.1886  -19.8481   -6.6723 C   0  0  0  0  0  0  0  0  0  0  0  0
   24.6285  -20.3563  -10.2830 C   0  0  0  0  0  0  0  0  0  0  0  0
   24.0521  -19.2232  -10.4760 O   0  0  0  0  0  0  0  0  0  0  0  0
   21.6669  -21.6819  -12.4123 O   0  0  0  0  0  0  0  0  0  0  0  0
   21.6671  -22.2741  -11.1524 C   0  0  0  0  0  0  0  0  0  0  0  0
   22.2734  -21.2299  -10.1968 C   0  0  2  0  0  0  0  0  0  0  0  0
   23.7054  -21.4331  -10.0978 N   0  0  0  0  0  0  0  0  0  0  0  0
   21.5482  -21.3468   -8.9304 C   0  0  0  0  0  0  0  0  0  0  0  0
   20.3371  -20.7188   -8.7568 O   0  0  0  0  0  0  0  0  0  0  0  0
   22.0248  -22.0174   -7.9937 O   0  0  0  0  0  0  0  0  0  0  0  0
  2  1  1  6
  2 10  1  0
  3  2  1  0
  3  4  1  0
  4  9  1  0
  4  5  2  0
  5  6  1  0
  6  7  2  0
  8  7  1  0
  9  8  2  0
 10 11  2  0
 12 10  1  0
 12 13  1  0
 13 14  1  1
 15 14  1  0
 16 15  2  0
 17 18  1  0
 17 16  1  0
 18 23  2  0
 19 20  2  0
 19 18  1  0
 20 21  1  0
 21 22  2  0
 23 22  1  0
 23 15  1  0
 24 13  1  0
 24 25  2  0
 26 27  1  0
 28 27  1  6
 28 30  1  0
 29 28  1  0
 29 24  1  0
 30 32  2  0
 30 31  1  0
M  END
$$$$
