FWS.pdb
     RDKit          3D

 32 34  0  0  1  0  0  0  0  0999 V2000
   27.6477  -21.5960  -15.1598 N   0  0  0  0  0  0  0  0  0  0  0  0
   27.8075  -20.5667  -14.1572 C   0  0  1  0  0  0  0  0  0  0  0  0
   27.1341  -19.2609  -14.5585 C   0  0  0  0  0  0  0  0  0  0  0  0
   27.9094  -18.6613  -15.6473 C   0  0  0  0  0  0  0  0  0  0  0  0
   29.1891  -18.1781  -15.4449 C   0  0  0  0  0  0  0  0  0  0  0  0
   29.9294  -17.6105  -16.4604 C   0  0  0  0  0  0  0  0  0  0  0  0
   29.3702  -17.5254  -17.7134 C   0  0  0  0  0  0  0  0  0  0  0  0
   28.0821  -18.0047  -17.9452 C   0  0  0  0  0  0  0  0  0  0  0  0
   27.3637  -18.5705  -16.9009 C   0  0  0  0  0  0  0  0  0  0  0  0
   27.1255  -21.0118  -12.9140 C   0  0  0  0  0  0  0  0  0  0  0  0
   26.1555  -21.8218  -12.9783 O   0  0  0  0  0  0  0  0  0  0  0  0
   27.5525  -20.5385  -11.6758 N   0  0  0  0  0  0  0  0  0  0  0  0
   26.8298  -20.9226  -10.4447 C   0  0  1  0  0  0  0  0  0  0  0  0
   27.6838  -20.5544   -9.2923 C   0  0  0  0  0  0  0  0  0  0  0  0
   27.0217  -20.5873   -7.9913 C   0  0  0  0  0  0  0  0  0  0  0  0
   25.7194  -21.0439   -7.7540 C   0  0  0  0  0  0  0  0  0  0  0  0
   25.5143  -20.8981   -6.4490 N   0  0  0  0  0  0  0  0  0  0  0  0
   26.5921  -20.3815   -5.8358 C   0  0  0  0  0  0  0  0  0  0  0  0
   26.8806  -20.0679   -4.5117 C   0  0  0  0  0  0  0  0  0  0  0  0
   28.1156  -19.5616   -4.1785 C   0  0  0  0  0  0  0  0  0  0  0  0
   29.1051  -19.3449   -5.1209 C   0  0  0  0  0  0  0  0  0  0  0  0
   28.8144  -19.6566   -6.4316 C   0  0  0  0  0  0  0  0  0  0  0  0
   27.5762  -20.1663   -6.7759 C   0  0  0  0  0  0  0  0  0  0  0  0
   25.4915  -20.3443  -10.5369 C   0  0  0  0  0  0  0  0  0  0  0  0
   25.3284  -19.1109  -10.8617 O   0  0  0  0  0  0  0  0  0  0  0  0
   21.4580  -20.7223  -12.5748 O   0  0  0  0  0  0  0  0  0  0  0  0
   22.7126  -21.1867  -12.1898 C   0  0  0  0  0  0  0  0  0  0  0  0
   23.0020  -20.5345  -10.8252 C   0  0  2  0  0  0  0  0  0  0  0  0
   24.2596  -21.0327  -10.3037 N   0  0  0  0  0  0  0  0  0  0  0  0
   21.8384  -20.7990   -9.9769 C   0  0  0  0  0  0  0  0  0  0  0  0
   20.6214  -20.2241  -10.2591 O   0  0  0  0  0  0  0  0  0  0  0  0
   21.9412  -21.5487   -8.9862 O   0  0  0  0  0  0  0  0  0  0  0  0
  2  1  1  6
  2 10  1  0
  3  2  1  0
  3  4  1  0
  4  9  1  0
  4  5  2  0
  5  6  1  0
  6  7  2  0
  8  7  1  0
  9  8  2  0
 10 11  2  0
 12 10  1  0
 12 13  1  0
 13 14  1  1
 15 14  1  0
 16 15  2  0
 17 18  1  0
 17 16  1  0
 18 23  2  0
 19 20  2  0
 19 18  1  0
 20 21  1  0
 21 22  2  0
 23 22  1  0
 23 15  1  0
 24 13  1  0
 24 25  2  0
 26 27  1  0
 28 27  1  6
 28 30  1  0
 29 28  1  0
 29 24  1  0
 30 32  2  0
 30 31  1  0
M  END
$$$$
