FWS.pdb
     RDKit          3D

 32 34  0  0  1  0  0  0  0  0999 V2000
   26.9016  -21.7753   -8.5489 N   0  0  0  0  0  0  0  0  0  0  0  0
   26.2438  -20.4954   -8.4094 C   0  0  1  0  0  0  0  0  0  0  0  0
   27.2237  -19.3753   -8.0858 C   0  0  0  0  0  0  0  0  0  0  0  0
   27.7786  -19.6229   -6.7528 C   0  0  0  0  0  0  0  0  0  0  0  0
   27.0587  -19.3455   -5.6053 C   0  0  0  0  0  0  0  0  0  0  0  0
   27.5692  -19.5726   -4.3446 C   0  0  0  0  0  0  0  0  0  0  0  0
   28.8369  -20.0924   -4.2324 C   0  0  0  0  0  0  0  0  0  0  0  0
   29.5846  -20.3813   -5.3727 C   0  0  0  0  0  0  0  0  0  0  0  0
   29.0410  -20.1407   -6.6271 C   0  0  0  0  0  0  0  0  0  0  0  0
   25.6317  -20.1369   -9.7154 C   0  0  0  0  0  0  0  0  0  0  0  0
   25.1991  -18.9642   -9.9121 O   0  0  0  0  0  0  0  0  0  0  0  0
   25.5331  -21.0906  -10.7254 N   0  0  0  0  0  0  0  0  0  0  0  0
   24.9913  -20.7170  -12.0491 C   0  0  1  0  0  0  0  0  0  0  0  0
   25.8181  -21.3907  -13.0765 C   0  0  0  0  0  0  0  0  0  0  0  0
   27.0729  -20.7197  -13.4039 C   0  0  0  0  0  0  0  0  0  0  0  0
   28.3462  -21.1322  -12.9925 C   0  0  0  0  0  0  0  0  0  0  0  0
   29.1979  -20.2483  -13.5021 N   0  0  0  0  0  0  0  0  0  0  0  0
   28.5602  -19.3011  -14.2096 C   0  0  0  0  0  0  0  0  0  0  0  0
   28.9923  -18.1978  -14.9380 C   0  0  0  0  0  0  0  0  0  0  0  0
   28.0782  -17.4061  -15.5939 C   0  0  0  0  0  0  0  0  0  0  0  0
   26.7190  -17.6625  -15.5609 C   0  0  0  0  0  0  0  0  0  0  0  0
   26.2956  -18.7566  -14.8374 C   0  0  0  0  0  0  0  0  0  0  0  0
   27.2069  -19.5582  -14.1754 C   0  0  0  0  0  0  0  0  0  0  0  0
   23.5567  -20.9901  -12.0161 C   0  0  0  0  0  0  0  0  0  0  0  0
   23.1046  -22.0727  -11.4898 O   0  0  0  0  0  0  0  0  0  0  0  0
   18.9590  -19.7487  -12.0619 O   0  0  0  0  0  0  0  0  0  0  0  0
   20.2553  -19.2762  -12.2469 C   0  0  0  0  0  0  0  0  0  0  0  0
   21.1295  -20.5236  -12.4727 C   0  0  2  0  0  0  0  0  0  0  0  0
   22.5260  -20.1376  -12.5230 N   0  0  0  0  0  0  0  0  0  0  0  0
   20.6291  -21.1747  -13.6847 C   0  0  0  0  0  0  0  0  0  0  0  0
   19.8413  -22.2988  -13.6011 O   0  0  0  0  0  0  0  0  0  0  0  0
   20.9154  -20.7156  -14.8079 O   0  0  0  0  0  0  0  0  0  0  0  0
  2  1  1  6
  2 10  1  0
  3  2  1  0
  3  4  1  0
  4  9  1  0
  4  5  2  0
  5  6  1  0
  6  7  2  0
  8  7  1  0
  9  8  2  0
 10 11  2  0
 12 10  1  0
 12 13  1  0
 13 14  1  6
 15 14  1  0
 16 15  2  0
 17 18  1  0
 17 16  1  0
 18 23  2  0
 19 20  2  0
 19 18  1  0
 20 21  1  0
 21 22  2  0
 23 22  1  0
 23 15  1  0
 24 13  1  0
 24 25  2  0
 26 27  1  0
 28 27  1  6
 28 30  1  0
 29 28  1  0
 29 24  1  0
 30 32  2  0
 30 31  1  0
M  END
$$$$
