FWS.pdb
     RDKit          3D

 32 34  0  0  1  0  0  0  0  0999 V2000
   21.7204  -12.7208  -19.5611 N   0  0  0  0  0  0  0  0  0  0  0  0
   21.0252  -11.4606  -19.4246 C   0  0  1  0  0  0  0  0  0  0  0  0
   19.6522  -11.6252  -18.7862 C   0  0  0  0  0  0  0  0  0  0  0  0
   18.7884  -12.3338  -19.7336 C   0  0  0  0  0  0  0  0  0  0  0  0
   18.6195  -13.7049  -19.6745 C   0  0  0  0  0  0  0  0  0  0  0  0
   17.8104  -14.3845  -20.5606 C   0  0  0  0  0  0  0  0  0  0  0  0
   17.1527  -13.6685  -21.5325 C   0  0  0  0  0  0  0  0  0  0  0  0
   17.3050  -12.2855  -21.6147 C   0  0  0  0  0  0  0  0  0  0  0  0
   18.1271  -11.6319  -20.7071 C   0  0  0  0  0  0  0  0  0  0  0  0
   21.8024  -10.5928  -18.5017 C   0  0  0  0  0  0  0  0  0  0  0  0
   22.4862  -11.1095  -17.5708 O   0  0  0  0  0  0  0  0  0  0  0  0
   21.7798   -9.2093  -18.6594 N   0  0  0  0  0  0  0  0  0  0  0  0
   22.5145   -8.3422  -17.7141 C   0  0  1  0  0  0  0  0  0  0  0  0
   23.3206   -7.3917  -18.5140 C   0  0  0  0  0  0  0  0  0  0  0  0
   23.9645   -6.3261  -17.7513 C   0  0  0  0  0  0  0  0  0  0  0  0
   24.3398   -6.4039  -16.4045 C   0  0  0  0  0  0  0  0  0  0  0  0
   24.8824   -5.2271  -16.1090 N   0  0  0  0  0  0  0  0  0  0  0  0
   24.8809   -4.4036  -17.1702 C   0  0  0  0  0  0  0  0  0  0  0  0
   25.3430   -3.1080  -17.3762 C   0  0  0  0  0  0  0  0  0  0  0  0
   25.2191   -2.5226  -18.6149 C   0  0  0  0  0  0  0  0  0  0  0  0
   24.6427   -3.1779  -19.6885 C   0  0  0  0  0  0  0  0  0  0  0  0
   24.1857   -4.4613  -19.4794 C   0  0  0  0  0  0  0  0  0  0  0  0
   24.3064   -5.0579  -18.2381 C   0  0  0  0  0  0  0  0  0  0  0  0
   21.5331   -7.8080  -16.7731 C   0  0  0  0  0  0  0  0  0  0  0  0
   20.4291   -7.2985  -17.1918 O   0  0  0  0  0  0  0  0  0  0  0  0
   19.5367   -7.3849  -12.4459 O   0  0  0  0  0  0  0  0  0  0  0  0
   20.6471   -7.8805  -13.1235 C   0  0  0  0  0  0  0  0  0  0  0  0
   20.6340   -7.2017  -14.5056 C   0  0  2  0  0  0  0  0  0  0  0  0
   21.6558   -7.7916  -15.3482 N   0  0  0  0  0  0  0  0  0  0  0  0
   20.7871   -5.7649  -14.2705 C   0  0  0  0  0  0  0  0  0  0  0  0
   21.9272   -5.2694  -13.6822 O   0  0  0  0  0  0  0  0  0  0  0  0
   19.8811   -4.9747  -14.6007 O   0  0  0  0  0  0  0  0  0  0  0  0
  2  1  1  1
  2 10  1  0
  3  2  1  0
  3  4  1  0
  4  9  1  0
  4  5  2  0
  5  6  1  0
  6  7  2  0
  8  7  1  0
  9  8  2  0
 10 11  2  0
 12 10  1  0
 12 13  1  0
 13 14  1  6
 15 14  1  0
 16 15  2  0
 17 18  1  0
 17 16  1  0
 18 23  2  0
 19 20  2  0
 19 18  1  0
 20 21  1  0
 21 22  2  0
 23 22  1  0
 23 15  1  0
 24 13  1  0
 24 25  2  0
 26 27  1  0
 28 27  1  1
 28 30  1  0
 29 28  1  0
 29 24  1  0
 30 32  2  0
 30 31  1  0
M  END
$$$$
