FWS.pdb
     RDKit          3D

 32 34  0  0  1  0  0  0  0  0999 V2000
   25.6811  -19.0132   -7.7397 N   0  0  0  0  0  0  0  0  0  0  0  0
   26.5967  -19.8642   -8.4660 C   0  0  1  0  0  0  0  0  0  0  0  0
   27.1615  -20.9794   -7.5958 C   0  0  0  0  0  0  0  0  0  0  0  0
   27.9732  -20.3699   -6.5396 C   0  0  0  0  0  0  0  0  0  0  0  0
   29.3024  -20.0471   -6.7423 C   0  0  0  0  0  0  0  0  0  0  0  0
   30.0780  -19.4741   -5.7566 C   0  0  0  0  0  0  0  0  0  0  0  0
   29.5041  -19.2180   -4.5339 C   0  0  0  0  0  0  0  0  0  0  0  0
   28.1663  -19.5334   -4.3025 C   0  0  0  0  0  0  0  0  0  0  0  0
   27.4132  -20.1095   -5.3164 C   0  0  0  0  0  0  0  0  0  0  0  0
   25.8462  -20.5389   -9.5570 C   0  0  0  0  0  0  0  0  0  0  0  0
   24.6377  -20.8714   -9.3835 O   0  0  0  0  0  0  0  0  0  0  0  0
   26.4712  -20.8067  -10.7724 N   0  0  0  0  0  0  0  0  0  0  0  0
   25.9671  -20.1906  -12.0180 C   0  0  1  0  0  0  0  0  0  0  0  0
   27.0482  -19.3384  -12.5640 C   0  0  0  0  0  0  0  0  0  0  0  0
   26.7293  -18.6526  -13.8130 C   0  0  0  0  0  0  0  0  0  0  0  0
   25.5620  -17.9207  -14.0627 C   0  0  0  0  0  0  0  0  0  0  0  0
   25.6730  -17.4718  -15.3088 N   0  0  0  0  0  0  0  0  0  0  0  0
   26.8273  -17.8641  -15.8726 C   0  0  0  0  0  0  0  0  0  0  0  0
   27.4079  -17.6426  -17.1171 C   0  0  0  0  0  0  0  0  0  0  0  0
   28.6464  -18.1696  -17.4016 C   0  0  0  0  0  0  0  0  0  0  0  0
   29.3561  -18.9268  -16.4867 C   0  0  0  0  0  0  0  0  0  0  0  0
   28.7766  -19.1441  -15.2552 C   0  0  0  0  0  0  0  0  0  0  0  0
   27.5326  -18.6181  -14.9601 C   0  0  0  0  0  0  0  0  0  0  0  0
   25.4425  -21.2725  -12.8477 C   0  0  0  0  0  0  0  0  0  0  0  0
   26.0923  -22.3741  -12.9812 O   0  0  0  0  0  0  0  0  0  0  0  0
   21.7346  -22.1759  -13.2061 O   0  0  0  0  0  0  0  0  0  0  0  0
   22.2350  -22.3674  -14.4910 C   0  0  0  0  0  0  0  0  0  0  0  0
   23.7676  -22.3994  -14.3450 C   0  0  2  0  0  0  0  0  0  0  0  0
   24.2074  -21.2566  -13.5688 N   0  0  0  0  0  0  0  0  0  0  0  0
   24.3182  -22.4691  -15.6998 C   0  0  0  0  0  0  0  0  0  0  0  0
   24.0299  -23.5359  -16.5184 O   0  0  0  0  0  0  0  0  0  0  0  0
   25.0579  -21.5598  -16.1244 O   0  0  0  0  0  0  0  0  0  0  0  0
  2  1  1  1
  2 10  1  0
  3  2  1  0
  3  4  1  0
  4  9  1  0
  4  5  2  0
  5  6  1  0
  6  7  2  0
  8  7  1  0
  9  8  2  0
 10 11  2  0
 12 10  1  0
 12 13  1  0
 13 14  1  6
 15 14  1  0
 16 15  2  0
 17 18  1  0
 17 16  1  0
 18 23  2  0
 19 20  2  0
 19 18  1  0
 20 21  1  0
 21 22  2  0
 23 22  1  0
 23 15  1  0
 24 13  1  0
 24 25  2  0
 26 27  1  0
 28 27  1  6
 28 30  1  0
 29 28  1  0
 29 24  1  0
 30 32  2  0
 30 31  1  0
M  END
$$$$
