RTT.pdb
     RDKit          3D

 26 25  0  0  1  0  0  0  0  0999 V2000
   29.3069  -33.0376  -14.7525 N   0  0  0  0  0  0  0  0  0  0  0  0
   29.3245  -33.8688  -15.9452 C   0  0  0  0  0  0  0  0  0  0  0  0
   28.3187  -34.5970  -16.2268 N   0  0  0  0  0  0  0  0  0  0  0  0
   30.4431  -33.8829  -16.7994 N   0  0  0  0  0  0  0  0  0  0  0  0
   31.5190  -32.9842  -16.7668 C   0  0  0  0  0  0  0  0  0  0  0  0
   31.2838  -31.5235  -16.7864 C   0  0  0  0  0  0  0  0  0  0  0  0
   32.3204  -30.7531  -17.5798 C   0  0  0  0  0  0  0  0  0  0  0  0
   32.0162  -30.9326  -19.0656 C   0  0  2  0  0  0  0  0  0  0  0  0
   33.0231  -30.3075  -19.8735 N   0  0  0  0  0  0  0  0  0  0  0  0
   30.6482  -30.4942  -19.4095 C   0  0  0  0  0  0  0  0  0  0  0  0
   30.4763  -29.2733  -19.7313 O   0  0  0  0  0  0  0  0  0  0  0  0
   28.2465  -35.1896  -17.0400 C   0  0  0  0  0  0  0  0  0  0  0  0
   28.4771  -31.5398  -22.1782 C   0  0  2  0  0  0  0  0  0  0  0  0
   27.7278  -31.7362  -20.9020 O   0  0  0  0  0  0  0  0  0  0  0  0
   28.0363  -33.0553  -20.4655 C   0  0  2  0  0  0  0  0  0  0  0  0
   28.1605  -30.8462  -19.7588 N   0  0  0  0  0  0  0  0  0  0  0  0
   29.5125  -31.3389  -19.4064 C   0  0  0  0  0  0  0  0  0  0  0  0
   27.2767  -30.9900  -18.5523 O   0  0  0  0  0  0  0  0  0  0  0  0
   27.6257  -31.8110  -17.6874 C   0  0  0  0  0  0  0  0  0  0  0  0
   23.2835  -29.3145  -18.8009 C   0  0  2  0  0  0  0  0  0  0  0  0
   24.1308  -29.1233  -17.5522 O   0  0  0  0  0  0  0  0  0  0  0  0
   23.2189  -29.1448  -16.4752 C   0  0  1  0  0  0  0  0  0  0  0  0
   25.1111  -30.2548  -17.3981 N   0  0  0  0  0  0  0  0  0  0  0  0
   26.1154  -30.2321  -18.4106 C   0  0  0  0  0  0  0  0  0  0  0  0
   24.4971  -31.5384  -17.0607 O   0  0  0  0  0  0  0  0  0  0  0  0
   24.0061  -31.8417  -15.8229 O   0  0  0  0  0  0  0  0  0  0  0  0
  1  2  1  0
  2  3  2  0
  4  2  1  0
  4  5  1  0
  5  6  1  0
  7  6  1  0
  8  7  1  0
  8  9  1  6
 10  8  1  0
 11 10  2  0
 13 12  1  6
 13 15  1  0
 14 13  1  0
 15 16  1  1
 16 10  1  0
 17 23  1  0
 17 15  1  0
 18 17  2  0
 20 19  1  6
 20 22  1  0
 21 20  1  0
 22 24  1  0
 22 23  1  6
 24 25  1  0
 26 24  2  0
M  END
$$$$
