RTT.pdb
     RDKit          3D

 26 25  0  0  1  0  0  0  0  0999 V2000
   21.1009  -22.1570   -6.8770 N   0  0  0  0  0  0  0  0  0  0  0  0
   20.8755  -21.9718   -8.3014 C   0  0  0  0  0  0  0  0  0  0  0  0
   19.9644  -22.6367   -8.8920 N   0  0  0  0  0  0  0  0  0  0  0  0
   21.6540  -21.0640   -9.0438 N   0  0  0  0  0  0  0  0  0  0  0  0
   22.9075  -21.3251   -9.6152 C   0  0  0  0  0  0  0  0  0  0  0  0
   24.1494  -21.1238   -8.8362 C   0  0  0  0  0  0  0  0  0  0  0  0
   25.1739  -20.2577   -9.5416 C   0  0  0  0  0  0  0  0  0  0  0  0
   25.6069  -20.9734  -10.8193 C   0  0  2  0  0  0  0  0  0  0  0  0
   26.4239  -22.1127  -10.5162 N   0  0  0  0  0  0  0  0  0  0  0  0
   26.2398  -20.0521  -11.7851 C   0  0  0  0  0  0  0  0  0  0  0  0
   27.2092  -19.3332  -11.3763 O   0  0  0  0  0  0  0  0  0  0  0  0
   19.7466  -22.5680   -9.8747 C   0  0  0  0  0  0  0  0  0  0  0  0
   28.1654  -20.5062  -14.6619 C   0  0  2  0  0  0  0  0  0  0  0  0
   27.0893  -19.5757  -15.1144 O   0  0  0  0  0  0  0  0  0  0  0  0
   26.0876  -20.3942  -15.7081 C   0  0  2  0  0  0  0  0  0  0  0  0
   26.3705  -18.8371  -14.0080 N   0  0  0  0  0  0  0  0  0  0  0  0
   25.8427  -19.9127  -13.1364 C   0  0  0  0  0  0  0  0  0  0  0  0
   25.2101  -18.0293  -14.5158 O   0  0  0  0  0  0  0  0  0  0  0  0
   24.0703  -18.4736  -14.2978 C   0  0  0  0  0  0  0  0  0  0  0  0
   26.1330  -14.9207  -17.3680 C   0  0  2  0  0  0  0  0  0  0  0  0
   25.1068  -14.6713  -16.2733 O   0  0  0  0  0  0  0  0  0  0  0  0
   24.1274  -13.8425  -16.8612 C   0  0  1  0  0  0  0  0  0  0  0  0
   24.4703  -15.9639  -15.8385 N   0  0  0  0  0  0  0  0  0  0  0  0
   25.4060  -16.8313  -15.2010 C   0  0  0  0  0  0  0  0  0  0  0  0
   23.5502  -16.5388  -16.8190 O   0  0  0  0  0  0  0  0  0  0  0  0
   22.2650  -16.1114  -16.9940 O   0  0  0  0  0  0  0  0  0  0  0  0
  1  2  1  0
  2  3  2  0
  4  2  1  0
  4  5  1  0
  5  6  1  0
  7  6  1  0
  8  7  1  0
  8  9  1  1
 10  8  1  0
 11 10  2  0
 13 12  1  6
 13 15  1  0
 14 13  1  0
 15 16  1  6
 16 10  1  0
 17 23  1  0
 17 15  1  0
 18 17  2  0
 20 19  1  1
 20 22  1  0
 21 20  1  0
 22 24  1  0
 22 23  1  1
 24 25  1  0
 26 24  2  0
M  END
$$$$
