RTT.pdb
     RDKit          3D

 26 25  0  0  1  0  0  0  0  0999 V2000
   16.1392  -11.7038  -17.8694 N   0  0  0  0  0  0  0  0  0  0  0  0
   15.1821  -11.6936  -16.7750 C   0  0  0  0  0  0  0  0  0  0  0  0
   13.9394  -11.5631  -17.0193 N   0  0  0  0  0  0  0  0  0  0  0  0
   15.6096  -11.8254  -15.4404 N   0  0  0  0  0  0  0  0  0  0  0  0
   16.9393  -11.8325  -14.9956 C   0  0  0  0  0  0  0  0  0  0  0  0
   17.8190  -10.6652  -15.2258 C   0  0  0  0  0  0  0  0  0  0  0  0
   19.2049  -10.8242  -14.6330 C   0  0  0  0  0  0  0  0  0  0  0  0
   20.0160   -9.5752  -14.9712 C   0  0  2  0  0  0  0  0  0  0  0  0
   21.3094   -9.9273  -15.4816 N   0  0  0  0  0  0  0  0  0  0  0  0
   20.0825   -8.6317  -13.8366 C   0  0  0  0  0  0  0  0  0  0  0  0
   20.8136   -8.9460  -12.8414 O   0  0  0  0  0  0  0  0  0  0  0  0
   13.2143  -11.5380  -16.3183 C   0  0  0  0  0  0  0  0  0  0  0  0
   21.6878   -5.6688  -13.5328 C   0  0  2  0  0  0  0  0  0  0  0  0
   20.3003   -5.3292  -13.0989 O   0  0  0  0  0  0  0  0  0  0  0  0
   19.6230   -4.8807  -14.2676 C   0  0  2  0  0  0  0  0  0  0  0  0
   19.4764   -6.4975  -12.6066 N   0  0  0  0  0  0  0  0  0  0  0  0
   19.3883   -7.3996  -13.7786 C   0  0  0  0  0  0  0  0  0  0  0  0
   18.0829   -6.0941  -12.2160 O   0  0  0  0  0  0  0  0  0  0  0  0
   17.2262   -6.0680  -13.1156 C   0  0  0  0  0  0  0  0  0  0  0  0
   16.6145   -7.3538   -8.7307 C   0  0  2  0  0  0  0  0  0  0  0  0
   16.4488   -5.8472   -8.8589 O   0  0  0  0  0  0  0  0  0  0  0  0
   17.5407   -5.2904   -8.1591 C   0  0  2  0  0  0  0  0  0  0  0  0
   16.5155   -5.4272  -10.3026 N   0  0  0  0  0  0  0  0  0  0  0  0
   17.7663   -5.7647  -10.8991 C   0  0  0  0  0  0  0  0  0  0  0  0
   15.9572   -4.1020  -10.5680 O   0  0  0  0  0  0  0  0  0  0  0  0
   14.7080   -3.7134  -10.1760 O   0  0  0  0  0  0  0  0  0  0  0  0
  1  2  1  0
  2  3  2  0
  4  2  1  0
  4  5  1  0
  5  6  1  0
  7  6  1  0
  8  7  1  0
  8  9  1  1
 10  8  1  0
 11 10  2  0
 13 12  1  1
 13 15  1  0
 14 13  1  0
 15 16  1  1
 16 10  1  0
 17 23  1  0
 17 15  1  0
 18 17  2  0
 20 19  1  1
 20 22  1  0
 21 20  1  0
 22 24  1  0
 22 23  1  6
 24 25  1  0
 26 24  2  0
M  END
$$$$
