RTT.pdb
     RDKit          3D

 26 25  0  0  1  0  0  0  0  0999 V2000
   16.3853  -19.2688  -15.3340 N   0  0  0  0  0  0  0  0  0  0  0  0
   15.5215  -18.2314  -14.7941 C   0  0  0  0  0  0  0  0  0  0  0  0
   14.4727  -18.5513  -14.1469 N   0  0  0  0  0  0  0  0  0  0  0  0
   15.8268  -16.8697  -14.9772 N   0  0  0  0  0  0  0  0  0  0  0  0
   15.7229  -16.1538  -16.1784 C   0  0  0  0  0  0  0  0  0  0  0  0
   16.0543  -14.7127  -16.2299 C   0  0  0  0  0  0  0  0  0  0  0  0
   17.5274  -14.4371  -16.4567 C   0  0  0  0  0  0  0  0  0  0  0  0
   17.7368  -14.1473  -17.9415 C   0  0  2  0  0  0  0  0  0  0  0  0
   18.2037  -15.3157  -18.6302 N   0  0  0  0  0  0  0  0  0  0  0  0
   18.5978  -12.9673  -18.1613 C   0  0  0  0  0  0  0  0  0  0  0  0
   19.3243  -12.9456  -19.2080 O   0  0  0  0  0  0  0  0  0  0  0  0
   13.8404  -17.8950  -13.7143 C   0  0  0  0  0  0  0  0  0  0  0  0
   18.9399  -11.0636  -20.0288 C   0  0  2  0  0  0  0  0  0  0  0  0
   18.9223  -10.1215  -18.8708 O   0  0  0  0  0  0  0  0  0  0  0  0
   17.5495   -9.8934  -18.5721 C   0  0  2  0  0  0  0  0  0  0  0  0
   19.5050  -10.6690  -17.5875 N   0  0  0  0  0  0  0  0  0  0  0  0
   18.6713  -11.8564  -17.2874 C   0  0  0  0  0  0  0  0  0  0  0  0
   19.3813   -9.7041  -16.4425 O   0  0  0  0  0  0  0  0  0  0  0  0
   18.2377   -9.4765  -16.0129 C   0  0  0  0  0  0  0  0  0  0  0  0
   23.0006   -8.7162  -14.2404 C   0  0  2  0  0  0  0  0  0  0  0  0
   21.5682   -8.7470  -13.7294 O   0  0  0  0  0  0  0  0  0  0  0  0
   21.5549   -7.8957  -12.6038 C   0  0  1  0  0  0  0  0  0  0  0  0
   20.6222   -8.2119  -14.7704 N   0  0  0  0  0  0  0  0  0  0  0  0
   20.5034   -9.0923  -15.8862 C   0  0  0  0  0  0  0  0  0  0  0  0
   20.7643   -6.7800  -15.0306 O   0  0  0  0  0  0  0  0  0  0  0  0
   21.0339   -6.2566  -16.2629 O   0  0  0  0  0  0  0  0  0  0  0  0
  1  2  1  0
  2  3  2  0
  4  2  1  0
  4  5  1  0
  5  6  1  0
  7  6  1  0
  8  7  1  0
  8  9  1  6
 10  8  1  0
 11 10  2  0
 13 12  1  6
 13 15  1  0
 14 13  1  0
 15 16  1  1
 16 10  1  0
 17 23  1  0
 17 15  1  0
 18 17  2  0
 20 19  1  1
 20 22  1  0
 21 20  1  0
 22 24  1  0
 22 23  1  1
 24 25  1  0
 26 24  2  0
M  END
$$$$
