RTT.pdb
     RDKit          3D

 26 25  0  0  1  0  0  0  0  0999 V2000
   11.2977  -14.3107  -10.5292 N   0  0  0  0  0  0  0  0  0  0  0  0
   11.2748  -13.1532  -11.4086 C   0  0  0  0  0  0  0  0  0  0  0  0
   10.1615  -12.6618  -11.7829 N   0  0  0  0  0  0  0  0  0  0  0  0
   12.4714  -12.5631  -11.8572 N   0  0  0  0  0  0  0  0  0  0  0  0
   13.7009  -13.2153  -12.0282 C   0  0  0  0  0  0  0  0  0  0  0  0
   14.8497  -12.5126  -12.6413 C   0  0  0  0  0  0  0  0  0  0  0  0
   15.0373  -11.0977  -12.1314 C   0  0  0  0  0  0  0  0  0  0  0  0
   16.2544  -10.4949  -12.8299 C   0  0  2  0  0  0  0  0  0  0  0  0
   17.2742  -11.4842  -13.0259 N   0  0  0  0  0  0  0  0  0  0  0  0
   16.7497   -9.2868  -12.1391 C   0  0  0  0  0  0  0  0  0  0  0  0
   17.9919   -9.0165  -12.2270 O   0  0  0  0  0  0  0  0  0  0  0  0
   10.0584  -11.9083  -12.4458 C   0  0  0  0  0  0  0  0  0  0  0  0
   17.7123   -7.0520  -13.0843 C   0  0  2  0  0  0  0  0  0  0  0  0
   16.7870   -6.3408  -12.1535 O   0  0  0  0  0  0  0  0  0  0  0  0
   15.5534   -6.2100  -12.8512 C   0  0  2  0  0  0  0  0  0  0  0  0
   16.4331   -7.0994  -10.8942 N   0  0  0  0  0  0  0  0  0  0  0  0
   15.9376   -8.4067  -11.3847 C   0  0  0  0  0  0  0  0  0  0  0  0
   15.3308   -6.4389  -10.1160 O   0  0  0  0  0  0  0  0  0  0  0  0
   14.1685   -6.6103  -10.5208 C   0  0  0  0  0  0  0  0  0  0  0  0
   15.2986   -6.6099   -6.2791 C   0  0  2  0  0  0  0  0  0  0  0  0
   15.1646   -5.1421   -6.6552 O   0  0  0  0  0  0  0  0  0  0  0  0
   16.4596   -4.5998   -6.5107 C   0  0  2  0  0  0  0  0  0  0  0  0
   14.7212   -4.9996   -8.0863 N   0  0  0  0  0  0  0  0  0  0  0  0
   15.6025   -5.6681   -8.9868 C   0  0  0  0  0  0  0  0  0  0  0  0
   14.2571   -3.6587   -8.4396 O   0  0  0  0  0  0  0  0  0  0  0  0
   13.2438   -3.0120   -7.7912 O   0  0  0  0  0  0  0  0  0  0  0  0
  1  2  1  0
  2  3  2  0
  4  2  1  0
  4  5  1  0
  5  6  1  0
  7  6  1  0
  8  7  1  0
  8  9  1  1
 10  8  1  0
 11 10  2  0
 13 12  1  6
 13 15  1  0
 14 13  1  0
 15 16  1  1
 16 10  1  0
 17 23  1  0
 17 15  1  0
 18 17  2  0
 20 19  1  1
 20 22  1  0
 21 20  1  0
 22 24  1  0
 22 23  1  1
 24 25  1  0
 26 24  2  0
M  END
$$$$
