RTT.pdb
     RDKit          3D

 26 25  0  0  1  0  0  0  0  0999 V2000
   32.3805  -12.0338  -20.5295 N   0  0  0  0  0  0  0  0  0  0  0  0
   30.9286  -12.0798  -20.5879 C   0  0  0  0  0  0  0  0  0  0  0  0
   30.3461  -12.3865  -21.6778 N   0  0  0  0  0  0  0  0  0  0  0  0
   30.1504  -11.7877  -19.4520 N   0  0  0  0  0  0  0  0  0  0  0  0
   30.5798  -11.0919  -18.3129 C   0  0  0  0  0  0  0  0  0  0  0  0
   31.5479   -9.9788  -18.4280 C   0  0  0  0  0  0  0  0  0  0  0  0
   32.0394   -9.4619  -17.0906 C   0  0  0  0  0  0  0  0  0  0  0  0
   33.0996   -8.3940  -17.3508 C   0  0  2  0  0  0  0  0  0  0  0  0
   34.0976   -8.8746  -18.2621 N   0  0  0  0  0  0  0  0  0  0  0  0
   33.6729   -7.8631  -16.0972 C   0  0  0  0  0  0  0  0  0  0  0  0
   32.8689   -7.4109  -15.2181 O   0  0  0  0  0  0  0  0  0  0  0  0
   29.3481  -12.3638  -21.8235 C   0  0  0  0  0  0  0  0  0  0  0  0
   35.6956   -9.7400  -13.7261 C   0  0  2  0  0  0  0  0  0  0  0  0
   36.4289   -8.4673  -13.9929 O   0  0  0  0  0  0  0  0  0  0  0  0
   37.3294   -8.7498  -15.0583 C   0  0  2  0  0  0  0  0  0  0  0  0
   35.5761   -7.3295  -14.5073 N   0  0  0  0  0  0  0  0  0  0  0  0
   35.0571   -7.8221  -15.8046 C   0  0  0  0  0  0  0  0  0  0  0  0
   36.3743   -6.0823  -14.7614 O   0  0  0  0  0  0  0  0  0  0  0  0
   37.1482   -6.0917  -15.7336 C   0  0  0  0  0  0  0  0  0  0  0  0
   34.9872   -2.5369  -14.8482 C   0  0  2  0  0  0  0  0  0  0  0  0
   36.0582   -2.5462  -13.7681 O   0  0  0  0  0  0  0  0  0  0  0  0
   35.3578   -2.6639  -12.5485 C   0  0  2  0  0  0  0  0  0  0  0  0
   36.9701   -3.7316  -13.9356 N   0  0  0  0  0  0  0  0  0  0  0  0
   36.2495   -4.9625  -13.9408 C   0  0  0  0  0  0  0  0  0  0  0  0
   38.2033   -3.6549  -13.1534 O   0  0  0  0  0  0  0  0  0  0  0  0
   38.5486   -4.5612  -12.1919 O   0  0  0  0  0  0  0  0  0  0  0  0
  1  2  1  0
  2  3  2  0
  4  2  1  0
  4  5  1  0
  5  6  1  0
  7  6  1  0
  8  7  1  0
  8  9  1  6
 10  8  1  0
 11 10  2  0
 13 12  1  1
 13 15  1  0
 14 13  1  0
 15 16  1  1
 16 10  1  0
 17 23  1  0
 17 15  1  0
 18 17  2  0
 20 19  1  1
 20 22  1  0
 21 20  1  0
 22 24  1  0
 22 23  1  6
 24 25  1  0
 26 24  2  0
M  END
$$$$
