RTT.pdb
     RDKit          3D

 26 25  0  0  1  0  0  0  0  0999 V2000
   23.4566  -20.2538  -10.4522 N   0  0  0  0  0  0  0  0  0  0  0  0
   23.7156  -20.7607   -9.1144 C   0  0  0  0  0  0  0  0  0  0  0  0
   22.8041  -21.3894   -8.4858 N   0  0  0  0  0  0  0  0  0  0  0  0
   24.9657  -20.5658   -8.4976 N   0  0  0  0  0  0  0  0  0  0  0  0
   26.2008  -20.4517   -9.1515 C   0  0  0  0  0  0  0  0  0  0  0  0
   26.4316  -21.1192  -10.4518 C   0  0  0  0  0  0  0  0  0  0  0  0
   26.2668  -20.1979  -11.6440 C   0  0  0  0  0  0  0  0  0  0  0  0
   26.5210  -21.0081  -12.9134 C   0  0  2  0  0  0  0  0  0  0  0  0
   27.8124  -21.6308  -12.8732 N   0  0  0  0  0  0  0  0  0  0  0  0
   26.3061  -20.2073  -14.1360 C   0  0  0  0  0  0  0  0  0  0  0  0
   27.3330  -19.7724  -14.7523 O   0  0  0  0  0  0  0  0  0  0  0  0
   22.8954  -21.7507   -7.5483 C   0  0  0  0  0  0  0  0  0  0  0  0
   26.8540  -20.5746  -16.6208 C   0  0  2  0  0  0  0  0  0  0  0  0
   25.5098  -20.0338  -16.9806 O   0  0  0  0  0  0  0  0  0  0  0  0
   24.6429  -21.1597  -17.0603 C   0  0  2  0  0  0  0  0  0  0  0  0
   24.8767  -19.1392  -15.9389 N   0  0  0  0  0  0  0  0  0  0  0  0
   25.0350  -19.8894  -14.6712 C   0  0  0  0  0  0  0  0  0  0  0  0
   23.4094  -18.9251  -16.1804 O   0  0  0  0  0  0  0  0  0  0  0  0
   22.6308  -19.7931  -15.7511 C   0  0  0  0  0  0  0  0  0  0  0  0
   21.9231  -15.4618  -15.4320 C   0  0  2  0  0  0  0  0  0  0  0  0
   21.5131  -15.8341  -16.8486 O   0  0  0  0  0  0  0  0  0  0  0  0
   22.4393  -15.1805  -17.6895 C   0  0  2  0  0  0  0  0  0  0  0  0
   21.6142  -17.3212  -17.0565 N   0  0  0  0  0  0  0  0  0  0  0  0
   22.9432  -17.7987  -16.8564 C   0  0  0  0  0  0  0  0  0  0  0  0
   20.8670  -17.8174  -18.2114 O   0  0  0  0  0  0  0  0  0  0  0  0
   21.4138  -18.5984  -19.1894 O   0  0  0  0  0  0  0  0  0  0  0  0
  1  2  1  0
  2  3  2  0
  4  2  1  0
  4  5  1  0
  5  6  1  0
  7  6  1  0
  8  7  1  0
  8  9  1  1
 10  8  1  0
 11 10  2  0
 13 12  1  6
 13 15  1  0
 14 13  1  0
 15 16  1  6
 16 10  1  0
 17 23  1  0
 17 15  1  0
 18 17  2  0
 20 19  1  6
 20 22  1  0
 21 20  1  0
 22 24  1  0
 22 23  1  6
 24 25  1  0
 26 24  2  0
M  END
$$$$
