RTT.pdb
     RDKit          3D

 26 25  0  0  1  0  0  0  0  0999 V2000
   29.8725  -32.8662  -15.1148 N   0  0  0  0  0  0  0  0  0  0  0  0
   29.0028  -32.8808  -16.2798 C   0  0  0  0  0  0  0  0  0  0  0  0
   28.1580  -33.8215  -16.4301 N   0  0  0  0  0  0  0  0  0  0  0  0
   29.0804  -31.8657  -17.2517 N   0  0  0  0  0  0  0  0  0  0  0  0
   30.0031  -30.8101  -17.2723 C   0  0  0  0  0  0  0  0  0  0  0  0
   30.2731  -30.0191  -16.0512 C   0  0  0  0  0  0  0  0  0  0  0  0
   29.2135  -28.9756  -15.7582 C   0  0  0  0  0  0  0  0  0  0  0  0
   29.6709  -27.6478  -16.3584 C   0  0  2  0  0  0  0  0  0  0  0  0
   30.5801  -26.9739  -15.4773 N   0  0  0  0  0  0  0  0  0  0  0  0
   28.5316  -26.8011  -16.7672 C   0  0  0  0  0  0  0  0  0  0  0  0
   28.0570  -25.9855  -15.9109 O   0  0  0  0  0  0  0  0  0  0  0  0
   27.5536  -33.9302  -17.2304 C   0  0  0  0  0  0  0  0  0  0  0  0
   27.7728  -25.7929  -20.7908 C   0  0  2  0  0  0  0  0  0  0  0  0
   27.4491  -25.0593  -19.5316 O   0  0  0  0  0  0  0  0  0  0  0  0
   26.4286  -24.1275  -19.8721 C   0  0  1  0  0  0  0  0  0  0  0  0
   26.8426  -25.9034  -18.4334 N   0  0  0  0  0  0  0  0  0  0  0  0
   27.9294  -26.8335  -18.0477 C   0  0  0  0  0  0  0  0  0  0  0  0
   25.6737  -26.7165  -18.9126 O   0  0  0  0  0  0  0  0  0  0  0  0
   25.9189  -27.6753  -19.6639 C   0  0  0  0  0  0  0  0  0  0  0  0
   22.4877  -26.9658  -16.4373 C   0  0  2  0  0  0  0  0  0  0  0  0
   22.0481  -26.6798  -17.8651 O   0  0  0  0  0  0  0  0  0  0  0  0
   21.8283  -25.2866  -17.9163 C   0  0  2  0  0  0  0  0  0  0  0  0
   23.1346  -27.0492  -18.8387 N   0  0  0  0  0  0  0  0  0  0  0  0
   24.3699  -26.4073  -18.5282 C   0  0  0  0  0  0  0  0  0  0  0  0
   22.7030  -27.0808  -20.2354 O   0  0  0  0  0  0  0  0  0  0  0  0
   21.6226  -27.7888  -20.6791 O   0  0  0  0  0  0  0  0  0  0  0  0
  1  2  1  0
  2  3  2  0
  4  2  1  0
  4  5  1  0
  5  6  1  0
  7  6  1  0
  8  7  1  0
  8  9  1  1
 10  8  1  0
 11 10  2  0
 13 12  1  6
 13 15  1  0
 14 13  1  0
 15 16  1  1
 16 10  1  0
 17 23  1  0
 17 15  1  0
 18 17  2  0
 20 19  1  1
 20 22  1  0
 21 20  1  0
 22 24  1  0
 22 23  1  6
 24 25  1  0
 26 24  2  0
M  END
$$$$
