WAS.pdb
     RDKit          3D

 26 27  0  0  1  0  0  0  0  0999 V2000
    6.4820  -18.0191   23.5972 N   0  0  0  0  0  0  0  0  0  0  0  0
    6.7759  -16.6083   23.5113 C   0  0  1  0  0  0  0  0  0  0  0  0
    7.6811  -16.1120   24.6247 C   0  0  0  0  0  0  0  0  0  0  0  0
    6.9992  -15.2616   25.6114 C   0  0  0  0  0  0  0  0  0  0  0  0
    5.9666  -15.6298   26.4439 C   0  0  0  0  0  0  0  0  0  0  0  0
    5.5792  -14.5862   27.1967 N   0  0  0  0  0  0  0  0  0  0  0  0
    6.3450  -13.5232   26.8746 C   0  0  0  0  0  0  0  0  0  0  0  0
    6.3197  -12.2382   27.3850 C   0  0  0  0  0  0  0  0  0  0  0  0
    7.2362  -11.3272   26.8733 C   0  0  0  0  0  0  0  0  0  0  0  0
    8.1267  -11.7134   25.8952 C   0  0  0  0  0  0  0  0  0  0  0  0
    8.1325  -12.9983   25.4029 C   0  0  0  0  0  0  0  0  0  0  0  0
    7.2322  -13.9151   25.8961 C   0  0  0  0  0  0  0  0  0  0  0  0
    7.3563  -16.3218   22.1897 C   0  0  0  0  0  0  0  0  0  0  0  0
    7.8287  -17.2724   21.5166 O   0  0  0  0  0  0  0  0  0  0  0  0
    7.7548  -13.3216   19.9962 C   0  0  0  0  0  0  0  0  0  0  0  0
    7.9377  -14.8022   20.3468 C   0  0  2  0  0  0  0  0  0  0  0  0
    7.3954  -14.9845   21.6494 N   0  0  0  0  0  0  0  0  0  0  0  0
    9.3718  -15.1318   20.2268 C   0  0  0  0  0  0  0  0  0  0  0  0
   10.0781  -14.9645   19.2142 O   0  0  0  0  0  0  0  0  0  0  0  0
   12.0305  -15.1055   23.3646 O   0  0  0  0  0  0  0  0  0  0  0  0
   11.8352  -16.3512   22.7555 C   0  0  0  0  0  0  0  0  0  0  0  0
   11.3970  -16.1655   21.2976 C   0  0  2  0  0  0  0  0  0  0  0  0
   10.0203  -15.6943   21.3672 N   0  0  0  0  0  0  0  0  0  0  0  0
   11.4709  -17.4897   20.6541 C   0  0  0  0  0  0  0  0  0  0  0  0
   10.3893  -18.2353   20.2755 O   0  0  0  0  0  0  0  0  0  0  0  0
   12.6310  -17.9729   20.4355 O   0  0  0  0  0  0  0  0  0  0  0  0
  2  1  1  1
  3  2  1  0
  3  4  1  0
  4 12  1  0
  5  4  2  0
  5  6  1  0
  6  7  1  0
  7  8  1  0
  8  9  2  0
 10  9  1  0
 11 10  2  0
 12  7  2  0
 12 11  1  0
 13  2  1  0
 13 14  2  0
 16 15  1  1
 16 18  1  0
 16 17  1  0
 17 13  1  0
 18 23  1  0
 19 18  2  0
 21 20  1  0
 22 21  1  1
 22 24  1  0
 23 22  1  0
 24 26  2  0
 24 25  1  0
M  END
$$$$
