WAS.pdb
     RDKit          3D

 26 27  0  0  1  0  0  0  0  0999 V2000
    6.4449  -17.9638   24.0648 N   0  0  0  0  0  0  0  0  0  0  0  0
    6.8748  -16.6275   23.7279 C   0  0  1  0  0  0  0  0  0  0  0  0
    7.8223  -16.0234   24.7490 C   0  0  0  0  0  0  0  0  0  0  0  0
    7.1891  -15.0393   25.6391 C   0  0  0  0  0  0  0  0  0  0  0  0
    6.0950  -15.2440   26.4491 C   0  0  0  0  0  0  0  0  0  0  0  0
    5.7822  -14.1137   27.1053 N   0  0  0  0  0  0  0  0  0  0  0  0
    6.6588  -13.1551   26.7410 C   0  0  0  0  0  0  0  0  0  0  0  0
    6.7387  -11.8378   27.1542 C   0  0  0  0  0  0  0  0  0  0  0  0
    7.7576  -11.0587   26.6189 C   0  0  0  0  0  0  0  0  0  0  0  0
    8.6428  -11.6009   25.7127 C   0  0  0  0  0  0  0  0  0  0  0  0
    8.5429  -12.9149   25.3166 C   0  0  0  0  0  0  0  0  0  0  0  0
    7.5402  -13.7025   25.8347 C   0  0  0  0  0  0  0  0  0  0  0  0
    7.4824  -16.6458   22.3876 C   0  0  0  0  0  0  0  0  0  0  0  0
    7.9871  -17.7169   21.9660 O   0  0  0  0  0  0  0  0  0  0  0  0
    7.7816  -14.3110   19.4982 C   0  0  0  0  0  0  0  0  0  0  0  0
    8.1765  -15.5593   20.2944 C   0  0  2  0  0  0  0  0  0  0  0  0
    7.5120  -15.4718   21.5494 N   0  0  0  0  0  0  0  0  0  0  0  0
    9.6496  -15.6052   20.3814 C   0  0  0  0  0  0  0  0  0  0  0  0
   10.4390  -15.6054   19.4175 O   0  0  0  0  0  0  0  0  0  0  0  0
   11.1781  -16.3433   24.1152 O   0  0  0  0  0  0  0  0  0  0  0  0
   11.9086  -15.4214   23.3553 C   0  0  0  0  0  0  0  0  0  0  0  0
   11.6815  -15.6698   21.8590 C   0  0  2  0  0  0  0  0  0  0  0  0
   10.2356  -15.6541   21.6820 N   0  0  0  0  0  0  0  0  0  0  0  0
   12.2373  -17.0008   21.5545 C   0  0  0  0  0  0  0  0  0  0  0  0
   13.5704  -17.3034   21.5307 O   0  0  0  0  0  0  0  0  0  0  0  0
   11.4111  -17.9372   21.2946 O   0  0  0  0  0  0  0  0  0  0  0  0
  2  1  1  1
  3  2  1  0
  3  4  1  0
  4 12  1  0
  5  4  2  0
  5  6  1  0
  6  7  1  0
  7  8  1  0
  8  9  2  0
 10  9  1  0
 11 10  2  0
 12  7  2  0
 12 11  1  0
 13  2  1  0
 13 14  2  0
 16 15  1  6
 16 18  1  0
 16 17  1  0
 17 13  1  0
 18 23  1  0
 19 18  2  0
 21 20  1  0
 22 21  1  1
 22 24  1  0
 23 22  1  0
 24 26  2  0
 24 25  1  0
M  END
$$$$
