WAS.pdb
     RDKit          3D

 26 27  0  0  1  0  0  0  0  0999 V2000
    6.4749  -16.9148   22.7391 N   0  0  0  0  0  0  0  0  0  0  0  0
    7.1039  -15.6154   22.7443 C   0  0  1  0  0  0  0  0  0  0  0  0
    7.9695  -15.3692   23.9672 C   0  0  0  0  0  0  0  0  0  0  0  0
    7.2099  -14.9865   25.1665 C   0  0  0  0  0  0  0  0  0  0  0  0
    6.5681  -15.8338   26.0412 C   0  0  0  0  0  0  0  0  0  0  0  0
    5.9587  -15.1300   27.0103 N   0  0  0  0  0  0  0  0  0  0  0  0
    6.1884  -13.8188   26.7909 C   0  0  0  0  0  0  0  0  0  0  0  0
    5.7704  -12.7216   27.5215 C   0  0  0  0  0  0  0  0  0  0  0  0
    6.1596  -11.4656   27.0711 C   0  0  0  0  0  0  0  0  0  0  0  0
    6.9330  -11.3437   25.9372 C   0  0  0  0  0  0  0  0  0  0  0  0
    7.3366  -12.4508   25.2267 C   0  0  0  0  0  0  0  0  0  0  0  0
    6.9609  -13.7032   25.6559 C   0  0  0  0  0  0  0  0  0  0  0  0
    7.8813  -15.4571   21.5048 C   0  0  0  0  0  0  0  0  0  0  0  0
    8.4439  -16.4661   21.0097 O   0  0  0  0  0  0  0  0  0  0  0  0
    8.8440  -12.6408   19.2443 C   0  0  0  0  0  0  0  0  0  0  0  0
    8.7742  -14.1179   19.6466 C   0  0  2  0  0  0  0  0  0  0  0  0
    8.0120  -14.1799   20.8464 N   0  0  0  0  0  0  0  0  0  0  0  0
   10.1537  -14.6295   19.7681 C   0  0  0  0  0  0  0  0  0  0  0  0
   10.8758  -14.5513   20.7804 O   0  0  0  0  0  0  0  0  0  0  0  0
   11.1706  -17.0557   16.8485 O   0  0  0  0  0  0  0  0  0  0  0  0
   12.0752  -17.0964   17.9166 C   0  0  0  0  0  0  0  0  0  0  0  0
   12.1032  -15.7440   18.6394 C   0  0  2  0  0  0  0  0  0  0  0  0
   10.7241  -15.2745   18.6297 N   0  0  0  0  0  0  0  0  0  0  0  0
   12.9712  -14.8519   17.8496 C   0  0  0  0  0  0  0  0  0  0  0  0
   14.3217  -15.0059   17.7027 O   0  0  0  0  0  0  0  0  0  0  0  0
   12.4187  -13.8644   17.2610 O   0  0  0  0  0  0  0  0  0  0  0  0
  2  1  1  1
  3  2  1  0
  3  4  1  0
  4 12  1  0
  5  4  2  0
  5  6  1  0
  6  7  1  0
  7  8  1  0
  8  9  2  0
 10  9  1  0
 11 10  2  0
 12  7  2  0
 12 11  1  0
 13  2  1  0
 13 14  2  0
 16 15  1  1
 16 18  1  0
 16 17  1  0
 17 13  1  0
 18 23  1  0
 19 18  2  0
 21 20  1  0
 22 21  1  6
 22 24  1  0
 23 22  1  0
 24 26  2  0
 24 25  1  0
M  END
$$$$
