WAS.pdb
     RDKit          3D

 26 27  0  0  1  0  0  0  0  0999 V2000
    6.6822  -18.3199   24.2505 N   0  0  0  0  0  0  0  0  0  0  0  0
    6.8603  -16.8961   24.0924 C   0  0  1  0  0  0  0  0  0  0  0  0
    7.5704  -16.2432   25.2649 C   0  0  0  0  0  0  0  0  0  0  0  0
    6.7751  -15.2072   25.9402 C   0  0  0  0  0  0  0  0  0  0  0  0
    5.5255  -15.3595   26.4973 C   0  0  0  0  0  0  0  0  0  0  0  0
    5.0970  -14.1927   27.0082 N   0  0  0  0  0  0  0  0  0  0  0  0
    6.0504  -13.2617   26.7976 C   0  0  0  0  0  0  0  0  0  0  0  0
    6.0620  -11.9242   27.1491 C   0  0  0  0  0  0  0  0  0  0  0  0
    7.1885  -11.1829   26.8128 C   0  0  0  0  0  0  0  0  0  0  0  0
    8.2415  -11.7802   26.1546 C   0  0  0  0  0  0  0  0  0  0  0  0
    8.2066  -13.1132   25.8153 C   0  0  0  0  0  0  0  0  0  0  0  0
    7.0996  -13.8642   26.1387 C   0  0  0  0  0  0  0  0  0  0  0  0
    7.5761  -16.6422   22.8319 C   0  0  0  0  0  0  0  0  0  0  0  0
    8.2698  -17.5640   22.3330 O   0  0  0  0  0  0  0  0  0  0  0  0
    7.7353  -13.8664   20.3365 C   0  0  0  0  0  0  0  0  0  0  0  0
    8.1100  -15.2506   20.8768 C   0  0  2  0  0  0  0  0  0  0  0  0
    7.5010  -15.3691   22.1572 N   0  0  0  0  0  0  0  0  0  0  0  0
    9.5822  -15.3609   20.8844 C   0  0  0  0  0  0  0  0  0  0  0  0
   10.3297  -15.2349   19.8957 O   0  0  0  0  0  0  0  0  0  0  0  0
   11.1698  -16.8235   24.3590 O   0  0  0  0  0  0  0  0  0  0  0  0
   11.9777  -15.8792   23.7138 C   0  0  0  0  0  0  0  0  0  0  0  0
   11.6592  -15.8456   22.2139 C   0  0  2  0  0  0  0  0  0  0  0  0
   10.2198  -15.6368   22.1313 N   0  0  0  0  0  0  0  0  0  0  0  0
   12.0352  -17.1610   21.6646 C   0  0  0  0  0  0  0  0  0  0  0  0
   11.1493  -18.1178   21.2539 O   0  0  0  0  0  0  0  0  0  0  0  0
   13.2798  -17.4228   21.5665 O   0  0  0  0  0  0  0  0  0  0  0  0
  2  1  1  1
  3  2  1  0
  3  4  1  0
  4 12  1  0
  5  4  2  0
  5  6  1  0
  6  7  1  0
  7  8  1  0
  8  9  2  0
 10  9  1  0
 11 10  2  0
 12  7  2  0
 12 11  1  0
 13  2  1  0
 13 14  2  0
 16 15  1  1
 16 18  1  0
 16 17  1  0
 17 13  1  0
 18 23  1  0
 19 18  2  0
 21 20  1  0
 22 21  1  1
 22 24  1  0
 23 22  1  0
 24 26  2  0
 24 25  1  0
M  END
$$$$
