WAS.pdb
     RDKit          3D

 26 27  0  0  1  0  0  0  0  0999 V2000
    8.0658  -17.1235   23.9279 N   0  0  0  0  0  0  0  0  0  0  0  0
    8.5792  -16.1598   22.9835 C   0  0  1  0  0  0  0  0  0  0  0  0
    8.5886  -14.7384   23.5171 C   0  0  0  0  0  0  0  0  0  0  0  0
    7.6251  -14.5040   24.6027 C   0  0  0  0  0  0  0  0  0  0  0  0
    6.7825  -15.4319   25.1720 C   0  0  0  0  0  0  0  0  0  0  0  0
    6.0270  -14.8554   26.1221 N   0  0  0  0  0  0  0  0  0  0  0  0
    6.3582  -13.5494   26.1931 C   0  0  0  0  0  0  0  0  0  0  0  0
    5.8562  -12.5618   27.0208 C   0  0  0  0  0  0  0  0  0  0  0  0
    6.3867  -11.2839   26.8886 C   0  0  0  0  0  0  0  0  0  0  0  0
    7.3749  -11.0352   25.9611 C   0  0  0  0  0  0  0  0  0  0  0  0
    7.8583  -12.0346   25.1483 C   0  0  0  0  0  0  0  0  0  0  0  0
    7.3453  -13.3066   25.2632 C   0  0  0  0  0  0  0  0  0  0  0  0
    9.9264  -16.5762   22.5623 C   0  0  0  0  0  0  0  0  0  0  0  0
   10.6820  -15.7280   22.0243 O   0  0  0  0  0  0  0  0  0  0  0  0
   11.8198  -19.7866   22.3654 C   0  0  0  0  0  0  0  0  0  0  0  0
   11.6833  -18.2654   22.2402 C   0  0  2  0  0  0  0  0  0  0  0  0
   10.3996  -17.9261   22.7514 N   0  0  0  0  0  0  0  0  0  0  0  0
   11.8988  -17.8967   20.8270 C   0  0  0  0  0  0  0  0  0  0  0  0
   11.0934  -18.0767   19.8937 O   0  0  0  0  0  0  0  0  0  0  0  0
   14.4172  -14.9259   19.7111 O   0  0  0  0  0  0  0  0  0  0  0  0
   13.4837  -15.5575   18.8801 C   0  0  0  0  0  0  0  0  0  0  0  0
   13.5242  -17.0755   19.0950 C   0  0  2  0  0  0  0  0  0  0  0  0
   13.1384  -17.2771   20.4852 N   0  0  0  0  0  0  0  0  0  0  0  0
   14.9152  -17.5057   18.8644 C   0  0  0  0  0  0  0  0  0  0  0  0
   15.5462  -17.4909   17.6516 O   0  0  0  0  0  0  0  0  0  0  0  0
   15.5764  -17.9220   19.8727 O   0  0  0  0  0  0  0  0  0  0  0  0
  2  1  1  1
  3  2  1  0
  3  4  1  0
  4 12  1  0
  5  4  2  0
  5  6  1  0
  6  7  1  0
  7  8  1  0
  8  9  2  0
 10  9  1  0
 11 10  2  0
 12  7  2  0
 12 11  1  0
 13  2  1  0
 13 14  2  0
 16 15  1  6
 16 18  1  0
 16 17  1  0
 17 13  1  0
 18 23  1  0
 19 18  2  0
 21 20  1  0
 22 21  1  1
 22 24  1  0
 23 22  1  0
 24 26  2  0
 24 25  1  0
M  END
$$$$
