WAS.pdb
     RDKit          3D

 26 27  0  0  1  0  0  0  0  0999 V2000
    6.9194  -17.6340   25.2350 N   0  0  0  0  0  0  0  0  0  0  0  0
    7.2182  -16.3274   24.6988 C   0  0  1  0  0  0  0  0  0  0  0  0
    8.4547  -15.6929   25.3102 C   0  0  0  0  0  0  0  0  0  0  0  0
    8.1659  -14.7865   26.4313 C   0  0  0  0  0  0  0  0  0  0  0  0
    8.3298  -15.0546   27.7716 C   0  0  0  0  0  0  0  0  0  0  0  0
    7.9434  -13.9997   28.5091 N   0  0  0  0  0  0  0  0  0  0  0  0
    7.5229  -13.0283   27.6726 C   0  0  0  0  0  0  0  0  0  0  0  0
    7.0409  -11.7661   27.9674 C   0  0  0  0  0  0  0  0  0  0  0  0
    6.6795  -10.9526   26.8999 C   0  0  0  0  0  0  0  0  0  0  0  0
    6.8062  -11.4086   25.6058 C   0  0  0  0  0  0  0  0  0  0  0  0
    7.2884  -12.6691   25.3376 C   0  0  0  0  0  0  0  0  0  0  0  0
    7.6509  -13.4902   26.3809 C   0  0  0  0  0  0  0  0  0  0  0  0
    7.3438  -16.4296   23.2360 C   0  0  0  0  0  0  0  0  0  0  0  0
    7.4537  -17.5685   22.7157 O   0  0  0  0  0  0  0  0  0  0  0  0
    7.1040  -14.1122   20.3274 C   0  0  0  0  0  0  0  0  0  0  0  0
    7.4554  -15.4519   20.9832 C   0  0  2  0  0  0  0  0  0  0  0  0
    7.3427  -15.2618   22.3887 N   0  0  0  0  0  0  0  0  0  0  0  0
    8.7997  -15.8531   20.5235 C   0  0  0  0  0  0  0  0  0  0  0  0
    9.1215  -16.1197   19.3498 O   0  0  0  0  0  0  0  0  0  0  0  0
   11.9845  -16.6955   23.3737 O   0  0  0  0  0  0  0  0  0  0  0  0
   12.0757  -15.8199   22.2847 C   0  0  0  0  0  0  0  0  0  0  0  0
   11.1942  -16.3149   21.1313 C   0  0  2  0  0  0  0  0  0  0  0  0
    9.8341  -15.9482   21.5025 N   0  0  0  0  0  0  0  0  0  0  0  0
   11.3490  -17.7796   21.0695 C   0  0  0  0  0  0  0  0  0  0  0  0
   12.4317  -18.4289   20.5448 O   0  0  0  0  0  0  0  0  0  0  0  0
   10.4011  -18.4911   21.5412 O   0  0  0  0  0  0  0  0  0  0  0  0
  2  1  1  1
  3  2  1  0
  3  4  1  0
  4 12  1  0
  5  4  2  0
  5  6  1  0
  6  7  1  0
  7  8  1  0
  8  9  2  0
 10  9  1  0
 11 10  2  0
 12  7  2  0
 12 11  1  0
 13  2  1  0
 13 14  2  0
 16 15  1  6
 16 18  1  0
 16 17  1  0
 17 13  1  0
 18 23  1  0
 19 18  2  0
 21 20  1  0
 22 21  1  1
 22 24  1  0
 23 22  1  0
 24 26  2  0
 24 25  1  0
M  END
$$$$
