WAS.pdb
     RDKit          3D

 26 27  0  0  1  0  0  0  0  0999 V2000
    6.4194  -17.7979   23.8627 N   0  0  0  0  0  0  0  0  0  0  0  0
    6.7766  -16.4186   23.6305 C   0  0  1  0  0  0  0  0  0  0  0  0
    7.7575  -15.8696   24.6512 C   0  0  0  0  0  0  0  0  0  0  0  0
    7.1331  -15.0323   25.6860 C   0  0  0  0  0  0  0  0  0  0  0  0
    6.3527  -15.4629   26.7351 C   0  0  0  0  0  0  0  0  0  0  0  0
    5.9363  -14.4159   27.4675 N   0  0  0  0  0  0  0  0  0  0  0  0
    6.4325  -13.2887   26.9167 C   0  0  0  0  0  0  0  0  0  0  0  0
    6.2793  -11.9750   27.3207 C   0  0  0  0  0  0  0  0  0  0  0  0
    6.9126  -10.9945   26.5663 C   0  0  0  0  0  0  0  0  0  0  0  0
    7.6596  -11.3427   25.4620 C   0  0  0  0  0  0  0  0  0  0  0  0
    7.7972  -12.6572   25.0795 C   0  0  0  0  0  0  0  0  0  0  0  0
    7.1772  -13.6430   25.8131 C   0  0  0  0  0  0  0  0  0  0  0  0
    7.3055  -16.2866   22.2636 C   0  0  0  0  0  0  0  0  0  0  0  0
    7.7026  -17.3183   21.6656 O   0  0  0  0  0  0  0  0  0  0  0  0
    7.6553  -13.5520   19.7448 C   0  0  0  0  0  0  0  0  0  0  0  0
    7.8816  -14.9754   20.2654 C   0  0  2  0  0  0  0  0  0  0  0  0
    7.3781  -15.0097   21.5957 N   0  0  0  0  0  0  0  0  0  0  0  0
    9.3192  -15.2887   20.1445 C   0  0  0  0  0  0  0  0  0  0  0  0
    9.9733  -15.3229   19.0847 O   0  0  0  0  0  0  0  0  0  0  0  0
   13.3324  -15.9234   22.8214 O   0  0  0  0  0  0  0  0  0  0  0  0
   11.9581  -15.6668   22.7414 C   0  0  0  0  0  0  0  0  0  0  0  0
   11.4557  -15.9104   21.3129 C   0  0  2  0  0  0  0  0  0  0  0  0
   10.0370  -15.5809   21.3432 N   0  0  0  0  0  0  0  0  0  0  0  0
   11.6604  -17.3412   21.0230 C   0  0  0  0  0  0  0  0  0  0  0  0
   10.7952  -18.3403   21.3730 O   0  0  0  0  0  0  0  0  0  0  0  0
   12.7240  -17.6682   20.3995 O   0  0  0  0  0  0  0  0  0  0  0  0
  2  1  1  1
  3  2  1  0
  3  4  1  0
  4 12  1  0
  5  4  2  0
  5  6  1  0
  6  7  1  0
  7  8  1  0
  8  9  2  0
 10  9  1  0
 11 10  2  0
 12  7  2  0
 12 11  1  0
 13  2  1  0
 13 14  2  0
 16 15  1  1
 16 18  1  0
 16 17  1  0
 17 13  1  0
 18 23  1  0
 19 18  2  0
 21 20  1  0
 22 21  1  1
 22 24  1  0
 23 22  1  0
 24 26  2  0
 24 25  1  0
M  END
$$$$
