WAS.pdb
     RDKit          3D

 26 27  0  0  1  0  0  0  0  0999 V2000
    6.1479  -17.8150   23.6726 N   0  0  0  0  0  0  0  0  0  0  0  0
    6.5896  -16.4541   23.4810 C   0  0  1  0  0  0  0  0  0  0  0  0
    7.5549  -15.9770   24.5515 C   0  0  0  0  0  0  0  0  0  0  0  0
    6.9567  -15.0464   25.5200 C   0  0  0  0  0  0  0  0  0  0  0  0
    5.9731  -15.3328   26.4395 C   0  0  0  0  0  0  0  0  0  0  0  0
    5.6575  -14.2324   27.1434 N   0  0  0  0  0  0  0  0  0  0  0  0
    6.4228  -13.2126   26.7023 C   0  0  0  0  0  0  0  0  0  0  0  0
    6.4577  -11.8965   27.1254 C   0  0  0  0  0  0  0  0  0  0  0  0
    7.3578  -11.0446   26.4961 C   0  0  0  0  0  0  0  0  0  0  0  0
    8.1743  -11.5169   25.4916 C   0  0  0  0  0  0  0  0  0  0  0  0
    8.1211  -12.8312   25.0878 C   0  0  0  0  0  0  0  0  0  0  0  0
    7.2359  -13.6903   25.6979 C   0  0  0  0  0  0  0  0  0  0  0  0
    7.1826  -16.3296   22.1399 C   0  0  0  0  0  0  0  0  0  0  0  0
    7.5549  -17.3713   21.5432 O   0  0  0  0  0  0  0  0  0  0  0  0
    7.5226  -13.6471   19.5901 C   0  0  0  0  0  0  0  0  0  0  0  0
    7.8608  -15.0247   20.1699 C   0  0  2  0  0  0  0  0  0  0  0  0
    7.3452  -15.0488   21.4957 N   0  0  0  0  0  0  0  0  0  0  0  0
    9.3211  -15.2202   20.0751 C   0  0  0  0  0  0  0  0  0  0  0  0
    9.9884  -15.2457   19.0234 O   0  0  0  0  0  0  0  0  0  0  0  0
   11.1432  -16.3653   23.5264 O   0  0  0  0  0  0  0  0  0  0  0  0
   11.9079  -15.4695   22.7690 C   0  0  0  0  0  0  0  0  0  0  0  0
   11.4964  -15.5375   21.2931 C   0  0  2  0  0  0  0  0  0  0  0  0
   10.0464  -15.3975   21.2916 N   0  0  0  0  0  0  0  0  0  0  0  0
   11.9002  -16.8648   20.7946 C   0  0  0  0  0  0  0  0  0  0  0  0
   13.1888  -17.2448   20.5412 O   0  0  0  0  0  0  0  0  0  0  0  0
   10.9769  -17.7196   20.5852 O   0  0  0  0  0  0  0  0  0  0  0  0
  2  1  1  1
  3  2  1  0
  3  4  1  0
  4 12  1  0
  5  4  2  0
  5  6  1  0
  6  7  1  0
  7  8  1  0
  8  9  2  0
 10  9  1  0
 11 10  2  0
 12  7  2  0
 12 11  1  0
 13  2  1  0
 13 14  2  0
 16 15  1  1
 16 18  1  0
 16 17  1  0
 17 13  1  0
 18 23  1  0
 19 18  2  0
 21 20  1  0
 22 21  1  1
 22 24  1  0
 23 22  1  0
 24 26  2  0
 24 25  1  0
M  END
$$$$
