WAS.pdb
     RDKit          3D

 26 27  0  0  1  0  0  0  0  0999 V2000
    6.7048  -18.1253   24.2306 N   0  0  0  0  0  0  0  0  0  0  0  0
    7.0168  -16.7584   23.8868 C   0  0  1  0  0  0  0  0  0  0  0  0
    7.8587  -16.0505   24.9334 C   0  0  0  0  0  0  0  0  0  0  0  0
    7.1065  -15.0856   25.7490 C   0  0  0  0  0  0  0  0  0  0  0  0
    6.0195  -15.3536   26.5500 C   0  0  0  0  0  0  0  0  0  0  0  0
    5.5768  -14.2245   27.1290 N   0  0  0  0  0  0  0  0  0  0  0  0
    6.3594  -13.2038   26.7218 C   0  0  0  0  0  0  0  0  0  0  0  0
    6.2939  -11.8629   27.0537 C   0  0  0  0  0  0  0  0  0  0  0  0
    7.2407  -11.0160   26.4896 C   0  0  0  0  0  0  0  0  0  0  0  0
    8.1987  -11.5170   25.6351 C   0  0  0  0  0  0  0  0  0  0  0  0
    8.2434  -12.8556   25.3198 C   0  0  0  0  0  0  0  0  0  0  0  0
    7.3141  -13.7104   25.8674 C   0  0  0  0  0  0  0  0  0  0  0  0
    7.6778  -16.7364   22.5722 C   0  0  0  0  0  0  0  0  0  0  0  0
    8.4903  -17.6521   22.2874 O   0  0  0  0  0  0  0  0  0  0  0  0
    7.8593  -14.3941   19.6738 C   0  0  0  0  0  0  0  0  0  0  0  0
    8.1290  -15.7296   20.3753 C   0  0  2  0  0  0  0  0  0  0  0  0
    7.4170  -15.6965   21.6066 N   0  0  0  0  0  0  0  0  0  0  0  0
    9.5898  -15.8917   20.5146 C   0  0  0  0  0  0  0  0  0  0  0  0
   10.3528  -15.1333   21.1429 O   0  0  0  0  0  0  0  0  0  0  0  0
   11.3449  -19.3277   20.9458 O   0  0  0  0  0  0  0  0  0  0  0  0
   11.9447  -18.0710   21.0927 C   0  0  0  0  0  0  0  0  0  0  0  0
   11.6417  -17.1930   19.8723 C   0  0  2  0  0  0  0  0  0  0  0  0
   10.1958  -17.0154   19.8762 N   0  0  0  0  0  0  0  0  0  0  0  0
   12.0791  -17.9449   18.6821 C   0  0  0  0  0  0  0  0  0  0  0  0
   13.3822  -18.1877   18.3472 O   0  0  0  0  0  0  0  0  0  0  0  0
   11.1725  -18.4016   17.9096 O   0  0  0  0  0  0  0  0  0  0  0  0
  2  1  1  1
  3  2  1  0
  3  4  1  0
  4 12  1  0
  5  4  2  0
  5  6  1  0
  6  7  1  0
  7  8  1  0
  8  9  2  0
 10  9  1  0
 11 10  2  0
 12  7  2  0
 12 11  1  0
 13  2  1  0
 13 14  2  0
 16 15  1  1
 16 18  1  0
 16 17  1  0
 17 13  1  0
 18 23  1  0
 19 18  2  0
 21 20  1  0
 22 21  1  1
 22 24  1  0
 23 22  1  0
 24 26  2  0
 24 25  1  0
M  END
$$$$
