WAS.pdb
     RDKit          3D

 26 27  0  0  1  0  0  0  0  0999 V2000
    6.1276  -17.5675   23.9821 N   0  0  0  0  0  0  0  0  0  0  0  0
    6.7531  -16.2893   23.7392 C   0  0  1  0  0  0  0  0  0  0  0  0
    7.7625  -15.8997   24.8043 C   0  0  0  0  0  0  0  0  0  0  0  0
    7.2104  -15.0393   25.8610 C   0  0  0  0  0  0  0  0  0  0  0  0
    6.5891  -15.4505   27.0185 C   0  0  0  0  0  0  0  0  0  0  0  0
    6.1935  -14.3873   27.7390 N   0  0  0  0  0  0  0  0  0  0  0  0
    6.5458  -13.2684   27.0726 C   0  0  0  0  0  0  0  0  0  0  0  0
    6.3548  -11.9439   27.4214 C   0  0  0  0  0  0  0  0  0  0  0  0
    6.8287  -10.9754   26.5443 C   0  0  0  0  0  0  0  0  0  0  0  0
    7.4618  -11.3455   25.3778 C   0  0  0  0  0  0  0  0  0  0  0  0
    7.6400  -12.6705   25.0523 C   0  0  0  0  0  0  0  0  0  0  0  0
    7.1772  -13.6446   25.9073 C   0  0  0  0  0  0  0  0  0  0  0  0
    7.3723  -16.3077   22.4043 C   0  0  0  0  0  0  0  0  0  0  0  0
    7.9166  -17.3674   22.0036 O   0  0  0  0  0  0  0  0  0  0  0  0
    7.9580  -13.8457   19.6535 C   0  0  0  0  0  0  0  0  0  0  0  0
    8.0286  -15.2377   20.2905 C   0  0  2  0  0  0  0  0  0  0  0  0
    7.3692  -15.1464   21.5479 N   0  0  0  0  0  0  0  0  0  0  0  0
    9.4472  -15.6389   20.3684 C   0  0  0  0  0  0  0  0  0  0  0  0
   10.3651  -14.9808   20.8942 O   0  0  0  0  0  0  0  0  0  0  0  0
   10.1272  -19.2902   18.8454 O   0  0  0  0  0  0  0  0  0  0  0  0
   11.0888  -18.8995   19.7853 C   0  0  0  0  0  0  0  0  0  0  0  0
   11.1897  -17.3699   19.8359 C   0  0  2  0  0  0  0  0  0  0  0  0
    9.8140  -16.8925   19.7929 N   0  0  0  0  0  0  0  0  0  0  0  0
   11.9339  -16.9478   18.6354 C   0  0  0  0  0  0  0  0  0  0  0  0
   13.2834  -17.0854   18.4649 O   0  0  0  0  0  0  0  0  0  0  0  0
   11.2669  -16.4153   17.6876 O   0  0  0  0  0  0  0  0  0  0  0  0
  2  1  1  1
  3  2  1  0
  3  4  1  0
  4 12  1  0
  5  4  2  0
  5  6  1  0
  6  7  1  0
  7  8  1  0
  8  9  2  0
 10  9  1  0
 11 10  2  0
 12  7  2  0
 12 11  1  0
 13  2  1  0
 13 14  2  0
 16 15  1  1
 16 18  1  0
 16 17  1  0
 17 13  1  0
 18 23  1  0
 19 18  2  0
 21 20  1  0
 22 21  1  6
 22 24  1  0
 23 22  1  0
 24 26  2  0
 24 25  1  0
M  END
$$$$
