WAS.pdb
     RDKit          3D

 26 27  0  0  1  0  0  0  0  0999 V2000
    6.3032  -17.9275   24.4097 N   0  0  0  0  0  0  0  0  0  0  0  0
    6.6859  -16.6011   23.9875 C   0  0  1  0  0  0  0  0  0  0  0  0
    7.5833  -15.8869   24.9825 C   0  0  0  0  0  0  0  0  0  0  0  0
    6.9099  -14.8120   25.7262 C   0  0  0  0  0  0  0  0  0  0  0  0
    5.6951  -14.8899   26.3690 C   0  0  0  0  0  0  0  0  0  0  0  0
    5.3841  -13.7063   26.9243 N   0  0  0  0  0  0  0  0  0  0  0  0
    6.3817  -12.8378   26.6583 C   0  0  0  0  0  0  0  0  0  0  0  0
    6.5091  -11.5106   27.0254 C   0  0  0  0  0  0  0  0  0  0  0  0
    7.6573  -10.8407   26.6193 C   0  0  0  0  0  0  0  0  0  0  0  0
    8.6182  -11.4956   25.8800 C   0  0  0  0  0  0  0  0  0  0  0  0
    8.4687  -12.8170   25.5267 C   0  0  0  0  0  0  0  0  0  0  0  0
    7.3384  -13.4976   25.9185 C   0  0  0  0  0  0  0  0  0  0  0  0
    7.3255  -16.6878   22.6649 C   0  0  0  0  0  0  0  0  0  0  0  0
    7.8906  -17.7608   22.3346 O   0  0  0  0  0  0  0  0  0  0  0  0
    7.8559  -14.4036   19.7526 C   0  0  0  0  0  0  0  0  0  0  0  0
    8.0005  -15.7319   20.5029 C   0  0  2  0  0  0  0  0  0  0  0  0
    7.3191  -15.5784   21.7424 N   0  0  0  0  0  0  0  0  0  0  0  0
    9.4394  -16.0385   20.6268 C   0  0  0  0  0  0  0  0  0  0  0  0
   10.2542  -15.4400   21.3549 O   0  0  0  0  0  0  0  0  0  0  0  0
   10.1724  -19.2978   18.8526 O   0  0  0  0  0  0  0  0  0  0  0  0
   11.4239  -18.9216   19.3555 C   0  0  0  0  0  0  0  0  0  0  0  0
   11.3605  -17.4989   19.9248 C   0  0  2  0  0  0  0  0  0  0  0  0
    9.9571  -17.1160   19.8469 N   0  0  0  0  0  0  0  0  0  0  0  0
   12.1900  -16.6487   19.0517 C   0  0  0  0  0  0  0  0  0  0  0  0
   13.5542  -16.7015   18.9780 O   0  0  0  0  0  0  0  0  0  0  0  0
   11.5877  -15.8023   18.3115 O   0  0  0  0  0  0  0  0  0  0  0  0
  2  1  1  1
  3  2  1  0
  3  4  1  0
  4 12  1  0
  5  4  2  0
  5  6  1  0
  6  7  1  0
  7  8  1  0
  8  9  2  0
 10  9  1  0
 11 10  2  0
 12  7  2  0
 12 11  1  0
 13  2  1  0
 13 14  2  0
 16 15  1  6
 16 18  1  0
 16 17  1  0
 17 13  1  0
 18 23  1  0
 19 18  2  0
 21 20  1  0
 22 21  1  6
 22 24  1  0
 23 22  1  0
 24 26  2  0
 24 25  1  0
M  END
$$$$
