WAS.pdb
     RDKit          3D

 26 27  0  0  1  0  0  0  0  0999 V2000
    6.5194  -17.3352   24.3868 N   0  0  0  0  0  0  0  0  0  0  0  0
    6.9123  -16.0185   23.9441 C   0  0  1  0  0  0  0  0  0  0  0  0
    8.1183  -15.4682   24.6845 C   0  0  0  0  0  0  0  0  0  0  0  0
    7.7829  -14.7821   25.9409 C   0  0  0  0  0  0  0  0  0  0  0  0
    7.7234  -15.3435   27.1964 C   0  0  0  0  0  0  0  0  0  0  0  0
    7.3638  -14.4199   28.1040 N   0  0  0  0  0  0  0  0  0  0  0  0
    7.1830  -13.2453   27.4653 C   0  0  0  0  0  0  0  0  0  0  0  0
    6.8164  -12.0153   27.9801 C   0  0  0  0  0  0  0  0  0  0  0  0
    6.7077  -10.9541   27.0890 C   0  0  0  0  0  0  0  0  0  0  0  0
    6.9611  -11.1451   25.7481 C   0  0  0  0  0  0  0  0  0  0  0  0
    7.3244  -12.3790   25.2594 C   0  0  0  0  0  0  0  0  0  0  0  0
    7.4367  -13.4426   26.1256 C   0  0  0  0  0  0  0  0  0  0  0  0
    7.1537  -16.0558   22.4929 C   0  0  0  0  0  0  0  0  0  0  0  0
    7.2356  -17.1720   21.9209 O   0  0  0  0  0  0  0  0  0  0  0  0
    7.3808  -13.5947   19.7026 C   0  0  0  0  0  0  0  0  0  0  0  0
    7.5974  -14.9763   20.3291 C   0  0  2  0  0  0  0  0  0  0  0  0
    7.2967  -14.8497   21.7140 N   0  0  0  0  0  0  0  0  0  0  0  0
    8.9799  -15.4045   20.0374 C   0  0  0  0  0  0  0  0  0  0  0  0
    9.4696  -15.5716   18.9041 O   0  0  0  0  0  0  0  0  0  0  0  0
   13.2994  -16.0827   22.1643 O   0  0  0  0  0  0  0  0  0  0  0  0
   11.9664  -15.6570   22.2181 C   0  0  0  0  0  0  0  0  0  0  0  0
   11.2219  -16.0843   20.9472 C   0  0  2  0  0  0  0  0  0  0  0  0
    9.8445  -15.6532   21.1455 N   0  0  0  0  0  0  0  0  0  0  0  0
   11.3102  -17.5538   20.8703 C   0  0  0  0  0  0  0  0  0  0  0  0
   12.3680  -18.2462   20.3497 O   0  0  0  0  0  0  0  0  0  0  0  0
   10.3257  -18.2263   21.3236 O   0  0  0  0  0  0  0  0  0  0  0  0
  2  1  1  1
  3  2  1  0
  3  4  1  0
  4 12  1  0
  5  4  2  0
  5  6  1  0
  6  7  1  0
  7  8  1  0
  8  9  2  0
 10  9  1  0
 11 10  2  0
 12  7  2  0
 12 11  1  0
 13  2  1  0
 13 14  2  0
 16 15  1  6
 16 18  1  0
 16 17  1  0
 17 13  1  0
 18 23  1  0
 19 18  2  0
 21 20  1  0
 22 21  1  1
 22 24  1  0
 23 22  1  0
 24 26  2  0
 24 25  1  0
M  END
$$$$
