WAS.pdb
     RDKit          3D

 26 27  0  0  1  0  0  0  0  0999 V2000
    6.2581  -18.3692   24.1331 N   0  0  0  0  0  0  0  0  0  0  0  0
    6.6765  -16.9876   24.1202 C   0  0  1  0  0  0  0  0  0  0  0  0
    7.5921  -16.6239   25.2755 C   0  0  0  0  0  0  0  0  0  0  0  0
    7.0768  -15.5399   26.1246 C   0  0  0  0  0  0  0  0  0  0  0  0
    6.3248  -15.6759   27.2696 C   0  0  0  0  0  0  0  0  0  0  0  0
    6.0148  -14.4681   27.7706 N   0  0  0  0  0  0  0  0  0  0  0  0
    6.5541  -13.5255   26.9700 C   0  0  0  0  0  0  0  0  0  0  0  0
    6.5069  -12.1481   27.0832 C   0  0  0  0  0  0  0  0  0  0  0  0
    7.1629  -11.4022   26.1110 C   0  0  0  0  0  0  0  0  0  0  0  0
    7.8285  -12.0340   25.0831 C   0  0  0  0  0  0  0  0  0  0  0  0
    7.8612  -13.4066   24.9917 C   0  0  0  0  0  0  0  0  0  0  0  0
    7.2170  -14.1629   25.9442 C   0  0  0  0  0  0  0  0  0  0  0  0
    7.3142  -16.6947   22.8267 C   0  0  0  0  0  0  0  0  0  0  0  0
    7.9252  -17.6169   22.2300 O   0  0  0  0  0  0  0  0  0  0  0  0
    7.3978  -13.8303   20.4409 C   0  0  0  0  0  0  0  0  0  0  0  0
    7.8610  -15.1976   20.9549 C   0  0  2  0  0  0  0  0  0  0  0  0
    7.2550  -15.3829   22.2288 N   0  0  0  0  0  0  0  0  0  0  0  0
    9.3373  -15.2101   20.9694 C   0  0  0  0  0  0  0  0  0  0  0  0
   10.0798  -14.9752   19.9969 O   0  0  0  0  0  0  0  0  0  0  0  0
   11.0592  -16.6442   24.4195 O   0  0  0  0  0  0  0  0  0  0  0  0
   11.7391  -15.5841   23.8074 C   0  0  0  0  0  0  0  0  0  0  0  0
   11.4382  -15.5591   22.3038 C   0  0  2  0  0  0  0  0  0  0  0  0
    9.9854  -15.5179   22.2033 N   0  0  0  0  0  0  0  0  0  0  0  0
   11.9723  -16.8108   21.7372 C   0  0  0  0  0  0  0  0  0  0  0  0
   13.3010  -17.1142   21.6284 O   0  0  0  0  0  0  0  0  0  0  0  0
   11.1303  -17.6726   21.3184 O   0  0  0  0  0  0  0  0  0  0  0  0
  2  1  1  6
  3  2  1  0
  3  4  1  0
  4 12  1  0
  5  4  2  0
  5  6  1  0
  6  7  1  0
  7  8  1  0
  8  9  2  0
 10  9  1  0
 11 10  2  0
 12  7  2  0
 12 11  1  0
 13  2  1  0
 13 14  2  0
 16 15  1  1
 16 18  1  0
 16 17  1  0
 17 13  1  0
 18 23  1  0
 19 18  2  0
 21 20  1  0
 22 21  1  1
 22 24  1  0
 23 22  1  0
 24 26  2  0
 24 25  1  0
M  END
$$$$
