WAS.pdb
     RDKit          3D

 26 27  0  0  1  0  0  0  0  0999 V2000
    6.4052  -17.9440   23.6181 N   0  0  0  0  0  0  0  0  0  0  0  0
    6.7222  -16.5491   23.4240 C   0  0  1  0  0  0  0  0  0  0  0  0
    7.6682  -15.9939   24.4739 C   0  0  0  0  0  0  0  0  0  0  0  0
    7.0220  -15.0943   25.4409 C   0  0  0  0  0  0  0  0  0  0  0  0
    5.9459  -15.3872   26.2479 C   0  0  0  0  0  0  0  0  0  0  0  0
    5.6125  -14.3163   26.9882 N   0  0  0  0  0  0  0  0  0  0  0  0
    6.4576  -13.3099   26.6829 C   0  0  0  0  0  0  0  0  0  0  0  0
    6.5080  -12.0240   27.1893 C   0  0  0  0  0  0  0  0  0  0  0  0
    7.4977  -11.1803   26.6987 C   0  0  0  0  0  0  0  0  0  0  0  0
    8.3836  -11.6310   25.7443 C   0  0  0  0  0  0  0  0  0  0  0  0
    8.3132  -12.9153   25.2556 C   0  0  0  0  0  0  0  0  0  0  0  0
    7.3399  -13.7659   25.7281 C   0  0  0  0  0  0  0  0  0  0  0  0
    7.2694  -16.3684   22.0699 C   0  0  0  0  0  0  0  0  0  0  0  0
    7.7017  -17.3741   21.4522 O   0  0  0  0  0  0  0  0  0  0  0  0
    7.5154  -13.5830   19.6008 C   0  0  0  0  0  0  0  0  0  0  0  0
    7.8289  -14.9940   20.1098 C   0  0  2  0  0  0  0  0  0  0  0  0
    7.3205  -15.0731   21.4363 N   0  0  0  0  0  0  0  0  0  0  0  0
    9.2843  -15.2140   19.9956 C   0  0  0  0  0  0  0  0  0  0  0  0
    9.9511  -15.1624   18.9445 O   0  0  0  0  0  0  0  0  0  0  0  0
   11.2242  -16.2532   23.5056 O   0  0  0  0  0  0  0  0  0  0  0  0
   11.9022  -15.4068   22.6198 C   0  0  0  0  0  0  0  0  0  0  0  0
   11.4525  -15.6779   21.1787 C   0  0  2  0  0  0  0  0  0  0  0  0
   10.0051  -15.5139   21.1906 N   0  0  0  0  0  0  0  0  0  0  0  0
   11.8246  -17.0698   20.8665 C   0  0  0  0  0  0  0  0  0  0  0  0
   13.1053  -17.5153   20.6924 O   0  0  0  0  0  0  0  0  0  0  0  0
   10.8797  -17.9188   20.7511 O   0  0  0  0  0  0  0  0  0  0  0  0
  2  1  1  1
  3  2  1  0
  3  4  1  0
  4 12  1  0
  5  4  2  0
  5  6  1  0
  6  7  1  0
  7  8  1  0
  8  9  2  0
 10  9  1  0
 11 10  2  0
 12  7  2  0
 12 11  1  0
 13  2  1  0
 13 14  2  0
 16 15  1  1
 16 18  1  0
 16 17  1  0
 17 13  1  0
 18 23  1  0
 19 18  2  0
 21 20  1  0
 22 21  1  1
 22 24  1  0
 23 22  1  0
 24 26  2  0
 24 25  1  0
M  END
$$$$
