NLA.pdb
     RDKit          3D

 22 21  0  0  1  0  0  0  0  0999 V2000
    9.8625  -18.2525   19.6727 N   0  0  0  0  0  0  0  0  0  0  0  0
   10.3336  -16.9190   19.6660 C   0  0  0  0  0  0  0  0  0  0  0  0
   10.8897  -16.4829   18.6066 O   0  0  0  0  0  0  0  0  0  0  0  0
   10.2186  -16.0097   20.8081 C   0  0  0  0  0  0  0  0  0  0  0  0
    9.5185  -16.6240   21.9993 C   0  0  2  0  0  0  0  0  0  0  0  0
    8.1480  -16.8996   21.6645 N   0  0  0  0  0  0  0  0  0  0  0  0
    9.5642  -15.7689   23.2001 C   0  0  0  0  0  0  0  0  0  0  0  0
   10.6722  -15.4065   23.6469 O   0  0  0  0  0  0  0  0  0  0  0  0
    5.6142  -12.4413   26.6461 C   0  0  0  0  0  0  0  0  0  0  0  0
    6.9980  -13.0298   26.4850 C   0  0  2  0  0  0  0  0  0  0  0  0
    7.9756  -11.8514   26.4146 C   0  0  0  0  0  0  0  0  0  0  0  0
    7.1289  -13.7773   25.1757 C   0  0  0  0  0  0  0  0  0  0  0  0
    8.3546  -14.6344   25.0979 C   0  0  2  0  0  0  0  0  0  0  0  0
    8.3702  -15.3588   23.8452 N   0  0  0  0  0  0  0  0  0  0  0  0
    8.3412  -15.5683   26.2505 C   0  0  0  0  0  0  0  0  0  0  0  0
    8.4841  -15.1935   27.4497 O   0  0  0  0  0  0  0  0  0  0  0  0
    7.4909  -19.1788   26.6050 C   0  0  0  0  0  0  0  0  0  0  0  0
    8.1720  -17.9178   27.1112 C   0  0  2  0  0  0  0  0  0  0  0  0
    8.1611  -16.9569   26.0309 N   0  0  0  0  0  0  0  0  0  0  0  0
    9.5997  -18.2581   27.4142 C   0  0  0  0  0  0  0  0  0  0  0  0
    9.9771  -18.9638   28.5447 O   0  0  0  0  0  0  0  0  0  0  0  0
   10.4871  -17.8871   26.6069 O   0  0  0  0  0  0  0  0  0  0  0  0
  1  2  1  0
  2  4  1  0
  3  2  2  0
  4  5  1  0
  5  6  1  6
  7  5  1  0
  7  8  2  0
 10  9  1  6
 10 12  1  0
 11 10  1  0
 13 12  1  6
 13 14  1  0
 14  7  1  0
 15 13  1  0
 16 15  2  0
 18 19  1  0
 18 17  1  6
 19 15  1  0
 20 18  1  0
 21 20  1  0
 22 20  2  0
M  END
$$$$
