NLA.pdb
     RDKit          3D

 22 21  0  0  1  0  0  0  0  0999 V2000
   13.0642  -16.5800   15.3169 N   0  0  0  0  0  0  0  0  0  0  0  0
   13.1449  -16.8604   16.7008 C   0  0  0  0  0  0  0  0  0  0  0  0
   13.5791  -18.0028   17.0587 O   0  0  0  0  0  0  0  0  0  0  0  0
   12.7579  -15.9117   17.7471 C   0  0  0  0  0  0  0  0  0  0  0  0
   11.9901  -16.5483   18.8836 C   0  0  2  0  0  0  0  0  0  0  0  0
   10.8286  -17.2183   18.3660 N   0  0  0  0  0  0  0  0  0  0  0  0
   11.5744  -15.5785   19.9141 C   0  0  0  0  0  0  0  0  0  0  0  0
   12.4445  -14.8954   20.4929 O   0  0  0  0  0  0  0  0  0  0  0  0
    8.9393  -11.9589   19.7256 C   0  0  0  0  0  0  0  0  0  0  0  0
    8.2897  -13.3232   19.6614 C   0  0  2  0  0  0  0  0  0  0  0  0
    6.7999  -13.0923   19.3848 C   0  0  0  0  0  0  0  0  0  0  0  0
    8.3754  -14.0365   20.9933 C   0  0  0  0  0  0  0  0  0  0  0  0
    9.7476  -14.5460   21.3101 C   0  0  2  0  0  0  0  0  0  0  0  0
   10.2063  -15.4173   20.2496 N   0  0  0  0  0  0  0  0  0  0  0  0
    9.6859  -15.2711   22.6028 C   0  0  0  0  0  0  0  0  0  0  0  0
    9.2890  -14.7392   23.6791 O   0  0  0  0  0  0  0  0  0  0  0  0
    9.8481  -18.8055   23.6310 C   0  0  0  0  0  0  0  0  0  0  0  0
   10.1722  -17.3489   23.9204 C   0  0  2  0  0  0  0  0  0  0  0  0
   10.0849  -16.6295   22.6693 N   0  0  0  0  0  0  0  0  0  0  0  0
   11.5918  -17.2810   24.3958 C   0  0  0  0  0  0  0  0  0  0  0  0
   12.5828  -16.6091   23.6996 O   0  0  0  0  0  0  0  0  0  0  0  0
   11.8906  -17.8577   25.4705 O   0  0  0  0  0  0  0  0  0  0  0  0
  1  2  1  0
  2  4  1  0
  3  2  2  0
  4  5  1  0
  5  6  1  6
  7  5  1  0
  7  8  2  0
 10  9  1  1
 10 12  1  0
 11 10  1  0
 13 12  1  6
 13 14  1  0
 14  7  1  0
 15 13  1  0
 16 15  2  0
 18 19  1  0
 18 17  1  6
 19 15  1  0
 20 18  1  0
 21 20  1  0
 22 20  2  0
M  END
$$$$
