NLA.pdb
     RDKit          3D

 22 21  0  0  1  0  0  0  0  0999 V2000
   11.6130  -18.3311   16.9206 N   0  0  0  0  0  0  0  0  0  0  0  0
   11.4771  -18.5477   18.3116 C   0  0  0  0  0  0  0  0  0  0  0  0
   11.4403  -19.7491   18.7324 O   0  0  0  0  0  0  0  0  0  0  0  0
   11.3763  -17.4692   19.2970 C   0  0  0  0  0  0  0  0  0  0  0  0
   10.4987  -17.8132   20.4793 C   0  0  2  0  0  0  0  0  0  0  0  0
    9.2452  -18.3398   20.0131 N   0  0  0  0  0  0  0  0  0  0  0  0
   10.2442  -16.6609   21.3641 C   0  0  0  0  0  0  0  0  0  0  0  0
   11.2096  -16.0911   21.9136 O   0  0  0  0  0  0  0  0  0  0  0  0
    8.8990  -12.9110   20.1742 C   0  0  0  0  0  0  0  0  0  0  0  0
    7.7817  -13.9195   20.3217 C   0  0  2  0  0  0  0  0  0  0  0  0
    6.5083  -13.2515   19.7911 C   0  0  0  0  0  0  0  0  0  0  0  0
    7.5233  -14.2455   21.7767 C   0  0  0  0  0  0  0  0  0  0  0  0
    8.6177  -15.0462   22.4124 C   0  0  2  0  0  0  0  0  0  0  0  0
    8.9234  -16.1994   21.5934 N   0  0  0  0  0  0  0  0  0  0  0  0
    8.1650  -15.4599   23.7631 C   0  0  0  0  0  0  0  0  0  0  0  0
    7.7919  -14.6411   24.6516 O   0  0  0  0  0  0  0  0  0  0  0  0
    6.8544  -18.4512   25.3144 C   0  0  0  0  0  0  0  0  0  0  0  0
    7.8271  -17.2903   25.4439 C   0  0  2  0  0  0  0  0  0  0  0  0
    8.1371  -16.8346   24.1073 N   0  0  0  0  0  0  0  0  0  0  0  0
    9.0888  -17.8160   26.0585 C   0  0  0  0  0  0  0  0  0  0  0  0
    9.1399  -18.3194   27.3478 O   0  0  0  0  0  0  0  0  0  0  0  0
   10.1404  -17.7984   25.3724 O   0  0  0  0  0  0  0  0  0  0  0  0
  1  2  1  0
  2  4  1  0
  3  2  2  0
  4  5  1  0
  5  6  1  6
  7  5  1  0
  7  8  2  0
 10  9  1  1
 10 12  1  0
 11 10  1  0
 13 12  1  6
 13 14  1  0
 14  7  1  0
 15 13  1  0
 16 15  2  0
 18 19  1  0
 18 17  1  6
 19 15  1  0
 20 18  1  0
 21 20  1  0
 22 20  2  0
M  END
$$$$
