NLA.pdb
     RDKit          3D

 22 21  0  0  1  0  0  0  0  0999 V2000
    9.5127  -18.0572   19.5131 N   0  0  0  0  0  0  0  0  0  0  0  0
    9.8583  -16.6870   19.4520 C   0  0  0  0  0  0  0  0  0  0  0  0
   10.2680  -16.2191   18.3407 O   0  0  0  0  0  0  0  0  0  0  0  0
    9.7718  -15.7745   20.5940 C   0  0  0  0  0  0  0  0  0  0  0  0
    9.3839  -16.4597   21.8849 C   0  0  2  0  0  0  0  0  0  0  0  0
    8.0605  -17.0070   21.7622 N   0  0  0  0  0  0  0  0  0  0  0  0
    9.4331  -15.5608   23.0531 C   0  0  0  0  0  0  0  0  0  0  0  0
   10.5319  -15.0886   23.4114 O   0  0  0  0  0  0  0  0  0  0  0  0
    5.4459  -12.5256   26.7311 C   0  0  0  0  0  0  0  0  0  0  0  0
    6.8534  -13.0269   26.4967 C   0  0  2  0  0  0  0  0  0  0  0  0
    7.7500  -11.7898   26.3737 C   0  0  0  0  0  0  0  0  0  0  0  0
    6.9611  -13.7697   25.1826 C   0  0  0  0  0  0  0  0  0  0  0  0
    8.2587  -14.4982   25.0136 C   0  0  2  0  0  0  0  0  0  0  0  0
    8.2527  -15.2317   23.7662 N   0  0  0  0  0  0  0  0  0  0  0  0
    8.4292  -15.4152   26.1672 C   0  0  0  0  0  0  0  0  0  0  0  0
    8.5726  -15.0142   27.3578 O   0  0  0  0  0  0  0  0  0  0  0  0
    7.9566  -19.0646   26.6180 C   0  0  0  0  0  0  0  0  0  0  0  0
    8.6085  -17.7586   27.0424 C   0  0  2  0  0  0  0  0  0  0  0  0
    8.4362  -16.8171   25.9587 N   0  0  0  0  0  0  0  0  0  0  0  0
   10.0764  -18.0115   27.2074 C   0  0  0  0  0  0  0  0  0  0  0  0
   10.5960  -18.7402   28.2645 O   0  0  0  0  0  0  0  0  0  0  0  0
   10.8641  -17.5425   26.3493 O   0  0  0  0  0  0  0  0  0  0  0  0
  1  2  1  0
  2  4  1  0
  3  2  2  0
  4  5  1  0
  5  6  1  6
  7  5  1  0
  7  8  2  0
 10  9  1  6
 10 12  1  0
 11 10  1  0
 13 12  1  1
 13 14  1  0
 14  7  1  0
 15 13  1  0
 16 15  2  0
 18 19  1  0
 18 17  1  6
 19 15  1  0
 20 18  1  0
 21 20  1  0
 22 20  2  0
M  END
$$$$
