NLA.pdb
     RDKit          3D

 22 21  0  0  1  0  0  0  0  0999 V2000
   10.3437  -17.9810   14.4782 N   0  0  0  0  0  0  0  0  0  0  0  0
   10.0280  -18.1037   15.8514 C   0  0  0  0  0  0  0  0  0  0  0  0
    9.4294  -19.1589   16.2389 O   0  0  0  0  0  0  0  0  0  0  0  0
   10.3502  -17.0866   16.8543 C   0  0  0  0  0  0  0  0  0  0  0  0
   10.2273  -17.5833   18.2773 C   0  0  2  0  0  0  0  0  0  0  0  0
    8.9168  -18.1364   18.4841 N   0  0  0  0  0  0  0  0  0  0  0  0
   10.4756  -16.5305   19.2798 C   0  0  0  0  0  0  0  0  0  0  0  0
   11.6068  -16.0061   19.3438 O   0  0  0  0  0  0  0  0  0  0  0  0
    8.7935  -12.6565   19.3743 C   0  0  0  0  0  0  0  0  0  0  0  0
    7.8958  -13.7421   19.9248 C   0  0  2  0  0  0  0  0  0  0  0  0
    6.5287  -13.0986   20.1825 C   0  0  0  0  0  0  0  0  0  0  0  0
    8.3953  -14.2433   21.2624 C   0  0  0  0  0  0  0  0  0  0  0  0
    9.6327  -15.0810   21.1614 C   0  0  2  0  0  0  0  0  0  0  0  0
    9.4487  -16.1129   20.1637 N   0  0  0  0  0  0  0  0  0  0  0  0
    9.9011  -15.6741   22.4945 C   0  0  0  0  0  0  0  0  0  0  0  0
   10.0388  -14.9855   23.5460 O   0  0  0  0  0  0  0  0  0  0  0  0
    9.6894  -19.0009   24.0170 C   0  0  0  0  0  0  0  0  0  0  0  0
   10.4655  -17.7041   23.8547 C   0  0  2  0  0  0  0  0  0  0  0  0
   10.0145  -17.0804   22.6308 N   0  0  0  0  0  0  0  0  0  0  0  0
   11.9134  -18.0541   23.6902 C   0  0  0  0  0  0  0  0  0  0  0  0
   12.6781  -18.5785   24.7191 O   0  0  0  0  0  0  0  0  0  0  0  0
   12.4513  -17.8632   22.5717 O   0  0  0  0  0  0  0  0  0  0  0  0
  1  2  1  0
  2  4  1  0
  3  2  2  0
  4  5  1  0
  5  6  1  6
  7  5  1  0
  7  8  2  0
 10  9  1  1
 10 12  1  0
 11 10  1  0
 13 12  1  1
 13 14  1  0
 14  7  1  0
 15 13  1  0
 16 15  2  0
 18 19  1  0
 18 17  1  6
 19 15  1  0
 20 18  1  0
 21 20  1  0
 22 20  2  0
M  END
$$$$
