NLA.pdb
     RDKit          3D

 22 21  0  0  1  0  0  0  0  0999 V2000
    8.0553  -15.4558   18.6231 N   0  0  0  0  0  0  0  0  0  0  0  0
    8.1244  -14.1763   19.2219 C   0  0  0  0  0  0  0  0  0  0  0  0
    8.0210  -13.1539   18.4696 O   0  0  0  0  0  0  0  0  0  0  0  0
    8.3078  -13.9591   20.6583 C   0  0  0  0  0  0  0  0  0  0  0  0
    8.3399  -15.2395   21.4621 C   0  0  2  0  0  0  0  0  0  0  0  0
    7.0256  -15.8204   21.4975 N   0  0  0  0  0  0  0  0  0  0  0  0
    8.8231  -15.0432   22.8418 C   0  0  0  0  0  0  0  0  0  0  0  0
   10.0459  -14.8909   23.0421 O   0  0  0  0  0  0  0  0  0  0  0  0
    8.1862  -11.9618   26.0974 C   0  0  0  0  0  0  0  0  0  0  0  0
    7.0195  -12.8552   25.7397 C   0  0  2  0  0  0  0  0  0  0  0  0
    5.8256  -12.3816   26.5762 C   0  0  0  0  0  0  0  0  0  0  0  0
    7.2833  -14.2909   26.1392 C   0  0  0  0  0  0  0  0  0  0  0  0
    8.3423  -14.9548   25.3142 C   0  0  2  0  0  0  0  0  0  0  0  0
    7.9176  -15.0261   23.9326 N   0  0  0  0  0  0  0  0  0  0  0  0
    8.5783  -16.3110   25.8671 C   0  0  0  0  0  0  0  0  0  0  0  0
    7.6485  -17.1307   26.1169 O   0  0  0  0  0  0  0  0  0  0  0  0
   11.5667  -18.4452   25.9495 C   0  0  0  0  0  0  0  0  0  0  0  0
   10.2068  -18.0983   26.5332 C   0  0  2  0  0  0  0  0  0  0  0  0
    9.9011  -16.7408   26.1404 N   0  0  0  0  0  0  0  0  0  0  0  0
   10.3268  -18.1326   28.0266 C   0  0  0  0  0  0  0  0  0  0  0  0
   10.3109  -16.9872   28.8051 O   0  0  0  0  0  0  0  0  0  0  0  0
   10.4456  -19.2478   28.5914 O   0  0  0  0  0  0  0  0  0  0  0  0
  1  2  1  0
  2  4  1  0
  3  2  2  0
  4  5  1  0
  5  6  1  1
  7  5  1  0
  7  8  2  0
 10  9  1  1
 10 12  1  0
 11 10  1  0
 13 12  1  1
 13 14  1  0
 14  7  1  0
 15 13  1  0
 16 15  2  0
 18 19  1  0
 18 17  1  6
 19 15  1  0
 20 18  1  0
 21 20  1  0
 22 20  2  0
M  END
$$$$
