NLA.pdb
     RDKit          3D

 22 21  0  0  1  0  0  0  0  0999 V2000
    6.4926  -20.8680   23.7293 N   0  0  0  0  0  0  0  0  0  0  0  0
    7.4098  -20.4612   24.7261 C   0  0  0  0  0  0  0  0  0  0  0  0
    7.8334  -21.3376   25.5473 O   0  0  0  0  0  0  0  0  0  0  0  0
    7.9014  -19.0892   24.8683 C   0  0  0  0  0  0  0  0  0  0  0  0
    7.2275  -18.1080   23.9357 C   0  0  2  0  0  0  0  0  0  0  0  0
    7.4195  -18.5264   22.5740 N   0  0  0  0  0  0  0  0  0  0  0  0
    7.7212  -16.7274   24.0953 C   0  0  0  0  0  0  0  0  0  0  0  0
    8.7291  -16.3639   23.4546 O   0  0  0  0  0  0  0  0  0  0  0  0
    5.8719  -11.5751   27.1212 C   0  0  0  0  0  0  0  0  0  0  0  0
    6.8868  -12.2647   26.2371 C   0  0  2  0  0  0  0  0  0  0  0  0
    6.8561  -11.5468   24.8832 C   0  0  0  0  0  0  0  0  0  0  0  0
    6.4978  -13.7029   25.9713 C   0  0  0  0  0  0  0  0  0  0  0  0
    7.5144  -14.4580   25.1717 C   0  0  2  0  0  0  0  0  0  0  0  0
    7.0656  -15.8178   24.9631 N   0  0  0  0  0  0  0  0  0  0  0  0
    8.7996  -14.4313   25.9122 C   0  0  0  0  0  0  0  0  0  0  0  0
    9.7012  -13.5686   25.7077 O   0  0  0  0  0  0  0  0  0  0  0  0
   10.0628  -14.3331   28.7919 C   0  0  0  0  0  0  0  0  0  0  0  0
   10.2604  -15.3859   27.7134 C   0  0  2  0  0  0  0  0  0  0  0  0
    9.0615  -15.4078   26.9056 N   0  0  0  0  0  0  0  0  0  0  0  0
   10.3875  -16.7169   28.3902 C   0  0  0  0  0  0  0  0  0  0  0  0
    9.5452  -17.7809   28.1129 O   0  0  0  0  0  0  0  0  0  0  0  0
   11.2968  -16.8699   29.2426 O   0  0  0  0  0  0  0  0  0  0  0  0
  1  2  1  0
  2  4  1  0
  3  2  2  0
  4  5  1  0
  5  6  1  6
  7  5  1  0
  7  8  2  0
 10  9  1  1
 10 12  1  0
 11 10  1  0
 13 12  1  1
 13 14  1  0
 14  7  1  0
 15 13  1  0
 16 15  2  0
 18 19  1  0
 18 17  1  1
 19 15  1  0
 20 18  1  0
 21 20  1  0
 22 20  2  0
M  END
$$$$
