NLA.pdb
     RDKit          3D

 22 21  0  0  1  0  0  0  0  0999 V2000
    8.3403  -17.1293   19.7465 N   0  0  0  0  0  0  0  0  0  0  0  0
    8.7377  -15.7795   19.8892 C   0  0  0  0  0  0  0  0  0  0  0  0
    9.0045  -15.1164   18.8352 O   0  0  0  0  0  0  0  0  0  0  0  0
    8.8599  -15.0995   21.1803 C   0  0  0  0  0  0  0  0  0  0  0  0
    8.6111  -16.0060   22.3647 C   0  0  2  0  0  0  0  0  0  0  0  0
    7.2208  -16.3679   22.4120 N   0  0  0  0  0  0  0  0  0  0  0  0
    8.9999  -15.3964   23.6502 C   0  0  0  0  0  0  0  0  0  0  0  0
   10.1956  -15.0934   23.8427 O   0  0  0  0  0  0  0  0  0  0  0  0
    7.6726  -11.7422   25.1678 C   0  0  0  0  0  0  0  0  0  0  0  0
    6.7148  -12.8711   25.4770 C   0  0  2  0  0  0  0  0  0  0  0  0
    5.4678  -12.2359   26.1022 C   0  0  0  0  0  0  0  0  0  0  0  0
    7.2879  -13.8096   26.5167 C   0  0  0  0  0  0  0  0  0  0  0  0
    8.3763  -14.6924   25.9884 C   0  0  2  0  0  0  0  0  0  0  0  0
    8.0348  -15.1538   24.6600 N   0  0  0  0  0  0  0  0  0  0  0  0
    8.5403  -15.8346   26.9208 C   0  0  0  0  0  0  0  0  0  0  0  0
    8.7934  -15.6953   28.1518 O   0  0  0  0  0  0  0  0  0  0  0  0
    7.8404  -19.4709   26.6739 C   0  0  0  0  0  0  0  0  0  0  0  0
    8.6104  -18.3142   27.2900 C   0  0  2  0  0  0  0  0  0  0  0  0
    8.4132  -17.1616   26.4395 N   0  0  0  0  0  0  0  0  0  0  0  0
   10.0667  -18.6667   27.2622 C   0  0  0  0  0  0  0  0  0  0  0  0
   10.6224  -19.6186   28.1010 O   0  0  0  0  0  0  0  0  0  0  0  0
   10.8101  -18.0728   26.4427 O   0  0  0  0  0  0  0  0  0  0  0  0
  1  2  1  0
  2  4  1  0
  3  2  2  0
  4  5  1  0
  5  6  1  1
  7  5  1  0
  7  8  2  0
 10  9  1  1
 10 12  1  0
 11 10  1  0
 13 12  1  1
 13 14  1  0
 14  7  1  0
 15 13  1  0
 16 15  2  0
 18 19  1  0
 18 17  1  6
 19 15  1  0
 20 18  1  0
 21 20  1  0
 22 20  2  0
M  END
$$$$
