NLA.pdb
     RDKit          3D

 22 21  0  0  1  0  0  0  0  0999 V2000
    7.2573  -12.9259   17.5527 N   0  0  0  0  0  0  0  0  0  0  0  0
    8.0932  -13.8514   18.2200 C   0  0  0  0  0  0  0  0  0  0  0  0
    8.3747  -14.9432   17.6278 O   0  0  0  0  0  0  0  0  0  0  0  0
    8.6546  -13.6263   19.5535 C   0  0  0  0  0  0  0  0  0  0  0  0
    8.3657  -14.7475   20.5261 C   0  0  2  0  0  0  0  0  0  0  0  0
    6.9668  -15.0752   20.4834 N   0  0  0  0  0  0  0  0  0  0  0  0
    8.7477  -14.4218   21.9129 C   0  0  0  0  0  0  0  0  0  0  0  0
    9.9401  -14.1543   22.1685 O   0  0  0  0  0  0  0  0  0  0  0  0
    6.0842  -12.6320   27.1932 C   0  0  0  0  0  0  0  0  0  0  0  0
    7.2970  -13.2113   26.4998 C   0  0  2  0  0  0  0  0  0  0  0  0
    8.3968  -12.1458   26.5661 C   0  0  0  0  0  0  0  0  0  0  0  0
    7.0252  -13.4596   25.0319 C   0  0  0  0  0  0  0  0  0  0  0  0
    8.1147  -14.2233   24.3443 C   0  0  2  0  0  0  0  0  0  0  0  0
    7.7799  -14.4100   22.9489 N   0  0  0  0  0  0  0  0  0  0  0  0
    8.2707  -15.5287   25.0315 C   0  0  0  0  0  0  0  0  0  0  0  0
    7.2935  -16.2543   25.3742 O   0  0  0  0  0  0  0  0  0  0  0  0
   11.0133  -17.9012   25.0686 C   0  0  0  0  0  0  0  0  0  0  0  0
    9.7954  -17.3645   25.8029 C   0  0  2  0  0  0  0  0  0  0  0  0
    9.5669  -16.0161   25.3338 N   0  0  0  0  0  0  0  0  0  0  0  0
   10.1327  -17.2968   27.2615 C   0  0  0  0  0  0  0  0  0  0  0  0
   10.2315  -16.1002   27.9519 O   0  0  0  0  0  0  0  0  0  0  0  0
   10.3324  -18.3715   27.8795 O   0  0  0  0  0  0  0  0  0  0  0  0
  1  2  1  0
  2  4  1  0
  3  2  2  0
  4  5  1  0
  5  6  1  1
  7  5  1  0
  7  8  2  0
 10  9  1  1
 10 12  1  0
 11 10  1  0
 13 12  1  1
 13 14  1  0
 14  7  1  0
 15 13  1  0
 16 15  2  0
 18 19  1  0
 18 17  1  6
 19 15  1  0
 20 18  1  0
 21 20  1  0
 22 20  2  0
M  END
$$$$
