NLA.pdb
     RDKit          3D

 22 21  0  0  1  0  0  0  0  0999 V2000
   10.4961  -18.8032   15.6471 N   0  0  0  0  0  0  0  0  0  0  0  0
   11.3804  -18.4871   16.7047 C   0  0  0  0  0  0  0  0  0  0  0  0
   12.3868  -19.2442   16.8938 O   0  0  0  0  0  0  0  0  0  0  0  0
   11.2055  -17.3381   17.5955 C   0  0  0  0  0  0  0  0  0  0  0  0
   11.0057  -17.7236   19.0440 C   0  0  2  0  0  0  0  0  0  0  0  0
    9.7984  -18.4923   19.1769 N   0  0  0  0  0  0  0  0  0  0  0  0
   10.9443  -16.5599   19.9480 C   0  0  0  0  0  0  0  0  0  0  0  0
   11.9491  -15.8284   20.0669 O   0  0  0  0  0  0  0  0  0  0  0  0
    6.6912  -12.9397   20.7562 C   0  0  0  0  0  0  0  0  0  0  0  0
    8.1003  -13.4855   20.6925 C   0  0  2  0  0  0  0  0  0  0  0  0
    8.2882  -14.0649   19.2860 C   0  0  0  0  0  0  0  0  0  0  0  0
    8.2900  -14.6332   21.6604 C   0  0  0  0  0  0  0  0  0  0  0  0
    9.6761  -15.2002   21.6494 C   0  0  2  0  0  0  0  0  0  0  0  0
    9.7636  -16.2679   20.6765 N   0  0  0  0  0  0  0  0  0  0  0  0
    9.9842  -15.6981   23.0124 C   0  0  0  0  0  0  0  0  0  0  0  0
    9.9441  -14.9680   24.0440 O   0  0  0  0  0  0  0  0  0  0  0  0
   10.1935  -19.0074   24.5748 C   0  0  0  0  0  0  0  0  0  0  0  0
   10.7165  -17.5823   24.4968 C   0  0  2  0  0  0  0  0  0  0  0  0
   10.3450  -17.0555   23.2026 N   0  0  0  0  0  0  0  0  0  0  0  0
   12.2126  -17.6390   24.5618 C   0  0  0  0  0  0  0  0  0  0  0  0
   12.9012  -17.9033   25.7342 O   0  0  0  0  0  0  0  0  0  0  0  0
   12.8649  -17.4390   23.5076 O   0  0  0  0  0  0  0  0  0  0  0  0
  1  2  1  0
  2  4  1  0
  3  2  2  0
  4  5  1  0
  5  6  1  6
  7  5  1  0
  7  8  2  0
 10  9  1  6
 10 12  1  0
 11 10  1  0
 13 12  1  1
 13 14  1  0
 14  7  1  0
 15 13  1  0
 16 15  2  0
 18 19  1  0
 18 17  1  6
 19 15  1  0
 20 18  1  0
 21 20  1  0
 22 20  2  0
M  END
$$$$
