NLA.pdb
     RDKit          3D

 22 21  0  0  1  0  0  0  0  0999 V2000
   10.2014  -16.1770   18.7647 N   0  0  0  0  0  0  0  0  0  0  0  0
    9.1534  -16.0064   19.6991 C   0  0  0  0  0  0  0  0  0  0  0  0
    7.9869  -16.3998   19.3729 O   0  0  0  0  0  0  0  0  0  0  0  0
    9.3325  -15.4034   21.0214 C   0  0  0  0  0  0  0  0  0  0  0  0
    8.9005  -16.3029   22.1575 C   0  0  2  0  0  0  0  0  0  0  0  0
    7.4854  -16.5406   22.0739 N   0  0  0  0  0  0  0  0  0  0  0  0
    9.2242  -15.7508   23.4863 C   0  0  0  0  0  0  0  0  0  0  0  0
   10.4036  -15.4298   23.7407 O   0  0  0  0  0  0  0  0  0  0  0  0
    8.2455  -12.0209   25.6021 C   0  0  0  0  0  0  0  0  0  0  0  0
    7.0955  -12.9899   25.4413 C   0  0  2  0  0  0  0  0  0  0  0  0
    5.8530  -12.3032   26.0192 C   0  0  0  0  0  0  0  0  0  0  0  0
    7.3145  -14.2442   26.2592 C   0  0  0  0  0  0  0  0  0  0  0  0
    8.4777  -15.0647   25.7935 C   0  0  2  0  0  0  0  0  0  0  0  0
    8.2154  -15.5830   24.4682 N   0  0  0  0  0  0  0  0  0  0  0  0
    8.6844  -16.1682   26.7633 C   0  0  0  0  0  0  0  0  0  0  0  0
    8.9006  -15.9791   27.9947 O   0  0  0  0  0  0  0  0  0  0  0  0
    8.3332  -19.8782   26.4886 C   0  0  0  0  0  0  0  0  0  0  0  0
    8.7929  -18.6307   27.2255 C   0  0  2  0  0  0  0  0  0  0  0  0
    8.6435  -17.5137   26.3197 N   0  0  0  0  0  0  0  0  0  0  0  0
   10.2519  -18.7893   27.5290 C   0  0  0  0  0  0  0  0  0  0  0  0
   10.7203  -19.6034   28.5469 O   0  0  0  0  0  0  0  0  0  0  0  0
   11.0804  -18.1568   26.8287 O   0  0  0  0  0  0  0  0  0  0  0  0
  1  2  1  0
  2  4  1  0
  3  2  2  0
  4  5  1  0
  5  6  1  1
  7  5  1  0
  7  8  2  0
 10  9  1  1
 10 12  1  0
 11 10  1  0
 13 12  1  1
 13 14  1  0
 14  7  1  0
 15 13  1  0
 16 15  2  0
 18 19  1  0
 18 17  1  6
 19 15  1  0
 20 18  1  0
 21 20  1  0
 22 20  2  0
M  END
$$$$
