NLA.pdb
     RDKit          3D

 22 21  0  0  1  0  0  0  0  0999 V2000
    9.5265  -15.5534   18.5072 N   0  0  0  0  0  0  0  0  0  0  0  0
    8.5111  -15.5549   19.4918 C   0  0  0  0  0  0  0  0  0  0  0  0
    7.4097  -16.1331   19.2190 O   0  0  0  0  0  0  0  0  0  0  0  0
    8.6534  -14.9295   20.8082 C   0  0  0  0  0  0  0  0  0  0  0  0
    8.7784  -15.9261   21.9384 C   0  0  2  0  0  0  0  0  0  0  0  0
    7.5452  -16.6504   22.0822 N   0  0  0  0  0  0  0  0  0  0  0  0
    9.1274  -15.2978   23.2264 C   0  0  0  0  0  0  0  0  0  0  0  0
   10.2415  -14.7487   23.3532 O   0  0  0  0  0  0  0  0  0  0  0  0
    7.9619  -11.7979   25.7050 C   0  0  0  0  0  0  0  0  0  0  0  0
    6.9104  -12.8728   25.5432 C   0  0  2  0  0  0  0  0  0  0  0  0
    5.6537  -12.3763   26.2666 C   0  0  0  0  0  0  0  0  0  0  0  0
    7.3249  -14.1558   26.2305 C   0  0  0  0  0  0  0  0  0  0  0  0
    8.5369  -14.7930   25.6239 C   0  0  2  0  0  0  0  0  0  0  0  0
    8.2156  -15.3123   24.3119 N   0  0  0  0  0  0  0  0  0  0  0  0
    8.9911  -15.8785   26.5273 C   0  0  0  0  0  0  0  0  0  0  0  0
    9.1814  -15.7164   27.7668 O   0  0  0  0  0  0  0  0  0  0  0  0
    9.4195  -19.5578   26.0320 C   0  0  0  0  0  0  0  0  0  0  0  0
    9.6013  -18.2896   26.8500 C   0  0  2  0  0  0  0  0  0  0  0  0
    9.2331  -17.1744   26.0067 N   0  0  0  0  0  0  0  0  0  0  0  0
   11.0578  -18.1610   27.1785 C   0  0  0  0  0  0  0  0  0  0  0  0
   11.6836  -18.9524   28.1274 O   0  0  0  0  0  0  0  0  0  0  0  0
   11.7352  -17.2997   26.5653 O   0  0  0  0  0  0  0  0  0  0  0  0
  1  2  1  0
  2  4  1  0
  3  2  2  0
  4  5  1  0
  5  6  1  1
  7  5  1  0
  7  8  2  0
 10  9  1  1
 10 12  1  0
 11 10  1  0
 13 12  1  1
 13 14  1  0
 14  7  1  0
 15 13  1  0
 16 15  2  0
 18 19  1  0
 18 17  1  6
 19 15  1  0
 20 18  1  0
 21 20  1  0
 22 20  2  0
M  END
$$$$
