GPV.pdb
     RDKit          3D

 19 19  0  0  1  0  0  0  0  0999 V2000
   10.7965  -17.8720   19.7536 N   0  0  0  0  0  0  0  0  0  0  0  0
    9.5149  -17.4304   20.1765 C   0  0  0  0  0  0  0  0  0  0  0  0
    9.4899  -16.3494   21.1674 C   0  0  0  0  0  0  0  0  0  0  0  0
   10.3361  -16.3348   22.1311 O   0  0  0  0  0  0  0  0  0  0  0  0
    8.5588  -15.2634   21.1482 N   0  0  0  0  0  0  0  0  0  0  0  0
    7.8038  -14.9560   19.9587 C   0  0  0  0  0  0  0  0  0  0  0  0
    7.0978  -13.6424   20.2377 C   0  0  0  0  0  0  0  0  0  0  0  0
    6.9520  -13.6775   21.7304 C   0  0  0  0  0  0  0  0  0  0  0  0
    8.2103  -14.3530   22.1823 C   0  0  1  0  0  0  0  0  0  0  0  0
    8.0326  -14.9598   23.5258 C   0  0  0  0  0  0  0  0  0  0  0  0
    7.6484  -16.1269   23.6282 O   0  0  0  0  0  0  0  0  0  0  0  0
    9.6634  -12.9653   26.8658 C   0  0  0  0  0  0  0  0  0  0  0  0
    8.2998  -13.5803   27.0362 C   0  0  2  0  0  0  0  0  0  0  0  0
    8.1269  -14.1035   28.4444 C   0  0  0  0  0  0  0  0  0  0  0  0
    8.0229  -14.6455   26.0020 C   0  0  2  0  0  0  0  0  0  0  0  0
    8.3063  -14.1915   24.6713 N   0  0  0  0  0  0  0  0  0  0  0  0
    6.6059  -15.0703   26.1549 C   0  0  0  0  0  0  0  0  0  0  0  0
    6.3261  -16.2518   26.8136 O   0  0  0  0  0  0  0  0  0  0  0  0
    5.6332  -14.4060   25.7123 O   0  0  0  0  0  0  0  0  0  0  0  0
  2  1  1  0
  3  4  2  0
  3  2  1  0
  5  3  1  0
  6  5  1  0
  7  6  1  0
  8  7  1  0
  8  9  1  0
  9  5  1  0
  9 10  1  1
 10 16  1  0
 11 10  2  0
 13 12  1  1
 13 15  1  0
 14 13  1  0
 15 16  1  6
 17 15  1  0
 18 17  1  0
 19 17  2  0
M  END
$$$$
