GPV.pdb
     RDKit          3D

 19 19  0  0  1  0  0  0  0  0999 V2000
    7.0693  -17.9166   18.4004 N   0  0  0  0  0  0  0  0  0  0  0  0
    6.5499  -16.8726   19.2107 C   0  0  0  0  0  0  0  0  0  0  0  0
    7.4333  -16.3611   20.2638 C   0  0  0  0  0  0  0  0  0  0  0  0
    8.0819  -17.1729   21.0156 O   0  0  0  0  0  0  0  0  0  0  0  0
    7.6395  -14.9715   20.5347 N   0  0  0  0  0  0  0  0  0  0  0  0
    7.1885  -13.9616   19.6095 C   0  0  0  0  0  0  0  0  0  0  0  0
    7.7583  -12.6482   20.1116 C   0  0  0  0  0  0  0  0  0  0  0  0
    7.8801  -12.9039   21.5849 C   0  0  0  0  0  0  0  0  0  0  0  0
    8.2616  -14.3509   21.6517 C   0  0  1  0  0  0  0  0  0  0  0  0
    7.9119  -14.9305   22.9733 C   0  0  0  0  0  0  0  0  0  0  0  0
    6.7329  -14.9828   23.3300 O   0  0  0  0  0  0  0  0  0  0  0  0
    8.9999  -18.3419   24.4356 C   0  0  0  0  0  0  0  0  0  0  0  0
    8.0719  -17.3299   25.0532 C   0  0  2  0  0  0  0  0  0  0  0  0
    6.7431  -17.3201   24.3316 C   0  0  0  0  0  0  0  0  0  0  0  0
    8.6900  -15.9533   25.1131 C   0  0  2  0  0  0  0  0  0  0  0  0
    8.9357  -15.4153   23.8065 N   0  0  0  0  0  0  0  0  0  0  0  0
    9.9364  -16.0490   25.9187 C   0  0  0  0  0  0  0  0  0  0  0  0
    9.8436  -16.3128   27.2713 O   0  0  0  0  0  0  0  0  0  0  0  0
   11.0874  -15.9015   25.4319 O   0  0  0  0  0  0  0  0  0  0  0  0
  2  1  1  0
  3  4  2  0
  3  2  1  0
  5  3  1  0
  6  5  1  0
  7  6  1  0
  8  7  1  0
  8  9  1  0
  9  5  1  0
  9 10  1  1
 10 16  1  0
 11 10  2  0
 13 12  1  6
 13 15  1  0
 14 13  1  0
 15 16  1  6
 17 15  1  0
 18 17  1  0
 19 17  2  0
M  END
$$$$
