GPV.pdb
     RDKit          3D

 19 19  0  0  1  0  0  0  0  0999 V2000
    8.3809  -16.3750   15.8551 N   0  0  0  0  0  0  0  0  0  0  0  0
    7.7208  -15.8392   16.9924 C   0  0  0  0  0  0  0  0  0  0  0  0
    8.5562  -15.5718   18.1678 C   0  0  0  0  0  0  0  0  0  0  0  0
    9.4557  -16.4123   18.5275 O   0  0  0  0  0  0  0  0  0  0  0  0
    8.4456  -14.4010   18.9825 N   0  0  0  0  0  0  0  0  0  0  0  0
    7.6167  -13.2927   18.5778 C   0  0  0  0  0  0  0  0  0  0  0  0
    7.9084  -12.1711   19.5570 C   0  0  0  0  0  0  0  0  0  0  0  0
    8.3182  -12.9285   20.7856 C   0  0  0  0  0  0  0  0  0  0  0  0
    9.0573  -14.1075   20.2313 C   0  0  1  0  0  0  0  0  0  0  0  0
    9.0747  -15.2277   21.2058 C   0  0  0  0  0  0  0  0  0  0  0  0
    8.0313  -15.8279   21.4724 O   0  0  0  0  0  0  0  0  0  0  0  0
   12.7516  -17.1767   21.9292 C   0  0  0  0  0  0  0  0  0  0  0  0
   11.3787  -17.7508   22.1578 C   0  0  2  0  0  0  0  0  0  0  0  0
   10.8619  -18.4061   20.8968 C   0  0  0  0  0  0  0  0  0  0  0  0
   10.4131  -16.7203   22.6929 C   0  0  2  0  0  0  0  0  0  0  0  0
   10.2880  -15.5921   21.8162 N   0  0  0  0  0  0  0  0  0  0  0  0
   10.8775  -16.3225   24.0485 C   0  0  0  0  0  0  0  0  0  0  0  0
   10.5315  -17.1041   25.1335 O   0  0  0  0  0  0  0  0  0  0  0  0
   11.5777  -15.3000   24.2672 O   0  0  0  0  0  0  0  0  0  0  0  0
  2  1  1  0
  3  4  2  0
  3  2  1  0
  5  3  1  0
  6  5  1  0
  7  6  1  0
  8  7  1  0
  8  9  1  0
  9  5  1  0
  9 10  1  1
 10 16  1  0
 11 10  2  0
 13 12  1  6
 13 15  1  0
 14 13  1  0
 15 16  1  6
 17 15  1  0
 18 17  1  0
 19 17  2  0
M  END
$$$$
