GPV.pdb
     RDKit          3D

 19 19  0  0  1  0  0  0  0  0999 V2000
   11.8849  -17.1564   20.3444 N   0  0  0  0  0  0  0  0  0  0  0  0
   10.5080  -17.1718   20.6908 C   0  0  0  0  0  0  0  0  0  0  0  0
   10.0323  -16.0668   21.5297 C   0  0  0  0  0  0  0  0  0  0  0  0
   10.7710  -15.6037   22.4704 O   0  0  0  0  0  0  0  0  0  0  0  0
    8.7570  -15.4360   21.3802 N   0  0  0  0  0  0  0  0  0  0  0  0
    7.9536  -15.6592   20.2037 C   0  0  0  0  0  0  0  0  0  0  0  0
    6.7963  -14.6823   20.2945 C   0  0  0  0  0  0  0  0  0  0  0  0
    6.6602  -14.4968   21.7770 C   0  0  0  0  0  0  0  0  0  0  0  0
    8.0766  -14.5524   22.2612 C   0  0  1  0  0  0  0  0  0  0  0  0
    8.1311  -14.9252   23.6975 C   0  0  0  0  0  0  0  0  0  0  0  0
    8.5189  -16.0480   24.0277 O   0  0  0  0  0  0  0  0  0  0  0  0
    5.7465  -12.7889   26.5689 C   0  0  0  0  0  0  0  0  0  0  0  0
    7.1804  -13.1225   26.8841 C   0  0  2  0  0  0  0  0  0  0  0  0
    8.0567  -11.9010   26.7209 C   0  0  0  0  0  0  0  0  0  0  0  0
    7.6851  -14.2901   26.0698 C   0  0  2  0  0  0  0  0  0  0  0  0
    7.7376  -13.9876   24.6688 N   0  0  0  0  0  0  0  0  0  0  0  0
    6.8074  -15.4563   26.3546 C   0  0  0  0  0  0  0  0  0  0  0  0
    7.1012  -16.2715   27.4303 O   0  0  0  0  0  0  0  0  0  0  0  0
    5.7978  -15.7475   25.6621 O   0  0  0  0  0  0  0  0  0  0  0  0
  2  1  1  0
  3  4  2  0
  3  2  1  0
  5  3  1  0
  6  5  1  0
  7  6  1  0
  8  7  1  0
  8  9  1  0
  9  5  1  0
  9 10  1  1
 10 16  1  0
 11 10  2  0
 13 12  1  6
 13 15  1  0
 14 13  1  0
 15 16  1  6
 17 15  1  0
 18 17  1  0
 19 17  2  0
M  END
$$$$
