GPV.pdb
     RDKit          3D

 19 19  0  0  1  0  0  0  0  0999 V2000
    8.1597  -16.4337   15.8086 N   0  0  0  0  0  0  0  0  0  0  0  0
    7.5480  -16.0191   17.0211 C   0  0  0  0  0  0  0  0  0  0  0  0
    8.4477  -15.7396   18.1451 C   0  0  0  0  0  0  0  0  0  0  0  0
    9.4030  -16.5478   18.4262 O   0  0  0  0  0  0  0  0  0  0  0  0
    8.3428  -14.5910   18.9916 N   0  0  0  0  0  0  0  0  0  0  0  0
    7.4480  -13.5087   18.6640 C   0  0  0  0  0  0  0  0  0  0  0  0
    7.7565  -12.3966   19.6488 C   0  0  0  0  0  0  0  0  0  0  0  0
    8.2712  -13.1617   20.8322 C   0  0  0  0  0  0  0  0  0  0  0  0
    9.0194  -14.2987   20.2067 C   0  0  1  0  0  0  0  0  0  0  0  0
    9.1409  -15.4369   21.1526 C   0  0  0  0  0  0  0  0  0  0  0  0
    8.1506  -16.1186   21.4257 O   0  0  0  0  0  0  0  0  0  0  0  0
   11.7420  -18.1069   20.6860 C   0  0  0  0  0  0  0  0  0  0  0  0
   11.8441  -17.6493   22.1167 C   0  0  2  0  0  0  0  0  0  0  0  0
   12.1237  -18.8221   23.0293 C   0  0  0  0  0  0  0  0  0  0  0  0
   10.6244  -16.8738   22.5544 C   0  0  2  0  0  0  0  0  0  0  0  0
   10.3911  -15.7247   21.7283 N   0  0  0  0  0  0  0  0  0  0  0  0
   10.8090  -16.5038   23.9828 C   0  0  0  0  0  0  0  0  0  0  0  0
   11.5225  -15.3629   24.2946 O   0  0  0  0  0  0  0  0  0  0  0  0
   10.3460  -17.1800   24.9378 O   0  0  0  0  0  0  0  0  0  0  0  0
  2  1  1  0
  3  4  2  0
  3  2  1  0
  5  3  1  0
  6  5  1  0
  7  6  1  0
  8  7  1  0
  8  9  1  0
  9  5  1  0
  9 10  1  1
 10 16  1  0
 11 10  2  0
 13 12  1  6
 13 15  1  0
 14 13  1  0
 15 16  1  6
 17 15  1  0
 18 17  1  0
 19 17  2  0
M  END
$$$$
