GPV.pdb
     RDKit          3D

 19 19  0  0  1  0  0  0  0  0999 V2000
   11.7350  -17.3634   20.1478 N   0  0  0  0  0  0  0  0  0  0  0  0
   10.4369  -17.4567   20.7155 C   0  0  0  0  0  0  0  0  0  0  0  0
    9.9247  -16.2525   21.3778 C   0  0  0  0  0  0  0  0  0  0  0  0
   10.6818  -15.5703   22.1565 O   0  0  0  0  0  0  0  0  0  0  0  0
    8.5927  -15.7546   21.2214 N   0  0  0  0  0  0  0  0  0  0  0  0
    7.7278  -16.2650   20.1866 C   0  0  0  0  0  0  0  0  0  0  0  0
    6.5009  -15.3725   20.1872 C   0  0  0  0  0  0  0  0  0  0  0  0
    6.4578  -14.9024   21.6112 C   0  0  0  0  0  0  0  0  0  0  0  0
    7.9052  -14.7612   21.9700 C   0  0  1  0  0  0  0  0  0  0  0  0
    8.0958  -14.8327   23.4408 C   0  0  0  0  0  0  0  0  0  0  0  0
    8.5941  -15.8395   23.9487 O   0  0  0  0  0  0  0  0  0  0  0  0
    7.7250  -12.2895   27.7138 C   0  0  0  0  0  0  0  0  0  0  0  0
    7.2780  -12.4844   26.2894 C   0  0  2  0  0  0  0  0  0  0  0  0
    5.7683  -12.5107   26.2069 C   0  0  0  0  0  0  0  0  0  0  0  0
    7.8974  -13.7103   25.6615 C   0  0  2  0  0  0  0  0  0  0  0  0
    7.7033  -13.7449   24.2409 N   0  0  0  0  0  0  0  0  0  0  0  0
    7.3194  -14.9057   26.3312 C   0  0  0  0  0  0  0  0  0  0  0  0
    8.0149  -15.4974   27.3675 O   0  0  0  0  0  0  0  0  0  0  0  0
    6.2170  -15.4166   26.0034 O   0  0  0  0  0  0  0  0  0  0  0  0
  2  1  1  0
  3  4  2  0
  3  2  1  0
  5  3  1  0
  6  5  1  0
  7  6  1  0
  8  7  1  0
  8  9  1  0
  9  5  1  0
  9 10  1  1
 10 16  1  0
 11 10  2  0
 13 12  1  1
 13 15  1  0
 14 13  1  0
 15 16  1  6
 17 15  1  0
 18 17  1  0
 19 17  2  0
M  END
$$$$
