GPV.pdb
     RDKit          3D

 19 19  0  0  1  0  0  0  0  0999 V2000
   10.5268  -16.9594   19.2757 N   0  0  0  0  0  0  0  0  0  0  0  0
   10.3157  -17.4333   20.5975 C   0  0  0  0  0  0  0  0  0  0  0  0
    9.3794  -16.6659   21.4255 C   0  0  0  0  0  0  0  0  0  0  0  0
    9.5747  -15.4157   21.6345 O   0  0  0  0  0  0  0  0  0  0  0  0
    8.2164  -17.2205   22.0473 N   0  0  0  0  0  0  0  0  0  0  0  0
    7.7955  -18.5697   21.7609 C   0  0  0  0  0  0  0  0  0  0  0  0
    6.4379  -18.7340   22.4181 C   0  0  0  0  0  0  0  0  0  0  0  0
    6.5218  -17.7591   23.5554 C   0  0  0  0  0  0  0  0  0  0  0  0
    7.3226  -16.6307   22.9816 C   0  0  1  0  0  0  0  0  0  0  0  0
    7.9666  -15.8369   24.0587 C   0  0  0  0  0  0  0  0  0  0  0  0
    9.1184  -16.0990   24.4117 O   0  0  0  0  0  0  0  0  0  0  0  0
    6.3343  -12.1014   25.1466 C   0  0  0  0  0  0  0  0  0  0  0  0
    6.7656  -13.0100   26.2669 C   0  0  2  0  0  0  0  0  0  0  0  0
    7.3155  -12.2031   27.4215 C   0  0  0  0  0  0  0  0  0  0  0  0
    7.7422  -14.0636   25.8009 C   0  0  2  0  0  0  0  0  0  0  0  0
    7.2507  -14.7901   24.6662 N   0  0  0  0  0  0  0  0  0  0  0  0
    8.0293  -14.9590   26.9530 C   0  0  0  0  0  0  0  0  0  0  0  0
    9.2028  -14.7877   27.6611 O   0  0  0  0  0  0  0  0  0  0  0  0
    7.2534  -15.8771   27.3254 O   0  0  0  0  0  0  0  0  0  0  0  0
  2  1  1  0
  3  4  2  0
  3  2  1  0
  5  3  1  0
  6  5  1  0
  7  6  1  0
  8  7  1  0
  8  9  1  0
  9  5  1  0
  9 10  1  1
 10 16  1  0
 11 10  2  0
 13 12  1  6
 13 15  1  0
 14 13  1  0
 15 16  1  6
 17 15  1  0
 18 17  1  0
 19 17  2  0
M  END
$$$$
