GPV.pdb
     RDKit          3D

 19 19  0  0  1  0  0  0  0  0999 V2000
   11.5002  -17.6055   20.1186 N   0  0  0  0  0  0  0  0  0  0  0  0
   10.1404  -17.4732   20.5058 C   0  0  0  0  0  0  0  0  0  0  0  0
    9.7818  -16.2465   21.2253 C   0  0  0  0  0  0  0  0  0  0  0  0
   10.6012  -15.7236   22.0619 O   0  0  0  0  0  0  0  0  0  0  0  0
    8.5394  -15.5554   21.0652 N   0  0  0  0  0  0  0  0  0  0  0  0
    7.6632  -15.8532   19.9594 C   0  0  0  0  0  0  0  0  0  0  0  0
    6.5714  -14.8003   19.9938 C   0  0  0  0  0  0  0  0  0  0  0  0
    6.5251  -14.4466   21.4510 C   0  0  0  0  0  0  0  0  0  0  0  0
    7.9594  -14.5397   21.8725 C   0  0  1  0  0  0  0  0  0  0  0  0
    8.0680  -14.7570   23.3374 C   0  0  0  0  0  0  0  0  0  0  0  0
    8.4281  -15.8531   23.7721 O   0  0  0  0  0  0  0  0  0  0  0  0
    7.4829  -12.6671   27.8308 C   0  0  0  0  0  0  0  0  0  0  0  0
    7.2113  -12.6486   26.3500 C   0  0  2  0  0  0  0  0  0  0  0  0
    5.7256  -12.5532   26.0852 C   0  0  0  0  0  0  0  0  0  0  0  0
    7.8345  -13.8284   25.6425 C   0  0  2  0  0  0  0  0  0  0  0  0
    7.7570  -13.7039   24.2158 N   0  0  0  0  0  0  0  0  0  0  0  0
    7.1593  -15.0601   26.1309 C   0  0  0  0  0  0  0  0  0  0  0  0
    7.7228  -15.7658   27.1762 O   0  0  0  0  0  0  0  0  0  0  0  0
    6.0887  -15.5030   25.6397 O   0  0  0  0  0  0  0  0  0  0  0  0
  2  1  1  0
  3  4  2  0
  3  2  1  0
  5  3  1  0
  6  5  1  0
  7  6  1  0
  8  7  1  0
  8  9  1  0
  9  5  1  0
  9 10  1  1
 10 16  1  0
 11 10  2  0
 13 12  1  1
 13 15  1  0
 14 13  1  0
 15 16  1  6
 17 15  1  0
 18 17  1  0
 19 17  2  0
M  END
$$$$
