GPV.pdb
     RDKit          3D

 19 19  0  0  1  0  0  0  0  0999 V2000
    9.3968  -18.2632   19.9283 N   0  0  0  0  0  0  0  0  0  0  0  0
    8.3384  -17.3399   20.1372 C   0  0  0  0  0  0  0  0  0  0  0  0
    8.5588  -16.3135   21.1615 C   0  0  0  0  0  0  0  0  0  0  0  0
    9.0602  -16.6307   22.2985 O   0  0  0  0  0  0  0  0  0  0  0  0
    8.2463  -14.9279   20.9905 N   0  0  0  0  0  0  0  0  0  0  0  0
    7.9667  -14.3874   19.6832 C   0  0  0  0  0  0  0  0  0  0  0  0
    7.8935  -12.8822   19.8584 C   0  0  0  0  0  0  0  0  0  0  0  0
    7.4535  -12.7554   21.2871 C   0  0  0  0  0  0  0  0  0  0  0  0
    8.1503  -13.8961   21.9632 C   0  0  1  0  0  0  0  0  0  0  0  0
    7.4530  -14.2734   23.2187 C   0  0  0  0  0  0  0  0  0  0  0  0
    6.5291  -15.0891   23.1885 O   0  0  0  0  0  0  0  0  0  0  0  0
    8.6751  -12.4686   27.0529 C   0  0  0  0  0  0  0  0  0  0  0  0
    8.0712  -13.8346   26.8627 C   0  0  2  0  0  0  0  0  0  0  0  0
    9.1544  -14.8870   26.7882 C   0  0  0  0  0  0  0  0  0  0  0  0
    7.1511  -13.8882   25.6663 C   0  0  2  0  0  0  0  0  0  0  0  0
    7.8576  -13.6923   24.4336 N   0  0  0  0  0  0  0  0  0  0  0  0
    6.0864  -12.8692   25.8654 C   0  0  0  0  0  0  0  0  0  0  0  0
    5.0626  -13.1319   26.7546 O   0  0  0  0  0  0  0  0  0  0  0  0
    6.0642  -11.7653   25.2616 O   0  0  0  0  0  0  0  0  0  0  0  0
  2  1  1  0
  3  4  2  0
  3  2  1  0
  5  3  1  0
  6  5  1  0
  7  6  1  0
  8  7  1  0
  8  9  1  0
  9  5  1  0
  9 10  1  1
 10 16  1  0
 11 10  2  0
 13 12  1  6
 13 15  1  0
 14 13  1  0
 15 16  1  6
 17 15  1  0
 18 17  1  0
 19 17  2  0
M  END
$$$$
