GPV.pdb
     RDKit          3D

 19 19  0  0  1  0  0  0  0  0999 V2000
   11.8474  -17.3512   20.5901 N   0  0  0  0  0  0  0  0  0  0  0  0
   10.4493  -17.2024   20.7887 C   0  0  0  0  0  0  0  0  0  0  0  0
   10.0211  -16.0463   21.5830 C   0  0  0  0  0  0  0  0  0  0  0  0
   10.7566  -15.6089   22.5383 O   0  0  0  0  0  0  0  0  0  0  0  0
    8.7973  -15.3357   21.3723 N   0  0  0  0  0  0  0  0  0  0  0  0
    8.0599  -15.4793   20.1415 C   0  0  0  0  0  0  0  0  0  0  0  0
    6.9586  -14.4369   20.1882 C   0  0  0  0  0  0  0  0  0  0  0  0
    6.7382  -14.2818   21.6641 C   0  0  0  0  0  0  0  0  0  0  0  0
    8.1146  -14.4356   22.2346 C   0  0  1  0  0  0  0  0  0  0  0  0
    8.0543  -14.8480   23.6598 C   0  0  0  0  0  0  0  0  0  0  0  0
    8.2007  -16.0338   23.9642 O   0  0  0  0  0  0  0  0  0  0  0  0
    5.7330  -12.7668   26.5209 C   0  0  0  0  0  0  0  0  0  0  0  0
    7.1761  -13.0409   26.8509 C   0  0  2  0  0  0  0  0  0  0  0  0
    8.0038  -11.7856   26.6906 C   0  0  0  0  0  0  0  0  0  0  0  0
    7.7352  -14.1903   26.0464 C   0  0  2  0  0  0  0  0  0  0  0  0
    7.8297  -13.8755   24.6503 N   0  0  0  0  0  0  0  0  0  0  0  0
    6.8749  -15.3782   26.2918 C   0  0  0  0  0  0  0  0  0  0  0  0
    5.8566  -15.6653   25.4038 O   0  0  0  0  0  0  0  0  0  0  0  0
    7.0233  -16.1480   27.2762 O   0  0  0  0  0  0  0  0  0  0  0  0
  2  1  1  0
  3  4  2  0
  3  2  1  0
  5  3  1  0
  6  5  1  0
  7  6  1  0
  8  7  1  0
  8  9  1  0
  9  5  1  0
  9 10  1  1
 10 16  1  0
 11 10  2  0
 13 12  1  6
 13 15  1  0
 14 13  1  0
 15 16  1  6
 17 15  1  0
 18 17  1  0
 19 17  2  0
M  END
$$$$
