GPV.pdb
     RDKit          3D

 19 19  0  0  1  0  0  0  0  0999 V2000
   12.1166  -17.1073   20.8294 N   0  0  0  0  0  0  0  0  0  0  0  0
   10.7246  -17.1769   21.1009 C   0  0  0  0  0  0  0  0  0  0  0  0
   10.1177  -15.9904   21.7132 C   0  0  0  0  0  0  0  0  0  0  0  0
   10.7677  -15.3057   22.5812 O   0  0  0  0  0  0  0  0  0  0  0  0
    8.8033  -15.5135   21.4104 N   0  0  0  0  0  0  0  0  0  0  0  0
    8.0918  -15.9892   20.2499 C   0  0  0  0  0  0  0  0  0  0  0  0
    6.8509  -15.1239   20.1347 C   0  0  0  0  0  0  0  0  0  0  0  0
    6.6137  -14.7272   21.5620 C   0  0  0  0  0  0  0  0  0  0  0  0
    7.9991  -14.5737   22.1104 C   0  0  1  0  0  0  0  0  0  0  0  0
    8.0024  -14.7153   23.5885 C   0  0  0  0  0  0  0  0  0  0  0  0
    8.4515  -15.7394   24.1077 O   0  0  0  0  0  0  0  0  0  0  0  0
    7.0414  -11.2789   25.9169 C   0  0  0  0  0  0  0  0  0  0  0  0
    6.5747  -12.6293   26.3916 C   0  0  2  0  0  0  0  0  0  0  0  0
    6.5405  -12.6770   27.9026 C   0  0  0  0  0  0  0  0  0  0  0  0
    7.4006  -13.7529   25.8115 C   0  0  2  0  0  0  0  0  0  0  0  0
    7.4904  -13.6736   24.3823 N   0  0  0  0  0  0  0  0  0  0  0  0
    6.8005  -15.0372   26.2608 C   0  0  0  0  0  0  0  0  0  0  0  0
    5.7251  -15.5558   25.5661 O   0  0  0  0  0  0  0  0  0  0  0  0
    7.2220  -15.6883   27.2518 O   0  0  0  0  0  0  0  0  0  0  0  0
  2  1  1  0
  3  4  2  0
  3  2  1  0
  5  3  1  0
  6  5  1  0
  7  6  1  0
  8  7  1  0
  8  9  1  0
  9  5  1  0
  9 10  1  1
 10 16  1  0
 11 10  2  0
 13 12  1  1
 13 15  1  0
 14 13  1  0
 15 16  1  6
 17 15  1  0
 18 17  1  0
 19 17  2  0
M  END
$$$$
