GPV.pdb
     RDKit          3D

 19 19  0  0  1  0  0  0  0  0999 V2000
   11.6905  -17.2260   20.1670 N   0  0  0  0  0  0  0  0  0  0  0  0
   10.3352  -17.2083   20.5901 C   0  0  0  0  0  0  0  0  0  0  0  0
    9.9272  -16.0772   21.4299 C   0  0  0  0  0  0  0  0  0  0  0  0
   10.7063  -15.6397   22.3499 O   0  0  0  0  0  0  0  0  0  0  0  0
    8.6774  -15.3925   21.3034 N   0  0  0  0  0  0  0  0  0  0  0  0
    7.8488  -15.5727   20.1371 C   0  0  0  0  0  0  0  0  0  0  0  0
    6.7349  -14.5491   20.2516 C   0  0  0  0  0  0  0  0  0  0  0  0
    6.6277  -14.3696   21.7373 C   0  0  0  0  0  0  0  0  0  0  0  0
    8.0472  -14.4881   22.2005 C   0  0  1  0  0  0  0  0  0  0  0  0
    8.1064  -14.8741   23.6331 C   0  0  0  0  0  0  0  0  0  0  0  0
    8.4623  -16.0111   23.9501 O   0  0  0  0  0  0  0  0  0  0  0  0
    5.7551  -12.8389   26.5805 C   0  0  0  0  0  0  0  0  0  0  0  0
    7.2168  -13.0858   26.8435 C   0  0  2  0  0  0  0  0  0  0  0  0
    8.0136  -11.8172   26.6384 C   0  0  0  0  0  0  0  0  0  0  0  0
    7.7578  -14.2298   26.0193 C   0  0  2  0  0  0  0  0  0  0  0  0
    7.7538  -13.9325   24.6162 N   0  0  0  0  0  0  0  0  0  0  0  0
    6.9509  -15.4387   26.3340 C   0  0  0  0  0  0  0  0  0  0  0  0
    7.3292  -16.2424   27.3918 O   0  0  0  0  0  0  0  0  0  0  0  0
    5.9284  -15.7764   25.6828 O   0  0  0  0  0  0  0  0  0  0  0  0
  2  1  1  0
  3  4  2  0
  3  2  1  0
  5  3  1  0
  6  5  1  0
  7  6  1  0
  8  7  1  0
  8  9  1  0
  9  5  1  0
  9 10  1  1
 10 16  1  0
 11 10  2  0
 13 12  1  6
 13 15  1  0
 14 13  1  0
 15 16  1  6
 17 15  1  0
 18 17  1  0
 19 17  2  0
M  END
$$$$
