MCQ.pdb
     RDKit          3D

 24 23  0  0  1  0  0  0  0  0999 V2000
   23.7722  -18.8052  -17.7904 C   0  0  0  0  0  0  0  0  0  0  0  0
   23.7511  -18.7160  -19.5853 S   0  0  0  0  0  0  0  0  0  0  0  0
   23.7168  -16.9680  -20.1076 C   0  0  0  0  0  0  0  0  0  0  0  0
   23.3500  -16.0663  -18.9774 C   0  0  0  0  0  0  0  0  0  0  0  0
   23.3417  -14.6206  -19.3270 C   0  0  2  0  0  0  0  0  0  0  0  0
   24.4065  -14.3147  -20.2889 N   0  0  0  0  0  0  0  0  0  0  0  0
   23.4365  -13.6974  -18.1627 C   0  0  0  0  0  0  0  0  0  0  0  0
   22.6368  -13.7352  -17.1964 O   0  0  0  0  0  0  0  0  0  0  0  0
   24.4617  -12.7029  -18.0844 N   0  0  0  0  0  0  0  0  0  0  0  0
   24.5912  -11.7810  -16.9532 C   0  0  1  0  0  0  0  0  0  0  0  0
   26.0465  -11.4741  -16.7069 C   0  0  0  0  0  0  0  0  0  0  0  0
   26.3307  -10.1438  -15.5343 S   0  0  0  0  0  0  0  0  0  0  0  0
   23.7429  -10.5848  -17.1721 C   0  0  0  0  0  0  0  0  0  0  0  0
   23.7573  -10.0240  -18.3268 O   0  0  0  0  0  0  0  0  0  0  0  0
   17.6745   -7.2102  -17.9830 N   0  0  0  0  0  0  0  0  0  0  0  0
   18.5531   -8.2274  -17.5773 C   0  0  0  0  0  0  0  0  0  0  0  0
   18.2273   -9.4222  -17.5729 O   0  0  0  0  0  0  0  0  0  0  0  0
   19.9421   -7.8481  -17.1318 C   0  0  0  0  0  0  0  0  0  0  0  0
   20.7399   -9.0871  -16.8512 C   0  0  0  0  0  0  0  0  0  0  0  0
   22.1185   -8.7907  -16.4176 C   0  0  2  0  0  0  0  0  0  0  0  0
   22.9094  -10.0041  -16.2106 N   0  0  0  0  0  0  0  0  0  0  0  0
   22.2701   -7.8379  -15.3225 C   0  0  0  0  0  0  0  0  0  0  0  0
   22.2656   -6.6144  -15.5155 O   0  0  0  0  0  0  0  0  0  0  0  0
   22.4279   -8.2746  -14.0193 O   0  0  0  0  0  0  0  0  0  0  0  0
  2  1  1  0
  2  3  1  0
  4  3  1  0
  5  7  1  0
  5  4  1  0
  5  6  1  6
  7  8  2  0
  9  7  1  0
  9 10  1  0
 10 11  1  6
 11 12  1  0
 13 21  1  0
 13 10  1  0
 14 13  2  0
 16 15  1  0
 17 16  2  0
 18 16  1  0
 20 19  1  1
 19 18  1  0
 20 22  1  0
 20 21  1  0
 22 24  1  0
 23 22  2  0
M  END
$$$$
