MCQ.pdb
     RDKit          3D

 24 23  0  0  1  0  0  0  0  0999 V2000
   30.2897  -21.1249   -8.8677 C   0  0  0  0  0  0  0  0  0  0  0  0
   31.0870  -21.1602  -10.4780 S   0  0  0  0  0  0  0  0  0  0  0  0
   29.8155  -21.1766  -11.7866 C   0  0  0  0  0  0  0  0  0  0  0  0
   28.4683  -21.5044  -11.2365 C   0  0  0  0  0  0  0  0  0  0  0  0
   27.3732  -21.4732  -12.2425 C   0  0  2  0  0  0  0  0  0  0  0  0
   27.4307  -20.2378  -13.0320 N   0  0  0  0  0  0  0  0  0  0  0  0
   26.0054  -21.6466  -11.6805 C   0  0  0  0  0  0  0  0  0  0  0  0
   25.6228  -22.7099  -11.1349 O   0  0  0  0  0  0  0  0  0  0  0  0
   25.0406  -20.5918  -11.7342 N   0  0  0  0  0  0  0  0  0  0  0  0
   23.7439  -20.6644  -11.0565 C   0  0  1  0  0  0  0  0  0  0  0  0
   23.4634  -19.3638  -10.3475 C   0  0  0  0  0  0  0  0  0  0  0  0
   23.5119  -19.4762   -8.5557 S   0  0  0  0  0  0  0  0  0  0  0  0
   22.6911  -21.0771  -12.0155 C   0  0  0  0  0  0  0  0  0  0  0  0
   22.9196  -20.9486  -13.2721 O   0  0  0  0  0  0  0  0  0  0  0  0
   17.3342  -24.1995  -10.8794 N   0  0  0  0  0  0  0  0  0  0  0  0
   17.2273  -24.0184  -12.2675 C   0  0  0  0  0  0  0  0  0  0  0  0
   16.2918  -24.4904  -12.9276 O   0  0  0  0  0  0  0  0  0  0  0  0
   18.2912  -23.2203  -12.9768 C   0  0  0  0  0  0  0  0  0  0  0  0
   19.2995  -22.7247  -11.9828 C   0  0  0  0  0  0  0  0  0  0  0  0
   20.3886  -21.9541  -12.6124 C   0  0  2  0  0  0  0  0  0  0  0  0
   21.4460  -21.6076  -11.6623 N   0  0  0  0  0  0  0  0  0  0  0  0
   19.9940  -20.8183  -13.4396 C   0  0  0  0  0  0  0  0  0  0  0  0
   19.9205  -19.6701  -12.9808 O   0  0  0  0  0  0  0  0  0  0  0  0
   19.6834  -20.9889  -14.7768 O   0  0  0  0  0  0  0  0  0  0  0  0
  2  1  1  0
  2  3  1  0
  4  3  1  0
  5  7  1  0
  5  4  1  0
  5  6  1  1
  7  8  2  0
  9  7  1  0
  9 10  1  0
 10 11  1  6
 11 12  1  0
 13 21  1  0
 13 10  1  0
 14 13  2  0
 16 15  1  0
 17 16  2  0
 18 16  1  0
 20 19  1  1
 19 18  1  0
 20 22  1  0
 20 21  1  0
 22 24  1  0
 23 22  2  0
M  END
$$$$
