MCQ.pdb
     RDKit          3D

 24 23  0  0  1  0  0  0  0  0999 V2000
   20.6497  -18.8778  -19.3667 C   0  0  0  0  0  0  0  0  0  0  0  0
   20.3814  -17.5060  -18.2369 S   0  0  0  0  0  0  0  0  0  0  0  0
   21.0974  -15.9846  -18.9457 C   0  0  0  0  0  0  0  0  0  0  0  0
   20.9568  -14.8282  -18.0142 C   0  0  0  0  0  0  0  0  0  0  0  0
   21.4628  -13.5398  -18.5587 C   0  0  2  0  0  0  0  0  0  0  0  0
   22.6240  -13.7653  -19.4267 N   0  0  0  0  0  0  0  0  0  0  0  0
   21.7961  -12.5164  -17.5299 C   0  0  0  0  0  0  0  0  0  0  0  0
   20.9896  -12.1600  -16.6371 O   0  0  0  0  0  0  0  0  0  0  0  0
   23.0750  -11.8760  -17.5059 N   0  0  0  0  0  0  0  0  0  0  0  0
   23.4455  -10.8765  -16.5009 C   0  0  1  0  0  0  0  0  0  0  0  0
   24.9138  -10.5547  -16.6161 C   0  0  0  0  0  0  0  0  0  0  0  0
   26.0007  -11.8354  -15.9806 S   0  0  0  0  0  0  0  0  0  0  0  0
   22.5517   -9.6978  -16.6021 C   0  0  0  0  0  0  0  0  0  0  0  0
   22.3607   -9.1684  -17.7559 O   0  0  0  0  0  0  0  0  0  0  0  0
   16.9781   -8.9031  -15.9836 N   0  0  0  0  0  0  0  0  0  0  0  0
   17.2713   -7.5317  -16.0503 C   0  0  0  0  0  0  0  0  0  0  0  0
   16.3996   -6.6766  -16.2571 O   0  0  0  0  0  0  0  0  0  0  0  0
   18.6994   -7.0875  -15.8631 C   0  0  0  0  0  0  0  0  0  0  0  0
   19.5950   -8.2875  -15.7719 C   0  0  0  0  0  0  0  0  0  0  0  0
   21.0187   -7.9262  -15.6334 C   0  0  2  0  0  0  0  0  0  0  0  0
   21.8830   -9.1020  -15.5277 N   0  0  0  0  0  0  0  0  0  0  0  0
   21.3426   -6.9100  -14.6373 C   0  0  0  0  0  0  0  0  0  0  0  0
   21.9948   -7.1778  -13.6188 O   0  0  0  0  0  0  0  0  0  0  0  0
   20.9255   -5.6008  -14.7983 O   0  0  0  0  0  0  0  0  0  0  0  0
  2  1  1  0
  2  3  1  0
  4  3  1  0
  5  7  1  0
  5  4  1  0
  5  6  1  1
  7  8  2  0
  9  7  1  0
  9 10  1  0
 10 11  1  6
 11 12  1  0
 13 21  1  0
 13 10  1  0
 14 13  2  0
 16 15  1  0
 17 16  2  0
 18 16  1  0
 20 19  1  1
 19 18  1  0
 20 22  1  0
 20 21  1  0
 22 24  1  0
 23 22  2  0
M  END
$$$$
