MCQ.pdb
     RDKit          3D

 24 23  0  0  1  0  0  0  0  0999 V2000
   27.3332  -14.4459  -15.1184 C   0  0  0  0  0  0  0  0  0  0  0  0
   26.6721  -15.9471  -15.8528 S   0  0  0  0  0  0  0  0  0  0  0  0
   24.8515  -15.8426  -15.9171 C   0  0  0  0  0  0  0  0  0  0  0  0
   24.3977  -14.5330  -16.4684 C   0  0  0  0  0  0  0  0  0  0  0  0
   23.5126  -13.7599  -15.5567 C   0  0  2  0  0  0  0  0  0  0  0  0
   22.3800  -14.5815  -15.1153 N   0  0  0  0  0  0  0  0  0  0  0  0
   23.0121  -12.4740  -16.1162 C   0  0  0  0  0  0  0  0  0  0  0  0
   23.7415  -11.6811  -16.7595 O   0  0  0  0  0  0  0  0  0  0  0  0
   21.6504  -12.0697  -15.9465 N   0  0  0  0  0  0  0  0  0  0  0  0
   21.0862  -10.8831  -16.5945 C   0  0  1  0  0  0  0  0  0  0  0  0
   19.6279  -11.1119  -16.9006 C   0  0  0  0  0  0  0  0  0  0  0  0
   19.3186  -12.4557  -18.0511 S   0  0  0  0  0  0  0  0  0  0  0  0
   21.3568   -9.6782  -15.7739 C   0  0  0  0  0  0  0  0  0  0  0  0
   21.3725   -9.7957  -14.4957 O   0  0  0  0  0  0  0  0  0  0  0  0
   23.2700   -3.9979  -17.7507 N   0  0  0  0  0  0  0  0  0  0  0  0
   23.2681   -3.7914  -16.3620 C   0  0  0  0  0  0  0  0  0  0  0  0
   23.5786   -2.7061  -15.8527 O   0  0  0  0  0  0  0  0  0  0  0  0
   22.8734   -4.9338  -15.4615 C   0  0  0  0  0  0  0  0  0  0  0  0
   22.4009   -6.0917  -16.2900 C   0  0  0  0  0  0  0  0  0  0  0  0
   21.9503   -7.2323  -15.4701 C   0  0  2  0  0  0  0  0  0  0  0  0
   21.6040   -8.3989  -16.2825 N   0  0  0  0  0  0  0  0  0  0  0  0
   20.9447   -6.9495  -14.4510 C   0  0  0  0  0  0  0  0  0  0  0  0
   21.2513   -6.7538  -13.2669 O   0  0  0  0  0  0  0  0  0  0  0  0
   19.6014   -6.8926  -14.7768 O   0  0  0  0  0  0  0  0  0  0  0  0
  2  1  1  0
  2  3  1  0
  4  3  1  0
  5  7  1  0
  5  4  1  0
  5  6  1  6
  7  8  2  0
  9  7  1  0
  9 10  1  0
 10 11  1  1
 11 12  1  0
 13 21  1  0
 13 10  1  0
 14 13  2  0
 16 15  1  0
 17 16  2  0
 18 16  1  0
 20 19  1  6
 19 18  1  0
 20 22  1  0
 20 21  1  0
 22 24  1  0
 23 22  2  0
M  END
$$$$
