MCQ.pdb
     RDKit          3D

 24 23  0  0  1  0  0  0  0  0999 V2000
   25.8522  -16.8296  -16.7862 C   0  0  0  0  0  0  0  0  0  0  0  0
   27.6276  -16.9830  -17.0199 S   0  0  0  0  0  0  0  0  0  0  0  0
   28.2334  -18.4573  -16.1317 C   0  0  0  0  0  0  0  0  0  0  0  0
   27.1305  -19.1490  -15.4036 C   0  0  0  0  0  0  0  0  0  0  0  0
   27.5712  -20.3146  -14.5915 C   0  0  2  0  0  0  0  0  0  0  0  0
   28.2380  -21.3117  -15.4366 N   0  0  0  0  0  0  0  0  0  0  0  0
   26.4913  -20.9677  -13.8014 C   0  0  0  0  0  0  0  0  0  0  0  0
   25.8861  -21.9946  -14.1934 O   0  0  0  0  0  0  0  0  0  0  0  0
   26.0814  -20.4492  -12.5327 N   0  0  0  0  0  0  0  0  0  0  0  0
   25.0009  -21.0435  -11.7418 C   0  0  1  0  0  0  0  0  0  0  0  0
   25.1297  -20.6212  -10.3003 C   0  0  0  0  0  0  0  0  0  0  0  0
   26.7331  -20.9707   -9.5708 S   0  0  0  0  0  0  0  0  0  0  0  0
   23.6886  -20.7287  -12.3560 C   0  0  0  0  0  0  0  0  0  0  0  0
   23.4388  -19.5128  -12.6831 O   0  0  0  0  0  0  0  0  0  0  0  0
   18.4339  -24.4637  -13.6600 N   0  0  0  0  0  0  0  0  0  0  0  0
   18.6288  -23.5050  -14.6670 C   0  0  0  0  0  0  0  0  0  0  0  0
   18.2294  -23.6717  -15.8274 O   0  0  0  0  0  0  0  0  0  0  0  0
   19.3506  -22.2282  -14.3199 C   0  0  0  0  0  0  0  0  0  0  0  0
   20.6468  -22.5490  -13.6363 C   0  0  0  0  0  0  0  0  0  0  0  0
   21.3859  -21.3415  -13.2216 C   0  0  2  0  0  0  0  0  0  0  0  0
   22.6796  -21.6614  -12.6174 N   0  0  0  0  0  0  0  0  0  0  0  0
   20.6430  -20.3525  -12.4470 C   0  0  0  0  0  0  0  0  0  0  0  0
   20.5648  -20.4140  -11.2123 O   0  0  0  0  0  0  0  0  0  0  0  0
   19.9928  -19.3041  -13.0731 O   0  0  0  0  0  0  0  0  0  0  0  0
  2  1  1  0
  2  3  1  0
  4  3  1  0
  5  7  1  0
  5  4  1  0
  5  6  1  6
  7  8  2  0
  9  7  1  0
  9 10  1  0
 10 11  1  1
 11 12  1  0
 13 21  1  0
 13 10  1  0
 14 13  2  0
 16 15  1  0
 17 16  2  0
 18 16  1  0
 20 19  1  1
 19 18  1  0
 20 22  1  0
 20 21  1  0
 22 24  1  0
 23 22  2  0
M  END
$$$$
