MCQ.pdb
     RDKit          3D

 24 23  0  0  1  0  0  0  0  0999 V2000
   27.6452  -29.5535  -15.8567 C   0  0  0  0  0  0  0  0  0  0  0  0
   27.3544  -28.5675  -17.3310 S   0  0  0  0  0  0  0  0  0  0  0  0
   28.4596  -27.1157  -17.3201 C   0  0  0  0  0  0  0  0  0  0  0  0
   27.9824  -26.0718  -16.3675 C   0  0  0  0  0  0  0  0  0  0  0  0
   26.8225  -25.2807  -16.8585 C   0  0  2  0  0  0  0  0  0  0  0  0
   27.1968  -24.4896  -18.0361 N   0  0  0  0  0  0  0  0  0  0  0  0
   26.1946  -24.3964  -15.8384 C   0  0  0  0  0  0  0  0  0  0  0  0
   25.7952  -24.8166  -14.7255 O   0  0  0  0  0  0  0  0  0  0  0  0
   26.0115  -22.9981  -16.0786 N   0  0  0  0  0  0  0  0  0  0  0  0
   25.3993  -22.0963  -15.0998 C   0  0  1  0  0  0  0  0  0  0  0  0
   25.8433  -20.6795  -15.3615 C   0  0  0  0  0  0  0  0  0  0  0  0
   27.6029  -20.4044  -15.1303 S   0  0  0  0  0  0  0  0  0  0  0  0
   23.9285  -22.2831  -15.0862 C   0  0  0  0  0  0  0  0  0  0  0  0
   23.3086  -22.3636  -16.2074 O   0  0  0  0  0  0  0  0  0  0  0  0
   20.4230  -25.7275  -11.5608 N   0  0  0  0  0  0  0  0  0  0  0  0
   19.4003  -25.0477  -12.2414 C   0  0  0  0  0  0  0  0  0  0  0  0
   18.2147  -25.4004  -12.1798 O   0  0  0  0  0  0  0  0  0  0  0  0
   19.7617  -23.8460  -13.0762 C   0  0  0  0  0  0  0  0  0  0  0  0
   21.2445  -23.6235  -13.0282 C   0  0  0  0  0  0  0  0  0  0  0  0
   21.6876  -22.5429  -13.9294 C   0  0  2  0  0  0  0  0  0  0  0  0
   23.1421  -22.3838  -13.9338 N   0  0  0  0  0  0  0  0  0  0  0  0
   20.9917  -21.2654  -13.8119 C   0  0  0  0  0  0  0  0  0  0  0  0
   21.4830  -20.3076  -13.1992 O   0  0  0  0  0  0  0  0  0  0  0  0
   19.7462  -21.0811  -14.3850 O   0  0  0  0  0  0  0  0  0  0  0  0
  2  1  1  0
  2  3  1  0
  4  3  1  0
  5  7  1  0
  5  4  1  0
  5  6  1  6
  7  8  2  0
  9  7  1  0
  9 10  1  0
 10 11  1  6
 11 12  1  0
 13 21  1  0
 13 10  1  0
 14 13  2  0
 16 15  1  0
 17 16  2  0
 18 16  1  0
 20 19  1  1
 19 18  1  0
 20 22  1  0
 20 21  1  0
 22 24  1  0
 23 22  2  0
M  END
$$$$
