MCQ.pdb
     RDKit          3D

 24 23  0  0  1  0  0  0  0  0999 V2000
   28.7891  -19.7598   -5.9820 C   0  0  0  0  0  0  0  0  0  0  0  0
   27.0188  -19.5101   -5.7979 S   0  0  0  0  0  0  0  0  0  0  0  0
   26.1348  -20.4389   -7.0961 C   0  0  0  0  0  0  0  0  0  0  0  0
   26.2455  -19.7655   -8.4225 C   0  0  0  0  0  0  0  0  0  0  0  0
   25.9314  -20.6431   -9.5815 C   0  0  2  0  0  0  0  0  0  0  0  0
   26.7817  -21.8388   -9.5707 N   0  0  0  0  0  0  0  0  0  0  0  0
   26.0195  -19.9764  -10.9099 C   0  0  0  0  0  0  0  0  0  0  0  0
   25.3233  -18.9793  -11.2193 O   0  0  0  0  0  0  0  0  0  0  0  0
   26.9179  -20.4463  -11.9191 N   0  0  0  0  0  0  0  0  0  0  0  0
   27.0545  -19.7994  -13.2264 C   0  0  1  0  0  0  0  0  0  0  0  0
   28.3934  -20.1412  -13.8292 C   0  0  0  0  0  0  0  0  0  0  0  0
   29.6692  -20.5198  -12.6232 S   0  0  0  0  0  0  0  0  0  0  0  0
   25.8937  -20.1371  -14.0848 C   0  0  0  0  0  0  0  0  0  0  0  0
   25.5345  -21.3660  -14.1775 O   0  0  0  0  0  0  0  0  0  0  0  0
   19.5211  -17.9087  -17.0792 N   0  0  0  0  0  0  0  0  0  0  0  0
   20.7325  -17.7562  -16.3860 C   0  0  0  0  0  0  0  0  0  0  0  0
   21.0220  -16.7172  -15.7774 O   0  0  0  0  0  0  0  0  0  0  0  0
   21.7138  -18.9003  -16.3845 C   0  0  0  0  0  0  0  0  0  0  0  0
   22.9462  -18.5093  -15.6238 C   0  0  0  0  0  0  0  0  0  0  0  0
   23.9876  -19.5539  -15.6513 C   0  0  2  0  0  0  0  0  0  0  0  0
   25.1392  -19.2133  -14.8154 N   0  0  0  0  0  0  0  0  0  0  0  0
   24.3850  -20.0482  -16.9657 C   0  0  0  0  0  0  0  0  0  0  0  0
   25.3232  -19.5432  -17.5975 O   0  0  0  0  0  0  0  0  0  0  0  0
   23.7184  -21.1067  -17.5566 O   0  0  0  0  0  0  0  0  0  0  0  0
  2  1  1  0
  2  3  1  0
  4  3  1  0
  5  7  1  0
  5  4  1  0
  5  6  1  6
  7  8  2  0
  9  7  1  0
  9 10  1  0
 10 11  1  6
 11 12  1  0
 13 21  1  0
 13 10  1  0
 14 13  2  0
 16 15  1  0
 17 16  2  0
 18 16  1  0
 20 19  1  6
 19 18  1  0
 20 22  1  0
 20 21  1  0
 22 24  1  0
 23 22  2  0
M  END
$$$$
