MCQ.pdb
     RDKit          3D

 24 23  0  0  1  0  0  0  0  0999 V2000
   24.5501  -17.9630  -19.3461 C   0  0  0  0  0  0  0  0  0  0  0  0
   23.1608  -17.3639  -20.3162 S   0  0  0  0  0  0  0  0  0  0  0  0
   23.4510  -15.6246  -20.7855 C   0  0  0  0  0  0  0  0  0  0  0  0
   23.6920  -14.7678  -19.5885 C   0  0  0  0  0  0  0  0  0  0  0  0
   23.9712  -13.3414  -19.9042 C   0  0  2  0  0  0  0  0  0  0  0  0
   25.2405  -13.2104  -20.6283 N   0  0  0  0  0  0  0  0  0  0  0  0
   23.9686  -12.4304  -18.7265 C   0  0  0  0  0  0  0  0  0  0  0  0
   22.9839  -12.3137  -17.9576 O   0  0  0  0  0  0  0  0  0  0  0  0
   25.1084  -11.6278  -18.4054 N   0  0  0  0  0  0  0  0  0  0  0  0
   25.1642  -10.7610  -17.2257 C   0  0  1  0  0  0  0  0  0  0  0  0
   26.5931  -10.6081  -16.7700 C   0  0  0  0  0  0  0  0  0  0  0  0
   26.7838   -9.6885  -15.2392 S   0  0  0  0  0  0  0  0  0  0  0  0
   24.4705   -9.4801  -17.5023 C   0  0  0  0  0  0  0  0  0  0  0  0
   24.7914   -8.8226  -18.5570 O   0  0  0  0  0  0  0  0  0  0  0  0
   18.6443   -8.0147  -17.0393 N   0  0  0  0  0  0  0  0  0  0  0  0
   19.1307   -6.7076  -17.2006 C   0  0  0  0  0  0  0  0  0  0  0  0
   18.3795   -5.7347  -17.3519 O   0  0  0  0  0  0  0  0  0  0  0  0
   20.6212   -6.4839  -17.1885 C   0  0  0  0  0  0  0  0  0  0  0  0
   21.3282   -7.7934  -16.9993 C   0  0  0  0  0  0  0  0  0  0  0  0
   22.7963   -7.6500  -16.9780 C   0  0  2  0  0  0  0  0  0  0  0  0
   23.4747   -8.9158  -16.6982 N   0  0  0  0  0  0  0  0  0  0  0  0
   23.3353   -6.5471  -16.1887 C   0  0  0  0  0  0  0  0  0  0  0  0
   23.3654   -5.3871  -16.6219 O   0  0  0  0  0  0  0  0  0  0  0  0
   23.8380   -6.7637  -14.9182 O   0  0  0  0  0  0  0  0  0  0  0  0
  2  1  1  0
  2  3  1  0
  4  3  1  0
  5  7  1  0
  5  4  1  0
  5  6  1  1
  7  8  2  0
  9  7  1  0
  9 10  1  0
 10 11  1  6
 11 12  1  0
 13 21  1  0
 13 10  1  0
 14 13  2  0
 16 15  1  0
 17 16  2  0
 18 16  1  0
 20 19  1  1
 19 18  1  0
 20 22  1  0
 20 21  1  0
 22 24  1  0
 23 22  2  0
M  END
$$$$
