MCQ.pdb
     RDKit          3D

 24 23  0  0  1  0  0  0  0  0999 V2000
   18.4924  -21.7108  -10.2976 C   0  0  0  0  0  0  0  0  0  0  0  0
   18.2453  -19.9411  -10.4907 S   0  0  0  0  0  0  0  0  0  0  0  0
   18.8850  -19.4108  -12.1152 C   0  0  0  0  0  0  0  0  0  0  0  0
   20.3573  -19.1752  -12.0732 C   0  0  0  0  0  0  0  0  0  0  0  0
   21.1639  -20.2267  -12.7484 C   0  0  2  0  0  0  0  0  0  0  0  0
   20.8858  -21.5451  -12.1675 N   0  0  0  0  0  0  0  0  0  0  0  0
   22.6321  -19.9794  -12.7524 C   0  0  0  0  0  0  0  0  0  0  0  0
   23.1433  -18.9197  -13.1885 O   0  0  0  0  0  0  0  0  0  0  0  0
   23.5513  -20.9539  -12.2504 N   0  0  0  0  0  0  0  0  0  0  0  0
   25.0050  -20.7880  -12.3230 C   0  0  1  0  0  0  0  0  0  0  0  0
   25.6461  -21.3393  -11.0748 C   0  0  0  0  0  0  0  0  0  0  0  0
   25.0250  -20.6228   -9.5497 S   0  0  0  0  0  0  0  0  0  0  0  0
   25.5213  -21.3720  -13.5843 C   0  0  0  0  0  0  0  0  0  0  0  0
   25.0583  -22.5048  -13.9719 O   0  0  0  0  0  0  0  0  0  0  0  0
   26.2713  -18.9508  -19.0575 N   0  0  0  0  0  0  0  0  0  0  0  0
   27.3174  -18.5233  -18.2243 C   0  0  0  0  0  0  0  0  0  0  0  0
   28.0149  -17.5351  -18.4900 O   0  0  0  0  0  0  0  0  0  0  0  0
   27.5989  -19.2973  -16.9620 C   0  0  0  0  0  0  0  0  0  0  0  0
   26.6010  -20.4078  -16.8158 C   0  0  0  0  0  0  0  0  0  0  0  0
   26.9198  -21.3163  -15.6981 C   0  0  2  0  0  0  0  0  0  0  0  0
   26.4871  -20.7823  -14.4064 N   0  0  0  0  0  0  0  0  0  0  0  0
   28.2795  -21.8446  -15.6509 C   0  0  0  0  0  0  0  0  0  0  0  0
   29.1410  -21.3655  -14.9009 O   0  0  0  0  0  0  0  0  0  0  0  0
   28.6555  -22.9075  -16.4526 O   0  0  0  0  0  0  0  0  0  0  0  0
  2  1  1  0
  2  3  1  0
  4  3  1  0
  5  7  1  0
  5  4  1  0
  5  6  1  1
  7  8  2  0
  9  7  1  0
  9 10  1  0
 10 11  1  1
 11 12  1  0
 13 21  1  0
 13 10  1  0
 14 13  2  0
 16 15  1  0
 17 16  2  0
 18 16  1  0
 20 19  1  6
 19 18  1  0
 20 22  1  0
 20 21  1  0
 22 24  1  0
 23 22  2  0
M  END
$$$$
