MCQ.pdb
     RDKit          3D

 24 23  0  0  1  0  0  0  0  0999 V2000
   12.8060  -13.2910  -15.3077 C   0  0  0  0  0  0  0  0  0  0  0  0
   13.1458  -11.9231  -16.4230 S   0  0  0  0  0  0  0  0  0  0  0  0
   14.9500  -11.7039  -16.5855 C   0  0  0  0  0  0  0  0  0  0  0  0
   15.6006  -11.5184  -15.2561 C   0  0  0  0  0  0  0  0  0  0  0  0
   17.0742  -11.3266  -15.3184 C   0  0  2  0  0  0  0  0  0  0  0  0
   17.7437  -12.5780  -15.6905 N   0  0  0  0  0  0  0  0  0  0  0  0
   17.6847  -10.7811  -14.0748 C   0  0  0  0  0  0  0  0  0  0  0  0
   18.1189  -11.5118  -13.1517 O   0  0  0  0  0  0  0  0  0  0  0  0
   17.8102   -9.3716  -13.8649 N   0  0  0  0  0  0  0  0  0  0  0  0
   18.3329   -8.7955  -12.6235 C   0  0  1  0  0  0  0  0  0  0  0  0
   19.5564   -7.9658  -12.9197 C   0  0  0  0  0  0  0  0  0  0  0  0
   20.1704   -7.0312  -11.5144 S   0  0  0  0  0  0  0  0  0  0  0  0
   17.2579   -8.0658  -11.9091 C   0  0  0  0  0  0  0  0  0  0  0  0
   16.5286   -7.2428  -12.5714 O   0  0  0  0  0  0  0  0  0  0  0  0
   11.7745   -6.9597   -8.2003 N   0  0  0  0  0  0  0  0  0  0  0  0
   12.8595   -7.8118   -8.4609 C   0  0  0  0  0  0  0  0  0  0  0  0
   12.7206   -8.9132   -9.0099 O   0  0  0  0  0  0  0  0  0  0  0  0
   14.2417   -7.3670   -8.0566 C   0  0  0  0  0  0  0  0  0  0  0  0
   15.2692   -8.1772   -8.7904 C   0  0  0  0  0  0  0  0  0  0  0  0
   15.9729   -7.3995   -9.8278 C   0  0  2  0  0  0  0  0  0  0  0  0
   16.9619   -8.2013  -10.5488 N   0  0  0  0  0  0  0  0  0  0  0  0
   16.5008   -6.0994   -9.4266 C   0  0  0  0  0  0  0  0  0  0  0  0
   17.7090   -5.9201   -9.2204 O   0  0  0  0  0  0  0  0  0  0  0  0
   15.6601   -5.0136   -9.2590 O   0  0  0  0  0  0  0  0  0  0  0  0
  2  1  1  0
  2  3  1  0
  4  3  1  0
  5  7  1  0
  5  4  1  0
  5  6  1  1
  7  8  2  0
  9  7  1  0
  9 10  1  0
 10 11  1  6
 11 12  1  0
 13 21  1  0
 13 10  1  0
 14 13  2  0
 16 15  1  0
 17 16  2  0
 18 16  1  0
 20 19  1  1
 19 18  1  0
 20 22  1  0
 20 21  1  0
 22 24  1  0
 23 22  2  0
M  END
$$$$
