MCQ.pdb
     RDKit          3D

 24 23  0  0  1  0  0  0  0  0999 V2000
   14.5039   -8.6765  -17.0009 C   0  0  0  0  0  0  0  0  0  0  0  0
   15.4844   -8.8561  -18.4964 S   0  0  0  0  0  0  0  0  0  0  0  0
   17.2460   -9.0270  -18.0524 C   0  0  0  0  0  0  0  0  0  0  0  0
   17.4297   -9.1414  -16.5765 C   0  0  0  0  0  0  0  0  0  0  0  0
   18.8463   -9.2841  -16.1463 C   0  0  2  0  0  0  0  0  0  0  0  0
   19.4269  -10.5217  -16.6793 N   0  0  0  0  0  0  0  0  0  0  0  0
   19.0597   -9.2229  -14.6740 C   0  0  0  0  0  0  0  0  0  0  0  0
   19.0552  -10.2421  -13.9419 O   0  0  0  0  0  0  0  0  0  0  0  0
   19.2848   -7.9777  -14.0069 N   0  0  0  0  0  0  0  0  0  0  0  0
   19.4649   -7.8731  -12.5568 C   0  0  1  0  0  0  0  0  0  0  0  0
   20.7646   -7.1727  -12.2516 C   0  0  0  0  0  0  0  0  0  0  0  0
   20.9637   -6.7073  -10.5285 S   0  0  0  0  0  0  0  0  0  0  0  0
   18.2722   -7.2442  -11.9401 C   0  0  0  0  0  0  0  0  0  0  0  0
   17.8598   -6.1211  -12.4051 O   0  0  0  0  0  0  0  0  0  0  0  0
   13.5609   -9.8665   -8.8610 N   0  0  0  0  0  0  0  0  0  0  0  0
   13.2174   -8.5155   -8.6939 C   0  0  0  0  0  0  0  0  0  0  0  0
   12.1588   -8.1621   -8.1571 O   0  0  0  0  0  0  0  0  0  0  0  0
   14.1736   -7.4599   -9.1868 C   0  0  0  0  0  0  0  0  0  0  0  0
   15.4103   -8.1114   -9.7314 C   0  0  0  0  0  0  0  0  0  0  0  0
   16.3885   -7.1348  -10.2470 C   0  0  2  0  0  0  0  0  0  0  0  0
   17.5412   -7.7810  -10.8752 N   0  0  0  0  0  0  0  0  0  0  0  0
   16.7823   -6.0611   -9.3403 C   0  0  0  0  0  0  0  0  0  0  0  0
   16.0158   -5.1297   -9.0585 O   0  0  0  0  0  0  0  0  0  0  0  0
   18.0387   -6.0468   -8.7615 O   0  0  0  0  0  0  0  0  0  0  0  0
  2  1  1  0
  2  3  1  0
  4  3  1  0
  5  7  1  0
  5  4  1  0
  5  6  1  1
  7  8  2  0
  9  7  1  0
  9 10  1  0
 10 11  1  6
 11 12  1  0
 13 21  1  0
 13 10  1  0
 14 13  2  0
 16 15  1  0
 17 16  2  0
 18 16  1  0
 20 19  1  1
 19 18  1  0
 20 22  1  0
 20 21  1  0
 22 24  1  0
 23 22  2  0
M  END
$$$$
