MCQ.pdb
     RDKit          3D

 24 23  0  0  1  0  0  0  0  0999 V2000
   18.3164  -13.3369  -21.9121 C   0  0  0  0  0  0  0  0  0  0  0  0
   18.5444  -11.9025  -20.8534 S   0  0  0  0  0  0  0  0  0  0  0  0
   17.5784  -12.1177  -19.3204 C   0  0  0  0  0  0  0  0  0  0  0  0
   17.7243  -10.9434  -18.4123 C   0  0  0  0  0  0  0  0  0  0  0  0
   18.4883  -11.2248  -17.1675 C   0  0  2  0  0  0  0  0  0  0  0  0
   17.8761  -12.3313  -16.4235 N   0  0  0  0  0  0  0  0  0  0  0  0
   18.6665  -10.0523  -16.2673 C   0  0  0  0  0  0  0  0  0  0  0  0
   17.7565   -9.6256  -15.5161 O   0  0  0  0  0  0  0  0  0  0  0  0
   19.9058   -9.3400  -16.2113 N   0  0  0  0  0  0  0  0  0  0  0  0
   20.0925   -8.1302  -15.4064 C   0  0  1  0  0  0  0  0  0  0  0  0
   21.3558   -8.2471  -14.5921 C   0  0  0  0  0  0  0  0  0  0  0  0
   21.7572   -6.7781  -13.6402 S   0  0  0  0  0  0  0  0  0  0  0  0
   20.0329   -6.9286  -16.2730 C   0  0  0  0  0  0  0  0  0  0  0  0
   20.6959   -6.9298  -17.3721 O   0  0  0  0  0  0  0  0  0  0  0  0
   15.4155   -2.3393  -17.9135 N   0  0  0  0  0  0  0  0  0  0  0  0
   16.5165   -2.7966  -18.6549 C   0  0  0  0  0  0  0  0  0  0  0  0
   16.4240   -3.1248  -19.8454 O   0  0  0  0  0  0  0  0  0  0  0  0
   17.8581   -2.8903  -17.9742 C   0  0  0  0  0  0  0  0  0  0  0  0
   17.8974   -4.1073  -17.0979 C   0  0  0  0  0  0  0  0  0  0  0  0
   19.2713   -4.5773  -16.8375 C   0  0  2  0  0  0  0  0  0  0  0  0
   19.2997   -5.7710  -15.9918 N   0  0  0  0  0  0  0  0  0  0  0  0
   20.2372   -3.5714  -16.4075 C   0  0  0  0  0  0  0  0  0  0  0  0
   20.7128   -3.5690  -15.2637 O   0  0  0  0  0  0  0  0  0  0  0  0
   20.6562   -2.5755  -17.2715 O   0  0  0  0  0  0  0  0  0  0  0  0
  2  1  1  0
  2  3  1  0
  4  3  1  0
  5  7  1  0
  5  4  1  0
  5  6  1  1
  7  8  2  0
  9  7  1  0
  9 10  1  0
 10 11  1  6
 11 12  1  0
 13 21  1  0
 13 10  1  0
 14 13  2  0
 16 15  1  0
 17 16  2  0
 18 16  1  0
 20 19  1  1
 19 18  1  0
 20 22  1  0
 20 21  1  0
 22 24  1  0
 23 22  2  0
M  END
$$$$
