MCQ.pdb
     RDKit          3D

 24 23  0  0  1  0  0  0  0  0999 V2000
   23.3365  -17.5338  -16.9666 C   0  0  0  0  0  0  0  0  0  0  0  0
   23.7007  -15.7764  -17.0636 S   0  0  0  0  0  0  0  0  0  0  0  0
   24.6883  -15.2785  -15.6123 C   0  0  0  0  0  0  0  0  0  0  0  0
   24.9015  -13.8026  -15.5757 C   0  0  0  0  0  0  0  0  0  0  0  0
   25.2496  -13.2027  -16.8915 C   0  0  2  0  0  0  0  0  0  0  0  0
   26.5707  -13.6611  -17.3360 N   0  0  0  0  0  0  0  0  0  0  0  0
   25.1942  -11.7154  -16.9325 C   0  0  0  0  0  0  0  0  0  0  0  0
   26.1481  -10.9877  -16.5648 O   0  0  0  0  0  0  0  0  0  0  0  0
   24.0308  -11.0277  -17.4015 N   0  0  0  0  0  0  0  0  0  0  0  0
   23.9568   -9.5683  -17.5048 C   0  0  1  0  0  0  0  0  0  0  0  0
   24.3003   -9.1364  -18.9078 C   0  0  0  0  0  0  0  0  0  0  0  0
   23.3694   -9.9843  -20.1883 S   0  0  0  0  0  0  0  0  0  0  0  0
   22.6382   -9.0905  -17.0238 C   0  0  0  0  0  0  0  0  0  0  0  0
   21.6047   -9.8216  -17.2359 O   0  0  0  0  0  0  0  0  0  0  0  0
   20.0561   -8.9493  -12.1607 N   0  0  0  0  0  0  0  0  0  0  0  0
   19.0913   -8.1229  -12.7585 C   0  0  0  0  0  0  0  0  0  0  0  0
   18.0228   -7.8399  -12.2000 O   0  0  0  0  0  0  0  0  0  0  0  0
   19.3692   -7.5617  -14.1295 C   0  0  0  0  0  0  0  0  0  0  0  0
   20.7005   -8.0519  -14.6170 C   0  0  0  0  0  0  0  0  0  0  0  0
   21.1116   -7.4179  -15.8840 C   0  0  2  0  0  0  0  0  0  0  0  0
   22.4189   -7.8885  -16.3429 N   0  0  0  0  0  0  0  0  0  0  0  0
   20.9886   -5.9656  -15.9599 C   0  0  0  0  0  0  0  0  0  0  0  0
   21.9752   -5.2211  -15.8786 O   0  0  0  0  0  0  0  0  0  0  0  0
   19.7526   -5.3663  -16.1242 O   0  0  0  0  0  0  0  0  0  0  0  0
  2  1  1  0
  2  3  1  0
  4  3  1  0
  5  7  1  0
  5  4  1  0
  5  6  1  1
  7  8  2  0
  9  7  1  0
  9 10  1  0
 10 11  1  6
 11 12  1  0
 13 21  1  0
 13 10  1  0
 14 13  2  0
 16 15  1  0
 17 16  2  0
 18 16  1  0
 20 19  1  1
 19 18  1  0
 20 22  1  0
 20 21  1  0
 22 24  1  0
 23 22  2  0
M  END
$$$$
