MCQ.pdb
     RDKit          3D

 24 23  0  0  1  0  0  0  0  0999 V2000
   23.8874  -20.1682   -8.9646 C   0  0  0  0  0  0  0  0  0  0  0  0
   25.5446  -20.7560   -8.5924 S   0  0  0  0  0  0  0  0  0  0  0  0
   26.4609  -21.0192  -10.1482 C   0  0  0  0  0  0  0  0  0  0  0  0
   25.8582  -20.2499  -11.2751 C   0  0  0  0  0  0  0  0  0  0  0  0
   25.1088  -21.0837  -12.2525 C   0  0  2  0  0  0  0  0  0  0  0  0
   25.9925  -22.0809  -12.8668 N   0  0  0  0  0  0  0  0  0  0  0  0
   24.4032  -20.3157  -13.3151 C   0  0  0  0  0  0  0  0  0  0  0  0
   23.5948  -19.3895  -13.0635 O   0  0  0  0  0  0  0  0  0  0  0  0
   24.6144  -20.5988  -14.7013 N   0  0  0  0  0  0  0  0  0  0  0  0
   23.9144  -19.8880  -15.7741 C   0  0  1  0  0  0  0  0  0  0  0  0
   24.8861  -19.5296  -16.8696 C   0  0  0  0  0  0  0  0  0  0  0  0
   24.2535  -18.3373  -18.0544 S   0  0  0  0  0  0  0  0  0  0  0  0
   22.7448  -20.6778  -16.2289 C   0  0  0  0  0  0  0  0  0  0  0  0
   22.8581  -21.9540  -16.3079 O   0  0  0  0  0  0  0  0  0  0  0  0
   17.0461  -18.9630  -14.8502 N   0  0  0  0  0  0  0  0  0  0  0  0
   16.7609  -20.2417  -15.3551 C   0  0  0  0  0  0  0  0  0  0  0  0
   15.6315  -20.7451  -15.2857 O   0  0  0  0  0  0  0  0  0  0  0  0
   17.8714  -21.0272  -16.0042 C   0  0  0  0  0  0  0  0  0  0  0  0
   19.1448  -20.2354  -15.9597 C   0  0  0  0  0  0  0  0  0  0  0  0
   20.2570  -20.9057  -16.6597 C   0  0  2  0  0  0  0  0  0  0  0  0
   21.5026  -20.1419  -16.5841 N   0  0  0  0  0  0  0  0  0  0  0  0
   19.9850  -21.3884  -18.0098 C   0  0  0  0  0  0  0  0  0  0  0  0
   19.1288  -22.2551  -18.2339 O   0  0  0  0  0  0  0  0  0  0  0  0
   20.6837  -20.8905  -19.0951 O   0  0  0  0  0  0  0  0  0  0  0  0
  2  1  1  0
  2  3  1  0
  4  3  1  0
  5  7  1  0
  5  4  1  0
  5  6  1  6
  7  8  2  0
  9  7  1  0
  9 10  1  0
 10 11  1  6
 11 12  1  0
 13 21  1  0
 13 10  1  0
 14 13  2  0
 16 15  1  0
 17 16  2  0
 18 16  1  0
 20 19  1  6
 19 18  1  0
 20 22  1  0
 20 21  1  0
 22 24  1  0
 23 22  2  0
M  END
$$$$
