SQQ.pdb
     RDKit          3D

 25 24  0  0  1  0  0  0  0  0999 V2000
   27.3774  -11.7060  -15.8972 O   0  0  0  0  0  0  0  0  0  0  0  0
   27.1877  -11.8904  -17.2692 C   0  0  0  0  0  0  0  0  0  0  0  0
   27.8688  -10.7798  -18.0374 C   0  0  2  0  0  0  0  0  0  0  0  0
   28.9783  -10.2302  -17.3262 N   0  0  0  0  0  0  0  0  0  0  0  0
   26.9285   -9.7300  -18.4427 C   0  0  0  0  0  0  0  0  0  0  0  0
   26.8573   -8.6187  -17.8148 O   0  0  0  0  0  0  0  0  0  0  0  0
   24.5342   -9.6112  -23.9595 N   0  0  0  0  0  0  0  0  0  0  0  0
   25.7772   -9.0135  -23.6619 C   0  0  0  0  0  0  0  0  0  0  0  0
   26.6252   -8.7768  -24.5326 O   0  0  0  0  0  0  0  0  0  0  0  0
   26.0227   -8.6730  -22.2415 C   0  0  0  0  0  0  0  0  0  0  0  0
   24.8762   -9.0063  -21.3720 C   0  0  0  0  0  0  0  0  0  0  0  0
   25.1538   -8.7518  -19.8656 C   0  0  2  0  0  0  0  0  0  0  0  0
   26.0454   -9.8755  -19.5480 N   0  0  0  0  0  0  0  0  0  0  0  0
   23.8591   -8.8775  -19.1518 C   0  0  0  0  0  0  0  0  0  0  0  0
   23.5197  -10.0501  -18.8157 O   0  0  0  0  0  0  0  0  0  0  0  0
   20.1273   -8.8126  -14.6767 N   0  0  0  0  0  0  0  0  0  0  0  0
   21.3118   -8.0239  -14.5157 C   0  0  0  0  0  0  0  0  0  0  0  0
   21.4170   -7.3669  -13.4380 O   0  0  0  0  0  0  0  0  0  0  0  0
   22.3852   -7.9477  -15.5165 C   0  0  0  0  0  0  0  0  0  0  0  0
   22.1837   -8.7620  -16.7484 C   0  0  0  0  0  0  0  0  0  0  0  0
   21.7960   -7.9933  -17.9921 C   0  0  2  0  0  0  0  0  0  0  0  0
   23.0103   -7.8134  -18.8231 N   0  0  0  0  0  0  0  0  0  0  0  0
   21.0869   -6.7686  -17.9008 C   0  0  0  0  0  0  0  0  0  0  0  0
   21.4856   -5.5918  -18.1695 O   0  0  0  0  0  0  0  0  0  0  0  0
   19.7419   -6.7912  -17.4500 O   0  0  0  0  0  0  0  0  0  0  0  0
  2  1  1  0
  2  3  1  0
  3  4  1  1
  5  3  1  0
  5  6  2  0
  8  7  1  0
  8 10  1  0
  9  8  2  0
 11 10  1  0
 12 11  1  6
 13 12  1  0
 13  5  1  0
 14 15  2  0
 14 12  1  0
 16 17  1  0
 17 19  1  0
 18 17  2  0
 19 20  1  0
 21 20  1  1
 21 22  1  0
 21 23  1  0
 22 14  1  0
 23 25  1  0
 24 23  2  0
M  END
$$$$
