SQQ.pdb
     RDKit          3D

 25 24  0  0  1  0  0  0  0  0999 V2000
   16.1406  -14.6337  -16.1285 O   0  0  0  0  0  0  0  0  0  0  0  0
   16.7089  -13.3579  -16.1741 C   0  0  0  0  0  0  0  0  0  0  0  0
   17.1873  -13.0568  -17.5768 C   0  0  2  0  0  0  0  0  0  0  0  0
   18.1289  -14.0217  -18.0472 N   0  0  0  0  0  0  0  0  0  0  0  0
   17.7193  -11.6957  -17.6998 C   0  0  0  0  0  0  0  0  0  0  0  0
   18.9588  -11.4814  -17.9276 O   0  0  0  0  0  0  0  0  0  0  0  0
   14.1472   -6.7103  -18.1949 N   0  0  0  0  0  0  0  0  0  0  0  0
   15.3903   -6.0620  -18.3541 C   0  0  0  0  0  0  0  0  0  0  0  0
   15.4810   -4.8523  -18.6026 O   0  0  0  0  0  0  0  0  0  0  0  0
   16.5986   -6.9052  -18.2034 C   0  0  0  0  0  0  0  0  0  0  0  0
   16.2733   -8.3130  -17.8972 C   0  0  0  0  0  0  0  0  0  0  0  0
   17.5239   -9.2306  -17.8258 C   0  0  2  0  0  0  0  0  0  0  0  0
   16.9021  -10.5382  -17.5770 N   0  0  0  0  0  0  0  0  0  0  0  0
   18.3279   -8.7895  -16.6593 C   0  0  0  0  0  0  0  0  0  0  0  0
   17.9576   -9.2266  -15.5302 O   0  0  0  0  0  0  0  0  0  0  0  0
   23.5917  -10.7122  -15.4765 N   0  0  0  0  0  0  0  0  0  0  0  0
   23.4531   -9.7215  -14.4517 C   0  0  0  0  0  0  0  0  0  0  0  0
   24.3074   -9.7450  -13.5168 O   0  0  0  0  0  0  0  0  0  0  0  0
   22.3944   -8.7024  -14.4380 C   0  0  0  0  0  0  0  0  0  0  0  0
   21.3955   -8.7886  -15.5407 C   0  0  0  0  0  0  0  0  0  0  0  0
   20.3285   -7.7165  -15.5506 C   0  0  2  0  0  0  0  0  0  0  0  0
   19.4473   -7.9506  -16.7196 N   0  0  0  0  0  0  0  0  0  0  0  0
   20.6740   -6.3433  -15.4730 C   0  0  0  0  0  0  0  0  0  0  0  0
   20.6176   -5.4521  -16.3777 O   0  0  0  0  0  0  0  0  0  0  0  0
   21.1601   -5.8309  -14.2426 O   0  0  0  0  0  0  0  0  0  0  0  0
  2  1  1  0
  2  3  1  0
  3  4  1  1
  5  3  1  0
  5  6  2  0
  8  7  1  0
  8 10  1  0
  9  8  2  0
 11 10  1  0
 12 11  1  1
 13 12  1  0
 13  5  1  0
 14 15  2  0
 14 12  1  0
 16 17  1  0
 17 19  1  0
 18 17  2  0
 19 20  1  0
 21 20  1  6
 21 22  1  0
 21 23  1  0
 22 14  1  0
 23 25  1  0
 24 23  2  0
M  END
$$$$
