SQQ.pdb
     RDKit          3D

 25 24  0  0  1  0  0  0  0  0999 V2000
   20.6386  -12.7230  -17.1873 O   0  0  0  0  0  0  0  0  0  0  0  0
   19.3736  -12.5532  -16.6187 C   0  0  0  0  0  0  0  0  0  0  0  0
   18.4749  -11.8027  -17.5760 C   0  0  2  0  0  0  0  0  0  0  0  0
   18.4803  -12.3736  -18.8848 N   0  0  0  0  0  0  0  0  0  0  0  0
   18.7888  -10.3710  -17.6226 C   0  0  0  0  0  0  0  0  0  0  0  0
   18.3896   -9.6310  -18.5856 O   0  0  0  0  0  0  0  0  0  0  0  0
   15.9031   -6.6949  -16.3712 N   0  0  0  0  0  0  0  0  0  0  0  0
   16.4852   -7.1469  -15.1680 C   0  0  0  0  0  0  0  0  0  0  0  0
   15.8960   -7.0833  -14.0807 O   0  0  0  0  0  0  0  0  0  0  0  0
   17.8503   -7.7130  -15.2670 C   0  0  0  0  0  0  0  0  0  0  0  0
   18.3695   -7.7031  -16.6496 C   0  0  0  0  0  0  0  0  0  0  0  0
   19.8059   -8.2807  -16.7701 C   0  0  2  0  0  0  0  0  0  0  0  0
   19.5474   -9.7183  -16.6122 N   0  0  0  0  0  0  0  0  0  0  0  0
   20.5914   -7.7495  -15.6289 C   0  0  0  0  0  0  0  0  0  0  0  0
   21.0034   -8.6040  -14.7903 O   0  0  0  0  0  0  0  0  0  0  0  0
   25.2734   -8.2896  -15.4739 N   0  0  0  0  0  0  0  0  0  0  0  0
   25.5598   -6.9833  -15.9863 C   0  0  0  0  0  0  0  0  0  0  0  0
   26.7740   -6.6228  -15.9816 O   0  0  0  0  0  0  0  0  0  0  0  0
   24.5358   -6.0674  -16.5079 C   0  0  0  0  0  0  0  0  0  0  0  0
   23.1263   -6.5399  -16.4006 C   0  0  0  0  0  0  0  0  0  0  0  0
   22.3073   -5.9269  -15.2866 C   0  0  2  0  0  0  0  0  0  0  0  0
   20.9095   -6.4013  -15.4240 N   0  0  0  0  0  0  0  0  0  0  0  0
   22.3223   -4.5278  -15.0555 C   0  0  0  0  0  0  0  0  0  0  0  0
   23.0692   -3.8535  -14.2787 O   0  0  0  0  0  0  0  0  0  0  0  0
   21.3971   -3.7110  -15.7552 O   0  0  0  0  0  0  0  0  0  0  0  0
  2  1  1  0
  2  3  1  0
  3  4  1  6
  5  3  1  0
  5  6  2  0
  8  7  1  0
  8 10  1  0
  9  8  2  0
 11 10  1  0
 12 11  1  1
 13 12  1  0
 13  5  1  0
 14 15  2  0
 14 12  1  0
 16 17  1  0
 17 19  1  0
 18 17  2  0
 19 20  1  0
 21 20  1  6
 21 22  1  0
 21 23  1  0
 22 14  1  0
 23 25  1  0
 24 23  2  0
M  END
$$$$
