SQQ.pdb
     RDKit          3D

 25 24  0  0  1  0  0  0  0  0999 V2000
   20.0139  -12.9176  -18.9962 O   0  0  0  0  0  0  0  0  0  0  0  0
   20.5342  -11.9589  -18.1229 C   0  0  0  0  0  0  0  0  0  0  0  0
   21.5770  -12.5895  -17.2273 C   0  0  2  0  0  0  0  0  0  0  0  0
   21.0543  -13.6845  -16.4745 N   0  0  0  0  0  0  0  0  0  0  0  0
   22.2220  -11.6060  -16.3513 C   0  0  0  0  0  0  0  0  0  0  0  0
   21.9641  -11.5557  -15.1002 O   0  0  0  0  0  0  0  0  0  0  0  0
   27.8336  -10.3437  -16.7806 N   0  0  0  0  0  0  0  0  0  0  0  0
   27.2211  -11.3975  -16.0698 C   0  0  0  0  0  0  0  0  0  0  0  0
   27.8329  -12.4251  -15.7486 O   0  0  0  0  0  0  0  0  0  0  0  0
   25.7946  -11.2138  -15.7162 C   0  0  0  0  0  0  0  0  0  0  0  0
   25.2680   -9.9026  -16.1462 C   0  0  0  0  0  0  0  0  0  0  0  0
   23.7530   -9.7243  -15.8557 C   0  0  2  0  0  0  0  0  0  0  0  0
   23.1664  -10.6557  -16.8286 N   0  0  0  0  0  0  0  0  0  0  0  0
   23.4044   -8.3195  -16.1821 C   0  0  0  0  0  0  0  0  0  0  0  0
   23.3076   -8.0412  -17.4135 O   0  0  0  0  0  0  0  0  0  0  0  0
   20.8904   -5.5999  -19.2464 N   0  0  0  0  0  0  0  0  0  0  0  0
   20.3548   -4.7699  -18.2095 C   0  0  0  0  0  0  0  0  0  0  0  0
   19.6824   -3.7613  -18.5769 O   0  0  0  0  0  0  0  0  0  0  0  0
   20.5416   -5.0308  -16.7755 C   0  0  0  0  0  0  0  0  0  0  0  0
   21.3449   -6.2389  -16.4342 C   0  0  0  0  0  0  0  0  0  0  0  0
   22.5968   -5.9919  -15.6221 C   0  0  2  0  0  0  0  0  0  0  0  0
   23.1711   -7.3055  -15.2449 N   0  0  0  0  0  0  0  0  0  0  0  0
   22.5766   -5.1316  -14.4948 C   0  0  0  0  0  0  0  0  0  0  0  0
   22.7886   -5.4097  -13.2727 O   0  0  0  0  0  0  0  0  0  0  0  0
   22.2819   -3.7578  -14.6907 O   0  0  0  0  0  0  0  0  0  0  0  0
  2  1  1  0
  2  3  1  0
  3  4  1  1
  5  3  1  0
  5  6  2  0
  8  7  1  0
  8 10  1  0
  9  8  2  0
 11 10  1  0
 12 11  1  6
 13 12  1  0
 13  5  1  0
 14 15  2  0
 14 12  1  0
 16 17  1  0
 17 19  1  0
 18 17  2  0
 19 20  1  0
 21 20  1  1
 21 22  1  0
 21 23  1  0
 22 14  1  0
 23 25  1  0
 24 23  2  0
M  END
$$$$
