SQQ.pdb
     RDKit          3D

 25 24  0  0  1  0  0  0  0  0999 V2000
   22.9742  -16.6135  -18.1296 O   0  0  0  0  0  0  0  0  0  0  0  0
   23.9386  -15.7271  -18.6162 C   0  0  0  0  0  0  0  0  0  0  0  0
   23.4558  -15.0959  -19.9029 C   0  0  2  0  0  0  0  0  0  0  0  0
   23.0895  -16.0701  -20.8805 N   0  0  0  0  0  0  0  0  0  0  0  0
   24.4246  -14.1392  -20.4476 C   0  0  0  0  0  0  0  0  0  0  0  0
   24.8700  -14.2463  -21.6411 O   0  0  0  0  0  0  0  0  0  0  0  0
   25.2045   -9.1312  -24.2701 N   0  0  0  0  0  0  0  0  0  0  0  0
   24.5956  -10.0008  -23.3407 C   0  0  0  0  0  0  0  0  0  0  0  0
   23.5017  -10.5401  -23.5545 O   0  0  0  0  0  0  0  0  0  0  0  0
   25.3372  -10.2462  -22.0823 C   0  0  0  0  0  0  0  0  0  0  0  0
   24.7483  -11.3380  -21.2806 C   0  0  0  0  0  0  0  0  0  0  0  0
   25.7848  -12.0711  -20.3866 C   0  0  2  0  0  0  0  0  0  0  0  0
   24.9259  -13.0417  -19.6947 N   0  0  0  0  0  0  0  0  0  0  0  0
   26.3341  -11.0709  -19.4382 C   0  0  0  0  0  0  0  0  0  0  0  0
   25.5013  -10.5353  -18.6490 O   0  0  0  0  0  0  0  0  0  0  0  0
   32.6047   -9.9881  -18.0811 N   0  0  0  0  0  0  0  0  0  0  0  0
   31.8378   -9.2382  -17.1321 C   0  0  0  0  0  0  0  0  0  0  0  0
   32.4859   -8.6227  -16.2346 O   0  0  0  0  0  0  0  0  0  0  0  0
   30.3712   -9.1493  -17.1542 C   0  0  0  0  0  0  0  0  0  0  0  0
   29.6884   -9.9398  -18.2173 C   0  0  0  0  0  0  0  0  0  0  0  0
   28.1845   -9.7934  -18.2863 C   0  0  2  0  0  0  0  0  0  0  0  0
   27.6796  -10.6934  -19.3506 N   0  0  0  0  0  0  0  0  0  0  0  0
   27.5812   -8.5157  -18.4072 C   0  0  0  0  0  0  0  0  0  0  0  0
   27.2774   -7.8712  -19.4599 O   0  0  0  0  0  0  0  0  0  0  0  0
   27.2487   -7.8039  -17.2258 O   0  0  0  0  0  0  0  0  0  0  0  0
  2  1  1  0
  2  3  1  0
  3  4  1  6
  5  3  1  0
  5  6  2  0
  8  7  1  0
  8 10  1  0
  9  8  2  0
 11 10  1  0
 12 11  1  6
 13 12  1  0
 13  5  1  0
 14 15  2  0
 14 12  1  0
 16 17  1  0
 17 19  1  0
 18 17  2  0
 19 20  1  0
 21 20  1  6
 21 22  1  0
 21 23  1  0
 22 14  1  0
 23 25  1  0
 24 23  2  0
M  END
$$$$
