SQQ.pdb
     RDKit          3D

 25 24  0  0  1  0  0  0  0  0999 V2000
   17.9136  -13.8489  -16.0940 O   0  0  0  0  0  0  0  0  0  0  0  0
   19.1496  -13.3418  -15.6845 C   0  0  0  0  0  0  0  0  0  0  0  0
   19.3065  -11.9163  -16.1648 C   0  0  2  0  0  0  0  0  0  0  0  0
   19.4646  -11.8361  -17.5817 N   0  0  0  0  0  0  0  0  0  0  0  0
   20.3920  -11.2151  -15.4715 C   0  0  0  0  0  0  0  0  0  0  0  0
   20.4149  -11.1140  -14.1973 O   0  0  0  0  0  0  0  0  0  0  0  0
   26.3026  -12.9698  -15.8744 N   0  0  0  0  0  0  0  0  0  0  0  0
   25.6604  -11.7797  -16.2772 C   0  0  0  0  0  0  0  0  0  0  0  0
   26.1648  -10.9970  -17.0934 O   0  0  0  0  0  0  0  0  0  0  0  0
   24.3351  -11.5082  -15.6744 C   0  0  0  0  0  0  0  0  0  0  0  0
   23.7768  -10.2069  -16.0944 C   0  0  0  0  0  0  0  0  0  0  0  0
   22.4518   -9.8448  -15.3702 C   0  0  2  0  0  0  0  0  0  0  0  0
   21.4784  -10.6096  -16.1613 N   0  0  0  0  0  0  0  0  0  0  0  0
   22.2453   -8.3846  -15.5338 C   0  0  0  0  0  0  0  0  0  0  0  0
   21.8927   -7.9974  -16.6865 O   0  0  0  0  0  0  0  0  0  0  0  0
   20.2350   -4.7047  -17.8309 N   0  0  0  0  0  0  0  0  0  0  0  0
   19.7524   -4.0861  -16.6329 C   0  0  0  0  0  0  0  0  0  0  0  0
   19.1562   -2.9764  -16.7647 O   0  0  0  0  0  0  0  0  0  0  0  0
   19.9095   -4.6676  -15.2924 C   0  0  0  0  0  0  0  0  0  0  0  0
   20.5718   -6.0015  -15.2366 C   0  0  0  0  0  0  0  0  0  0  0  0
   21.9842   -6.0155  -14.6956 C   0  0  2  0  0  0  0  0  0  0  0  0
   22.4005   -7.4278  -14.5232 N   0  0  0  0  0  0  0  0  0  0  0  0
   22.3311   -5.2652  -13.5433 C   0  0  0  0  0  0  0  0  0  0  0  0
   22.4631   -5.6596  -12.3421 O   0  0  0  0  0  0  0  0  0  0  0  0
   22.5741   -3.8744  -13.6827 O   0  0  0  0  0  0  0  0  0  0  0  0
  2  1  1  0
  2  3  1  0
  3  4  1  6
  5  3  1  0
  5  6  2  0
  8  7  1  0
  8 10  1  0
  9  8  2  0
 11 10  1  0
 12 11  1  6
 13 12  1  0
 13  5  1  0
 14 15  2  0
 14 12  1  0
 16 17  1  0
 17 19  1  0
 18 17  2  0
 19 20  1  0
 21 20  1  1
 21 22  1  0
 21 23  1  0
 22 14  1  0
 23 25  1  0
 24 23  2  0
M  END
$$$$
