SQQ.pdb
     RDKit          3D

 25 24  0  0  1  0  0  0  0  0999 V2000
   15.1880  -10.0616  -17.1729 O   0  0  0  0  0  0  0  0  0  0  0  0
   16.1512   -9.8011  -16.1947 C   0  0  0  0  0  0  0  0  0  0  0  0
   17.3957  -10.6162  -16.4669 C   0  0  2  0  0  0  0  0  0  0  0  0
   17.2021  -12.0059  -16.2019 N   0  0  0  0  0  0  0  0  0  0  0  0
   18.5643  -10.0989  -15.7477 C   0  0  0  0  0  0  0  0  0  0  0  0
   18.5721   -9.9951  -14.4735 O   0  0  0  0  0  0  0  0  0  0  0  0
   24.2967  -10.7704  -17.4540 N   0  0  0  0  0  0  0  0  0  0  0  0
   23.5237  -11.7047  -16.7326 C   0  0  0  0  0  0  0  0  0  0  0  0
   23.8195  -12.9057  -16.6730 O   0  0  0  0  0  0  0  0  0  0  0  0
   22.3284  -11.1752  -16.0365 C   0  0  0  0  0  0  0  0  0  0  0  0
   22.0846   -9.7490  -16.3331 C   0  0  0  0  0  0  0  0  0  0  0  0
   20.8532   -9.1684  -15.5863 C   0  0  2  0  0  0  0  0  0  0  0  0
   19.7524   -9.6848  -16.4108 N   0  0  0  0  0  0  0  0  0  0  0  0
   20.9408   -7.6899  -15.6755 C   0  0  0  0  0  0  0  0  0  0  0  0
   20.7936   -7.1917  -16.8302 O   0  0  0  0  0  0  0  0  0  0  0  0
   17.0308   -3.7853  -14.8331 N   0  0  0  0  0  0  0  0  0  0  0  0
   18.1658   -2.9155  -14.7535 C   0  0  0  0  0  0  0  0  0  0  0  0
   17.9282   -1.6737  -14.6775 O   0  0  0  0  0  0  0  0  0  0  0  0
   19.5578   -3.3865  -14.7518 C   0  0  0  0  0  0  0  0  0  0  0  0
   19.7433   -4.8652  -14.7757 C   0  0  0  0  0  0  0  0  0  0  0  0
   21.1752   -5.3517  -14.7476 C   0  0  2  0  0  0  0  0  0  0  0  0
   21.1606   -6.8263  -14.5955 N   0  0  0  0  0  0  0  0  0  0  0  0
   22.1210   -4.7832  -13.8569 C   0  0  0  0  0  0  0  0  0  0  0  0
   22.6728   -5.3042  -12.8371 O   0  0  0  0  0  0  0  0  0  0  0  0
   22.5498   -3.4490  -14.0779 O   0  0  0  0  0  0  0  0  0  0  0  0
  2  1  1  0
  2  3  1  0
  3  4  1  1
  5  3  1  0
  5  6  2  0
  8  7  1  0
  8 10  1  0
  9  8  2  0
 11 10  1  0
 12 11  1  6
 13 12  1  0
 13  5  1  0
 14 15  2  0
 14 12  1  0
 16 17  1  0
 17 19  1  0
 18 17  2  0
 19 20  1  0
 21 20  1  1
 21 22  1  0
 21 23  1  0
 22 14  1  0
 23 25  1  0
 24 23  2  0
M  END
$$$$
