SQQ.pdb
     RDKit          3D

 25 24  0  0  1  0  0  0  0  0999 V2000
   20.4155  -12.3289  -21.8414 O   0  0  0  0  0  0  0  0  0  0  0  0
   20.5650  -11.5740  -20.6751 C   0  0  0  0  0  0  0  0  0  0  0  0
   21.0397  -12.4599  -19.5451 C   0  0  2  0  0  0  0  0  0  0  0  0
   20.1424  -13.5411  -19.2904 N   0  0  0  0  0  0  0  0  0  0  0  0
   21.3103  -11.6985  -18.3212 C   0  0  0  0  0  0  0  0  0  0  0  0
   21.4143  -12.2755  -17.1852 O   0  0  0  0  0  0  0  0  0  0  0  0
   25.8291  -10.9497  -16.5157 N   0  0  0  0  0  0  0  0  0  0  0  0
   25.3760  -10.0219  -15.5541 C   0  0  0  0  0  0  0  0  0  0  0  0
   26.0973   -9.6143  -14.6337 O   0  0  0  0  0  0  0  0  0  0  0  0
   23.9806   -9.5475  -15.7005 C   0  0  0  0  0  0  0  0  0  0  0  0
   23.2973  -10.1461  -16.8651 C   0  0  0  0  0  0  0  0  0  0  0  0
   21.8399   -9.6423  -17.0476 C   0  0  2  0  0  0  0  0  0  0  0  0
   21.4745  -10.2858  -18.3167 N   0  0  0  0  0  0  0  0  0  0  0  0
   21.8989   -8.1669  -17.1931 C   0  0  0  0  0  0  0  0  0  0  0  0
   22.5721   -7.7300  -18.1724 O   0  0  0  0  0  0  0  0  0  0  0  0
   17.1555   -4.1918  -16.7112 N   0  0  0  0  0  0  0  0  0  0  0  0
   18.2984   -3.3311  -16.7752 C   0  0  0  0  0  0  0  0  0  0  0  0
   18.0716   -2.0891  -16.8769 O   0  0  0  0  0  0  0  0  0  0  0  0
   19.6865   -3.8107  -16.7253 C   0  0  0  0  0  0  0  0  0  0  0  0
   19.8601   -5.2854  -16.5968 C   0  0  0  0  0  0  0  0  0  0  0  0
   21.2873   -5.7860  -16.6092 C   0  0  2  0  0  0  0  0  0  0  0  0
   21.2688   -7.2452  -16.3479 N   0  0  0  0  0  0  0  0  0  0  0  0
   22.2846   -5.1653  -15.8147 C   0  0  0  0  0  0  0  0  0  0  0  0
   22.8516   -5.5967  -14.7619 O   0  0  0  0  0  0  0  0  0  0  0  0
   22.7556   -3.8813  -16.1918 O   0  0  0  0  0  0  0  0  0  0  0  0
  2  1  1  0
  2  3  1  0
  3  4  1  1
  5  3  1  0
  5  6  2  0
  8  7  1  0
  8 10  1  0
  9  8  2  0
 11 10  1  0
 12 11  1  6
 13 12  1  0
 13  5  1  0
 14 15  2  0
 14 12  1  0
 16 17  1  0
 17 19  1  0
 18 17  2  0
 19 20  1  0
 21 20  1  1
 21 22  1  0
 21 23  1  0
 22 14  1  0
 23 25  1  0
 24 23  2  0
M  END
$$$$
