SQQ.pdb
     RDKit          3D

 25 24  0  0  1  0  0  0  0  0999 V2000
   18.5819  -21.9632  -12.4507 O   0  0  0  0  0  0  0  0  0  0  0  0
   19.6373  -21.2026  -12.9609 C   0  0  0  0  0  0  0  0  0  0  0  0
   20.9251  -21.5723  -12.2593 C   0  0  2  0  0  0  0  0  0  0  0  0
   20.8630  -21.3360  -10.8525 N   0  0  0  0  0  0  0  0  0  0  0  0
   22.0898  -20.9100  -12.8554 C   0  0  0  0  0  0  0  0  0  0  0  0
   22.4246  -19.7216  -12.5236 O   0  0  0  0  0  0  0  0  0  0  0  0
   26.6997  -23.9416  -15.4036 N   0  0  0  0  0  0  0  0  0  0  0  0
   27.1746  -22.6484  -15.7085 C   0  0  0  0  0  0  0  0  0  0  0  0
   28.2762  -22.4540  -16.2395 O   0  0  0  0  0  0  0  0  0  0  0  0
   26.2808  -21.5187  -15.3640 C   0  0  0  0  0  0  0  0  0  0  0  0
   24.9769  -21.9679  -14.8354 C   0  0  0  0  0  0  0  0  0  0  0  0
   24.0979  -20.8050  -14.3002 C   0  0  2  0  0  0  0  0  0  0  0  0
   22.9150  -21.5378  -13.8289 N   0  0  0  0  0  0  0  0  0  0  0  0
   23.7643  -19.9369  -15.4563 C   0  0  0  0  0  0  0  0  0  0  0  0
   22.8750  -20.3751  -16.2438 O   0  0  0  0  0  0  0  0  0  0  0  0
   24.7906  -13.5761  -15.8373 N   0  0  0  0  0  0  0  0  0  0  0  0
   24.2112  -13.9541  -17.0913 C   0  0  0  0  0  0  0  0  0  0  0  0
   24.0066  -13.0252  -17.9277 O   0  0  0  0  0  0  0  0  0  0  0  0
   23.8562  -15.3357  -17.4442 C   0  0  0  0  0  0  0  0  0  0  0  0
   24.2097  -16.3750  -16.4360 C   0  0  0  0  0  0  0  0  0  0  0  0
   23.8441  -17.7974  -16.7977 C   0  0  2  0  0  0  0  0  0  0  0  0
   24.3443  -18.6912  -15.7260 N   0  0  0  0  0  0  0  0  0  0  0  0
   24.1738  -18.3344  -18.0681 C   0  0  0  0  0  0  0  0  0  0  0  0
   23.6180  -18.1277  -19.1925 O   0  0  0  0  0  0  0  0  0  0  0  0
   25.2639  -19.2373  -18.1648 O   0  0  0  0  0  0  0  0  0  0  0  0
  2  1  1  0
  2  3  1  0
  3  4  1  1
  5  3  1  0
  5  6  2  0
  8  7  1  0
  8 10  1  0
  9  8  2  0
 11 10  1  0
 12 11  1  6
 13 12  1  0
 13  5  1  0
 14 15  2  0
 14 12  1  0
 16 17  1  0
 17 19  1  0
 18 17  2  0
 19 20  1  0
 21 20  1  1
 21 22  1  0
 21 23  1  0
 22 14  1  0
 23 25  1  0
 24 23  2  0
M  END
$$$$
