SQQ.pdb
     RDKit          3D

 25 24  0  0  1  0  0  0  0  0999 V2000
   15.9793  -10.6792  -17.3360 O   0  0  0  0  0  0  0  0  0  0  0  0
   16.3953  -10.6690  -16.0020 C   0  0  0  0  0  0  0  0  0  0  0  0
   17.8735  -10.3587  -15.9256 C   0  0  2  0  0  0  0  0  0  0  0  0
   18.6745  -11.3915  -16.5006 N   0  0  0  0  0  0  0  0  0  0  0  0
   18.3052  -10.0552  -14.5573 C   0  0  0  0  0  0  0  0  0  0  0  0
   19.1017  -10.8272  -13.9218 O   0  0  0  0  0  0  0  0  0  0  0  0
   21.3283   -6.6487  -11.3576 N   0  0  0  0  0  0  0  0  0  0  0  0
   20.9651   -6.2403  -12.6584 C   0  0  0  0  0  0  0  0  0  0  0  0
   21.3406   -5.1657  -13.1458 O   0  0  0  0  0  0  0  0  0  0  0  0
   20.1063   -7.1707  -13.4268 C   0  0  0  0  0  0  0  0  0  0  0  0
   19.8518   -8.4343  -12.7056 C   0  0  0  0  0  0  0  0  0  0  0  0
   18.3423   -8.7162  -12.4750 C   0  0  2  0  0  0  0  0  0  0  0  0
   17.8734   -8.8960  -13.8556 N   0  0  0  0  0  0  0  0  0  0  0  0
   17.7549   -7.4980  -11.8646 C   0  0  0  0  0  0  0  0  0  0  0  0
   17.6596   -6.4866  -12.6204 O   0  0  0  0  0  0  0  0  0  0  0  0
   12.2679   -7.3047   -9.5019 N   0  0  0  0  0  0  0  0  0  0  0  0
   13.3115   -7.9484   -8.7619 C   0  0  0  0  0  0  0  0  0  0  0  0
   12.9571   -8.8378   -7.9326 O   0  0  0  0  0  0  0  0  0  0  0  0
   14.7385   -7.6350   -8.9201 C   0  0  0  0  0  0  0  0  0  0  0  0
   15.0704   -6.6301   -9.9695 C   0  0  0  0  0  0  0  0  0  0  0  0
   16.5252   -6.2264  -10.0607 C   0  0  2  0  0  0  0  0  0  0  0  0
   17.3006   -7.3937  -10.5442 N   0  0  0  0  0  0  0  0  0  0  0  0
   17.1869   -5.6301   -8.9572 C   0  0  0  0  0  0  0  0  0  0  0  0
   18.1955   -6.0500   -8.3073 O   0  0  0  0  0  0  0  0  0  0  0  0
   16.7028   -4.3931   -8.4589 O   0  0  0  0  0  0  0  0  0  0  0  0
  2  1  1  0
  2  3  1  0
  3  4  1  1
  5  3  1  0
  5  6  2  0
  8  7  1  0
  8 10  1  0
  9  8  2  0
 11 10  1  0
 12 11  1  6
 13 12  1  0
 13  5  1  0
 14 15  2  0
 14 12  1  0
 16 17  1  0
 17 19  1  0
 18 17  2  0
 19 20  1  0
 21 20  1  1
 21 22  1  0
 21 23  1  0
 22 14  1  0
 23 25  1  0
 24 23  2  0
M  END
$$$$
