SQQ.pdb
     RDKit          3D

 25 24  0  0  1  0  0  0  0  0999 V2000
   19.7313  -16.7597  -17.3372 O   0  0  0  0  0  0  0  0  0  0  0  0
   19.7006  -15.4654  -17.8630 C   0  0  0  0  0  0  0  0  0  0  0  0
   20.2243  -14.4814  -16.8409 C   0  0  2  0  0  0  0  0  0  0  0  0
   20.0762  -14.9590  -15.5033 N   0  0  0  0  0  0  0  0  0  0  0  0
   19.6266  -13.1513  -16.9963 C   0  0  0  0  0  0  0  0  0  0  0  0
   19.7902  -12.4663  -18.0632 O   0  0  0  0  0  0  0  0  0  0  0  0
   14.2983  -11.6525  -15.1951 N   0  0  0  0  0  0  0  0  0  0  0  0
   14.6501  -12.1190  -16.4795 C   0  0  0  0  0  0  0  0  0  0  0  0
   13.8319  -12.6573  -17.2372 O   0  0  0  0  0  0  0  0  0  0  0  0
   16.0610  -11.9284  -16.8875 C   0  0  0  0  0  0  0  0  0  0  0  0
   16.8736  -11.2845  -15.8356 C   0  0  0  0  0  0  0  0  0  0  0  0
   18.3765  -11.1650  -16.2076 C   0  0  2  0  0  0  0  0  0  0  0  0
   18.8341  -12.5430  -15.9841 N   0  0  0  0  0  0  0  0  0  0  0  0
   18.9976  -10.2306  -15.2367 C   0  0  0  0  0  0  0  0  0  0  0  0
   19.2846  -10.7150  -14.1026 O   0  0  0  0  0  0  0  0  0  0  0  0
   22.0900   -5.2097  -15.4991 N   0  0  0  0  0  0  0  0  0  0  0  0
   22.3713   -5.6936  -14.1809 C   0  0  0  0  0  0  0  0  0  0  0  0
   22.8218   -4.8517  -13.3487 O   0  0  0  0  0  0  0  0  0  0  0  0
   22.1624   -7.0858  -13.7595 C   0  0  0  0  0  0  0  0  0  0  0  0
   21.3835   -7.9395  -14.7007 C   0  0  0  0  0  0  0  0  0  0  0  0
   19.8919   -7.9998  -14.4575 C   0  0  2  0  0  0  0  0  0  0  0  0
   19.2904   -8.8838  -15.4843 N   0  0  0  0  0  0  0  0  0  0  0  0
   19.1251   -6.8135  -14.3318 C   0  0  0  0  0  0  0  0  0  0  0  0
   18.4759   -6.1826  -15.2242 O   0  0  0  0  0  0  0  0  0  0  0  0
   19.0326   -6.1929  -13.0594 O   0  0  0  0  0  0  0  0  0  0  0  0
  2  1  1  0
  2  3  1  0
  3  4  1  1
  5  3  1  0
  5  6  2  0
  8  7  1  0
  8 10  1  0
  9  8  2  0
 11 10  1  0
 12 11  1  1
 13 12  1  0
 13  5  1  0
 14 15  2  0
 14 12  1  0
 16 17  1  0
 17 19  1  0
 18 17  2  0
 19 20  1  0
 21 20  1  6
 21 22  1  0
 21 23  1  0
 22 14  1  0
 23 25  1  0
 24 23  2  0
M  END
$$$$
