HCM.pdb
     RDKit          3D

 25 25  0  0  1  0  0  0  0  0999 V2000
    8.7153  -15.9088   19.8662 N   0  0  0  0  0  0  0  0  0  0  0  0
    7.7681  -14.9173   20.3413 C   0  0  1  0  0  0  0  0  0  0  0  0
    6.7226  -14.7224   19.2817 C   0  0  0  0  0  0  0  0  0  0  0  0
    7.4149  -14.4111   18.0138 C   0  0  0  0  0  0  0  0  0  0  0  0
    8.0656  -13.2269   17.7429 C   0  0  0  0  0  0  0  0  0  0  0  0
    8.5912  -13.2615   16.5084 N   0  0  0  0  0  0  0  0  0  0  0  0
    8.2844  -14.4533   15.9867 C   0  0  0  0  0  0  0  0  0  0  0  0
    7.5647  -15.1570   16.9074 N   0  0  0  0  0  0  0  0  0  0  0  0
    7.2179  -15.4123   21.6270 C   0  0  0  0  0  0  0  0  0  0  0  0
    6.0094  -15.2569   21.9240 O   0  0  0  0  0  0  0  0  0  0  0  0
    8.0345  -16.0819   22.5745 N   0  0  0  0  0  0  0  0  0  0  0  0
    7.5726  -16.6392   23.8252 C   0  0  1  0  0  0  0  0  0  0  0  0
    6.3837  -17.5236   23.5248 C   0  0  0  0  0  0  0  0  0  0  0  0
    6.0364  -18.7080   24.8269 S   0  0  0  0  0  0  0  0  0  0  0  0
    8.6260  -17.3896   24.5332 C   0  0  0  0  0  0  0  0  0  0  0  0
    9.0574  -18.4811   24.1218 O   0  0  0  0  0  0  0  0  0  0  0  0
    6.8208  -10.8211   26.9585 C   0  0  0  0  0  0  0  0  0  0  0  0
    7.0696  -12.5767   27.1377 S   0  0  0  0  0  0  0  0  0  0  0  0
    7.4336  -13.4938   25.6614 C   0  0  0  0  0  0  0  0  0  0  0  0
    7.6491  -14.9421   25.7922 C   0  0  0  0  0  0  0  0  0  0  0  0
    8.9343  -15.5073   26.2103 C   0  0  2  0  0  0  0  0  0  0  0  0
    9.1679  -16.8468   25.7275 N   0  0  0  0  0  0  0  0  0  0  0  0
    9.3252  -15.4073   27.6149 C   0  0  0  0  0  0  0  0  0  0  0  0
    8.9678  -16.2752   28.4390 O   0  0  0  0  0  0  0  0  0  0  0  0
   10.0955  -14.3515   28.0533 O   0  0  0  0  0  0  0  0  0  0  0  0
  2  9  1  0
  2  1  1  6
  3  2  1  0
  4  3  1  0
  5  4  2  0
  6  7  1  0
  6  5  1  0
  7  8  2  0
  8  4  1  0
  9 10  2  0
 11 12  1  0
 11  9  1  0
 12 13  1  6
 14 13  1  0
 15 12  1  0
 15 16  2  0
 17 18  1  0
 19 18  1  0
 20 19  1  0
 21 22  1  0
 21 20  1  1
 22 15  1  0
 23 21  1  0
 24 23  2  0
 25 23  1  0
M  END
$$$$
