HCM.pdb
     RDKit          3D

 25 25  0  0  1  0  0  0  0  0999 V2000
    7.1347  -16.6388   18.4401 N   0  0  0  0  0  0  0  0  0  0  0  0
    8.1823  -15.9494   19.1704 C   0  0  1  0  0  0  0  0  0  0  0  0
    8.0474  -14.4778   18.9061 C   0  0  0  0  0  0  0  0  0  0  0  0
    8.3042  -14.2499   17.4688 C   0  0  0  0  0  0  0  0  0  0  0  0
    7.4183  -13.6567   16.5956 C   0  0  0  0  0  0  0  0  0  0  0  0
    7.9533  -13.5962   15.3662 N   0  0  0  0  0  0  0  0  0  0  0  0
    9.1704  -14.1434   15.4427 C   0  0  0  0  0  0  0  0  0  0  0  0
    9.3855  -14.5436   16.7290 N   0  0  0  0  0  0  0  0  0  0  0  0
    8.0312  -16.3066   20.6023 C   0  0  0  0  0  0  0  0  0  0  0  0
    6.9524  -16.1170   21.2130 O   0  0  0  0  0  0  0  0  0  0  0  0
    9.0996  -16.8772   21.3412 N   0  0  0  0  0  0  0  0  0  0  0  0
    9.0375  -17.2609   22.7329 C   0  0  1  0  0  0  0  0  0  0  0  0
    9.8421  -18.5303   22.8976 C   0  0  0  0  0  0  0  0  0  0  0  0
    9.1565  -19.9237   21.9992 S   0  0  0  0  0  0  0  0  0  0  0  0
    9.5280  -16.2018   23.6339 C   0  0  0  0  0  0  0  0  0  0  0  0
   10.5984  -15.6008   23.4349 O   0  0  0  0  0  0  0  0  0  0  0  0
    5.4990  -11.3932   27.6282 C   0  0  0  0  0  0  0  0  0  0  0  0
    6.8420  -11.3263   26.4585 S   0  0  0  0  0  0  0  0  0  0  0  0
    8.0989  -12.5722   26.6025 C   0  0  0  0  0  0  0  0  0  0  0  0
    8.0815  -13.6758   25.6315 C   0  0  0  0  0  0  0  0  0  0  0  0
    9.0477  -14.7760   25.6801 C   0  0  2  0  0  0  0  0  0  0  0  0
    8.7503  -15.8550   24.7696 N   0  0  0  0  0  0  0  0  0  0  0  0
    9.4388  -15.3139   26.9814 C   0  0  0  0  0  0  0  0  0  0  0  0
    9.1294  -16.4790   27.3084 O   0  0  0  0  0  0  0  0  0  0  0  0
   10.1563  -14.5424   27.8704 O   0  0  0  0  0  0  0  0  0  0  0  0
  2  9  1  0
  2  1  1  6
  3  2  1  0
  4  3  1  0
  5  4  2  0
  6  7  1  0
  6  5  1  0
  7  8  2  0
  8  4  1  0
  9 10  2  0
 11 12  1  0
 11  9  1  0
 12 13  1  6
 14 13  1  0
 15 12  1  0
 15 16  2  0
 17 18  1  0
 19 18  1  0
 20 19  1  0
 21 22  1  0
 21 20  1  1
 22 15  1  0
 23 21  1  0
 24 23  2  0
 25 23  1  0
M  END
$$$$
