HCM.pdb
     RDKit          3D

 25 25  0  0  1  0  0  0  0  0999 V2000
    6.8327  -17.7634   20.2531 N   0  0  0  0  0  0  0  0  0  0  0  0
    6.2897  -17.1066   21.4277 C   0  0  1  0  0  0  0  0  0  0  0  0
    5.6526  -18.1520   22.2967 C   0  0  0  0  0  0  0  0  0  0  0  0
    4.4942  -18.7054   21.5648 C   0  0  0  0  0  0  0  0  0  0  0  0
    4.1180  -18.3353   20.2917 C   0  0  0  0  0  0  0  0  0  0  0  0
    3.0297  -19.0239   19.9141 N   0  0  0  0  0  0  0  0  0  0  0  0
    2.7054  -19.8297   20.9300 C   0  0  0  0  0  0  0  0  0  0  0  0
    3.6012  -19.6352   21.9402 N   0  0  0  0  0  0  0  0  0  0  0  0
    7.4075  -16.3915   22.0906 C   0  0  0  0  0  0  0  0  0  0  0  0
    8.6037  -16.6614   21.8276 O   0  0  0  0  0  0  0  0  0  0  0  0
    7.1715  -15.3727   23.0495 N   0  0  0  0  0  0  0  0  0  0  0  0
    8.1937  -14.6995   23.8175 C   0  0  1  0  0  0  0  0  0  0  0  0
    7.6151  -13.3921   24.3091 C   0  0  0  0  0  0  0  0  0  0  0  0
    6.4080  -13.6013   25.6198 S   0  0  0  0  0  0  0  0  0  0  0  0
    8.6870  -15.5168   24.9413 C   0  0  0  0  0  0  0  0  0  0  0  0
    7.9224  -16.1506   25.6899 O   0  0  0  0  0  0  0  0  0  0  0  0
   11.1903  -12.8989   29.2324 C   0  0  0  0  0  0  0  0  0  0  0  0
    9.8797  -14.1001   29.1068 S   0  0  0  0  0  0  0  0  0  0  0  0
   10.3525  -15.7744   28.7517 C   0  0  0  0  0  0  0  0  0  0  0  0
    9.8995  -16.3576   27.4806 C   0  0  0  0  0  0  0  0  0  0  0  0
   10.7098  -16.3018   26.2614 C   0  0  2  0  0  0  0  0  0  0  0  0
   10.0850  -15.5831   25.1774 N   0  0  0  0  0  0  0  0  0  0  0  0
   11.3155  -17.5337   25.7604 C   0  0  0  0  0  0  0  0  0  0  0  0
   12.2223  -18.1047   26.4023 O   0  0  0  0  0  0  0  0  0  0  0  0
   10.8954  -18.0859   24.5692 O   0  0  0  0  0  0  0  0  0  0  0  0
  2  9  1  0
  2  1  1  6
  3  2  1  0
  4  3  1  0
  5  4  2  0
  6  7  1  0
  6  5  1  0
  7  8  2  0
  8  4  1  0
  9 10  2  0
 11 12  1  0
 11  9  1  0
 12 13  1  1
 14 13  1  0
 15 12  1  0
 15 16  2  0
 17 18  1  0
 19 18  1  0
 20 19  1  0
 21 22  1  0
 21 20  1  1
 22 15  1  0
 23 21  1  0
 24 23  2  0
 25 23  1  0
M  END
$$$$
