HCM.pdb
     RDKit          3D

 25 25  0  0  1  0  0  0  0  0999 V2000
    8.8593  -16.7854   19.0942 N   0  0  0  0  0  0  0  0  0  0  0  0
    8.5403  -15.7402   20.0490 C   0  0  1  0  0  0  0  0  0  0  0  0
    7.2342  -15.1195   19.6454 C   0  0  0  0  0  0  0  0  0  0  0  0
    7.4354  -14.4446   18.3462 C   0  0  0  0  0  0  0  0  0  0  0  0
    8.0425  -13.2182   18.1824 C   0  0  0  0  0  0  0  0  0  0  0  0
    8.0711  -12.8881   16.8818 N   0  0  0  0  0  0  0  0  0  0  0  0
    7.4900  -13.8882   16.2122 C   0  0  0  0  0  0  0  0  0  0  0  0
    7.1008  -14.8408   17.1077 N   0  0  0  0  0  0  0  0  0  0  0  0
    8.5040  -16.3659   21.3935 C   0  0  0  0  0  0  0  0  0  0  0  0
    7.4492  -16.8636   21.8547 O   0  0  0  0  0  0  0  0  0  0  0  0
    9.6596  -16.4281   22.2142 N   0  0  0  0  0  0  0  0  0  0  0  0
    9.6920  -16.9274   23.5698 C   0  0  1  0  0  0  0  0  0  0  0  0
   10.6539  -18.0931   23.6089 C   0  0  0  0  0  0  0  0  0  0  0  0
   12.1690  -17.7908   22.6967 S   0  0  0  0  0  0  0  0  0  0  0  0
   10.0758  -15.8905   24.5453 C   0  0  0  0  0  0  0  0  0  0  0  0
   10.4705  -14.7632   24.1986 O   0  0  0  0  0  0  0  0  0  0  0  0
    7.5268  -10.8284   25.8918 C   0  0  0  0  0  0  0  0  0  0  0  0
    6.7631  -12.1983   26.7380 S   0  0  0  0  0  0  0  0  0  0  0  0
    7.8471  -13.4139   27.4454 C   0  0  0  0  0  0  0  0  0  0  0  0
    8.4538  -14.3990   26.5384 C   0  0  0  0  0  0  0  0  0  0  0  0
    9.5585  -15.2674   26.9526 C   0  0  2  0  0  0  0  0  0  0  0  0
    9.9915  -16.1891   25.9304 N   0  0  0  0  0  0  0  0  0  0  0  0
    9.4714  -15.9539   28.2397 C   0  0  0  0  0  0  0  0  0  0  0  0
    8.9261  -17.0741   28.3288 O   0  0  0  0  0  0  0  0  0  0  0  0
    9.9902  -15.3748   29.3781 O   0  0  0  0  0  0  0  0  0  0  0  0
  2  9  1  0
  2  1  1  6
  3  2  1  0
  4  3  1  0
  5  4  2  0
  6  7  1  0
  6  5  1  0
  7  8  2  0
  8  4  1  0
  9 10  2  0
 11 12  1  0
 11  9  1  0
 12 13  1  6
 14 13  1  0
 15 12  1  0
 15 16  2  0
 17 18  1  0
 19 18  1  0
 20 19  1  0
 21 22  1  0
 21 20  1  6
 22 15  1  0
 23 21  1  0
 24 23  2  0
 25 23  1  0
M  END
$$$$
