HCM.pdb
     RDKit          3D

 25 25  0  0  1  0  0  0  0  0999 V2000
    8.5274  -17.0439   18.4020 N   0  0  0  0  0  0  0  0  0  0  0  0
    8.6542  -15.9525   19.3499 C   0  0  1  0  0  0  0  0  0  0  0  0
    7.5463  -14.9737   19.0886 C   0  0  0  0  0  0  0  0  0  0  0  0
    7.8176  -14.3172   17.7928 C   0  0  0  0  0  0  0  0  0  0  0  0
    8.5299  -13.1477   17.6372 C   0  0  0  0  0  0  0  0  0  0  0  0
    8.5996  -12.8198   16.3376 N   0  0  0  0  0  0  0  0  0  0  0  0
    7.9406  -13.7651   15.6605 C   0  0  0  0  0  0  0  0  0  0  0  0
    7.4619  -14.6816   16.5504 N   0  0  0  0  0  0  0  0  0  0  0  0
    8.6105  -16.5416   20.7106 C   0  0  0  0  0  0  0  0  0  0  0  0
    7.5249  -16.8679   21.2472 O   0  0  0  0  0  0  0  0  0  0  0  0
    9.7936  -16.7608   21.4624 N   0  0  0  0  0  0  0  0  0  0  0  0
    9.8388  -17.2732   22.8128 C   0  0  1  0  0  0  0  0  0  0  0  0
   11.0830  -18.1223   22.9424 C   0  0  0  0  0  0  0  0  0  0  0  0
   11.3628  -18.7168   24.6119 S   0  0  0  0  0  0  0  0  0  0  0  0
    9.8207  -16.2013   23.8251 C   0  0  0  0  0  0  0  0  0  0  0  0
   10.5695  -15.2105   23.7597 O   0  0  0  0  0  0  0  0  0  0  0  0
    6.5376  -10.7353   26.5160 C   0  0  0  0  0  0  0  0  0  0  0  0
    5.9825  -12.4159   26.7249 S   0  0  0  0  0  0  0  0  0  0  0  0
    7.2246  -13.6386   27.0639 C   0  0  0  0  0  0  0  0  0  0  0  0
    7.5711  -14.5776   25.9872 C   0  0  0  0  0  0  0  0  0  0  0  0
    8.8118  -15.3564   25.9974 C   0  0  2  0  0  0  0  0  0  0  0  0
    8.9158  -16.3035   24.9139 N   0  0  0  0  0  0  0  0  0  0  0  0
    9.2439  -15.9780   27.2474 C   0  0  0  0  0  0  0  0  0  0  0  0
    9.3199  -17.2207   27.3481 O   0  0  0  0  0  0  0  0  0  0  0  0
    9.5747  -15.2014   28.3373 O   0  0  0  0  0  0  0  0  0  0  0  0
  2  9  1  0
  2  1  1  6
  3  2  1  0
  4  3  1  0
  5  4  2  0
  6  7  1  0
  6  5  1  0
  7  8  2  0
  8  4  1  0
  9 10  2  0
 11 12  1  0
 11  9  1  0
 12 13  1  6
 14 13  1  0
 15 12  1  0
 15 16  2  0
 17 18  1  0
 19 18  1  0
 20 19  1  0
 21 22  1  0
 21 20  1  1
 22 15  1  0
 23 21  1  0
 24 23  2  0
 25 23  1  0
M  END
$$$$
