HCM.pdb
     RDKit          3D

 25 25  0  0  1  0  0  0  0  0999 V2000
    8.7255  -17.1512   18.8306 N   0  0  0  0  0  0  0  0  0  0  0  0
    8.8594  -16.1506   19.8732 C   0  0  1  0  0  0  0  0  0  0  0  0
    7.6712  -15.2359   19.8003 C   0  0  0  0  0  0  0  0  0  0  0  0
    7.7946  -14.4298   18.5679 C   0  0  0  0  0  0  0  0  0  0  0  0
    8.5385  -13.2754   18.4541 C   0  0  0  0  0  0  0  0  0  0  0  0
    8.4448  -12.7875   17.2073 N   0  0  0  0  0  0  0  0  0  0  0  0
    7.6502  -13.6159   16.5226 C   0  0  0  0  0  0  0  0  0  0  0  0
    7.2520  -14.6209   17.3547 N   0  0  0  0  0  0  0  0  0  0  0  0
    8.9695  -16.8708   21.1654 C   0  0  0  0  0  0  0  0  0  0  0  0
    8.0865  -17.6784   21.5410 O   0  0  0  0  0  0  0  0  0  0  0  0
   10.0770  -16.6770   22.0306 N   0  0  0  0  0  0  0  0  0  0  0  0
   10.1776  -17.1835   23.3803 C   0  0  1  0  0  0  0  0  0  0  0  0
   11.4216  -18.0389   23.4602 C   0  0  0  0  0  0  0  0  0  0  0  0
   11.7977  -18.5863   25.1269 S   0  0  0  0  0  0  0  0  0  0  0  0
   10.2089  -16.1069   24.3873 C   0  0  0  0  0  0  0  0  0  0  0  0
   10.9485  -15.1131   24.2773 O   0  0  0  0  0  0  0  0  0  0  0  0
    6.5619  -11.3582   25.8834 C   0  0  0  0  0  0  0  0  0  0  0  0
    6.6764  -12.1947   27.4530 S   0  0  0  0  0  0  0  0  0  0  0  0
    8.0165  -13.3411   27.6592 C   0  0  0  0  0  0  0  0  0  0  0  0
    8.2265  -14.3438   26.6048 C   0  0  0  0  0  0  0  0  0  0  0  0
    9.3502  -15.2833   26.6311 C   0  0  2  0  0  0  0  0  0  0  0  0
    9.3643  -16.2080   25.5236 N   0  0  0  0  0  0  0  0  0  0  0  0
    9.6500  -15.9893   27.8751 C   0  0  0  0  0  0  0  0  0  0  0  0
    9.8489  -15.3576   28.9341 O   0  0  0  0  0  0  0  0  0  0  0  0
    9.7186  -17.3659   27.8993 O   0  0  0  0  0  0  0  0  0  0  0  0
  2  9  1  0
  2  1  1  6
  3  2  1  0
  4  3  1  0
  5  4  2  0
  6  7  1  0
  6  5  1  0
  7  8  2  0
  8  4  1  0
  9 10  2  0
 11 12  1  0
 11  9  1  0
 12 13  1  6
 14 13  1  0
 15 12  1  0
 15 16  2  0
 17 18  1  0
 19 18  1  0
 20 19  1  0
 21 22  1  0
 21 20  1  1
 22 15  1  0
 23 21  1  0
 24 23  2  0
 25 23  1  0
M  END
$$$$
