KVR.pdb
     RDKit          3D

 28 27  0  0  1  0  0  0  0  0999 V2000
    6.4229  -15.3106   21.7127 N   0  0  0  0  0  0  0  0  0  0  0  0
    7.6579  -14.6027   21.6889 C   0  0  1  0  0  0  0  0  0  0  0  0
    7.5940  -13.3473   20.8590 C   0  0  0  0  0  0  0  0  0  0  0  0
    7.3180  -13.5719   19.4131 C   0  0  0  0  0  0  0  0  0  0  0  0
    8.2031  -12.8557   18.4575 C   0  0  0  0  0  0  0  0  0  0  0  0
    7.8979  -13.1733   17.0105 C   0  0  0  0  0  0  0  0  0  0  0  0
    8.9178  -12.4664   16.2273 N   0  0  0  0  0  0  0  0  0  0  0  0
    8.1670  -14.2335   23.0470 C   0  0  0  0  0  0  0  0  0  0  0  0
    9.3289  -13.7188   23.1572 O   0  0  0  0  0  0  0  0  0  0  0  0
    5.7523  -13.9774   26.5773 C   0  0  0  0  0  0  0  0  0  0  0  0
    7.0074  -13.2077   26.2954 C   0  0  2  0  0  0  0  0  0  0  0  0
    6.5804  -11.9509   25.5650 C   0  0  0  0  0  0  0  0  0  0  0  0
    8.0025  -14.0169   25.5410 C   0  0  2  0  0  0  0  0  0  0  0  0
    7.4535  -14.4119   24.2329 N   0  0  0  0  0  0  0  0  0  0  0  0
    8.4743  -15.2450   26.2443 C   0  0  0  0  0  0  0  0  0  0  0  0
    7.6580  -16.2073   26.4655 O   0  0  0  0  0  0  0  0  0  0  0  0
   14.0382  -19.4420   23.1445 N   0  0  0  0  0  0  0  0  0  0  0  0
   12.8340  -18.9073   22.5433 C   0  0  0  0  0  0  0  0  0  0  0  0
   12.5524  -19.2838   21.3546 N   0  0  0  0  0  0  0  0  0  0  0  0
   12.0087  -18.0103   23.2353 N   0  0  0  0  0  0  0  0  0  0  0  0
   12.3126  -17.6125   24.5841 C   0  0  0  0  0  0  0  0  0  0  0  0
   11.0990  -17.6888   25.4648 C   0  0  0  0  0  0  0  0  0  0  0  0
   11.3362  -17.2524   26.8828 C   0  0  0  0  0  0  0  0  0  0  0  0
   10.0970  -16.6515   27.5272 C   0  0  2  0  0  0  0  0  0  0  0  0
    9.7916  -15.4611   26.7059 N   0  0  0  0  0  0  0  0  0  0  0  0
   10.4402  -16.2494   28.9059 C   0  0  0  0  0  0  0  0  0  0  0  0
   10.7627  -17.1455   29.7251 O   0  0  0  0  0  0  0  0  0  0  0  0
   10.4278  -14.9414   29.3491 O   0  0  0  0  0  0  0  0  0  0  0  0
  2  1  1  1
  2  3  1  0
  4  3  1  0
  4  5  1  0
  6  5  1  0
  7  6  1  0
  8  2  1  0
  9  8  2  0
 11 13  1  0
 11 10  1  6
 11 12  1  0
 13 14  1  6
 14  8  1  0
 15 25  1  0
 15 13  1  0
 16 15  2  0
 17 18  1  0
 18 19  2  0
 20 21  1  0
 20 18  1  0
 21 22  1  0
 23 22  1  0
 24 23  1  6
 24 25  1  0
 26 28  1  0
 26 24  1  0
 27 26  2  0
M  END
$$$$
