KVR.pdb
     RDKit          3D

 28 27  0  0  1  0  0  0  0  0999 V2000
    7.5984  -12.8931   15.9809 N   0  0  0  0  0  0  0  0  0  0  0  0
    7.6752  -14.1165   16.7052 C   0  0  1  0  0  0  0  0  0  0  0  0
    8.4263  -15.1886   15.9601 C   0  0  0  0  0  0  0  0  0  0  0  0
    7.8931  -15.4918   14.6032 C   0  0  0  0  0  0  0  0  0  0  0  0
    8.5844  -16.5732   13.8536 C   0  0  0  0  0  0  0  0  0  0  0  0
    8.0378  -16.7733   12.4575 C   0  0  0  0  0  0  0  0  0  0  0  0
    8.7665  -17.9229   11.9090 N   0  0  0  0  0  0  0  0  0  0  0  0
    8.2936  -13.9762   18.0608 C   0  0  0  0  0  0  0  0  0  0  0  0
    9.4842  -13.5290   18.1584 O   0  0  0  0  0  0  0  0  0  0  0  0
    7.9981  -13.9836   23.0020 C   0  0  0  0  0  0  0  0  0  0  0  0
    7.3442  -14.0688   21.6557 C   0  0  2  0  0  0  0  0  0  0  0  0
    6.3665  -15.2238   21.7303 C   0  0  0  0  0  0  0  0  0  0  0  0
    8.3392  -14.2103   20.5583 C   0  0  2  0  0  0  0  0  0  0  0  0
    7.6551  -14.3038   19.2576 N   0  0  0  0  0  0  0  0  0  0  0  0
    9.2585  -15.3775   20.6922 C   0  0  0  0  0  0  0  0  0  0  0  0
    9.2016  -16.3354   19.8435 O   0  0  0  0  0  0  0  0  0  0  0  0
   17.5099  -13.9491   19.6287 N   0  0  0  0  0  0  0  0  0  0  0  0
   16.6246  -14.0670   18.4885 C   0  0  0  0  0  0  0  0  0  0  0  0
   17.0496  -13.6285   17.3655 N   0  0  0  0  0  0  0  0  0  0  0  0
   15.3502  -14.6377   18.6096 N   0  0  0  0  0  0  0  0  0  0  0  0
   14.4044  -14.1425   19.5741 C   0  0  0  0  0  0  0  0  0  0  0  0
   13.6714  -15.2652   20.2496 C   0  0  0  0  0  0  0  0  0  0  0  0
   12.2404  -14.9546   20.5863 C   0  0  0  0  0  0  0  0  0  0  0  0
   11.5652  -16.0714   21.3665 C   0  0  2  0  0  0  0  0  0  0  0  0
   10.2306  -15.5335   21.7050 N   0  0  0  0  0  0  0  0  0  0  0  0
   12.3464  -16.3162   22.5953 C   0  0  0  0  0  0  0  0  0  0  0  0
   13.4880  -16.8285   22.4835 O   0  0  0  0  0  0  0  0  0  0  0  0
   11.8944  -16.0137   23.8649 O   0  0  0  0  0  0  0  0  0  0  0  0
  2  1  1  6
  2  3  1  0
  4  3  1  0
  4  5  1  0
  6  5  1  0
  7  6  1  0
  8  2  1  0
  9  8  2  0
 11 13  1  0
 11 10  1  1
 11 12  1  0
 13 14  1  6
 14  8  1  0
 15 25  1  0
 15 13  1  0
 16 15  2  0
 17 18  1  0
 18 19  2  0
 20 21  1  0
 20 18  1  0
 21 22  1  0
 23 22  1  0
 24 23  1  6
 24 25  1  0
 26 28  1  0
 26 24  1  0
 27 26  2  0
M  END
$$$$
