KVR.pdb
     RDKit          3D

 28 27  0  0  1  0  0  0  0  0999 V2000
    8.7421  -16.8944   15.3748 N   0  0  0  0  0  0  0  0  0  0  0  0
    8.0074  -16.8651   16.5941 C   0  0  1  0  0  0  0  0  0  0  0  0
    7.7957  -18.2366   17.1797 C   0  0  0  0  0  0  0  0  0  0  0  0
    7.1110  -19.2000   16.2740 C   0  0  0  0  0  0  0  0  0  0  0  0
    6.7460  -20.5127   16.8680 C   0  0  0  0  0  0  0  0  0  0  0  0
    5.9751  -21.4024   15.9182 C   0  0  0  0  0  0  0  0  0  0  0  0
    5.6950  -22.6321   16.6684 N   0  0  0  0  0  0  0  0  0  0  0  0
    8.6255  -16.0023   17.6492 C   0  0  0  0  0  0  0  0  0  0  0  0
    9.8921  -16.0134   17.7989 O   0  0  0  0  0  0  0  0  0  0  0  0
    8.3183  -12.5534   21.1973 C   0  0  0  0  0  0  0  0  0  0  0  0
    7.6888  -13.3269   20.0781 C   0  0  2  0  0  0  0  0  0  0  0  0
    6.3369  -13.7852   20.5858 C   0  0  0  0  0  0  0  0  0  0  0  0
    8.5537  -14.4461   19.6158 C   0  0  2  0  0  0  0  0  0  0  0  0
    7.9081  -15.1650   18.5045 N   0  0  0  0  0  0  0  0  0  0  0  0
    8.9149  -15.4366   20.6712 C   0  0  0  0  0  0  0  0  0  0  0  0
    8.0806  -16.3513   21.0004 O   0  0  0  0  0  0  0  0  0  0  0  0
   14.5524  -18.8823   25.2701 N   0  0  0  0  0  0  0  0  0  0  0  0
   14.1952  -19.9887   24.4067 C   0  0  0  0  0  0  0  0  0  0  0  0
   15.0437  -20.9369   24.2833 N   0  0  0  0  0  0  0  0  0  0  0  0
   12.9681  -20.0202   23.7300 N   0  0  0  0  0  0  0  0  0  0  0  0
   12.6178  -18.9965   22.7816 C   0  0  0  0  0  0  0  0  0  0  0  0
   12.2929  -17.7013   23.4680 C   0  0  0  0  0  0  0  0  0  0  0  0
   11.8678  -16.5995   22.5391 C   0  0  0  0  0  0  0  0  0  0  0  0
   10.3564  -16.4696   22.4353 C   0  0  2  0  0  0  0  0  0  0  0  0
   10.1422  -15.4679   21.3696 N   0  0  0  0  0  0  0  0  0  0  0  0
    9.8450  -15.9642   23.7250 C   0  0  0  0  0  0  0  0  0  0  0  0
    9.7527  -16.7682   24.6857 O   0  0  0  0  0  0  0  0  0  0  0  0
    9.4612  -14.6546   23.9379 O   0  0  0  0  0  0  0  0  0  0  0  0
  2  1  1  6
  2  3  1  0
  4  3  1  0
  4  5  1  0
  6  5  1  0
  7  6  1  0
  8  2  1  0
  9  8  2  0
 11 13  1  0
 11 10  1  1
 11 12  1  0
 13 14  1  6
 14  8  1  0
 15 25  1  0
 15 13  1  0
 16 15  2  0
 17 18  1  0
 18 19  2  0
 20 21  1  0
 20 18  1  0
 21 22  1  0
 23 22  1  0
 24 23  1  1
 24 25  1  0
 26 28  1  0
 26 24  1  0
 27 26  2  0
M  END
$$$$
