KVR.pdb
     RDKit          3D

 28 27  0  0  1  0  0  0  0  0999 V2000
   10.8953  -15.2353   15.1950 N   0  0  0  0  0  0  0  0  0  0  0  0
   10.6305  -16.1652   16.2401 C   0  0  1  0  0  0  0  0  0  0  0  0
   11.6757  -17.2455   16.3373 C   0  0  0  0  0  0  0  0  0  0  0  0
   11.6290  -18.2553   15.2440 C   0  0  0  0  0  0  0  0  0  0  0  0
   12.6747  -19.3110   15.2813 C   0  0  0  0  0  0  0  0  0  0  0  0
   12.6651  -20.2021   14.0591 C   0  0  0  0  0  0  0  0  0  0  0  0
   13.7380  -21.1797   14.2745 N   0  0  0  0  0  0  0  0  0  0  0  0
   10.4930  -15.5323   17.5892 C   0  0  0  0  0  0  0  0  0  0  0  0
   11.5431  -15.1710   18.2169 O   0  0  0  0  0  0  0  0  0  0  0  0
    7.8339  -12.9546   20.8066 C   0  0  0  0  0  0  0  0  0  0  0  0
    7.8918  -13.8542   19.6089 C   0  0  2  0  0  0  0  0  0  0  0  0
    6.7055  -14.7898   19.7221 C   0  0  0  0  0  0  0  0  0  0  0  0
    9.1946  -14.5659   19.5061 C   0  0  2  0  0  0  0  0  0  0  0  0
    9.2765  -15.2998   18.2319 N   0  0  0  0  0  0  0  0  0  0  0  0
    9.4775  -15.5193   20.6180 C   0  0  0  0  0  0  0  0  0  0  0  0
    9.4874  -16.7800   20.3909 O   0  0  0  0  0  0  0  0  0  0  0  0
   10.4702  -14.5307   29.6650 N   0  0  0  0  0  0  0  0  0  0  0  0
   10.4328  -13.9272   28.3490 C   0  0  0  0  0  0  0  0  0  0  0  0
   10.1458  -12.6835   28.2797 N   0  0  0  0  0  0  0  0  0  0  0  0
   10.6991  -14.6760   27.1945 N   0  0  0  0  0  0  0  0  0  0  0  0
    9.8293  -15.7480   26.7889 C   0  0  0  0  0  0  0  0  0  0  0  0
   10.2565  -16.3328   25.4738 C   0  0  0  0  0  0  0  0  0  0  0  0
   10.0238  -15.4334   24.2929 C   0  0  0  0  0  0  0  0  0  0  0  0
    9.9453  -16.1966   22.9802 C   0  0  2  0  0  0  0  0  0  0  0  0
    9.7520  -15.1507   21.9536 N   0  0  0  0  0  0  0  0  0  0  0  0
    8.7694  -17.0881   23.0320 C   0  0  0  0  0  0  0  0  0  0  0  0
    8.9564  -18.3079   23.2669 O   0  0  0  0  0  0  0  0  0  0  0  0
    7.4714  -16.6581   22.8371 O   0  0  0  0  0  0  0  0  0  0  0  0
  2  1  1  6
  2  3  1  0
  4  3  1  0
  4  5  1  0
  6  5  1  0
  7  6  1  0
  8  2  1  0
  9  8  2  0
 11 13  1  0
 11 10  1  1
 11 12  1  0
 13 14  1  6
 14  8  1  0
 15 25  1  0
 15 13  1  0
 16 15  2  0
 17 18  1  0
 18 19  2  0
 20 21  1  0
 20 18  1  0
 21 22  1  0
 23 22  1  0
 24 23  1  1
 24 25  1  0
 26 28  1  0
 26 24  1  0
 27 26  2  0
M  END
$$$$
