KVR.pdb
     RDKit          3D

 28 27  0  0  1  0  0  0  0  0999 V2000
    7.7631  -16.6785   16.8308 N   0  0  0  0  0  0  0  0  0  0  0  0
    8.6412  -15.5680   16.6790 C   0  0  1  0  0  0  0  0  0  0  0  0
    8.0101  -14.4247   15.9284 C   0  0  0  0  0  0  0  0  0  0  0  0
    8.2533  -14.4363   14.4594 C   0  0  0  0  0  0  0  0  0  0  0  0
    7.2950  -15.2257   13.6422 C   0  0  0  0  0  0  0  0  0  0  0  0
    7.6816  -15.3045   12.1820 C   0  0  0  0  0  0  0  0  0  0  0  0
    6.6888  -16.1864   11.5576 N   0  0  0  0  0  0  0  0  0  0  0  0
    9.1686  -15.0355   17.9743 C   0  0  0  0  0  0  0  0  0  0  0  0
   10.3303  -14.5097   18.0040 O   0  0  0  0  0  0  0  0  0  0  0  0
    6.9945  -14.9597   21.7593 C   0  0  0  0  0  0  0  0  0  0  0  0
    7.9160  -13.8983   21.2382 C   0  0  2  0  0  0  0  0  0  0  0  0
    7.0469  -12.9151   20.4810 C   0  0  0  0  0  0  0  0  0  0  0  0
    9.0158  -14.4678   20.4133 C   0  0  2  0  0  0  0  0  0  0  0  0
    8.4730  -15.0692   19.1835 N   0  0  0  0  0  0  0  0  0  0  0  0
    9.8553  -15.4879   21.1060 C   0  0  0  0  0  0  0  0  0  0  0  0
    9.5710  -16.7319   20.9931 O   0  0  0  0  0  0  0  0  0  0  0  0
   18.6736  -17.9140   24.6889 N   0  0  0  0  0  0  0  0  0  0  0  0
   17.7440  -16.8826   24.2772 C   0  0  0  0  0  0  0  0  0  0  0  0
   18.1894  -15.6871   24.1961 N   0  0  0  0  0  0  0  0  0  0  0  0
   16.4071  -17.1808   23.9803 N   0  0  0  0  0  0  0  0  0  0  0  0
   15.5276  -16.1810   23.4354 C   0  0  0  0  0  0  0  0  0  0  0  0
   14.1343  -16.7126   23.2614 C   0  0  0  0  0  0  0  0  0  0  0  0
   13.1833  -15.7510   22.6067 C   0  0  0  0  0  0  0  0  0  0  0  0
   11.7753  -16.3111   22.4819 C   0  0  2  0  0  0  0  0  0  0  0  0
   10.9848  -15.2033   21.9049 N   0  0  0  0  0  0  0  0  0  0  0  0
   11.2857  -16.6401   23.8355 C   0  0  0  0  0  0  0  0  0  0  0  0
   10.6083  -15.7789   24.4497 O   0  0  0  0  0  0  0  0  0  0  0  0
   11.5294  -17.8435   24.4680 O   0  0  0  0  0  0  0  0  0  0  0  0
  2  1  1  1
  2  3  1  0
  4  3  1  0
  4  5  1  0
  6  5  1  0
  7  6  1  0
  8  2  1  0
  9  8  2  0
 11 13  1  0
 11 10  1  6
 11 12  1  0
 13 14  1  6
 14  8  1  0
 15 25  1  0
 15 13  1  0
 16 15  2  0
 17 18  1  0
 18 19  2  0
 20 21  1  0
 20 18  1  0
 21 22  1  0
 23 22  1  0
 24 23  1  1
 24 25  1  0
 26 28  1  0
 26 24  1  0
 27 26  2  0
M  END
$$$$
