KVR.pdb
     RDKit          3D

 28 27  0  0  1  0  0  0  0  0999 V2000
    4.6340  -19.6526   22.9084 N   0  0  0  0  0  0  0  0  0  0  0  0
    5.4888  -19.2279   23.9649 C   0  0  1  0  0  0  0  0  0  0  0  0
    6.5065  -20.2708   24.3459 C   0  0  0  0  0  0  0  0  0  0  0  0
    5.9683  -21.3965   25.1587 C   0  0  0  0  0  0  0  0  0  0  0  0
    6.9442  -22.4459   25.5530 C   0  0  0  0  0  0  0  0  0  0  0  0
    6.2992  -23.6344   26.2309 C   0  0  0  0  0  0  0  0  0  0  0  0
    7.4045  -24.5256   26.6015 N   0  0  0  0  0  0  0  0  0  0  0  0
    6.2188  -17.9542   23.6742 C   0  0  0  0  0  0  0  0  0  0  0  0
    6.6908  -17.7605   22.5052 O   0  0  0  0  0  0  0  0  0  0  0  0
    7.5004  -13.3237   24.8194 C   0  0  0  0  0  0  0  0  0  0  0  0
    6.7998  -14.6017   25.1704 C   0  0  2  0  0  0  0  0  0  0  0  0
    7.1094  -14.8695   26.6291 C   0  0  0  0  0  0  0  0  0  0  0  0
    7.1923  -15.7203   24.2709 C   0  0  2  0  0  0  0  0  0  0  0  0
    6.4296  -16.9352   24.6039 N   0  0  0  0  0  0  0  0  0  0  0  0
    8.6455  -16.0570   24.2866 C   0  0  0  0  0  0  0  0  0  0  0  0
    9.1015  -16.8759   25.1598 O   0  0  0  0  0  0  0  0  0  0  0  0
   16.6044  -13.6559   20.0751 N   0  0  0  0  0  0  0  0  0  0  0  0
   15.2853  -14.1898   19.8057 C   0  0  0  0  0  0  0  0  0  0  0  0
   14.6186  -13.6587   18.8532 N   0  0  0  0  0  0  0  0  0  0  0  0
   14.7575  -15.2468   20.5599 N   0  0  0  0  0  0  0  0  0  0  0  0
   13.4181  -15.7216   20.3353 C   0  0  0  0  0  0  0  0  0  0  0  0
   12.8114  -16.2676   21.5955 C   0  0  0  0  0  0  0  0  0  0  0  0
   11.5401  -15.5856   22.0151 C   0  0  0  0  0  0  0  0  0  0  0  0
   10.9175  -16.2139   23.2518 C   0  0  2  0  0  0  0  0  0  0  0  0
    9.6081  -15.5419   23.3905 N   0  0  0  0  0  0  0  0  0  0  0  0
   11.7778  -15.9054   24.4115 C   0  0  0  0  0  0  0  0  0  0  0  0
   11.5502  -14.8535   25.0593 O   0  0  0  0  0  0  0  0  0  0  0  0
   12.8216  -16.7086   24.8275 O   0  0  0  0  0  0  0  0  0  0  0  0
  2  1  1  6
  2  3  1  0
  4  3  1  0
  4  5  1  0
  6  5  1  0
  7  6  1  0
  8  2  1  0
  9  8  2  0
 11 13  1  0
 11 10  1  6
 11 12  1  0
 13 14  1  1
 14  8  1  0
 15 25  1  0
 15 13  1  0
 16 15  2  0
 17 18  1  0
 18 19  2  0
 20 21  1  0
 20 18  1  0
 21 22  1  0
 23 22  1  0
 24 23  1  6
 24 25  1  0
 26 28  1  0
 26 24  1  0
 27 26  2  0
M  END
$$$$
