KVR.pdb
     RDKit          3D

 28 27  0  0  1  0  0  0  0  0999 V2000
    6.5282  -15.3067   21.4667 N   0  0  0  0  0  0  0  0  0  0  0  0
    7.7279  -14.5403   21.4894 C   0  0  1  0  0  0  0  0  0  0  0  0
    7.6169  -13.2610   20.7021 C   0  0  0  0  0  0  0  0  0  0  0  0
    7.1972  -13.4382   19.2845 C   0  0  0  0  0  0  0  0  0  0  0  0
    8.0215  -12.7392   18.2642 C   0  0  0  0  0  0  0  0  0  0  0  0
    7.5561  -12.9922   16.8474 C   0  0  0  0  0  0  0  0  0  0  0  0
    8.5315  -12.3160   15.9845 N   0  0  0  0  0  0  0  0  0  0  0  0
    8.1966  -14.1954   22.8682 C   0  0  0  0  0  0  0  0  0  0  0  0
    9.3811  -13.7505   23.0296 O   0  0  0  0  0  0  0  0  0  0  0  0
    6.4773  -12.0189   25.5545 C   0  0  0  0  0  0  0  0  0  0  0  0
    6.9100  -13.3151   26.1709 C   0  0  2  0  0  0  0  0  0  0  0  0
    7.3707  -12.9849   27.5759 C   0  0  0  0  0  0  0  0  0  0  0  0
    7.9493  -14.0023   25.3573 C   0  0  2  0  0  0  0  0  0  0  0  0
    7.4212  -14.3250   24.0211 N   0  0  0  0  0  0  0  0  0  0  0  0
    8.4949  -15.2517   25.9628 C   0  0  0  0  0  0  0  0  0  0  0  0
    7.7269  -16.2607   26.1452 O   0  0  0  0  0  0  0  0  0  0  0  0
   14.1164  -21.1893   24.0466 N   0  0  0  0  0  0  0  0  0  0  0  0
   13.8008  -21.1158   25.4581 C   0  0  0  0  0  0  0  0  0  0  0  0
   13.3304  -22.1676   26.0116 N   0  0  0  0  0  0  0  0  0  0  0  0
   14.0009  -19.9376   26.1906 N   0  0  0  0  0  0  0  0  0  0  0  0
   13.4420  -18.6869   25.7507 C   0  0  0  0  0  0  0  0  0  0  0  0
   12.1959  -18.3443   26.5149 C   0  0  0  0  0  0  0  0  0  0  0  0
   11.5272  -17.0747   26.0691 C   0  0  0  0  0  0  0  0  0  0  0  0
   10.2731  -16.7597   26.8690 C   0  0  2  0  0  0  0  0  0  0  0  0
    9.8349  -15.4399   26.3678 N   0  0  0  0  0  0  0  0  0  0  0  0
   10.6436  -16.6698   28.2955 C   0  0  0  0  0  0  0  0  0  0  0  0
   10.8225  -15.5307   28.7939 O   0  0  0  0  0  0  0  0  0  0  0  0
   10.8052  -17.7683   29.1169 O   0  0  0  0  0  0  0  0  0  0  0  0
  2  1  1  1
  2  3  1  0
  4  3  1  0
  4  5  1  0
  6  5  1  0
  7  6  1  0
  8  2  1  0
  9  8  2  0
 11 13  1  0
 11 10  1  6
 11 12  1  0
 13 14  1  6
 14  8  1  0
 15 25  1  0
 15 13  1  0
 16 15  2  0
 17 18  1  0
 18 19  2  0
 20 21  1  0
 20 18  1  0
 21 22  1  0
 23 22  1  0
 24 23  1  6
 24 25  1  0
 26 28  1  0
 26 24  1  0
 27 26  2  0
M  END
$$$$
