KVR.pdb
     RDKit          3D

 28 27  0  0  1  0  0  0  0  0999 V2000
    6.3740  -14.9179   21.1499 N   0  0  0  0  0  0  0  0  0  0  0  0
    7.7905  -14.8857   21.2906 C   0  0  1  0  0  0  0  0  0  0  0  0
    8.4590  -14.0178   20.2570 C   0  0  0  0  0  0  0  0  0  0  0  0
    7.8899  -14.1340   18.8859 C   0  0  0  0  0  0  0  0  0  0  0  0
    8.5611  -13.3353   17.8273 C   0  0  0  0  0  0  0  0  0  0  0  0
    7.9173  -13.4887   16.4672 C   0  0  0  0  0  0  0  0  0  0  0  0
    8.6806  -12.6156   15.5681 N   0  0  0  0  0  0  0  0  0  0  0  0
    8.2516  -14.4348   22.6411 C   0  0  0  0  0  0  0  0  0  0  0  0
    9.5026  -14.3460   22.8738 O   0  0  0  0  0  0  0  0  0  0  0  0
    7.5415  -12.1137   26.9013 C   0  0  0  0  0  0  0  0  0  0  0  0
    7.0223  -12.6271   25.5921 C   0  0  2  0  0  0  0  0  0  0  0  0
    5.6170  -13.1266   25.8584 C   0  0  0  0  0  0  0  0  0  0  0  0
    7.9135  -13.6638   25.0045 C   0  0  2  0  0  0  0  0  0  0  0  0
    7.4003  -14.0949   23.6932 N   0  0  0  0  0  0  0  0  0  0  0  0
    8.1124  -14.8740   25.8537 C   0  0  0  0  0  0  0  0  0  0  0  0
    7.3830  -15.9107   25.6684 O   0  0  0  0  0  0  0  0  0  0  0  0
   12.1106  -21.2990   26.4914 N   0  0  0  0  0  0  0  0  0  0  0  0
   12.4875  -20.6325   25.2620 C   0  0  0  0  0  0  0  0  0  0  0  0
   12.6933  -21.3648   24.2347 N   0  0  0  0  0  0  0  0  0  0  0  0
   12.6237  -19.2389   25.1992 N   0  0  0  0  0  0  0  0  0  0  0  0
   12.3041  -18.4107   26.3313 C   0  0  0  0  0  0  0  0  0  0  0  0
   10.8196  -18.2890   26.5199 C   0  0  0  0  0  0  0  0  0  0  0  0
   10.2663  -16.9280   26.2051 C   0  0  0  0  0  0  0  0  0  0  0  0
    9.4746  -16.3347   27.3597 C   0  0  2  0  0  0  0  0  0  0  0  0
    9.0714  -14.9946   26.8837 N   0  0  0  0  0  0  0  0  0  0  0  0
   10.3732  -16.2163   28.5254 C   0  0  0  0  0  0  0  0  0  0  0  0
   11.0064  -15.1429   28.6829 O   0  0  0  0  0  0  0  0  0  0  0  0
   10.5587  -17.2198   29.4561 O   0  0  0  0  0  0  0  0  0  0  0  0
  2  1  1  1
  2  3  1  0
  4  3  1  0
  4  5  1  0
  6  5  1  0
  7  6  1  0
  8  2  1  0
  9  8  2  0
 11 13  1  0
 11 10  1  1
 11 12  1  0
 13 14  1  6
 14  8  1  0
 15 25  1  0
 15 13  1  0
 16 15  2  0
 17 18  1  0
 18 19  2  0
 20 21  1  0
 20 18  1  0
 21 22  1  0
 23 22  1  0
 24 23  1  6
 24 25  1  0
 26 28  1  0
 26 24  1  0
 27 26  2  0
M  END
$$$$
