KVR.pdb
     RDKit          3D

 28 27  0  0  1  0  0  0  0  0999 V2000
    8.0044  -14.6976   20.9588 N   0  0  0  0  0  0  0  0  0  0  0  0
    7.5180  -15.2211   22.1903 C   0  0  1  0  0  0  0  0  0  0  0  0
    7.6713  -16.7163   22.2888 C   0  0  0  0  0  0  0  0  0  0  0  0
    7.0557  -17.4792   21.1680 C   0  0  0  0  0  0  0  0  0  0  0  0
    7.1796  -18.9588   21.2358 C   0  0  0  0  0  0  0  0  0  0  0  0
    6.5416  -19.6643   20.0597 C   0  0  0  0  0  0  0  0  0  0  0  0
    7.5909  -20.5218   19.4968 N   0  0  0  0  0  0  0  0  0  0  0  0
    8.1561  -14.6104   23.3985 C   0  0  0  0  0  0  0  0  0  0  0  0
    9.4179  -14.4239   23.4085 O   0  0  0  0  0  0  0  0  0  0  0  0
    5.9800  -13.2906   26.8685 C   0  0  0  0  0  0  0  0  0  0  0  0
    7.2040  -12.6041   26.3414 C   0  0  2  0  0  0  0  0  0  0  0  0
    6.7122  -11.5033   25.4240 C   0  0  0  0  0  0  0  0  0  0  0  0
    8.1347  -13.5541   25.6740 C   0  0  2  0  0  0  0  0  0  0  0  0
    7.4630  -14.2186   24.5444 N   0  0  0  0  0  0  0  0  0  0  0  0
    8.7055  -14.6042   26.5667 C   0  0  0  0  0  0  0  0  0  0  0  0
    7.9540  -15.5420   27.0106 O   0  0  0  0  0  0  0  0  0  0  0  0
   12.2911  -18.4662   24.2192 N   0  0  0  0  0  0  0  0  0  0  0  0
   13.1591  -17.5316   23.5332 C   0  0  0  0  0  0  0  0  0  0  0  0
   13.3891  -17.7429   22.2936 N   0  0  0  0  0  0  0  0  0  0  0  0
   13.7276  -16.4382   24.2008 N   0  0  0  0  0  0  0  0  0  0  0  0
   13.5983  -16.2906   25.6261 C   0  0  0  0  0  0  0  0  0  0  0  0
   12.1606  -16.1476   26.0343 C   0  0  0  0  0  0  0  0  0  0  0  0
   11.9510  -15.9907   27.5139 C   0  0  0  0  0  0  0  0  0  0  0  0
   10.4930  -15.7615   27.8792 C   0  0  2  0  0  0  0  0  0  0  0  0
   10.0531  -14.6702   26.9844 N   0  0  0  0  0  0  0  0  0  0  0  0
   10.4313  -15.3258   29.2886 C   0  0  0  0  0  0  0  0  0  0  0  0
   10.7266  -16.1572   30.1828 O   0  0  0  0  0  0  0  0  0  0  0  0
   10.0671  -14.0532   29.6830 O   0  0  0  0  0  0  0  0  0  0  0  0
  2  1  1  6
  2  3  1  0
  4  3  1  0
  4  5  1  0
  6  5  1  0
  7  6  1  0
  8  2  1  0
  9  8  2  0
 11 13  1  0
 11 10  1  6
 11 12  1  0
 13 14  1  6
 14  8  1  0
 15 25  1  0
 15 13  1  0
 16 15  2  0
 17 18  1  0
 18 19  2  0
 20 21  1  0
 20 18  1  0
 21 22  1  0
 23 22  1  0
 24 23  1  6
 24 25  1  0
 26 28  1  0
 26 24  1  0
 27 26  2  0
M  END
$$$$
