KVR.pdb
     RDKit          3D

 28 27  0  0  1  0  0  0  0  0999 V2000
    7.1586  -16.9726   16.6799 N   0  0  0  0  0  0  0  0  0  0  0  0
    8.5804  -16.8974   16.6940 C   0  0  1  0  0  0  0  0  0  0  0  0
    9.1467  -16.3338   15.4172 C   0  0  0  0  0  0  0  0  0  0  0  0
    9.2956  -17.3225   14.3138 C   0  0  0  0  0  0  0  0  0  0  0  0
    8.2467  -17.2934   13.2611 C   0  0  0  0  0  0  0  0  0  0  0  0
    8.4922  -18.2880   12.1482 C   0  0  0  0  0  0  0  0  0  0  0  0
    7.3578  -18.1402   11.2291 N   0  0  0  0  0  0  0  0  0  0  0  0
    9.1302  -16.1002   17.8350 C   0  0  0  0  0  0  0  0  0  0  0  0
   10.3944  -16.0105   17.9792 O   0  0  0  0  0  0  0  0  0  0  0  0
    6.7710  -14.1558   20.9648 C   0  0  0  0  0  0  0  0  0  0  0  0
    8.0460  -13.6278   20.3791 C   0  0  2  0  0  0  0  0  0  0  0  0
    7.6430  -12.6804   19.2677 C   0  0  0  0  0  0  0  0  0  0  0  0
    8.9468  -14.7208   19.9226 C   0  0  2  0  0  0  0  0  0  0  0  0
    8.3501  -15.4298   18.7780 N   0  0  0  0  0  0  0  0  0  0  0  0
    9.2949  -15.7248   20.9695 C   0  0  0  0  0  0  0  0  0  0  0  0
    8.5740  -16.7741   21.1123 O   0  0  0  0  0  0  0  0  0  0  0  0
   16.4499  -19.9245   24.2445 N   0  0  0  0  0  0  0  0  0  0  0  0
   15.3398  -19.8414   23.3182 C   0  0  0  0  0  0  0  0  0  0  0  0
   14.9913  -20.9155   22.7191 N   0  0  0  0  0  0  0  0  0  0  0  0
   14.6729  -18.6309   23.0845 N   0  0  0  0  0  0  0  0  0  0  0  0
   14.0569  -17.9035   24.1622 C   0  0  0  0  0  0  0  0  0  0  0  0
   12.5691  -17.8130   23.9827 C   0  0  0  0  0  0  0  0  0  0  0  0
   12.1305  -16.8062   22.9572 C   0  0  0  0  0  0  0  0  0  0  0  0
   10.6178  -16.6853   22.8628 C   0  0  2  0  0  0  0  0  0  0  0  0
   10.3921  -15.6289   21.8538 N   0  0  0  0  0  0  0  0  0  0  0  0
   10.1041  -16.2561   24.1788 C   0  0  0  0  0  0  0  0  0  0  0  0
    9.8735  -15.0344   24.3589 O   0  0  0  0  0  0  0  0  0  0  0  0
    9.8609  -17.1220   25.2271 O   0  0  0  0  0  0  0  0  0  0  0  0
  2  1  1  6
  2  3  1  0
  4  3  1  0
  4  5  1  0
  6  5  1  0
  7  6  1  0
  8  2  1  0
  9  8  2  0
 11 13  1  0
 11 10  1  6
 11 12  1  0
 13 14  1  6
 14  8  1  0
 15 25  1  0
 15 13  1  0
 16 15  2  0
 17 18  1  0
 18 19  2  0
 20 21  1  0
 20 18  1  0
 21 22  1  0
 23 22  1  0
 24 23  1  1
 24 25  1  0
 26 28  1  0
 26 24  1  0
 27 26  2  0
M  END
$$$$
