KVR.pdb
     RDKit          3D

 28 27  0  0  1  0  0  0  0  0999 V2000
    7.5014  -13.9535   19.9874 N   0  0  0  0  0  0  0  0  0  0  0  0
    7.0259  -14.6117   21.1570 C   0  0  1  0  0  0  0  0  0  0  0  0
    7.1279  -16.1116   21.0635 C   0  0  0  0  0  0  0  0  0  0  0  0
    6.6025  -16.6923   19.7970 C   0  0  0  0  0  0  0  0  0  0  0  0
    6.0553  -18.0714   19.8853 C   0  0  0  0  0  0  0  0  0  0  0  0
    5.4185  -18.5430   18.5969 C   0  0  0  0  0  0  0  0  0  0  0  0
    4.8852  -19.8792   18.8858 N   0  0  0  0  0  0  0  0  0  0  0  0
    7.7139  -14.1791   22.4136 C   0  0  0  0  0  0  0  0  0  0  0  0
    8.9880  -14.2092   22.4674 O   0  0  0  0  0  0  0  0  0  0  0  0
    7.6926  -12.1591   26.9306 C   0  0  0  0  0  0  0  0  0  0  0  0
    6.9912  -12.4927   25.6484 C   0  0  2  0  0  0  0  0  0  0  0  0
    5.6288  -13.0299   26.0365 C   0  0  0  0  0  0  0  0  0  0  0  0
    7.7783  -13.4362   24.8091 C   0  0  2  0  0  0  0  0  0  0  0  0
    7.0559  -13.7338   23.5607 N   0  0  0  0  0  0  0  0  0  0  0  0
    8.1240  -14.7268   25.4726 C   0  0  0  0  0  0  0  0  0  0  0  0
    7.3351  -15.7305   25.3663 O   0  0  0  0  0  0  0  0  0  0  0  0
   14.8936  -20.0836   24.6194 N   0  0  0  0  0  0  0  0  0  0  0  0
   13.8010  -20.5858   25.4265 C   0  0  0  0  0  0  0  0  0  0  0  0
   14.0690  -21.5049   26.2736 N   0  0  0  0  0  0  0  0  0  0  0  0
   12.4990  -20.0864   25.2850 N   0  0  0  0  0  0  0  0  0  0  0  0
   12.2604  -18.6798   25.0995 C   0  0  0  0  0  0  0  0  0  0  0  0
   11.2129  -18.1717   26.0474 C   0  0  0  0  0  0  0  0  0  0  0  0
   10.7256  -16.7833   25.7435 C   0  0  0  0  0  0  0  0  0  0  0  0
    9.6146  -16.3331   26.6788 C   0  0  2  0  0  0  0  0  0  0  0  0
    9.2893  -14.9610   26.2356 N   0  0  0  0  0  0  0  0  0  0  0  0
   10.1471  -16.3149   28.0559 C   0  0  0  0  0  0  0  0  0  0  0  0
   10.5124  -15.2143   28.5389 O   0  0  0  0  0  0  0  0  0  0  0  0
   10.2672  -17.4406   28.8470 O   0  0  0  0  0  0  0  0  0  0  0  0
  2  1  1  6
  2  3  1  0
  4  3  1  0
  4  5  1  0
  6  5  1  0
  7  6  1  0
  8  2  1  0
  9  8  2  0
 11 13  1  0
 11 10  1  1
 11 12  1  0
 13 14  1  6
 14  8  1  0
 15 25  1  0
 15 13  1  0
 16 15  2  0
 17 18  1  0
 18 19  2  0
 20 21  1  0
 20 18  1  0
 21 22  1  0
 23 22  1  0
 24 23  1  6
 24 25  1  0
 26 28  1  0
 26 24  1  0
 27 26  2  0
M  END
$$$$
