KVR.pdb
     RDKit          3D

 28 27  0  0  1  0  0  0  0  0999 V2000
    6.6060  -14.9283   21.0144 N   0  0  0  0  0  0  0  0  0  0  0  0
    7.9540  -14.4993   21.1753 C   0  0  1  0  0  0  0  0  0  0  0  0
    8.2907  -13.3039   20.3230 C   0  0  0  0  0  0  0  0  0  0  0  0
    7.5799  -13.2532   19.0154 C   0  0  0  0  0  0  0  0  0  0  0  0
    8.4388  -13.1786   17.8046 C   0  0  0  0  0  0  0  0  0  0  0  0
    7.6555  -12.9407   16.5327 C   0  0  0  0  0  0  0  0  0  0  0  0
    8.6551  -12.8682   15.4609 N   0  0  0  0  0  0  0  0  0  0  0  0
    8.3183  -14.1753   22.5903 C   0  0  0  0  0  0  0  0  0  0  0  0
    9.5152  -13.8270   22.8605 O   0  0  0  0  0  0  0  0  0  0  0  0
    6.6583  -11.9230   25.1942 C   0  0  0  0  0  0  0  0  0  0  0  0
    6.9066  -13.2571   25.8314 C   0  0  2  0  0  0  0  0  0  0  0  0
    7.3546  -12.9736   27.2507 C   0  0  0  0  0  0  0  0  0  0  0  0
    7.8818  -14.0733   25.0588 C   0  0  2  0  0  0  0  0  0  0  0  0
    7.4301  -14.2252   23.6654 N   0  0  0  0  0  0  0  0  0  0  0  0
    8.1464  -15.4304   25.6190 C   0  0  0  0  0  0  0  0  0  0  0  0
    7.5550  -16.4524   25.1221 O   0  0  0  0  0  0  0  0  0  0  0  0
   11.6539  -20.5036   22.6148 N   0  0  0  0  0  0  0  0  0  0  0  0
   12.7850  -20.6131   23.5127 C   0  0  0  0  0  0  0  0  0  0  0  0
   13.3980  -21.7341   23.5532 N   0  0  0  0  0  0  0  0  0  0  0  0
   13.1924  -19.5338   24.3088 N   0  0  0  0  0  0  0  0  0  0  0  0
   12.4432  -18.3057   24.3330 C   0  0  0  0  0  0  0  0  0  0  0  0
   11.5178  -18.2513   25.5141 C   0  0  0  0  0  0  0  0  0  0  0  0
   10.6559  -17.0217   25.5675 C   0  0  0  0  0  0  0  0  0  0  0  0
    9.7068  -17.0213   26.7554 C   0  0  2  0  0  0  0  0  0  0  0  0
    9.0271  -15.7104   26.6871 N   0  0  0  0  0  0  0  0  0  0  0  0
   10.5101  -17.1191   27.9904 C   0  0  0  0  0  0  0  0  0  0  0  0
   11.0359  -16.0722   28.4437 O   0  0  0  0  0  0  0  0  0  0  0  0
   10.7176  -18.2981   28.6792 O   0  0  0  0  0  0  0  0  0  0  0  0
  2  1  1  1
  2  3  1  0
  4  3  1  0
  4  5  1  0
  6  5  1  0
  7  6  1  0
  8  2  1  0
  9  8  2  0
 11 13  1  0
 11 10  1  6
 11 12  1  0
 13 14  1  6
 14  8  1  0
 15 25  1  0
 15 13  1  0
 16 15  2  0
 17 18  1  0
 18 19  2  0
 20 21  1  0
 20 18  1  0
 21 22  1  0
 23 22  1  0
 24 23  1  6
 24 25  1  0
 26 28  1  0
 26 24  1  0
 27 26  2  0
M  END
$$$$
