KVR.pdb
     RDKit          3D

 28 27  0  0  1  0  0  0  0  0999 V2000
    7.3826  -17.1049   17.8057 N   0  0  0  0  0  0  0  0  0  0  0  0
    7.2750  -17.4411   19.1851 C   0  0  1  0  0  0  0  0  0  0  0  0
    7.6014  -18.8856   19.4598 C   0  0  0  0  0  0  0  0  0  0  0  0
    6.9381  -19.8570   18.5466 C   0  0  0  0  0  0  0  0  0  0  0  0
    7.1544  -21.2958   18.8507 C   0  0  0  0  0  0  0  0  0  0  0  0
    6.3953  -22.2206   17.9252 C   0  0  0  0  0  0  0  0  0  0  0  0
    6.7729  -23.5800   18.3283 N   0  0  0  0  0  0  0  0  0  0  0  0
    8.1275  -16.5964   20.0792 C   0  0  0  0  0  0  0  0  0  0  0  0
    9.2724  -16.2136   19.6674 O   0  0  0  0  0  0  0  0  0  0  0  0
    8.8295  -13.8007   24.0844 C   0  0  0  0  0  0  0  0  0  0  0  0
    7.9243  -14.5865   23.1842 C   0  0  2  0  0  0  0  0  0  0  0  0
    6.9967  -15.3685   24.0915 C   0  0  0  0  0  0  0  0  0  0  0  0
    8.6854  -15.4471   22.2384 C   0  0  2  0  0  0  0  0  0  0  0  0
    7.7603  -16.1836   21.3606 N   0  0  0  0  0  0  0  0  0  0  0  0
    9.6041  -16.4288   22.8846 C   0  0  0  0  0  0  0  0  0  0  0  0
    9.1586  -17.5709   23.2564 O   0  0  0  0  0  0  0  0  0  0  0  0
   18.9713  -18.6192   23.3598 N   0  0  0  0  0  0  0  0  0  0  0  0
   17.7008  -18.7915   24.0333 C   0  0  0  0  0  0  0  0  0  0  0  0
   17.7229  -19.2698   25.2185 N   0  0  0  0  0  0  0  0  0  0  0  0
   16.4923  -18.4494   23.4111 N   0  0  0  0  0  0  0  0  0  0  0  0
   15.6545  -17.4066   23.9410 C   0  0  0  0  0  0  0  0  0  0  0  0
   14.2239  -17.8508   24.0416 C   0  0  0  0  0  0  0  0  0  0  0  0
   13.2290  -16.8534   23.5189 C   0  0  0  0  0  0  0  0  0  0  0  0
   11.7892  -17.2828   23.7524 C   0  0  2  0  0  0  0  0  0  0  0  0
   10.9779  -16.2138   23.1329 N   0  0  0  0  0  0  0  0  0  0  0  0
   11.5500  -17.3299   25.2087 C   0  0  0  0  0  0  0  0  0  0  0  0
   11.1914  -16.2746   25.7880 O   0  0  0  0  0  0  0  0  0  0  0  0
   11.6976  -18.4702   25.9739 O   0  0  0  0  0  0  0  0  0  0  0  0
  2  1  1  6
  2  3  1  0
  4  3  1  0
  4  5  1  0
  6  5  1  0
  7  6  1  0
  8  2  1  0
  9  8  2  0
 11 13  1  0
 11 10  1  1
 11 12  1  0
 13 14  1  1
 14  8  1  0
 15 25  1  0
 15 13  1  0
 16 15  2  0
 17 18  1  0
 18 19  2  0
 20 21  1  0
 20 18  1  0
 21 22  1  0
 23 22  1  0
 24 23  1  1
 24 25  1  0
 26 28  1  0
 26 24  1  0
 27 26  2  0
M  END
$$$$
