QFW.pdb
     RDKit          3D

 35 37  0  0  1  0  0  0  0  0999 V2000
   24.9142  -24.2545  -13.7906 N   0  0  0  0  0  0  0  0  0  0  0  0
   24.5226  -23.4610  -14.9126 C   0  0  0  0  0  0  0  0  0  0  0  0
   23.5358  -22.6750  -14.8148 O   0  0  0  0  0  0  0  0  0  0  0  0
   25.2710  -23.5746  -16.1616 C   0  0  0  0  0  0  0  0  0  0  0  0
   25.7488  -22.2877  -16.7226 C   0  0  0  0  0  0  0  0  0  0  0  0
   27.2409  -22.1315  -16.8272 C   0  0  2  0  0  0  0  0  0  0  0  0
   27.9129  -23.1457  -17.5560 N   0  0  0  0  0  0  0  0  0  0  0  0
   27.7557  -21.9772  -15.4189 C   0  0  0  0  0  0  0  0  0  0  0  0
   28.5433  -22.8526  -14.9412 O   0  0  0  0  0  0  0  0  0  0  0  0
   27.4207  -20.9036  -14.5676 N   0  0  0  0  0  0  0  0  0  0  0  0
   27.9914  -20.8121  -13.1918 C   0  0  1  0  0  0  0  0  0  0  0  0
   28.5800  -19.4368  -13.0422 C   0  0  0  0  0  0  0  0  0  0  0  0
   28.0811  -18.3832  -13.8996 C   0  0  0  0  0  0  0  0  0  0  0  0
   28.5280  -18.1054  -15.1755 C   0  0  0  0  0  0  0  0  0  0  0  0
   28.0359  -17.0698  -15.9491 C   0  0  0  0  0  0  0  0  0  0  0  0
   27.0410  -16.2732  -15.4081 C   0  0  0  0  0  0  0  0  0  0  0  0
   26.5579  -16.5079  -14.1370 C   0  0  0  0  0  0  0  0  0  0  0  0
   27.0812  -17.5497  -13.4106 C   0  0  0  0  0  0  0  0  0  0  0  0
   26.9129  -21.0845  -12.2248 C   0  0  0  0  0  0  0  0  0  0  0  0
   25.7083  -21.2358  -12.6742 O   0  0  0  0  0  0  0  0  0  0  0  0
   27.0886  -21.2028  -10.8341 N   0  0  0  0  0  0  0  0  0  0  0  0
   25.9297  -21.5161   -9.9836 C   0  0  1  0  0  0  0  0  0  0  0  0
   26.4121  -21.7413   -8.5666 C   0  0  0  0  0  0  0  0  0  0  0  0
   26.7000  -20.5500   -7.7833 C   0  0  0  0  0  0  0  0  0  0  0  0
   26.1400  -19.2783   -7.9834 C   0  0  0  0  0  0  0  0  0  0  0  0
   26.7144  -18.4843   -7.0815 N   0  0  0  0  0  0  0  0  0  0  0  0
   27.6021  -19.1675   -6.3204 C   0  0  0  0  0  0  0  0  0  0  0  0
   28.4010  -18.7605   -5.2722 C   0  0  0  0  0  0  0  0  0  0  0  0
   29.2135  -19.6834   -4.6472 C   0  0  0  0  0  0  0  0  0  0  0  0
   29.2537  -21.0043   -5.0373 C   0  0  0  0  0  0  0  0  0  0  0  0
   28.4469  -21.3793   -6.0847 C   0  0  0  0  0  0  0  0  0  0  0  0
   27.6128  -20.4781   -6.7425 C   0  0  0  0  0  0  0  0  0  0  0  0
   24.8944  -20.4963  -10.0558 C   0  0  0  0  0  0  0  0  0  0  0  0
   25.1860  -19.3020  -10.4326 O   0  0  0  0  0  0  0  0  0  0  0  0
   23.5757  -20.7030   -9.7453 O   0  0  0  0  0  0  0  0  0  0  0  0
  2  4  1  0
  2  1  1  0
  3  2  2  0
  5  4  1  0
  6  5  1  0
  6  7  1  1
  8  6  1  0
  9  8  2  0
 10  8  1  0
 11 12  1  1
 11 10  1  0
 12 13  1  0
 13 18  1  0
 13 14  2  0
 14 15  1  0
 15 16  2  0
 17 16  1  0
 18 17  2  0
 19 11  1  0
 20 19  2  0
 21 19  1  0
 22 21  1  0
 22 23  1  1
 23 24  1  0
 24 32  1  0
 25 24  2  0
 25 26  1  0
 26 27  1  0
 27 28  1  0
 28 29  2  0
 30 29  1  0
 31 30  2  0
 32 27  2  0
 32 31  1  0
 33 35  1  0
 33 22  1  0
 34 33  2  0
M  END
$$$$
