QFW.pdb
     RDKit          3D

 35 37  0  0  1  0  0  0  0  0999 V2000
   26.9668  -16.7986  -16.8243 N   0  0  0  0  0  0  0  0  0  0  0  0
   26.8613  -17.7982  -17.8399 C   0  0  0  0  0  0  0  0  0  0  0  0
   27.4332  -17.6259  -18.9554 O   0  0  0  0  0  0  0  0  0  0  0  0
   26.0873  -19.0073  -17.5720 C   0  0  0  0  0  0  0  0  0  0  0  0
   26.4120  -19.6864  -16.2942 C   0  0  0  0  0  0  0  0  0  0  0  0
   27.5846  -20.6273  -16.3310 C   0  0  2  0  0  0  0  0  0  0  0  0
   27.5037  -21.6689  -17.2901 N   0  0  0  0  0  0  0  0  0  0  0  0
   27.7720  -21.1342  -14.9239 C   0  0  0  0  0  0  0  0  0  0  0  0
   27.0626  -22.1030  -14.5081 O   0  0  0  0  0  0  0  0  0  0  0  0
   28.7026  -20.6001  -14.0083 N   0  0  0  0  0  0  0  0  0  0  0  0
   28.7575  -21.0908  -12.6001 C   0  0  1  0  0  0  0  0  0  0  0  0
   30.1533  -20.8496  -12.0964 C   0  0  0  0  0  0  0  0  0  0  0  0
   30.4005  -20.9860  -10.6770 C   0  0  0  0  0  0  0  0  0  0  0  0
   31.0303  -22.0532  -10.0693 C   0  0  0  0  0  0  0  0  0  0  0  0
   31.2224  -22.1502   -8.7031 C   0  0  0  0  0  0  0  0  0  0  0  0
   30.7557  -21.1169   -7.9083 C   0  0  0  0  0  0  0  0  0  0  0  0
   30.1195  -20.0263   -8.4650 C   0  0  0  0  0  0  0  0  0  0  0  0
   29.9541  -19.9793   -9.8278 C   0  0  0  0  0  0  0  0  0  0  0  0
   27.7326  -20.3738  -11.8203 C   0  0  0  0  0  0  0  0  0  0  0  0
   27.5574  -19.1118  -12.0495 O   0  0  0  0  0  0  0  0  0  0  0  0
   26.9120  -20.9583  -10.8385 N   0  0  0  0  0  0  0  0  0  0  0  0
   25.9572  -20.1167  -10.1005 C   0  0  1  0  0  0  0  0  0  0  0  0
   24.9719  -19.5213  -11.0834 C   0  0  0  0  0  0  0  0  0  0  0  0
   23.7041  -20.2184  -11.2324 C   0  0  0  0  0  0  0  0  0  0  0  0
   22.7670  -20.4493  -10.2129 C   0  0  0  0  0  0  0  0  0  0  0  0
   21.7880  -21.1559  -10.7749 N   0  0  0  0  0  0  0  0  0  0  0  0
   22.0401  -21.3887  -12.0849 C   0  0  0  0  0  0  0  0  0  0  0  0
   21.3068  -22.0530  -13.0461 C   0  0  0  0  0  0  0  0  0  0  0  0
   21.7954  -22.1269  -14.3338 C   0  0  0  0  0  0  0  0  0  0  0  0
   22.9972  -21.5568  -14.6933 C   0  0  0  0  0  0  0  0  0  0  0  0
   23.7049  -20.9024  -13.7138 C   0  0  0  0  0  0  0  0  0  0  0  0
   23.2467  -20.8058  -12.4018 C   0  0  0  0  0  0  0  0  0  0  0  0
   25.2928  -20.8393   -9.0265 C   0  0  0  0  0  0  0  0  0  0  0  0
   24.5048  -20.2213   -8.2200 O   0  0  0  0  0  0  0  0  0  0  0  0
   25.4366  -22.1809   -8.7861 O   0  0  0  0  0  0  0  0  0  0  0  0
  2  4  1  0
  2  1  1  0
  3  2  2  0
  5  4  1  0
  6  5  1  0
  6  7  1  6
  8  6  1  0
  9  8  2  0
 10  8  1  0
 11 12  1  1
 11 10  1  0
 12 13  1  0
 13 18  1  0
 13 14  2  0
 14 15  1  0
 15 16  2  0
 17 16  1  0
 18 17  2  0
 19 11  1  0
 20 19  2  0
 21 19  1  0
 22 21  1  0
 22 23  1  6
 23 24  1  0
 24 32  1  0
 25 24  2  0
 25 26  1  0
 26 27  1  0
 27 28  1  0
 28 29  2  0
 30 29  1  0
 31 30  2  0
 32 27  2  0
 32 31  1  0
 33 35  1  0
 33 22  1  0
 34 33  2  0
M  END
$$$$
