QFW.pdb
     RDKit          3D

 35 37  0  0  1  0  0  0  0  0999 V2000
   26.1038  -22.6367  -18.8966 N   0  0  0  0  0  0  0  0  0  0  0  0
   27.5177  -22.7346  -19.0789 C   0  0  0  0  0  0  0  0  0  0  0  0
   28.0055  -22.7116  -20.2461 O   0  0  0  0  0  0  0  0  0  0  0  0
   28.3799  -22.8640  -17.9072 C   0  0  0  0  0  0  0  0  0  0  0  0
   27.6652  -22.9209  -16.6091 C   0  0  0  0  0  0  0  0  0  0  0  0
   27.1449  -21.6093  -16.0888 C   0  0  2  0  0  0  0  0  0  0  0  0
   28.0456  -20.5171  -16.1724 N   0  0  0  0  0  0  0  0  0  0  0  0
   26.6587  -21.8672  -14.6855 C   0  0  0  0  0  0  0  0  0  0  0  0
   25.9084  -22.8670  -14.4570 O   0  0  0  0  0  0  0  0  0  0  0  0
   26.9839  -21.0604  -13.5751 N   0  0  0  0  0  0  0  0  0  0  0  0
   26.3333  -21.2841  -12.2510 C   0  0  1  0  0  0  0  0  0  0  0  0
   27.3147  -20.8621  -11.1932 C   0  0  0  0  0  0  0  0  0  0  0  0
   26.8280  -20.6820   -9.8423 C   0  0  0  0  0  0  0  0  0  0  0  0
   26.6632  -21.6831   -8.9067 C   0  0  0  0  0  0  0  0  0  0  0  0
   26.1705  -21.4652   -7.6329 C   0  0  0  0  0  0  0  0  0  0  0  0
   25.8265  -20.1701   -7.2842 C   0  0  0  0  0  0  0  0  0  0  0  0
   25.9721  -19.1320   -8.1816 C   0  0  0  0  0  0  0  0  0  0  0  0
   26.4661  -19.4028   -9.4343 C   0  0  0  0  0  0  0  0  0  0  0  0
   25.0801  -20.5090  -12.2148 C   0  0  0  0  0  0  0  0  0  0  0  0
   25.1500  -19.2217  -12.3327 O   0  0  0  0  0  0  0  0  0  0  0  0
   23.7948  -21.0618  -12.0682 N   0  0  0  0  0  0  0  0  0  0  0  0
   22.6267  -20.3147  -12.5601 C   0  0  1  0  0  0  0  0  0  0  0  0
   22.8728  -19.9190  -14.0004 C   0  0  0  0  0  0  0  0  0  0  0  0
   21.8245  -19.1462  -14.6480 C   0  0  0  0  0  0  0  0  0  0  0  0
   20.7624  -18.4954  -14.0006 C   0  0  0  0  0  0  0  0  0  0  0  0
   20.0237  -17.9574  -14.9693 N   0  0  0  0  0  0  0  0  0  0  0  0
   20.5465  -18.2223  -16.1901 C   0  0  0  0  0  0  0  0  0  0  0  0
   20.1314  -17.8569  -17.4538 C   0  0  0  0  0  0  0  0  0  0  0  0
   20.8744  -18.2515  -18.5468 C   0  0  0  0  0  0  0  0  0  0  0  0
   22.0227  -19.0020  -18.4174 C   0  0  0  0  0  0  0  0  0  0  0  0
   22.4103  -19.3508  -17.1460 C   0  0  0  0  0  0  0  0  0  0  0  0
   21.6877  -18.9730  -16.0165 C   0  0  0  0  0  0  0  0  0  0  0  0
   21.3844  -21.0546  -12.3985 C   0  0  0  0  0  0  0  0  0  0  0  0
   21.2350  -22.2014  -12.9605 O   0  0  0  0  0  0  0  0  0  0  0  0
   20.3099  -20.6205  -11.6668 O   0  0  0  0  0  0  0  0  0  0  0  0
  2  4  1  0
  2  1  1  0
  3  2  2  0
  5  4  1  0
  6  5  1  0
  6  7  1  1
  8  6  1  0
  9  8  2  0
 10  8  1  0
 11 12  1  1
 11 10  1  0
 12 13  1  0
 13 18  1  0
 13 14  2  0
 14 15  1  0
 15 16  2  0
 17 16  1  0
 18 17  2  0
 19 11  1  0
 20 19  2  0
 21 19  1  0
 22 21  1  0
 22 23  1  6
 23 24  1  0
 24 32  1  0
 25 24  2  0
 25 26  1  0
 26 27  1  0
 27 28  1  0
 28 29  2  0
 30 29  1  0
 31 30  2  0
 32 27  2  0
 32 31  1  0
 33 35  1  0
 33 22  1  0
 34 33  2  0
M  END
$$$$
