QFW.pdb
     RDKit          3D

 35 37  0  0  1  0  0  0  0  0999 V2000
   11.0888  -21.0304    5.2389 N   0  0  0  0  0  0  0  0  0  0  0  0
   10.2120  -20.2561    4.4181 C   0  0  0  0  0  0  0  0  0  0  0  0
    9.2527  -19.6212    4.9450 O   0  0  0  0  0  0  0  0  0  0  0  0
   10.4380  -20.2141    2.9759 C   0  0  0  0  0  0  0  0  0  0  0  0
   11.5903  -21.0175    2.5006 C   0  0  0  0  0  0  0  0  0  0  0  0
   12.2351  -20.5489    1.2254 C   0  0  2  0  0  0  0  0  0  0  0  0
   12.2563  -21.4930    0.1673 N   0  0  0  0  0  0  0  0  0  0  0  0
   13.6076  -20.0488    1.5974 C   0  0  0  0  0  0  0  0  0  0  0  0
   14.6342  -20.6200    1.1132 O   0  0  0  0  0  0  0  0  0  0  0  0
   13.8451  -18.9632    2.4661 N   0  0  0  0  0  0  0  0  0  0  0  0
   15.2230  -18.4226    2.6551 C   0  0  1  0  0  0  0  0  0  0  0  0
   15.1217  -16.9227    2.6367 C   0  0  0  0  0  0  0  0  0  0  0  0
   16.3378  -16.1538    2.7917 C   0  0  0  0  0  0  0  0  0  0  0  0
   16.4142  -14.7784    2.8770 C   0  0  0  0  0  0  0  0  0  0  0  0
   17.6047  -14.0853    3.0004 C   0  0  0  0  0  0  0  0  0  0  0  0
   18.7793  -14.8174    3.0406 C   0  0  0  0  0  0  0  0  0  0  0  0
   18.7592  -16.1947    2.9598 C   0  0  0  0  0  0  0  0  0  0  0  0
   17.5496  -16.8342    2.8380 C   0  0  0  0  0  0  0  0  0  0  0  0
   15.7555  -18.9476    3.9252 C   0  0  0  0  0  0  0  0  0  0  0  0
   15.0233  -18.8447    4.9879 O   0  0  0  0  0  0  0  0  0  0  0  0
   17.0091  -19.5672    4.0786 N   0  0  0  0  0  0  0  0  0  0  0  0
   17.4358  -20.0136    5.4139 C   0  0  1  0  0  0  0  0  0  0  0  0
   18.4523  -21.1239    5.2546 C   0  0  0  0  0  0  0  0  0  0  0  0
   18.8837  -21.7872    6.4751 C   0  0  0  0  0  0  0  0  0  0  0  0
   18.0556  -22.4809    7.3716 C   0  0  0  0  0  0  0  0  0  0  0  0
   18.8506  -22.8817    8.3620 N   0  0  0  0  0  0  0  0  0  0  0  0
   20.1300  -22.4895    8.1539 C   0  0  0  0  0  0  0  0  0  0  0  0
   21.2739  -22.6930    8.8975 C   0  0  0  0  0  0  0  0  0  0  0  0
   22.4739  -22.1928    8.4370 C   0  0  0  0  0  0  0  0  0  0  0  0
   22.5683  -21.4935    7.2536 C   0  0  0  0  0  0  0  0  0  0  0  0
   21.4116  -21.3067    6.5354 C   0  0  0  0  0  0  0  0  0  0  0  0
   20.1800  -21.7950    6.9660 C   0  0  0  0  0  0  0  0  0  0  0  0
   17.9400  -18.9206    6.2314 C   0  0  0  0  0  0  0  0  0  0  0  0
   17.4046  -18.6637    7.3719 O   0  0  0  0  0  0  0  0  0  0  0  0
   18.9824  -18.1031    5.8803 O   0  0  0  0  0  0  0  0  0  0  0  0
  2  4  1  0
  2  1  1  0
  3  2  2  0
  5  4  1  0
  6  5  1  0
  6  7  1  6
  8  6  1  0
  9  8  2  0
 10  8  1  0
 11 12  1  1
 11 10  1  0
 12 13  1  0
 13 18  1  0
 13 14  2  0
 14 15  1  0
 15 16  2  0
 17 16  1  0
 18 17  2  0
 19 11  1  0
 20 19  2  0
 21 19  1  0
 22 21  1  0
 22 23  1  6
 23 24  1  0
 24 32  1  0
 25 24  2  0
 25 26  1  0
 26 27  1  0
 27 28  1  0
 28 29  2  0
 30 29  1  0
 31 30  2  0
 32 27  2  0
 32 31  1  0
 33 35  1  0
 33 22  1  0
 34 33  2  0
M  END
$$$$
