QFW.pdb
     RDKit          3D

 35 37  0  0  1  0  0  0  0  0999 V2000
   26.1314  -22.1409  -18.9360 N   0  0  0  0  0  0  0  0  0  0  0  0
   26.9437  -21.0360  -19.3378 C   0  0  0  0  0  0  0  0  0  0  0  0
   27.1032  -20.7858  -20.5678 O   0  0  0  0  0  0  0  0  0  0  0  0
   27.5824  -20.2121  -18.3150 C   0  0  0  0  0  0  0  0  0  0  0  0
   27.2339  -20.5687  -16.9184 C   0  0  0  0  0  0  0  0  0  0  0  0
   28.2525  -21.3905  -16.1777 C   0  0  2  0  0  0  0  0  0  0  0  0
   28.6227  -22.6109  -16.7981 N   0  0  0  0  0  0  0  0  0  0  0  0
   27.7189  -21.5771  -14.7803 C   0  0  0  0  0  0  0  0  0  0  0  0
   26.7819  -22.4105  -14.5744 O   0  0  0  0  0  0  0  0  0  0  0  0
   28.1954  -20.8777  -13.6519 N   0  0  0  0  0  0  0  0  0  0  0  0
   27.6213  -21.1297  -12.2977 C   0  0  1  0  0  0  0  0  0  0  0  0
   28.5852  -20.5658  -11.2911 C   0  0  0  0  0  0  0  0  0  0  0  0
   28.1671  -20.5000   -9.9073 C   0  0  0  0  0  0  0  0  0  0  0  0
   27.3131  -19.5589   -9.3691 C   0  0  0  0  0  0  0  0  0  0  0  0
   26.9612  -19.5221   -8.0320 C   0  0  0  0  0  0  0  0  0  0  0  0
   27.4980  -20.4849   -7.1941 C   0  0  0  0  0  0  0  0  0  0  0  0
   28.3565  -21.4493   -7.6810 C   0  0  0  0  0  0  0  0  0  0  0  0
   28.6738  -21.4409   -9.0174 C   0  0  0  0  0  0  0  0  0  0  0  0
   26.2903  -20.4995  -12.2353 C   0  0  0  0  0  0  0  0  0  0  0  0
   26.1339  -19.3380  -12.7853 O   0  0  0  0  0  0  0  0  0  0  0  0
   25.1575  -21.0679  -11.6249 N   0  0  0  0  0  0  0  0  0  0  0  0
   23.8264  -20.5110  -11.9117 C   0  0  1  0  0  0  0  0  0  0  0  0
   23.5333  -20.6842  -13.3867 C   0  0  0  0  0  0  0  0  0  0  0  0
   22.2220  -20.2499  -13.8419 C   0  0  0  0  0  0  0  0  0  0  0  0
   21.7906  -18.9192  -13.9592 C   0  0  0  0  0  0  0  0  0  0  0  0
   20.5226  -18.9841  -14.3614 N   0  0  0  0  0  0  0  0  0  0  0  0
   20.1195  -20.2686  -14.5085 C   0  0  0  0  0  0  0  0  0  0  0  0
   18.9133  -20.8002  -14.9152 C   0  0  0  0  0  0  0  0  0  0  0  0
   18.7752  -22.1701  -14.9981 C   0  0  0  0  0  0  0  0  0  0  0  0
   19.8068  -23.0288  -14.6867 C   0  0  0  0  0  0  0  0  0  0  0  0
   20.9958  -22.4693  -14.2843 C   0  0  0  0  0  0  0  0  0  0  0  0
   21.1757  -21.0913  -14.1869 C   0  0  0  0  0  0  0  0  0  0  0  0
   22.7880  -21.0909  -11.0736 C   0  0  0  0  0  0  0  0  0  0  0  0
   21.7105  -20.4335  -10.8281 O   0  0  0  0  0  0  0  0  0  0  0  0
   22.8568  -22.3321  -10.4965 O   0  0  0  0  0  0  0  0  0  0  0  0
  2  4  1  0
  2  1  1  0
  3  2  2  0
  5  4  1  0
  6  5  1  0
  6  7  1  6
  8  6  1  0
  9  8  2  0
 10  8  1  0
 11 12  1  1
 11 10  1  0
 12 13  1  0
 13 18  1  0
 13 14  2  0
 14 15  1  0
 15 16  2  0
 17 16  1  0
 18 17  2  0
 19 11  1  0
 20 19  2  0
 21 19  1  0
 22 21  1  0
 22 23  1  6
 23 24  1  0
 24 32  1  0
 25 24  2  0
 25 26  1  0
 26 27  1  0
 27 28  1  0
 28 29  2  0
 30 29  1  0
 31 30  2  0
 32 27  2  0
 32 31  1  0
 33 35  1  0
 33 22  1  0
 34 33  2  0
M  END
$$$$
