QFW.pdb
     RDKit          3D

 35 37  0  0  1  0  0  0  0  0999 V2000
   29.2356  -17.8013  -14.4823 N   0  0  0  0  0  0  0  0  0  0  0  0
   28.2963  -18.3453  -15.4116 C   0  0  0  0  0  0  0  0  0  0  0  0
   28.3525  -18.0134  -16.6314 O   0  0  0  0  0  0  0  0  0  0  0  0
   27.2792  -19.2779  -14.9334 C   0  0  0  0  0  0  0  0  0  0  0  0
   27.3524  -19.5937  -13.4863 C   0  0  0  0  0  0  0  0  0  0  0  0
   28.3642  -20.6343  -13.0925 C   0  0  2  0  0  0  0  0  0  0  0  0
   28.4955  -21.7288  -13.9847 N   0  0  0  0  0  0  0  0  0  0  0  0
   28.0201  -21.0566  -11.6870 C   0  0  0  0  0  0  0  0  0  0  0  0
   27.1510  -21.9650  -11.5016 O   0  0  0  0  0  0  0  0  0  0  0  0
   28.6075  -20.5051  -10.5293 N   0  0  0  0  0  0  0  0  0  0  0  0
   28.1276  -20.8918   -9.1702 C   0  0  1  0  0  0  0  0  0  0  0  0
   29.1134  -20.3451   -8.1754 C   0  0  0  0  0  0  0  0  0  0  0  0
   28.6847  -20.1931   -6.8016 C   0  0  0  0  0  0  0  0  0  0  0  0
   27.9083  -19.1630   -6.3108 C   0  0  0  0  0  0  0  0  0  0  0  0
   27.5435  -19.0473   -4.9817 C   0  0  0  0  0  0  0  0  0  0  0  0
   27.9842  -20.0214   -4.1018 C   0  0  0  0  0  0  0  0  0  0  0  0
   28.7624  -21.0731   -4.5405 C   0  0  0  0  0  0  0  0  0  0  0  0
   29.0966  -21.1409   -5.8711 C   0  0  0  0  0  0  0  0  0  0  0  0
   26.7681  -20.3519   -8.9890 C   0  0  0  0  0  0  0  0  0  0  0  0
   26.4927  -19.1955   -9.5016 O   0  0  0  0  0  0  0  0  0  0  0  0
   25.7279  -21.0028   -8.3011 N   0  0  0  0  0  0  0  0  0  0  0  0
   24.3375  -20.5756   -8.5222 C   0  0  1  0  0  0  0  0  0  0  0  0
   24.0465  -20.6138  -10.0072 C   0  0  0  0  0  0  0  0  0  0  0  0
   22.6964  -20.2549  -10.4121 C   0  0  0  0  0  0  0  0  0  0  0  0
   21.6432  -19.9095   -9.5507 C   0  0  0  0  0  0  0  0  0  0  0  0
   20.5866  -19.7049  -10.3351 N   0  0  0  0  0  0  0  0  0  0  0  0
   20.8987  -19.8963  -11.6389 C   0  0  0  0  0  0  0  0  0  0  0  0
   20.1345  -19.7805  -12.7815 C   0  0  0  0  0  0  0  0  0  0  0  0
   20.7182  -20.0171  -14.0086 C   0  0  0  0  0  0  0  0  0  0  0  0
   22.0453  -20.3670  -14.1313 C   0  0  0  0  0  0  0  0  0  0  0  0
   22.7804  -20.4748  -12.9752 C   0  0  0  0  0  0  0  0  0  0  0  0
   22.2285  -20.2448  -11.7170 C   0  0  0  0  0  0  0  0  0  0  0  0
   23.3845  -21.3634   -7.7553 C   0  0  0  0  0  0  0  0  0  0  0  0
   23.6253  -22.5996   -7.4960 O   0  0  0  0  0  0  0  0  0  0  0  0
   22.1993  -20.8850   -7.2605 O   0  0  0  0  0  0  0  0  0  0  0  0
  2  4  1  0
  2  1  1  0
  3  2  2  0
  5  4  1  0
  6  5  1  0
  6  7  1  6
  8  6  1  0
  9  8  2  0
 10  8  1  0
 11 12  1  1
 11 10  1  0
 12 13  1  0
 13 18  1  0
 13 14  2  0
 14 15  1  0
 15 16  2  0
 17 16  1  0
 18 17  2  0
 19 11  1  0
 20 19  2  0
 21 19  1  0
 22 21  1  0
 22 23  1  6
 23 24  1  0
 24 32  1  0
 25 24  2  0
 25 26  1  0
 26 27  1  0
 27 28  1  0
 28 29  2  0
 30 29  1  0
 31 30  2  0
 32 27  2  0
 32 31  1  0
 33 35  1  0
 33 22  1  0
 34 33  2  0
M  END
$$$$
