QFW.pdb
     RDKit          3D

 35 37  0  0  1  0  0  0  0  0999 V2000
   26.3298  -18.1752  -17.4537 N   0  0  0  0  0  0  0  0  0  0  0  0
   25.9997  -19.1769  -18.4177 C   0  0  0  0  0  0  0  0  0  0  0  0
   26.1404  -18.9346  -19.6516 O   0  0  0  0  0  0  0  0  0  0  0  0
   25.4990  -20.4699  -17.9589 C   0  0  0  0  0  0  0  0  0  0  0  0
   25.5264  -20.6643  -16.4890 C   0  0  0  0  0  0  0  0  0  0  0  0
   26.7704  -21.3024  -15.9349 C   0  0  2  0  0  0  0  0  0  0  0  0
   27.2201  -22.4611  -16.6177 N   0  0  0  0  0  0  0  0  0  0  0  0
   26.5122  -21.5439  -14.4696 C   0  0  0  0  0  0  0  0  0  0  0  0
   25.7994  -22.5342  -14.1147 O   0  0  0  0  0  0  0  0  0  0  0  0
   27.0175  -20.7314  -13.4331 N   0  0  0  0  0  0  0  0  0  0  0  0
   26.6198  -20.9669  -12.0143 C   0  0  1  0  0  0  0  0  0  0  0  0
   27.7173  -20.4190  -11.1451 C   0  0  0  0  0  0  0  0  0  0  0  0
   27.4920  -20.3584   -9.7169 C   0  0  0  0  0  0  0  0  0  0  0  0
   27.8206  -21.3439   -8.8084 C   0  0  0  0  0  0  0  0  0  0  0  0
   27.5627  -21.2504   -7.4528 C   0  0  0  0  0  0  0  0  0  0  0  0
   26.9415  -20.1031   -6.9891 C   0  0  0  0  0  0  0  0  0  0  0  0
   26.5922  -19.0870   -7.8549 C   0  0  0  0  0  0  0  0  0  0  0  0
   26.8709  -19.2301   -9.1923 C   0  0  0  0  0  0  0  0  0  0  0  0
   25.3208  -20.3098  -11.7831 C   0  0  0  0  0  0  0  0  0  0  0  0
   25.1804  -19.0778  -12.1552 O   0  0  0  0  0  0  0  0  0  0  0  0
   24.2023  -20.9226  -11.1895 N   0  0  0  0  0  0  0  0  0  0  0  0
   23.0357  -20.1020  -10.8287 C   0  0  1  0  0  0  0  0  0  0  0  0
   22.4438  -19.5145  -12.0921 C   0  0  0  0  0  0  0  0  0  0  0  0
   21.8768  -20.4591  -13.0416 C   0  0  0  0  0  0  0  0  0  0  0  0
   21.1494  -21.6153  -12.7178 C   0  0  0  0  0  0  0  0  0  0  0  0
   20.8668  -22.2020  -13.8795 N   0  0  0  0  0  0  0  0  0  0  0  0
   21.3657  -21.4946  -14.9209 C   0  0  0  0  0  0  0  0  0  0  0  0
   21.3009  -21.7142  -16.2812 C   0  0  0  0  0  0  0  0  0  0  0  0
   21.8889  -20.8074  -17.1383 C   0  0  0  0  0  0  0  0  0  0  0  0
   22.5419  -19.6846  -16.6785 C   0  0  0  0  0  0  0  0  0  0  0  0
   22.5900  -19.4935  -15.3184 C   0  0  0  0  0  0  0  0  0  0  0  0
   22.0096  -20.3855  -14.4195 C   0  0  0  0  0  0  0  0  0  0  0  0
   22.0518  -20.8432  -10.0543 C   0  0  0  0  0  0  0  0  0  0  0  0
   20.9753  -20.2665   -9.6521 O   0  0  0  0  0  0  0  0  0  0  0  0
   22.1736  -22.1613   -9.6995 O   0  0  0  0  0  0  0  0  0  0  0  0
  2  4  1  0
  2  1  1  0
  3  2  2  0
  5  4  1  0
  6  5  1  0
  6  7  1  6
  8  6  1  0
  9  8  2  0
 10  8  1  0
 11 12  1  1
 11 10  1  0
 12 13  1  0
 13 18  1  0
 13 14  2  0
 14 15  1  0
 15 16  2  0
 17 16  1  0
 18 17  2  0
 19 11  1  0
 20 19  2  0
 21 19  1  0
 22 21  1  0
 22 23  1  6
 23 24  1  0
 24 32  1  0
 25 24  2  0
 25 26  1  0
 26 27  1  0
 27 28  1  0
 28 29  2  0
 30 29  1  0
 31 30  2  0
 32 27  2  0
 32 31  1  0
 33 35  1  0
 33 22  1  0
 34 33  2  0
M  END
$$$$
