QFW.pdb
     RDKit          3D

 35 37  0  0  1  0  0  0  0  0999 V2000
   15.5820  -24.7875    5.7958 N   0  0  0  0  0  0  0  0  0  0  0  0
   14.7474  -23.6552    6.0469 C   0  0  0  0  0  0  0  0  0  0  0  0
   14.6701  -23.1763    7.2156 O   0  0  0  0  0  0  0  0  0  0  0  0
   13.9908  -23.0690    4.9438 C   0  0  0  0  0  0  0  0  0  0  0  0
   14.2696  -21.6352    4.6877 C   0  0  0  0  0  0  0  0  0  0  0  0
   14.7769  -21.3012    3.3119 C   0  0  2  0  0  0  0  0  0  0  0  0
   15.1244  -22.4119    2.5014 N   0  0  0  0  0  0  0  0  0  0  0  0
   15.9130  -20.3282    3.4982 C   0  0  0  0  0  0  0  0  0  0  0  0
   17.1056  -20.7098    3.2814 O   0  0  0  0  0  0  0  0  0  0  0  0
   15.7476  -18.9879    3.9052 N   0  0  0  0  0  0  0  0  0  0  0  0
   16.9048  -18.0459    3.9225 C   0  0  1  0  0  0  0  0  0  0  0  0
   16.4191  -16.7305    3.3803 C   0  0  0  0  0  0  0  0  0  0  0  0
   17.3144  -15.5950    3.4385 C   0  0  0  0  0  0  0  0  0  0  0  0
   17.1357  -14.4691    4.2163 C   0  0  0  0  0  0  0  0  0  0  0  0
   18.0086  -13.3962    4.2198 C   0  0  0  0  0  0  0  0  0  0  0  0
   19.1199  -13.4626    3.3965 C   0  0  0  0  0  0  0  0  0  0  0  0
   19.3463  -14.5656    2.5990 C   0  0  0  0  0  0  0  0  0  0  0  0
   18.4480  -15.6042    2.6331 C   0  0  0  0  0  0  0  0  0  0  0  0
   17.4016  -17.9492    5.3069 C   0  0  0  0  0  0  0  0  0  0  0  0
   16.5486  -18.0564    6.2748 O   0  0  0  0  0  0  0  0  0  0  0  0
   18.7472  -17.7547    5.6683 N   0  0  0  0  0  0  0  0  0  0  0  0
   19.1030  -17.6346    7.0908 C   0  0  1  0  0  0  0  0  0  0  0  0
   20.5642  -17.9924    7.2592 C   0  0  0  0  0  0  0  0  0  0  0  0
   21.0785  -17.9916    8.6197 C   0  0  0  0  0  0  0  0  0  0  0  0
   20.5256  -18.6834    9.7090 C   0  0  0  0  0  0  0  0  0  0  0  0
   21.2799  -18.3657   10.7597 N   0  0  0  0  0  0  0  0  0  0  0  0
   22.2767  -17.5183   10.4101 C   0  0  0  0  0  0  0  0  0  0  0  0
   23.2881  -16.9500   11.1564 C   0  0  0  0  0  0  0  0  0  0  0  0
   24.2001  -16.1228   10.5348 C   0  0  0  0  0  0  0  0  0  0  0  0
   24.1338  -15.8440    9.1870 C   0  0  0  0  0  0  0  0  0  0  0  0
   23.1149  -16.4245    8.4705 C   0  0  0  0  0  0  0  0  0  0  0  0
   22.1736  -17.2649    9.0606 C   0  0  0  0  0  0  0  0  0  0  0  0
   18.7933  -16.3204    7.6330 C   0  0  0  0  0  0  0  0  0  0  0  0
   19.1292  -15.2584    6.9906 O   0  0  0  0  0  0  0  0  0  0  0  0
   18.1451  -16.1018    8.8206 O   0  0  0  0  0  0  0  0  0  0  0  0
  2  4  1  0
  2  1  1  0
  3  2  2  0
  5  4  1  0
  6  5  1  0
  6  7  1  1
  8  6  1  0
  9  8  2  0
 10  8  1  0
 11 12  1  1
 11 10  1  0
 12 13  1  0
 13 18  1  0
 13 14  2  0
 14 15  1  0
 15 16  2  0
 17 16  1  0
 18 17  2  0
 19 11  1  0
 20 19  2  0
 21 19  1  0
 22 21  1  0
 22 23  1  6
 23 24  1  0
 24 32  1  0
 25 24  2  0
 25 26  1  0
 26 27  1  0
 27 28  1  0
 28 29  2  0
 30 29  1  0
 31 30  2  0
 32 27  2  0
 32 31  1  0
 33 35  1  0
 33 22  1  0
 34 33  2  0
M  END
$$$$
