QFW.pdb
     RDKit          3D

 35 37  0  0  1  0  0  0  0  0999 V2000
   30.5156  -17.3282  -19.2365 N   0  0  0  0  0  0  0  0  0  0  0  0
   30.3588  -18.6075  -18.6193 C   0  0  0  0  0  0  0  0  0  0  0  0
   30.7192  -19.6524  -19.2350 O   0  0  0  0  0  0  0  0  0  0  0  0
   29.7782  -18.6868  -17.2816 C   0  0  0  0  0  0  0  0  0  0  0  0
   28.3843  -18.1917  -17.1754 C   0  0  0  0  0  0  0  0  0  0  0  0
   27.3280  -19.0697  -17.7877 C   0  0  2  0  0  0  0  0  0  0  0  0
   27.1673  -18.9459  -19.1914 N   0  0  0  0  0  0  0  0  0  0  0  0
   26.0559  -18.8073  -17.0228 C   0  0  0  0  0  0  0  0  0  0  0  0
   25.5973  -17.6240  -16.9582 O   0  0  0  0  0  0  0  0  0  0  0  0
   25.3144  -19.8045  -16.3554 N   0  0  0  0  0  0  0  0  0  0  0  0
   24.0307  -19.4730  -15.6705 C   0  0  1  0  0  0  0  0  0  0  0  0
   22.9613  -19.4198  -16.7259 C   0  0  0  0  0  0  0  0  0  0  0  0
   21.5897  -19.2413  -16.3003 C   0  0  0  0  0  0  0  0  0  0  0  0
   20.9944  -18.0354  -15.9903 C   0  0  0  0  0  0  0  0  0  0  0  0
   19.6841  -17.9173  -15.5637 C   0  0  0  0  0  0  0  0  0  0  0  0
   18.9349  -19.0755  -15.4439 C   0  0  0  0  0  0  0  0  0  0  0  0
   19.4814  -20.3071  -15.7418 C   0  0  0  0  0  0  0  0  0  0  0  0
   20.7878  -20.3689  -16.1614 C   0  0  0  0  0  0  0  0  0  0  0  0
   23.7756  -20.4997  -14.6443 C   0  0  0  0  0  0  0  0  0  0  0  0
   23.9628  -21.7418  -14.9578 O   0  0  0  0  0  0  0  0  0  0  0  0
   23.3463  -20.2367  -13.3307 N   0  0  0  0  0  0  0  0  0  0  0  0
   23.0255  -21.3604  -12.4370 C   0  0  1  0  0  0  0  0  0  0  0  0
   23.9416  -21.3025  -11.2333 C   0  0  0  0  0  0  0  0  0  0  0  0
   25.0747  -20.3952  -11.3248 C   0  0  0  0  0  0  0  0  0  0  0  0
   25.1754  -19.1391  -10.7059 C   0  0  0  0  0  0  0  0  0  0  0  0
   26.3469  -18.6379  -11.0935 N   0  0  0  0  0  0  0  0  0  0  0  0
   26.9982  -19.4929  -11.9173 C   0  0  0  0  0  0  0  0  0  0  0  0
   28.2279  -19.3982  -12.5351 C   0  0  0  0  0  0  0  0  0  0  0  0
   28.6689  -20.4427  -13.3206 C   0  0  0  0  0  0  0  0  0  0  0  0
   27.9183  -21.5826  -13.5094 C   0  0  0  0  0  0  0  0  0  0  0  0
   26.6977  -21.6473  -12.8814 C   0  0  0  0  0  0  0  0  0  0  0  0
   26.2159  -20.6142  -12.0806 C   0  0  0  0  0  0  0  0  0  0  0  0
   21.6211  -21.3863  -12.0575 C   0  0  0  0  0  0  0  0  0  0  0  0
   20.8827  -20.3485  -12.2337 O   0  0  0  0  0  0  0  0  0  0  0  0
   20.9842  -22.4668  -11.5048 O   0  0  0  0  0  0  0  0  0  0  0  0
  2  4  1  0
  2  1  1  0
  3  2  2  0
  5  4  1  0
  6  5  1  0
  6  7  1  6
  8  6  1  0
  9  8  2  0
 10  8  1  0
 11 12  1  6
 11 10  1  0
 12 13  1  0
 13 18  1  0
 13 14  2  0
 14 15  1  0
 15 16  2  0
 17 16  1  0
 18 17  2  0
 19 11  1  0
 20 19  2  0
 21 19  1  0
 22 21  1  0
 22 23  1  1
 23 24  1  0
 24 32  1  0
 25 24  2  0
 25 26  1  0
 26 27  1  0
 27 28  1  0
 28 29  2  0
 30 29  1  0
 31 30  2  0
 32 27  2  0
 32 31  1  0
 33 35  1  0
 33 22  1  0
 34 33  2  0
M  END
$$$$
