QFW.pdb
     RDKit          3D

 35 37  0  0  1  0  0  0  0  0999 V2000
   27.1384  -16.4594  -14.4152 N   0  0  0  0  0  0  0  0  0  0  0  0
   27.9575  -16.9530  -15.4768 C   0  0  0  0  0  0  0  0  0  0  0  0
   28.6506  -16.1481  -16.1644 O   0  0  0  0  0  0  0  0  0  0  0  0
   27.9776  -18.3869  -15.7536 C   0  0  0  0  0  0  0  0  0  0  0  0
   27.2103  -19.2188  -14.7953 C   0  0  0  0  0  0  0  0  0  0  0  0
   28.0263  -19.9756  -13.7839 C   0  0  2  0  0  0  0  0  0  0  0  0
   29.0090  -20.8471  -14.3188 N   0  0  0  0  0  0  0  0  0  0  0  0
   27.0453  -20.6766  -12.8793 C   0  0  0  0  0  0  0  0  0  0  0  0
   26.6940  -21.8693  -13.1419 O   0  0  0  0  0  0  0  0  0  0  0  0
   26.4726  -20.0928  -11.7301 N   0  0  0  0  0  0  0  0  0  0  0  0
   25.3775  -20.7824  -10.9871 C   0  0  1  0  0  0  0  0  0  0  0  0
   25.4061  -20.2726   -9.5731 C   0  0  0  0  0  0  0  0  0  0  0  0
   26.6463  -20.3757   -8.8346 C   0  0  0  0  0  0  0  0  0  0  0  0
   27.6487  -21.2947   -9.0704 C   0  0  0  0  0  0  0  0  0  0  0  0
   28.8082  -21.3701   -8.3203 C   0  0  0  0  0  0  0  0  0  0  0  0
   28.9654  -20.4718   -7.2784 C   0  0  0  0  0  0  0  0  0  0  0  0
   27.9940  -19.5321   -7.0001 C   0  0  0  0  0  0  0  0  0  0  0  0
   26.8609  -19.4999   -7.7759 C   0  0  0  0  0  0  0  0  0  0  0  0
   24.1043  -20.5013  -11.6743 C   0  0  0  0  0  0  0  0  0  0  0  0
   23.9455  -19.3395  -12.2230 O   0  0  0  0  0  0  0  0  0  0  0  0
   23.0346  -21.4075  -11.7913 N   0  0  0  0  0  0  0  0  0  0  0  0
   21.8688  -21.0467  -12.6129 C   0  0  1  0  0  0  0  0  0  0  0  0
   22.1319  -21.4671  -14.0431 C   0  0  0  0  0  0  0  0  0  0  0  0
   22.2492  -22.8961  -14.2871 C   0  0  0  0  0  0  0  0  0  0  0  0
   21.2407  -23.8513  -14.0838 C   0  0  0  0  0  0  0  0  0  0  0  0
   21.7896  -25.0266  -14.3854 N   0  0  0  0  0  0  0  0  0  0  0  0
   23.0805  -24.8817  -14.7682 C   0  0  0  0  0  0  0  0  0  0  0  0
   24.0151  -25.8097  -15.1784 C   0  0  0  0  0  0  0  0  0  0  0  0
   25.2758  -25.3816  -15.5385 C   0  0  0  0  0  0  0  0  0  0  0  0
   25.6342  -24.0516  -15.5017 C   0  0  0  0  0  0  0  0  0  0  0  0
   24.6818  -23.1512  -15.0884 C   0  0  0  0  0  0  0  0  0  0  0  0
   23.3979  -23.5428  -14.7159 C   0  0  0  0  0  0  0  0  0  0  0  0
   20.6289  -21.6053  -12.0955 C   0  0  0  0  0  0  0  0  0  0  0  0
   20.6556  -22.4845  -11.1575 O   0  0  0  0  0  0  0  0  0  0  0  0
   19.3774  -21.2629  -12.5368 O   0  0  0  0  0  0  0  0  0  0  0  0
  2  4  1  0
  2  1  1  0
  3  2  2  0
  5  4  1  0
  6  5  1  0
  6  7  1  6
  8  6  1  0
  9  8  2  0
 10  8  1  0
 11 12  1  1
 11 10  1  0
 12 13  1  0
 13 18  1  0
 13 14  2  0
 14 15  1  0
 15 16  2  0
 17 16  1  0
 18 17  2  0
 19 11  1  0
 20 19  2  0
 21 19  1  0
 22 21  1  0
 22 23  1  6
 23 24  1  0
 24 32  1  0
 25 24  2  0
 25 26  1  0
 26 27  1  0
 27 28  1  0
 28 29  2  0
 30 29  1  0
 31 30  2  0
 32 27  2  0
 32 31  1  0
 33 35  1  0
 33 22  1  0
 34 33  2  0
M  END
$$$$
