QFW.pdb
     RDKit          3D

 35 37  0  0  1  0  0  0  0  0999 V2000
   29.7548  -19.7271  -18.5849 N   0  0  0  0  0  0  0  0  0  0  0  0
   28.5135  -20.1762  -19.1319 C   0  0  0  0  0  0  0  0  0  0  0  0
   28.4972  -21.1460  -19.9445 O   0  0  0  0  0  0  0  0  0  0  0  0
   27.2779  -19.5013  -18.7436 C   0  0  0  0  0  0  0  0  0  0  0  0
   26.5712  -20.1075  -17.5894 C   0  0  0  0  0  0  0  0  0  0  0  0
   27.3437  -21.1405  -16.8163 C   0  0  2  0  0  0  0  0  0  0  0  0
   27.5466  -22.3769  -17.4806 N   0  0  0  0  0  0  0  0  0  0  0  0
   26.6472  -21.2916  -15.4881 C   0  0  0  0  0  0  0  0  0  0  0  0
   25.7141  -22.1454  -15.3644 O   0  0  0  0  0  0  0  0  0  0  0  0
   26.9627  -20.5366  -14.3392 N   0  0  0  0  0  0  0  0  0  0  0  0
   26.2475  -20.7704  -13.0506 C   0  0  1  0  0  0  0  0  0  0  0  0
   27.1373  -20.2685  -11.9476 C   0  0  0  0  0  0  0  0  0  0  0  0
   26.6054  -20.2360  -10.6021 C   0  0  0  0  0  0  0  0  0  0  0  0
   26.0901  -19.1239   -9.9677 C   0  0  0  0  0  0  0  0  0  0  0  0
   25.6146  -19.1367   -8.6689 C   0  0  0  0  0  0  0  0  0  0  0  0
   25.6607  -20.3334   -7.9740 C   0  0  0  0  0  0  0  0  0  0  0  0
   26.1655  -21.4753   -8.5615 C   0  0  0  0  0  0  0  0  0  0  0  0
   26.6252  -21.4082   -9.8542 C   0  0  0  0  0  0  0  0  0  0  0  0
   24.9515  -20.0707  -13.1075 C   0  0  0  0  0  0  0  0  0  0  0  0
   24.7925  -19.1430  -13.9964 O   0  0  0  0  0  0  0  0  0  0  0  0
   23.8544  -20.3371  -12.2682 N   0  0  0  0  0  0  0  0  0  0  0  0
   22.4941  -20.3132  -12.8279 C   0  0  1  0  0  0  0  0  0  0  0  0
   22.5543  -20.7578  -14.2737 C   0  0  0  0  0  0  0  0  0  0  0  0
   22.4206  -19.7146  -15.2783 C   0  0  0  0  0  0  0  0  0  0  0  0
   21.9315  -18.4173  -15.0576 C   0  0  0  0  0  0  0  0  0  0  0  0
   21.9383  -17.8209  -16.2483 N   0  0  0  0  0  0  0  0  0  0  0  0
   22.4004  -18.6530  -17.2116 C   0  0  0  0  0  0  0  0  0  0  0  0
   22.5929  -18.4579  -18.5636 C   0  0  0  0  0  0  0  0  0  0  0  0
   23.1059  -19.4867  -19.3258 C   0  0  0  0  0  0  0  0  0  0  0  0
   23.4338  -20.7082  -18.7790 C   0  0  0  0  0  0  0  0  0  0  0  0
   23.2303  -20.8722  -17.4298 C   0  0  0  0  0  0  0  0  0  0  0  0
   22.7139  -19.8589  -16.6254 C   0  0  0  0  0  0  0  0  0  0  0  0
   21.5572  -21.1073  -12.0478 C   0  0  0  0  0  0  0  0  0  0  0  0
   20.4906  -20.5693  -11.5720 O   0  0  0  0  0  0  0  0  0  0  0  0
   21.7151  -22.4383  -11.7618 O   0  0  0  0  0  0  0  0  0  0  0  0
  2  4  1  0
  2  1  1  0
  3  2  2  0
  5  4  1  0
  6  5  1  0
  6  7  1  6
  8  6  1  0
  9  8  2  0
 10  8  1  0
 11 12  1  1
 11 10  1  0
 12 13  1  0
 13 18  1  0
 13 14  2  0
 14 15  1  0
 15 16  2  0
 17 16  1  0
 18 17  2  0
 19 11  1  0
 20 19  2  0
 21 19  1  0
 22 21  1  0
 22 23  1  6
 23 24  1  0
 24 32  1  0
 25 24  2  0
 25 26  1  0
 26 27  1  0
 27 28  1  0
 28 29  2  0
 30 29  1  0
 31 30  2  0
 32 27  2  0
 32 31  1  0
 33 35  1  0
 33 22  1  0
 34 33  2  0
M  END
$$$$
