QFW.pdb
     RDKit          3D

 35 37  0  0  1  0  0  0  0  0999 V2000
   26.7775  -25.8978  -16.0490 N   0  0  0  0  0  0  0  0  0  0  0  0
   27.3125  -24.8782  -16.8951 C   0  0  0  0  0  0  0  0  0  0  0  0
   27.8785  -25.1940  -17.9818 O   0  0  0  0  0  0  0  0  0  0  0  0
   27.1991  -23.4808  -16.4862 C   0  0  0  0  0  0  0  0  0  0  0  0
   26.6842  -23.2722  -15.1113 C   0  0  0  0  0  0  0  0  0  0  0  0
   26.6891  -21.8517  -14.6175 C   0  0  2  0  0  0  0  0  0  0  0  0
   27.8673  -21.1121  -14.8929 N   0  0  0  0  0  0  0  0  0  0  0  0
   26.3571  -21.9073  -13.1481 C   0  0  0  0  0  0  0  0  0  0  0  0
   25.4032  -22.6464  -12.7497 O   0  0  0  0  0  0  0  0  0  0  0  0
   27.0457  -21.1815  -12.1538 N   0  0  0  0  0  0  0  0  0  0  0  0
   26.5404  -21.1393  -10.7503 C   0  0  1  0  0  0  0  0  0  0  0  0
   27.6100  -20.5006   -9.9088 C   0  0  0  0  0  0  0  0  0  0  0  0
   27.2516  -20.0342   -8.5866 C   0  0  0  0  0  0  0  0  0  0  0  0
   27.8302  -18.9702   -7.9249 C   0  0  0  0  0  0  0  0  0  0  0  0
   27.4696  -18.5763   -6.6490 C   0  0  0  0  0  0  0  0  0  0  0  0
   26.4733  -19.2924   -6.0072 C   0  0  0  0  0  0  0  0  0  0  0  0
   25.8616  -20.3645   -6.6240 C   0  0  0  0  0  0  0  0  0  0  0  0
   26.2571  -20.7143   -7.8920 C   0  0  0  0  0  0  0  0  0  0  0  0
   25.2729  -20.3871  -10.7377 C   0  0  0  0  0  0  0  0  0  0  0  0
   25.3146  -19.1090  -10.9392 O   0  0  0  0  0  0  0  0  0  0  0  0
   24.0021  -20.9533  -10.5293 N   0  0  0  0  0  0  0  0  0  0  0  0
   22.8001  -20.1735  -10.8633 C   0  0  1  0  0  0  0  0  0  0  0  0
   22.9115  -19.6965  -12.2957 C   0  0  0  0  0  0  0  0  0  0  0  0
   21.7564  -18.9982  -12.8375 C   0  0  0  0  0  0  0  0  0  0  0  0
   20.7714  -18.3334  -12.0901 C   0  0  0  0  0  0  0  0  0  0  0  0
   19.8866  -17.8828  -12.9777 N   0  0  0  0  0  0  0  0  0  0  0  0
   20.2447  -18.2162  -14.2405 C   0  0  0  0  0  0  0  0  0  0  0  0
   19.6457  -17.9492  -15.4541 C   0  0  0  0  0  0  0  0  0  0  0  0
   20.2440  -18.3974  -16.6132 C   0  0  0  0  0  0  0  0  0  0  0  0
   21.4254  -19.1062  -16.5988 C   0  0  0  0  0  0  0  0  0  0  0  0
   21.9977  -19.3569  -15.3748 C   0  0  0  0  0  0  0  0  0  0  0  0
   21.4252  -18.9225  -14.1815 C   0  0  0  0  0  0  0  0  0  0  0  0
   21.5713  -20.9154  -10.6255 C   0  0  0  0  0  0  0  0  0  0  0  0
   21.5436  -22.1913  -10.7829 O   0  0  0  0  0  0  0  0  0  0  0  0
   20.3864  -20.3518  -10.2297 O   0  0  0  0  0  0  0  0  0  0  0  0
  2  4  1  0
  2  1  1  0
  3  2  2  0
  5  4  1  0
  6  5  1  0
  6  7  1  1
  8  6  1  0
  9  8  2  0
 10  8  1  0
 11 12  1  1
 11 10  1  0
 12 13  1  0
 13 18  1  0
 13 14  2  0
 14 15  1  0
 15 16  2  0
 17 16  1  0
 18 17  2  0
 19 11  1  0
 20 19  2  0
 21 19  1  0
 22 21  1  0
 22 23  1  6
 23 24  1  0
 24 32  1  0
 25 24  2  0
 25 26  1  0
 26 27  1  0
 27 28  1  0
 28 29  2  0
 30 29  1  0
 31 30  2  0
 32 27  2  0
 32 31  1  0
 33 35  1  0
 33 22  1  0
 34 33  2  0
M  END
$$$$
