CCN.pdb
     RDKit          3D

 21 20  0  0  1  0  0  0  0  0999 V2000
   22.7518  -10.9361  -18.7220 N   0  0  0  0  0  0  0  0  0  0  0  0
   23.0050   -9.6106  -18.1633 C   0  0  1  0  0  0  0  0  0  0  0  0
   22.9596   -8.5496  -19.2425 C   0  0  0  0  0  0  0  0  0  0  0  0
   24.3550   -8.7478  -20.3914 S   0  0  0  0  0  0  0  0  0  0  0  0
   21.9803   -9.2565  -17.1476 C   0  0  0  0  0  0  0  0  0  0  0  0
   20.7739   -9.5302  -17.3740 O   0  0  0  0  0  0  0  0  0  0  0  0
   22.2814   -8.6174  -15.9157 N   0  0  0  0  0  0  0  0  0  0  0  0
   21.3043   -8.3102  -14.9138 C   0  0  1  0  0  0  0  0  0  0  0  0
   21.6888   -8.7881  -13.5332 C   0  0  0  0  0  0  0  0  0  0  0  0
   20.4168   -8.2813  -12.3452 S   0  0  0  0  0  0  0  0  0  0  0  0
   20.9978   -6.8677  -14.9416 C   0  0  0  0  0  0  0  0  0  0  0  0
   21.9471   -6.0120  -14.9525 O   0  0  0  0  0  0  0  0  0  0  0  0
   20.7869   -2.0280  -16.6078 N   0  0  0  0  0  0  0  0  0  0  0  0
   19.7368   -2.9738  -16.5358 C   0  0  0  0  0  0  0  0  0  0  0  0
   18.5547   -2.5850  -16.6291 O   0  0  0  0  0  0  0  0  0  0  0  0
   20.0863   -4.4010  -16.3507 C   0  0  0  0  0  0  0  0  0  0  0  0
   19.4422   -4.9418  -15.0928 C   0  0  2  0  0  0  0  0  0  0  0  0
   19.6777   -6.3520  -14.9574 N   0  0  0  0  0  0  0  0  0  0  0  0
   17.9972   -4.6041  -15.0342 C   0  0  0  0  0  0  0  0  0  0  0  0
   17.0791   -5.4279  -15.2390 O   0  0  0  0  0  0  0  0  0  0  0  0
   17.6476   -3.2981  -14.7346 O   0  0  0  0  0  0  0  0  0  0  0  0
  2  1  1  6
  3  4  1  0
  3  2  1  0
  5  2  1  0
  5  6  2  0
  7  5  1  0
  8  7  1  0
  8 11  1  0
  8  9  1  1
 10  9  1  0
 11 18  1  0
 12 11  2  0
 13 14  1  0
 14 15  2  0
 16 14  1  0
 17 16  1  6
 17 19  1  0
 18 17  1  0
 19 20  2  0
 19 21  1  0
M  END
$$$$
