CCN.pdb
     RDKit          3D

 21 20  0  0  1  0  0  0  0  0999 V2000
   28.3328  -20.5527  -16.0426 N   0  0  0  0  0  0  0  0  0  0  0  0
   27.9663  -19.7775  -14.8602 C   0  0  1  0  0  0  0  0  0  0  0  0
   27.3980  -18.4295  -15.2502 C   0  0  0  0  0  0  0  0  0  0  0  0
   28.6781  -17.3978  -16.0271 S   0  0  0  0  0  0  0  0  0  0  0  0
   26.9311  -20.4827  -14.0612 C   0  0  0  0  0  0  0  0  0  0  0  0
   26.1212  -21.2463  -14.6465 O   0  0  0  0  0  0  0  0  0  0  0  0
   26.7954  -20.3471  -12.6542 N   0  0  0  0  0  0  0  0  0  0  0  0
   25.7361  -20.9384  -11.8919 C   0  0  1  0  0  0  0  0  0  0  0  0
   25.8942  -20.7548  -10.4007 C   0  0  0  0  0  0  0  0  0  0  0  0
   24.2762  -20.9168   -9.5996 S   0  0  0  0  0  0  0  0  0  0  0  0
   24.4345  -20.4466  -12.3813 C   0  0  0  0  0  0  0  0  0  0  0  0
   24.2250  -19.1905  -12.4900 O   0  0  0  0  0  0  0  0  0  0  0  0
   20.7112  -19.5080  -16.0705 N   0  0  0  0  0  0  0  0  0  0  0  0
   20.6798  -20.6669  -15.2591 C   0  0  0  0  0  0  0  0  0  0  0  0
   19.5848  -21.2118  -15.0114 O   0  0  0  0  0  0  0  0  0  0  0  0
   21.9602  -21.1917  -14.7313 C   0  0  0  0  0  0  0  0  0  0  0  0
   22.1496  -20.7667  -13.2914 C   0  0  2  0  0  0  0  0  0  0  0  0
   23.3672  -21.3029  -12.7508 N   0  0  0  0  0  0  0  0  0  0  0  0
   20.9660  -21.1114  -12.4633 C   0  0  0  0  0  0  0  0  0  0  0  0
   19.9882  -20.3509  -12.2928 O   0  0  0  0  0  0  0  0  0  0  0  0
   20.9458  -22.3495  -11.8436 O   0  0  0  0  0  0  0  0  0  0  0  0
  2  1  1  6
  3  4  1  0
  3  2  1  0
  5  2  1  0
  5  6  2  0
  7  5  1  0
  8  7  1  0
  8 11  1  0
  8  9  1  1
 10  9  1  0
 11 18  1  0
 12 11  2  0
 13 14  1  0
 14 15  2  0
 16 14  1  0
 17 16  1  6
 17 19  1  0
 18 17  1  0
 19 20  2  0
 19 21  1  0
M  END
$$$$
