CCN.pdb
     RDKit          3D

 21 20  0  0  1  0  0  0  0  0999 V2000
   14.9476  -14.1305  -12.3194 N   0  0  0  0  0  0  0  0  0  0  0  0
   14.7035  -12.7414  -12.6990 C   0  0  1  0  0  0  0  0  0  0  0  0
   13.2641  -12.3523  -12.4359 C   0  0  0  0  0  0  0  0  0  0  0  0
   12.1377  -13.3358  -13.4704 S   0  0  0  0  0  0  0  0  0  0  0  0
   15.5645  -11.8168  -11.9176 C   0  0  0  0  0  0  0  0  0  0  0  0
   15.8298  -12.0929  -10.7197 O   0  0  0  0  0  0  0  0  0  0  0  0
   16.1169  -10.6202  -12.4462 N   0  0  0  0  0  0  0  0  0  0  0  0
   16.9118   -9.7018  -11.6861 C   0  0  1  0  0  0  0  0  0  0  0  0
   18.0815   -9.1380  -12.4582 C   0  0  0  0  0  0  0  0  0  0  0  0
   18.9773   -7.9563  -11.4155 S   0  0  0  0  0  0  0  0  0  0  0  0
   16.0512   -8.6446  -11.1229 C   0  0  0  0  0  0  0  0  0  0  0  0
   15.1653   -8.0837  -11.8537 O   0  0  0  0  0  0  0  0  0  0  0  0
   12.8273   -6.2643   -7.3453 N   0  0  0  0  0  0  0  0  0  0  0  0
   14.2324   -6.0969   -7.3619 C   0  0  0  0  0  0  0  0  0  0  0  0
   14.7247   -5.0132   -6.9872 O   0  0  0  0  0  0  0  0  0  0  0  0
   15.0703   -7.2257   -7.8278 C   0  0  0  0  0  0  0  0  0  0  0  0
   15.3335   -7.1078   -9.3133 C   0  0  2  0  0  0  0  0  0  0  0  0
   16.1453   -8.1958   -9.7817 N   0  0  0  0  0  0  0  0  0  0  0  0
   15.9117   -5.7843   -9.6590 C   0  0  0  0  0  0  0  0  0  0  0  0
   17.1295   -5.5863   -9.8623 O   0  0  0  0  0  0  0  0  0  0  0  0
   15.0490   -4.7060   -9.7619 O   0  0  0  0  0  0  0  0  0  0  0  0
  2  1  1  1
  3  4  1  0
  3  2  1  0
  5  2  1  0
  5  6  2  0
  7  5  1  0
  8  7  1  0
  8 11  1  0
  8  9  1  6
 10  9  1  0
 11 18  1  0
 12 11  2  0
 13 14  1  0
 14 15  2  0
 16 14  1  0
 17 16  1  1
 17 19  1  0
 18 17  1  0
 19 20  2  0
 19 21  1  0
M  END
$$$$
