CCN.pdb
     RDKit          3D

 21 20  0  0  1  0  0  0  0  0999 V2000
   11.5493  -12.0392   -9.9031 N   0  0  0  0  0  0  0  0  0  0  0  0
   11.4458  -10.5947  -10.0924 C   0  0  1  0  0  0  0  0  0  0  0  0
   10.8611   -9.9275   -8.8654 C   0  0  0  0  0  0  0  0  0  0  0  0
    9.1332  -10.4391   -8.6230 S   0  0  0  0  0  0  0  0  0  0  0  0
   12.7823   -9.9921  -10.3325 C   0  0  0  0  0  0  0  0  0  0  0  0
   13.7429  -10.3175   -9.5890 O   0  0  0  0  0  0  0  0  0  0  0  0
   13.0490   -9.0556  -11.3662 N   0  0  0  0  0  0  0  0  0  0  0  0
   14.3609   -8.5896  -11.7047 C   0  0  1  0  0  0  0  0  0  0  0  0
   14.8371   -9.0655  -13.0571 C   0  0  0  0  0  0  0  0  0  0  0  0
   16.4200   -8.2743  -13.4503 S   0  0  0  0  0  0  0  0  0  0  0  0
   14.4173   -7.1213  -11.5764 C   0  0  0  0  0  0  0  0  0  0  0  0
   13.5763   -6.3914  -12.2038 O   0  0  0  0  0  0  0  0  0  0  0  0
   14.7253   -2.1900   -9.2054 N   0  0  0  0  0  0  0  0  0  0  0  0
   15.8573   -3.0197   -9.3867 C   0  0  0  0  0  0  0  0  0  0  0  0
   16.9777   -2.4981   -9.5594 O   0  0  0  0  0  0  0  0  0  0  0  0
   15.6648   -4.4879   -9.3640 C   0  0  0  0  0  0  0  0  0  0  0  0
   15.4369   -5.0106  -10.7656 C   0  0  2  0  0  0  0  0  0  0  0  0
   15.3733   -6.4453  -10.7776 N   0  0  0  0  0  0  0  0  0  0  0  0
   16.4518   -4.4841  -11.7133 C   0  0  0  0  0  0  0  0  0  0  0  0
   17.4899   -5.1010  -12.0379 O   0  0  0  0  0  0  0  0  0  0  0  0
   16.2338   -3.2350  -12.2698 O   0  0  0  0  0  0  0  0  0  0  0  0
  2  1  1  1
  3  4  1  0
  3  2  1  0
  5  2  1  0
  5  6  2  0
  7  5  1  0
  8  7  1  0
  8 11  1  0
  8  9  1  6
 10  9  1  0
 11 18  1  0
 12 11  2  0
 13 14  1  0
 14 15  2  0
 16 14  1  0
 17 16  1  1
 17 19  1  0
 18 17  1  0
 19 20  2  0
 19 21  1  0
M  END
$$$$
