CCN.pdb
     RDKit          3D

 21 20  0  0  1  0  0  0  0  0999 V2000
   14.4561  -13.5691  -12.0750 N   0  0  0  0  0  0  0  0  0  0  0  0
   13.9627  -12.1975  -11.9826 C   0  0  1  0  0  0  0  0  0  0  0  0
   12.8813  -12.0800  -10.9295 C   0  0  0  0  0  0  0  0  0  0  0  0
   11.3961  -12.9997  -11.4344 S   0  0  0  0  0  0  0  0  0  0  0  0
   15.0545  -11.2633  -11.6056 C   0  0  0  0  0  0  0  0  0  0  0  0
   15.9394  -11.6494  -10.7997 O   0  0  0  0  0  0  0  0  0  0  0  0
   15.1648   -9.9389  -12.1059 N   0  0  0  0  0  0  0  0  0  0  0  0
   16.2665   -9.0668  -11.8257 C   0  0  1  0  0  0  0  0  0  0  0  0
   17.2486   -8.9534  -12.9679 C   0  0  0  0  0  0  0  0  0  0  0  0
   18.2491  -10.4627  -13.0533 S   0  0  0  0  0  0  0  0  0  0  0  0
   15.7627   -7.7514  -11.3882 C   0  0  0  0  0  0  0  0  0  0  0  0
   14.8599   -7.1538  -12.0674 O   0  0  0  0  0  0  0  0  0  0  0  0
   15.2143   -7.5665   -6.7421 N   0  0  0  0  0  0  0  0  0  0  0  0
   14.7169   -6.6788   -7.7256 C   0  0  0  0  0  0  0  0  0  0  0  0
   13.5177   -6.7489   -8.0638 O   0  0  0  0  0  0  0  0  0  0  0  0
   15.6485   -5.6928   -8.3197 C   0  0  0  0  0  0  0  0  0  0  0  0
   15.6657   -5.8266   -9.8269 C   0  0  2  0  0  0  0  0  0  0  0  0
   16.2290   -7.0855  -10.2271 N   0  0  0  0  0  0  0  0  0  0  0  0
   16.3505   -4.6745  -10.4666 C   0  0  0  0  0  0  0  0  0  0  0  0
   15.9484   -3.4930  -10.3893 O   0  0  0  0  0  0  0  0  0  0  0  0
   17.5032   -4.9256  -11.1916 O   0  0  0  0  0  0  0  0  0  0  0  0
  2  1  1  1
  3  4  1  0
  3  2  1  0
  5  2  1  0
  5  6  2  0
  7  5  1  0
  8  7  1  0
  8 11  1  0
  8  9  1  6
 10  9  1  0
 11 18  1  0
 12 11  2  0
 13 14  1  0
 14 15  2  0
 16 14  1  0
 17 16  1  1
 17 19  1  0
 18 17  1  0
 19 20  2  0
 19 21  1  0
M  END
$$$$
