CCN.pdb
     RDKit          3D

 21 20  0  0  1  0  0  0  0  0999 V2000
   18.4016  -12.5454  -15.5564 N   0  0  0  0  0  0  0  0  0  0  0  0
   17.5819  -11.3521  -15.3632 C   0  0  1  0  0  0  0  0  0  0  0  0
   16.1225  -11.7183  -15.1942 C   0  0  0  0  0  0  0  0  0  0  0  0
   15.3820  -12.1468  -16.7987 S   0  0  0  0  0  0  0  0  0  0  0  0
   17.9989  -10.6112  -14.1449 C   0  0  0  0  0  0  0  0  0  0  0  0
   18.2456  -11.2537  -13.0923 O   0  0  0  0  0  0  0  0  0  0  0  0
   18.1392   -9.1991  -14.0921 N   0  0  0  0  0  0  0  0  0  0  0  0
   18.5261   -8.4769  -12.9167 C   0  0  1  0  0  0  0  0  0  0  0  0
   19.5056   -7.3603  -13.1929 C   0  0  0  0  0  0  0  0  0  0  0  0
   21.1969   -8.0054  -13.0941 S   0  0  0  0  0  0  0  0  0  0  0  0
   17.3247   -8.0038  -12.2038 C   0  0  0  0  0  0  0  0  0  0  0  0
   16.3929   -7.4089  -12.8451 O   0  0  0  0  0  0  0  0  0  0  0  0
   13.5443   -7.0821   -9.1016 N   0  0  0  0  0  0  0  0  0  0  0  0
   13.9706   -8.4063   -8.8423 C   0  0  0  0  0  0  0  0  0  0  0  0
   13.2433   -9.1629   -8.1672 O   0  0  0  0  0  0  0  0  0  0  0  0
   15.2755   -8.8453   -9.3879 C   0  0  0  0  0  0  0  0  0  0  0  0
   15.9179   -7.7273  -10.1799 C   0  0  2  0  0  0  0  0  0  0  0  0
   17.1298   -8.1710  -10.8099 N   0  0  0  0  0  0  0  0  0  0  0  0
   16.1286   -6.5196   -9.3417 C   0  0  0  0  0  0  0  0  0  0  0  0
   15.2012   -5.8522   -8.8337 O   0  0  0  0  0  0  0  0  0  0  0  0
   17.4308   -6.1095   -9.1099 O   0  0  0  0  0  0  0  0  0  0  0  0
  2  1  1  1
  3  4  1  0
  3  2  1  0
  5  2  1  0
  5  6  2  0
  7  5  1  0
  8  7  1  0
  8 11  1  0
  8  9  1  6
 10  9  1  0
 11 18  1  0
 12 11  2  0
 13 14  1  0
 14 15  2  0
 16 14  1  0
 17 16  1  1
 17 19  1  0
 18 17  1  0
 19 20  2  0
 19 21  1  0
M  END
$$$$
