CCN.pdb
     RDKit          3D

 21 20  0  0  1  0  0  0  0  0999 V2000
   19.2417  -14.0818  -15.5494 N   0  0  0  0  0  0  0  0  0  0  0  0
   19.6580  -13.0850  -16.5324 C   0  0  1  0  0  0  0  0  0  0  0  0
   18.4898  -12.6502  -17.3918 C   0  0  0  0  0  0  0  0  0  0  0  0
   17.7835  -14.0734  -18.2762 S   0  0  0  0  0  0  0  0  0  0  0  0
   20.1956  -11.8714  -15.8651 C   0  0  0  0  0  0  0  0  0  0  0  0
   19.5432  -11.3503  -14.9247 O   0  0  0  0  0  0  0  0  0  0  0  0
   21.4207  -11.2515  -16.2276 N   0  0  0  0  0  0  0  0  0  0  0  0
   21.9456  -10.0818  -15.5880 C   0  0  1  0  0  0  0  0  0  0  0  0
   23.4550  -10.0204  -15.5931 C   0  0  0  0  0  0  0  0  0  0  0  0
   24.1051  -11.0893  -14.2812 S   0  0  0  0  0  0  0  0  0  0  0  0
   21.3344   -8.8750  -16.1761 C   0  0  0  0  0  0  0  0  0  0  0  0
   21.1581   -8.7979  -17.4396 O   0  0  0  0  0  0  0  0  0  0  0  0
   17.1251   -4.9629  -16.1089 N   0  0  0  0  0  0  0  0  0  0  0  0
   18.2030   -5.5946  -16.7736 C   0  0  0  0  0  0  0  0  0  0  0  0
   18.6082   -5.1327  -17.8597 O   0  0  0  0  0  0  0  0  0  0  0  0
   18.8127   -6.7901  -16.1474 C   0  0  0  0  0  0  0  0  0  0  0  0
   20.3122   -6.6194  -16.0369 C   0  0  2  0  0  0  0  0  0  0  0  0
   20.9166   -7.7599  -15.4073 N   0  0  0  0  0  0  0  0  0  0  0  0
   20.6653   -5.3475  -15.3564 C   0  0  0  0  0  0  0  0  0  0  0  0
   20.7015   -4.2365  -15.9289 O   0  0  0  0  0  0  0  0  0  0  0  0
   20.9727   -5.3970  -14.0071 O   0  0  0  0  0  0  0  0  0  0  0  0
  2  1  1  1
  3  4  1  0
  3  2  1  0
  5  2  1  0
  5  6  2  0
  7  5  1  0
  8  7  1  0
  8 11  1  0
  8  9  1  6
 10  9  1  0
 11 18  1  0
 12 11  2  0
 13 14  1  0
 14 15  2  0
 16 14  1  0
 17 16  1  1
 17 19  1  0
 18 17  1  0
 19 20  2  0
 19 21  1  0
M  END
$$$$
