CCN.pdb
     RDKit          3D

 21 20  0  0  1  0  0  0  0  0999 V2000
   27.9010  -18.7107  -15.9798 N   0  0  0  0  0  0  0  0  0  0  0  0
   27.2196  -18.4146  -14.7223 C   0  0  1  0  0  0  0  0  0  0  0  0
   26.2520  -17.2619  -14.8882 C   0  0  0  0  0  0  0  0  0  0  0  0
   27.1535  -15.7034  -15.1422 S   0  0  0  0  0  0  0  0  0  0  0  0
   26.4385  -19.5871  -14.2510 C   0  0  0  0  0  0  0  0  0  0  0  0
   26.1489  -20.4981  -15.0683 O   0  0  0  0  0  0  0  0  0  0  0  0
   25.9902  -19.7478  -12.9132 N   0  0  0  0  0  0  0  0  0  0  0  0
   25.2952  -20.9063  -12.4359 C   0  0  1  0  0  0  0  0  0  0  0  0
   25.5513  -21.2017  -10.9766 C   0  0  0  0  0  0  0  0  0  0  0  0
   27.3317  -21.4121  -10.7087 S   0  0  0  0  0  0  0  0  0  0  0  0
   23.8567  -20.7850  -12.7384 C   0  0  0  0  0  0  0  0  0  0  0  0
   23.3117  -19.6307  -12.8036 O   0  0  0  0  0  0  0  0  0  0  0  0
   19.0204  -21.6449  -13.8923 N   0  0  0  0  0  0  0  0  0  0  0  0
   19.4958  -20.6739  -12.9793 C   0  0  0  0  0  0  0  0  0  0  0  0
   18.6997  -19.8391  -12.5032 O   0  0  0  0  0  0  0  0  0  0  0  0
   20.9329  -20.6874  -12.6220 C   0  0  0  0  0  0  0  0  0  0  0  0
   21.6710  -21.7181  -13.4482 C   0  0  2  0  0  0  0  0  0  0  0  0
   23.0124  -21.8999  -12.9686 N   0  0  0  0  0  0  0  0  0  0  0  0
   21.6305  -21.3847  -14.8948 C   0  0  0  0  0  0  0  0  0  0  0  0
   22.1638  -20.3689  -15.3920 O   0  0  0  0  0  0  0  0  0  0  0  0
   20.9617  -22.2520  -15.7422 O   0  0  0  0  0  0  0  0  0  0  0  0
  2  1  1  6
  3  4  1  0
  3  2  1  0
  5  2  1  0
  5  6  2  0
  7  5  1  0
  8  7  1  0
  8 11  1  0
  8  9  1  1
 10  9  1  0
 11 18  1  0
 12 11  2  0
 13 14  1  0
 14 15  2  0
 16 14  1  0
 17 16  1  1
 17 19  1  0
 18 17  1  0
 19 20  2  0
 19 21  1  0
M  END
$$$$
