CCN.pdb
     RDKit          3D

 21 20  0  0  1  0  0  0  0  0999 V2000
   18.0215  -11.9359  -18.1425 N   0  0  0  0  0  0  0  0  0  0  0  0
   19.2876  -11.5041  -17.5562 C   0  0  1  0  0  0  0  0  0  0  0  0
   20.2619  -11.0685  -18.6301 C   0  0  0  0  0  0  0  0  0  0  0  0
   21.1325  -12.5065  -19.3233 S   0  0  0  0  0  0  0  0  0  0  0  0
   19.0853  -10.3494  -16.6437 C   0  0  0  0  0  0  0  0  0  0  0  0
   18.5368   -9.3080  -17.0867 O   0  0  0  0  0  0  0  0  0  0  0  0
   19.4788  -10.3463  -15.2793 N   0  0  0  0  0  0  0  0  0  0  0  0
   19.2211   -9.2654  -14.3747 C   0  0  1  0  0  0  0  0  0  0  0  0
   18.9454   -9.7187  -12.9601 C   0  0  0  0  0  0  0  0  0  0  0  0
   18.8704   -8.2731  -11.8689 S   0  0  0  0  0  0  0  0  0  0  0  0
   20.3202   -8.2843  -14.4437 C   0  0  0  0  0  0  0  0  0  0  0  0
   21.5279   -8.6627  -14.2654 O   0  0  0  0  0  0  0  0  0  0  0  0
   23.3480   -4.3552  -14.9200 N   0  0  0  0  0  0  0  0  0  0  0  0
   22.4955   -4.3647  -16.0494 C   0  0  0  0  0  0  0  0  0  0  0  0
   22.7428   -3.6074  -17.0100 O   0  0  0  0  0  0  0  0  0  0  0  0
   21.3328   -5.2819  -16.0461 C   0  0  0  0  0  0  0  0  0  0  0  0
   21.2255   -5.9910  -14.7136 C   0  0  2  0  0  0  0  0  0  0  0  0
   20.1184   -6.9055  -14.7030 N   0  0  0  0  0  0  0  0  0  0  0  0
   21.1685   -5.0246  -13.5873 C   0  0  0  0  0  0  0  0  0  0  0  0
   20.1147   -4.7047  -12.9951 O   0  0  0  0  0  0  0  0  0  0  0  0
   22.3542   -4.4442  -13.1695 O   0  0  0  0  0  0  0  0  0  0  0  0
  2  1  1  6
  3  4  1  0
  3  2  1  0
  5  2  1  0
  5  6  2  0
  7  5  1  0
  8  7  1  0
  8 11  1  0
  8  9  1  1
 10  9  1  0
 11 18  1  0
 12 11  2  0
 13 14  1  0
 14 15  2  0
 16 14  1  0
 17 16  1  6
 17 19  1  0
 18 17  1  0
 19 20  2  0
 19 21  1  0
M  END
$$$$
