CCN.pdb
     RDKit          3D

 21 20  0  0  1  0  0  0  0  0999 V2000
   19.7319  -12.9940  -18.3459 N   0  0  0  0  0  0  0  0  0  0  0  0
   19.9372  -12.4813  -16.9937 C   0  0  1  0  0  0  0  0  0  0  0  0
   21.4123  -12.4015  -16.6622 C   0  0  0  0  0  0  0  0  0  0  0  0
   22.0820  -14.0587  -16.3284 S   0  0  0  0  0  0  0  0  0  0  0  0
   19.3744  -11.1138  -16.8517 C   0  0  0  0  0  0  0  0  0  0  0  0
   19.6057  -10.2608  -17.7464 O   0  0  0  0  0  0  0  0  0  0  0  0
   18.5779  -10.7010  -15.7509 N   0  0  0  0  0  0  0  0  0  0  0  0
   17.9156   -9.4329  -15.6734 C   0  0  1  0  0  0  0  0  0  0  0  0
   16.5595   -9.5028  -15.0112 C   0  0  0  0  0  0  0  0  0  0  0  0
   15.5184  -10.6938  -15.8966 S   0  0  0  0  0  0  0  0  0  0  0  0
   18.8024   -8.4454  -15.0298 C   0  0  0  0  0  0  0  0  0  0  0  0
   19.2954   -8.6849  -13.8752 O   0  0  0  0  0  0  0  0  0  0  0  0
   21.6860   -4.4615  -13.8938 N   0  0  0  0  0  0  0  0  0  0  0  0
   22.3026   -5.4177  -14.7352 C   0  0  0  0  0  0  0  0  0  0  0  0
   23.5385   -5.3793  -14.9034 O   0  0  0  0  0  0  0  0  0  0  0  0
   21.4481   -6.4356  -15.3886 C   0  0  0  0  0  0  0  0  0  0  0  0
   20.0105   -6.2810  -14.9424 C   0  0  2  0  0  0  0  0  0  0  0  0
   19.1547   -7.2092  -15.6269 N   0  0  0  0  0  0  0  0  0  0  0  0
   19.5460   -4.8775  -15.0834 C   0  0  0  0  0  0  0  0  0  0  0  0
   19.8200   -3.9668  -14.2716 O   0  0  0  0  0  0  0  0  0  0  0  0
   18.7627   -4.5602  -16.1803 O   0  0  0  0  0  0  0  0  0  0  0  0
  2  1  1  6
  3  4  1  0
  3  2  1  0
  5  2  1  0
  5  6  2  0
  7  5  1  0
  8  7  1  0
  8 11  1  0
  8  9  1  1
 10  9  1  0
 11 18  1  0
 12 11  2  0
 13 14  1  0
 14 15  2  0
 16 14  1  0
 17 16  1  6
 17 19  1  0
 18 17  1  0
 19 20  2  0
 19 21  1  0
M  END
$$$$
