CCN.pdb
     RDKit          3D

 21 20  0  0  1  0  0  0  0  0999 V2000
   13.7242  -11.2454  -10.3616 N   0  0  0  0  0  0  0  0  0  0  0  0
   15.1216  -10.8318  -10.2647 C   0  0  1  0  0  0  0  0  0  0  0  0
   15.9444  -11.4348  -11.3836 C   0  0  0  0  0  0  0  0  0  0  0  0
   16.2862  -13.1893  -11.0503 S   0  0  0  0  0  0  0  0  0  0  0  0
   15.2478   -9.3550  -10.3655 C   0  0  0  0  0  0  0  0  0  0  0  0
   14.5580   -8.7384  -11.2173 O   0  0  0  0  0  0  0  0  0  0  0  0
   16.1129   -8.5815   -9.5470 N   0  0  0  0  0  0  0  0  0  0  0  0
   16.2174   -7.1542   -9.6179 C   0  0  1  0  0  0  0  0  0  0  0  0
   15.8647   -6.4610   -8.3228 C   0  0  0  0  0  0  0  0  0  0  0  0
   14.0834   -6.6146   -8.0237 S   0  0  0  0  0  0  0  0  0  0  0  0
   17.5557   -6.7758  -10.1089 C   0  0  0  0  0  0  0  0  0  0  0  0
   18.6011   -7.2543   -9.5504 O   0  0  0  0  0  0  0  0  0  0  0  0
   21.5262   -5.4250  -12.8121 N   0  0  0  0  0  0  0  0  0  0  0  0
   21.0914   -6.7607  -12.6410 C   0  0  0  0  0  0  0  0  0  0  0  0
   21.8489   -7.6978  -12.9655 O   0  0  0  0  0  0  0  0  0  0  0  0
   19.7417   -6.9951  -12.0784 C   0  0  0  0  0  0  0  0  0  0  0  0
   19.0818   -5.6793  -11.7277 C   0  0  2  0  0  0  0  0  0  0  0  0
   17.7651   -5.8881  -11.1939 N   0  0  0  0  0  0  0  0  0  0  0  0
   19.0794   -4.7477  -12.8843 C   0  0  0  0  0  0  0  0  0  0  0  0
   18.1354   -4.6482  -13.6982 O   0  0  0  0  0  0  0  0  0  0  0  0
   20.1899   -3.9419  -13.0709 O   0  0  0  0  0  0  0  0  0  0  0  0
  2  1  1  6
  3  4  1  0
  3  2  1  0
  5  2  1  0
  5  6  2  0
  7  5  1  0
  8  7  1  0
  8 11  1  0
  8  9  1  1
 10  9  1  0
 11 18  1  0
 12 11  2  0
 13 14  1  0
 14 15  2  0
 16 14  1  0
 17 16  1  6
 17 19  1  0
 18 17  1  0
 19 20  2  0
 19 21  1  0
M  END
$$$$
