CCN.pdb
     RDKit          3D

 21 20  0  0  1  0  0  0  0  0999 V2000
   19.4008  -12.9385  -18.8256 N   0  0  0  0  0  0  0  0  0  0  0  0
   19.4732  -11.4843  -18.9422 C   0  0  1  0  0  0  0  0  0  0  0  0
   18.2172  -10.9282  -19.5789 C   0  0  0  0  0  0  0  0  0  0  0  0
   18.3313  -11.0084  -21.3918 S   0  0  0  0  0  0  0  0  0  0  0  0
   19.6138  -10.8496  -17.6064 C   0  0  0  0  0  0  0  0  0  0  0  0
   19.0769  -11.3965  -16.6093 O   0  0  0  0  0  0  0  0  0  0  0  0
   20.3281   -9.6435  -17.3795 N   0  0  0  0  0  0  0  0  0  0  0  0
   20.5967   -9.1050  -16.0792 C   0  0  1  0  0  0  0  0  0  0  0  0
   21.3732  -10.0458  -15.1880 C   0  0  0  0  0  0  0  0  0  0  0  0
   21.7852   -9.2027  -13.6370 S   0  0  0  0  0  0  0  0  0  0  0  0
   21.2510   -7.7895  -16.2093 C   0  0  0  0  0  0  0  0  0  0  0  0
   22.3164   -7.6709  -16.9054 O   0  0  0  0  0  0  0  0  0  0  0  0
   21.6108   -2.5043  -17.6363 N   0  0  0  0  0  0  0  0  0  0  0  0
   21.2220   -2.9913  -16.3658 C   0  0  0  0  0  0  0  0  0  0  0  0
   21.4760   -2.3166  -15.3472 O   0  0  0  0  0  0  0  0  0  0  0  0
   20.5224   -4.2947  -16.2953 C   0  0  0  0  0  0  0  0  0  0  0  0
   21.4481   -5.3602  -15.7499 C   0  0  2  0  0  0  0  0  0  0  0  0
   20.7602   -6.6111  -15.5935 N   0  0  0  0  0  0  0  0  0  0  0  0
   22.1047   -4.9177  -14.4935 C   0  0  0  0  0  0  0  0  0  0  0  0
   21.6843   -5.1988  -13.3499 O   0  0  0  0  0  0  0  0  0  0  0  0
   23.2511   -4.1479  -14.5965 O   0  0  0  0  0  0  0  0  0  0  0  0
  2  1  1  1
  3  4  1  0
  3  2  1  0
  5  2  1  0
  5  6  2  0
  7  5  1  0
  8  7  1  0
  8 11  1  0
  8  9  1  6
 10  9  1  0
 11 18  1  0
 12 11  2  0
 13 14  1  0
 14 15  2  0
 16 14  1  0
 17 16  1  1
 17 19  1  0
 18 17  1  0
 19 20  2  0
 19 21  1  0
M  END
$$$$
