CCN.pdb
     RDKit          3D

 21 20  0  0  1  0  0  0  0  0999 V2000
   27.3278  -21.8126  -14.6552 N   0  0  0  0  0  0  0  0  0  0  0  0
   26.4994  -21.9311  -13.4581 C   0  0  1  0  0  0  0  0  0  0  0  0
   27.2948  -21.5989  -12.2133 C   0  0  0  0  0  0  0  0  0  0  0  0
   26.1976  -21.4774  -10.7684 S   0  0  0  0  0  0  0  0  0  0  0  0
   25.3472  -20.9949  -13.5132 C   0  0  0  0  0  0  0  0  0  0  0  0
   25.5661  -19.7588  -13.5888 O   0  0  0  0  0  0  0  0  0  0  0  0
   23.9907  -21.4141  -13.4854 N   0  0  0  0  0  0  0  0  0  0  0  0
   22.8761  -20.5281  -13.6447 C   0  0  1  0  0  0  0  0  0  0  0  0
   22.9406  -19.7026  -14.9083 C   0  0  0  0  0  0  0  0  0  0  0  0
   21.4696  -18.6485  -15.0142 S   0  0  0  0  0  0  0  0  0  0  0  0
   21.6160  -21.2870  -13.5358 C   0  0  0  0  0  0  0  0  0  0  0  0
   21.4643  -22.3730  -14.1925 O   0  0  0  0  0  0  0  0  0  0  0  0
   17.2094  -23.2755  -12.2879 N   0  0  0  0  0  0  0  0  0  0  0  0
   17.4663  -22.3843  -11.2191 C   0  0  0  0  0  0  0  0  0  0  0  0
   16.7025  -22.3749  -10.2323 O   0  0  0  0  0  0  0  0  0  0  0  0
   18.6426  -21.4898  -11.3157 C   0  0  0  0  0  0  0  0  0  0  0  0
   19.3296  -21.6660  -12.6523 C   0  0  2  0  0  0  0  0  0  0  0  0
   20.5279  -20.8779  -12.7249 N   0  0  0  0  0  0  0  0  0  0  0  0
   18.4037  -21.3881  -13.7797 C   0  0  0  0  0  0  0  0  0  0  0  0
   18.1717  -20.2434  -14.2262 O   0  0  0  0  0  0  0  0  0  0  0  0
   17.7596  -22.4621  -14.3704 O   0  0  0  0  0  0  0  0  0  0  0  0
  2  1  1  6
  3  4  1  0
  3  2  1  0
  5  2  1  0
  5  6  2  0
  7  5  1  0
  8  7  1  0
  8 11  1  0
  8  9  1  6
 10  9  1  0
 11 18  1  0
 12 11  2  0
 13 14  1  0
 14 15  2  0
 16 14  1  0
 17 16  1  1
 17 19  1  0
 18 17  1  0
 19 20  2  0
 19 21  1  0
M  END
$$$$
