CCN.pdb
     RDKit          3D

 21 20  0  0  1  0  0  0  0  0999 V2000
   21.5030  -13.2372  -15.4850 N   0  0  0  0  0  0  0  0  0  0  0  0
   20.8012  -12.0323  -15.9198 C   0  0  1  0  0  0  0  0  0  0  0  0
   19.4542  -11.9137  -15.2386 C   0  0  0  0  0  0  0  0  0  0  0  0
   18.3983  -13.3325  -15.6608 S   0  0  0  0  0  0  0  0  0  0  0  0
   21.5792  -10.8123  -15.5833 C   0  0  0  0  0  0  0  0  0  0  0  0
   22.0987  -10.7131  -14.4423 O   0  0  0  0  0  0  0  0  0  0  0  0
   21.7773   -9.7321  -16.4835 N   0  0  0  0  0  0  0  0  0  0  0  0
   22.5742   -8.5790  -16.1867 C   0  0  1  0  0  0  0  0  0  0  0  0
   23.7067   -8.3638  -17.1631 C   0  0  0  0  0  0  0  0  0  0  0  0
   24.4445   -9.9635  -17.5908 S   0  0  0  0  0  0  0  0  0  0  0  0
   21.7076   -7.3917  -16.0642 C   0  0  0  0  0  0  0  0  0  0  0  0
   20.5907   -7.3481  -16.6841 O   0  0  0  0  0  0  0  0  0  0  0  0
   19.2070   -3.2868  -14.9006 N   0  0  0  0  0  0  0  0  0  0  0  0
   18.9070   -4.5135  -14.2621 C   0  0  0  0  0  0  0  0  0  0  0  0
   17.8674   -4.6102  -13.5787 O   0  0  0  0  0  0  0  0  0  0  0  0
   19.8481   -5.6443  -14.4322 C   0  0  0  0  0  0  0  0  0  0  0  0
   21.1136   -5.1773  -15.1180 C   0  0  2  0  0  0  0  0  0  0  0  0
   22.0430   -6.2601  -15.2794 N   0  0  0  0  0  0  0  0  0  0  0  0
   21.7169   -4.0176  -14.4133 C   0  0  0  0  0  0  0  0  0  0  0  0
   22.8157   -4.0575  -13.8178 O   0  0  0  0  0  0  0  0  0  0  0  0
   21.0195   -2.8214  -14.4169 O   0  0  0  0  0  0  0  0  0  0  0  0
  2  1  1  1
  3  4  1  0
  3  2  1  0
  5  2  1  0
  5  6  2  0
  7  5  1  0
  8  7  1  0
  8 11  1  0
  8  9  1  6
 10  9  1  0
 11 18  1  0
 12 11  2  0
 13 14  1  0
 14 15  2  0
 16 14  1  0
 17 16  1  1
 17 19  1  0
 18 17  1  0
 19 20  2  0
 19 21  1  0
M  END
$$$$
