QEA.pdb
     RDKit          3D

 24 23  0  0  1  0  0  0  0  0999 V2000
   14.8855  -11.1680  -12.9532 N   0  0  0  0  0  0  0  0  0  0  0  0
   14.3291  -10.8920  -14.2298 C   0  0  0  0  0  0  0  0  0  0  0  0
   13.1407  -10.5281  -14.3005 O   0  0  0  0  0  0  0  0  0  0  0  0
   15.1474  -11.0316  -15.4861 C   0  0  0  0  0  0  0  0  0  0  0  0
   16.5078  -11.4941  -15.1024 C   0  0  0  0  0  0  0  0  0  0  0  0
   17.4719  -11.7158  -16.2152 C   0  0  2  0  0  0  0  0  0  0  0  0
   17.7047  -13.1835  -16.2338 N   0  0  0  0  0  0  0  0  0  0  0  0
   18.7865  -11.0879  -16.0565 C   0  0  0  0  0  0  0  0  0  0  0  0
   19.8526  -11.7274  -16.2823 O   0  0  0  0  0  0  0  0  0  0  0  0
   18.9719   -9.7317  -15.6479 N   0  0  0  0  0  0  0  0  0  0  0  0
   20.2941   -9.1355  -15.6398 C   0  0  1  0  0  0  0  0  0  0  0  0
   20.9380   -9.3443  -17.0269 C   0  0  0  0  0  0  0  0  0  0  0  0
   22.3241   -8.7407  -16.9902 C   0  0  0  0  0  0  0  0  0  0  0  0
   22.9792   -8.8617  -18.3026 C   0  0  0  0  0  0  0  0  0  0  0  0
   23.2804   -9.9696  -18.8026 O   0  0  0  0  0  0  0  0  0  0  0  0
   20.3267   -7.7130  -15.2796 C   0  0  0  0  0  0  0  0  0  0  0  0
   19.6212   -6.9146  -15.9768 O   0  0  0  0  0  0  0  0  0  0  0  0
   23.2756   -7.7159  -19.0142 O   0  0  0  0  0  0  0  0  0  0  0  0
   21.5798   -5.5595  -12.4566 C   0  0  0  0  0  0  0  0  0  0  0  0
   21.0092   -5.7591  -13.8491 C   0  0  2  0  0  0  0  0  0  0  0  0
   21.0642   -7.1569  -14.2362 N   0  0  0  0  0  0  0  0  0  0  0  0
   21.7476   -4.8976  -14.7992 C   0  0  0  0  0  0  0  0  0  0  0  0
   21.6263   -3.5193  -14.8172 O   0  0  0  0  0  0  0  0  0  0  0  0
   22.5232   -5.4252  -15.6333 O   0  0  0  0  0  0  0  0  0  0  0  0
  1  2  1  0
  2  3  2  0
  4  5  1  0
  4  2  1  0
  6  5  1  0
  6  7  1  1
  8  6  1  0
  8 10  1  0
  9  8  2  0
 10 11  1  0
 11 16  1  0
 12 13  1  0
 11 12  1  6
 13 14  1  0
 14 18  1  0
 14 15  2  0
 16 17  2  0
 20 19  1  1
 20 22  1  0
 21 20  1  0
 21 16  1  0
 22 24  2  0
 22 23  1  0
M  END
$$$$
