QEA.pdb
     RDKit          3D

 24 23  0  0  1  0  0  0  0  0999 V2000
   15.7677  -11.5295  -13.6713 N   0  0  0  0  0  0  0  0  0  0  0  0
   15.5677  -12.4185  -14.7598 C   0  0  0  0  0  0  0  0  0  0  0  0
   14.5240  -13.0960  -14.7973 O   0  0  0  0  0  0  0  0  0  0  0  0
   16.5893  -12.5523  -15.8579 C   0  0  0  0  0  0  0  0  0  0  0  0
   17.6791  -11.5745  -15.5967 C   0  0  0  0  0  0  0  0  0  0  0  0
   18.8113  -11.5685  -16.5637 C   0  0  2  0  0  0  0  0  0  0  0  0
   19.5987  -12.7865  -16.2393 N   0  0  0  0  0  0  0  0  0  0  0  0
   19.7350  -10.4357  -16.4593 C   0  0  0  0  0  0  0  0  0  0  0  0
   20.7569  -10.4862  -15.7180 O   0  0  0  0  0  0  0  0  0  0  0  0
   19.5671   -9.2091  -17.1719 N   0  0  0  0  0  0  0  0  0  0  0  0
   20.5370   -8.1386  -17.0410 C   0  0  1  0  0  0  0  0  0  0  0  0
   20.5961   -7.3608  -18.3729 C   0  0  0  0  0  0  0  0  0  0  0  0
   21.7263   -6.3607  -18.2759 C   0  0  0  0  0  0  0  0  0  0  0  0
   21.8621   -5.6056  -19.5319 C   0  0  0  0  0  0  0  0  0  0  0  0
   22.6406   -4.6317  -19.6485 O   0  0  0  0  0  0  0  0  0  0  0  0
   20.2876   -7.2133  -15.9292 C   0  0  0  0  0  0  0  0  0  0  0  0
   19.0926   -6.8080  -15.7597 O   0  0  0  0  0  0  0  0  0  0  0  0
   21.1068   -5.9790  -20.6259 O   0  0  0  0  0  0  0  0  0  0  0  0
   22.0658   -5.8591  -12.9068 C   0  0  0  0  0  0  0  0  0  0  0  0
   20.9738   -5.8059  -13.9599 C   0  0  2  0  0  0  0  0  0  0  0  0
   21.2478   -6.7382  -15.0382 N   0  0  0  0  0  0  0  0  0  0  0  0
   20.8502   -4.4166  -14.4545 C   0  0  0  0  0  0  0  0  0  0  0  0
   21.0981   -4.0597  -15.7682 O   0  0  0  0  0  0  0  0  0  0  0  0
   20.5057   -3.5086  -13.6591 O   0  0  0  0  0  0  0  0  0  0  0  0
  1  2  1  0
  2  3  2  0
  4  5  1  0
  4  2  1  0
  6  5  1  0
  6  7  1  1
  8  6  1  0
  8 10  1  0
  9  8  2  0
 10 11  1  0
 11 16  1  0
 12 13  1  0
 11 12  1  6
 13 14  1  0
 14 18  1  0
 14 15  2  0
 16 17  2  0
 20 19  1  1
 20 22  1  0
 21 20  1  0
 21 16  1  0
 22 24  2  0
 22 23  1  0
M  END
$$$$
