QEA.pdb
     RDKit          3D

 24 23  0  0  1  0  0  0  0  0999 V2000
   21.9264  -13.2521  -21.3579 N   0  0  0  0  0  0  0  0  0  0  0  0
   20.5508  -13.3186  -21.0136 C   0  0  0  0  0  0  0  0  0  0  0  0
   19.7008  -13.2377  -21.9196 O   0  0  0  0  0  0  0  0  0  0  0  0
   20.1099  -13.4839  -19.5833 C   0  0  0  0  0  0  0  0  0  0  0  0
   19.3013  -12.2933  -19.2086 C   0  0  0  0  0  0  0  0  0  0  0  0
   20.0335  -11.0015  -19.0985 C   0  0  2  0  0  0  0  0  0  0  0  0
   20.9299  -11.1680  -17.9247 N   0  0  0  0  0  0  0  0  0  0  0  0
   19.2091   -9.8205  -18.8284 C   0  0  0  0  0  0  0  0  0  0  0  0
   18.2308   -9.5178  -19.5686 O   0  0  0  0  0  0  0  0  0  0  0  0
   19.4312   -8.9343  -17.7303 N   0  0  0  0  0  0  0  0  0  0  0  0
   18.6097   -7.7517  -17.5560 C   0  0  1  0  0  0  0  0  0  0  0  0
   18.2005   -7.6496  -16.0713 C   0  0  0  0  0  0  0  0  0  0  0  0
   17.0766   -8.6327  -15.8316 C   0  0  0  0  0  0  0  0  0  0  0  0
   16.6939   -8.6491  -14.4104 C   0  0  0  0  0  0  0  0  0  0  0  0
   16.4011   -9.7064  -13.8066 O   0  0  0  0  0  0  0  0  0  0  0  0
   19.2346   -6.4973  -17.9925 C   0  0  0  0  0  0  0  0  0  0  0  0
   20.4763   -6.3463  -17.7547 O   0  0  0  0  0  0  0  0  0  0  0  0
   16.6542   -7.4591  -13.7111 O   0  0  0  0  0  0  0  0  0  0  0  0
   18.3154   -3.3753  -19.9113 C   0  0  0  0  0  0  0  0  0  0  0  0
   19.2121   -4.1909  -18.9974 C   0  0  2  0  0  0  0  0  0  0  0  0
   18.5858   -5.4529  -18.6481 N   0  0  0  0  0  0  0  0  0  0  0  0
   19.5333   -3.3874  -17.7969 C   0  0  0  0  0  0  0  0  0  0  0  0
   19.2178   -3.7932  -16.5122 O   0  0  0  0  0  0  0  0  0  0  0  0
   20.1185   -2.2852  -17.9325 O   0  0  0  0  0  0  0  0  0  0  0  0
  1  2  1  0
  2  3  2  0
  4  5  1  0
  4  2  1  0
  6  5  1  0
  6  7  1  1
  8  6  1  0
  8 10  1  0
  9  8  2  0
 10 11  1  0
 11 16  1  0
 12 13  1  0
 11 12  1  1
 13 14  1  0
 14 18  1  0
 14 15  2  0
 16 17  2  0
 20 19  1  6
 20 22  1  0
 21 20  1  0
 21 16  1  0
 22 24  2  0
 22 23  1  0
M  END
$$$$
