QEA.pdb
     RDKit          3D

 24 23  0  0  1  0  0  0  0  0999 V2000
   18.2110  -12.9069  -15.9106 N   0  0  0  0  0  0  0  0  0  0  0  0
   16.8570  -13.2201  -16.2001 C   0  0  0  0  0  0  0  0  0  0  0  0
   16.4129  -14.3328  -15.8619 O   0  0  0  0  0  0  0  0  0  0  0  0
   15.9600  -12.2359  -16.9031 C   0  0  0  0  0  0  0  0  0  0  0  0
   16.7239  -10.9757  -17.1032 C   0  0  0  0  0  0  0  0  0  0  0  0
   16.8431  -10.0771  -15.9219 C   0  0  2  0  0  0  0  0  0  0  0  0
   15.4737   -9.5402  -15.7092 N   0  0  0  0  0  0  0  0  0  0  0  0
   17.7238   -8.9176  -16.0872 C   0  0  0  0  0  0  0  0  0  0  0  0
   18.9059   -9.0449  -16.5150 O   0  0  0  0  0  0  0  0  0  0  0  0
   17.3309   -7.5766  -15.7911 N   0  0  0  0  0  0  0  0  0  0  0  0
   18.2774   -6.4842  -15.9128 C   0  0  1  0  0  0  0  0  0  0  0  0
   17.4922   -5.1580  -15.9968 C   0  0  0  0  0  0  0  0  0  0  0  0
   18.4896   -4.0416  -16.2111 C   0  0  0  0  0  0  0  0  0  0  0  0
   17.8054   -2.7409  -16.2909 C   0  0  0  0  0  0  0  0  0  0  0  0
   17.3956   -2.2636  -17.3737 O   0  0  0  0  0  0  0  0  0  0  0  0
   19.2750   -6.4104  -14.8387 C   0  0  0  0  0  0  0  0  0  0  0  0
   18.8452   -6.3231  -13.6434 O   0  0  0  0  0  0  0  0  0  0  0  0
   17.6044   -2.0149  -15.1336 O   0  0  0  0  0  0  0  0  0  0  0  0
   22.8655   -7.2206  -14.3182 C   0  0  0  0  0  0  0  0  0  0  0  0
   21.6192   -6.4481  -13.9257 C   0  0  2  0  0  0  0  0  0  0  0  0
   20.6574   -6.4288  -15.0127 N   0  0  0  0  0  0  0  0  0  0  0  0
   22.0102   -5.0810  -13.5153 C   0  0  0  0  0  0  0  0  0  0  0  0
   22.5556   -4.7932  -12.2766 O   0  0  0  0  0  0  0  0  0  0  0  0
   21.8463   -4.1278  -14.3155 O   0  0  0  0  0  0  0  0  0  0  0  0
  1  2  1  0
  2  3  2  0
  4  5  1  0
  4  2  1  0
  6  5  1  0
  6  7  1  6
  8  6  1  0
  8 10  1  0
  9  8  2  0
 10 11  1  0
 11 16  1  0
 12 13  1  0
 11 12  1  1
 13 14  1  0
 14 18  1  0
 14 15  2  0
 16 17  2  0
 20 19  1  6
 20 22  1  0
 21 20  1  0
 21 16  1  0
 22 24  2  0
 22 23  1  0
M  END
$$$$
