QEA.pdb
     RDKit          3D

 24 23  0  0  1  0  0  0  0  0999 V2000
   19.9159  -15.7183  -14.4490 N   0  0  0  0  0  0  0  0  0  0  0  0
   20.7801  -16.7079  -14.9865 C   0  0  0  0  0  0  0  0  0  0  0  0
   20.6522  -17.8866  -14.6070 O   0  0  0  0  0  0  0  0  0  0  0  0
   21.8382  -16.3558  -15.9984 C   0  0  0  0  0  0  0  0  0  0  0  0
   21.6810  -14.9195  -16.3505 C   0  0  0  0  0  0  0  0  0  0  0  0
   20.5725  -14.5828  -17.2858 C   0  0  2  0  0  0  0  0  0  0  0  0
   21.0070  -15.1169  -18.6029 N   0  0  0  0  0  0  0  0  0  0  0  0
   20.3129  -13.1539  -17.4812 C   0  0  0  0  0  0  0  0  0  0  0  0
   20.8433  -12.5128  -18.4322 O   0  0  0  0  0  0  0  0  0  0  0  0
   19.4559  -12.3824  -16.6381 N   0  0  0  0  0  0  0  0  0  0  0  0
   19.2205  -10.9772  -16.9096 C   0  0  1  0  0  0  0  0  0  0  0  0
   17.7597  -10.6414  -16.5412 C   0  0  0  0  0  0  0  0  0  0  0  0
   17.4740   -9.2338  -17.0145 C   0  0  0  0  0  0  0  0  0  0  0  0
   16.1048   -8.8316  -16.6544 C   0  0  0  0  0  0  0  0  0  0  0  0
   15.6230   -7.7232  -16.9821 O   0  0  0  0  0  0  0  0  0  0  0  0
   20.1357  -10.0556  -16.2259 C   0  0  0  0  0  0  0  0  0  0  0  0
   20.4072  -10.2957  -15.0054 O   0  0  0  0  0  0  0  0  0  0  0  0
   15.3169   -9.7031  -15.9288 O   0  0  0  0  0  0  0  0  0  0  0  0
   22.1983   -6.9896  -17.0433 C   0  0  0  0  0  0  0  0  0  0  0  0
   21.7249   -8.1074  -16.1317 C   0  0  2  0  0  0  0  0  0  0  0  0
   20.7373   -8.9364  -16.7981 N   0  0  0  0  0  0  0  0  0  0  0  0
   21.1928   -7.5169  -14.8834 C   0  0  0  0  0  0  0  0  0  0  0  0
   21.9574   -7.3527  -13.7419 O   0  0  0  0  0  0  0  0  0  0  0  0
   19.9953   -7.1428  -14.8413 O   0  0  0  0  0  0  0  0  0  0  0  0
  1  2  1  0
  2  3  2  0
  4  5  1  0
  4  2  1  0
  6  5  1  0
  6  7  1  6
  8  6  1  0
  8 10  1  0
  9  8  2  0
 10 11  1  0
 11 16  1  0
 12 13  1  0
 11 12  1  1
 13 14  1  0
 14 18  1  0
 14 15  2  0
 16 17  2  0
 20 19  1  6
 20 22  1  0
 21 20  1  0
 21 16  1  0
 22 24  2  0
 22 23  1  0
M  END
$$$$
