QEA.pdb
     RDKit          3D

 24 23  0  0  1  0  0  0  0  0999 V2000
   15.3581  -12.7674  -14.0828 N   0  0  0  0  0  0  0  0  0  0  0  0
   16.1300  -13.1897  -15.1967 C   0  0  0  0  0  0  0  0  0  0  0  0
   16.0791  -14.3841  -15.5440 O   0  0  0  0  0  0  0  0  0  0  0  0
   17.0004  -12.2236  -15.9562 C   0  0  0  0  0  0  0  0  0  0  0  0
   16.9822  -10.9218  -15.2373 C   0  0  0  0  0  0  0  0  0  0  0  0
   17.1953   -9.7031  -16.0657 C   0  0  2  0  0  0  0  0  0  0  0  0
   18.3939  -10.0054  -16.8907 N   0  0  0  0  0  0  0  0  0  0  0  0
   17.4973   -8.4735  -15.3278 C   0  0  0  0  0  0  0  0  0  0  0  0
   16.7760   -8.0910  -14.3634 O   0  0  0  0  0  0  0  0  0  0  0  0
   18.6075   -7.6249  -15.6241 N   0  0  0  0  0  0  0  0  0  0  0  0
   18.8392   -6.4151  -14.8582 C   0  0  1  0  0  0  0  0  0  0  0  0
   20.3546   -6.2778  -14.5992 C   0  0  0  0  0  0  0  0  0  0  0  0
   20.5645   -5.0799  -13.7003 C   0  0  0  0  0  0  0  0  0  0  0  0
   21.9846   -4.9435  -13.3384 C   0  0  0  0  0  0  0  0  0  0  0  0
   22.5276   -3.8292  -13.1604 O   0  0  0  0  0  0  0  0  0  0  0  0
   18.3212   -5.1873  -15.4736 C   0  0  0  0  0  0  0  0  0  0  0  0
   18.6678   -4.9409  -16.6737 O   0  0  0  0  0  0  0  0  0  0  0  0
   22.7524   -6.0813  -13.1881 O   0  0  0  0  0  0  0  0  0  0  0  0
   15.6917   -2.5949  -14.7870 C   0  0  0  0  0  0  0  0  0  0  0  0
   16.9270   -3.0934  -15.5149 C   0  0  2  0  0  0  0  0  0  0  0  0
   17.4788   -4.2640  -14.8575 N   0  0  0  0  0  0  0  0  0  0  0  0
   17.9140   -1.9937  -15.5956 C   0  0  0  0  0  0  0  0  0  0  0  0
   17.7906   -0.9337  -16.4763 O   0  0  0  0  0  0  0  0  0  0  0  0
   18.9145   -2.0079  -14.8376 O   0  0  0  0  0  0  0  0  0  0  0  0
  1  2  1  0
  2  3  2  0
  4  5  1  0
  4  2  1  0
  6  5  1  0
  6  7  1  6
  8  6  1  0
  8 10  1  0
  9  8  2  0
 10 11  1  0
 11 16  1  0
 12 13  1  0
 11 12  1  6
 13 14  1  0
 14 18  1  0
 14 15  2  0
 16 17  2  0
 20 19  1  1
 20 22  1  0
 21 20  1  0
 21 16  1  0
 22 24  2  0
 22 23  1  0
M  END
$$$$
