QEA.pdb
     RDKit          3D

 24 23  0  0  1  0  0  0  0  0999 V2000
   17.7812  -13.4290  -14.1578 N   0  0  0  0  0  0  0  0  0  0  0  0
   16.4215  -13.4316  -14.5660 C   0  0  0  0  0  0  0  0  0  0  0  0
   15.6224  -14.1899  -13.9862 O   0  0  0  0  0  0  0  0  0  0  0  0
   15.9375  -12.5396  -15.6785 C   0  0  0  0  0  0  0  0  0  0  0  0
   17.0482  -11.6244  -16.0533 C   0  0  0  0  0  0  0  0  0  0  0  0
   16.7301  -10.5705  -17.0558 C   0  0  2  0  0  0  0  0  0  0  0  0
   16.8500  -11.2467  -18.3738 N   0  0  0  0  0  0  0  0  0  0  0  0
   17.6437   -9.4252  -17.0909 C   0  0  0  0  0  0  0  0  0  0  0  0
   18.6842   -9.4354  -17.8078 O   0  0  0  0  0  0  0  0  0  0  0  0
   17.4401   -8.2269  -16.3407 N   0  0  0  0  0  0  0  0  0  0  0  0
   18.3587   -7.1112  -16.4647 C   0  0  1  0  0  0  0  0  0  0  0  0
   17.5513   -5.7974  -16.3976 C   0  0  0  0  0  0  0  0  0  0  0  0
   18.5260   -4.6476  -16.5191 C   0  0  0  0  0  0  0  0  0  0  0  0
   17.8244   -3.3578  -16.4162 C   0  0  0  0  0  0  0  0  0  0  0  0
   16.5862   -3.2792  -16.2466 O   0  0  0  0  0  0  0  0  0  0  0  0
   19.4387   -7.0886  -15.4710 C   0  0  0  0  0  0  0  0  0  0  0  0
   19.1110   -7.1960  -14.2453 O   0  0  0  0  0  0  0  0  0  0  0  0
   18.5517   -2.1876  -16.5092 O   0  0  0  0  0  0  0  0  0  0  0  0
   23.2089   -7.1842  -15.4065 C   0  0  0  0  0  0  0  0  0  0  0  0
   21.8490   -7.0160  -14.7533 C   0  0  2  0  0  0  0  0  0  0  0  0
   20.7974   -6.9605  -15.7523 N   0  0  0  0  0  0  0  0  0  0  0  0
   21.8681   -5.8005  -13.9093 C   0  0  0  0  0  0  0  0  0  0  0  0
   22.3365   -5.7946  -12.6073 O   0  0  0  0  0  0  0  0  0  0  0  0
   21.4437   -4.7172  -14.3807 O   0  0  0  0  0  0  0  0  0  0  0  0
  1  2  1  0
  2  3  2  0
  4  5  1  0
  4  2  1  0
  6  5  1  0
  6  7  1  6
  8  6  1  0
  8 10  1  0
  9  8  2  0
 10 11  1  0
 11 16  1  0
 12 13  1  0
 11 12  1  1
 13 14  1  0
 14 18  1  0
 14 15  2  0
 16 17  2  0
 20 19  1  6
 20 22  1  0
 21 20  1  0
 21 16  1  0
 22 24  2  0
 22 23  1  0
M  END
$$$$
