QEA.pdb
     RDKit          3D

 24 23  0  0  1  0  0  0  0  0999 V2000
   20.8941  -13.5314  -18.8924 N   0  0  0  0  0  0  0  0  0  0  0  0
   21.9416  -13.6452  -17.9412 C   0  0  0  0  0  0  0  0  0  0  0  0
   22.5727  -14.7158  -17.8687 O   0  0  0  0  0  0  0  0  0  0  0  0
   22.2964  -12.5014  -17.0282 C   0  0  0  0  0  0  0  0  0  0  0  0
   21.4240  -11.3474  -17.3729 C   0  0  0  0  0  0  0  0  0  0  0  0
   20.7591  -10.6548  -16.2349 C   0  0  2  0  0  0  0  0  0  0  0  0
   19.6098  -11.5258  -15.8751 N   0  0  0  0  0  0  0  0  0  0  0  0
   20.2024   -9.3316  -16.5292 C   0  0  0  0  0  0  0  0  0  0  0  0
   19.7510   -9.0476  -17.6747 O   0  0  0  0  0  0  0  0  0  0  0  0
   20.1194   -8.2764  -15.5699 N   0  0  0  0  0  0  0  0  0  0  0  0
   19.6322   -6.9649  -15.9528 C   0  0  1  0  0  0  0  0  0  0  0  0
   18.3557   -6.6567  -15.1418 C   0  0  0  0  0  0  0  0  0  0  0  0
   17.2146   -7.4324  -15.7609 C   0  0  0  0  0  0  0  0  0  0  0  0
   15.9550   -7.1618  -15.0492 C   0  0  0  0  0  0  0  0  0  0  0  0
   15.8402   -7.3045  -13.8104 O   0  0  0  0  0  0  0  0  0  0  0  0
   20.6036   -5.8761  -15.7941 C   0  0  0  0  0  0  0  0  0  0  0  0
   21.3387   -5.8920  -14.7547 O   0  0  0  0  0  0  0  0  0  0  0  0
   14.8555   -6.7346  -15.7672 O   0  0  0  0  0  0  0  0  0  0  0  0
   21.8485   -2.8698  -17.7155 C   0  0  0  0  0  0  0  0  0  0  0  0
   21.7088   -3.7174  -16.4639 C   0  0  2  0  0  0  0  0  0  0  0  0
   20.7938   -4.8221  -16.6856 N   0  0  0  0  0  0  0  0  0  0  0  0
   21.2660   -2.8547  -15.3460 C   0  0  0  0  0  0  0  0  0  0  0  0
   22.0777   -1.8945  -14.7682 O   0  0  0  0  0  0  0  0  0  0  0  0
   20.1043   -2.9871  -14.8893 O   0  0  0  0  0  0  0  0  0  0  0  0
  1  2  1  0
  2  3  2  0
  4  5  1  0
  4  2  1  0
  6  5  1  0
  6  7  1  6
  8  6  1  0
  8 10  1  0
  9  8  2  0
 10 11  1  0
 11 16  1  0
 12 13  1  0
 11 12  1  1
 13 14  1  0
 14 18  1  0
 14 15  2  0
 16 17  2  0
 20 19  1  6
 20 22  1  0
 21 20  1  0
 21 16  1  0
 22 24  2  0
 22 23  1  0
M  END
$$$$
