QEA.pdb
     RDKit          3D

 24 23  0  0  1  0  0  0  0  0999 V2000
   15.2127   -5.5274   -7.9001 N   0  0  0  0  0  0  0  0  0  0  0  0
   13.9741   -6.1076   -8.2802 C   0  0  0  0  0  0  0  0  0  0  0  0
   12.9232   -5.6523   -7.7922 O   0  0  0  0  0  0  0  0  0  0  0  0
   13.9141   -7.2537   -9.2550 C   0  0  0  0  0  0  0  0  0  0  0  0
   15.3077   -7.6252   -9.6178 C   0  0  0  0  0  0  0  0  0  0  0  0
   15.4644   -8.6750  -10.6619 C   0  0  2  0  0  0  0  0  0  0  0  0
   15.4692   -9.9602   -9.9154 N   0  0  0  0  0  0  0  0  0  0  0  0
   16.7132   -8.6338  -11.4275 C   0  0  0  0  0  0  0  0  0  0  0  0
   17.7916   -9.0898  -10.9524 O   0  0  0  0  0  0  0  0  0  0  0  0
   16.8163   -8.0926  -12.7454 N   0  0  0  0  0  0  0  0  0  0  0  0
   18.0821   -8.1052  -13.4536 C   0  0  1  0  0  0  0  0  0  0  0  0
   17.8135   -8.4291  -14.9386 C   0  0  0  0  0  0  0  0  0  0  0  0
   17.6999   -9.9312  -15.0722 C   0  0  0  0  0  0  0  0  0  0  0  0
   17.4088  -10.3091  -16.4645 C   0  0  0  0  0  0  0  0  0  0  0  0
   18.2011  -10.0701  -17.4044 O   0  0  0  0  0  0  0  0  0  0  0  0
   18.8629   -6.8672  -13.3425 C   0  0  0  0  0  0  0  0  0  0  0  0
   18.2210   -5.7677  -13.3274 O   0  0  0  0  0  0  0  0  0  0  0  0
   16.2205  -10.9510  -16.7526 O   0  0  0  0  0  0  0  0  0  0  0  0
   22.4829   -5.8166  -13.0088 C   0  0  0  0  0  0  0  0  0  0  0  0
   20.9972   -5.5469  -13.1657 C   0  0  2  0  0  0  0  0  0  0  0  0
   20.2511   -6.7891  -13.2505 N   0  0  0  0  0  0  0  0  0  0  0  0
   20.7861   -4.6979  -14.3593 C   0  0  0  0  0  0  0  0  0  0  0  0
   20.7592   -3.3155  -14.3054 O   0  0  0  0  0  0  0  0  0  0  0  0
   20.6224   -5.2406  -15.4793 O   0  0  0  0  0  0  0  0  0  0  0  0
  1  2  1  0
  2  3  2  0
  4  5  1  0
  4  2  1  0
  6  5  1  0
  6  7  1  1
  8  6  1  0
  8 10  1  0
  9  8  2  0
 10 11  1  0
 11 16  1  0
 12 13  1  0
 11 12  1  6
 13 14  1  0
 14 18  1  0
 14 15  2  0
 16 17  2  0
 20 19  1  6
 20 22  1  0
 21 20  1  0
 21 16  1  0
 22 24  2  0
 22 23  1  0
M  END
$$$$
