QEA.pdb
     RDKit          3D

 24 23  0  0  1  0  0  0  0  0999 V2000
   18.6894  -14.4439  -15.0195 N   0  0  0  0  0  0  0  0  0  0  0  0
   17.3949  -14.0711  -15.4671 C   0  0  0  0  0  0  0  0  0  0  0  0
   16.4671  -14.8960  -15.3741 O   0  0  0  0  0  0  0  0  0  0  0  0
   17.1308  -12.7065  -16.0466 C   0  0  0  0  0  0  0  0  0  0  0  0
   18.3873  -11.9159  -15.9580 C   0  0  0  0  0  0  0  0  0  0  0  0
   18.3402  -10.5313  -16.5036 C   0  0  2  0  0  0  0  0  0  0  0  0
   18.4707  -10.6947  -17.9750 N   0  0  0  0  0  0  0  0  0  0  0  0
   19.4274   -9.6422  -16.0855 C   0  0  0  0  0  0  0  0  0  0  0  0
   19.5098   -9.2167  -14.8986 O   0  0  0  0  0  0  0  0  0  0  0  0
   20.4646   -9.1947  -16.9598 N   0  0  0  0  0  0  0  0  0  0  0  0
   21.5680   -8.4009  -16.4535 C   0  0  1  0  0  0  0  0  0  0  0  0
   22.6727   -8.3481  -17.5302 C   0  0  0  0  0  0  0  0  0  0  0  0
   23.8528   -7.6034  -16.9473 C   0  0  0  0  0  0  0  0  0  0  0  0
   24.9770   -7.5850  -17.8971 C   0  0  0  0  0  0  0  0  0  0  0  0
   25.7217   -6.5879  -18.0362 O   0  0  0  0  0  0  0  0  0  0  0  0
   21.2079   -7.0407  -16.0356 C   0  0  0  0  0  0  0  0  0  0  0  0
   20.5250   -6.3382  -16.8487 O   0  0  0  0  0  0  0  0  0  0  0  0
   25.2258   -8.7047  -18.6661 O   0  0  0  0  0  0  0  0  0  0  0  0
   20.6015   -5.0503  -13.0510 C   0  0  0  0  0  0  0  0  0  0  0  0
   21.1982   -5.0904  -14.4462 C   0  0  2  0  0  0  0  0  0  0  0  0
   21.5485   -6.4482  -14.8213 N   0  0  0  0  0  0  0  0  0  0  0  0
   22.3707   -4.1887  -14.4938 C   0  0  0  0  0  0  0  0  0  0  0  0
   22.2594   -2.8120  -14.5782 O   0  0  0  0  0  0  0  0  0  0  0  0
   23.5258   -4.6787  -14.4568 O   0  0  0  0  0  0  0  0  0  0  0  0
  1  2  1  0
  2  3  2  0
  4  5  1  0
  4  2  1  0
  6  5  1  0
  6  7  1  6
  8  6  1  0
  8 10  1  0
  9  8  2  0
 10 11  1  0
 11 16  1  0
 12 13  1  0
 11 12  1  6
 13 14  1  0
 14 18  1  0
 14 15  2  0
 16 17  2  0
 20 19  1  1
 20 22  1  0
 21 20  1  0
 21 16  1  0
 22 24  2  0
 22 23  1  0
M  END
$$$$
