QEA.pdb
     RDKit          3D

 24 23  0  0  1  0  0  0  0  0999 V2000
   15.9153  -14.5072  -14.0642 N   0  0  0  0  0  0  0  0  0  0  0  0
   14.8471  -13.8717  -14.7499 C   0  0  0  0  0  0  0  0  0  0  0  0
   13.8720  -14.5573  -15.1087 O   0  0  0  0  0  0  0  0  0  0  0  0
   14.8766  -12.3956  -15.0463 C   0  0  0  0  0  0  0  0  0  0  0  0
   16.1365  -11.8371  -14.4872 C   0  0  0  0  0  0  0  0  0  0  0  0
   16.3871  -10.3900  -14.7318 C   0  0  2  0  0  0  0  0  0  0  0  0
   16.5544  -10.2735  -16.2040 N   0  0  0  0  0  0  0  0  0  0  0  0
   17.6054   -9.8416  -14.1298 C   0  0  0  0  0  0  0  0  0  0  0  0
   17.8073   -9.8996  -12.8839 O   0  0  0  0  0  0  0  0  0  0  0  0
   18.6461   -9.2141  -14.8807 N   0  0  0  0  0  0  0  0  0  0  0  0
   19.8492   -8.7393  -14.2241 C   0  0  1  0  0  0  0  0  0  0  0  0
   21.0244   -8.8317  -15.2204 C   0  0  0  0  0  0  0  0  0  0  0  0
   21.4133  -10.2878  -15.3447 C   0  0  0  0  0  0  0  0  0  0  0  0
   22.5339  -10.4485  -16.2853 C   0  0  0  0  0  0  0  0  0  0  0  0
   22.5245   -9.9461  -17.4323 O   0  0  0  0  0  0  0  0  0  0  0  0
   19.7581   -7.3794  -13.6790 C   0  0  0  0  0  0  0  0  0  0  0  0
   19.2920   -6.4718  -14.4406 O   0  0  0  0  0  0  0  0  0  0  0  0
   23.6393  -11.1787  -15.8956 O   0  0  0  0  0  0  0  0  0  0  0  0
   20.1452   -5.5487  -10.4206 C   0  0  0  0  0  0  0  0  0  0  0  0
   20.1898   -5.6168  -11.9364 C   0  0  2  0  0  0  0  0  0  0  0  0
   20.1376   -6.9929  -12.3952 N   0  0  0  0  0  0  0  0  0  0  0  0
   21.4085   -4.9257  -12.4131 C   0  0  0  0  0  0  0  0  0  0  0  0
   21.5406   -3.5483  -12.4176 O   0  0  0  0  0  0  0  0  0  0  0  0
   22.3757   -5.6052  -12.8358 O   0  0  0  0  0  0  0  0  0  0  0  0
  1  2  1  0
  2  3  2  0
  4  5  1  0
  4  2  1  0
  6  5  1  0
  6  7  1  6
  8  6  1  0
  8 10  1  0
  9  8  2  0
 10 11  1  0
 11 16  1  0
 12 13  1  0
 11 12  1  6
 13 14  1  0
 14 18  1  0
 14 15  2  0
 16 17  2  0
 20 19  1  1
 20 22  1  0
 21 20  1  0
 21 16  1  0
 22 24  2  0
 22 23  1  0
M  END
$$$$
