QEA.pdb
     RDKit          3D

 24 23  0  0  1  0  0  0  0  0999 V2000
   14.8868  -11.9306  -19.1383 N   0  0  0  0  0  0  0  0  0  0  0  0
   16.0411  -12.6591  -19.5283 C   0  0  0  0  0  0  0  0  0  0  0  0
   15.9155  -13.5902  -20.3451 O   0  0  0  0  0  0  0  0  0  0  0  0
   17.4007  -12.3251  -18.9740 C   0  0  0  0  0  0  0  0  0  0  0  0
   17.2298  -11.2812  -17.9287 C   0  0  0  0  0  0  0  0  0  0  0  0
   17.8697   -9.9635  -18.1957 C   0  0  2  0  0  0  0  0  0  0  0  0
   18.5807  -10.1379  -19.4891 N   0  0  0  0  0  0  0  0  0  0  0  0
   18.8766   -9.5329  -17.2219 C   0  0  0  0  0  0  0  0  0  0  0  0
   18.6191   -9.4873  -15.9857 O   0  0  0  0  0  0  0  0  0  0  0  0
   20.2040   -9.1418  -17.5762 N   0  0  0  0  0  0  0  0  0  0  0  0
   21.1649   -8.7745  -16.5536 C   0  0  1  0  0  0  0  0  0  0  0  0
   22.4341   -9.6333  -16.7380 C   0  0  0  0  0  0  0  0  0  0  0  0
   23.3927   -9.2896  -15.6200 C   0  0  0  0  0  0  0  0  0  0  0  0
   24.5882  -10.1463  -15.6780 C   0  0  0  0  0  0  0  0  0  0  0  0
   24.7542  -11.0069  -16.5724 O   0  0  0  0  0  0  0  0  0  0  0  0
   21.5212   -7.3508  -16.5254 C   0  0  0  0  0  0  0  0  0  0  0  0
   22.2022   -6.8967  -17.5006 O   0  0  0  0  0  0  0  0  0  0  0  0
   25.5666  -10.0013  -14.7144 O   0  0  0  0  0  0  0  0  0  0  0  0
   20.3283   -4.1703  -15.2462 C   0  0  0  0  0  0  0  0  0  0  0  0
   21.5390   -5.0426  -15.5247 C   0  0  2  0  0  0  0  0  0  0  0  0
   21.1770   -6.4482  -15.5212 N   0  0  0  0  0  0  0  0  0  0  0  0
   22.5873   -4.7439  -14.5236 C   0  0  0  0  0  0  0  0  0  0  0  0
   23.3332   -3.5785  -14.5386 O   0  0  0  0  0  0  0  0  0  0  0  0
   22.8231   -5.5749  -13.6129 O   0  0  0  0  0  0  0  0  0  0  0  0
  1  2  1  0
  2  3  2  0
  4  5  1  0
  4  2  1  0
  6  5  1  0
  6  7  1  6
  8  6  1  0
  8 10  1  0
  9  8  2  0
 10 11  1  0
 11 16  1  0
 12 13  1  0
 11 12  1  6
 13 14  1  0
 14 18  1  0
 14 15  2  0
 16 17  2  0
 20 19  1  1
 20 22  1  0
 21 20  1  0
 21 16  1  0
 22 24  2  0
 22 23  1  0
M  END
$$$$
