QEA.pdb
     RDKit          3D

 24 23  0  0  1  0  0  0  0  0999 V2000
   26.9128  -11.7488  -15.2141 N   0  0  0  0  0  0  0  0  0  0  0  0
   26.5842  -12.9672  -15.8644 C   0  0  0  0  0  0  0  0  0  0  0  0
   27.3414  -13.9454  -15.7244 O   0  0  0  0  0  0  0  0  0  0  0  0
   25.3459  -13.0918  -16.7121 C   0  0  0  0  0  0  0  0  0  0  0  0
   24.6075  -11.8026  -16.6437 C   0  0  0  0  0  0  0  0  0  0  0  0
   23.1234  -11.8912  -16.5645 C   0  0  2  0  0  0  0  0  0  0  0  0
   22.7182  -12.6346  -17.7860 N   0  0  0  0  0  0  0  0  0  0  0  0
   22.4043  -10.6147  -16.5965 C   0  0  0  0  0  0  0  0  0  0  0  0
   22.2461   -9.9755  -17.6749 O   0  0  0  0  0  0  0  0  0  0  0  0
   21.8304  -10.0003  -15.4417 N   0  0  0  0  0  0  0  0  0  0  0  0
   21.0565   -8.7793  -15.5606 C   0  0  1  0  0  0  0  0  0  0  0  0
   19.6672   -9.0121  -14.9298 C   0  0  0  0  0  0  0  0  0  0  0  0
   18.8810   -9.9100  -15.8585 C   0  0  0  0  0  0  0  0  0  0  0  0
   18.7064  -11.2461  -15.2663 C   0  0  0  0  0  0  0  0  0  0  0  0
   18.2613  -11.4135  -14.1078 O   0  0  0  0  0  0  0  0  0  0  0  0
   21.6844   -7.5916  -14.9693 C   0  0  0  0  0  0  0  0  0  0  0  0
   22.1598   -7.7029  -13.7934 O   0  0  0  0  0  0  0  0  0  0  0  0
   19.0437  -12.3601  -16.0092 O   0  0  0  0  0  0  0  0  0  0  0  0
   22.5717   -4.0601  -15.9950 C   0  0  0  0  0  0  0  0  0  0  0  0
   22.5287   -5.2221  -15.0191 C   0  0  2  0  0  0  0  0  0  0  0  0
   21.8074   -6.3475  -15.5848 N   0  0  0  0  0  0  0  0  0  0  0  0
   21.9202   -4.7625  -13.7508 C   0  0  0  0  0  0  0  0  0  0  0  0
   20.6625   -5.1588  -13.3315 O   0  0  0  0  0  0  0  0  0  0  0  0
   22.5607   -3.9772  -13.0100 O   0  0  0  0  0  0  0  0  0  0  0  0
  1  2  1  0
  2  3  2  0
  4  5  1  0
  4  2  1  0
  6  5  1  0
  6  7  1  6
  8  6  1  0
  8 10  1  0
  9  8  2  0
 10 11  1  0
 11 16  1  0
 12 13  1  0
 11 12  1  1
 13 14  1  0
 14 18  1  0
 14 15  2  0
 16 17  2  0
 20 19  1  6
 20 22  1  0
 21 20  1  0
 21 16  1  0
 22 24  2  0
 22 23  1  0
M  END
$$$$
