QEA.pdb
     RDKit          3D

 24 23  0  0  1  0  0  0  0  0999 V2000
   13.6001  -13.0129  -10.8357 N   0  0  0  0  0  0  0  0  0  0  0  0
   12.8000  -11.9526  -10.3348 C   0  0  0  0  0  0  0  0  0  0  0  0
   11.6227  -12.1918  -10.0084 O   0  0  0  0  0  0  0  0  0  0  0  0
   13.3494  -10.5576  -10.1943 C   0  0  0  0  0  0  0  0  0  0  0  0
   14.7893  -10.5886  -10.5648 C   0  0  0  0  0  0  0  0  0  0  0  0
   15.5022   -9.2815  -10.5680 C   0  0  2  0  0  0  0  0  0  0  0  0
   14.4877   -8.2929  -11.0180 N   0  0  0  0  0  0  0  0  0  0  0  0
   16.6309   -9.1713  -11.4960 C   0  0  0  0  0  0  0  0  0  0  0  0
   17.7103   -9.7971  -11.2964 O   0  0  0  0  0  0  0  0  0  0  0  0
   16.6079   -8.3710  -12.6790 N   0  0  0  0  0  0  0  0  0  0  0  0
   17.7762   -8.2804  -13.5340 C   0  0  1  0  0  0  0  0  0  0  0  0
   17.3091   -8.2323  -15.0043 C   0  0  0  0  0  0  0  0  0  0  0  0
   18.2445   -9.0998  -15.8164 C   0  0  0  0  0  0  0  0  0  0  0  0
   17.8737   -9.0733  -17.2405 C   0  0  0  0  0  0  0  0  0  0  0  0
   16.9643   -8.3352  -17.6835 O   0  0  0  0  0  0  0  0  0  0  0  0
   18.6609   -7.1441  -13.2503 C   0  0  0  0  0  0  0  0  0  0  0  0
   18.1143   -6.0429  -12.9191 O   0  0  0  0  0  0  0  0  0  0  0  0
   18.5490   -9.8895  -18.1263 O   0  0  0  0  0  0  0  0  0  0  0  0
   22.3663   -6.4175  -13.0380 C   0  0  0  0  0  0  0  0  0  0  0  0
   20.9014   -6.0195  -13.0370 C   0  0  2  0  0  0  0  0  0  0  0  0
   20.0529   -7.1649  -13.3108 N   0  0  0  0  0  0  0  0  0  0  0  0
   20.6967   -4.9370  -14.0252 C   0  0  0  0  0  0  0  0  0  0  0  0
   20.8857   -3.5991  -13.7270 O   0  0  0  0  0  0  0  0  0  0  0  0
   20.3350   -5.2286  -15.1913 O   0  0  0  0  0  0  0  0  0  0  0  0
  1  2  1  0
  2  3  2  0
  4  5  1  0
  4  2  1  0
  6  5  1  0
  6  7  1  6
  8  6  1  0
  8 10  1  0
  9  8  2  0
 10 11  1  0
 11 16  1  0
 12 13  1  0
 11 12  1  6
 13 14  1  0
 14 18  1  0
 14 15  2  0
 16 17  2  0
 20 19  1  6
 20 22  1  0
 21 20  1  0
 21 16  1  0
 22 24  2  0
 22 23  1  0
M  END
$$$$
