QEA.pdb
     RDKit          3D

 24 23  0  0  1  0  0  0  0  0999 V2000
   20.9145  -15.8862  -16.9018 N   0  0  0  0  0  0  0  0  0  0  0  0
   19.6965  -15.6060  -17.5751 C   0  0  0  0  0  0  0  0  0  0  0  0
   19.6840  -15.6107  -18.8199 O   0  0  0  0  0  0  0  0  0  0  0  0
   18.4328  -15.3063  -16.8128 C   0  0  0  0  0  0  0  0  0  0  0  0
   17.9632  -13.9525  -17.2109 C   0  0  0  0  0  0  0  0  0  0  0  0
   18.4165  -12.8164  -16.3619 C   0  0  2  0  0  0  0  0  0  0  0  0
   17.7784  -13.0478  -15.0397 N   0  0  0  0  0  0  0  0  0  0  0  0
   17.9948  -11.4831  -16.7999 C   0  0  0  0  0  0  0  0  0  0  0  0
   18.2146  -11.0769  -17.9760 O   0  0  0  0  0  0  0  0  0  0  0  0
   17.3121  -10.5525  -15.9583 N   0  0  0  0  0  0  0  0  0  0  0  0
   16.9164   -9.2513  -16.4623 C   0  0  1  0  0  0  0  0  0  0  0  0
   15.6595   -8.7867  -15.6961 C   0  0  0  0  0  0  0  0  0  0  0  0
   14.4985   -9.6446  -16.1468 C   0  0  0  0  0  0  0  0  0  0  0  0
   13.2630   -9.2573  -15.4468 C   0  0  0  0  0  0  0  0  0  0  0  0
   12.5954  -10.0687  -14.7655 O   0  0  0  0  0  0  0  0  0  0  0  0
   17.9582   -8.2198  -16.3910 C   0  0  0  0  0  0  0  0  0  0  0  0
   18.6723   -8.1785  -15.3377 O   0  0  0  0  0  0  0  0  0  0  0  0
   12.8178   -7.9535  -15.5403 O   0  0  0  0  0  0  0  0  0  0  0  0
   19.5133   -5.6064  -18.6288 C   0  0  0  0  0  0  0  0  0  0  0  0
   19.2868   -6.2805  -17.2876 C   0  0  2  0  0  0  0  0  0  0  0  0
   18.2366   -7.2782  -17.3798 N   0  0  0  0  0  0  0  0  0  0  0  0
   18.9732   -5.2462  -16.2766 C   0  0  0  0  0  0  0  0  0  0  0  0
   19.9209   -4.3720  -15.7742 O   0  0  0  0  0  0  0  0  0  0  0  0
   17.7991   -5.1439  -15.8447 O   0  0  0  0  0  0  0  0  0  0  0  0
  1  2  1  0
  2  3  2  0
  4  5  1  0
  4  2  1  0
  6  5  1  0
  6  7  1  1
  8  6  1  0
  8 10  1  0
  9  8  2  0
 10 11  1  0
 11 16  1  0
 12 13  1  0
 11 12  1  1
 13 14  1  0
 14 18  1  0
 14 15  2  0
 16 17  2  0
 20 19  1  6
 20 22  1  0
 21 20  1  0
 21 16  1  0
 22 24  2  0
 22 23  1  0
M  END
$$$$
