QEA.pdb
     RDKit          3D

 24 23  0  0  1  0  0  0  0  0999 V2000
   27.2239  -25.9750  -15.7790 N   0  0  0  0  0  0  0  0  0  0  0  0
   28.2708  -25.8181  -16.7248 C   0  0  0  0  0  0  0  0  0  0  0  0
   28.3756  -26.6477  -17.6471 O   0  0  0  0  0  0  0  0  0  0  0  0
   29.2460  -24.6747  -16.6293 C   0  0  0  0  0  0  0  0  0  0  0  0
   28.5128  -23.4829  -16.1255 C   0  0  0  0  0  0  0  0  0  0  0  0
   27.7704  -22.6831  -17.1384 C   0  0  2  0  0  0  0  0  0  0  0  0
   28.8185  -21.9287  -17.8741 N   0  0  0  0  0  0  0  0  0  0  0  0
   26.8363  -21.6870  -16.6068 C   0  0  0  0  0  0  0  0  0  0  0  0
   27.2477  -20.6160  -16.0772 O   0  0  0  0  0  0  0  0  0  0  0  0
   25.4160  -21.8342  -16.6444 N   0  0  0  0  0  0  0  0  0  0  0  0
   24.5528  -20.8422  -16.0322 C   0  0  1  0  0  0  0  0  0  0  0  0
   23.7323  -20.1502  -17.1413 C   0  0  0  0  0  0  0  0  0  0  0  0
   24.6318  -19.1447  -17.8245 C   0  0  0  0  0  0  0  0  0  0  0  0
   24.3286  -17.7794  -17.3660 C   0  0  0  0  0  0  0  0  0  0  0  0
   23.1932  -17.2661  -17.4914 O   0  0  0  0  0  0  0  0  0  0  0  0
   23.6555  -21.3627  -14.9937 C   0  0  0  0  0  0  0  0  0  0  0  0
   23.6297  -22.6235  -14.8183 O   0  0  0  0  0  0  0  0  0  0  0  0
   25.3275  -17.0311  -16.7752 O   0  0  0  0  0  0  0  0  0  0  0  0
   22.2401  -20.4772  -11.8062 C   0  0  0  0  0  0  0  0  0  0  0  0
   21.9640  -21.1377  -13.1449 C   0  0  2  0  0  0  0  0  0  0  0  0
   22.8266  -20.5947  -14.1784 N   0  0  0  0  0  0  0  0  0  0  0  0
   20.5326  -20.9662  -13.4794 C   0  0  0  0  0  0  0  0  0  0  0  0
   19.5230  -21.6802  -12.8585 O   0  0  0  0  0  0  0  0  0  0  0  0
   20.2022  -20.1396  -14.3645 O   0  0  0  0  0  0  0  0  0  0  0  0
  1  2  1  0
  2  3  2  0
  4  5  1  0
  4  2  1  0
  6  5  1  0
  6  7  1  1
  8  6  1  0
  8 10  1  0
  9  8  2  0
 10 11  1  0
 11 16  1  0
 12 13  1  0
 11 12  1  6
 13 14  1  0
 14 18  1  0
 14 15  2  0
 16 17  2  0
 20 19  1  1
 20 22  1  0
 21 20  1  0
 21 16  1  0
 22 24  2  0
 22 23  1  0
M  END
$$$$
