NES.pdb
     RDKit          3D

 24 23  0  0  1  0  0  0  0  0999 V2000
    8.4308  -12.4782   17.0269 N   0  0  0  0  0  0  0  0  0  0  0  0
    7.8737  -13.8022   17.0225 C   0  0  0  0  0  0  0  0  0  0  0  0
    7.0029  -14.0620   16.1581 O   0  0  0  0  0  0  0  0  0  0  0  0
    8.3359  -14.7780   18.0090 C   0  0  0  0  0  0  0  0  0  0  0  0
    9.1542  -14.2159   19.1280 C   0  0  2  0  0  0  0  0  0  0  0  0
   10.2552  -13.4303   18.5589 N   0  0  0  0  0  0  0  0  0  0  0  0
    9.6876  -15.3262   19.9496 C   0  0  0  0  0  0  0  0  0  0  0  0
    8.9764  -16.1464   20.5679 O   0  0  0  0  0  0  0  0  0  0  0  0
   11.1064  -15.5109   20.0726 N   0  0  0  0  0  0  0  0  0  0  0  0
   11.6945  -16.5703   20.8683 C   0  0  1  0  0  0  0  0  0  0  0  0
   13.0480  -16.9460   20.3206 C   0  0  0  0  0  0  0  0  0  0  0  0
   13.6288  -18.0373   21.1698 C   0  0  0  0  0  0  0  0  0  0  0  0
   14.9210  -18.4711   20.5761 C   0  0  0  0  0  0  0  0  0  0  0  0
   15.5044  -19.5082   20.9456 O   0  0  0  0  0  0  0  0  0  0  0  0
   11.7505  -16.1956   22.3057 C   0  0  0  0  0  0  0  0  0  0  0  0
   12.4767  -15.2519   22.6611 O   0  0  0  0  0  0  0  0  0  0  0  0
   15.5026  -17.7036   19.5793 O   0  0  0  0  0  0  0  0  0  0  0  0
    8.6024  -16.5495   24.8351 O   0  0  0  0  0  0  0  0  0  0  0  0
    9.7499  -15.8389   25.1523 C   0  0  0  0  0  0  0  0  0  0  0  0
   11.0151  -16.4812   24.6835 C   0  0  2  0  0  0  0  0  0  0  0  0
   11.0042  -16.8738   23.3048 N   0  0  0  0  0  0  0  0  0  0  0  0
   11.1783  -17.7430   25.4875 C   0  0  0  0  0  0  0  0  0  0  0  0
   11.3527  -17.7380   26.8599 O   0  0  0  0  0  0  0  0  0  0  0  0
   11.1538  -18.8373   24.8790 O   0  0  0  0  0  0  0  0  0  0  0  0
  1  2  1  0
  2  3  2  0
  4  2  1  0
  5  4  1  0
  5  6  1  6
  7  8  2  0
  7  5  1  0
  9  7  1  0
 10 11  1  6
 10  9  1  0
 11 12  1  0
 13 12  1  0
 13 17  1  0
 14 13  2  0
 15 10  1  0
 16 15  2  0
 19 18  1  0
 20 19  1  1
 20 21  1  0
 21 15  1  0
 22 23  1  0
 22 20  1  0
 24 22  2  0
M  END
$$$$
