NES.pdb
     RDKit          3D

 24 23  0  0  1  0  0  0  0  0999 V2000
   13.4308  -22.1665   23.2143 N   0  0  0  0  0  0  0  0  0  0  0  0
   12.8533  -23.0394   24.1981 C   0  0  0  0  0  0  0  0  0  0  0  0
   12.6556  -24.2335   23.8692 O   0  0  0  0  0  0  0  0  0  0  0  0
   12.5245  -22.5105   25.5214 C   0  0  0  0  0  0  0  0  0  0  0  0
   11.3816  -23.1845   26.2124 C   0  0  2  0  0  0  0  0  0  0  0  0
   10.1323  -22.7911   25.5508 N   0  0  0  0  0  0  0  0  0  0  0  0
   11.3598  -22.7746   27.6350 C   0  0  0  0  0  0  0  0  0  0  0  0
   11.0765  -21.6236   28.0296 O   0  0  0  0  0  0  0  0  0  0  0  0
   11.6778  -23.7272   28.6615 N   0  0  0  0  0  0  0  0  0  0  0  0
   11.6807  -23.3909   30.0715 C   0  0  1  0  0  0  0  0  0  0  0  0
   11.0767  -24.5123   30.8780 C   0  0  0  0  0  0  0  0  0  0  0  0
    9.5828  -24.4397   30.7666 C   0  0  0  0  0  0  0  0  0  0  0  0
    8.9848  -25.4768   31.6482 C   0  0  0  0  0  0  0  0  0  0  0  0
    8.5114  -25.2016   32.7674 O   0  0  0  0  0  0  0  0  0  0  0  0
   13.0465  -23.0323   30.5362 C   0  0  0  0  0  0  0  0  0  0  0  0
   14.0125  -23.7292   30.1820 O   0  0  0  0  0  0  0  0  0  0  0  0
    8.9485  -26.7945   31.2198 O   0  0  0  0  0  0  0  0  0  0  0  0
   16.2818  -19.7762   31.8090 O   0  0  0  0  0  0  0  0  0  0  0  0
   15.0207  -20.1549   31.3749 C   0  0  0  0  0  0  0  0  0  0  0  0
   14.6244  -21.5372   31.7815 C   0  0  2  0  0  0  0  0  0  0  0  0
   13.3028  -21.9174   31.3765 N   0  0  0  0  0  0  0  0  0  0  0  0
   14.6352  -21.5607   33.2862 C   0  0  0  0  0  0  0  0  0  0  0  0
   15.7938  -21.4141   34.0282 O   0  0  0  0  0  0  0  0  0  0  0  0
   13.5450  -21.7202   33.8815 O   0  0  0  0  0  0  0  0  0  0  0  0
  1  2  1  0
  2  3  2  0
  4  2  1  0
  5  4  1  0
  5  6  1  6
  7  8  2  0
  7  5  1  0
  9  7  1  0
 10 11  1  1
 10  9  1  0
 11 12  1  0
 13 12  1  0
 13 17  1  0
 14 13  2  0
 15 10  1  0
 16 15  2  0
 19 18  1  0
 20 19  1  1
 20 21  1  0
 21 15  1  0
 22 23  1  0
 22 20  1  0
 24 22  2  0
M  END
$$$$
