NES.pdb
     RDKit          3D

 24 23  0  0  1  0  0  0  0  0999 V2000
   10.8792  -19.0637   16.1475 N   0  0  0  0  0  0  0  0  0  0  0  0
    9.9836  -18.1241   16.7627 C   0  0  0  0  0  0  0  0  0  0  0  0
    9.0382  -17.6829   16.0666 O   0  0  0  0  0  0  0  0  0  0  0  0
   10.2057  -17.7261   18.1524 C   0  0  0  0  0  0  0  0  0  0  0  0
   11.4917  -18.1976   18.7538 C   0  0  2  0  0  0  0  0  0  0  0  0
   11.7598  -19.5617   18.2842 N   0  0  0  0  0  0  0  0  0  0  0  0
   11.3782  -18.1763   20.2299 C   0  0  0  0  0  0  0  0  0  0  0  0
   10.4015  -18.6269   20.8654 O   0  0  0  0  0  0  0  0  0  0  0  0
   12.4338  -17.6116   21.0230 N   0  0  0  0  0  0  0  0  0  0  0  0
   12.3926  -17.5713   22.4714 C   0  0  1  0  0  0  0  0  0  0  0  0
   13.7904  -17.6008   23.0356 C   0  0  0  0  0  0  0  0  0  0  0  0
   14.4104  -18.9308   22.7256 C   0  0  0  0  0  0  0  0  0  0  0  0
   15.7885  -18.9595   23.2829 C   0  0  0  0  0  0  0  0  0  0  0  0
   16.1316  -19.7763   24.1589 O   0  0  0  0  0  0  0  0  0  0  0  0
   11.6124  -16.4020   22.9551 C   0  0  0  0  0  0  0  0  0  0  0  0
   11.9383  -15.2597   22.5902 O   0  0  0  0  0  0  0  0  0  0  0  0
   16.7281  -18.0522   22.8191 O   0  0  0  0  0  0  0  0  0  0  0  0
    7.6545  -16.4065   23.6858 O   0  0  0  0  0  0  0  0  0  0  0  0
    8.4049  -15.2410   23.7124 C   0  0  0  0  0  0  0  0  0  0  0  0
    9.7622  -15.4023   24.3165 C   0  0  2  0  0  0  0  0  0  0  0  0
   10.4984  -16.5301   23.8255 N   0  0  0  0  0  0  0  0  0  0  0  0
    9.5511  -15.6356   25.7882 C   0  0  0  0  0  0  0  0  0  0  0  0
    8.9450  -14.7052   26.6135 O   0  0  0  0  0  0  0  0  0  0  0  0
    9.9441  -16.7201   26.2758 O   0  0  0  0  0  0  0  0  0  0  0  0
  1  2  1  0
  2  3  2  0
  4  2  1  0
  5  4  1  0
  5  6  1  6
  7  8  2  0
  7  5  1  0
  9  7  1  0
 10 11  1  1
 10  9  1  0
 11 12  1  0
 13 12  1  0
 13 17  1  0
 14 13  2  0
 15 10  1  0
 16 15  2  0
 19 18  1  0
 20 19  1  6
 20 21  1  0
 21 15  1  0
 22 23  1  0
 22 20  1  0
 24 22  2  0
M  END
$$$$
