NES.pdb
     RDKit          3D

 24 23  0  0  1  0  0  0  0  0999 V2000
    9.2767  -20.7769   16.7712 N   0  0  0  0  0  0  0  0  0  0  0  0
    8.6462  -19.4878   16.7080 C   0  0  0  0  0  0  0  0  0  0  0  0
    8.7848  -18.8257   15.6519 O   0  0  0  0  0  0  0  0  0  0  0  0
    7.8808  -19.0068   17.8577 C   0  0  0  0  0  0  0  0  0  0  0  0
    8.4191  -17.7742   18.5125 C   0  0  2  0  0  0  0  0  0  0  0  0
    8.8875  -16.8530   17.4707 N   0  0  0  0  0  0  0  0  0  0  0  0
    9.5371  -18.1453   19.4095 C   0  0  0  0  0  0  0  0  0  0  0  0
    9.4519  -18.9922   20.3240 O   0  0  0  0  0  0  0  0  0  0  0  0
   10.8196  -17.5178   19.2556 N   0  0  0  0  0  0  0  0  0  0  0  0
   11.9570  -17.8391   20.0948 C   0  0  1  0  0  0  0  0  0  0  0  0
   13.2385  -17.7092   19.3112 C   0  0  0  0  0  0  0  0  0  0  0  0
   13.3655  -18.8863   18.3906 C   0  0  0  0  0  0  0  0  0  0  0  0
   14.6173  -18.7454   17.6010 C   0  0  0  0  0  0  0  0  0  0  0  0
   14.6060  -18.5738   16.3670 O   0  0  0  0  0  0  0  0  0  0  0  0
   11.9640  -17.0133   21.3308 C   0  0  0  0  0  0  0  0  0  0  0  0
   12.4820  -15.8840   21.3054 O   0  0  0  0  0  0  0  0  0  0  0  0
   15.8405  -18.8055   18.2500 O   0  0  0  0  0  0  0  0  0  0  0  0
    9.3788  -15.4080   22.9723 O   0  0  0  0  0  0  0  0  0  0  0  0
    9.9577  -16.1072   24.0203 C   0  0  0  0  0  0  0  0  0  0  0  0
   11.3249  -16.6320   23.7229 C   0  0  2  0  0  0  0  0  0  0  0  0
   11.4001  -17.4594   22.5547 N   0  0  0  0  0  0  0  0  0  0  0  0
   11.7134  -17.5002   24.8891 C   0  0  0  0  0  0  0  0  0  0  0  0
   11.9705  -18.8536   24.7610 O   0  0  0  0  0  0  0  0  0  0  0  0
   11.8049  -16.9655   26.0179 O   0  0  0  0  0  0  0  0  0  0  0  0
  1  2  1  0
  2  3  2  0
  4  2  1  0
  5  4  1  0
  5  6  1  6
  7  8  2  0
  7  5  1  0
  9  7  1  0
 10 11  1  6
 10  9  1  0
 11 12  1  0
 13 12  1  0
 13 17  1  0
 14 13  2  0
 15 10  1  0
 16 15  2  0
 19 18  1  0
 20 19  1  1
 20 21  1  0
 21 15  1  0
 22 23  1  0
 22 20  1  0
 24 22  2  0
M  END
$$$$
