NES.pdb
     RDKit          3D

 24 23  0  0  1  0  0  0  0  0999 V2000
    7.8089  -12.5509   16.5610 N   0  0  0  0  0  0  0  0  0  0  0  0
    7.5122  -13.9560   16.5940 C   0  0  0  0  0  0  0  0  0  0  0  0
    6.7263  -14.4033   15.7250 O   0  0  0  0  0  0  0  0  0  0  0  0
    8.1277  -14.7949   17.6219 C   0  0  0  0  0  0  0  0  0  0  0  0
    8.7333  -14.0543   18.7720 C   0  0  2  0  0  0  0  0  0  0  0  0
    9.6736  -13.0571   18.2481 N   0  0  0  0  0  0  0  0  0  0  0  0
    9.4395  -15.0121   19.6530 C   0  0  0  0  0  0  0  0  0  0  0  0
    8.8913  -15.9829   20.2169 O   0  0  0  0  0  0  0  0  0  0  0  0
   10.8447  -14.8547   19.9042 N   0  0  0  0  0  0  0  0  0  0  0  0
   11.6117  -15.7973   20.6943 C   0  0  1  0  0  0  0  0  0  0  0  0
   13.0477  -15.8181   20.2352 C   0  0  0  0  0  0  0  0  0  0  0  0
   13.1012  -16.3507   18.8342 C   0  0  0  0  0  0  0  0  0  0  0  0
   14.5163  -16.3611   18.3784 C   0  0  0  0  0  0  0  0  0  0  0  0
   15.2792  -17.3189   18.6089 O   0  0  0  0  0  0  0  0  0  0  0  0
   11.4869  -15.5084   22.1472 C   0  0  0  0  0  0  0  0  0  0  0  0
   11.6321  -14.3420   22.5505 O   0  0  0  0  0  0  0  0  0  0  0  0
   15.0114  -15.2749   17.6740 O   0  0  0  0  0  0  0  0  0  0  0  0
    8.3880  -16.2620   24.1364 O   0  0  0  0  0  0  0  0  0  0  0  0
    9.4766  -15.5022   24.5364 C   0  0  0  0  0  0  0  0  0  0  0  0
   10.7861  -16.2163   24.4458 C   0  0  2  0  0  0  0  0  0  0  0  0
   11.2064  -16.5147   23.1081 N   0  0  0  0  0  0  0  0  0  0  0  0
   10.6025  -17.5377   25.1425 C   0  0  0  0  0  0  0  0  0  0  0  0
   10.7942  -18.7514   24.5066 O   0  0  0  0  0  0  0  0  0  0  0  0
   10.2618  -17.5268   26.3476 O   0  0  0  0  0  0  0  0  0  0  0  0
  1  2  1  0
  2  3  2  0
  4  2  1  0
  5  4  1  0
  5  6  1  6
  7  8  2  0
  7  5  1  0
  9  7  1  0
 10 11  1  6
 10  9  1  0
 11 12  1  0
 13 12  1  0
 13 17  1  0
 14 13  2  0
 15 10  1  0
 16 15  2  0
 19 18  1  0
 20 19  1  6
 20 21  1  0
 21 15  1  0
 22 23  1  0
 22 20  1  0
 24 22  2  0
M  END
$$$$
