NES.pdb
     RDKit          3D

 24 23  0  0  1  0  0  0  0  0999 V2000
    7.2780  -12.3671   18.7405 N   0  0  0  0  0  0  0  0  0  0  0  0
    7.8432  -13.6482   18.4202 C   0  0  0  0  0  0  0  0  0  0  0  0
    7.8077  -14.0142   17.2211 O   0  0  0  0  0  0  0  0  0  0  0  0
    8.4277  -14.4609   19.4864 C   0  0  0  0  0  0  0  0  0  0  0  0
    8.9417  -15.7995   19.0599 C   0  0  2  0  0  0  0  0  0  0  0  0
    7.8132  -16.6092   18.5866 N   0  0  0  0  0  0  0  0  0  0  0  0
    9.5999  -16.4598   20.2102 C   0  0  0  0  0  0  0  0  0  0  0  0
    8.9992  -17.1477   21.0626 O   0  0  0  0  0  0  0  0  0  0  0  0
   11.0176  -16.3288   20.3982 N   0  0  0  0  0  0  0  0  0  0  0  0
   11.7352  -17.0071   21.4594 C   0  0  1  0  0  0  0  0  0  0  0  0
   13.2108  -17.0440   21.1525 C   0  0  0  0  0  0  0  0  0  0  0  0
   13.9170  -17.7772   22.2539 C   0  0  0  0  0  0  0  0  0  0  0  0
   15.3748  -17.7931   21.9623 C   0  0  0  0  0  0  0  0  0  0  0  0
   16.1053  -16.8087   22.1850 O   0  0  0  0  0  0  0  0  0  0  0  0
   11.4481  -16.3917   22.7817 C   0  0  0  0  0  0  0  0  0  0  0  0
   11.8885  -15.2574   23.0338 O   0  0  0  0  0  0  0  0  0  0  0  0
   15.9480  -18.9351   21.4253 O   0  0  0  0  0  0  0  0  0  0  0  0
    8.2455  -17.5334   25.1579 O   0  0  0  0  0  0  0  0  0  0  0  0
    8.9559  -16.3671   25.3974 C   0  0  0  0  0  0  0  0  0  0  0  0
   10.4089  -16.4570   25.0603 C   0  0  2  0  0  0  0  0  0  0  0  0
   10.6850  -17.0470   23.7833 N   0  0  0  0  0  0  0  0  0  0  0  0
   11.0332  -17.3568   26.0925 C   0  0  0  0  0  0  0  0  0  0  0  0
   11.0999  -17.0231   27.4335 O   0  0  0  0  0  0  0  0  0  0  0  0
   11.5092  -18.4506   25.7111 O   0  0  0  0  0  0  0  0  0  0  0  0
  1  2  1  0
  2  3  2  0
  4  2  1  0
  5  4  1  0
  5  6  1  1
  7  8  2  0
  7  5  1  0
  9  7  1  0
 10 11  1  6
 10  9  1  0
 11 12  1  0
 13 12  1  0
 13 17  1  0
 14 13  2  0
 15 10  1  0
 16 15  2  0
 19 18  1  0
 20 19  1  1
 20 21  1  0
 21 15  1  0
 22 23  1  0
 22 20  1  0
 24 22  2  0
M  END
$$$$
