NES.pdb
     RDKit          3D

 24 23  0  0  1  0  0  0  0  0999 V2000
    7.3336  -12.2211   18.4154 N   0  0  0  0  0  0  0  0  0  0  0  0
    7.9173  -13.5181   18.2141 C   0  0  0  0  0  0  0  0  0  0  0  0
    8.1404  -13.8766   17.0332 O   0  0  0  0  0  0  0  0  0  0  0  0
    8.2231  -14.3546   19.3742 C   0  0  0  0  0  0  0  0  0  0  0  0
    8.8965  -15.6540   19.0644 C   0  0  2  0  0  0  0  0  0  0  0  0
    7.9611  -16.5041   18.3190 N   0  0  0  0  0  0  0  0  0  0  0  0
    9.2923  -16.3136   20.3296 C   0  0  0  0  0  0  0  0  0  0  0  0
    8.4891  -16.6619   21.2208 O   0  0  0  0  0  0  0  0  0  0  0  0
   10.6767  -16.5904   20.5923 N   0  0  0  0  0  0  0  0  0  0  0  0
   11.1263  -17.2901   21.7795 C   0  0  1  0  0  0  0  0  0  0  0  0
   12.5122  -17.8442   21.5669 C   0  0  0  0  0  0  0  0  0  0  0  0
   12.9229  -18.6064   22.7915 C   0  0  0  0  0  0  0  0  0  0  0  0
   14.2815  -19.1695   22.5732 C   0  0  0  0  0  0  0  0  0  0  0  0
   15.2607  -18.4493   22.2999 O   0  0  0  0  0  0  0  0  0  0  0  0
   11.0441  -16.4187   22.9810 C   0  0  0  0  0  0  0  0  0  0  0  0
   11.5735  -15.2947   22.9552 O   0  0  0  0  0  0  0  0  0  0  0  0
   14.4742  -20.5383   22.6748 O   0  0  0  0  0  0  0  0  0  0  0  0
    7.8805  -16.1778   25.4165 O   0  0  0  0  0  0  0  0  0  0  0  0
    8.9593  -15.3114   25.5044 C   0  0  0  0  0  0  0  0  0  0  0  0
   10.2884  -15.9711   25.3273 C   0  0  2  0  0  0  0  0  0  0  0  0
   10.3812  -16.8149   24.1720 N   0  0  0  0  0  0  0  0  0  0  0  0
   10.4884  -16.8602   26.5249 C   0  0  0  0  0  0  0  0  0  0  0  0
   10.4803  -16.3800   27.8225 O   0  0  0  0  0  0  0  0  0  0  0  0
   10.6689  -18.0837   26.3277 O   0  0  0  0  0  0  0  0  0  0  0  0
  1  2  1  0
  2  3  2  0
  4  2  1  0
  5  4  1  0
  5  6  1  1
  7  8  2  0
  7  5  1  0
  9  7  1  0
 10 11  1  6
 10  9  1  0
 11 12  1  0
 13 12  1  0
 13 17  1  0
 14 13  2  0
 15 10  1  0
 16 15  2  0
 19 18  1  0
 20 19  1  1
 20 21  1  0
 21 15  1  0
 22 23  1  0
 22 20  1  0
 24 22  2  0
M  END
$$$$
