NES.pdb
     RDKit          3D

 24 23  0  0  1  0  0  0  0  0999 V2000
    8.3460  -12.3317   17.6386 N   0  0  0  0  0  0  0  0  0  0  0  0
    7.8988  -13.6897   17.5005 C   0  0  0  0  0  0  0  0  0  0  0  0
    7.3558  -14.0141   16.4175 O   0  0  0  0  0  0  0  0  0  0  0  0
    8.0910  -14.6242   18.6090 C   0  0  0  0  0  0  0  0  0  0  0  0
    9.2055  -15.6060   18.4303 C   0  0  2  0  0  0  0  0  0  0  0  0
    8.8327  -16.5560   17.3759 N   0  0  0  0  0  0  0  0  0  0  0  0
    9.4369  -16.3207   19.7063 C   0  0  0  0  0  0  0  0  0  0  0  0
    8.5668  -16.9880   20.3049 O   0  0  0  0  0  0  0  0  0  0  0  0
   10.7284  -16.2719   20.3324 N   0  0  0  0  0  0  0  0  0  0  0  0
   11.0144  -16.9244   21.5948 C   0  0  1  0  0  0  0  0  0  0  0  0
   12.4985  -17.1421   21.7467 C   0  0  0  0  0  0  0  0  0  0  0  0
   12.7531  -17.8652   23.0357 C   0  0  0  0  0  0  0  0  0  0  0  0
   13.3530  -19.1912   22.7319 C   0  0  0  0  0  0  0  0  0  0  0  0
   13.7716  -19.4838   21.5954 O   0  0  0  0  0  0  0  0  0  0  0  0
   10.4344  -16.1675   22.7351 C   0  0  0  0  0  0  0  0  0  0  0  0
   10.6764  -14.9536   22.8460 O   0  0  0  0  0  0  0  0  0  0  0  0
   13.4538  -20.1383   23.7388 O   0  0  0  0  0  0  0  0  0  0  0  0
    6.9837  -15.8833   23.6831 O   0  0  0  0  0  0  0  0  0  0  0  0
    7.6034  -15.9989   24.9180 C   0  0  0  0  0  0  0  0  0  0  0  0
    9.0949  -16.0597   24.8494 C   0  0  2  0  0  0  0  0  0  0  0  0
    9.6068  -16.7734   23.7164 N   0  0  0  0  0  0  0  0  0  0  0  0
    9.5496  -16.8118   26.0712 C   0  0  0  0  0  0  0  0  0  0  0  0
    9.1488  -16.4716   27.3509 O   0  0  0  0  0  0  0  0  0  0  0  0
   10.3226  -17.7841   25.9116 O   0  0  0  0  0  0  0  0  0  0  0  0
  1  2  1  0
  2  3  2  0
  4  2  1  0
  5  4  1  0
  5  6  1  6
  7  8  2  0
  7  5  1  0
  9  7  1  0
 10 11  1  1
 10  9  1  0
 11 12  1  0
 13 12  1  0
 13 17  1  0
 14 13  2  0
 15 10  1  0
 16 15  2  0
 19 18  1  0
 20 19  1  6
 20 21  1  0
 21 15  1  0
 22 23  1  0
 22 20  1  0
 24 22  2  0
M  END
$$$$
