NES.pdb
     RDKit          3D

 24 23  0  0  1  0  0  0  0  0999 V2000
    8.1845  -15.2564   14.6667 N   0  0  0  0  0  0  0  0  0  0  0  0
    8.2224  -14.2954   15.7336 C   0  0  0  0  0  0  0  0  0  0  0  0
    8.0780  -13.0870   15.4310 O   0  0  0  0  0  0  0  0  0  0  0  0
    8.4242  -14.7563   17.1069 C   0  0  0  0  0  0  0  0  0  0  0  0
    8.6617  -16.2254   17.2589 C   0  0  2  0  0  0  0  0  0  0  0  0
    7.5234  -16.9494   16.6816 N   0  0  0  0  0  0  0  0  0  0  0  0
    8.8018  -16.5521   18.6962 C   0  0  0  0  0  0  0  0  0  0  0  0
    7.8530  -16.5651   19.5088 O   0  0  0  0  0  0  0  0  0  0  0  0
   10.0915  -16.8813   19.2352 N   0  0  0  0  0  0  0  0  0  0  0  0
   10.2625  -17.5557   20.5069 C   0  0  1  0  0  0  0  0  0  0  0  0
   11.4122  -18.5283   20.4328 C   0  0  0  0  0  0  0  0  0  0  0  0
   11.5476  -19.2207   21.7563 C   0  0  0  0  0  0  0  0  0  0  0  0
   12.6915  -20.1679   21.6875 C   0  0  0  0  0  0  0  0  0  0  0  0
   12.6408  -21.3051   22.1942 O   0  0  0  0  0  0  0  0  0  0  0  0
   10.4186  -16.5794   21.6169 C   0  0  0  0  0  0  0  0  0  0  0  0
   11.2414  -15.6550   21.5034 O   0  0  0  0  0  0  0  0  0  0  0  0
   13.8553  -19.7822   21.0412 O   0  0  0  0  0  0  0  0  0  0  0  0
    8.5064  -14.1476   25.2715 O   0  0  0  0  0  0  0  0  0  0  0  0
    8.4215  -15.1171   24.2840 C   0  0  0  0  0  0  0  0  0  0  0  0
    9.7429  -15.6621   23.8481 C   0  0  2  0  0  0  0  0  0  0  0  0
    9.6628  -16.6539   22.8161 N   0  0  0  0  0  0  0  0  0  0  0  0
   10.3437  -16.3408   25.0494 C   0  0  0  0  0  0  0  0  0  0  0  0
   10.7670  -15.6448   26.1677 O   0  0  0  0  0  0  0  0  0  0  0  0
   10.4609  -17.5874   25.0255 O   0  0  0  0  0  0  0  0  0  0  0  0
  1  2  1  0
  2  3  2  0
  4  2  1  0
  5  4  1  0
  5  6  1  1
  7  8  2  0
  7  5  1  0
  9  7  1  0
 10 11  1  6
 10  9  1  0
 11 12  1  0
 13 12  1  0
 13 17  1  0
 14 13  2  0
 15 10  1  0
 16 15  2  0
 19 18  1  0
 20 19  1  1
 20 21  1  0
 21 15  1  0
 22 23  1  0
 22 20  1  0
 24 22  2  0
M  END
$$$$
