NES.pdb
     RDKit          3D

 24 23  0  0  1  0  0  0  0  0999 V2000
    8.6792  -15.2670   14.8849 N   0  0  0  0  0  0  0  0  0  0  0  0
    9.8279  -16.1291   14.8619 C   0  0  0  0  0  0  0  0  0  0  0  0
   10.0590  -16.7592   13.8025 O   0  0  0  0  0  0  0  0  0  0  0  0
   10.6681  -16.2361   16.0543 C   0  0  0  0  0  0  0  0  0  0  0  0
   10.1799  -15.4799   17.2491 C   0  0  2  0  0  0  0  0  0  0  0  0
   10.3860  -14.0458   17.0162 N   0  0  0  0  0  0  0  0  0  0  0  0
   10.9326  -15.9183   18.4465 C   0  0  0  0  0  0  0  0  0  0  0  0
   10.9494  -17.0920   18.8742 O   0  0  0  0  0  0  0  0  0  0  0  0
   11.7067  -14.9685   19.1954 N   0  0  0  0  0  0  0  0  0  0  0  0
   12.5014  -15.3389   20.3497 C   0  0  1  0  0  0  0  0  0  0  0  0
   13.7673  -14.5214   20.3974 C   0  0  0  0  0  0  0  0  0  0  0  0
   14.7069  -15.0205   19.3404 C   0  0  0  0  0  0  0  0  0  0  0  0
   16.0028  -14.3038   19.4729 C   0  0  0  0  0  0  0  0  0  0  0  0
   16.6789  -13.9693   18.4813 O   0  0  0  0  0  0  0  0  0  0  0  0
   11.7111  -15.2307   21.6041 C   0  0  0  0  0  0  0  0  0  0  0  0
   11.1108  -14.1722   21.8560 O   0  0  0  0  0  0  0  0  0  0  0  0
   16.4819  -13.9939   20.7361 O   0  0  0  0  0  0  0  0  0  0  0  0
    9.4137  -17.9738   23.1304 O   0  0  0  0  0  0  0  0  0  0  0  0
    9.5085  -16.7347   23.7453 C   0  0  0  0  0  0  0  0  0  0  0  0
   10.8928  -16.1727   23.7765 C   0  0  2  0  0  0  0  0  0  0  0  0
   11.6085  -16.2929   22.5402 N   0  0  0  0  0  0  0  0  0  0  0  0
   11.6578  -16.9747   24.7946 C   0  0  0  0  0  0  0  0  0  0  0  0
   11.3528  -16.9560   26.1440 O   0  0  0  0  0  0  0  0  0  0  0  0
   12.6080  -17.6849   24.3931 O   0  0  0  0  0  0  0  0  0  0  0  0
  1  2  1  0
  2  3  2  0
  4  2  1  0
  5  4  1  0
  5  6  1  6
  7  8  2  0
  7  5  1  0
  9  7  1  0
 10 11  1  1
 10  9  1  0
 11 12  1  0
 13 12  1  0
 13 17  1  0
 14 13  2  0
 15 10  1  0
 16 15  2  0
 19 18  1  0
 20 19  1  6
 20 21  1  0
 21 15  1  0
 22 23  1  0
 22 20  1  0
 24 22  2  0
M  END
$$$$
