NES.pdb
     RDKit          3D

 24 23  0  0  1  0  0  0  0  0999 V2000
    7.6493  -11.8729   17.8165 N   0  0  0  0  0  0  0  0  0  0  0  0
    7.5705  -13.3008   17.6818 C   0  0  0  0  0  0  0  0  0  0  0  0
    6.5971  -13.7704   17.0455 O   0  0  0  0  0  0  0  0  0  0  0  0
    8.6105  -14.1361   18.2815 C   0  0  0  0  0  0  0  0  0  0  0  0
    9.7118  -14.5469   17.3561 C   0  0  2  0  0  0  0  0  0  0  0  0
    9.1531  -15.4175   16.3154 N   0  0  0  0  0  0  0  0  0  0  0  0
   10.7524  -15.2680   18.1240 C   0  0  0  0  0  0  0  0  0  0  0  0
   10.5997  -16.4064   18.6153 O   0  0  0  0  0  0  0  0  0  0  0  0
   12.0343  -14.6590   18.3430 N   0  0  0  0  0  0  0  0  0  0  0  0
   13.0494  -15.2492   19.1929 C   0  0  1  0  0  0  0  0  0  0  0  0
   14.4200  -14.7835   18.7715 C   0  0  0  0  0  0  0  0  0  0  0  0
   14.8693  -15.5996   17.5961 C   0  0  0  0  0  0  0  0  0  0  0  0
   16.1806  -15.0810   17.1249 C   0  0  0  0  0  0  0  0  0  0  0  0
   17.2328  -15.2586   17.7682 O   0  0  0  0  0  0  0  0  0  0  0  0
   12.7756  -14.9748   20.6280 C   0  0  0  0  0  0  0  0  0  0  0  0
   12.9176  -13.8202   21.0649 O   0  0  0  0  0  0  0  0  0  0  0  0
   16.2442  -14.3763   15.9330 O   0  0  0  0  0  0  0  0  0  0  0  0
    9.9553  -16.9553   22.6794 O   0  0  0  0  0  0  0  0  0  0  0  0
   10.5572  -15.8240   23.2088 C   0  0  0  0  0  0  0  0  0  0  0  0
   12.0145  -15.7064   22.8999 C   0  0  2  0  0  0  0  0  0  0  0  0
   12.3545  -15.9824   21.5348 N   0  0  0  0  0  0  0  0  0  0  0  0
   12.7144  -16.7449   23.7345 C   0  0  0  0  0  0  0  0  0  0  0  0
   12.6817  -16.7391   25.1177 O   0  0  0  0  0  0  0  0  0  0  0  0
   13.3500  -17.6471   23.1426 O   0  0  0  0  0  0  0  0  0  0  0  0
  1  2  1  0
  2  3  2  0
  4  2  1  0
  5  4  1  0
  5  6  1  6
  7  8  2  0
  7  5  1  0
  9  7  1  0
 10 11  1  6
 10  9  1  0
 11 12  1  0
 13 12  1  0
 13 17  1  0
 14 13  2  0
 15 10  1  0
 16 15  2  0
 19 18  1  0
 20 19  1  6
 20 21  1  0
 21 15  1  0
 22 23  1  0
 22 20  1  0
 24 22  2  0
M  END
$$$$
