NES.pdb
     RDKit          3D

 24 23  0  0  1  0  0  0  0  0999 V2000
    7.1147  -12.5734   18.2402 N   0  0  0  0  0  0  0  0  0  0  0  0
    7.7376  -13.8216   17.8977 C   0  0  0  0  0  0  0  0  0  0  0  0
    7.6589  -14.2008   16.7049 O   0  0  0  0  0  0  0  0  0  0  0  0
    8.4269  -14.5875   18.9356 C   0  0  0  0  0  0  0  0  0  0  0  0
    8.7119  -16.0154   18.5921 C   0  0  2  0  0  0  0  0  0  0  0  0
    7.4424  -16.6951   18.3102 N   0  0  0  0  0  0  0  0  0  0  0  0
    9.3994  -16.6646   19.7315 C   0  0  0  0  0  0  0  0  0  0  0  0
    8.8152  -17.3039   20.6320 O   0  0  0  0  0  0  0  0  0  0  0  0
   10.8281  -16.5805   19.8503 N   0  0  0  0  0  0  0  0  0  0  0  0
   11.5619  -17.1821   20.9460 C   0  0  1  0  0  0  0  0  0  0  0  0
   13.0070  -17.3773   20.5631 C   0  0  0  0  0  0  0  0  0  0  0  0
   13.0828  -18.3804   19.4508 C   0  0  0  0  0  0  0  0  0  0  0  0
   14.4966  -18.4986   19.0065 C   0  0  0  0  0  0  0  0  0  0  0  0
   14.9774  -17.7612   18.1247 O   0  0  0  0  0  0  0  0  0  0  0  0
   11.4100  -16.3897   22.1945 C   0  0  0  0  0  0  0  0  0  0  0  0
   11.7163  -15.1853   22.1922 O   0  0  0  0  0  0  0  0  0  0  0  0
   15.3133  -19.4568   19.5860 O   0  0  0  0  0  0  0  0  0  0  0  0
    8.2621  -16.2990   24.3653 O   0  0  0  0  0  0  0  0  0  0  0  0
    9.3490  -15.4630   24.5706 C   0  0  0  0  0  0  0  0  0  0  0  0
   10.6676  -16.1660   24.5767 C   0  0  2  0  0  0  0  0  0  0  0  0
   10.9256  -16.9507   23.4051 N   0  0  0  0  0  0  0  0  0  0  0  0
   10.6366  -17.1245   25.7366 C   0  0  0  0  0  0  0  0  0  0  0  0
   10.8326  -18.4859   25.5871 O   0  0  0  0  0  0  0  0  0  0  0  0
   10.4237  -16.6601   26.8800 O   0  0  0  0  0  0  0  0  0  0  0  0
  1  2  1  0
  2  3  2  0
  4  2  1  0
  5  4  1  0
  5  6  1  1
  7  8  2  0
  7  5  1  0
  9  7  1  0
 10 11  1  6
 10  9  1  0
 11 12  1  0
 13 12  1  0
 13 17  1  0
 14 13  2  0
 15 10  1  0
 16 15  2  0
 19 18  1  0
 20 19  1  6
 20 21  1  0
 21 15  1  0
 22 23  1  0
 22 20  1  0
 24 22  2  0
M  END
$$$$
