NES.pdb
     RDKit          3D

 24 23  0  0  1  0  0  0  0  0999 V2000
    6.9984  -12.6757   17.7415 N   0  0  0  0  0  0  0  0  0  0  0  0
    8.0529  -13.6499   17.6924 C   0  0  0  0  0  0  0  0  0  0  0  0
    8.6121  -13.8439   16.5868 O   0  0  0  0  0  0  0  0  0  0  0  0
    8.4262  -14.3645   18.9127 C   0  0  0  0  0  0  0  0  0  0  0  0
    8.7084  -15.8230   18.7373 C   0  0  2  0  0  0  0  0  0  0  0  0
    7.5198  -16.4683   18.1681 N   0  0  0  0  0  0  0  0  0  0  0  0
    9.0358  -16.4195   20.0524 C   0  0  0  0  0  0  0  0  0  0  0  0
    8.1917  -16.9186   20.8264 O   0  0  0  0  0  0  0  0  0  0  0  0
   10.3971  -16.4484   20.5087 N   0  0  0  0  0  0  0  0  0  0  0  0
   10.7982  -17.0938   21.7431 C   0  0  1  0  0  0  0  0  0  0  0  0
   12.1995  -17.6360   21.6185 C   0  0  0  0  0  0  0  0  0  0  0  0
   12.1900  -18.7885   20.6588 C   0  0  0  0  0  0  0  0  0  0  0  0
   13.5524  -19.3815   20.6074 C   0  0  0  0  0  0  0  0  0  0  0  0
   13.7497  -20.6017   20.7642 O   0  0  0  0  0  0  0  0  0  0  0  0
   10.6480  -16.1766   22.9032 C   0  0  0  0  0  0  0  0  0  0  0  0
   11.2686  -15.1000   22.9123 O   0  0  0  0  0  0  0  0  0  0  0  0
   14.6437  -18.5583   20.3782 O   0  0  0  0  0  0  0  0  0  0  0  0
    7.2629  -15.9461   25.0991 O   0  0  0  0  0  0  0  0  0  0  0  0
    8.2779  -15.0156   25.2606 C   0  0  0  0  0  0  0  0  0  0  0  0
    9.6537  -15.5829   25.1247 C   0  0  2  0  0  0  0  0  0  0  0  0
    9.8188  -16.4762   24.0157 N   0  0  0  0  0  0  0  0  0  0  0  0
    9.9084  -16.3914   26.3682 C   0  0  0  0  0  0  0  0  0  0  0  0
    9.8773  -15.8413   27.6373 O   0  0  0  0  0  0  0  0  0  0  0  0
   10.1581  -17.6116   26.2376 O   0  0  0  0  0  0  0  0  0  0  0  0
  1  2  1  0
  2  3  2  0
  4  2  1  0
  5  4  1  0
  5  6  1  1
  7  8  2  0
  7  5  1  0
  9  7  1  0
 10 11  1  6
 10  9  1  0
 11 12  1  0
 13 12  1  0
 13 17  1  0
 14 13  2  0
 15 10  1  0
 16 15  2  0
 19 18  1  0
 20 19  1  1
 20 21  1  0
 21 15  1  0
 22 23  1  0
 22 20  1  0
 24 22  2  0
M  END
$$$$
