YGG.pdb
     RDKit          3D

 21 21  0  0  1  0  0  0  0  0999 V2000
    6.3797  -11.5329   27.5859 O   0  0  0  0  0  0  0  0  0  0  0  0
    6.5966  -12.3138   26.4590 C   0  0  0  0  0  0  0  0  0  0  0  0
    7.0280  -13.6169   26.6028 C   0  0  0  0  0  0  0  0  0  0  0  0
    7.2532  -14.4210   25.4957 C   0  0  0  0  0  0  0  0  0  0  0  0
    7.0347  -13.8858   24.2305 C   0  0  0  0  0  0  0  0  0  0  0  0
    7.2568  -14.6901   23.0285 C   0  0  0  0  0  0  0  0  0  0  0  0
    8.7201  -14.7448   22.6220 C   0  0  2  0  0  0  0  0  0  0  0  0
    9.0717  -13.4732   22.0222 N   0  0  0  0  0  0  0  0  0  0  0  0
    8.9528  -15.8130   21.6141 C   0  0  0  0  0  0  0  0  0  0  0  0
    9.0944  -15.5225   20.3809 O   0  0  0  0  0  0  0  0  0  0  0  0
    6.6032  -12.5782   24.1245 C   0  0  0  0  0  0  0  0  0  0  0  0
    6.3753  -11.7671   25.2184 C   0  0  0  0  0  0  0  0  0  0  0  0
    9.0303  -17.1972   21.9567 N   0  0  0  0  0  0  0  0  0  0  0  0
    9.7764  -18.1751   21.1987 C   0  0  0  0  0  0  0  0  0  0  0  0
   11.2042  -18.2387   21.4903 C   0  0  0  0  0  0  0  0  0  0  0  0
   11.8656  -19.1401   20.8729 O   0  0  0  0  0  0  0  0  0  0  0  0
   11.9113  -17.3981   22.3840 N   0  0  0  0  0  0  0  0  0  0  0  0
   13.3463  -17.5664   22.5893 C   0  0  0  0  0  0  0  0  0  0  0  0
   13.6210  -17.7956   24.0307 C   0  0  0  0  0  0  0  0  0  0  0  0
   14.5998  -17.0102   24.6283 O   0  0  0  0  0  0  0  0  0  0  0  0
   12.9913  -18.6592   24.6612 O   0  0  0  0  0  0  0  0  0  0  0  0
  2  1  1  0
  3  2  2  0
  4  3  1  0
  5  4  2  0
  5 11  1  0
  6  5  1  0
  7  9  1  0
  7  8  1  6
  7  6  1  0
  9 13  1  0
 10  9  2  0
 11 12  2  0
 12  2  1  0
 13 14  1  0
 14 15  1  0
 15 16  2  0
 15 17  1  0
 17 18  1  0
 19 18  1  0
 19 20  1  0
 21 19  2  0
M  END
$$$$
