YGG.pdb
     RDKit          3D

 21 21  0  0  1  0  0  0  0  0999 V2000
    5.1921  -10.9342   26.9938 O   0  0  0  0  0  0  0  0  0  0  0  0
    5.9654  -11.9732   26.4948 C   0  0  0  0  0  0  0  0  0  0  0  0
    7.0967  -11.6901   25.7564 C   0  0  0  0  0  0  0  0  0  0  0  0
    7.8888  -12.7069   25.2450 C   0  0  0  0  0  0  0  0  0  0  0  0
    7.5191  -14.0250   25.4920 C   0  0  0  0  0  0  0  0  0  0  0  0
    8.3190  -15.1364   24.9760 C   0  0  0  0  0  0  0  0  0  0  0  0
    9.0967  -14.7669   23.7237 C   0  0  2  0  0  0  0  0  0  0  0  0
    8.1707  -14.7302   22.6095 N   0  0  0  0  0  0  0  0  0  0  0  0
   10.1403  -15.7835   23.4262 C   0  0  0  0  0  0  0  0  0  0  0  0
   11.0629  -16.0332   24.2698 O   0  0  0  0  0  0  0  0  0  0  0  0
    6.3811  -14.2709   26.2346 C   0  0  0  0  0  0  0  0  0  0  0  0
    5.5839  -13.2680   26.7494 C   0  0  0  0  0  0  0  0  0  0  0  0
   10.1730  -16.5253   22.2064 N   0  0  0  0  0  0  0  0  0  0  0  0
   11.2596  -17.3964   21.8211 C   0  0  0  0  0  0  0  0  0  0  0  0
   12.5775  -16.7731   21.7757 C   0  0  0  0  0  0  0  0  0  0  0  0
   12.8306  -16.0653   20.7432 O   0  0  0  0  0  0  0  0  0  0  0  0
   13.5857  -16.8810   22.7642 N   0  0  0  0  0  0  0  0  0  0  0  0
   14.8950  -16.2679   22.5648 C   0  0  0  0  0  0  0  0  0  0  0  0
   15.7421  -16.4986   23.7627 C   0  0  0  0  0  0  0  0  0  0  0  0
   17.0479  -16.0240   23.7240 O   0  0  0  0  0  0  0  0  0  0  0  0
   15.2849  -17.0940   24.7509 O   0  0  0  0  0  0  0  0  0  0  0  0
  2  1  1  0
  3  2  2  0
  4  3  1  0
  5  4  2  0
  5 11  1  0
  6  5  1  0
  7  9  1  0
  7  8  1  6
  7  6  1  0
  9 13  1  0
 10  9  2  0
 11 12  2  0
 12  2  1  0
 13 14  1  0
 14 15  1  0
 15 16  2  0
 15 17  1  0
 17 18  1  0
 19 18  1  0
 19 20  1  0
 21 19  2  0
M  END
$$$$
