YGG.pdb
     RDKit          3D

 21 21  0  0  1  0  0  0  0  0999 V2000
    5.8526  -11.4050   28.7529 O   0  0  0  0  0  0  0  0  0  0  0  0
    6.4332  -11.8887   27.5887 C   0  0  0  0  0  0  0  0  0  0  0  0
    5.8567  -11.6038   26.3675 C   0  0  0  0  0  0  0  0  0  0  0  0
    6.4139  -12.0731   25.1876 C   0  0  0  0  0  0  0  0  0  0  0  0
    7.5717  -12.8409   25.2591 C   0  0  0  0  0  0  0  0  0  0  0  0
    8.2013  -13.3614   24.0452 C   0  0  0  0  0  0  0  0  0  0  0  0
    7.3503  -14.4089   23.3464 C   0  0  2  0  0  0  0  0  0  0  0  0
    7.4268  -15.6381   24.1103 N   0  0  0  0  0  0  0  0  0  0  0  0
    7.8604  -14.6816   21.9767 C   0  0  0  0  0  0  0  0  0  0  0  0
    8.2677  -15.8462   21.6554 O   0  0  0  0  0  0  0  0  0  0  0  0
    8.1210  -13.1062   26.4982 C   0  0  0  0  0  0  0  0  0  0  0  0
    7.5763  -12.6451   27.6801 C   0  0  0  0  0  0  0  0  0  0  0  0
    7.9243  -13.6803   20.9605 N   0  0  0  0  0  0  0  0  0  0  0  0
    7.5539  -13.9052   19.5822 C   0  0  0  0  0  0  0  0  0  0  0  0
    8.6275  -14.3723   18.7122 C   0  0  0  0  0  0  0  0  0  0  0  0
    8.3784  -14.3705   17.4595 O   0  0  0  0  0  0  0  0  0  0  0  0
    9.9047  -14.8189   19.1297 N   0  0  0  0  0  0  0  0  0  0  0  0
   10.9026  -15.2439   18.1532 C   0  0  0  0  0  0  0  0  0  0  0  0
   12.0851  -15.8015   18.8579 C   0  0  0  0  0  0  0  0  0  0  0  0
   11.9652  -17.0762   19.3990 O   0  0  0  0  0  0  0  0  0  0  0  0
   13.1313  -15.1405   18.9504 O   0  0  0  0  0  0  0  0  0  0  0  0
  2  1  1  0
  3  2  2  0
  4  3  1  0
  5  4  2  0
  5 11  1  0
  6  5  1  0
  7  9  1  0
  7  8  1  1
  7  6  1  0
  9 13  1  0
 10  9  2  0
 11 12  2  0
 12  2  1  0
 13 14  1  0
 14 15  1  0
 15 16  2  0
 15 17  1  0
 17 18  1  0
 19 18  1  0
 19 20  1  0
 21 19  2  0
M  END
$$$$
