YGG.pdb
     RDKit          3D

 21 21  0  0  1  0  0  0  0  0999 V2000
    5.3081  -11.0465   28.0008 O   0  0  0  0  0  0  0  0  0  0  0  0
    6.0319  -11.8727   27.1523 C   0  0  0  0  0  0  0  0  0  0  0  0
    5.4890  -12.2542   25.9421 C   0  0  0  0  0  0  0  0  0  0  0  0
    6.1882  -13.0787   25.0737 C   0  0  0  0  0  0  0  0  0  0  0  0
    7.4544  -13.5164   25.4481 C   0  0  0  0  0  0  0  0  0  0  0  0
    8.2357  -14.3878   24.5698 C   0  0  0  0  0  0  0  0  0  0  0  0
    7.6066  -15.7602   24.3954 C   0  0  2  0  0  0  0  0  0  0  0  0
    7.5824  -16.4152   25.6880 N   0  0  0  0  0  0  0  0  0  0  0  0
    8.4084  -16.5988   23.4655 C   0  0  0  0  0  0  0  0  0  0  0  0
    9.3974  -17.2797   23.8941 O   0  0  0  0  0  0  0  0  0  0  0  0
    7.9661  -13.1148   26.6663 C   0  0  0  0  0  0  0  0  0  0  0  0
    7.2805  -12.2943   27.5399 C   0  0  0  0  0  0  0  0  0  0  0  0
    8.1273  -16.6914   22.0685 N   0  0  0  0  0  0  0  0  0  0  0  0
    9.1080  -17.0521   21.0706 C   0  0  0  0  0  0  0  0  0  0  0  0
   10.4090  -16.4069   21.2075 C   0  0  0  0  0  0  0  0  0  0  0  0
   10.6266  -15.4095   20.4399 O   0  0  0  0  0  0  0  0  0  0  0  0
   11.4364  -16.7833   22.1063 N   0  0  0  0  0  0  0  0  0  0  0  0
   12.7321  -16.1123   22.0821 C   0  0  0  0  0  0  0  0  0  0  0  0
   13.6273  -16.7179   23.1007 C   0  0  0  0  0  0  0  0  0  0  0  0
   13.1417  -17.8090   23.8117 O   0  0  0  0  0  0  0  0  0  0  0  0
   14.7618  -16.2544   23.2959 O   0  0  0  0  0  0  0  0  0  0  0  0
  2  1  1  0
  3  2  2  0
  4  3  1  0
  5  4  2  0
  5 11  1  0
  6  5  1  0
  7  9  1  0
  7  8  1  1
  7  6  1  0
  9 13  1  0
 10  9  2  0
 11 12  2  0
 12  2  1  0
 13 14  1  0
 14 15  1  0
 15 16  2  0
 15 17  1  0
 17 18  1  0
 19 18  1  0
 19 20  1  0
 21 19  2  0
M  END
$$$$
