YGG.pdb
     RDKit          3D

 21 21  0  0  1  0  0  0  0  0999 V2000
   10.8630  -15.1464   30.5315 O   0  0  0  0  0  0  0  0  0  0  0  0
   10.1655  -14.9348   29.3503 C   0  0  0  0  0  0  0  0  0  0  0  0
   10.1740  -13.6846   28.7656 C   0  0  0  0  0  0  0  0  0  0  0  0
    9.4866  -13.4432   27.5857 C   0  0  0  0  0  0  0  0  0  0  0  0
    8.7844  -14.4913   26.9996 C   0  0  0  0  0  0  0  0  0  0  0  0
    8.0419  -14.2917   25.7546 C   0  0  0  0  0  0  0  0  0  0  0  0
    8.2148  -15.4432   24.7781 C   0  0  2  0  0  0  0  0  0  0  0  0
    9.5057  -16.0549   25.0226 N   0  0  0  0  0  0  0  0  0  0  0  0
    8.1906  -14.9574   23.3729 C   0  0  0  0  0  0  0  0  0  0  0  0
    9.2684  -14.6098   22.7874 O   0  0  0  0  0  0  0  0  0  0  0  0
    8.7980  -15.7288   27.6126 C   0  0  0  0  0  0  0  0  0  0  0  0
    9.4781  -15.9824   28.7870 C   0  0  0  0  0  0  0  0  0  0  0  0
    6.9877  -14.8527   22.6105 N   0  0  0  0  0  0  0  0  0  0  0  0
    6.9470  -14.4796   21.2152 C   0  0  0  0  0  0  0  0  0  0  0  0
    7.7701  -15.2904   20.3248 C   0  0  0  0  0  0  0  0  0  0  0  0
    7.1529  -15.9030   19.3894 O   0  0  0  0  0  0  0  0  0  0  0  0
    9.1745  -15.4532   20.4047 N   0  0  0  0  0  0  0  0  0  0  0  0
    9.8820  -16.3066   19.4556 C   0  0  0  0  0  0  0  0  0  0  0  0
   11.3458  -16.2001   19.6832 C   0  0  0  0  0  0  0  0  0  0  0  0
   11.8645  -16.8211   20.8133 O   0  0  0  0  0  0  0  0  0  0  0  0
   12.0625  -15.5768   18.8846 O   0  0  0  0  0  0  0  0  0  0  0  0
  2  1  1  0
  3  2  2  0
  4  3  1  0
  5  4  2  0
  5 11  1  0
  6  5  1  0
  7  9  1  0
  7  8  1  1
  7  6  1  0
  9 13  1  0
 10  9  2  0
 11 12  2  0
 12  2  1  0
 13 14  1  0
 14 15  1  0
 15 16  2  0
 15 17  1  0
 17 18  1  0
 19 18  1  0
 19 20  1  0
 21 19  2  0
M  END
$$$$
