YGG.pdb
     RDKit          3D

 21 21  0  0  1  0  0  0  0  0999 V2000
    4.9973  -10.8450   27.2985 O   0  0  0  0  0  0  0  0  0  0  0  0
    5.8222  -11.8438   26.8002 C   0  0  0  0  0  0  0  0  0  0  0  0
    6.7689  -12.4220   27.6215 C   0  0  0  0  0  0  0  0  0  0  0  0
    7.6070  -13.4218   27.1518 C   0  0  0  0  0  0  0  0  0  0  0  0
    7.4745  -13.8331   25.8296 C   0  0  0  0  0  0  0  0  0  0  0  0
    8.3331  -14.8841   25.2825 C   0  0  0  0  0  0  0  0  0  0  0  0
    7.5440  -15.9913   24.6035 C   0  0  2  0  0  0  0  0  0  0  0  0
    6.5782  -16.5073   25.5529 N   0  0  0  0  0  0  0  0  0  0  0  0
    8.4368  -17.1086   24.1966 C   0  0  0  0  0  0  0  0  0  0  0  0
    8.1157  -18.3181   24.4402 O   0  0  0  0  0  0  0  0  0  0  0  0
    6.5165  -13.2324   25.0367 C   0  0  0  0  0  0  0  0  0  0  0  0
    5.6759  -12.2361   25.4918 C   0  0  0  0  0  0  0  0  0  0  0  0
    9.6793  -16.9011   23.5240 N   0  0  0  0  0  0  0  0  0  0  0  0
    9.8079  -16.2073   22.2631 C   0  0  0  0  0  0  0  0  0  0  0  0
   11.1752  -15.9476   21.8266 C   0  0  0  0  0  0  0  0  0  0  0  0
   11.3070  -15.4229   20.6696 O   0  0  0  0  0  0  0  0  0  0  0  0
   12.3526  -16.2203   22.5646 N   0  0  0  0  0  0  0  0  0  0  0  0
   13.6699  -16.0116   21.9721 C   0  0  0  0  0  0  0  0  0  0  0  0
   14.7225  -16.3315   22.9698 C   0  0  0  0  0  0  0  0  0  0  0  0
   14.3131  -16.8879   24.1759 O   0  0  0  0  0  0  0  0  0  0  0  0
   15.9164  -16.1039   22.7191 O   0  0  0  0  0  0  0  0  0  0  0  0
  2  1  1  0
  3  2  2  0
  4  3  1  0
  5  4  2  0
  5 11  1  0
  6  5  1  0
  7  9  1  0
  7  8  1  1
  7  6  1  0
  9 13  1  0
 10  9  2  0
 11 12  2  0
 12  2  1  0
 13 14  1  0
 14 15  1  0
 15 16  2  0
 15 17  1  0
 17 18  1  0
 19 18  1  0
 19 20  1  0
 21 19  2  0
M  END
$$$$
