YGG.pdb
     RDKit          3D

 21 21  0  0  1  0  0  0  0  0999 V2000
   10.6902  -15.4910   30.7189 O   0  0  0  0  0  0  0  0  0  0  0  0
   10.2837  -15.2548   29.4130 C   0  0  0  0  0  0  0  0  0  0  0  0
   10.2445  -16.2977   28.5097 C   0  0  0  0  0  0  0  0  0  0  0  0
    9.8427  -16.0923   27.1986 C   0  0  0  0  0  0  0  0  0  0  0  0
    9.4778  -14.8077   26.8091 C   0  0  0  0  0  0  0  0  0  0  0  0
    9.0460  -14.5351   25.4378 C   0  0  0  0  0  0  0  0  0  0  0  0
    7.6045  -14.9447   25.1849 C   0  0  2  0  0  0  0  0  0  0  0  0
    7.4336  -16.3084   25.6448 N   0  0  0  0  0  0  0  0  0  0  0  0
    7.2860  -14.9016   23.7331 C   0  0  0  0  0  0  0  0  0  0  0  0
    7.5162  -13.8509   23.0487 O   0  0  0  0  0  0  0  0  0  0  0  0
    9.5292  -13.7885   27.7395 C   0  0  0  0  0  0  0  0  0  0  0  0
    9.9273  -13.9794   29.0477 C   0  0  0  0  0  0  0  0  0  0  0  0
    6.7164  -16.0077   23.0322 N   0  0  0  0  0  0  0  0  0  0  0  0
    6.6517  -16.1031   21.5919 C   0  0  0  0  0  0  0  0  0  0  0  0
    7.8586  -16.6010   20.9413 C   0  0  0  0  0  0  0  0  0  0  0  0
    7.7719  -16.8212   19.6863 O   0  0  0  0  0  0  0  0  0  0  0  0
    9.1012  -16.8555   21.5709 N   0  0  0  0  0  0  0  0  0  0  0  0
   10.1856  -17.5087   20.8449 C   0  0  0  0  0  0  0  0  0  0  0  0
   11.1497  -16.4873   20.3622 C   0  0  0  0  0  0  0  0  0  0  0  0
   12.1275  -16.0591   21.2525 O   0  0  0  0  0  0  0  0  0  0  0  0
   11.0702  -16.0445   19.2056 O   0  0  0  0  0  0  0  0  0  0  0  0
  2  1  1  0
  3  2  2  0
  4  3  1  0
  5  4  2  0
  5 11  1  0
  6  5  1  0
  7  9  1  0
  7  8  1  6
  7  6  1  0
  9 13  1  0
 10  9  2  0
 11 12  2  0
 12  2  1  0
 13 14  1  0
 14 15  1  0
 15 16  2  0
 15 17  1  0
 17 18  1  0
 19 18  1  0
 19 20  1  0
 21 19  2  0
M  END
$$$$
