YGG.pdb
     RDKit          3D

 21 21  0  0  1  0  0  0  0  0999 V2000
    5.8877  -10.9934   28.2244 O   0  0  0  0  0  0  0  0  0  0  0  0
    6.4028  -11.8516   27.2628 C   0  0  0  0  0  0  0  0  0  0  0  0
    5.6511  -12.1580   26.1465 C   0  0  0  0  0  0  0  0  0  0  0  0
    6.1391  -13.0121   25.1692 C   0  0  0  0  0  0  0  0  0  0  0  0
    7.4079  -13.5572   25.3366 C   0  0  0  0  0  0  0  0  0  0  0  0
    7.9714  -14.4642   24.3361 C   0  0  0  0  0  0  0  0  0  0  0  0
    7.1014  -15.6873   24.0978 C   0  0  2  0  0  0  0  0  0  0  0  0
    7.0741  -16.4687   25.3180 N   0  0  0  0  0  0  0  0  0  0  0  0
    7.6636  -16.5375   23.0152 C   0  0  0  0  0  0  0  0  0  0  0  0
    8.3046  -17.6038   23.2936 O   0  0  0  0  0  0  0  0  0  0  0  0
    8.1317  -13.2285   26.4659 C   0  0  0  0  0  0  0  0  0  0  0  0
    7.6577  -12.3796   27.4462 C   0  0  0  0  0  0  0  0  0  0  0  0
    7.5238  -16.2200   21.6299 N   0  0  0  0  0  0  0  0  0  0  0  0
    8.0798  -17.0162   20.5600 C   0  0  0  0  0  0  0  0  0  0  0  0
    9.5221  -16.9003   20.3760 C   0  0  0  0  0  0  0  0  0  0  0  0
    9.9166  -16.5822   19.2036 O   0  0  0  0  0  0  0  0  0  0  0  0
   10.5090  -17.1044   21.3707 N   0  0  0  0  0  0  0  0  0  0  0  0
   11.9238  -16.9114   21.0690 C   0  0  0  0  0  0  0  0  0  0  0  0
   12.7241  -17.0607   22.3111 C   0  0  0  0  0  0  0  0  0  0  0  0
   12.8778  -18.3438   22.8229 O   0  0  0  0  0  0  0  0  0  0  0  0
   13.2287  -16.0672   22.8572 O   0  0  0  0  0  0  0  0  0  0  0  0
  2  1  1  0
  3  2  2  0
  4  3  1  0
  5  4  2  0
  5 11  1  0
  6  5  1  0
  7  9  1  0
  7  8  1  1
  7  6  1  0
  9 13  1  0
 10  9  2  0
 11 12  2  0
 12  2  1  0
 13 14  1  0
 14 15  1  0
 15 16  2  0
 15 17  1  0
 17 18  1  0
 19 18  1  0
 19 20  1  0
 21 19  2  0
M  END
$$$$
