YGG.pdb
     RDKit          3D

 21 21  0  0  1  0  0  0  0  0999 V2000
   10.6235  -15.1626   30.6446 O   0  0  0  0  0  0  0  0  0  0  0  0
   10.1033  -15.0028   29.3678 C   0  0  0  0  0  0  0  0  0  0  0  0
    9.8669  -13.7336   28.8796 C   0  0  0  0  0  0  0  0  0  0  0  0
    9.3479  -13.5427   27.6080 C   0  0  0  0  0  0  0  0  0  0  0  0
    9.0686  -14.6612   26.8296 C   0  0  0  0  0  0  0  0  0  0  0  0
    8.5199  -14.5171   25.4808 C   0  0  0  0  0  0  0  0  0  0  0  0
    7.5268  -15.6132   25.1318 C   0  0  2  0  0  0  0  0  0  0  0  0
    8.0523  -16.8728   25.6191 N   0  0  0  0  0  0  0  0  0  0  0  0
    7.3508  -15.7227   23.6594 C   0  0  0  0  0  0  0  0  0  0  0  0
    7.7232  -16.7712   23.0371 O   0  0  0  0  0  0  0  0  0  0  0  0
    9.3178  -15.9157   27.3505 C   0  0  0  0  0  0  0  0  0  0  0  0
    9.8342  -16.1196   28.6146 C   0  0  0  0  0  0  0  0  0  0  0  0
    6.7677  -14.6853   22.8700 N   0  0  0  0  0  0  0  0  0  0  0  0
    6.6341  -14.7440   21.4325 C   0  0  0  0  0  0  0  0  0  0  0  0
    7.8777  -14.9320   20.6939 C   0  0  0  0  0  0  0  0  0  0  0  0
    7.7782  -14.9587   19.4209 O   0  0  0  0  0  0  0  0  0  0  0  0
    9.1680  -15.0828   21.2575 N   0  0  0  0  0  0  0  0  0  0  0  0
   10.3449  -15.2103   20.4040 C   0  0  0  0  0  0  0  0  0  0  0  0
   11.0485  -16.4818   20.7103 C   0  0  0  0  0  0  0  0  0  0  0  0
   12.3980  -16.4045   21.0340 O   0  0  0  0  0  0  0  0  0  0  0  0
   10.4391  -17.5622   20.6736 O   0  0  0  0  0  0  0  0  0  0  0  0
  2  1  1  0
  3  2  2  0
  4  3  1  0
  5  4  2  0
  5 11  1  0
  6  5  1  0
  7  9  1  0
  7  8  1  6
  7  6  1  0
  9 13  1  0
 10  9  2  0
 11 12  2  0
 12  2  1  0
 13 14  1  0
 14 15  1  0
 15 16  2  0
 15 17  1  0
 17 18  1  0
 19 18  1  0
 19 20  1  0
 21 19  2  0
M  END
$$$$
