YGG.pdb
     RDKit          3D

 21 21  0  0  1  0  0  0  0  0999 V2000
    6.2687  -11.6155   27.9062 O   0  0  0  0  0  0  0  0  0  0  0  0
    6.5646  -12.2444   26.7048 C   0  0  0  0  0  0  0  0  0  0  0  0
    7.1637  -11.5289   25.6878 C   0  0  0  0  0  0  0  0  0  0  0  0
    7.4712  -12.1301   24.4767 C   0  0  0  0  0  0  0  0  0  0  0  0
    7.1625  -13.4756   24.3056 C   0  0  0  0  0  0  0  0  0  0  0  0
    7.4652  -14.1594   23.0478 C   0  0  0  0  0  0  0  0  0  0  0  0
    8.0720  -15.5364   23.2606 C   0  0  2  0  0  0  0  0  0  0  0  0
    9.3351  -15.3730   23.9521 N   0  0  0  0  0  0  0  0  0  0  0  0
    8.3384  -16.2071   21.9606 C   0  0  0  0  0  0  0  0  0  0  0  0
    7.3765  -16.5466   21.1959 O   0  0  0  0  0  0  0  0  0  0  0  0
    6.5634  -14.1601   25.3447 C   0  0  0  0  0  0  0  0  0  0  0  0
    6.2520  -13.5737   26.5552 C   0  0  0  0  0  0  0  0  0  0  0  0
    9.6565  -16.5056   21.4991 N   0  0  0  0  0  0  0  0  0  0  0  0
   10.1316  -17.8422   21.2246 C   0  0  0  0  0  0  0  0  0  0  0  0
   11.3145  -18.2535   21.9723 C   0  0  0  0  0  0  0  0  0  0  0  0
   11.1426  -18.4826   23.2170 O   0  0  0  0  0  0  0  0  0  0  0  0
   12.6181  -18.4208   21.4453 N   0  0  0  0  0  0  0  0  0  0  0  0
   13.7224  -18.8369   22.3038 C   0  0  0  0  0  0  0  0  0  0  0  0
   14.9783  -18.8876   21.5126 C   0  0  0  0  0  0  0  0  0  0  0  0
   14.9008  -18.5488   20.1668 O   0  0  0  0  0  0  0  0  0  0  0  0
   16.0463  -19.2216   22.0491 O   0  0  0  0  0  0  0  0  0  0  0  0
  2  1  1  0
  3  2  2  0
  4  3  1  0
  5  4  2  0
  5 11  1  0
  6  5  1  0
  7  9  1  0
  7  8  1  6
  7  6  1  0
  9 13  1  0
 10  9  2  0
 11 12  2  0
 12  2  1  0
 13 14  1  0
 14 15  1  0
 15 16  2  0
 15 17  1  0
 17 18  1  0
 19 18  1  0
 19 20  1  0
 21 19  2  0
M  END
$$$$
