YGG.pdb
     RDKit          3D

 21 21  0  0  1  0  0  0  0  0999 V2000
    9.4194  -11.9941   18.4166 O   0  0  0  0  0  0  0  0  0  0  0  0
    8.8011  -12.6392   19.4787 C   0  0  0  0  0  0  0  0  0  0  0  0
    7.4553  -12.9372   19.4079 C   0  0  0  0  0  0  0  0  0  0  0  0
    6.8104  -13.5810   20.4530 C   0  0  0  0  0  0  0  0  0  0  0  0
    7.5501  -13.9226   21.5804 C   0  0  0  0  0  0  0  0  0  0  0  0
    6.9196  -14.6030   22.7121 C   0  0  0  0  0  0  0  0  0  0  0  0
    7.4358  -16.0191   22.9062 C   0  0  2  0  0  0  0  0  0  0  0  0
    7.3011  -16.7269   21.6487 N   0  0  0  0  0  0  0  0  0  0  0  0
    6.6374  -16.7406   23.9323 C   0  0  0  0  0  0  0  0  0  0  0  0
    5.8165  -17.6547   23.5918 O   0  0  0  0  0  0  0  0  0  0  0  0
    8.8945  -13.6089   21.6166 C   0  0  0  0  0  0  0  0  0  0  0  0
    9.5486  -12.9683   20.5832 C   0  0  0  0  0  0  0  0  0  0  0  0
    6.7381  -16.4612   25.3291 N   0  0  0  0  0  0  0  0  0  0  0  0
    7.7550  -17.0176   26.1917 C   0  0  0  0  0  0  0  0  0  0  0  0
    7.6426  -18.4484   26.4521 C   0  0  0  0  0  0  0  0  0  0  0  0
    6.4807  -18.8738   26.7684 O   0  0  0  0  0  0  0  0  0  0  0  0
    8.6945  -19.3939   26.3831 N   0  0  0  0  0  0  0  0  0  0  0  0
   10.0793  -18.9866   26.5978 C   0  0  0  0  0  0  0  0  0  0  0  0
   10.2742  -18.6102   28.0212 C   0  0  0  0  0  0  0  0  0  0  0  0
   10.8201  -19.5682   28.8674 O   0  0  0  0  0  0  0  0  0  0  0  0
    9.9561  -17.4796   28.4218 O   0  0  0  0  0  0  0  0  0  0  0  0
  2  1  1  0
  3  2  2  0
  4  3  1  0
  5  4  2  0
  5 11  1  0
  6  5  1  0
  7  9  1  0
  7  8  1  6
  7  6  1  0
  9 13  1  0
 10  9  2  0
 11 12  2  0
 12  2  1  0
 13 14  1  0
 14 15  1  0
 15 16  2  0
 15 17  1  0
 17 18  1  0
 19 18  1  0
 19 20  1  0
 21 19  2  0
M  END
$$$$
