YGG.pdb
     RDKit          3D

 21 21  0  0  1  0  0  0  0  0999 V2000
    5.9013  -10.8348   27.9052 O   0  0  0  0  0  0  0  0  0  0  0  0
    6.4986  -11.7707   27.0723 C   0  0  0  0  0  0  0  0  0  0  0  0
    7.4112  -12.6657   27.5929 C   0  0  0  0  0  0  0  0  0  0  0  0
    8.0241  -13.6120   26.7856 C   0  0  0  0  0  0  0  0  0  0  0  0
    7.6994  -13.6419   25.4333 C   0  0  0  0  0  0  0  0  0  0  0  0
    8.3164  -14.6196   24.5363 C   0  0  0  0  0  0  0  0  0  0  0  0
    7.3412  -15.6911   24.0773 C   0  0  2  0  0  0  0  0  0  0  0  0
    7.0055  -16.5176   25.2194 N   0  0  0  0  0  0  0  0  0  0  0  0
    7.9561  -16.5611   23.0400 C   0  0  0  0  0  0  0  0  0  0  0  0
    8.1256  -17.8064   23.2542 O   0  0  0  0  0  0  0  0  0  0  0  0
    6.7821  -12.7312   24.9470 C   0  0  0  0  0  0  0  0  0  0  0  0
    6.1649  -11.7843   25.7398 C   0  0  0  0  0  0  0  0  0  0  0  0
    8.3847  -16.0677   21.7703 N   0  0  0  0  0  0  0  0  0  0  0  0
    9.0476  -16.8759   20.7729 C   0  0  0  0  0  0  0  0  0  0  0  0
   10.3823  -17.3435   21.1301 C   0  0  0  0  0  0  0  0  0  0  0  0
   11.0810  -17.8325   20.1793 O   0  0  0  0  0  0  0  0  0  0  0  0
   10.9635  -17.3009   22.4207 N   0  0  0  0  0  0  0  0  0  0  0  0
   12.2739  -17.8933   22.6690 C   0  0  0  0  0  0  0  0  0  0  0  0
   13.3052  -16.8254   22.7091 C   0  0  0  0  0  0  0  0  0  0  0  0
   14.6175  -17.2122   22.9544 O   0  0  0  0  0  0  0  0  0  0  0  0
   12.9892  -15.6390   22.5284 O   0  0  0  0  0  0  0  0  0  0  0  0
  2  1  1  0
  3  2  2  0
  4  3  1  0
  5  4  2  0
  5 11  1  0
  6  5  1  0
  7  9  1  0
  7  8  1  1
  7  6  1  0
  9 13  1  0
 10  9  2  0
 11 12  2  0
 12  2  1  0
 13 14  1  0
 14 15  1  0
 15 16  2  0
 15 17  1  0
 17 18  1  0
 19 18  1  0
 19 20  1  0
 21 19  2  0
M  END
$$$$
