YGG.pdb
     RDKit          3D

 21 21  0  0  1  0  0  0  0  0999 V2000
   10.6349  -15.5771   30.9058 O   0  0  0  0  0  0  0  0  0  0  0  0
   10.2875  -15.3103   29.5888 C   0  0  0  0  0  0  0  0  0  0  0  0
    9.9327  -14.0280   29.2216 C   0  0  0  0  0  0  0  0  0  0  0  0
    9.5809  -13.7311   27.9135 C   0  0  0  0  0  0  0  0  0  0  0  0
    9.5925  -14.7564   26.9735 C   0  0  0  0  0  0  0  0  0  0  0  0
    9.2301  -14.4986   25.5795 C   0  0  0  0  0  0  0  0  0  0  0  0
    7.7522  -14.7249   25.3066 C   0  0  2  0  0  0  0  0  0  0  0  0
    7.4495  -16.1162   25.5767 N   0  0  0  0  0  0  0  0  0  0  0  0
    7.4253  -14.4472   23.8830 C   0  0  0  0  0  0  0  0  0  0  0  0
    7.7168  -13.3229   23.3572 O   0  0  0  0  0  0  0  0  0  0  0  0
    9.9528  -16.0272   27.3766 C   0  0  0  0  0  0  0  0  0  0  0  0
   10.3051  -16.3361   28.6753 C   0  0  0  0  0  0  0  0  0  0  0  0
    6.7801  -15.3994   23.0366 N   0  0  0  0  0  0  0  0  0  0  0  0
    6.6535  -15.2507   21.6050 C   0  0  0  0  0  0  0  0  0  0  0  0
    7.8135  -15.6690   20.8258 C   0  0  0  0  0  0  0  0  0  0  0  0
    7.7001  -15.5833   19.5565 O   0  0  0  0  0  0  0  0  0  0  0  0
    9.0381  -16.1526   21.3469 N   0  0  0  0  0  0  0  0  0  0  0  0
   10.1093  -16.5859   20.4555 C   0  0  0  0  0  0  0  0  0  0  0  0
   11.3904  -15.9621   20.8741 C   0  0  0  0  0  0  0  0  0  0  0  0
   12.3618  -15.7782   19.8972 O   0  0  0  0  0  0  0  0  0  0  0  0
   11.5691  -15.6244   22.0548 O   0  0  0  0  0  0  0  0  0  0  0  0
  2  1  1  0
  3  2  2  0
  4  3  1  0
  5  4  2  0
  5 11  1  0
  6  5  1  0
  7  9  1  0
  7  8  1  6
  7  6  1  0
  9 13  1  0
 10  9  2  0
 11 12  2  0
 12  2  1  0
 13 14  1  0
 14 15  1  0
 15 16  2  0
 15 17  1  0
 17 18  1  0
 19 18  1  0
 19 20  1  0
 21 19  2  0
M  END
$$$$
