YGG.pdb
     RDKit          3D

 21 21  0  0  1  0  0  0  0  0999 V2000
   11.1540  -15.1172   29.8303 O   0  0  0  0  0  0  0  0  0  0  0  0
   10.3962  -14.9094   28.6862 C   0  0  0  0  0  0  0  0  0  0  0  0
    9.8820  -15.9913   28.0007 C   0  0  0  0  0  0  0  0  0  0  0  0
    9.1214  -15.8149   26.8547 C   0  0  0  0  0  0  0  0  0  0  0  0
    8.8854  -14.5191   26.4070 C   0  0  0  0  0  0  0  0  0  0  0  0
    8.0895  -14.2759   25.2035 C   0  0  0  0  0  0  0  0  0  0  0  0
    7.9057  -15.5264   24.3597 C   0  0  2  0  0  0  0  0  0  0  0  0
    9.2123  -15.9708   23.9175 N   0  0  0  0  0  0  0  0  0  0  0  0
    7.0815  -15.2396   23.1558 C   0  0  0  0  0  0  0  0  0  0  0  0
    5.9601  -14.6428   23.2637 O   0  0  0  0  0  0  0  0  0  0  0  0
    9.4155  -13.4606   27.1181 C   0  0  0  0  0  0  0  0  0  0  0  0
   10.1743  -13.6224   28.2601 C   0  0  0  0  0  0  0  0  0  0  0  0
    7.4851  -15.6060   21.8359 N   0  0  0  0  0  0  0  0  0  0  0  0
    7.2044  -14.8170   20.6584 C   0  0  0  0  0  0  0  0  0  0  0  0
    8.3194  -14.0227   20.1550 C   0  0  0  0  0  0  0  0  0  0  0  0
    8.1425  -13.4572   19.0235 O   0  0  0  0  0  0  0  0  0  0  0  0
    9.5626  -13.8250   20.8034 N   0  0  0  0  0  0  0  0  0  0  0  0
   10.7422  -13.4169   20.0472 C   0  0  0  0  0  0  0  0  0  0  0  0
   11.5710  -14.6086   19.7332 C   0  0  0  0  0  0  0  0  0  0  0  0
   12.7884  -14.3921   19.0985 O   0  0  0  0  0  0  0  0  0  0  0  0
   11.1758  -15.7461   20.0333 O   0  0  0  0  0  0  0  0  0  0  0  0
  2  1  1  0
  3  2  2  0
  4  3  1  0
  5  4  2  0
  5 11  1  0
  6  5  1  0
  7  9  1  0
  7  8  1  6
  7  6  1  0
  9 13  1  0
 10  9  2  0
 11 12  2  0
 12  2  1  0
 13 14  1  0
 14 15  1  0
 15 16  2  0
 15 17  1  0
 17 18  1  0
 19 18  1  0
 19 20  1  0
 21 19  2  0
M  END
$$$$
