YPR.pdb
     RDKit          3D

 31 32  0  0  1  0  0  0  0  0999 V2000
   11.7374  -15.4629   31.9917 O   0  0  0  0  0  0  0  0  0  0  0  0
   11.1309  -15.6700   30.7594 C   0  0  0  0  0  0  0  0  0  0  0  0
   10.7651  -14.6190   29.9822 C   0  0  0  0  0  0  0  0  0  0  0  0
   10.1686  -14.8580   28.7711 C   0  0  0  0  0  0  0  0  0  0  0  0
    9.9323  -16.1315   28.3248 C   0  0  0  0  0  0  0  0  0  0  0  0
    9.2824  -16.3270   27.0032 C   0  0  0  0  0  0  0  0  0  0  0  0
    7.7705  -16.3713   27.1355 C   0  0  2  0  0  0  0  0  0  0  0  0
    7.3717  -17.6987   27.4310 N   0  0  0  0  0  0  0  0  0  0  0  0
    7.0778  -15.6923   26.0416 C   0  0  0  0  0  0  0  0  0  0  0  0
    6.2693  -16.3967   25.3365 O   0  0  0  0  0  0  0  0  0  0  0  0
   10.2996  -17.1975   29.1046 C   0  0  0  0  0  0  0  0  0  0  0  0
   10.8997  -16.9591   30.3242 C   0  0  0  0  0  0  0  0  0  0  0  0
    7.2028  -14.3317   25.6698 N   0  0  0  0  0  0  0  0  0  0  0  0
    7.8964  -13.2359   26.2878 C   0  0  0  0  0  0  0  0  0  0  0  0
    6.9158  -12.0929   26.1020 C   0  0  0  0  0  0  0  0  0  0  0  0
    6.0580  -12.4567   24.9352 C   0  0  0  0  0  0  0  0  0  0  0  0
    6.5929  -13.7656   24.4774 C   0  0  1  0  0  0  0  0  0  0  0  0
    7.5770  -13.5587   23.3978 C   0  0  0  0  0  0  0  0  0  0  0  0
    8.8014  -13.3282   23.6629 O   0  0  0  0  0  0  0  0  0  0  0  0
    4.1783  -19.7848   20.7121 N   0  0  0  0  0  0  0  0  0  0  0  0
    5.3773  -19.9891   19.9762 C   0  0  0  0  0  0  0  0  0  0  0  0
    5.6303  -21.2159   19.6187 N   0  0  0  0  0  0  0  0  0  0  0  0
    6.2694  -18.9211   19.6354 N   0  0  0  0  0  0  0  0  0  0  0  0
    5.9978  -17.6089   20.1906 C   0  0  0  0  0  0  0  0  0  0  0  0
    6.9905  -16.5835   19.7777 C   0  0  0  0  0  0  0  0  0  0  0  0
    6.7439  -15.1918   20.2264 C   0  0  0  0  0  0  0  0  0  0  0  0
    7.7730  -14.5867   21.1166 C   0  0  2  0  0  0  0  0  0  0  0  0
    7.2008  -13.6091   22.0375 N   0  0  0  0  0  0  0  0  0  0  0  0
    8.7900  -13.8265   20.2953 C   0  0  0  0  0  0  0  0  0  0  0  0
    9.4976  -14.4516   19.4667 O   0  0  0  0  0  0  0  0  0  0  0  0
    8.9813  -12.4621   20.4138 O   0  0  0  0  0  0  0  0  0  0  0  0
  2  1  1  0
  3  2  2  0
  4  3  1  0
  5  4  2  0
  5 11  1  0
  6  5  1  0
  7  8  1  6
  7  6  1  0
  9  7  1  0
 10  9  2  0
 11 12  2  0
 12  2  1  0
 13  9  1  0
 13 14  1  0
 14 15  1  0
 16 17  1  0
 16 15  1  0
 17 13  1  0
 17 18  1  6
 19 18  2  0
 20 21  1  0
 21 22  2  0
 23 24  1  0
 23 21  1  0
 24 25  1  0
 26 25  1  0
 27 26  1  6
 27 28  1  0
 28 18  1  0
 29 27  1  0
 29 31  1  0
 30 29  2  0
M  END
$$$$
