YPR.pdb
     RDKit          3D

 31 32  0  0  1  0  0  0  0  0999 V2000
   10.9731  -14.6513   29.8544 O   0  0  0  0  0  0  0  0  0  0  0  0
   10.0699  -14.5251   28.8067 C   0  0  0  0  0  0  0  0  0  0  0  0
    9.3262  -13.3985   28.6653 C   0  0  0  0  0  0  0  0  0  0  0  0
    8.4439  -13.3058   27.6200 C   0  0  0  0  0  0  0  0  0  0  0  0
    8.2936  -14.3222   26.7137 C   0  0  0  0  0  0  0  0  0  0  0  0
    7.3212  -14.1633   25.6017 C   0  0  0  0  0  0  0  0  0  0  0  0
    6.7756  -15.5071   25.1526 C   0  0  2  0  0  0  0  0  0  0  0  0
    6.7360  -16.3843   26.2648 N   0  0  0  0  0  0  0  0  0  0  0  0
    7.4061  -16.0038   23.9307 C   0  0  0  0  0  0  0  0  0  0  0  0
    7.5441  -17.2750   23.8205 O   0  0  0  0  0  0  0  0  0  0  0  0
    9.0420  -15.4627   26.8504 C   0  0  0  0  0  0  0  0  0  0  0  0
    9.9303  -15.5581   27.9021 C   0  0  0  0  0  0  0  0  0  0  0  0
    7.8873  -15.2304   22.8464 N   0  0  0  0  0  0  0  0  0  0  0  0
    8.0461  -13.8118   22.6857 C   0  0  0  0  0  0  0  0  0  0  0  0
    7.5973  -13.6015   21.2515 C   0  0  0  0  0  0  0  0  0  0  0  0
    7.7801  -14.9095   20.5548 C   0  0  0  0  0  0  0  0  0  0  0  0
    8.3523  -15.8047   21.5942 C   0  0  1  0  0  0  0  0  0  0  0  0
    9.8248  -15.8094   21.5008 C   0  0  0  0  0  0  0  0  0  0  0  0
   10.5264  -14.9867   22.1743 O   0  0  0  0  0  0  0  0  0  0  0  0
    9.0539  -22.7648   21.1677 N   0  0  0  0  0  0  0  0  0  0  0  0
   10.2891  -22.5339   21.8323 C   0  0  0  0  0  0  0  0  0  0  0  0
   11.0707  -23.5671   21.9678 N   0  0  0  0  0  0  0  0  0  0  0  0
   10.6724  -21.2467   22.3310 N   0  0  0  0  0  0  0  0  0  0  0  0
   12.0658  -20.8620   22.2118 C   0  0  0  0  0  0  0  0  0  0  0  0
   12.3427  -20.0361   21.0083 C   0  0  0  0  0  0  0  0  0  0  0  0
   11.3183  -19.0317   20.6334 C   0  0  0  0  0  0  0  0  0  0  0  0
   11.4882  -17.6642   21.1979 C   0  0  2  0  0  0  0  0  0  0  0  0
   10.5078  -16.7217   20.6669 N   0  0  0  0  0  0  0  0  0  0  0  0
   12.8400  -17.1063   20.8131 C   0  0  0  0  0  0  0  0  0  0  0  0
   13.8786  -17.6926   21.2079 O   0  0  0  0  0  0  0  0  0  0  0  0
   12.9901  -15.9697   20.0400 O   0  0  0  0  0  0  0  0  0  0  0  0
  2  1  1  0
  3  2  2  0
  4  3  1  0
  5  4  2  0
  5 11  1  0
  6  5  1  0
  7  8  1  1
  7  6  1  0
  9  7  1  0
 10  9  2  0
 11 12  2  0
 12  2  1  0
 13  9  1  0
 13 14  1  0
 14 15  1  0
 16 17  1  0
 16 15  1  0
 17 13  1  0
 17 18  1  1
 19 18  2  0
 20 21  1  0
 21 22  2  0
 23 24  1  0
 23 21  1  0
 24 25  1  0
 26 25  1  0
 27 26  1  6
 27 28  1  0
 28 18  1  0
 29 27  1  0
 29 31  1  0
 30 29  2  0
M  END
$$$$
