YPR.pdb
     RDKit          3D

 31 32  0  0  1  0  0  0  0  0999 V2000
    7.6359  -12.7418   16.0690 O   0  0  0  0  0  0  0  0  0  0  0  0
    7.6218  -13.1602   17.3934 C   0  0  0  0  0  0  0  0  0  0  0  0
    7.2900  -14.4370   17.7129 C   0  0  0  0  0  0  0  0  0  0  0  0
    7.2860  -14.8179   19.0299 C   0  0  0  0  0  0  0  0  0  0  0  0
    7.6087  -13.9419   20.0326 C   0  0  0  0  0  0  0  0  0  0  0  0
    7.5864  -14.4134   21.4414 C   0  0  0  0  0  0  0  0  0  0  0  0
    8.9784  -14.3992   22.0477 C   0  0  2  0  0  0  0  0  0  0  0  0
    9.8957  -14.9358   21.1103 N   0  0  0  0  0  0  0  0  0  0  0  0
    9.0187  -14.9369   23.4066 C   0  0  0  0  0  0  0  0  0  0  0  0
   10.0184  -15.6823   23.7097 O   0  0  0  0  0  0  0  0  0  0  0  0
    7.9451  -12.6510   19.7169 C   0  0  0  0  0  0  0  0  0  0  0  0
    7.9493  -12.2656   18.3919 C   0  0  0  0  0  0  0  0  0  0  0  0
    8.0672  -14.7256   24.4339 N   0  0  0  0  0  0  0  0  0  0  0  0
    6.7712  -14.1061   24.4182 C   0  0  0  0  0  0  0  0  0  0  0  0
    6.7732  -13.3304   25.7222 C   0  0  0  0  0  0  0  0  0  0  0  0
    7.7632  -14.0042   26.6140 C   0  0  0  0  0  0  0  0  0  0  0  0
    8.2640  -15.1499   25.8106 C   0  0  1  0  0  0  0  0  0  0  0  0
    7.4921  -16.3660   26.1304 C   0  0  0  0  0  0  0  0  0  0  0  0
    6.3055  -16.5221   25.6942 O   0  0  0  0  0  0  0  0  0  0  0  0
   10.6880  -21.7344   30.4598 N   0  0  0  0  0  0  0  0  0  0  0  0
   11.3616  -20.5028   30.2356 C   0  0  0  0  0  0  0  0  0  0  0  0
   11.4228  -19.6882   31.2502 N   0  0  0  0  0  0  0  0  0  0  0  0
   11.9476  -20.1580   28.9746 N   0  0  0  0  0  0  0  0  0  0  0  0
   11.1430  -20.3400   27.7816 C   0  0  0  0  0  0  0  0  0  0  0  0
    9.8300  -19.6483   27.8518 C   0  0  0  0  0  0  0  0  0  0  0  0
    9.0210  -19.6165   26.6096 C   0  0  0  0  0  0  0  0  0  0  0  0
    7.7725  -18.8057   26.6483 C   0  0  2  0  0  0  0  0  0  0  0  0
    8.0370  -17.3972   26.9266 N   0  0  0  0  0  0  0  0  0  0  0  0
    6.8770  -19.2817   27.7700 C   0  0  0  0  0  0  0  0  0  0  0  0
    6.7715  -18.5814   28.8075 O   0  0  0  0  0  0  0  0  0  0  0  0
    6.1615  -20.4634   27.7087 O   0  0  0  0  0  0  0  0  0  0  0  0
  2  1  1  0
  3  2  2  0
  4  3  1  0
  5  4  2  0
  5 11  1  0
  6  5  1  0
  7  8  1  6
  7  6  1  0
  9  7  1  0
 10  9  2  0
 11 12  2  0
 12  2  1  0
 13  9  1  0
 13 14  1  0
 14 15  1  0
 16 17  1  0
 16 15  1  0
 17 13  1  0
 17 18  1  1
 19 18  2  0
 20 21  1  0
 21 22  2  0
 23 24  1  0
 23 21  1  0
 24 25  1  0
 26 25  1  0
 27 26  1  1
 27 28  1  0
 28 18  1  0
 29 27  1  0
 29 31  1  0
 30 29  2  0
M  END
$$$$
