YPR.pdb
     RDKit          3D

 31 32  0  0  1  0  0  0  0  0999 V2000
   11.0559  -13.5139   28.6978 O   0  0  0  0  0  0  0  0  0  0  0  0
    9.9182  -13.9004   28.0008 C   0  0  0  0  0  0  0  0  0  0  0  0
    9.1327  -14.9072   28.4609 C   0  0  0  0  0  0  0  0  0  0  0  0
    8.0166  -15.2640   27.7491 C   0  0  0  0  0  0  0  0  0  0  0  0
    7.6737  -14.6298   26.5842 C   0  0  0  0  0  0  0  0  0  0  0  0
    6.4521  -15.0613   25.8570 C   0  0  0  0  0  0  0  0  0  0  0  0
    6.5673  -16.5035   25.3966 C   0  0  2  0  0  0  0  0  0  0  0  0
    6.7531  -17.3360   26.5282 N   0  0  0  0  0  0  0  0  0  0  0  0
    7.4932  -16.6775   24.2786 C   0  0  0  0  0  0  0  0  0  0  0  0
    8.0228  -17.8376   24.1347 O   0  0  0  0  0  0  0  0  0  0  0  0
    8.4625  -13.6118   26.1140 C   0  0  0  0  0  0  0  0  0  0  0  0
    9.5865  -13.2515   26.8289 C   0  0  0  0  0  0  0  0  0  0  0  0
    7.8749  -15.6983   23.3295 N   0  0  0  0  0  0  0  0  0  0  0  0
    7.5775  -14.2959   23.2367 C   0  0  0  0  0  0  0  0  0  0  0  0
    7.3491  -14.1167   21.7474 C   0  0  0  0  0  0  0  0  0  0  0  0
    8.0794  -15.2294   21.0703 C   0  0  0  0  0  0  0  0  0  0  0  0
    8.7212  -15.9796   22.1813 C   0  0  1  0  0  0  0  0  0  0  0  0
   10.1024  -15.5008   22.3815 C   0  0  0  0  0  0  0  0  0  0  0  0
   10.3362  -14.2895   22.6986 O   0  0  0  0  0  0  0  0  0  0  0  0
   11.0894  -19.9529   29.0515 N   0  0  0  0  0  0  0  0  0  0  0  0
   10.8377  -19.6892   27.6775 C   0  0  0  0  0  0  0  0  0  0  0  0
    9.5857  -19.6506   27.3197 N   0  0  0  0  0  0  0  0  0  0  0  0
   11.8856  -19.4741   26.7246 N   0  0  0  0  0  0  0  0  0  0  0  0
   12.2006  -18.1055   26.3620 C   0  0  0  0  0  0  0  0  0  0  0  0
   11.8995  -17.7939   24.9410 C   0  0  0  0  0  0  0  0  0  0  0  0
   12.1521  -16.4039   24.4906 C   0  0  0  0  0  0  0  0  0  0  0  0
   12.4180  -16.2123   23.0379 C   0  0  2  0  0  0  0  0  0  0  0  0
   11.2108  -16.3629   22.2309 N   0  0  0  0  0  0  0  0  0  0  0  0
   13.3760  -17.2709   22.5398 C   0  0  0  0  0  0  0  0  0  0  0  0
   14.5703  -17.2469   22.9287 O   0  0  0  0  0  0  0  0  0  0  0  0
   12.9974  -18.2746   21.6672 O   0  0  0  0  0  0  0  0  0  0  0  0
  2  1  1  0
  3  2  2  0
  4  3  1  0
  5  4  2  0
  5 11  1  0
  6  5  1  0
  7  8  1  1
  7  6  1  0
  9  7  1  0
 10  9  2  0
 11 12  2  0
 12  2  1  0
 13  9  1  0
 13 14  1  0
 14 15  1  0
 16 17  1  0
 16 15  1  0
 17 13  1  0
 17 18  1  1
 19 18  2  0
 20 21  1  0
 21 22  2  0
 23 24  1  0
 23 21  1  0
 24 25  1  0
 26 25  1  0
 27 26  1  1
 27 28  1  0
 28 18  1  0
 29 27  1  0
 29 31  1  0
 30 29  2  0
M  END
$$$$
