YPR.pdb
     RDKit          3D

 31 32  0  0  1  0  0  0  0  0999 V2000
    4.5694  -20.0159   12.8108 O   0  0  0  0  0  0  0  0  0  0  0  0
    5.3290  -19.4203   13.8096 C   0  0  0  0  0  0  0  0  0  0  0  0
    4.7305  -18.7774   14.8445 C   0  0  0  0  0  0  0  0  0  0  0  0
    5.5093  -18.2002   15.8140 C   0  0  0  0  0  0  0  0  0  0  0  0
    6.8773  -18.2558   15.7650 C   0  0  0  0  0  0  0  0  0  0  0  0
    7.6676  -17.6112   16.8453 C   0  0  0  0  0  0  0  0  0  0  0  0
    8.1921  -16.2551   16.4081 C   0  0  2  0  0  0  0  0  0  0  0  0
    8.8725  -16.3994   15.1734 N   0  0  0  0  0  0  0  0  0  0  0  0
    8.8869  -15.5365   17.4750 C   0  0  0  0  0  0  0  0  0  0  0  0
   10.1687  -15.5049   17.4186 O   0  0  0  0  0  0  0  0  0  0  0  0
    7.4881  -18.9039   14.7227 C   0  0  0  0  0  0  0  0  0  0  0  0
    6.7060  -19.4851   13.7456 C   0  0  0  0  0  0  0  0  0  0  0  0
    8.2968  -14.8670   18.5745 N   0  0  0  0  0  0  0  0  0  0  0  0
    6.9222  -14.6666   18.9405 C   0  0  0  0  0  0  0  0  0  0  0  0
    6.9310  -13.2332   19.4383 C   0  0  0  0  0  0  0  0  0  0  0  0
    8.3332  -12.9400   19.8595 C   0  0  0  0  0  0  0  0  0  0  0  0
    9.0637  -14.2124   19.6220 C   0  0  1  0  0  0  0  0  0  0  0  0
    9.1012  -15.0115   20.8618 C   0  0  0  0  0  0  0  0  0  0  0  0
    8.0437  -15.5472   21.3279 O   0  0  0  0  0  0  0  0  0  0  0  0
   17.0527  -17.2636   22.2423 N   0  0  0  0  0  0  0  0  0  0  0  0
   16.4536  -16.4994   23.2806 C   0  0  0  0  0  0  0  0  0  0  0  0
   17.1867  -16.2910   24.3370 N   0  0  0  0  0  0  0  0  0  0  0  0
   15.1224  -15.9779   23.1902 N   0  0  0  0  0  0  0  0  0  0  0  0
   14.2118  -16.6050   22.2513 C   0  0  0  0  0  0  0  0  0  0  0  0
   12.8695  -15.9689   22.2263 C   0  0  0  0  0  0  0  0  0  0  0  0
   11.7524  -16.7351   22.8296 C   0  0  0  0  0  0  0  0  0  0  0  0
   10.3907  -16.1488   22.6902 C   0  0  2  0  0  0  0  0  0  0  0  0
   10.3042  -15.2121   21.5737 N   0  0  0  0  0  0  0  0  0  0  0  0
   10.0404  -15.3466   23.9233 C   0  0  0  0  0  0  0  0  0  0  0  0
    9.9433  -14.0974   23.8331 O   0  0  0  0  0  0  0  0  0  0  0  0
    9.8200  -15.9276   25.1586 O   0  0  0  0  0  0  0  0  0  0  0  0
  2  1  1  0
  3  2  2  0
  4  3  1  0
  5  4  2  0
  5 11  1  0
  6  5  1  0
  7  8  1  6
  7  6  1  0
  9  7  1  0
 10  9  2  0
 11 12  2  0
 12  2  1  0
 13  9  1  0
 13 14  1  0
 14 15  1  0
 16 17  1  0
 16 15  1  0
 17 13  1  0
 17 18  1  1
 19 18  2  0
 20 21  1  0
 21 22  2  0
 23 24  1  0
 23 21  1  0
 24 25  1  0
 26 25  1  0
 27 26  1  1
 27 28  1  0
 28 18  1  0
 29 27  1  0
 29 31  1  0
 30 29  2  0
M  END
$$$$
