YPR.pdb
     RDKit          3D

 31 32  0  0  1  0  0  0  0  0999 V2000
    8.9519  -12.2974   16.8865 O   0  0  0  0  0  0  0  0  0  0  0  0
    8.3342  -13.1102   17.8284 C   0  0  0  0  0  0  0  0  0  0  0  0
    8.8521  -14.3254   18.1409 C   0  0  0  0  0  0  0  0  0  0  0  0
    8.2179  -15.1030   19.0751 C   0  0  0  0  0  0  0  0  0  0  0  0
    7.0739  -14.6845   19.7020 C   0  0  0  0  0  0  0  0  0  0  0  0
    6.4320  -15.5719   20.7059 C   0  0  0  0  0  0  0  0  0  0  0  0
    7.3986  -16.6341   21.1983 C   0  0  2  0  0  0  0  0  0  0  0  0
    6.6615  -17.6924   21.7857 N   0  0  0  0  0  0  0  0  0  0  0  0
    8.5116  -16.0845   21.9707 C   0  0  0  0  0  0  0  0  0  0  0  0
    9.5283  -15.6635   21.3105 O   0  0  0  0  0  0  0  0  0  0  0  0
    6.5457  -13.4581   19.3914 C   0  0  0  0  0  0  0  0  0  0  0  0
    7.1823  -12.6741   18.4510 C   0  0  0  0  0  0  0  0  0  0  0  0
    8.5931  -15.9659   23.3795 N   0  0  0  0  0  0  0  0  0  0  0  0
    7.6711  -16.3277   24.4200 C   0  0  0  0  0  0  0  0  0  0  0  0
    7.8005  -15.1599   25.3803 C   0  0  0  0  0  0  0  0  0  0  0  0
    9.1428  -14.5547   25.1322 C   0  0  0  0  0  0  0  0  0  0  0  0
    9.7426  -15.4080   24.0733 C   0  0  1  0  0  0  0  0  0  0  0  0
   10.5817  -16.4561   24.6852 C   0  0  0  0  0  0  0  0  0  0  0  0
   10.0597  -17.4022   25.3597 O   0  0  0  0  0  0  0  0  0  0  0  0
   13.9961  -16.4088   19.3901 N   0  0  0  0  0  0  0  0  0  0  0  0
   14.5298  -15.1418   19.7519 C   0  0  0  0  0  0  0  0  0  0  0  0
   14.3970  -14.1899   18.8726 N   0  0  0  0  0  0  0  0  0  0  0  0
   15.1789  -14.9036   21.0066 N   0  0  0  0  0  0  0  0  0  0  0  0
   15.2839  -16.0124   21.9359 C   0  0  0  0  0  0  0  0  0  0  0  0
   13.9863  -16.3739   22.5625 C   0  0  0  0  0  0  0  0  0  0  0  0
   14.0122  -17.4412   23.5915 C   0  0  0  0  0  0  0  0  0  0  0  0
   12.7444  -17.6806   24.3352 C   0  0  2  0  0  0  0  0  0  0  0  0
   11.9870  -16.4504   24.5458 N   0  0  0  0  0  0  0  0  0  0  0  0
   13.0445  -18.2162   25.7171 C   0  0  0  0  0  0  0  0  0  0  0  0
   13.5927  -19.3407   25.8315 O   0  0  0  0  0  0  0  0  0  0  0  0
   12.7409  -17.5211   26.8734 O   0  0  0  0  0  0  0  0  0  0  0  0
  2  1  1  0
  3  2  2  0
  4  3  1  0
  5  4  2  0
  5 11  1  0
  6  5  1  0
  7  8  1  1
  7  6  1  0
  9  7  1  0
 10  9  2  0
 11 12  2  0
 12  2  1  0
 13  9  1  0
 13 14  1  0
 14 15  1  0
 16 17  1  0
 16 15  1  0
 17 13  1  0
 17 18  1  1
 19 18  2  0
 20 21  1  0
 21 22  2  0
 23 24  1  0
 23 21  1  0
 24 25  1  0
 26 25  1  0
 27 26  1  1
 27 28  1  0
 28 18  1  0
 29 27  1  0
 29 31  1  0
 30 29  2  0
M  END
$$$$
