YPR.pdb
     RDKit          3D

 31 32  0  0  1  0  0  0  0  0999 V2000
   10.2373  -13.3214   27.8185 O   0  0  0  0  0  0  0  0  0  0  0  0
    9.1468  -13.7854   27.0941 C   0  0  0  0  0  0  0  0  0  0  0  0
    8.3406  -14.7534   27.5996 C   0  0  0  0  0  0  0  0  0  0  0  0
    7.2723  -15.1890   26.8589 C   0  0  0  0  0  0  0  0  0  0  0  0
    6.9974  -14.6718   25.6205 C   0  0  0  0  0  0  0  0  0  0  0  0
    5.8252  -15.1844   24.8652 C   0  0  0  0  0  0  0  0  0  0  0  0
    6.0478  -16.6158   24.4103 C   0  0  2  0  0  0  0  0  0  0  0  0
    6.1891  -17.4458   25.5502 N   0  0  0  0  0  0  0  0  0  0  0  0
    7.0634  -16.7353   23.3655 C   0  0  0  0  0  0  0  0  0  0  0  0
    7.4410  -17.9210   23.0516 O   0  0  0  0  0  0  0  0  0  0  0  0
    7.8074  -13.6936   25.1040 C   0  0  0  0  0  0  0  0  0  0  0  0
    8.8834  -13.2541   25.8479 C   0  0  0  0  0  0  0  0  0  0  0  0
    7.6833  -15.6778   22.6565 N   0  0  0  0  0  0  0  0  0  0  0  0
    7.7940  -14.2748   22.9447 C   0  0  0  0  0  0  0  0  0  0  0  0
    7.5883  -13.6514   21.5766 C   0  0  0  0  0  0  0  0  0  0  0  0
    7.9555  -14.6969   20.5757 C   0  0  0  0  0  0  0  0  0  0  0  0
    8.3858  -15.8589   21.3964 C   0  0  1  0  0  0  0  0  0  0  0  0
    9.8507  -15.8379   21.5717 C   0  0  0  0  0  0  0  0  0  0  0  0
   10.6302  -15.7950   20.5652 O   0  0  0  0  0  0  0  0  0  0  0  0
   12.9450  -16.7739   29.4669 N   0  0  0  0  0  0  0  0  0  0  0  0
   11.7327  -17.3452   28.9927 C   0  0  0  0  0  0  0  0  0  0  0  0
   11.2469  -18.3281   29.6960 N   0  0  0  0  0  0  0  0  0  0  0  0
   11.0666  -16.8810   27.8123 N   0  0  0  0  0  0  0  0  0  0  0  0
   11.8120  -16.0301   26.9045 C   0  0  0  0  0  0  0  0  0  0  0  0
   11.4887  -16.2763   25.4755 C   0  0  0  0  0  0  0  0  0  0  0  0
   12.2392  -15.4841   24.4715 C   0  0  0  0  0  0  0  0  0  0  0  0
   11.8793  -15.7059   23.0436 C   0  0  2  0  0  0  0  0  0  0  0  0
   10.4402  -15.8632   22.8547 N   0  0  0  0  0  0  0  0  0  0  0  0
   12.4990  -16.9916   22.5440 C   0  0  0  0  0  0  0  0  0  0  0  0
   13.7436  -17.0489   22.3840 O   0  0  0  0  0  0  0  0  0  0  0  0
   11.7540  -18.1192   22.2511 O   0  0  0  0  0  0  0  0  0  0  0  0
  2  1  1  0
  3  2  2  0
  4  3  1  0
  5  4  2  0
  5 11  1  0
  6  5  1  0
  7  8  1  1
  7  6  1  0
  9  7  1  0
 10  9  2  0
 11 12  2  0
 12  2  1  0
 13  9  1  0
 13 14  1  0
 14 15  1  0
 16 17  1  0
 16 15  1  0
 17 13  1  0
 17 18  1  1
 19 18  2  0
 20 21  1  0
 21 22  2  0
 23 24  1  0
 23 21  1  0
 24 25  1  0
 26 25  1  0
 27 26  1  1
 27 28  1  0
 28 18  1  0
 29 27  1  0
 29 31  1  0
 30 29  2  0
M  END
$$$$
