DTW.pdb
     RDKit          3D

 30 31  0  0  1  0  0  0  0  0999 V2000
   24.5375  -18.6869  -16.7346 N   0  0  0  0  0  0  0  0  0  0  0  0
   25.2883  -19.4966  -15.7940 C   0  0  1  0  0  0  0  0  0  0  0  0
   26.7736  -19.2192  -15.9592 C   0  0  0  0  0  0  0  0  0  0  0  0
   27.3026  -19.7415  -17.2204 C   0  0  0  0  0  0  0  0  0  0  0  0
   26.5337  -20.3374  -18.0252 O   0  0  0  0  0  0  0  0  0  0  0  0
   24.8828  -19.1310  -14.4071 C   0  0  0  0  0  0  0  0  0  0  0  0
   24.0231  -18.2256  -14.2899 O   0  0  0  0  0  0  0  0  0  0  0  0
   28.6468  -19.5612  -17.4907 O   0  0  0  0  0  0  0  0  0  0  0  0
   22.4408  -19.7210  -12.9434 C   0  0  0  0  0  0  0  0  0  0  0  0
   23.3954  -20.3662  -11.9603 C   0  0  1  0  0  0  0  0  0  0  0  0
   23.5258  -21.6877  -12.3673 O   0  0  0  0  0  0  0  0  0  0  0  0
   24.7456  -19.7480  -11.9587 C   0  0  2  0  0  0  0  0  0  0  0  0
   25.3886  -19.7203  -13.2471 N   0  0  0  0  0  0  0  0  0  0  0  0
   25.6352  -20.5036  -11.0511 C   0  0  0  0  0  0  0  0  0  0  0  0
   26.7650  -20.9471  -11.4688 O   0  0  0  0  0  0  0  0  0  0  0  0
   25.3583  -20.8052   -9.6935 N   0  0  0  0  0  0  0  0  0  0  0  0
   26.3827  -21.4129   -8.8189 C   0  0  1  0  0  0  0  0  0  0  0  0
   27.6226  -20.5737   -8.8252 C   0  0  0  0  0  0  0  0  0  0  0  0
   27.8758  -19.8429   -7.5863 C   0  0  0  0  0  0  0  0  0  0  0  0
   27.4357  -18.5262   -7.4069 C   0  0  0  0  0  0  0  0  0  0  0  0
   27.7631  -18.1135   -6.1792 N   0  0  0  0  0  0  0  0  0  0  0  0
   28.4041  -19.0928   -5.5249 C   0  0  0  0  0  0  0  0  0  0  0  0
   28.9599  -19.2100   -4.2649 C   0  0  0  0  0  0  0  0  0  0  0  0
   29.5881  -20.3604   -3.8378 C   0  0  0  0  0  0  0  0  0  0  0  0
   29.6505  -21.4129   -4.7156 C   0  0  0  0  0  0  0  0  0  0  0  0
   29.0952  -21.3030   -5.9809 C   0  0  0  0  0  0  0  0  0  0  0  0
   28.4718  -20.1560   -6.3957 C   0  0  0  0  0  0  0  0  0  0  0  0
   25.7537  -21.6279   -7.5104 C   0  0  0  0  0  0  0  0  0  0  0  0
   24.6779  -21.0321   -7.1595 O   0  0  0  0  0  0  0  0  0  0  0  0
   26.2773  -22.4936   -6.5657 O   0  0  0  0  0  0  0  0  0  0  0  0
  2  1  1  6
  2  6  1  0
  3  2  1  0
  3  4  1  0
  4  5  2  0
  6  7  2  0
  8  4  1  0
 10  9  1  6
 10 12  1  0
 11 10  1  0
 12 13  1  6
 12 14  1  0
 13  6  1  0
 14 15  2  0
 14 16  1  0
 16 17  1  0
 17 28  1  0
 17 18  1  1
 19 18  1  0
 19 27  1  0
 20 19  2  0
 21 20  1  0
 21 22  1  0
 22 23  1  0
 22 27  2  0
 23 24  2  0
 24 25  1  0
 26 25  2  0
 27 26  1  0
 28 29  2  0
 28 30  1  0
M  END
$$$$
