DTW.pdb
     RDKit          3D

 30 31  0  0  1  0  0  0  0  0999 V2000
   15.8852  -15.0714  -16.6198 N   0  0  0  0  0  0  0  0  0  0  0  0
   16.1360  -14.1294  -15.5456 C   0  0  1  0  0  0  0  0  0  0  0  0
   17.3679  -14.5634  -14.7682 C   0  0  0  0  0  0  0  0  0  0  0  0
   17.1603  -15.8218  -14.0495 C   0  0  0  0  0  0  0  0  0  0  0  0
   17.8863  -16.8212  -14.3102 O   0  0  0  0  0  0  0  0  0  0  0  0
   16.3875  -12.7819  -16.1308 C   0  0  0  0  0  0  0  0  0  0  0  0
   16.9825  -12.7470  -17.2341 O   0  0  0  0  0  0  0  0  0  0  0  0
   16.1607  -15.8729  -13.0951 O   0  0  0  0  0  0  0  0  0  0  0  0
   13.7149   -9.9691  -16.7377 C   0  0  0  0  0  0  0  0  0  0  0  0
   14.9172   -9.4194  -15.9984 C   0  0  1  0  0  0  0  0  0  0  0  0
   14.5585   -9.3896  -14.6570 O   0  0  0  0  0  0  0  0  0  0  0  0
   16.1294  -10.2664  -16.1337 C   0  0  2  0  0  0  0  0  0  0  0  0
   16.0106  -11.5738  -15.5415 N   0  0  0  0  0  0  0  0  0  0  0  0
   17.2747   -9.6004  -15.4775 C   0  0  0  0  0  0  0  0  0  0  0  0
   17.7138  -10.0248  -14.3485 O   0  0  0  0  0  0  0  0  0  0  0  0
   17.9791   -8.4824  -15.9920 N   0  0  0  0  0  0  0  0  0  0  0  0
   19.1641   -7.9371  -15.2977 C   0  0  1  0  0  0  0  0  0  0  0  0
   20.1562   -7.4336  -16.2996 C   0  0  0  0  0  0  0  0  0  0  0  0
   21.2674   -6.6727  -15.7344 C   0  0  0  0  0  0  0  0  0  0  0  0
   22.5497   -7.2219  -15.6175 C   0  0  0  0  0  0  0  0  0  0  0  0
   23.3787   -6.3060  -15.1089 N   0  0  0  0  0  0  0  0  0  0  0  0
   22.7120   -5.1659  -14.8778 C   0  0  0  0  0  0  0  0  0  0  0  0
   23.0596   -3.9303  -14.3652 C   0  0  0  0  0  0  0  0  0  0  0  0
   22.1480   -2.9063  -14.2212 C   0  0  0  0  0  0  0  0  0  0  0  0
   20.8543   -3.1490  -14.6084 C   0  0  0  0  0  0  0  0  0  0  0  0
   20.4981   -4.3855  -15.1236 C   0  0  0  0  0  0  0  0  0  0  0  0
   21.4116   -5.3965  -15.2640 C   0  0  0  0  0  0  0  0  0  0  0  0
   18.6736   -6.9554  -14.3231 C   0  0  0  0  0  0  0  0  0  0  0  0
   17.6313   -6.2441  -14.5302 O   0  0  0  0  0  0  0  0  0  0  0  0
   19.3015   -6.7332  -13.1096 O   0  0  0  0  0  0  0  0  0  0  0  0
  2  1  1  6
  2  6  1  0
  3  2  1  0
  3  4  1  0
  4  5  2  0
  6  7  2  0
  8  4  1  0
 10  9  1  6
 10 12  1  0
 11 10  1  0
 12 13  1  1
 12 14  1  0
 13  6  1  0
 14 15  2  0
 14 16  1  0
 16 17  1  0
 17 28  1  0
 17 18  1  6
 19 18  1  0
 19 27  1  0
 20 19  2  0
 21 20  1  0
 21 22  1  0
 22 23  1  0
 22 27  2  0
 23 24  2  0
 24 25  1  0
 26 25  2  0
 27 26  1  0
 28 29  2  0
 28 30  1  0
M  END
$$$$
