DTW.pdb
     RDKit          3D

 30 31  0  0  1  0  0  0  0  0999 V2000
   25.0502  -15.7230  -16.6887 N   0  0  0  0  0  0  0  0  0  0  0  0
   24.4596  -17.0231  -16.9438 C   0  0  1  0  0  0  0  0  0  0  0  0
   25.5188  -18.1014  -16.7826 C   0  0  0  0  0  0  0  0  0  0  0  0
   26.5749  -18.0023  -17.7915 C   0  0  0  0  0  0  0  0  0  0  0  0
   26.4970  -17.1276  -18.6986 O   0  0  0  0  0  0  0  0  0  0  0  0
   23.3730  -17.2653  -15.9528 C   0  0  0  0  0  0  0  0  0  0  0  0
   23.5137  -16.7440  -14.8211 O   0  0  0  0  0  0  0  0  0  0  0  0
   27.6378  -18.8836  -17.7148 O   0  0  0  0  0  0  0  0  0  0  0  0
   20.1111  -15.9433  -15.3864 C   0  0  0  0  0  0  0  0  0  0  0  0
   19.9185  -17.4324  -15.5858 C   0  0  1  0  0  0  0  0  0  0  0  0
   19.6179  -17.6008  -16.9313 O   0  0  0  0  0  0  0  0  0  0  0  0
   21.1339  -18.2293  -15.2808 C   0  0  2  0  0  0  0  0  0  0  0  0
   22.2258  -18.0227  -16.1967 N   0  0  0  0  0  0  0  0  0  0  0  0
   20.8049  -19.6701  -15.3231 C   0  0  0  0  0  0  0  0  0  0  0  0
   20.9769  -20.3448  -16.4014 O   0  0  0  0  0  0  0  0  0  0  0  0
   20.2933  -20.4275  -14.2389 N   0  0  0  0  0  0  0  0  0  0  0  0
   19.9918  -21.8668  -14.3840 C   0  0  1  0  0  0  0  0  0  0  0  0
   20.6868  -22.6448  -13.3101 C   0  0  0  0  0  0  0  0  0  0  0  0
   20.2801  -22.3099  -11.9479 C   0  0  0  0  0  0  0  0  0  0  0  0
   19.3620  -23.0954  -11.2411 C   0  0  0  0  0  0  0  0  0  0  0  0
   19.1989  -22.5903  -10.0152 N   0  0  0  0  0  0  0  0  0  0  0  0
   19.9652  -21.5002   -9.8656 C   0  0  0  0  0  0  0  0  0  0  0  0
   20.1787  -20.6032   -8.8359 C   0  0  0  0  0  0  0  0  0  0  0  0
   21.0381  -19.5319   -8.9547 C   0  0  0  0  0  0  0  0  0  0  0  0
   21.6929  -19.3728  -10.1498 C   0  0  0  0  0  0  0  0  0  0  0  0
   21.4842  -20.2685  -11.1870 C   0  0  0  0  0  0  0  0  0  0  0  0
   20.6290  -21.3308  -11.0588 C   0  0  0  0  0  0  0  0  0  0  0  0
   18.5305  -21.9941  -14.4324 C   0  0  0  0  0  0  0  0  0  0  0  0
   17.7476  -21.1090  -13.9433 O   0  0  0  0  0  0  0  0  0  0  0  0
   17.8964  -23.0781  -15.0145 O   0  0  0  0  0  0  0  0  0  0  0  0
  2  1  1  1
  2  6  1  0
  3  2  1  0
  3  4  1  0
  4  5  2  0
  6  7  2  0
  8  4  1  0
 10  9  1  6
 10 12  1  0
 11 10  1  0
 12 13  1  6
 12 14  1  0
 13  6  1  0
 14 15  2  0
 14 16  1  0
 16 17  1  0
 17 28  1  0
 17 18  1  1
 19 18  1  0
 19 27  1  0
 20 19  2  0
 21 20  1  0
 21 22  1  0
 22 23  1  0
 22 27  2  0
 23 24  2  0
 24 25  1  0
 26 25  2  0
 27 26  1  0
 28 29  2  0
 28 30  1  0
M  END
$$$$
