DTW.pdb
     RDKit          3D

 30 31  0  0  1  0  0  0  0  0999 V2000
   29.0633  -18.3342  -19.0186 N   0  0  0  0  0  0  0  0  0  0  0  0
   28.4974  -19.4887  -18.3469 C   0  0  1  0  0  0  0  0  0  0  0  0
   29.3631  -20.7081  -18.6187 C   0  0  0  0  0  0  0  0  0  0  0  0
   29.2489  -21.1774  -20.0007 C   0  0  0  0  0  0  0  0  0  0  0  0
   29.8110  -22.2536  -20.3471 O   0  0  0  0  0  0  0  0  0  0  0  0
   28.4751  -19.2331  -16.8786 C   0  0  0  0  0  0  0  0  0  0  0  0
   29.5685  -18.9395  -16.3395 O   0  0  0  0  0  0  0  0  0  0  0  0
   28.5179  -20.4141  -20.8926 O   0  0  0  0  0  0  0  0  0  0  0  0
   27.2263  -16.4609  -14.9778 C   0  0  0  0  0  0  0  0  0  0  0  0
   26.5370  -17.6812  -14.4036 C   0  0  1  0  0  0  0  0  0  0  0  0
   25.2965  -17.7456  -15.0248 O   0  0  0  0  0  0  0  0  0  0  0  0
   27.2584  -18.9494  -14.6802 C   0  0  2  0  0  0  0  0  0  0  0  0
   27.3352  -19.2980  -16.0754 N   0  0  0  0  0  0  0  0  0  0  0  0
   26.5749  -20.0675  -13.9954 C   0  0  0  0  0  0  0  0  0  0  0  0
   25.8856  -20.9170  -14.6668 O   0  0  0  0  0  0  0  0  0  0  0  0
   26.6030  -20.3153  -12.5995 N   0  0  0  0  0  0  0  0  0  0  0  0
   25.8814  -21.4621  -12.0098 C   0  0  1  0  0  0  0  0  0  0  0  0
   26.6287  -21.9784  -10.8197 C   0  0  0  0  0  0  0  0  0  0  0  0
   26.6986  -21.0548   -9.6904 C   0  0  0  0  0  0  0  0  0  0  0  0
   25.6933  -20.1108   -9.4500 C   0  0  0  0  0  0  0  0  0  0  0  0
   25.9849  -19.4266   -8.3402 N   0  0  0  0  0  0  0  0  0  0  0  0
   27.1412  -19.8672   -7.8237 C   0  0  0  0  0  0  0  0  0  0  0  0
   27.8996  -19.5234   -6.7205 C   0  0  0  0  0  0  0  0  0  0  0  0
   29.0902  -20.1488   -6.4177 C   0  0  0  0  0  0  0  0  0  0  0  0
   29.5155  -21.1458   -7.2589 C   0  0  0  0  0  0  0  0  0  0  0  0
   28.7601  -21.4963   -8.3671 C   0  0  0  0  0  0  0  0  0  0  0  0
   27.5775  -20.8697   -8.6589 C   0  0  0  0  0  0  0  0  0  0  0  0
   24.5032  -21.0199  -11.7665 C   0  0  0  0  0  0  0  0  0  0  0  0
   23.5594  -21.8363  -11.4874 O   0  0  0  0  0  0  0  0  0  0  0  0
   24.1286  -19.6883  -11.8174 O   0  0  0  0  0  0  0  0  0  0  0  0
  2  1  1  6
  2  6  1  0
  3  2  1  0
  3  4  1  0
  4  5  2  0
  6  7  2  0
  8  4  1  0
 10  9  1  6
 10 12  1  0
 11 10  1  0
 12 13  1  6
 12 14  1  0
 13  6  1  0
 14 15  2  0
 14 16  1  0
 16 17  1  0
 17 28  1  0
 17 18  1  1
 19 18  1  0
 19 27  1  0
 20 19  2  0
 21 20  1  0
 21 22  1  0
 22 23  1  0
 22 27  2  0
 23 24  2  0
 24 25  1  0
 26 25  2  0
 27 26  1  0
 28 29  2  0
 28 30  1  0
M  END
$$$$
