DTW.pdb
     RDKit          3D

 30 31  0  0  1  0  0  0  0  0999 V2000
   16.4652  -11.4688  -15.7271 N   0  0  0  0  0  0  0  0  0  0  0  0
   17.8037  -11.9490  -15.4410 C   0  0  1  0  0  0  0  0  0  0  0  0
   17.9891  -13.3279  -16.0530 C   0  0  0  0  0  0  0  0  0  0  0  0
   17.2363  -14.3613  -15.3399 C   0  0  0  0  0  0  0  0  0  0  0  0
   16.5735  -14.0572  -14.3093 O   0  0  0  0  0  0  0  0  0  0  0  0
   18.7943  -11.0163  -16.0497 C   0  0  0  0  0  0  0  0  0  0  0  0
   19.9895  -11.3951  -16.0688 O   0  0  0  0  0  0  0  0  0  0  0  0
   17.2777  -15.6548  -15.8275 O   0  0  0  0  0  0  0  0  0  0  0  0
   18.4064   -9.0767  -19.5494 C   0  0  0  0  0  0  0  0  0  0  0  0
   18.8241   -8.1583  -18.4197 C   0  0  1  0  0  0  0  0  0  0  0  0
   17.6643   -7.5209  -17.9983 O   0  0  0  0  0  0  0  0  0  0  0  0
   19.4027   -8.8799  -17.2579 C   0  0  2  0  0  0  0  0  0  0  0  0
   18.4849   -9.7676  -16.5919 N   0  0  0  0  0  0  0  0  0  0  0  0
   19.8643   -7.9034  -16.2482 C   0  0  0  0  0  0  0  0  0  0  0  0
   19.1027   -7.5704  -15.2701 O   0  0  0  0  0  0  0  0  0  0  0  0
   21.1289   -7.2618  -16.2447 N   0  0  0  0  0  0  0  0  0  0  0  0
   21.4767   -6.2585  -15.2171 C   0  0  1  0  0  0  0  0  0  0  0  0
   22.4907   -6.8254  -14.2725 C   0  0  0  0  0  0  0  0  0  0  0  0
   23.6957   -7.3515  -14.9084 C   0  0  0  0  0  0  0  0  0  0  0  0
   24.5093   -6.5497  -15.7176 C   0  0  0  0  0  0  0  0  0  0  0  0
   25.5575   -7.2639  -16.1369 N   0  0  0  0  0  0  0  0  0  0  0  0
   25.4855   -8.5100  -15.6469 C   0  0  0  0  0  0  0  0  0  0  0  0
   26.2733   -9.6399  -15.7609 C   0  0  0  0  0  0  0  0  0  0  0  0
   25.9531  -10.8300  -15.1432 C   0  0  0  0  0  0  0  0  0  0  0  0
   24.8044  -10.8674  -14.3937 C   0  0  0  0  0  0  0  0  0  0  0  0
   24.0094   -9.7381  -14.2746 C   0  0  0  0  0  0  0  0  0  0  0  0
   24.3368   -8.5596  -14.8912 C   0  0  0  0  0  0  0  0  0  0  0  0
   21.8681   -5.0362  -15.9291 C   0  0  0  0  0  0  0  0  0  0  0  0
   22.1207   -3.9393  -15.3223 O   0  0  0  0  0  0  0  0  0  0  0  0
   21.9957   -4.9853  -17.3065 O   0  0  0  0  0  0  0  0  0  0  0  0
  2  1  1  6
  2  6  1  0
  3  2  1  0
  3  4  1  0
  4  5  2  0
  6  7  2  0
  8  4  1  0
 10  9  1  6
 10 12  1  0
 11 10  1  0
 12 13  1  1
 12 14  1  0
 13  6  1  0
 14 15  2  0
 14 16  1  0
 16 17  1  0
 17 28  1  0
 17 18  1  6
 19 18  1  0
 19 27  1  0
 20 19  2  0
 21 20  1  0
 21 22  1  0
 22 23  1  0
 22 27  2  0
 23 24  2  0
 24 25  1  0
 26 25  2  0
 27 26  1  0
 28 29  2  0
 28 30  1  0
M  END
$$$$
