DTW.pdb
     RDKit          3D

 30 31  0  0  1  0  0  0  0  0999 V2000
   25.9333  -11.9600  -20.6967 N   0  0  0  0  0  0  0  0  0  0  0  0
   24.7666  -12.8146  -20.5844 C   0  0  1  0  0  0  0  0  0  0  0  0
   25.1652  -14.1352  -19.9459 C   0  0  0  0  0  0  0  0  0  0  0  0
   26.0296  -14.9369  -20.8138 C   0  0  0  0  0  0  0  0  0  0  0  0
   26.3852  -14.4842  -21.9375 O   0  0  0  0  0  0  0  0  0  0  0  0
   23.7573  -12.1461  -19.7150 C   0  0  0  0  0  0  0  0  0  0  0  0
   24.1948  -11.5138  -18.7245 O   0  0  0  0  0  0  0  0  0  0  0  0
   26.4331  -16.1815  -20.3658 O   0  0  0  0  0  0  0  0  0  0  0  0
   21.5806   -9.2395  -20.2226 C   0  0  0  0  0  0  0  0  0  0  0  0
   20.6781  -10.4008  -19.8608 C   0  0  1  0  0  0  0  0  0  0  0  0
   20.2101  -10.9092  -21.0656 O   0  0  0  0  0  0  0  0  0  0  0  0
   21.3828  -11.4922  -19.1416 C   0  0  2  0  0  0  0  0  0  0  0  0
   22.3777  -12.1764  -19.9266 N   0  0  0  0  0  0  0  0  0  0  0  0
   20.4041  -12.5113  -18.7063 C   0  0  0  0  0  0  0  0  0  0  0  0
   20.2082  -13.5669  -19.4099 O   0  0  0  0  0  0  0  0  0  0  0  0
   19.6170  -12.4434  -17.5287 N   0  0  0  0  0  0  0  0  0  0  0  0
   18.6815  -13.5290  -17.1683 C   0  0  1  0  0  0  0  0  0  0  0  0
   19.0398  -14.0874  -15.8261 C   0  0  0  0  0  0  0  0  0  0  0  0
   19.6805  -15.3995  -15.8581 C   0  0  0  0  0  0  0  0  0  0  0  0
   20.9861  -15.5912  -15.3908 C   0  0  0  0  0  0  0  0  0  0  0  0
   21.3095  -16.8830  -15.4985 N   0  0  0  0  0  0  0  0  0  0  0  0
   20.2808  -17.5687  -16.0178 C   0  0  0  0  0  0  0  0  0  0  0  0
   20.0711  -18.8948  -16.3458 C   0  0  0  0  0  0  0  0  0  0  0  0
   18.8876  -19.3432  -16.8924 C   0  0  0  0  0  0  0  0  0  0  0  0
   17.8977  -18.4181  -17.1089 C   0  0  0  0  0  0  0  0  0  0  0  0
   18.1006  -17.0864  -16.7823 C   0  0  0  0  0  0  0  0  0  0  0  0
   19.2798  -16.6507  -16.2383 C   0  0  0  0  0  0  0  0  0  0  0  0
   17.3248  -12.9850  -17.3014 C   0  0  0  0  0  0  0  0  0  0  0  0
   17.0959  -11.7324  -17.4195 O   0  0  0  0  0  0  0  0  0  0  0  0
   16.1981  -13.7890  -17.3132 O   0  0  0  0  0  0  0  0  0  0  0  0
  2  1  1  1
  2  6  1  0
  3  2  1  0
  3  4  1  0
  4  5  2  0
  6  7  2  0
  8  4  1  0
 10  9  1  6
 10 12  1  0
 11 10  1  0
 12 13  1  6
 12 14  1  0
 13  6  1  0
 14 15  2  0
 14 16  1  0
 16 17  1  0
 17 28  1  0
 17 18  1  1
 19 18  1  0
 19 27  1  0
 20 19  2  0
 21 20  1  0
 21 22  1  0
 22 23  1  0
 22 27  2  0
 23 24  2  0
 24 25  1  0
 26 25  2  0
 27 26  1  0
 28 29  2  0
 28 30  1  0
M  END
$$$$
