DTW.pdb
     RDKit          3D

 30 31  0  0  1  0  0  0  0  0999 V2000
   27.4087  -19.2963  -19.0025 N   0  0  0  0  0  0  0  0  0  0  0  0
   27.7907  -19.4066  -17.6076 C   0  0  1  0  0  0  0  0  0  0  0  0
   28.1972  -18.0389  -17.0837 C   0  0  0  0  0  0  0  0  0  0  0  0
   29.4002  -17.5242  -17.7402 C   0  0  0  0  0  0  0  0  0  0  0  0
   29.9281  -18.1755  -18.6842 O   0  0  0  0  0  0  0  0  0  0  0  0
   26.6218  -19.8939  -16.8215 C   0  0  0  0  0  0  0  0  0  0  0  0
   25.5954  -19.1736  -16.8296 O   0  0  0  0  0  0  0  0  0  0  0  0
   29.9248  -16.3238  -17.2970 O   0  0  0  0  0  0  0  0  0  0  0  0
   24.6194  -23.1190  -17.1571 C   0  0  0  0  0  0  0  0  0  0  0  0
   25.0821  -22.9854  -15.7210 C   0  0  1  0  0  0  0  0  0  0  0  0
   26.2068  -23.7922  -15.6066 O   0  0  0  0  0  0  0  0  0  0  0  0
   25.4684  -21.5995  -15.3535 C   0  0  2  0  0  0  0  0  0  0  0  0
   26.5938  -21.0812  -16.0877 N   0  0  0  0  0  0  0  0  0  0  0  0
   25.8308  -21.5497  -13.9209 C   0  0  0  0  0  0  0  0  0  0  0  0
   27.0631  -21.5489  -13.5617 O   0  0  0  0  0  0  0  0  0  0  0  0
   24.9111  -21.4983  -12.8428 N   0  0  0  0  0  0  0  0  0  0  0  0
   25.3755  -21.4393  -11.4412 C   0  0  1  0  0  0  0  0  0  0  0  0
   26.3659  -20.3285  -11.2777 C   0  0  0  0  0  0  0  0  0  0  0  0
   26.9034  -20.1787   -9.9279 C   0  0  0  0  0  0  0  0  0  0  0  0
   26.1856  -19.5247   -8.9197 C   0  0  0  0  0  0  0  0  0  0  0  0
   26.8850  -19.5636   -7.7821 N   0  0  0  0  0  0  0  0  0  0  0  0
   28.0411  -20.2136   -7.9797 C   0  0  0  0  0  0  0  0  0  0  0  0
   29.1198  -20.5323   -7.1765 C   0  0  0  0  0  0  0  0  0  0  0  0
   30.2173  -21.2189   -7.6503 C   0  0  0  0  0  0  0  0  0  0  0  0
   30.2134  -21.5876   -8.9719 C   0  0  0  0  0  0  0  0  0  0  0  0
   29.1351  -21.2717   -9.7836 C   0  0  0  0  0  0  0  0  0  0  0  0
   28.0484  -20.5902   -9.3031 C   0  0  0  0  0  0  0  0  0  0  0  0
   24.1769  -21.3669  -10.5971 C   0  0  0  0  0  0  0  0  0  0  0  0
   23.0239  -21.0731  -11.0657 O   0  0  0  0  0  0  0  0  0  0  0  0
   24.2088  -21.6158   -9.2359 O   0  0  0  0  0  0  0  0  0  0  0  0
  2  1  1  6
  2  6  1  0
  3  2  1  0
  3  4  1  0
  4  5  2  0
  6  7  2  0
  8  4  1  0
 10  9  1  6
 10 12  1  0
 11 10  1  0
 12 13  1  6
 12 14  1  0
 13  6  1  0
 14 15  2  0
 14 16  1  0
 16 17  1  0
 17 28  1  0
 17 18  1  6
 19 18  1  0
 19 27  1  0
 20 19  2  0
 21 20  1  0
 21 22  1  0
 22 23  1  0
 22 27  2  0
 23 24  2  0
 24 25  1  0
 26 25  2  0
 27 26  1  0
 28 29  2  0
 28 30  1  0
M  END
$$$$
