DTW.pdb
     RDKit          3D

 30 31  0  0  1  0  0  0  0  0999 V2000
   28.6978  -22.5564  -17.5964 N   0  0  0  0  0  0  0  0  0  0  0  0
   27.5194  -22.3261  -16.7825 C   0  0  1  0  0  0  0  0  0  0  0  0
   26.8983  -23.6599  -16.4009 C   0  0  0  0  0  0  0  0  0  0  0  0
   25.9777  -24.1603  -17.4233 C   0  0  0  0  0  0  0  0  0  0  0  0
   25.7398  -23.4640  -18.4493 O   0  0  0  0  0  0  0  0  0  0  0  0
   27.9213  -21.6101  -15.5385 C   0  0  0  0  0  0  0  0  0  0  0  0
   29.1487  -21.4165  -15.3694 O   0  0  0  0  0  0  0  0  0  0  0  0
   25.3917  -25.3974  -17.2270 O   0  0  0  0  0  0  0  0  0  0  0  0
   27.8743  -18.2592  -14.6612 C   0  0  0  0  0  0  0  0  0  0  0  0
   27.1072  -18.9164  -13.5325 C   0  0  1  0  0  0  0  0  0  0  0  0
   25.7627  -18.7573  -13.8425 O   0  0  0  0  0  0  0  0  0  0  0  0
   27.3822  -20.3698  -13.4018 C   0  0  2  0  0  0  0  0  0  0  0  0
   27.0358  -21.1475  -14.5635 N   0  0  0  0  0  0  0  0  0  0  0  0
   26.6071  -20.9207  -12.2697 C   0  0  0  0  0  0  0  0  0  0  0  0
   25.5944  -21.6800  -12.4835 O   0  0  0  0  0  0  0  0  0  0  0  0
   26.8796  -20.6879  -10.8977 N   0  0  0  0  0  0  0  0  0  0  0  0
   26.0808  -21.3358   -9.8368 C   0  0  1  0  0  0  0  0  0  0  0  0
   26.9425  -21.6083   -8.6431 C   0  0  0  0  0  0  0  0  0  0  0  0
   27.2506  -20.4364   -7.8277 C   0  0  0  0  0  0  0  0  0  0  0  0
   26.7245  -19.1742   -8.1270 C   0  0  0  0  0  0  0  0  0  0  0  0
   27.1309  -18.2957   -7.2062 N   0  0  0  0  0  0  0  0  0  0  0  0
   27.9072  -18.9097   -6.3016 C   0  0  0  0  0  0  0  0  0  0  0  0
   28.5859  -18.4957   -5.1710 C   0  0  0  0  0  0  0  0  0  0  0  0
   29.3420  -19.3574   -4.4053 C   0  0  0  0  0  0  0  0  0  0  0  0
   29.4067  -20.6691   -4.8024 C   0  0  0  0  0  0  0  0  0  0  0  0
   28.7285  -21.0918   -5.9350 C   0  0  0  0  0  0  0  0  0  0  0  0
   27.9786  -20.2281   -6.6887 C   0  0  0  0  0  0  0  0  0  0  0  0
   24.9070  -20.4852   -9.6067 C   0  0  0  0  0  0  0  0  0  0  0  0
   24.7501  -19.3588  -10.1916 O   0  0  0  0  0  0  0  0  0  0  0  0
   23.8852  -20.8436   -8.7445 O   0  0  0  0  0  0  0  0  0  0  0  0
  2  1  1  6
  2  6  1  0
  3  2  1  0
  3  4  1  0
  4  5  2  0
  6  7  2  0
  8  4  1  0
 10  9  1  6
 10 12  1  0
 11 10  1  0
 12 13  1  6
 12 14  1  0
 13  6  1  0
 14 15  2  0
 14 16  1  0
 16 17  1  0
 17 28  1  0
 17 18  1  1
 19 18  1  0
 19 27  1  0
 20 19  2  0
 21 20  1  0
 21 22  1  0
 22 23  1  0
 22 27  2  0
 23 24  2  0
 24 25  1  0
 26 25  2  0
 27 26  1  0
 28 29  2  0
 28 30  1  0
M  END
$$$$
