DTW.pdb
     RDKit          3D

 30 31  0  0  1  0  0  0  0  0999 V2000
   28.3235  -18.3875  -15.2278 N   0  0  0  0  0  0  0  0  0  0  0  0
   27.1891  -17.5325  -14.9343 C   0  0  1  0  0  0  0  0  0  0  0  0
   26.9660  -16.5717  -16.0908 C   0  0  0  0  0  0  0  0  0  0  0  0
   27.5110  -17.0786  -17.3514 C   0  0  0  0  0  0  0  0  0  0  0  0
   27.1795  -16.5364  -18.4423 O   0  0  0  0  0  0  0  0  0  0  0  0
   25.9730  -18.3788  -14.7716 C   0  0  0  0  0  0  0  0  0  0  0  0
   25.1342  -18.3479  -15.7032 O   0  0  0  0  0  0  0  0  0  0  0  0
   28.3835  -18.1504  -17.3029 O   0  0  0  0  0  0  0  0  0  0  0  0
   26.2051  -20.9809  -16.0016 C   0  0  0  0  0  0  0  0  0  0  0  0
   26.1232  -21.4443  -14.5618 C   0  0  1  0  0  0  0  0  0  0  0  0
   27.4233  -21.4050  -14.0746 O   0  0  0  0  0  0  0  0  0  0  0  0
   25.2832  -20.5667  -13.7078 C   0  0  2  0  0  0  0  0  0  0  0  0
   25.7092  -19.1916  -13.6676 N   0  0  0  0  0  0  0  0  0  0  0  0
   25.3043  -21.0635  -12.3154 C   0  0  0  0  0  0  0  0  0  0  0  0
   24.6716  -22.1342  -11.9975 O   0  0  0  0  0  0  0  0  0  0  0  0
   25.9880  -20.4499  -11.2352 N   0  0  0  0  0  0  0  0  0  0  0  0
   25.8764  -20.9766   -9.8591 C   0  0  1  0  0  0  0  0  0  0  0  0
   27.0231  -20.4869   -9.0303 C   0  0  0  0  0  0  0  0  0  0  0  0
   26.8850  -20.7161   -7.5945 C   0  0  0  0  0  0  0  0  0  0  0  0
   26.0758  -21.7403   -7.0884 C   0  0  0  0  0  0  0  0  0  0  0  0
   26.1601  -21.7529   -5.7552 N   0  0  0  0  0  0  0  0  0  0  0  0
   26.9887  -20.7832   -5.3415 C   0  0  0  0  0  0  0  0  0  0  0  0
   27.4248  -20.3478   -4.1044 C   0  0  0  0  0  0  0  0  0  0  0  0
   28.2955  -19.2890   -3.9578 C   0  0  0  0  0  0  0  0  0  0  0  0
   28.7296  -18.6616   -5.0981 C   0  0  0  0  0  0  0  0  0  0  0  0
   28.2967  -19.0928   -6.3424 C   0  0  0  0  0  0  0  0  0  0  0  0
   27.4324  -20.1468   -6.4778 C   0  0  0  0  0  0  0  0  0  0  0  0
   24.5345  -20.6291   -9.3766 C   0  0  0  0  0  0  0  0  0  0  0  0
   23.9272  -19.5651   -9.7434 O   0  0  0  0  0  0  0  0  0  0  0  0
   23.8298  -21.4300   -8.4945 O   0  0  0  0  0  0  0  0  0  0  0  0
  2  1  1  6
  2  6  1  0
  3  2  1  0
  3  4  1  0
  4  5  2  0
  6  7  2  0
  8  4  1  0
 10  9  1  6
 10 12  1  0
 11 10  1  0
 12 13  1  1
 12 14  1  0
 13  6  1  0
 14 15  2  0
 14 16  1  0
 16 17  1  0
 17 28  1  0
 17 18  1  1
 19 18  1  0
 19 27  1  0
 20 19  2  0
 21 20  1  0
 21 22  1  0
 22 23  1  0
 22 27  2  0
 23 24  2  0
 24 25  1  0
 26 25  2  0
 27 26  1  0
 28 29  2  0
 28 30  1  0
M  END
$$$$
