ICQ.pdb
     RDKit          3D

 24 23  0  0  1  0  0  0  0  0999 V2000
    6.4644  -11.6944   27.4489 C   0  0  0  0  0  0  0  0  0  0  0  0
    5.8332  -12.9281   26.8064 C   0  0  0  0  0  0  0  0  0  0  0  0
    6.8783  -13.4800   25.8707 C   0  0  2  0  0  0  0  0  0  0  0  0
    7.5554  -12.4041   25.0663 C   0  0  0  0  0  0  0  0  0  0  0  0
    6.4825  -14.6913   25.1101 C   0  0  2  0  0  0  0  0  0  0  0  0
    6.0794  -15.6826   26.1225 N   0  0  0  0  0  0  0  0  0  0  0  0
    7.4303  -15.3023   24.2158 C   0  0  0  0  0  0  0  0  0  0  0  0
    8.2499  -16.1506   24.6853 O   0  0  0  0  0  0  0  0  0  0  0  0
    7.5582  -15.0595   22.8261 N   0  0  0  0  0  0  0  0  0  0  0  0
    8.5857  -15.6993   21.9935 C   0  0  1  0  0  0  0  0  0  0  0  0
    8.3420  -15.3918   20.5423 C   0  0  0  0  0  0  0  0  0  0  0  0
    6.6821  -15.6984   19.9613 S   0  0  0  0  0  0  0  0  0  0  0  0
    9.9289  -15.3669   22.4865 C   0  0  0  0  0  0  0  0  0  0  0  0
   10.0939  -14.2231   23.0495 O   0  0  0  0  0  0  0  0  0  0  0  0
   10.4161  -15.7502   27.2435 N   0  0  0  0  0  0  0  0  0  0  0  0
   11.5719  -16.5962   27.1910 C   0  0  0  0  0  0  0  0  0  0  0  0
   12.1785  -16.7284   28.2817 O   0  0  0  0  0  0  0  0  0  0  0  0
   11.9774  -17.2401   25.9242 C   0  0  0  0  0  0  0  0  0  0  0  0
   11.1484  -16.8970   24.7435 C   0  0  0  0  0  0  0  0  0  0  0  0
   11.9423  -16.4350   23.5675 C   0  0  2  0  0  0  0  0  0  0  0  0
   11.0833  -16.1789   22.4122 N   0  0  0  0  0  0  0  0  0  0  0  0
   13.0664  -17.3301   23.1972 C   0  0  0  0  0  0  0  0  0  0  0  0
   12.8373  -18.2769   22.4017 O   0  0  0  0  0  0  0  0  0  0  0  0
   14.3586  -17.1948   23.6687 O   0  0  0  0  0  0  0  0  0  0  0  0
  1  2  1  0
  3  4  1  6
  3  2  1  0
  3  5  1  0
  5  6  1  1
  7  5  1  0
  7  9  1  0
  8  7  2  0
 10  9  1  0
 10 11  1  6
 12 11  1  0
 13 10  1  0
 14 13  2  0
 16 17  2  0
 16 15  1  0
 18 16  1  0
 19 18  1  0
 20 19  1  1
 20 21  1  0
 21 13  1  0
 22 20  1  0
 23 22  2  0
 24 22  1  0
M  END
$$$$
