ICQ.pdb
     RDKit          3D

 24 23  0  0  1  0  0  0  0  0999 V2000
    6.3235  -10.9651   27.0655 C   0  0  0  0  0  0  0  0  0  0  0  0
    5.5730  -12.0250   26.2612 C   0  0  0  0  0  0  0  0  0  0  0  0
    6.6178  -13.0188   25.8220 C   0  0  2  0  0  0  0  0  0  0  0  0
    7.8165  -12.3557   25.2003 C   0  0  0  0  0  0  0  0  0  0  0  0
    6.1056  -14.2126   25.1044 C   0  0  2  0  0  0  0  0  0  0  0  0
    5.0221  -14.7484   25.9466 N   0  0  0  0  0  0  0  0  0  0  0  0
    7.0122  -15.2825   24.7808 C   0  0  0  0  0  0  0  0  0  0  0  0
    6.5980  -16.4793   24.8718 O   0  0  0  0  0  0  0  0  0  0  0  0
    8.3575  -15.1507   24.3573 N   0  0  0  0  0  0  0  0  0  0  0  0
    9.0605  -16.1889   23.5917 C   0  0  1  0  0  0  0  0  0  0  0  0
    8.2700  -16.5536   22.3661 C   0  0  0  0  0  0  0  0  0  0  0  0
    7.5579  -15.1800   21.4756 S   0  0  0  0  0  0  0  0  0  0  0  0
   10.4527  -15.7919   23.3429 C   0  0  0  0  0  0  0  0  0  0  0  0
   10.6606  -14.6432   22.8046 O   0  0  0  0  0  0  0  0  0  0  0  0
   11.3696  -14.4642   28.3564 N   0  0  0  0  0  0  0  0  0  0  0  0
   11.1726  -15.8552   28.0720 C   0  0  0  0  0  0  0  0  0  0  0  0
   10.7466  -16.5355   29.0368 O   0  0  0  0  0  0  0  0  0  0  0  0
   11.4644  -16.3982   26.7289 C   0  0  0  0  0  0  0  0  0  0  0  0
   12.0429  -15.4314   25.7648 C   0  0  0  0  0  0  0  0  0  0  0  0
   12.6444  -16.0737   24.5597 C   0  0  2  0  0  0  0  0  0  0  0  0
   11.6131  -16.5438   23.6357 N   0  0  0  0  0  0  0  0  0  0  0  0
   13.6118  -17.1577   24.8615 C   0  0  0  0  0  0  0  0  0  0  0  0
   14.7335  -16.8410   25.3342 O   0  0  0  0  0  0  0  0  0  0  0  0
   13.3644  -18.5023   24.6586 O   0  0  0  0  0  0  0  0  0  0  0  0
  1  2  1  0
  3  4  1  6
  3  2  1  0
  3  5  1  0
  5  6  1  1
  7  5  1  0
  7  9  1  0
  8  7  2  0
 10  9  1  0
 10 11  1  6
 12 11  1  0
 13 10  1  0
 14 13  2  0
 16 17  2  0
 16 15  1  0
 18 16  1  0
 19 18  1  0
 20 19  1  1
 20 21  1  0
 21 13  1  0
 22 20  1  0
 23 22  2  0
 24 22  1  0
M  END
$$$$
