ICQ.pdb
     RDKit          3D

 24 23  0  0  1  0  0  0  0  0999 V2000
    6.6631  -11.2862   26.4632 C   0  0  0  0  0  0  0  0  0  0  0  0
    6.9540  -12.7781   26.6149 C   0  0  0  0  0  0  0  0  0  0  0  0
    7.1505  -13.2994   25.2142 C   0  0  2  0  0  0  0  0  0  0  0  0
    5.9342  -13.1014   24.3513 C   0  0  0  0  0  0  0  0  0  0  0  0
    7.7959  -14.6317   25.1106 C   0  0  2  0  0  0  0  0  0  0  0  0
    6.9016  -15.5631   25.8198 N   0  0  0  0  0  0  0  0  0  0  0  0
    9.1349  -14.8062   25.6086 C   0  0  0  0  0  0  0  0  0  0  0  0
   10.0937  -14.2618   24.9791 O   0  0  0  0  0  0  0  0  0  0  0  0
    9.5197  -15.5384   26.7585 N   0  0  0  0  0  0  0  0  0  0  0  0
   10.9229  -15.7634   27.1311 C   0  0  1  0  0  0  0  0  0  0  0  0
   11.2292  -15.0790   28.4341 C   0  0  0  0  0  0  0  0  0  0  0  0
    9.8608  -14.2138   29.1864 S   0  0  0  0  0  0  0  0  0  0  0  0
   11.2447  -17.1959   27.0862 C   0  0  0  0  0  0  0  0  0  0  0  0
   11.8166  -17.7136   28.1146 O   0  0  0  0  0  0  0  0  0  0  0  0
   11.5514  -16.5807   21.0488 N   0  0  0  0  0  0  0  0  0  0  0  0
   12.8366  -16.9101   21.5913 C   0  0  0  0  0  0  0  0  0  0  0  0
   13.8129  -16.4461   20.9535 O   0  0  0  0  0  0  0  0  0  0  0  0
   12.9501  -17.7372   22.8107 C   0  0  0  0  0  0  0  0  0  0  0  0
   11.9387  -17.4638   23.8601 C   0  0  0  0  0  0  0  0  0  0  0  0
   11.9947  -18.4146   25.0088 C   0  0  2  0  0  0  0  0  0  0  0  0
   10.9902  -18.0882   26.0201 N   0  0  0  0  0  0  0  0  0  0  0  0
   13.3368  -18.5501   25.6271 C   0  0  0  0  0  0  0  0  0  0  0  0
   13.7082  -17.6694   26.4446 O   0  0  0  0  0  0  0  0  0  0  0  0
   14.2146  -19.5853   25.3660 O   0  0  0  0  0  0  0  0  0  0  0  0
  1  2  1  0
  3  4  1  1
  3  2  1  0
  3  5  1  0
  5  6  1  1
  7  5  1  0
  7  9  1  0
  8  7  2  0
 10  9  1  0
 10 11  1  1
 12 11  1  0
 13 10  1  0
 14 13  2  0
 16 17  2  0
 16 15  1  0
 18 16  1  0
 19 18  1  0
 20 19  1  6
 20 21  1  0
 21 13  1  0
 22 20  1  0
 23 22  2  0
 24 22  1  0
M  END
$$$$
