ICQ.pdb
     RDKit          3D

 24 23  0  0  1  0  0  0  0  0999 V2000
    6.9572  -12.4490   20.1941 C   0  0  0  0  0  0  0  0  0  0  0  0
    7.4533  -13.1335   18.9218 C   0  0  0  0  0  0  0  0  0  0  0  0
    8.8862  -13.5132   19.1955 C   0  0  2  0  0  0  0  0  0  0  0  0
    9.6871  -12.3692   19.7551 C   0  0  0  0  0  0  0  0  0  0  0  0
    9.5559  -14.2995   18.1299 C   0  0  2  0  0  0  0  0  0  0  0  0
    8.6060  -15.3647   17.7649 N   0  0  0  0  0  0  0  0  0  0  0  0
   10.8392  -14.8947   18.3949 C   0  0  0  0  0  0  0  0  0  0  0  0
   10.8770  -16.0570   18.9046 O   0  0  0  0  0  0  0  0  0  0  0  0
   12.1071  -14.3154   18.1437 N   0  0  0  0  0  0  0  0  0  0  0  0
   13.3724  -15.0114   18.4139 C   0  0  1  0  0  0  0  0  0  0  0  0
   14.4067  -14.6203   17.3954 C   0  0  0  0  0  0  0  0  0  0  0  0
   16.0570  -15.2258   17.7065 S   0  0  0  0  0  0  0  0  0  0  0  0
   13.7731  -14.8267   19.8150 C   0  0  0  0  0  0  0  0  0  0  0  0
   13.9316  -13.6234   20.2387 O   0  0  0  0  0  0  0  0  0  0  0  0
   11.4330  -18.0481   23.9872 N   0  0  0  0  0  0  0  0  0  0  0  0
   11.1163  -16.6715   23.7442 C   0  0  0  0  0  0  0  0  0  0  0  0
    9.9160  -16.3635   23.9427 O   0  0  0  0  0  0  0  0  0  0  0  0
   12.1597  -15.7266   23.2943 C   0  0  0  0  0  0  0  0  0  0  0  0
   13.5103  -16.3111   23.1125 C   0  0  0  0  0  0  0  0  0  0  0  0
   14.3684  -15.5516   22.1567 C   0  0  2  0  0  0  0  0  0  0  0  0
   14.0072  -15.8421   20.7698 N   0  0  0  0  0  0  0  0  0  0  0  0
   15.8264  -15.7297   22.3674 C   0  0  0  0  0  0  0  0  0  0  0  0
   16.4830  -16.3536   21.4946 O   0  0  0  0  0  0  0  0  0  0  0  0
   16.5196  -15.2536   23.4643 O   0  0  0  0  0  0  0  0  0  0  0  0
  1  2  1  0
  3  4  1  6
  3  2  1  0
  3  5  1  0
  5  6  1  1
  7  5  1  0
  7  9  1  0
  8  7  2  0
 10  9  1  0
 10 11  1  6
 12 11  1  0
 13 10  1  0
 14 13  2  0
 16 17  2  0
 16 15  1  0
 18 16  1  0
 19 18  1  0
 20 19  1  1
 20 21  1  0
 21 13  1  0
 22 20  1  0
 23 22  2  0
 24 22  1  0
M  END
$$$$
