ICQ.pdb
     RDKit          3D

 24 23  0  0  1  0  0  0  0  0999 V2000
    7.0858  -16.0992   17.9315 C   0  0  0  0  0  0  0  0  0  0  0  0
    6.9657  -14.7229   18.5831 C   0  0  0  0  0  0  0  0  0  0  0  0
    7.4867  -14.8900   19.9876 C   0  0  2  0  0  0  0  0  0  0  0  0
    7.0340  -16.1782   20.6192 C   0  0  0  0  0  0  0  0  0  0  0  0
    7.3939  -13.6881   20.8532 C   0  0  2  0  0  0  0  0  0  0  0  0
    8.0926  -12.6167   20.1225 N   0  0  0  0  0  0  0  0  0  0  0  0
    7.9099  -13.7455   22.1956 C   0  0  0  0  0  0  0  0  0  0  0  0
    9.1684  -13.7472   22.3637 O   0  0  0  0  0  0  0  0  0  0  0  0
    7.1514  -13.8010   23.3905 N   0  0  0  0  0  0  0  0  0  0  0  0
    7.7605  -13.9578   24.7182 C   0  0  1  0  0  0  0  0  0  0  0  0
    6.7799  -13.5650   25.7878 C   0  0  0  0  0  0  0  0  0  0  0  0
    6.4808  -11.8123   25.9482 S   0  0  0  0  0  0  0  0  0  0  0  0
    8.3409  -15.2993   24.8637 C   0  0  0  0  0  0  0  0  0  0  0  0
    7.5521  -16.3082   24.7517 O   0  0  0  0  0  0  0  0  0  0  0  0
   11.3258  -20.4099   23.5317 N   0  0  0  0  0  0  0  0  0  0  0  0
   12.2480  -19.3362   23.7576 C   0  0  0  0  0  0  0  0  0  0  0  0
   13.1215  -19.1952   22.8674 O   0  0  0  0  0  0  0  0  0  0  0  0
   12.1370  -18.4887   24.9631 C   0  0  0  0  0  0  0  0  0  0  0  0
   11.5617  -17.1402   24.7408 C   0  0  0  0  0  0  0  0  0  0  0  0
   10.1719  -16.9880   25.2624 C   0  0  2  0  0  0  0  0  0  0  0  0
    9.6955  -15.6132   25.1162 N   0  0  0  0  0  0  0  0  0  0  0  0
    9.9850  -17.4626   26.6558 C   0  0  0  0  0  0  0  0  0  0  0  0
    9.9084  -18.7015   26.8584 O   0  0  0  0  0  0  0  0  0  0  0  0
    9.8888  -16.6317   27.7562 O   0  0  0  0  0  0  0  0  0  0  0  0
  1  2  1  0
  3  4  1  1
  3  2  1  0
  3  5  1  0
  5  6  1  6
  7  5  1  0
  7  9  1  0
  8  7  2  0
 10  9  1  0
 10 11  1  1
 12 11  1  0
 13 10  1  0
 14 13  2  0
 16 17  2  0
 16 15  1  0
 18 16  1  0
 19 18  1  0
 20 19  1  1
 20 21  1  0
 21 13  1  0
 22 20  1  0
 23 22  2  0
 24 22  1  0
M  END
$$$$
