ICQ.pdb
     RDKit          3D

 24 23  0  0  1  0  0  0  0  0999 V2000
    6.1860  -11.8462   27.4734 C   0  0  0  0  0  0  0  0  0  0  0  0
    5.6196  -12.9209   26.5474 C   0  0  0  0  0  0  0  0  0  0  0  0
    6.8126  -13.5449   25.8695 C   0  0  2  0  0  0  0  0  0  0  0  0
    7.7856  -12.5177   25.3582 C   0  0  0  0  0  0  0  0  0  0  0  0
    6.5100  -14.6573   24.9350 C   0  0  2  0  0  0  0  0  0  0  0  0
    5.6603  -15.5927   25.6921 N   0  0  0  0  0  0  0  0  0  0  0  0
    7.5950  -15.3940   24.3421 C   0  0  0  0  0  0  0  0  0  0  0  0
    8.1518  -16.3098   25.0227 O   0  0  0  0  0  0  0  0  0  0  0  0
    8.1308  -15.2101   23.0439 N   0  0  0  0  0  0  0  0  0  0  0  0
    9.2347  -16.0206   22.5119 C   0  0  1  0  0  0  0  0  0  0  0  0
    9.3945  -15.7744   21.0375 C   0  0  0  0  0  0  0  0  0  0  0  0
    7.9557  -16.1257   20.0407 S   0  0  0  0  0  0  0  0  0  0  0  0
   10.4498  -15.8261   23.3139 C   0  0  0  0  0  0  0  0  0  0  0  0
   10.8518  -14.6207   23.5091 O   0  0  0  0  0  0  0  0  0  0  0  0
   11.6407  -14.2271   28.4054 N   0  0  0  0  0  0  0  0  0  0  0  0
   11.1634  -15.5772   28.3433 C   0  0  0  0  0  0  0  0  0  0  0  0
   10.6825  -16.0163   29.4162 O   0  0  0  0  0  0  0  0  0  0  0  0
   11.2542  -16.3514   27.0879 C   0  0  0  0  0  0  0  0  0  0  0  0
   11.8610  -15.6331   25.9412 C   0  0  0  0  0  0  0  0  0  0  0  0
   12.3241  -16.5350   24.8462 C   0  0  2  0  0  0  0  0  0  0  0  0
   11.2423  -16.8338   23.9088 N   0  0  0  0  0  0  0  0  0  0  0  0
   12.9725  -17.7848   25.3147 C   0  0  0  0  0  0  0  0  0  0  0  0
   12.3395  -18.8652   25.1965 O   0  0  0  0  0  0  0  0  0  0  0  0
   14.2341  -17.8456   25.8759 O   0  0  0  0  0  0  0  0  0  0  0  0
  1  2  1  0
  3  4  1  6
  3  2  1  0
  3  5  1  0
  5  6  1  1
  7  5  1  0
  7  9  1  0
  8  7  2  0
 10  9  1  0
 10 11  1  6
 12 11  1  0
 13 10  1  0
 14 13  2  0
 16 17  2  0
 16 15  1  0
 18 16  1  0
 19 18  1  0
 20 19  1  1
 20 21  1  0
 21 13  1  0
 22 20  1  0
 23 22  2  0
 24 22  1  0
M  END
$$$$
