ICQ.pdb
     RDKit          3D

 24 23  0  0  1  0  0  0  0  0999 V2000
    7.8160  -11.6778   19.8016 C   0  0  0  0  0  0  0  0  0  0  0  0
    7.7714  -13.0625   20.4449 C   0  0  0  0  0  0  0  0  0  0  0  0
    8.5544  -13.9644   19.5254 C   0  0  2  0  0  0  0  0  0  0  0  0
    8.0362  -13.9355   18.1134 C   0  0  0  0  0  0  0  0  0  0  0  0
    8.8673  -15.3120   20.0625 C   0  0  2  0  0  0  0  0  0  0  0  0
    7.6140  -16.0800   19.9647 N   0  0  0  0  0  0  0  0  0  0  0  0
    9.3819  -15.4346   21.4010 C   0  0  0  0  0  0  0  0  0  0  0  0
   10.5520  -15.0062   21.6443 O   0  0  0  0  0  0  0  0  0  0  0  0
    8.7115  -15.9955   22.5156 N   0  0  0  0  0  0  0  0  0  0  0  0
    9.3383  -16.1401   23.8364 C   0  0  1  0  0  0  0  0  0  0  0  0
    8.3253  -15.8962   24.9202 C   0  0  0  0  0  0  0  0  0  0  0  0
    8.9151  -16.1320   26.5886 S   0  0  0  0  0  0  0  0  0  0  0  0
   10.0575  -17.4176   23.9284 C   0  0  0  0  0  0  0  0  0  0  0  0
    9.5590  -18.4309   23.3143 O   0  0  0  0  0  0  0  0  0  0  0  0
   12.4571  -18.6459   19.9533 N   0  0  0  0  0  0  0  0  0  0  0  0
   13.6872  -18.9249   20.6341 C   0  0  0  0  0  0  0  0  0  0  0  0
   14.5487  -19.5214   19.9433 O   0  0  0  0  0  0  0  0  0  0  0  0
   13.8769  -18.5211   22.0429 C   0  0  0  0  0  0  0  0  0  0  0  0
   12.7118  -17.8568   22.6757 C   0  0  0  0  0  0  0  0  0  0  0  0
   12.3852  -18.3843   24.0328 C   0  0  2  0  0  0  0  0  0  0  0  0
   11.2606  -17.6637   24.6281 N   0  0  0  0  0  0  0  0  0  0  0  0
   13.5365  -18.4247   24.9680 C   0  0  0  0  0  0  0  0  0  0  0  0
   13.8136  -17.3839   25.6175 O   0  0  0  0  0  0  0  0  0  0  0  0
   14.3321  -19.5353   25.1777 O   0  0  0  0  0  0  0  0  0  0  0  0
  1  2  1  0
  3  4  1  6
  3  2  1  0
  3  5  1  0
  5  6  1  1
  7  5  1  0
  7  9  1  0
  8  7  2  0
 10  9  1  0
 10 11  1  1
 12 11  1  0
 13 10  1  0
 14 13  2  0
 16 17  2  0
 16 15  1  0
 18 16  1  0
 19 18  1  0
 20 19  1  6
 20 21  1  0
 21 13  1  0
 22 20  1  0
 23 22  2  0
 24 22  1  0
M  END
$$$$
