ICQ.pdb
     RDKit          3D

 24 23  0  0  1  0  0  0  0  0999 V2000
    6.9513  -17.3731   18.7434 C   0  0  0  0  0  0  0  0  0  0  0  0
    6.9750  -15.8697   19.0121 C   0  0  0  0  0  0  0  0  0  0  0  0
    7.3490  -15.7212   20.4648 C   0  0  2  0  0  0  0  0  0  0  0  0
    6.6618  -16.7323   21.3415 C   0  0  0  0  0  0  0  0  0  0  0  0
    7.3631  -14.3312   20.9845 C   0  0  2  0  0  0  0  0  0  0  0  0
    8.2071  -13.5660   20.0506 N   0  0  0  0  0  0  0  0  0  0  0  0
    7.8190  -14.0860   22.3274 C   0  0  0  0  0  0  0  0  0  0  0  0
    9.0408  -14.2948   22.6026 O   0  0  0  0  0  0  0  0  0  0  0  0
    7.0369  -13.6224   23.4135 N   0  0  0  0  0  0  0  0  0  0  0  0
    7.5564  -13.5103   24.7831 C   0  0  1  0  0  0  0  0  0  0  0  0
    6.6074  -12.7129   25.6337 C   0  0  0  0  0  0  0  0  0  0  0  0
    7.0254  -12.6178   27.3667 S   0  0  0  0  0  0  0  0  0  0  0  0
    7.9074  -14.8353   25.3113 C   0  0  0  0  0  0  0  0  0  0  0  0
    7.2585  -15.8500   24.8618 O   0  0  0  0  0  0  0  0  0  0  0  0
    9.7362  -18.6681   22.9311 N   0  0  0  0  0  0  0  0  0  0  0  0
   10.6177  -19.0322   24.0010 C   0  0  0  0  0  0  0  0  0  0  0  0
   11.0679  -20.2021   23.9383 O   0  0  0  0  0  0  0  0  0  0  0  0
   10.9399  -18.0676   25.0731 C   0  0  0  0  0  0  0  0  0  0  0  0
   10.1747  -16.7980   25.0363 C   0  0  0  0  0  0  0  0  0  0  0  0
    9.5692  -16.4248   26.3481 C   0  0  2  0  0  0  0  0  0  0  0  0
    8.8985  -15.1274   26.2755 N   0  0  0  0  0  0  0  0  0  0  0  0
   10.5135  -16.4638   27.4921 C   0  0  0  0  0  0  0  0  0  0  0  0
   10.9771  -15.3757   27.9197 O   0  0  0  0  0  0  0  0  0  0  0  0
   10.9223  -17.6218   28.1265 O   0  0  0  0  0  0  0  0  0  0  0  0
  1  2  1  0
  3  4  1  1
  3  2  1  0
  3  5  1  0
  5  6  1  6
  7  5  1  0
  7  9  1  0
  8  7  2  0
 10  9  1  0
 10 11  1  1
 12 11  1  0
 13 10  1  0
 14 13  2  0
 16 17  2  0
 16 15  1  0
 18 16  1  0
 19 18  1  0
 20 19  1  6
 20 21  1  0
 21 13  1  0
 22 20  1  0
 23 22  2  0
 24 22  1  0
M  END
$$$$
