ICQ.pdb
     RDKit          3D

 24 23  0  0  1  0  0  0  0  0999 V2000
    9.5493  -15.8675   15.2424 C   0  0  0  0  0  0  0  0  0  0  0  0
    8.7716  -14.8586   16.0854 C   0  0  0  0  0  0  0  0  0  0  0  0
    9.3581  -14.9473   17.4711 C   0  0  2  0  0  0  0  0  0  0  0  0
    9.7395  -16.3537   17.8449 C   0  0  0  0  0  0  0  0  0  0  0  0
    8.6422  -14.1802   18.5207 C   0  0  2  0  0  0  0  0  0  0  0  0
    8.7069  -12.7708   18.0972 N   0  0  0  0  0  0  0  0  0  0  0  0
    9.0850  -14.2738   19.8869 C   0  0  0  0  0  0  0  0  0  0  0  0
   10.1617  -13.6883   20.2186 O   0  0  0  0  0  0  0  0  0  0  0  0
    8.4369  -14.9654   20.9395 N   0  0  0  0  0  0  0  0  0  0  0  0
    8.9557  -14.9987   22.3136 C   0  0  1  0  0  0  0  0  0  0  0  0
    7.8300  -15.2095   23.2875 C   0  0  0  0  0  0  0  0  0  0  0  0
    6.5828  -13.9323   23.3065 S   0  0  0  0  0  0  0  0  0  0  0  0
   10.0647  -15.9557   22.4227 C   0  0  0  0  0  0  0  0  0  0  0  0
    9.8980  -17.1255   21.9163 O   0  0  0  0  0  0  0  0  0  0  0  0
   14.8427  -13.8522   21.4518 N   0  0  0  0  0  0  0  0  0  0  0  0
   14.3742  -14.8813   20.5711 C   0  0  0  0  0  0  0  0  0  0  0  0
   14.4958  -14.6248   19.3485 O   0  0  0  0  0  0  0  0  0  0  0  0
   13.7989  -16.1309   21.1110 C   0  0  0  0  0  0  0  0  0  0  0  0
   13.6759  -16.1873   22.5877 C   0  0  0  0  0  0  0  0  0  0  0  0
   12.3746  -16.7442   23.0600 C   0  0  2  0  0  0  0  0  0  0  0  0
   11.3201  -15.7315   23.0319 N   0  0  0  0  0  0  0  0  0  0  0  0
   12.4354  -17.4014   24.3890 C   0  0  0  0  0  0  0  0  0  0  0  0
   11.7094  -16.9494   25.3113 O   0  0  0  0  0  0  0  0  0  0  0  0
   13.2402  -18.4849   24.6869 O   0  0  0  0  0  0  0  0  0  0  0  0
  1  2  1  0
  3  4  1  1
  3  2  1  0
  3  5  1  0
  5  6  1  6
  7  5  1  0
  7  9  1  0
  8  7  2  0
 10  9  1  0
 10 11  1  1
 12 11  1  0
 13 10  1  0
 14 13  2  0
 16 17  2  0
 16 15  1  0
 18 16  1  0
 19 18  1  0
 20 19  1  1
 20 21  1  0
 21 13  1  0
 22 20  1  0
 23 22  2  0
 24 22  1  0
M  END
$$$$
