LKV.pdb
     RDKit          3D

 25 24  0  0  1  0  0  0  0  0999 V2000
   22.4762  -13.9779  -18.2686 C   0  0  0  0  0  0  0  0  0  0  0  0
   22.3517  -15.0785  -19.2949 C   0  0  2  0  0  0  0  0  0  0  0  0
   21.3529  -14.6795  -20.3457 C   0  0  0  0  0  0  0  0  0  0  0  0
   21.9800  -16.3974  -18.6949 C   0  0  0  0  0  0  0  0  0  0  0  0
   22.9724  -16.9201  -17.7130 C   0  0  2  0  0  0  0  0  0  0  0  0
   24.2801  -17.1267  -18.2681 N   0  0  0  0  0  0  0  0  0  0  0  0
   22.4199  -18.2125  -17.1703 C   0  0  0  0  0  0  0  0  0  0  0  0
   21.4943  -18.7244  -17.8077 O   0  0  0  0  0  0  0  0  0  0  0  0
   22.9329  -18.7913  -16.0101 N   0  0  0  0  0  0  0  0  0  0  0  0
   22.5413  -20.0131  -15.3964 C   0  0  1  0  0  0  0  0  0  0  0  0
   23.5317  -20.5280  -14.3348 C   0  0  0  0  0  0  0  0  0  0  0  0
   23.0619  -21.8490  -13.7822 C   0  0  0  0  0  0  0  0  0  0  0  0
   23.9407  -22.9582  -14.3279 C   0  0  0  0  0  0  0  0  0  0  0  0
   23.5990  -24.3034  -13.7689 C   0  0  0  0  0  0  0  0  0  0  0  0
   24.4114  -25.2938  -14.4932 N   0  0  0  0  0  0  0  0  0  0  0  0
   21.2074  -20.0045  -14.8258 C   0  0  0  0  0  0  0  0  0  0  0  0
   20.8836  -19.1711  -13.9083 O   0  0  0  0  0  0  0  0  0  0  0  0
   16.4203  -20.2787  -15.0499 C   0  0  0  0  0  0  0  0  0  0  0  0
   17.7986  -20.3469  -15.6167 C   0  0  2  0  0  0  0  0  0  0  0  0
   17.8592  -21.2594  -16.8081 C   0  0  0  0  0  0  0  0  0  0  0  0
   18.8448  -20.7897  -14.6281 C   0  0  2  0  0  0  0  0  0  0  0  0
   20.1560  -20.8968  -15.2187 N   0  0  0  0  0  0  0  0  0  0  0  0
   18.5132  -22.0470  -13.9551 C   0  0  0  0  0  0  0  0  0  0  0  0
   19.2889  -23.1657  -14.1926 O   0  0  0  0  0  0  0  0  0  0  0  0
   17.5444  -22.1510  -13.1641 O   0  0  0  0  0  0  0  0  0  0  0  0
  2  1  1  1
  3  2  1  0
  4  2  1  0
  4  5  1  0
  5  7  1  0
  5  6  1  6
  7  8  2  0
  9 10  1  0
  9  7  1  0
 11 12  1  0
 10 11  1  1
 13 12  1  0
 13 14  1  0
 15 14  1  0
 16 10  1  0
 17 16  2  0
 19 18  1  1
 19 21  1  0
 20 19  1  0
 21 23  1  0
 21 22  1  6
 22 16  1  0
 23 24  1  0
 25 23  2  0
M  END
$$$$
