LKV.pdb
     RDKit          3D

 25 24  0  0  1  0  0  0  0  0999 V2000
   15.6164  -26.7087   -6.0985 C   0  0  0  0  0  0  0  0  0  0  0  0
   16.4190  -25.4874   -5.7184 C   0  0  2  0  0  0  0  0  0  0  0  0
   17.8862  -25.8146   -5.7560 C   0  0  0  0  0  0  0  0  0  0  0  0
   16.0414  -24.9331   -4.3813 C   0  0  0  0  0  0  0  0  0  0  0  0
   14.6069  -24.5444   -4.2672 C   0  0  2  0  0  0  0  0  0  0  0  0
   14.2295  -23.4673   -5.1380 N   0  0  0  0  0  0  0  0  0  0  0  0
   14.3629  -24.1692   -2.8285 C   0  0  0  0  0  0  0  0  0  0  0  0
   14.6733  -23.0197   -2.5006 O   0  0  0  0  0  0  0  0  0  0  0  0
   13.8158  -25.0782   -1.9237 N   0  0  0  0  0  0  0  0  0  0  0  0
   13.3869  -24.8329   -0.5900 C   0  0  1  0  0  0  0  0  0  0  0  0
   12.5319  -25.9638    0.0125 C   0  0  0  0  0  0  0  0  0  0  0  0
   11.9989  -25.5514    1.3605 C   0  0  0  0  0  0  0  0  0  0  0  0
   10.5300  -25.1976    1.2283 C   0  0  0  0  0  0  0  0  0  0  0  0
    9.8956  -24.8372    2.5347 C   0  0  0  0  0  0  0  0  0  0  0  0
    8.5082  -24.4388    2.2484 N   0  0  0  0  0  0  0  0  0  0  0  0
   14.4526  -24.5071    0.3390 C   0  0  0  0  0  0  0  0  0  0  0  0
   15.6349  -24.9754    0.1834 O   0  0  0  0  0  0  0  0  0  0  0  0
   15.7683  -21.0440    1.2785 C   0  0  0  0  0  0  0  0  0  0  0  0
   15.5515  -21.8293    2.5282 C   0  0  2  0  0  0  0  0  0  0  0  0
   16.6499  -21.5923    3.5247 C   0  0  0  0  0  0  0  0  0  0  0  0
   15.4286  -23.3134    2.3038 C   0  0  2  0  0  0  0  0  0  0  0  0
   14.2937  -23.6582    1.4837 N   0  0  0  0  0  0  0  0  0  0  0  0
   15.3807  -24.0870    3.5460 C   0  0  0  0  0  0  0  0  0  0  0  0
   14.1724  -24.6021    3.9751 O   0  0  0  0  0  0  0  0  0  0  0  0
   16.4016  -24.3033    4.2431 O   0  0  0  0  0  0  0  0  0  0  0  0
  2  1  1  1
  3  2  1  0
  4  2  1  0
  4  5  1  0
  5  7  1  0
  5  6  1  6
  7  8  2  0
  9 10  1  0
  9  7  1  0
 11 12  1  0
 10 11  1  1
 13 12  1  0
 13 14  1  0
 15 14  1  0
 16 10  1  0
 17 16  2  0
 19 18  1  6
 19 21  1  0
 20 19  1  0
 21 23  1  0
 21 22  1  1
 22 16  1  0
 23 24  1  0
 25 23  2  0
M  END
$$$$
