LKV.pdb
     RDKit          3D

 25 24  0  0  1  0  0  0  0  0999 V2000
   10.9768  -12.7233  -12.3466 C   0  0  0  0  0  0  0  0  0  0  0  0
   11.7881  -13.2071  -11.1685 C   0  0  2  0  0  0  0  0  0  0  0  0
   10.9039  -13.3196   -9.9575 C   0  0  0  0  0  0  0  0  0  0  0  0
   12.9681  -12.3359  -10.8747 C   0  0  0  0  0  0  0  0  0  0  0  0
   13.9714  -12.2792  -11.9757 C   0  0  2  0  0  0  0  0  0  0  0  0
   14.6502  -13.5236  -12.2030 N   0  0  0  0  0  0  0  0  0  0  0  0
   14.9583  -11.1977  -11.6202 C   0  0  0  0  0  0  0  0  0  0  0  0
   15.7585  -11.4600  -10.7169 O   0  0  0  0  0  0  0  0  0  0  0  0
   14.9599   -9.9701  -12.2814 N   0  0  0  0  0  0  0  0  0  0  0  0
   15.8363   -8.8687  -12.0771 C   0  0  1  0  0  0  0  0  0  0  0  0
   16.4074   -8.2714  -13.3771 C   0  0  0  0  0  0  0  0  0  0  0  0
   17.4049   -7.1878  -13.0575 C   0  0  0  0  0  0  0  0  0  0  0  0
   18.0054   -6.6669  -14.3492 C   0  0  0  0  0  0  0  0  0  0  0  0
   19.0653   -5.6345  -14.1266 C   0  0  0  0  0  0  0  0  0  0  0  0
   19.5218   -5.1879  -15.4523 N   0  0  0  0  0  0  0  0  0  0  0  0
   15.2832   -7.7951  -11.2730 C   0  0  0  0  0  0  0  0  0  0  0  0
   14.2459   -7.1471  -11.6544 O   0  0  0  0  0  0  0  0  0  0  0  0
   14.3838   -7.8997   -7.4569 C   0  0  0  0  0  0  0  0  0  0  0  0
   15.1179   -6.6422   -7.7811 C   0  0  2  0  0  0  0  0  0  0  0  0
   14.5242   -5.4596   -7.0708 C   0  0  0  0  0  0  0  0  0  0  0  0
   15.1749   -6.3300   -9.2533 C   0  0  2  0  0  0  0  0  0  0  0  0
   15.8239   -7.3679  -10.0156 N   0  0  0  0  0  0  0  0  0  0  0  0
   15.8079   -5.0436   -9.5505 C   0  0  0  0  0  0  0  0  0  0  0  0
   17.0770   -5.0252  -10.0968 O   0  0  0  0  0  0  0  0  0  0  0  0
   15.2395   -3.9472   -9.3273 O   0  0  0  0  0  0  0  0  0  0  0  0
  2  1  1  6
  3  2  1  0
  4  2  1  0
  4  5  1  0
  5  7  1  0
  5  6  1  1
  7  8  2  0
  9 10  1  0
  9  7  1  0
 11 12  1  0
 10 11  1  6
 13 12  1  0
 13 14  1  0
 15 14  1  0
 16 10  1  0
 17 16  2  0
 19 18  1  6
 19 21  1  0
 20 19  1  0
 21 23  1  0
 21 22  1  6
 22 16  1  0
 23 24  1  0
 25 23  2  0
M  END
$$$$
