LKV.pdb
     RDKit          3D

 25 24  0  0  1  0  0  0  0  0999 V2000
   23.2226  -20.4293   -9.2387 C   0  0  0  0  0  0  0  0  0  0  0  0
   24.5016  -20.6624  -10.0067 C   0  0  2  0  0  0  0  0  0  0  0  0
   25.5388  -19.6620   -9.5775 C   0  0  0  0  0  0  0  0  0  0  0  0
   24.3099  -20.6127  -11.4895 C   0  0  0  0  0  0  0  0  0  0  0  0
   23.2274  -21.5054  -11.9930 C   0  0  2  0  0  0  0  0  0  0  0  0
   23.5864  -22.8952  -12.0101 N   0  0  0  0  0  0  0  0  0  0  0  0
   22.8751  -21.0349  -13.3803 C   0  0  0  0  0  0  0  0  0  0  0  0
   23.8136  -20.9140  -14.1740 O   0  0  0  0  0  0  0  0  0  0  0  0
   21.5573  -20.7537  -13.7390 N   0  0  0  0  0  0  0  0  0  0  0  0
   21.0226  -20.5961  -15.0475 C   0  0  1  0  0  0  0  0  0  0  0  0
   19.7513  -21.4255  -15.3102 C   0  0  0  0  0  0  0  0  0  0  0  0
   20.0583  -22.8969  -15.2007 C   0  0  0  0  0  0  0  0  0  0  0  0
   18.8176  -23.6925  -15.5586 C   0  0  0  0  0  0  0  0  0  0  0  0
   19.0504  -25.1706  -15.5576 C   0  0  0  0  0  0  0  0  0  0  0  0
   17.7574  -25.8141  -15.8397 N   0  0  0  0  0  0  0  0  0  0  0  0
   20.7727  -19.2214  -15.4385 C   0  0  0  0  0  0  0  0  0  0  0  0
   20.2998  -18.3702  -14.6060 O   0  0  0  0  0  0  0  0  0  0  0  0
   21.5836  -17.3409  -19.4236 C   0  0  0  0  0  0  0  0  0  0  0  0
   21.7611  -16.7605  -18.0609 C   0  0  2  0  0  0  0  0  0  0  0  0
   23.1589  -16.9679  -17.5521 C   0  0  0  0  0  0  0  0  0  0  0  0
   20.7995  -17.3018  -17.0360 C   0  0  2  0  0  0  0  0  0  0  0  0
   21.0217  -18.6976  -16.7498 N   0  0  0  0  0  0  0  0  0  0  0  0
   19.3943  -17.0988  -17.3933 C   0  0  0  0  0  0  0  0  0  0  0  0
   18.8616  -15.8248  -17.3436 O   0  0  0  0  0  0  0  0  0  0  0  0
   18.6470  -18.0435  -17.7459 O   0  0  0  0  0  0  0  0  0  0  0  0
  2  1  1  1
  3  2  1  0
  4  2  1  0
  4  5  1  0
  5  7  1  0
  5  6  1  6
  7  8  2  0
  9 10  1  0
  9  7  1  0
 11 12  1  0
 10 11  1  1
 13 12  1  0
 13 14  1  0
 15 14  1  0
 16 10  1  0
 17 16  2  0
 19 18  1  6
 19 21  1  0
 20 19  1  0
 21 23  1  0
 21 22  1  6
 22 16  1  0
 23 24  1  0
 25 23  2  0
M  END
$$$$
