LKV.pdb
     RDKit          3D

 25 24  0  0  1  0  0  0  0  0999 V2000
   27.0684  -22.1288  -17.5338 C   0  0  0  0  0  0  0  0  0  0  0  0
   26.3144  -20.8296  -17.3803 C   0  0  2  0  0  0  0  0  0  0  0  0
   26.3242  -20.0820  -18.6848 C   0  0  0  0  0  0  0  0  0  0  0  0
   26.8512  -19.9690  -16.2808 C   0  0  0  0  0  0  0  0  0  0  0  0
   27.2622  -20.7241  -15.0630 C   0  0  2  0  0  0  0  0  0  0  0  0
   27.0369  -22.1387  -15.1574 N   0  0  0  0  0  0  0  0  0  0  0  0
   26.4954  -20.1444  -13.9029 C   0  0  0  0  0  0  0  0  0  0  0  0
   26.4053  -18.9133  -13.8645 O   0  0  0  0  0  0  0  0  0  0  0  0
   25.9220  -20.9623  -12.9300 N   0  0  0  0  0  0  0  0  0  0  0  0
   25.0801  -20.5774  -11.8502 C   0  0  1  0  0  0  0  0  0  0  0  0
   23.6258  -21.0676  -11.9826 C   0  0  0  0  0  0  0  0  0  0  0  0
   22.9905  -20.4841  -13.2184 C   0  0  0  0  0  0  0  0  0  0  0  0
   21.5433  -20.9318  -13.2934 C   0  0  0  0  0  0  0  0  0  0  0  0
   20.8079  -20.3408  -14.4547 C   0  0  0  0  0  0  0  0  0  0  0  0
   19.4642  -20.9406  -14.4685 N   0  0  0  0  0  0  0  0  0  0  0  0
   25.5771  -20.9384  -10.5358 C   0  0  0  0  0  0  0  0  0  0  0  0
   25.9971  -22.1230  -10.2875 O   0  0  0  0  0  0  0  0  0  0  0  0
   27.8870  -18.7713   -7.9913 C   0  0  0  0  0  0  0  0  0  0  0  0
   26.7304  -19.4228   -7.3105 C   0  0  2  0  0  0  0  0  0  0  0  0
   27.1299  -20.0094   -5.9869 C   0  0  0  0  0  0  0  0  0  0  0  0
   26.0701  -20.5028   -8.1265 C   0  0  2  0  0  0  0  0  0  0  0  0
   25.6450  -20.0365   -9.4232 N   0  0  0  0  0  0  0  0  0  0  0  0
   24.9395  -21.1365   -7.4456 C   0  0  0  0  0  0  0  0  0  0  0  0
   25.1822  -22.0137   -6.4059 O   0  0  0  0  0  0  0  0  0  0  0  0
   23.7480  -20.9133   -7.7707 O   0  0  0  0  0  0  0  0  0  0  0  0
  2  1  1  6
  3  2  1  0
  4  2  1  0
  4  5  1  0
  5  7  1  0
  5  6  1  6
  7  8  2  0
  9 10  1  0
  9  7  1  0
 11 12  1  0
 10 11  1  6
 13 12  1  0
 13 14  1  0
 15 14  1  0
 16 10  1  0
 17 16  2  0
 19 18  1  6
 19 21  1  0
 20 19  1  0
 21 23  1  0
 21 22  1  6
 22 16  1  0
 23 24  1  0
 25 23  2  0
M  END
$$$$
