LKV.pdb
     RDKit          3D

 25 24  0  0  1  0  0  0  0  0999 V2000
   25.1557  -11.8889  -14.9894 C   0  0  0  0  0  0  0  0  0  0  0  0
   25.7022  -10.9992  -16.0802 C   0  0  2  0  0  0  0  0  0  0  0  0
   26.9245  -10.2797  -15.5812 C   0  0  0  0  0  0  0  0  0  0  0  0
   24.6945  -10.0212  -16.5959 C   0  0  0  0  0  0  0  0  0  0  0  0
   23.4600  -10.6520  -17.1440 C   0  0  2  0  0  0  0  0  0  0  0  0
   23.6927  -11.4619  -18.3063 N   0  0  0  0  0  0  0  0  0  0  0  0
   22.4973   -9.5376  -17.4623 C   0  0  0  0  0  0  0  0  0  0  0  0
   22.8865   -8.6904  -18.2721 O   0  0  0  0  0  0  0  0  0  0  0  0
   21.2370   -9.4752  -16.8690 N   0  0  0  0  0  0  0  0  0  0  0  0
   20.2379   -8.4780  -17.0428 C   0  0  1  0  0  0  0  0  0  0  0  0
   18.7980   -9.0255  -17.0438 C   0  0  0  0  0  0  0  0  0  0  0  0
   17.8182   -7.9122  -17.3119 C   0  0  0  0  0  0  0  0  0  0  0  0
   16.4245   -8.4959  -17.4425 C   0  0  0  0  0  0  0  0  0  0  0  0
   15.3940   -7.4733  -17.8047 C   0  0  0  0  0  0  0  0  0  0  0  0
   14.1229   -8.1884  -18.0012 N   0  0  0  0  0  0  0  0  0  0  0  0
   20.3165   -7.3718  -16.1073 C   0  0  0  0  0  0  0  0  0  0  0  0
   20.4017   -7.5748  -14.8453 O   0  0  0  0  0  0  0  0  0  0  0  0
   22.9884   -5.2017  -15.4579 C   0  0  0  0  0  0  0  0  0  0  0  0
   21.8278   -4.2769  -15.6111 C   0  0  2  0  0  0  0  0  0  0  0  0
   21.8761   -3.1620  -14.6060 C   0  0  0  0  0  0  0  0  0  0  0  0
   20.4875   -4.9549  -15.5015 C   0  0  2  0  0  0  0  0  0  0  0  0
   20.3070   -5.9897  -16.4894 N   0  0  0  0  0  0  0  0  0  0  0  0
   19.3588   -4.0244  -15.5637 C   0  0  0  0  0  0  0  0  0  0  0  0
   19.0378   -3.2759  -14.4474 O   0  0  0  0  0  0  0  0  0  0  0  0
   18.6646   -3.8777  -16.5989 O   0  0  0  0  0  0  0  0  0  0  0  0
  2  1  1  1
  3  2  1  0
  4  2  1  0
  4  5  1  0
  5  7  1  0
  5  6  1  6
  7  8  2  0
  9 10  1  0
  9  7  1  0
 11 12  1  0
 10 11  1  1
 13 12  1  0
 13 14  1  0
 15 14  1  0
 16 10  1  0
 17 16  2  0
 19 18  1  1
 19 21  1  0
 20 19  1  0
 21 23  1  0
 21 22  1  6
 22 16  1  0
 23 24  1  0
 25 23  2  0
M  END
$$$$
