LKV.pdb
     RDKit          3D

 25 24  0  0  1  0  0  0  0  0999 V2000
   24.0411  -19.5505   -8.8276 C   0  0  0  0  0  0  0  0  0  0  0  0
   24.9724  -20.7245   -9.0124 C   0  0  2  0  0  0  0  0  0  0  0  0
   26.0690  -20.6669   -7.9852 C   0  0  0  0  0  0  0  0  0  0  0  0
   25.5505  -20.8004  -10.3900 C   0  0  0  0  0  0  0  0  0  0  0  0
   24.5374  -20.7163  -11.4802 C   0  0  2  0  0  0  0  0  0  0  0  0
   23.5612  -21.7682  -11.4436 N   0  0  0  0  0  0  0  0  0  0  0  0
   25.2889  -20.7397  -12.7858 C   0  0  0  0  0  0  0  0  0  0  0  0
   26.3973  -21.2842  -12.7716 O   0  0  0  0  0  0  0  0  0  0  0  0
   24.7532  -20.1743  -13.9424 N   0  0  0  0  0  0  0  0  0  0  0  0
   25.2238  -20.3057  -15.2781 C   0  0  1  0  0  0  0  0  0  0  0  0
   24.4032  -21.2844  -16.1393 C   0  0  0  0  0  0  0  0  0  0  0  0
   25.1512  -22.5818  -16.3083 C   0  0  0  0  0  0  0  0  0  0  0  0
   24.3347  -23.5178  -17.1786 C   0  0  0  0  0  0  0  0  0  0  0  0
   25.0453  -24.7979  -17.4874 C   0  0  0  0  0  0  0  0  0  0  0  0
   25.1328  -25.5599  -16.2315 N   0  0  0  0  0  0  0  0  0  0  0  0
   25.3628  -19.0535  -15.9976 C   0  0  0  0  0  0  0  0  0  0  0  0
   24.5061  -18.1109  -15.8606 O   0  0  0  0  0  0  0  0  0  0  0  0
   29.0863  -17.5307  -17.4402 C   0  0  0  0  0  0  0  0  0  0  0  0
   27.8613  -16.7677  -17.0623 C   0  0  2  0  0  0  0  0  0  0  0  0
   27.8114  -16.5037  -15.5846 C   0  0  0  0  0  0  0  0  0  0  0  0
   26.5748  -17.4378  -17.4667 C   0  0  2  0  0  0  0  0  0  0  0  0
   26.4353  -18.7573  -16.9020 N   0  0  0  0  0  0  0  0  0  0  0  0
   26.3881  -17.5101  -18.9171 C   0  0  0  0  0  0  0  0  0  0  0  0
   26.3608  -16.3415  -19.6540 O   0  0  0  0  0  0  0  0  0  0  0  0
   26.2506  -18.6001  -19.5238 O   0  0  0  0  0  0  0  0  0  0  0  0
  2  1  1  6
  3  2  1  0
  4  2  1  0
  4  5  1  0
  5  7  1  0
  5  6  1  6
  7  8  2  0
  9 10  1  0
  9  7  1  0
 11 12  1  0
 10 11  1  6
 13 12  1  0
 13 14  1  0
 15 14  1  0
 16 10  1  0
 17 16  2  0
 19 18  1  1
 19 21  1  0
 20 19  1  0
 21 23  1  0
 21 22  1  6
 22 16  1  0
 23 24  1  0
 25 23  2  0
M  END
$$$$
