LKV.pdb
     RDKit          3D

 25 24  0  0  1  0  0  0  0  0999 V2000
   25.3478  -12.9601  -22.3842 C   0  0  0  0  0  0  0  0  0  0  0  0
   24.3221  -14.0660  -22.4553 C   0  0  2  0  0  0  0  0  0  0  0  0
   24.0798  -14.4396  -23.8914 C   0  0  0  0  0  0  0  0  0  0  0  0
   23.0335  -13.7116  -21.7831 C   0  0  0  0  0  0  0  0  0  0  0  0
   23.1837  -13.3021  -20.3576 C   0  0  2  0  0  0  0  0  0  0  0  0
   23.7680  -14.3147  -19.5245 N   0  0  0  0  0  0  0  0  0  0  0  0
   21.8117  -12.9337  -19.8559 C   0  0  0  0  0  0  0  0  0  0  0  0
   21.0828  -12.3263  -20.6464 O   0  0  0  0  0  0  0  0  0  0  0  0
   21.3966  -13.2652  -18.5667 N   0  0  0  0  0  0  0  0  0  0  0  0
   20.1459  -12.9822  -17.9515 C   0  0  1  0  0  0  0  0  0  0  0  0
   19.8139  -13.8944  -16.7555 C   0  0  0  0  0  0  0  0  0  0  0  0
   18.4077  -13.6362  -16.2788 C   0  0  0  0  0  0  0  0  0  0  0  0
   17.5969  -14.9118  -16.4048 C   0  0  0  0  0  0  0  0  0  0  0  0
   16.1833  -14.7542  -15.9404 C   0  0  0  0  0  0  0  0  0  0  0  0
   15.5063  -16.0414  -16.1650 N   0  0  0  0  0  0  0  0  0  0  0  0
   19.9677  -11.5999  -17.5485 C   0  0  0  0  0  0  0  0  0  0  0  0
   20.8471  -10.9972  -16.8381 O   0  0  0  0  0  0  0  0  0  0  0  0
   16.8566   -8.8786  -19.0609 C   0  0  0  0  0  0  0  0  0  0  0  0
   18.2427   -8.5340  -18.6303 C   0  0  2  0  0  0  0  0  0  0  0  0
   19.2068   -8.5923  -19.7805 C   0  0  0  0  0  0  0  0  0  0  0  0
   18.7736   -9.4065  -17.5235 C   0  0  2  0  0  0  0  0  0  0  0  0
   18.8294  -10.7991  -17.8934 N   0  0  0  0  0  0  0  0  0  0  0  0
   18.0322   -9.2685  -16.2685 C   0  0  0  0  0  0  0  0  0  0  0  0
   18.1975   -8.1267  -15.5080 O   0  0  0  0  0  0  0  0  0  0  0  0
   17.2456  -10.1531  -15.8515 O   0  0  0  0  0  0  0  0  0  0  0  0
  2  1  1  6
  3  2  1  0
  4  2  1  0
  4  5  1  0
  5  7  1  0
  5  6  1  1
  7  8  2  0
  9 10  1  0
  9  7  1  0
 11 12  1  0
 10 11  1  1
 13 12  1  0
 13 14  1  0
 15 14  1  0
 16 10  1  0
 17 16  2  0
 19 18  1  6
 19 21  1  0
 20 19  1  0
 21 23  1  0
 21 22  1  6
 22 16  1  0
 23 24  1  0
 25 23  2  0
M  END
$$$$
