LKV.pdb
     RDKit          3D

 25 24  0  0  1  0  0  0  0  0999 V2000
   26.5382  -21.0093   -6.7031 C   0  0  0  0  0  0  0  0  0  0  0  0
   27.5130  -19.9853   -7.2334 C   0  0  2  0  0  0  0  0  0  0  0  0
   27.3116  -18.6777   -6.5189 C   0  0  0  0  0  0  0  0  0  0  0  0
   27.4109  -19.7931   -8.7134 C   0  0  0  0  0  0  0  0  0  0  0  0
   27.7049  -21.0198   -9.5077 C   0  0  2  0  0  0  0  0  0  0  0  0
   29.1032  -21.3349   -9.5870 N   0  0  0  0  0  0  0  0  0  0  0  0
   27.1345  -20.8026  -10.8852 C   0  0  0  0  0  0  0  0  0  0  0  0
   27.7400  -20.0078  -11.6111 O   0  0  0  0  0  0  0  0  0  0  0  0
   25.9845  -21.4679  -11.3083 N   0  0  0  0  0  0  0  0  0  0  0  0
   25.4600  -21.5537  -12.6275 C   0  0  1  0  0  0  0  0  0  0  0  0
   24.4183  -22.6725  -12.8174 C   0  0  0  0  0  0  0  0  0  0  0  0
   24.1303  -22.8720  -14.2831 C   0  0  0  0  0  0  0  0  0  0  0  0
   24.9365  -24.0511  -14.7931 C   0  0  0  0  0  0  0  0  0  0  0  0
   24.7091  -24.3304  -16.2454 C   0  0  0  0  0  0  0  0  0  0  0  0
   25.6136  -25.4280  -16.6234 N   0  0  0  0  0  0  0  0  0  0  0  0
   24.9128  -20.3132  -13.1440 C   0  0  0  0  0  0  0  0  0  0  0  0
   24.1705  -19.5624  -12.4183 O   0  0  0  0  0  0  0  0  0  0  0  0
   27.0558  -17.7155  -15.2077 C   0  0  0  0  0  0  0  0  0  0  0  0
   25.6722  -17.8020  -15.7586 C   0  0  2  0  0  0  0  0  0  0  0  0
   25.1224  -16.4422  -16.0817 C   0  0  0  0  0  0  0  0  0  0  0  0
   24.6959  -18.5037  -14.8517 C   0  0  2  0  0  0  0  0  0  0  0  0
   25.1408  -19.8216  -14.4715 N   0  0  0  0  0  0  0  0  0  0  0  0
   23.3447  -18.5911  -15.4087 C   0  0  0  0  0  0  0  0  0  0  0  0
   22.3585  -17.7533  -14.9240 O   0  0  0  0  0  0  0  0  0  0  0  0
   23.0430  -19.4033  -16.3167 O   0  0  0  0  0  0  0  0  0  0  0  0
  2  1  1  1
  3  2  1  0
  4  2  1  0
  4  5  1  0
  5  7  1  0
  5  6  1  6
  7  8  2  0
  9 10  1  0
  9  7  1  0
 11 12  1  0
 10 11  1  1
 13 12  1  0
 13 14  1  0
 15 14  1  0
 16 10  1  0
 17 16  2  0
 19 18  1  1
 19 21  1  0
 20 19  1  0
 21 23  1  0
 21 22  1  6
 22 16  1  0
 23 24  1  0
 25 23  2  0
M  END
$$$$
