LKV.pdb
     RDKit          3D

 25 24  0  0  1  0  0  0  0  0999 V2000
   28.9170  -20.6610   -5.5448 C   0  0  0  0  0  0  0  0  0  0  0  0
   27.5986  -19.9403   -5.3951 C   0  0  2  0  0  0  0  0  0  0  0  0
   26.9252  -20.3765   -4.1235 C   0  0  0  0  0  0  0  0  0  0  0  0
   26.6872  -20.1411   -6.5643 C   0  0  0  0  0  0  0  0  0  0  0  0
   27.2995  -19.7961   -7.8789 C   0  0  2  0  0  0  0  0  0  0  0  0
   27.9693  -18.5264   -7.8884 N   0  0  0  0  0  0  0  0  0  0  0  0
   26.1931  -19.8161   -8.9014 C   0  0  0  0  0  0  0  0  0  0  0  0
   25.3991  -18.8707   -8.8698 O   0  0  0  0  0  0  0  0  0  0  0  0
   26.0804  -20.8508   -9.8293 N   0  0  0  0  0  0  0  0  0  0  0  0
   25.4034  -20.8331  -11.0799 C   0  0  1  0  0  0  0  0  0  0  0  0
   25.9840  -21.8078  -12.1220 C   0  0  0  0  0  0  0  0  0  0  0  0
   26.4769  -21.0484  -13.3268 C   0  0  0  0  0  0  0  0  0  0  0  0
   27.0442  -22.0286  -14.3356 C   0  0  0  0  0  0  0  0  0  0  0  0
   27.5386  -21.3644  -15.5819 C   0  0  0  0  0  0  0  0  0  0  0  0
   28.0976  -22.4185  -16.4433 N   0  0  0  0  0  0  0  0  0  0  0  0
   23.9696  -21.0385  -10.9959 C   0  0  0  0  0  0  0  0  0  0  0  0
   23.4502  -21.7063  -10.0338 O   0  0  0  0  0  0  0  0  0  0  0  0
   21.2444  -18.2139  -11.1783 C   0  0  0  0  0  0  0  0  0  0  0  0
   20.8623  -19.3769  -12.0309 C   0  0  2  0  0  0  0  0  0  0  0  0
   19.3899  -19.6608  -11.9467 C   0  0  0  0  0  0  0  0  0  0  0  0
   21.6077  -20.6444  -11.7056 C   0  0  2  0  0  0  0  0  0  0  0  0
   23.0247  -20.5323  -11.9482 N   0  0  0  0  0  0  0  0  0  0  0  0
   21.0884  -21.8203  -12.4065 C   0  0  0  0  0  0  0  0  0  0  0  0
   20.1509  -22.6202  -11.7815 O   0  0  0  0  0  0  0  0  0  0  0  0
   21.4634  -22.1340  -13.5624 O   0  0  0  0  0  0  0  0  0  0  0  0
  2  1  1  6
  3  2  1  0
  4  2  1  0
  4  5  1  0
  5  7  1  0
  5  6  1  1
  7  8  2  0
  9 10  1  0
  9  7  1  0
 11 12  1  0
 10 11  1  6
 13 12  1  0
 13 14  1  0
 15 14  1  0
 16 10  1  0
 17 16  2  0
 19 18  1  1
 19 21  1  0
 20 19  1  0
 21 23  1  0
 21 22  1  6
 22 16  1  0
 23 24  1  0
 25 23  2  0
M  END
$$$$
