LKV.pdb
     RDKit          3D

 25 24  0  0  1  0  0  0  0  0999 V2000
   22.2321  -12.9628  -22.6198 C   0  0  0  0  0  0  0  0  0  0  0  0
   23.4638  -13.1467  -21.7658 C   0  0  2  0  0  0  0  0  0  0  0  0
   23.4473  -14.5148  -21.1422 C   0  0  0  0  0  0  0  0  0  0  0  0
   23.6066  -12.0941  -20.7124 C   0  0  0  0  0  0  0  0  0  0  0  0
   23.5634  -10.6993  -21.2366 C   0  0  2  0  0  0  0  0  0  0  0  0
   24.7835  -10.2814  -21.8671 N   0  0  0  0  0  0  0  0  0  0  0  0
   23.2358   -9.7993  -20.0736 C   0  0  0  0  0  0  0  0  0  0  0  0
   24.1528   -9.5754  -19.2773 O   0  0  0  0  0  0  0  0  0  0  0  0
   21.9627   -9.2534  -19.9139 N   0  0  0  0  0  0  0  0  0  0  0  0
   21.5146   -8.3636  -18.8988 C   0  0  1  0  0  0  0  0  0  0  0  0
   20.1994   -7.6365  -19.2372 C   0  0  0  0  0  0  0  0  0  0  0  0
   19.9072   -6.5810  -18.2019 C   0  0  0  0  0  0  0  0  0  0  0  0
   18.5932   -5.9028  -18.5392 C   0  0  0  0  0  0  0  0  0  0  0  0
   18.2102   -4.8462  -17.5514 C   0  0  0  0  0  0  0  0  0  0  0  0
   16.9939   -4.1942  -18.0625 N   0  0  0  0  0  0  0  0  0  0  0  0
   21.3938   -8.9589  -17.5812 C   0  0  0  0  0  0  0  0  0  0  0  0
   20.6523   -9.9844  -17.3818 O   0  0  0  0  0  0  0  0  0  0  0  0
   23.5847  -10.9256  -15.6159 C   0  0  0  0  0  0  0  0  0  0  0  0
   23.1310   -9.8535  -14.6830 C   0  0  2  0  0  0  0  0  0  0  0  0
   22.8808  -10.3934  -13.3040 C   0  0  0  0  0  0  0  0  0  0  0  0
   21.8916   -9.1300  -15.1398 C   0  0  2  0  0  0  0  0  0  0  0  0
   22.0689   -8.4753  -16.4123 N   0  0  0  0  0  0  0  0  0  0  0  0
   21.3908   -8.1614  -14.1628 C   0  0  0  0  0  0  0  0  0  0  0  0
   21.5480   -6.8107  -14.4087 O   0  0  0  0  0  0  0  0  0  0  0  0
   20.8193   -8.5110  -13.1015 O   0  0  0  0  0  0  0  0  0  0  0  0
  2  1  1  1
  3  2  1  0
  4  2  1  0
  4  5  1  0
  5  7  1  0
  5  6  1  1
  7  8  2  0
  9 10  1  0
  9  7  1  0
 11 12  1  0
 10 11  1  6
 13 12  1  0
 13 14  1  0
 15 14  1  0
 16 10  1  0
 17 16  2  0
 19 18  1  6
 19 21  1  0
 20 19  1  0
 21 23  1  0
 21 22  1  6
 22 16  1  0
 23 24  1  0
 25 23  2  0
M  END
$$$$
