LKV.pdb
     RDKit          3D

 25 24  0  0  1  0  0  0  0  0999 V2000
   18.3731  -12.4552    3.7557 C   0  0  0  0  0  0  0  0  0  0  0  0
   18.6683  -11.8468    5.1057 C   0  0  2  0  0  0  0  0  0  0  0  0
   20.0077  -11.1643    5.0710 C   0  0  0  0  0  0  0  0  0  0  0  0
   18.6190  -12.8443    6.2194 C   0  0  0  0  0  0  0  0  0  0  0  0
   17.3942  -13.6940    6.2209 C   0  0  2  0  0  0  0  0  0  0  0  0
   16.1898  -12.9703    6.5148 N   0  0  0  0  0  0  0  0  0  0  0  0
   17.6141  -14.7858    7.2357 C   0  0  0  0  0  0  0  0  0  0  0  0
   17.6721  -14.4330    8.4178 O   0  0  0  0  0  0  0  0  0  0  0  0
   17.7438  -16.1197    6.8508 N   0  0  0  0  0  0  0  0  0  0  0  0
   17.9182  -17.2572    7.6865 C   0  0  1  0  0  0  0  0  0  0  0  0
   17.1612  -18.5103    7.2071 C   0  0  0  0  0  0  0  0  0  0  0  0
   17.1664  -19.5649    8.2837 C   0  0  0  0  0  0  0  0  0  0  0  0
   16.3404  -20.7507    7.8233 C   0  0  0  0  0  0  0  0  0  0  0  0
   16.1462  -21.7786    8.8932 C   0  0  0  0  0  0  0  0  0  0  0  0
   15.2304  -22.7973    8.3556 N   0  0  0  0  0  0  0  0  0  0  0  0
   19.3008  -17.6156    7.9415 C   0  0  0  0  0  0  0  0  0  0  0  0
   20.1273  -17.7977    6.9798 O   0  0  0  0  0  0  0  0  0  0  0  0
   22.1033  -15.7983    9.5092 C   0  0  0  0  0  0  0  0  0  0  0  0
   22.0289  -17.1282   10.1810 C   0  0  2  0  0  0  0  0  0  0  0  0
   23.3971  -17.6835   10.4552 C   0  0  0  0  0  0  0  0  0  0  0  0
   21.2457  -18.1588    9.4112 C   0  0  2  0  0  0  0  0  0  0  0  0
   19.8596  -17.7952    9.2498 N   0  0  0  0  0  0  0  0  0  0  0  0
   21.3297  -19.5021    9.9873 C   0  0  0  0  0  0  0  0  0  0  0  0
   22.1572  -20.4393    9.3988 O   0  0  0  0  0  0  0  0  0  0  0  0
   20.6747  -19.8402   11.0031 O   0  0  0  0  0  0  0  0  0  0  0  0
  2  1  1  6
  3  2  1  0
  4  2  1  0
  4  5  1  0
  5  7  1  0
  5  6  1  1
  7  8  2  0
  9 10  1  0
  9  7  1  0
 11 12  1  0
 10 11  1  6
 13 12  1  0
 13 14  1  0
 15 14  1  0
 16 10  1  0
 17 16  2  0
 19 18  1  6
 19 21  1  0
 20 19  1  0
 21 23  1  0
 21 22  1  1
 22 16  1  0
 23 24  1  0
 25 23  2  0
M  END
$$$$
