LKV.pdb
     RDKit          3D

 25 24  0  0  1  0  0  0  0  0999 V2000
   31.1467  -23.6606  -10.5826 C   0  0  0  0  0  0  0  0  0  0  0  0
   31.6418  -22.4153  -11.2784 C   0  0  2  0  0  0  0  0  0  0  0  0
   32.9792  -22.0198  -10.7164 C   0  0  0  0  0  0  0  0  0  0  0  0
   30.6790  -21.2740  -11.1883 C   0  0  0  0  0  0  0  0  0  0  0  0
   29.3461  -21.5535  -11.7944 C   0  0  2  0  0  0  0  0  0  0  0  0
   29.2436  -21.1591  -13.1709 N   0  0  0  0  0  0  0  0  0  0  0  0
   28.3203  -20.8301  -10.9610 C   0  0  0  0  0  0  0  0  0  0  0  0
   28.2815  -19.6017  -11.0825 O   0  0  0  0  0  0  0  0  0  0  0  0
   27.4655  -21.5195  -10.1018 N   0  0  0  0  0  0  0  0  0  0  0  0
   26.5085  -20.9768   -9.2005 C   0  0  1  0  0  0  0  0  0  0  0  0
   25.0870  -21.5431   -9.3783 C   0  0  0  0  0  0  0  0  0  0  0  0
   24.1524  -20.4622   -9.8572 C   0  0  0  0  0  0  0  0  0  0  0  0
   23.7872  -20.7252  -11.3056 C   0  0  0  0  0  0  0  0  0  0  0  0
   23.0048  -19.6093  -11.9232 C   0  0  0  0  0  0  0  0  0  0  0  0
   22.8203  -19.9429  -13.3445 N   0  0  0  0  0  0  0  0  0  0  0  0
   26.8757  -21.0673   -7.7998 C   0  0  0  0  0  0  0  0  0  0  0  0
   26.8550  -22.1880   -7.1794 O   0  0  0  0  0  0  0  0  0  0  0  0
   28.0914  -17.6868   -5.2537 C   0  0  0  0  0  0  0  0  0  0  0  0
   28.6131  -19.0790   -5.1301 C   0  0  2  0  0  0  0  0  0  0  0  0
   29.9144  -19.2459   -5.8610 C   0  0  0  0  0  0  0  0  0  0  0  0
   27.6574  -20.1355   -5.6184 C   0  0  2  0  0  0  0  0  0  0  0  0
   27.2840  -19.9502   -6.9989 N   0  0  0  0  0  0  0  0  0  0  0  0
   26.4479  -20.2477   -4.8009 C   0  0  0  0  0  0  0  0  0  0  0  0
   26.5578  -20.6487   -3.4831 O   0  0  0  0  0  0  0  0  0  0  0  0
   25.3051  -19.9921   -5.2524 O   0  0  0  0  0  0  0  0  0  0  0  0
  2  1  1  1
  3  2  1  0
  4  2  1  0
  4  5  1  0
  5  7  1  0
  5  6  1  6
  7  8  2  0
  9 10  1  0
  9  7  1  0
 11 12  1  0
 10 11  1  1
 13 12  1  0
 13 14  1  0
 15 14  1  0
 16 10  1  0
 17 16  2  0
 19 18  1  6
 19 21  1  0
 20 19  1  0
 21 23  1  0
 21 22  1  6
 22 16  1  0
 23 24  1  0
 25 23  2  0
M  END
$$$$
