LKV.pdb
     RDKit          3D

 25 24  0  0  1  0  0  0  0  0999 V2000
   22.3125  -15.6141  -14.5651 C   0  0  0  0  0  0  0  0  0  0  0  0
   23.0706  -15.0087  -15.7222 C   0  0  2  0  0  0  0  0  0  0  0  0
   24.5273  -14.8940  -15.3678 C   0  0  0  0  0  0  0  0  0  0  0  0
   22.5292  -13.6794  -16.1436 C   0  0  0  0  0  0  0  0  0  0  0  0
   21.0770  -13.6931  -16.4800 C   0  0  2  0  0  0  0  0  0  0  0  0
   20.7556  -14.5073  -17.6178 N   0  0  0  0  0  0  0  0  0  0  0  0
   20.6650  -12.2641  -16.7211 C   0  0  0  0  0  0  0  0  0  0  0  0
   21.3278  -11.6341  -17.5512 O   0  0  0  0  0  0  0  0  0  0  0  0
   19.5917  -11.6927  -16.0387 N   0  0  0  0  0  0  0  0  0  0  0  0
   18.9959  -10.4197  -16.2562 C   0  0  1  0  0  0  0  0  0  0  0  0
   17.5001  -10.3564  -15.8934 C   0  0  0  0  0  0  0  0  0  0  0  0
   16.7029  -11.2415  -16.8165 C   0  0  0  0  0  0  0  0  0  0  0  0
   15.9138  -12.2397  -15.9912 C   0  0  0  0  0  0  0  0  0  0  0  0
   15.1126  -13.1866  -16.8280 C   0  0  0  0  0  0  0  0  0  0  0  0
   14.3835  -14.0714  -15.9055 N   0  0  0  0  0  0  0  0  0  0  0  0
   19.6797   -9.3128  -15.6141 C   0  0  0  0  0  0  0  0  0  0  0  0
   20.0663   -9.3891  -14.3951 O   0  0  0  0  0  0  0  0  0  0  0  0
   21.6313   -6.0784  -17.7453 C   0  0  0  0  0  0  0  0  0  0  0  0
   21.9856   -6.6639  -16.4197 C   0  0  2  0  0  0  0  0  0  0  0  0
   22.8929   -7.8517  -16.5675 C   0  0  0  0  0  0  0  0  0  0  0  0
   20.7945   -7.0780  -15.5964 C   0  0  2  0  0  0  0  0  0  0  0  0
   19.9801   -8.0673  -16.2578 N   0  0  0  0  0  0  0  0  0  0  0  0
   19.9519   -5.9530  -15.1866 C   0  0  0  0  0  0  0  0  0  0  0  0
   20.4378   -5.0454  -14.2649 O   0  0  0  0  0  0  0  0  0  0  0  0
   18.7958   -5.7779  -15.6425 O   0  0  0  0  0  0  0  0  0  0  0  0
  2  1  1  1
  3  2  1  0
  4  2  1  0
  4  5  1  0
  5  7  1  0
  5  6  1  6
  7  8  2  0
  9 10  1  0
  9  7  1  0
 11 12  1  0
 10 11  1  1
 13 12  1  0
 13 14  1  0
 15 14  1  0
 16 10  1  0
 17 16  2  0
 19 18  1  6
 19 21  1  0
 20 19  1  0
 21 23  1  0
 21 22  1  6
 22 16  1  0
 23 24  1  0
 25 23  2  0
M  END
$$$$
