FMD.pdb
     RDKit          3D

 28 28  0  0  1  0  0  0  0  0999 V2000
    9.4797  -17.6570   20.9429 N   0  0  0  0  0  0  0  0  0  0  0  0
    9.1088  -16.3879   21.5837 C   0  0  1  0  0  0  0  0  0  0  0  0
    7.6535  -16.1573   21.1807 C   0  0  0  0  0  0  0  0  0  0  0  0
    7.5724  -14.7796   20.6275 C   0  0  0  0  0  0  0  0  0  0  0  0
    7.7697  -14.5050   19.2822 C   0  0  0  0  0  0  0  0  0  0  0  0
    7.6874  -13.2198   18.7912 C   0  0  0  0  0  0  0  0  0  0  0  0
    7.4047  -12.1783   19.6408 C   0  0  0  0  0  0  0  0  0  0  0  0
    7.2076  -12.4276   20.9663 C   0  0  0  0  0  0  0  0  0  0  0  0
    7.2908  -13.7184   21.4560 C   0  0  0  0  0  0  0  0  0  0  0  0
    9.2508  -16.4844   23.0476 C   0  0  0  0  0  0  0  0  0  0  0  0
   10.0776  -17.2881   23.5300 O   0  0  0  0  0  0  0  0  0  0  0  0
    6.3077  -11.3981   26.0806 C   0  0  0  0  0  0  0  0  0  0  0  0
    6.4492  -12.7061   27.2981 S   0  0  0  0  0  0  0  0  0  0  0  0
    7.9872  -13.6946   27.0337 C   0  0  0  0  0  0  0  0  0  0  0  0
    7.8395  -14.2838   25.6635 C   0  0  0  0  0  0  0  0  0  0  0  0
    8.9801  -15.0977   25.1579 C   0  0  2  0  0  0  0  0  0  0  0  0
    8.4683  -15.6845   23.8873 N   0  0  0  0  0  0  0  0  0  0  0  0
    9.2294  -16.2593   26.0308 C   0  0  0  0  0  0  0  0  0  0  0  0
    9.6341  -16.0862   27.2444 O   0  0  0  0  0  0  0  0  0  0  0  0
    9.0595  -17.6239   25.6716 N   0  0  0  0  0  0  0  0  0  0  0  0
    9.4263  -18.6977   26.6171 C   0  0  1  0  0  0  0  0  0  0  0  0
    8.6405  -19.9379   26.2850 C   0  0  0  0  0  0  0  0  0  0  0  0
    7.3722  -20.0112   26.9955 C   0  0  0  0  0  0  0  0  0  0  0  0
    7.2729  -19.8622   28.2214 O   0  0  0  0  0  0  0  0  0  0  0  0
   10.8879  -18.8490   26.4718 C   0  0  0  0  0  0  0  0  0  0  0  0
   11.5592  -19.3550   27.3943 O   0  0  0  0  0  0  0  0  0  0  0  0
    6.1996  -20.2618   26.2709 O   0  0  0  0  0  0  0  0  0  0  0  0
   11.6048  -18.4596   25.3476 O   0  0  0  0  0  0  0  0  0  0  0  0
  2  3  1  0
  2  1  1  6
  4  5  2  0
  4  3  1  0
  6  5  1  0
  7  6  2  0
  8  7  1  0
  8  9  2  0
  9  4  1  0
 10  2  1  0
 11 10  2  0
 13 12  1  0
 14 13  1  0
 15 14  1  0
 16 15  1  1
 16 17  1  0
 17 10  1  0
 18 16  1  0
 18 20  1  0
 19 18  2  0
 21 22  1  6
 21 20  1  0
 21 25  1  0
 23 24  2  0
 23 22  1  0
 25 28  1  0
 26 25  2  0
 27 23  1  0
M  END
$$$$
