FMD.pdb
     RDKit          3D

 28 28  0  0  1  0  0  0  0  0999 V2000
    6.9749  -17.1535   26.4327 N   0  0  0  0  0  0  0  0  0  0  0  0
    7.0223  -16.1082   25.4012 C   0  0  1  0  0  0  0  0  0  0  0  0
    8.1939  -15.2145   25.8039 C   0  0  0  0  0  0  0  0  0  0  0  0
    7.6118  -13.9521   26.3313 C   0  0  0  0  0  0  0  0  0  0  0  0
    6.4744  -13.3730   25.7879 C   0  0  0  0  0  0  0  0  0  0  0  0
    5.9511  -12.2031   26.2948 C   0  0  0  0  0  0  0  0  0  0  0  0
    6.5585  -11.5859   27.3609 C   0  0  0  0  0  0  0  0  0  0  0  0
    7.6772  -12.1392   27.9089 C   0  0  0  0  0  0  0  0  0  0  0  0
    8.2000  -13.3133   27.3980 C   0  0  0  0  0  0  0  0  0  0  0  0
    7.2346  -16.7025   24.0691 C   0  0  0  0  0  0  0  0  0  0  0  0
    7.3443  -17.9430   23.9635 O   0  0  0  0  0  0  0  0  0  0  0  0
    8.0479  -12.2786   21.3636 C   0  0  0  0  0  0  0  0  0  0  0  0
    8.1053  -12.9655   19.7088 S   0  0  0  0  0  0  0  0  0  0  0  0
    8.2576  -14.8058   19.7598 C   0  0  0  0  0  0  0  0  0  0  0  0
    7.1635  -15.2609   20.6775 C   0  0  0  0  0  0  0  0  0  0  0  0
    7.4665  -16.4256   21.5554 C   0  0  2  0  0  0  0  0  0  0  0  0
    7.3120  -15.8859   22.9357 N   0  0  0  0  0  0  0  0  0  0  0  0
    8.8882  -16.8041   21.4603 C   0  0  0  0  0  0  0  0  0  0  0  0
    9.3378  -17.3828   20.3976 O   0  0  0  0  0  0  0  0  0  0  0  0
    9.8773  -16.5871   22.4577 N   0  0  0  0  0  0  0  0  0  0  0  0
   11.2830  -16.9682   22.2127 C   0  0  1  0  0  0  0  0  0  0  0  0
   12.0140  -15.7987   21.6095 C   0  0  0  0  0  0  0  0  0  0  0  0
   13.4225  -16.0753   21.3681 C   0  0  0  0  0  0  0  0  0  0  0  0
   14.3344  -15.3267   21.7465 O   0  0  0  0  0  0  0  0  0  0  0  0
   11.7976  -17.3902   23.5308 C   0  0  0  0  0  0  0  0  0  0  0  0
   12.9990  -17.7015   23.6630 O   0  0  0  0  0  0  0  0  0  0  0  0
   13.7786  -17.2402   20.6761 O   0  0  0  0  0  0  0  0  0  0  0  0
   11.0233  -17.4716   24.6811 O   0  0  0  0  0  0  0  0  0  0  0  0
  2  3  1  0
  2  1  1  1
  4  5  2  0
  4  3  1  0
  6  5  1  0
  7  6  2  0
  8  7  1  0
  8  9  2  0
  9  4  1  0
 10  2  1  0
 11 10  2  0
 13 12  1  0
 14 13  1  0
 15 14  1  0
 16 15  1  6
 16 17  1  0
 17 10  1  0
 18 16  1  0
 18 20  1  0
 19 18  2  0
 21 22  1  1
 21 20  1  0
 21 25  1  0
 23 24  2  0
 23 22  1  0
 25 28  1  0
 26 25  2  0
 27 23  1  0
M  END
$$$$
