FMD.pdb
     RDKit          3D

 28 28  0  0  1  0  0  0  0  0999 V2000
    7.9791  -17.1082   20.8396 N   0  0  0  0  0  0  0  0  0  0  0  0
    9.3428  -16.5631   20.7943 C   0  0  1  0  0  0  0  0  0  0  0  0
    9.3455  -15.6159   19.5959 C   0  0  0  0  0  0  0  0  0  0  0  0
    8.6034  -14.3956   20.0091 C   0  0  0  0  0  0  0  0  0  0  0  0
    9.2194  -13.1602   20.1451 C   0  0  0  0  0  0  0  0  0  0  0  0
    8.5108  -12.0417   20.5274 C   0  0  0  0  0  0  0  0  0  0  0  0
    7.1646  -12.1373   20.7826 C   0  0  0  0  0  0  0  0  0  0  0  0
    6.5408  -13.3425   20.6545 C   0  0  0  0  0  0  0  0  0  0  0  0
    7.2547  -14.4632   20.2707 C   0  0  0  0  0  0  0  0  0  0  0  0
    9.6577  -15.8474   22.0439 C   0  0  0  0  0  0  0  0  0  0  0  0
   10.7427  -15.2346   22.1408 O   0  0  0  0  0  0  0  0  0  0  0  0
    6.7652  -11.6020   26.2714 C   0  0  0  0  0  0  0  0  0  0  0  0
    6.4822  -13.3160   26.7132 S   0  0  0  0  0  0  0  0  0  0  0  0
    8.0072  -14.3269   26.4579 C   0  0  0  0  0  0  0  0  0  0  0  0
    7.9828  -14.7076   25.0085 C   0  0  0  0  0  0  0  0  0  0  0  0
    9.1366  -15.5045   24.5056 C   0  0  2  0  0  0  0  0  0  0  0  0
    8.7511  -15.8546   23.1094 N   0  0  0  0  0  0  0  0  0  0  0  0
    9.2286  -16.8002   25.2027 C   0  0  0  0  0  0  0  0  0  0  0  0
    8.9060  -17.8914   24.5932 O   0  0  0  0  0  0  0  0  0  0  0  0
    9.6623  -16.9976   26.5418 N   0  0  0  0  0  0  0  0  0  0  0  0
   10.6587  -18.0405   26.8595 C   0  0  1  0  0  0  0  0  0  0  0  0
   11.8707  -17.8476   25.9879 C   0  0  0  0  0  0  0  0  0  0  0  0
   12.1635  -19.0091   25.1610 C   0  0  0  0  0  0  0  0  0  0  0  0
   11.4906  -20.0490   25.1909 O   0  0  0  0  0  0  0  0  0  0  0  0
   10.9207  -17.8880   28.3047 C   0  0  0  0  0  0  0  0  0  0  0  0
   11.1876  -18.8888   29.0011 O   0  0  0  0  0  0  0  0  0  0  0  0
   13.2555  -18.9629   24.2846 O   0  0  0  0  0  0  0  0  0  0  0  0
   10.8941  -16.6738   28.9786 O   0  0  0  0  0  0  0  0  0  0  0  0
  2  3  1  0
  2  1  1  1
  4  5  2  0
  4  3  1  0
  6  5  1  0
  7  6  2  0
  8  7  1  0
  8  9  2  0
  9  4  1  0
 10  2  1  0
 11 10  2  0
 13 12  1  0
 14 13  1  0
 15 14  1  0
 16 15  1  1
 16 17  1  0
 17 10  1  0
 18 16  1  0
 18 20  1  0
 19 18  2  0
 21 22  1  6
 21 20  1  0
 21 25  1  0
 23 24  2  0
 23 22  1  0
 25 28  1  0
 26 25  2  0
 27 23  1  0
M  END
$$$$
