FMD.pdb
     RDKit          3D

 28 28  0  0  1  0  0  0  0  0999 V2000
    6.0945  -18.3744   25.9453 N   0  0  0  0  0  0  0  0  0  0  0  0
    6.3789  -16.9553   25.6920 C   0  0  1  0  0  0  0  0  0  0  0  0
    6.9584  -16.4324   27.0051 C   0  0  0  0  0  0  0  0  0  0  0  0
    6.9978  -14.9500   26.8991 C   0  0  0  0  0  0  0  0  0  0  0  0
    8.1873  -14.2367   26.8777 C   0  0  0  0  0  0  0  0  0  0  0  0
    8.1997  -12.8622   26.7764 C   0  0  0  0  0  0  0  0  0  0  0  0
    7.0161  -12.1704   26.6942 C   0  0  0  0  0  0  0  0  0  0  0  0
    5.8365  -12.8532   26.7136 C   0  0  0  0  0  0  0  0  0  0  0  0
    5.8273  -14.2324   26.8153 C   0  0  0  0  0  0  0  0  0  0  0  0
    7.3410  -16.8080   24.5851 C   0  0  0  0  0  0  0  0  0  0  0  0
    8.2714  -17.6347   24.4697 O   0  0  0  0  0  0  0  0  0  0  0  0
    8.1475  -11.8424   18.4512 C   0  0  0  0  0  0  0  0  0  0  0  0
    7.3644  -12.5194   19.9147 S   0  0  0  0  0  0  0  0  0  0  0  0
    8.4096  -13.8390   20.6755 C   0  0  0  0  0  0  0  0  0  0  0  0
    7.6061  -14.3524   21.8319 C   0  0  0  0  0  0  0  0  0  0  0  0
    8.0805  -15.6119   22.4705 C   0  0  2  0  0  0  0  0  0  0  0  0
    7.2134  -15.7541   23.6740 N   0  0  0  0  0  0  0  0  0  0  0  0
    9.4430  -15.4511   23.0099 C   0  0  0  0  0  0  0  0  0  0  0  0
    9.6202  -14.9983   24.2058 O   0  0  0  0  0  0  0  0  0  0  0  0
   10.6514  -15.7607   22.3287 N   0  0  0  0  0  0  0  0  0  0  0  0
   11.9031  -15.9716   23.0838 C   0  0  1  0  0  0  0  0  0  0  0  0
   11.6851  -17.0515   24.1096 C   0  0  0  0  0  0  0  0  0  0  0  0
   12.9188  -17.4764   24.7546 C   0  0  0  0  0  0  0  0  0  0  0  0
   13.8220  -16.6905   25.0736 O   0  0  0  0  0  0  0  0  0  0  0  0
   12.9135  -16.3036   22.0595 C   0  0  0  0  0  0  0  0  0  0  0  0
   12.5542  -16.6488   20.9151 O   0  0  0  0  0  0  0  0  0  0  0  0
   13.1075  -18.8362   25.0340 O   0  0  0  0  0  0  0  0  0  0  0  0
   14.2851  -16.2606   22.2737 O   0  0  0  0  0  0  0  0  0  0  0  0
  2  3  1  0
  2  1  1  1
  4  5  2  0
  4  3  1  0
  6  5  1  0
  7  6  2  0
  8  7  1  0
  8  9  2  0
  9  4  1  0
 10  2  1  0
 11 10  2  0
 13 12  1  0
 14 13  1  0
 15 14  1  0
 16 15  1  1
 16 17  1  0
 17 10  1  0
 18 16  1  0
 18 20  1  0
 19 18  2  0
 21 22  1  1
 21 20  1  0
 21 25  1  0
 23 24  2  0
 23 22  1  0
 25 28  1  0
 26 25  2  0
 27 23  1  0
M  END
$$$$
