FMD.pdb
     RDKit          3D

 28 28  0  0  1  0  0  0  0  0999 V2000
    5.2254  -16.1452   20.8305 N   0  0  0  0  0  0  0  0  0  0  0  0
    6.6144  -16.5117   21.1388 C   0  0  1  0  0  0  0  0  0  0  0  0
    7.3942  -16.1957   19.8638 C   0  0  0  0  0  0  0  0  0  0  0  0
    7.5565  -14.7187   19.8126 C   0  0  0  0  0  0  0  0  0  0  0  0
    8.2423  -14.0804   18.7897 C   0  0  0  0  0  0  0  0  0  0  0  0
    8.3783  -12.7091   18.7616 C   0  0  0  0  0  0  0  0  0  0  0  0
    7.8281  -11.9452   19.7617 C   0  0  0  0  0  0  0  0  0  0  0  0
    7.1504  -12.5537   20.7758 C   0  0  0  0  0  0  0  0  0  0  0  0
    7.0156  -13.9299   20.8012 C   0  0  0  0  0  0  0  0  0  0  0  0
    7.1164  -15.7286   22.2822 C   0  0  0  0  0  0  0  0  0  0  0  0
    6.7832  -14.5293   22.3953 O   0  0  0  0  0  0  0  0  0  0  0  0
    7.8857  -12.3343   27.9127 C   0  0  0  0  0  0  0  0  0  0  0  0
    7.8042  -13.2307   26.3624 S   0  0  0  0  0  0  0  0  0  0  0  0
    7.0998  -14.9204   26.6099 C   0  0  0  0  0  0  0  0  0  0  0  0
    7.0403  -15.5211   25.2380 C   0  0  0  0  0  0  0  0  0  0  0  0
    8.3329  -15.6586   24.5103 C   0  0  2  0  0  0  0  0  0  0  0  0
    7.9566  -16.3223   23.2303 N   0  0  0  0  0  0  0  0  0  0  0  0
    9.2194  -16.6246   25.1844 C   0  0  0  0  0  0  0  0  0  0  0  0
    8.7460  -17.7380   25.6345 O   0  0  0  0  0  0  0  0  0  0  0  0
   10.6149  -16.4646   25.4018 N   0  0  0  0  0  0  0  0  0  0  0  0
   11.4052  -17.5496   26.0180 C   0  0  1  0  0  0  0  0  0  0  0  0
   12.8644  -17.3266   25.7229 C   0  0  0  0  0  0  0  0  0  0  0  0
   13.1292  -17.1134   24.3076 C   0  0  0  0  0  0  0  0  0  0  0  0
   12.6995  -17.8611   23.4179 O   0  0  0  0  0  0  0  0  0  0  0  0
   11.0628  -17.5010   27.4536 C   0  0  0  0  0  0  0  0  0  0  0  0
   10.4939  -16.4962   27.9274 O   0  0  0  0  0  0  0  0  0  0  0  0
   13.9055  -16.0142   23.9184 O   0  0  0  0  0  0  0  0  0  0  0  0
   11.3320  -18.5229   28.3549 O   0  0  0  0  0  0  0  0  0  0  0  0
  2  3  1  0
  2  1  1  6
  4  5  2  0
  4  3  1  0
  6  5  1  0
  7  6  2  0
  8  7  1  0
  8  9  2  0
  9  4  1  0
 10  2  1  0
 11 10  2  0
 13 12  1  0
 14 13  1  0
 15 14  1  0
 16 15  1  1
 16 17  1  0
 17 10  1  0
 18 16  1  0
 18 20  1  0
 19 18  2  0
 21 22  1  1
 21 20  1  0
 21 25  1  0
 23 24  2  0
 23 22  1  0
 25 28  1  0
 26 25  2  0
 27 23  1  0
M  END
$$$$
