FMD.pdb
     RDKit          3D

 28 28  0  0  1  0  0  0  0  0999 V2000
    5.9757  -17.7218   25.9151 N   0  0  0  0  0  0  0  0  0  0  0  0
    6.5253  -16.4599   25.4011 C   0  0  1  0  0  0  0  0  0  0  0  0
    7.3688  -15.9053   26.5476 C   0  0  0  0  0  0  0  0  0  0  0  0
    7.1776  -14.4309   26.5495 C   0  0  0  0  0  0  0  0  0  0  0  0
    5.9247  -13.8428   26.4566 C   0  0  0  0  0  0  0  0  0  0  0  0
    5.7712  -12.4731   26.4626 C   0  0  0  0  0  0  0  0  0  0  0  0
    6.8739  -11.6603   26.5622 C   0  0  0  0  0  0  0  0  0  0  0  0
    8.1137  -12.2190   26.6545 C   0  0  0  0  0  0  0  0  0  0  0  0
    8.2646  -13.5938   26.6482 C   0  0  0  0  0  0  0  0  0  0  0  0
    7.3454  -16.7015   24.2004 C   0  0  0  0  0  0  0  0  0  0  0  0
    7.8851  -17.8178   24.0432 O   0  0  0  0  0  0  0  0  0  0  0  0
    7.5646  -11.8573   20.3520 C   0  0  0  0  0  0  0  0  0  0  0  0
    7.7229  -13.0916   19.0617 S   0  0  0  0  0  0  0  0  0  0  0  0
    8.3590  -14.6861   19.7440 C   0  0  0  0  0  0  0  0  0  0  0  0
    8.0106  -14.6515   21.2013 C   0  0  0  0  0  0  0  0  0  0  0  0
    8.2834  -15.8888   21.9848 C   0  0  2  0  0  0  0  0  0  0  0  0
    7.5169  -15.6917   23.2474 N   0  0  0  0  0  0  0  0  0  0  0  0
    9.6938  -15.9456   22.4102 C   0  0  0  0  0  0  0  0  0  0  0  0
    9.9920  -16.0696   23.6600 O   0  0  0  0  0  0  0  0  0  0  0  0
   10.8262  -15.8825   21.5536 N   0  0  0  0  0  0  0  0  0  0  0  0
   11.9712  -16.7926   21.7588 C   0  0  1  0  0  0  0  0  0  0  0  0
   11.4728  -18.2125   21.7975 C   0  0  0  0  0  0  0  0  0  0  0  0
   11.7831  -18.8869   23.0495 C   0  0  0  0  0  0  0  0  0  0  0  0
   12.4242  -18.3534   23.9657 O   0  0  0  0  0  0  0  0  0  0  0  0
   12.8915  -16.5035   20.6408 C   0  0  0  0  0  0  0  0  0  0  0  0
   12.5647  -16.7911   19.4711 O   0  0  0  0  0  0  0  0  0  0  0  0
   11.3418  -20.2026   23.2414 O   0  0  0  0  0  0  0  0  0  0  0  0
   14.1401  -15.9136   20.7906 O   0  0  0  0  0  0  0  0  0  0  0  0
  2  3  1  0
  2  1  1  1
  4  5  2  0
  4  3  1  0
  6  5  1  0
  7  6  2  0
  8  7  1  0
  8  9  2  0
  9  4  1  0
 10  2  1  0
 11 10  2  0
 13 12  1  0
 14 13  1  0
 15 14  1  0
 16 15  1  6
 16 17  1  0
 17 10  1  0
 18 16  1  0
 18 20  1  0
 19 18  2  0
 21 22  1  6
 21 20  1  0
 21 25  1  0
 23 24  2  0
 23 22  1  0
 25 28  1  0
 26 25  2  0
 27 23  1  0
M  END
$$$$
