FMD.pdb
     RDKit          3D

 28 28  0  0  1  0  0  0  0  0999 V2000
    7.6180  -17.8549   21.2011 N   0  0  0  0  0  0  0  0  0  0  0  0
    8.0729  -16.4916   20.8955 C   0  0  1  0  0  0  0  0  0  0  0  0
    6.8350  -15.7787   20.3543 C   0  0  0  0  0  0  0  0  0  0  0  0
    7.2421  -14.3825   20.0456 C   0  0  0  0  0  0  0  0  0  0  0  0
    7.8196  -14.0258   18.8358 C   0  0  0  0  0  0  0  0  0  0  0  0
    8.1871  -12.7241   18.5707 C   0  0  0  0  0  0  0  0  0  0  0  0
    7.9831  -11.7483   19.5154 C   0  0  0  0  0  0  0  0  0  0  0  0
    7.4169  -12.0787   20.7105 C   0  0  0  0  0  0  0  0  0  0  0  0
    7.0492  -13.3858   20.9737 C   0  0  0  0  0  0  0  0  0  0  0  0
    8.5843  -15.8305   22.1096 C   0  0  0  0  0  0  0  0  0  0  0  0
    9.3932  -14.8845   21.9961 O   0  0  0  0  0  0  0  0  0  0  0  0
    7.5692  -11.6679   26.9202 C   0  0  0  0  0  0  0  0  0  0  0  0
    6.5193  -13.1134   26.7730 S   0  0  0  0  0  0  0  0  0  0  0  0
    7.5265  -14.6606   26.7076 C   0  0  0  0  0  0  0  0  0  0  0  0
    7.4002  -15.1469   25.2956 C   0  0  0  0  0  0  0  0  0  0  0  0
    8.6465  -15.6339   24.6408 C   0  0  2  0  0  0  0  0  0  0  0  0
    8.1680  -16.2580   23.3751 N   0  0  0  0  0  0  0  0  0  0  0  0
    9.2443  -16.7461   25.4018 C   0  0  0  0  0  0  0  0  0  0  0  0
    8.5240  -17.7609   25.7449 O   0  0  0  0  0  0  0  0  0  0  0  0
   10.6000  -16.8373   25.8187 N   0  0  0  0  0  0  0  0  0  0  0  0
   11.0845  -18.0369   26.5312 C   0  0  1  0  0  0  0  0  0  0  0  0
   12.5550  -18.2115   26.2611 C   0  0  0  0  0  0  0  0  0  0  0  0
   12.8553  -18.3697   24.8456 C   0  0  0  0  0  0  0  0  0  0  0  0
   12.0917  -18.9347   24.0501 O   0  0  0  0  0  0  0  0  0  0  0  0
   10.7532  -17.7959   27.9499 C   0  0  0  0  0  0  0  0  0  0  0  0
   10.3621  -16.6694   28.3183 O   0  0  0  0  0  0  0  0  0  0  0  0
   14.0619  -17.8635   24.3451 O   0  0  0  0  0  0  0  0  0  0  0  0
   10.8442  -18.7587   28.9468 O   0  0  0  0  0  0  0  0  0  0  0  0
  2  3  1  0
  2  1  1  1
  4  5  2  0
  4  3  1  0
  6  5  1  0
  7  6  2  0
  8  7  1  0
  8  9  2  0
  9  4  1  0
 10  2  1  0
 11 10  2  0
 13 12  1  0
 14 13  1  0
 15 14  1  0
 16 15  1  1
 16 17  1  0
 17 10  1  0
 18 16  1  0
 18 20  1  0
 19 18  2  0
 21 22  1  1
 21 20  1  0
 21 25  1  0
 23 24  2  0
 23 22  1  0
 25 28  1  0
 26 25  2  0
 27 23  1  0
M  END
$$$$
