FMD.pdb
     RDKit          3D

 28 28  0  0  1  0  0  0  0  0999 V2000
   10.3771  -16.7573   20.9930 N   0  0  0  0  0  0  0  0  0  0  0  0
    9.6392  -15.7646   21.7860 C   0  0  1  0  0  0  0  0  0  0  0  0
    8.1904  -15.8892   21.3179 C   0  0  0  0  0  0  0  0  0  0  0  0
    7.8559  -14.6254   20.6098 C   0  0  0  0  0  0  0  0  0  0  0  0
    7.9462  -13.3834   21.2210 C   0  0  0  0  0  0  0  0  0  0  0  0
    7.6330  -12.2245   20.5440 C   0  0  0  0  0  0  0  0  0  0  0  0
    7.2210  -12.2853   19.2352 C   0  0  0  0  0  0  0  0  0  0  0  0
    7.1258  -13.4963   18.6168 C   0  0  0  0  0  0  0  0  0  0  0  0
    7.4408  -14.6575   19.2988 C   0  0  0  0  0  0  0  0  0  0  0  0
    9.7640  -16.0535   23.2260 C   0  0  0  0  0  0  0  0  0  0  0  0
   10.5459  -16.9525   23.6036 O   0  0  0  0  0  0  0  0  0  0  0  0
    6.0281  -11.9150   25.9738 C   0  0  0  0  0  0  0  0  0  0  0  0
    7.3603  -12.0889   27.1606 S   0  0  0  0  0  0  0  0  0  0  0  0
    8.8028  -12.9688   26.4139 C   0  0  0  0  0  0  0  0  0  0  0  0
    8.3283  -14.3728   26.1907 C   0  0  0  0  0  0  0  0  0  0  0  0
    9.3155  -15.3306   25.6188 C   0  0  2  0  0  0  0  0  0  0  0  0
    9.0151  -15.3287   24.1592 N   0  0  0  0  0  0  0  0  0  0  0  0
    9.0299  -16.7092   26.0561 C   0  0  0  0  0  0  0  0  0  0  0  0
    8.1870  -17.4374   25.4036 O   0  0  0  0  0  0  0  0  0  0  0  0
    9.6135  -17.3677   27.1723 N   0  0  0  0  0  0  0  0  0  0  0  0
   10.0201  -18.7844   27.0767 C   0  0  1  0  0  0  0  0  0  0  0  0
   10.9632  -18.9503   25.9153 C   0  0  0  0  0  0  0  0  0  0  0  0
   11.5165  -20.2935   25.8233 C   0  0  0  0  0  0  0  0  0  0  0  0
   10.8561  -21.3156   26.0564 O   0  0  0  0  0  0  0  0  0  0  0  0
   10.6156  -19.0983   28.3909 C   0  0  0  0  0  0  0  0  0  0  0  0
   10.0623  -19.9222   29.1477 O   0  0  0  0  0  0  0  0  0  0  0  0
   12.8585  -20.4531   25.4544 O   0  0  0  0  0  0  0  0  0  0  0  0
   11.7878  -18.5296   28.8723 O   0  0  0  0  0  0  0  0  0  0  0  0
  2  3  1  0
  2  1  1  6
  4  5  2  0
  4  3  1  0
  6  5  1  0
  7  6  2  0
  8  7  1  0
  8  9  2  0
  9  4  1  0
 10  2  1  0
 11 10  2  0
 13 12  1  0
 14 13  1  0
 15 14  1  0
 16 15  1  1
 16 17  1  0
 17 10  1  0
 18 16  1  0
 18 20  1  0
 19 18  2  0
 21 22  1  6
 21 20  1  0
 21 25  1  0
 23 24  2  0
 23 22  1  0
 25 28  1  0
 26 25  2  0
 27 23  1  0
M  END
$$$$
