GHT.pdb
     RDKit          3D

 22 22  0  0  1  0  0  0  0  0999 V2000
   10.1521  -18.0140   19.0825 N   0  0  0  0  0  0  0  0  0  0  0  0
    9.3589  -18.1439   20.2650 C   0  0  0  0  0  0  0  0  0  0  0  0
    9.3634  -16.8763   21.0829 C   0  0  0  0  0  0  0  0  0  0  0  0
   10.4640  -16.4694   21.4523 O   0  0  0  0  0  0  0  0  0  0  0  0
    8.1543  -16.2241   21.3860 N   0  0  0  0  0  0  0  0  0  0  0  0
    7.9523  -15.0858   22.2354 C   0  0  1  0  0  0  0  0  0  0  0  0
    7.1172  -13.9710   21.6291 C   0  0  0  0  0  0  0  0  0  0  0  0
    7.5551  -13.6401   20.2500 C   0  0  0  0  0  0  0  0  0  0  0  0
    8.1627  -12.5154   19.7730 C   0  0  0  0  0  0  0  0  0  0  0  0
    8.3640  -12.6823   18.4499 N   0  0  0  0  0  0  0  0  0  0  0  0
    7.8983  -13.8822   18.0866 C   0  0  0  0  0  0  0  0  0  0  0  0
    7.4083  -14.4644   19.1727 N   0  0  0  0  0  0  0  0  0  0  0  0
    7.6604  -15.3929   23.6210 C   0  0  0  0  0  0  0  0  0  0  0  0
    6.7868  -14.7951   24.3188 O   0  0  0  0  0  0  0  0  0  0  0  0
    5.9786  -17.7324   25.3150 C   0  0  0  0  0  0  0  0  0  0  0  0
    7.3657  -17.9944   25.8076 C   0  0  1  0  0  0  0  0  0  0  0  0
    8.0100  -18.8821   24.9455 O   0  0  0  0  0  0  0  0  0  0  0  0
    8.1324  -16.6656   25.7525 C   0  0  2  0  0  0  0  0  0  0  0  0
    8.3634  -16.4286   24.3198 N   0  0  0  0  0  0  0  0  0  0  0  0
    9.4228  -16.9038   26.4239 C   0  0  0  0  0  0  0  0  0  0  0  0
    9.4779  -17.0387   27.7921 O   0  0  0  0  0  0  0  0  0  0  0  0
   10.4728  -16.9848   25.7591 O   0  0  0  0  0  0  0  0  0  0  0  0
  2  1  1  0
  2  3  1  0
  3  4  2  0
  5  3  1  0
  5  6  1  0
  6 13  1  0
  6  7  1  6
  8 12  1  0
  8  7  1  0
  9  8  2  0
 10  9  1  0
 10 11  1  0
 11 12  2  0
 13 14  2  0
 13 19  1  0
 16 15  1  6
 16 18  1  0
 17 16  1  0
 18 20  1  0
 18 19  1  6
 20 22  2  0
 20 21  1  0
M  END
$$$$
