GHT.pdb
     RDKit          3D

 22 22  0  0  1  0  0  0  0  0999 V2000
    8.8874  -16.0517   18.9865 N   0  0  0  0  0  0  0  0  0  0  0  0
    9.5295  -15.4174   20.0954 C   0  0  0  0  0  0  0  0  0  0  0  0
    8.8055  -15.6894   21.3907 C   0  0  0  0  0  0  0  0  0  0  0  0
    7.5820  -15.7951   21.3199 O   0  0  0  0  0  0  0  0  0  0  0  0
    9.5255  -15.8091   22.5934 N   0  0  0  0  0  0  0  0  0  0  0  0
    9.0077  -15.9415   23.9247 C   0  0  1  0  0  0  0  0  0  0  0  0
    9.4128  -17.2140   24.6489 C   0  0  0  0  0  0  0  0  0  0  0  0
    9.4914  -18.3738   23.7259 C   0  0  0  0  0  0  0  0  0  0  0  0
    9.2704  -18.4359   22.3810 C   0  0  0  0  0  0  0  0  0  0  0  0
    9.4645  -19.7112   21.9873 N   0  0  0  0  0  0  0  0  0  0  0  0
    9.8013  -20.4486   23.0510 C   0  0  0  0  0  0  0  0  0  0  0  0
    9.8185  -19.6431   24.1043 N   0  0  0  0  0  0  0  0  0  0  0  0
    9.0478  -14.7349   24.7260 C   0  0  0  0  0  0  0  0  0  0  0  0
   10.0736  -14.0039   24.8696 O   0  0  0  0  0  0  0  0  0  0  0  0
    6.2898  -11.8468   25.0562 C   0  0  0  0  0  0  0  0  0  0  0  0
    6.5333  -12.5472   26.3545 C   0  0  1  0  0  0  0  0  0  0  0  0
    5.6710  -13.6380   26.4680 O   0  0  0  0  0  0  0  0  0  0  0  0
    7.9657  -13.0983   26.3185 C   0  0  2  0  0  0  0  0  0  0  0  0
    7.8910  -14.2708   25.4343 N   0  0  0  0  0  0  0  0  0  0  0  0
    8.2746  -13.5387   27.6909 C   0  0  0  0  0  0  0  0  0  0  0  0
    8.3387  -12.6221   28.7151 O   0  0  0  0  0  0  0  0  0  0  0  0
    8.4800  -14.7426   27.9344 O   0  0  0  0  0  0  0  0  0  0  0  0
  2  1  1  0
  2  3  1  0
  3  4  2  0
  5  3  1  0
  5  6  1  0
  6 13  1  0
  6  7  1  1
  8 12  1  0
  8  7  1  0
  9  8  2  0
 10  9  1  0
 10 11  1  0
 11 12  2  0
 13 14  2  0
 13 19  1  0
 16 15  1  6
 16 18  1  0
 17 16  1  0
 18 20  1  0
 18 19  1  6
 20 22  2  0
 20 21  1  0
M  END
$$$$
