GHT.pdb
     RDKit          3D

 22 22  0  0  1  0  0  0  0  0999 V2000
    9.7055  -18.5153   17.5029 N   0  0  0  0  0  0  0  0  0  0  0  0
    8.8939  -18.4760   18.6793 C   0  0  0  0  0  0  0  0  0  0  0  0
    9.3676  -17.4230   19.6501 C   0  0  0  0  0  0  0  0  0  0  0  0
   10.5818  -17.3604   19.8375 O   0  0  0  0  0  0  0  0  0  0  0  0
    8.4406  -16.5775   20.2866 N   0  0  0  0  0  0  0  0  0  0  0  0
    8.6966  -15.5677   21.2729 C   0  0  1  0  0  0  0  0  0  0  0  0
    7.8271  -14.3268   21.1637 C   0  0  0  0  0  0  0  0  0  0  0  0
    7.7933  -13.7961   19.7779 C   0  0  0  0  0  0  0  0  0  0  0  0
    8.3800  -12.6805   19.2557 C   0  0  0  0  0  0  0  0  0  0  0  0
    8.0606  -12.6181   17.9468 N   0  0  0  0  0  0  0  0  0  0  0  0
    7.2893  -13.6657   17.6366 C   0  0  0  0  0  0  0  0  0  0  0  0
    7.1255  -14.3804   18.7415 N   0  0  0  0  0  0  0  0  0  0  0  0
    8.9062  -16.0589   22.6199 C   0  0  0  0  0  0  0  0  0  0  0  0
    7.9902  -16.1845   23.4874 O   0  0  0  0  0  0  0  0  0  0  0  0
    9.4555  -19.1408   23.9044 C   0  0  0  0  0  0  0  0  0  0  0  0
   10.7307  -18.4462   24.2604 C   0  0  1  0  0  0  0  0  0  0  0  0
   11.6326  -18.5491   23.2011 O   0  0  0  0  0  0  0  0  0  0  0  0
   10.4079  -16.9566   24.4432 C   0  0  2  0  0  0  0  0  0  0  0  0
   10.2075  -16.4492   23.0778 N   0  0  0  0  0  0  0  0  0  0  0  0
   11.6146  -16.3394   25.0229 C   0  0  0  0  0  0  0  0  0  0  0  0
   11.9075  -16.5091   26.3565 O   0  0  0  0  0  0  0  0  0  0  0  0
   12.3780  -15.6601   24.3111 O   0  0  0  0  0  0  0  0  0  0  0  0
  2  1  1  0
  2  3  1  0
  3  4  2  0
  5  3  1  0
  5  6  1  0
  6 13  1  0
  6  7  1  1
  8 12  1  0
  8  7  1  0
  9  8  2  0
 10  9  1  0
 10 11  1  0
 11 12  2  0
 13 14  2  0
 13 19  1  0
 16 15  1  6
 16 18  1  0
 17 16  1  0
 18 20  1  0
 18 19  1  6
 20 22  2  0
 20 21  1  0
M  END
$$$$
