GHT.pdb
     RDKit          3D

 22 22  0  0  1  0  0  0  0  0999 V2000
   10.2028  -18.1020   17.2366 N   0  0  0  0  0  0  0  0  0  0  0  0
   10.0795  -18.6035   18.5698 C   0  0  0  0  0  0  0  0  0  0  0  0
   10.3584  -17.5344   19.5969 C   0  0  0  0  0  0  0  0  0  0  0  0
   11.5400  -17.2384   19.7692 O   0  0  0  0  0  0  0  0  0  0  0  0
    9.2983  -16.9322   20.2990 N   0  0  0  0  0  0  0  0  0  0  0  0
    9.3675  -15.8871   21.2792 C   0  0  1  0  0  0  0  0  0  0  0  0
    8.2409  -14.8699   21.2155 C   0  0  0  0  0  0  0  0  0  0  0  0
    8.1008  -14.2851   19.8585 C   0  0  0  0  0  0  0  0  0  0  0  0
    8.8493  -14.4926   18.7368 C   0  0  0  0  0  0  0  0  0  0  0  0
    8.3328  -13.7350   17.7477 N   0  0  0  0  0  0  0  0  0  0  0  0
    7.2806  -13.0589   18.2214 C   0  0  0  0  0  0  0  0  0  0  0  0
    7.1372  -13.3891   19.4977 N   0  0  0  0  0  0  0  0  0  0  0  0
    9.7393  -16.3146   22.6129 C   0  0  0  0  0  0  0  0  0  0  0  0
    8.9610  -16.2988   23.6135 O   0  0  0  0  0  0  0  0  0  0  0  0
   10.6552  -19.5827   23.7103 C   0  0  0  0  0  0  0  0  0  0  0  0
   11.8696  -18.7555   23.9866 C   0  0  1  0  0  0  0  0  0  0  0  0
   12.6905  -18.7360   22.8588 O   0  0  0  0  0  0  0  0  0  0  0  0
   11.3988  -17.3155   24.2346 C   0  0  2  0  0  0  0  0  0  0  0  0
   11.0570  -16.8009   22.9003 N   0  0  0  0  0  0  0  0  0  0  0  0
   12.5657  -16.5827   24.7581 C   0  0  0  0  0  0  0  0  0  0  0  0
   12.9965  -16.7953   26.0474 O   0  0  0  0  0  0  0  0  0  0  0  0
   13.1707  -15.7659   24.0385 O   0  0  0  0  0  0  0  0  0  0  0  0
  2  1  1  0
  2  3  1  0
  3  4  2  0
  5  3  1  0
  5  6  1  0
  6 13  1  0
  6  7  1  1
  8 12  1  0
  8  7  1  0
  9  8  2  0
 10  9  1  0
 10 11  1  0
 11 12  2  0
 13 14  2  0
 13 19  1  0
 16 15  1  6
 16 18  1  0
 17 16  1  0
 18 20  1  0
 18 19  1  6
 20 22  2  0
 20 21  1  0
M  END
$$$$
