GHT.pdb
     RDKit          3D

 22 22  0  0  1  0  0  0  0  0999 V2000
   10.2913  -16.9759   16.4241 N   0  0  0  0  0  0  0  0  0  0  0  0
   10.8173  -17.4124   17.6799 C   0  0  0  0  0  0  0  0  0  0  0  0
   10.6732  -16.3533   18.7445 C   0  0  0  0  0  0  0  0  0  0  0  0
   11.5516  -15.4928   18.7804 O   0  0  0  0  0  0  0  0  0  0  0  0
    9.5798  -16.3820   19.6293 N   0  0  0  0  0  0  0  0  0  0  0  0
    9.3410  -15.5422   20.7675 C   0  0  1  0  0  0  0  0  0  0  0  0
    8.0985  -14.6727   20.6760 C   0  0  0  0  0  0  0  0  0  0  0  0
    7.9798  -14.0167   19.3499 C   0  0  0  0  0  0  0  0  0  0  0  0
    8.3602  -12.7667   18.9571 C   0  0  0  0  0  0  0  0  0  0  0  0
    8.0441  -12.6277   17.6533 N   0  0  0  0  0  0  0  0  0  0  0  0
    7.4759  -13.7583   17.2202 C   0  0  0  0  0  0  0  0  0  0  0  0
    7.4353  -14.6006   18.2436 N   0  0  0  0  0  0  0  0  0  0  0  0
    9.5633  -16.1686   22.0551 C   0  0  0  0  0  0  0  0  0  0  0  0
    8.6997  -16.2289   22.9813 O   0  0  0  0  0  0  0  0  0  0  0  0
   10.3882  -19.6171   22.7552 C   0  0  0  0  0  0  0  0  0  0  0  0
   11.5381  -18.8463   23.3200 C   0  0  1  0  0  0  0  0  0  0  0  0
   12.5232  -18.6911   22.3445 O   0  0  0  0  0  0  0  0  0  0  0  0
   11.0223  -17.4450   23.6761 C   0  0  2  0  0  0  0  0  0  0  0  0
   10.8173  -16.7834   22.3791 N   0  0  0  0  0  0  0  0  0  0  0  0
   12.1157  -16.7732   24.4013 C   0  0  0  0  0  0  0  0  0  0  0  0
   12.8565  -15.7917   23.7841 O   0  0  0  0  0  0  0  0  0  0  0  0
   12.3776  -17.0880   25.5774 O   0  0  0  0  0  0  0  0  0  0  0  0
  2  1  1  0
  2  3  1  0
  3  4  2  0
  5  3  1  0
  5  6  1  0
  6 13  1  0
  6  7  1  1
  8 12  1  0
  8  7  1  0
  9  8  2  0
 10  9  1  0
 10 11  1  0
 11 12  2  0
 13 14  2  0
 13 19  1  0
 16 15  1  6
 16 18  1  0
 17 16  1  0
 18 20  1  0
 18 19  1  6
 20 22  2  0
 20 21  1  0
M  END
$$$$
