GHT.pdb
     RDKit          3D

 22 22  0  0  1  0  0  0  0  0999 V2000
   13.3757  -14.6522   19.8686 N   0  0  0  0  0  0  0  0  0  0  0  0
   12.4379  -15.5491   20.4688 C   0  0  0  0  0  0  0  0  0  0  0  0
   11.3333  -14.8084   21.1807 C   0  0  0  0  0  0  0  0  0  0  0  0
   11.6094  -13.6833   21.5945 O   0  0  0  0  0  0  0  0  0  0  0  0
   10.0696  -15.4052   21.3429 N   0  0  0  0  0  0  0  0  0  0  0  0
    8.9092  -14.8585   21.9850 C   0  0  1  0  0  0  0  0  0  0  0  0
    7.6298  -14.9275   21.1687 C   0  0  0  0  0  0  0  0  0  0  0  0
    7.8070  -14.3476   19.8139 C   0  0  0  0  0  0  0  0  0  0  0  0
    8.9120  -13.7885   19.2412 C   0  0  0  0  0  0  0  0  0  0  0  0
    8.5815  -13.4039   17.9914 N   0  0  0  0  0  0  0  0  0  0  0  0
    7.2986  -13.7079   17.7673 C   0  0  0  0  0  0  0  0  0  0  0  0
    6.8268  -14.2788   18.8674 N   0  0  0  0  0  0  0  0  0  0  0  0
    8.7656  -15.1904   23.3882 C   0  0  0  0  0  0  0  0  0  0  0  0
    9.3684  -16.1457   23.9639 O   0  0  0  0  0  0  0  0  0  0  0  0
    7.7423  -12.5387   26.3458 C   0  0  0  0  0  0  0  0  0  0  0  0
    6.8353  -13.7236   26.2526 C   0  0  1  0  0  0  0  0  0  0  0  0
    5.7787  -13.4388   25.3873 O   0  0  0  0  0  0  0  0  0  0  0  0
    7.6408  -14.8718   25.6284 C   0  0  2  0  0  0  0  0  0  0  0  0
    7.9031  -14.4353   24.2491 N   0  0  0  0  0  0  0  0  0  0  0  0
    6.7460  -16.0431   25.6098 C   0  0  0  0  0  0  0  0  0  0  0  0
    6.4048  -16.6734   26.7843 O   0  0  0  0  0  0  0  0  0  0  0  0
    6.2921  -16.4713   24.5321 O   0  0  0  0  0  0  0  0  0  0  0  0
  2  1  1  0
  2  3  1  0
  3  4  2  0
  5  3  1  0
  5  6  1  0
  6 13  1  0
  6  7  1  6
  8 12  1  0
  8  7  1  0
  9  8  2  0
 10  9  1  0
 10 11  1  0
 11 12  2  0
 13 14  2  0
 13 19  1  0
 16 15  1  6
 16 18  1  0
 17 16  1  0
 18 20  1  0
 18 19  1  6
 20 22  2  0
 20 21  1  0
M  END
$$$$
