GHT.pdb
     RDKit          3D

 22 22  0  0  1  0  0  0  0  0999 V2000
    8.7515  -18.7565   19.1248 N   0  0  0  0  0  0  0  0  0  0  0  0
    7.9745  -18.5901   20.3134 C   0  0  0  0  0  0  0  0  0  0  0  0
    8.4388  -17.4050   21.1231 C   0  0  0  0  0  0  0  0  0  0  0  0
    9.5430  -17.5071   21.6557 O   0  0  0  0  0  0  0  0  0  0  0  0
    7.6248  -16.2634   21.2394 N   0  0  0  0  0  0  0  0  0  0  0  0
    7.8944  -15.0552   21.9641 C   0  0  1  0  0  0  0  0  0  0  0  0
    7.2676  -13.8009   21.3795 C   0  0  0  0  0  0  0  0  0  0  0  0
    7.5897  -13.6421   19.9393 C   0  0  0  0  0  0  0  0  0  0  0  0
    8.2527  -12.6364   19.2987 C   0  0  0  0  0  0  0  0  0  0  0  0
    8.2970  -12.9398   17.9853 N   0  0  0  0  0  0  0  0  0  0  0  0
    7.6790  -14.1092   17.7875 C   0  0  0  0  0  0  0  0  0  0  0  0
    7.2499  -14.5370   18.9671 N   0  0  0  0  0  0  0  0  0  0  0  0
    7.8176  -15.1697   23.4066 C   0  0  0  0  0  0  0  0  0  0  0  0
    6.8005  -14.8591   24.0969 O   0  0  0  0  0  0  0  0  0  0  0  0
    6.5391  -16.7353   25.1772 C   0  0  0  0  0  0  0  0  0  0  0  0
    7.8735  -17.1263   25.7267 C   0  0  1  0  0  0  0  0  0  0  0  0
    8.4298  -18.1324   24.9365 O   0  0  0  0  0  0  0  0  0  0  0  0
    8.7919  -15.9008   25.6206 C   0  0  2  0  0  0  0  0  0  0  0  0
    8.9238  -15.6588   24.1762 N   0  0  0  0  0  0  0  0  0  0  0  0
   10.0966  -16.3123   26.1694 C   0  0  0  0  0  0  0  0  0  0  0  0
   10.2723  -16.4245   27.5294 O   0  0  0  0  0  0  0  0  0  0  0  0
   11.0497  -16.5616   25.4074 O   0  0  0  0  0  0  0  0  0  0  0  0
  2  1  1  0
  2  3  1  0
  3  4  2  0
  5  3  1  0
  5  6  1  0
  6 13  1  0
  6  7  1  6
  8 12  1  0
  8  7  1  0
  9  8  2  0
 10  9  1  0
 10 11  1  0
 11 12  2  0
 13 14  2  0
 13 19  1  0
 16 15  1  6
 16 18  1  0
 17 16  1  0
 18 20  1  0
 18 19  1  6
 20 22  2  0
 20 21  1  0
M  END
$$$$
