GHT.pdb
     RDKit          3D

 22 22  0  0  1  0  0  0  0  0999 V2000
    6.9923  -12.8855   19.9520 N   0  0  0  0  0  0  0  0  0  0  0  0
    8.2513  -12.8698   19.2745 C   0  0  0  0  0  0  0  0  0  0  0  0
    8.6202  -14.2349   18.7492 C   0  0  0  0  0  0  0  0  0  0  0  0
    7.8751  -15.1610   19.0660 O   0  0  0  0  0  0  0  0  0  0  0  0
    9.7620  -14.3996   17.9439 N   0  0  0  0  0  0  0  0  0  0  0  0
   10.2928  -15.6165   17.4004 C   0  0  1  0  0  0  0  0  0  0  0  0
   10.3502  -15.6721   15.8834 C   0  0  0  0  0  0  0  0  0  0  0  0
    9.0618  -15.2686   15.2666 C   0  0  0  0  0  0  0  0  0  0  0  0
    7.9801  -16.0281   14.9282 C   0  0  0  0  0  0  0  0  0  0  0  0
    7.0491  -15.2099   14.3963 N   0  0  0  0  0  0  0  0  0  0  0  0
    7.5203  -13.9583   14.3931 C   0  0  0  0  0  0  0  0  0  0  0  0
    8.7374  -13.9899   14.9187 N   0  0  0  0  0  0  0  0  0  0  0  0
   11.4587  -16.1409   18.0826 C   0  0  0  0  0  0  0  0  0  0  0  0
   12.0237  -17.2388   17.7951 O   0  0  0  0  0  0  0  0  0  0  0  0
   14.6685  -14.9598   18.2567 C   0  0  0  0  0  0  0  0  0  0  0  0
   14.3476  -15.0032   19.7164 C   0  0  1  0  0  0  0  0  0  0  0  0
   13.8790  -13.7564   20.1311 O   0  0  0  0  0  0  0  0  0  0  0  0
   13.2030  -16.0084   19.9062 C   0  0  2  0  0  0  0  0  0  0  0  0
   12.0727  -15.4293   19.1652 N   0  0  0  0  0  0  0  0  0  0  0  0
   12.8922  -16.0148   21.3471 C   0  0  0  0  0  0  0  0  0  0  0  0
   13.7729  -16.5748   22.2437 O   0  0  0  0  0  0  0  0  0  0  0  0
   11.8310  -15.5140   21.7644 O   0  0  0  0  0  0  0  0  0  0  0  0
  2  1  1  0
  2  3  1  0
  3  4  2  0
  5  3  1  0
  5  6  1  0
  6 13  1  0
  6  7  1  6
  8 12  1  0
  8  7  1  0
  9  8  2  0
 10  9  1  0
 10 11  1  0
 11 12  2  0
 13 14  2  0
 13 19  1  0
 16 15  1  6
 16 18  1  0
 17 16  1  0
 18 20  1  0
 18 19  1  6
 20 22  2  0
 20 21  1  0
M  END
$$$$
