GHT.pdb
     RDKit          3D

 22 22  0  0  1  0  0  0  0  0999 V2000
    5.5715  -15.9397   20.0787 N   0  0  0  0  0  0  0  0  0  0  0  0
    6.2264  -14.9194   20.8366 C   0  0  0  0  0  0  0  0  0  0  0  0
    6.9619  -15.4902   22.0236 C   0  0  0  0  0  0  0  0  0  0  0  0
    6.2954  -16.1690   22.8035 O   0  0  0  0  0  0  0  0  0  0  0  0
    8.3353  -15.2376   22.1947 N   0  0  0  0  0  0  0  0  0  0  0  0
    9.1584  -15.5538   23.3263 C   0  0  1  0  0  0  0  0  0  0  0  0
   10.4758  -16.2332   22.9937 C   0  0  0  0  0  0  0  0  0  0  0  0
   10.2850  -17.3978   22.0935 C   0  0  0  0  0  0  0  0  0  0  0  0
    9.1335  -17.9575   21.6221 C   0  0  0  0  0  0  0  0  0  0  0  0
    9.4709  -18.9997   20.8354 N   0  0  0  0  0  0  0  0  0  0  0  0
   10.8036  -19.1067   20.8023 C   0  0  0  0  0  0  0  0  0  0  0  0
   11.2994  -18.1395   21.5621 N   0  0  0  0  0  0  0  0  0  0  0  0
    9.2336  -14.5236   24.3425 C   0  0  0  0  0  0  0  0  0  0  0  0
   10.1562  -13.6572   24.4177 O   0  0  0  0  0  0  0  0  0  0  0  0
    6.7190  -11.8765   25.5203 C   0  0  0  0  0  0  0  0  0  0  0  0
    6.9550  -12.8528   26.6278 C   0  0  1  0  0  0  0  0  0  0  0  0
    6.0606  -13.9172   26.5136 O   0  0  0  0  0  0  0  0  0  0  0  0
    8.3691  -13.4219   26.4460 C   0  0  2  0  0  0  0  0  0  0  0  0
    8.2360  -14.4107   25.3659 N   0  0  0  0  0  0  0  0  0  0  0  0
    8.7023  -14.1132   27.7046 C   0  0  0  0  0  0  0  0  0  0  0  0
    8.8670  -13.3956   28.8670 O   0  0  0  0  0  0  0  0  0  0  0  0
    8.8374  -15.3510   27.7262 O   0  0  0  0  0  0  0  0  0  0  0  0
  2  1  1  0
  2  3  1  0
  3  4  2  0
  5  3  1  0
  5  6  1  0
  6 13  1  0
  6  7  1  6
  8 12  1  0
  8  7  1  0
  9  8  2  0
 10  9  1  0
 10 11  1  0
 11 12  2  0
 13 14  2  0
 13 19  1  0
 16 15  1  6
 16 18  1  0
 17 16  1  0
 18 20  1  0
 18 19  1  6
 20 22  2  0
 20 21  1  0
M  END
$$$$
