GHT.pdb
     RDKit          3D

 22 22  0  0  1  0  0  0  0  0999 V2000
    7.2521  -12.8477   19.0417 N   0  0  0  0  0  0  0  0  0  0  0  0
    8.4400  -13.3270   19.6767 C   0  0  0  0  0  0  0  0  0  0  0  0
    8.1366  -14.0093   20.9874 C   0  0  0  0  0  0  0  0  0  0  0  0
    7.0018  -13.8507   21.4352 O   0  0  0  0  0  0  0  0  0  0  0  0
    9.1238  -14.7767   21.6322 N   0  0  0  0  0  0  0  0  0  0  0  0
    9.0192  -15.4911   22.8718 C   0  0  1  0  0  0  0  0  0  0  0  0
    9.6744  -16.8617   22.8816 C   0  0  0  0  0  0  0  0  0  0  0  0
    9.2380  -17.6908   21.7305 C   0  0  0  0  0  0  0  0  0  0  0  0
    7.9792  -17.9910   21.2981 C   0  0  0  0  0  0  0  0  0  0  0  0
    8.0917  -18.7802   20.2102 N   0  0  0  0  0  0  0  0  0  0  0  0
    9.3881  -18.9817   19.9507 C   0  0  0  0  0  0  0  0  0  0  0  0
   10.0844  -18.3243   20.8681 N   0  0  0  0  0  0  0  0  0  0  0  0
    9.2336  -14.6951   24.0635 C   0  0  0  0  0  0  0  0  0  0  0  0
   10.3352  -14.1483   24.3714 O   0  0  0  0  0  0  0  0  0  0  0  0
    6.7649  -11.9507   25.5839 C   0  0  0  0  0  0  0  0  0  0  0  0
    7.0262  -13.0644   26.5467 C   0  0  1  0  0  0  0  0  0  0  0  0
    6.0865  -14.0779   26.3581 O   0  0  0  0  0  0  0  0  0  0  0  0
    8.4046  -13.6501   26.2097 C   0  0  2  0  0  0  0  0  0  0  0  0
    8.1786  -14.4644   25.0064 N   0  0  0  0  0  0  0  0  0  0  0  0
    8.7672  -14.5299   27.3355 C   0  0  0  0  0  0  0  0  0  0  0  0
    8.8786  -15.8881   27.1459 O   0  0  0  0  0  0  0  0  0  0  0  0
    8.9756  -14.0516   28.4663 O   0  0  0  0  0  0  0  0  0  0  0  0
  2  1  1  0
  2  3  1  0
  3  4  2  0
  5  3  1  0
  5  6  1  0
  6 13  1  0
  6  7  1  6
  8 12  1  0
  8  7  1  0
  9  8  2  0
 10  9  1  0
 10 11  1  0
 11 12  2  0
 13 14  2  0
 13 19  1  0
 16 15  1  6
 16 18  1  0
 17 16  1  0
 18 20  1  0
 18 19  1  6
 20 22  2  0
 20 21  1  0
M  END
$$$$
