GHT.pdb
     RDKit          3D

 22 22  0  0  1  0  0  0  0  0999 V2000
    5.8555  -19.2934   19.6541 N   0  0  0  0  0  0  0  0  0  0  0  0
    5.3912  -18.6930   20.8657 C   0  0  0  0  0  0  0  0  0  0  0  0
    6.4900  -17.9385   21.5722 C   0  0  0  0  0  0  0  0  0  0  0  0
    7.4725  -18.5964   21.9117 O   0  0  0  0  0  0  0  0  0  0  0  0
    6.3613  -16.5581   21.8116 N   0  0  0  0  0  0  0  0  0  0  0  0
    7.2370  -15.7054   22.5625 C   0  0  1  0  0  0  0  0  0  0  0  0
    7.1881  -14.2360   22.1797 C   0  0  0  0  0  0  0  0  0  0  0  0
    7.7130  -14.0041   20.8109 C   0  0  0  0  0  0  0  0  0  0  0  0
    8.2918  -14.8784   19.9379 C   0  0  0  0  0  0  0  0  0  0  0  0
    8.6051  -14.1981   18.8163 N   0  0  0  0  0  0  0  0  0  0  0  0
    8.2374  -12.9209   18.9647 C   0  0  0  0  0  0  0  0  0  0  0  0
    7.6974  -12.7998   20.1699 N   0  0  0  0  0  0  0  0  0  0  0  0
    7.2878  -15.9717   23.9860 C   0  0  0  0  0  0  0  0  0  0  0  0
    6.4506  -15.5279   24.8284 O   0  0  0  0  0  0  0  0  0  0  0  0
    6.5016  -18.6088   25.8758 C   0  0  0  0  0  0  0  0  0  0  0  0
    7.9687  -18.5150   26.1487 C   0  0  1  0  0  0  0  0  0  0  0  0
    8.6725  -19.2346   25.1829 O   0  0  0  0  0  0  0  0  0  0  0  0
    8.3704  -17.0405   26.0036 C   0  0  2  0  0  0  0  0  0  0  0  0
    8.3230  -16.7827   24.5568 N   0  0  0  0  0  0  0  0  0  0  0  0
    9.7643  -16.9430   26.4731 C   0  0  0  0  0  0  0  0  0  0  0  0
   10.0514  -17.0327   27.8158 O   0  0  0  0  0  0  0  0  0  0  0  0
   10.6926  -16.7787   25.6593 O   0  0  0  0  0  0  0  0  0  0  0  0
  2  1  1  0
  2  3  1  0
  3  4  2  0
  5  3  1  0
  5  6  1  0
  6 13  1  0
  6  7  1  1
  8 12  1  0
  8  7  1  0
  9  8  2  0
 10  9  1  0
 10 11  1  0
 11 12  2  0
 13 14  2  0
 13 19  1  0
 16 15  1  6
 16 18  1  0
 17 16  1  0
 18 20  1  0
 18 19  1  6
 20 22  2  0
 20 21  1  0
M  END
$$$$
