GHT.pdb
     RDKit          3D

 22 22  0  0  1  0  0  0  0  0999 V2000
    8.9694  -17.6967   19.3643 N   0  0  0  0  0  0  0  0  0  0  0  0
    9.6775  -17.2445   20.5211 C   0  0  0  0  0  0  0  0  0  0  0  0
    8.7371  -16.7962   21.6122 C   0  0  0  0  0  0  0  0  0  0  0  0
    7.9110  -15.9391   21.3022 O   0  0  0  0  0  0  0  0  0  0  0  0
    8.8312  -17.3517   22.9013 N   0  0  0  0  0  0  0  0  0  0  0  0
    8.0027  -17.0850   24.0417 C   0  0  1  0  0  0  0  0  0  0  0  0
    7.6077  -18.3091   24.8501 C   0  0  0  0  0  0  0  0  0  0  0  0
    6.8389  -19.2839   24.0365 C   0  0  0  0  0  0  0  0  0  0  0  0
    5.6876  -19.1115   23.3250 C   0  0  0  0  0  0  0  0  0  0  0  0
    5.3745  -20.2911   22.7509 N   0  0  0  0  0  0  0  0  0  0  0  0
    6.2999  -21.1970   23.0847 C   0  0  0  0  0  0  0  0  0  0  0  0
    7.1872  -20.5914   23.8623 N   0  0  0  0  0  0  0  0  0  0  0  0
    8.3813  -15.9246   24.8226 C   0  0  0  0  0  0  0  0  0  0  0  0
    9.5759  -15.6161   25.1146 O   0  0  0  0  0  0  0  0  0  0  0  0
    6.8359  -11.7910   27.0507 C   0  0  0  0  0  0  0  0  0  0  0  0
    6.5091  -13.0021   26.2371 C   0  0  1  0  0  0  0  0  0  0  0  0
    6.1428  -12.6162   24.9475 O   0  0  0  0  0  0  0  0  0  0  0  0
    7.7923  -13.8363   26.1177 C   0  0  2  0  0  0  0  0  0  0  0  0
    7.3973  -15.0164   25.3346 N   0  0  0  0  0  0  0  0  0  0  0  0
    8.1445  -14.2527   27.4872 C   0  0  0  0  0  0  0  0  0  0  0  0
    8.6628  -13.3405   28.3774 O   0  0  0  0  0  0  0  0  0  0  0  0
    7.9760  -15.4322   27.8494 O   0  0  0  0  0  0  0  0  0  0  0  0
  2  1  1  0
  2  3  1  0
  3  4  2  0
  5  3  1  0
  5  6  1  0
  6 13  1  0
  6  7  1  1
  8 12  1  0
  8  7  1  0
  9  8  2  0
 10  9  1  0
 10 11  1  0
 11 12  2  0
 13 14  2  0
 13 19  1  0
 16 15  1  1
 16 18  1  0
 17 16  1  0
 18 20  1  0
 18 19  1  6
 20 22  2  0
 20 21  1  0
M  END
$$$$
