LAS.pdb
     RDKit          3D

 20 19  0  0  1  0  0  0  0  0999 V2000
    7.1636  -11.6257   27.6160 C   0  0  0  0  0  0  0  0  0  0  0  0
    6.3891  -12.7505   26.9634 C   0  0  1  0  0  0  0  0  0  0  0  0
    5.1835  -12.2386   26.2091 C   0  0  0  0  0  0  0  0  0  0  0  0
    7.3260  -13.4656   26.0123 C   0  0  0  0  0  0  0  0  0  0  0  0
    6.5703  -14.6214   25.4178 C   0  0  2  0  0  0  0  0  0  0  0  0
    6.1644  -15.5870   26.3896 N   0  0  0  0  0  0  0  0  0  0  0  0
    7.3728  -15.2467   24.3105 C   0  0  0  0  0  0  0  0  0  0  0  0
    8.0710  -16.2590   24.5742 O   0  0  0  0  0  0  0  0  0  0  0  0
    8.0060  -14.7370   20.6202 C   0  0  0  0  0  0  0  0  0  0  0  0
    8.1249  -15.4357   21.9632 C   0  0  2  0  0  0  0  0  0  0  0  0
    7.3802  -14.7556   22.9982 N   0  0  0  0  0  0  0  0  0  0  0  0
    9.5885  -15.4512   22.3219 C   0  0  0  0  0  0  0  0  0  0  0  0
   10.2925  -14.4191   22.1772 O   0  0  0  0  0  0  0  0  0  0  0  0
   10.9111  -18.1931   24.7208 O   0  0  0  0  0  0  0  0  0  0  0  0
   11.8555  -17.1858   24.4681 C   0  0  0  0  0  0  0  0  0  0  0  0
   11.6632  -16.7024   23.0334 C   0  0  2  0  0  0  0  0  0  0  0  0
   10.2082  -16.6243   22.8300 N   0  0  0  0  0  0  0  0  0  0  0  0
   12.2253  -17.7381   22.1531 C   0  0  0  0  0  0  0  0  0  0  0  0
   11.4200  -18.4328   21.2870 O   0  0  0  0  0  0  0  0  0  0  0  0
   13.4414  -17.9865   22.1938 O   0  0  0  0  0  0  0  0  0  0  0  0
  2  1  1  6
  3  2  1  0
  4  2  1  0
  4  5  1  0
  5  6  1  1
  7  5  1  0
  7  8  2  0
 10  9  1  6
 10 11  1  0
 10 12  1  0
 11  7  1  0
 12 13  2  0
 15 14  1  0
 16 15  1  1
 17 12  1  0
 17 16  1  0
 18 19  1  0
 18 16  1  0
 20 18  2  0
M  END
$$$$
