LAS.pdb
     RDKit          3D

 20 19  0  0  1  0  0  0  0  0999 V2000
    6.7578  -12.6560   19.4149 C   0  0  0  0  0  0  0  0  0  0  0  0
    8.0107  -13.5051   19.4160 C   0  0  1  0  0  0  0  0  0  0  0  0
    9.1780  -12.7847   18.7812 C   0  0  0  0  0  0  0  0  0  0  0  0
    8.3370  -13.8457   20.8551 C   0  0  0  0  0  0  0  0  0  0  0  0
    9.5793  -14.6925   20.8484 C   0  0  2  0  0  0  0  0  0  0  0  0
    9.5367  -15.7451   19.8832 N   0  0  0  0  0  0  0  0  0  0  0  0
    9.8549  -15.2139   22.2316 C   0  0  0  0  0  0  0  0  0  0  0  0
    9.8925  -14.3941   23.1847 O   0  0  0  0  0  0  0  0  0  0  0  0
    9.7604  -18.3425   24.1857 C   0  0  0  0  0  0  0  0  0  0  0  0
   10.3920  -17.0027   23.8513 C   0  0  2  0  0  0  0  0  0  0  0  0
   10.0720  -16.5699   22.5101 N   0  0  0  0  0  0  0  0  0  0  0  0
   11.8833  -17.1751   23.9835 C   0  0  0  0  0  0  0  0  0  0  0  0
   12.3943  -17.4889   25.0890 O   0  0  0  0  0  0  0  0  0  0  0  0
   14.1536  -16.5518   20.6924 O   0  0  0  0  0  0  0  0  0  0  0  0
   14.6717  -17.5258   21.5603 C   0  0  0  0  0  0  0  0  0  0  0  0
   14.1979  -17.2033   22.9747 C   0  0  2  0  0  0  0  0  0  0  0  0
   12.7462  -16.9891   22.8704 N   0  0  0  0  0  0  0  0  0  0  0  0
   14.8509  -15.9458   23.3693 C   0  0  0  0  0  0  0  0  0  0  0  0
   16.2049  -15.8974   23.5827 O   0  0  0  0  0  0  0  0  0  0  0  0
   14.1701  -14.9169   23.5108 O   0  0  0  0  0  0  0  0  0  0  0  0
  2  1  1  1
  3  2  1  0
  4  2  1  0
  4  5  1  0
  5  6  1  6
  7  5  1  0
  7  8  2  0
 10  9  1  6
 10 11  1  0
 10 12  1  0
 11  7  1  0
 12 13  2  0
 15 14  1  0
 16 15  1  6
 17 12  1  0
 17 16  1  0
 18 19  1  0
 18 16  1  0
 20 18  2  0
M  END
$$$$
