LAS.pdb
     RDKit          3D

 20 19  0  0  1  0  0  0  0  0999 V2000
    7.0771  -12.8221   18.6382 C   0  0  0  0  0  0  0  0  0  0  0  0
    8.2456  -13.5513   19.2657 C   0  0  1  0  0  0  0  0  0  0  0  0
    9.4703  -12.6708   19.3631 C   0  0  0  0  0  0  0  0  0  0  0  0
    7.8220  -13.9988   20.6491 C   0  0  0  0  0  0  0  0  0  0  0  0
    8.9898  -14.7141   21.2698 C   0  0  2  0  0  0  0  0  0  0  0  0
    9.4509  -15.8191   20.4902 N   0  0  0  0  0  0  0  0  0  0  0  0
    8.6539  -15.1246   22.6768 C   0  0  0  0  0  0  0  0  0  0  0  0
    8.1154  -14.2785   23.4357 O   0  0  0  0  0  0  0  0  0  0  0  0
    8.8308  -18.1839   24.8796 C   0  0  0  0  0  0  0  0  0  0  0  0
    8.6876  -16.7022   24.5798 C   0  0  2  0  0  0  0  0  0  0  0  0
    8.9120  -16.4053   23.1835 N   0  0  0  0  0  0  0  0  0  0  0  0
    9.7120  -15.9833   25.4196 C   0  0  0  0  0  0  0  0  0  0  0  0
   10.9127  -15.9241   25.0502 O   0  0  0  0  0  0  0  0  0  0  0  0
    8.3478  -13.5947   28.1139 O   0  0  0  0  0  0  0  0  0  0  0  0
    9.7264  -13.3899   27.9466 C   0  0  0  0  0  0  0  0  0  0  0  0
   10.3530  -14.7088   27.5030 C   0  0  2  0  0  0  0  0  0  0  0  0
    9.3511  -15.3575   26.6428 N   0  0  0  0  0  0  0  0  0  0  0  0
   10.5540  -15.5172   28.7153 C   0  0  0  0  0  0  0  0  0  0  0  0
   11.4045  -15.0947   29.7049 O   0  0  0  0  0  0  0  0  0  0  0  0
    9.9477  -16.5932   28.8449 O   0  0  0  0  0  0  0  0  0  0  0  0
  2  1  1  1
  3  2  1  0
  4  2  1  0
  4  5  1  0
  5  6  1  6
  7  5  1  0
  7  8  2  0
 10  9  1  6
 10 11  1  0
 10 12  1  0
 11  7  1  0
 12 13  2  0
 15 14  1  0
 16 15  1  1
 17 12  1  0
 17 16  1  0
 18 19  1  0
 18 16  1  0
 20 18  2  0
M  END
$$$$
