LAS.pdb
     RDKit          3D

 20 19  0  0  1  0  0  0  0  0999 V2000
    7.6063  -11.9127   19.7630 C   0  0  0  0  0  0  0  0  0  0  0  0
    8.3434  -13.1243   19.2343 C   0  0  1  0  0  0  0  0  0  0  0  0
    9.7294  -12.7699   18.7464 C   0  0  0  0  0  0  0  0  0  0  0  0
    8.4360  -14.1355   20.3578 C   0  0  0  0  0  0  0  0  0  0  0  0
    9.1038  -15.3642   19.8057 C   0  0  2  0  0  0  0  0  0  0  0  0
    8.3395  -16.0086   18.7849 N   0  0  0  0  0  0  0  0  0  0  0  0
    9.4509  -16.3082   20.9235 C   0  0  0  0  0  0  0  0  0  0  0  0
    8.5208  -16.9461   21.4801 O   0  0  0  0  0  0  0  0  0  0  0  0
   12.5207  -17.7300   22.5870 C   0  0  0  0  0  0  0  0  0  0  0  0
   11.0353  -17.4524   22.4375 C   0  0  2  0  0  0  0  0  0  0  0  0
   10.7617  -16.5117   21.3752 N   0  0  0  0  0  0  0  0  0  0  0  0
   10.5607  -16.8835   23.7499 C   0  0  0  0  0  0  0  0  0  0  0  0
   10.9426  -15.7466   24.1285 O   0  0  0  0  0  0  0  0  0  0  0  0
    7.1322  -16.7922   24.8324 O   0  0  0  0  0  0  0  0  0  0  0  0
    7.7375  -17.3584   25.9652 C   0  0  0  0  0  0  0  0  0  0  0  0
    9.2369  -17.0841   25.8908 C   0  0  2  0  0  0  0  0  0  0  0  0
    9.6752  -17.6114   24.5891 N   0  0  0  0  0  0  0  0  0  0  0  0
    9.8685  -17.8586   26.9700 C   0  0  0  0  0  0  0  0  0  0  0  0
   10.7475  -18.8714   26.6824 O   0  0  0  0  0  0  0  0  0  0  0  0
    9.6038  -17.5932   28.1540 O   0  0  0  0  0  0  0  0  0  0  0  0
  2  1  1  1
  3  2  1  0
  4  2  1  0
  4  5  1  0
  5  6  1  6
  7  5  1  0
  7  8  2  0
 10  9  1  1
 10 11  1  0
 10 12  1  0
 11  7  1  0
 12 13  2  0
 15 14  1  0
 16 15  1  6
 17 12  1  0
 17 16  1  0
 18 19  1  0
 18 16  1  0
 20 18  2  0
M  END
$$$$
