LAS.pdb
     RDKit          3D

 20 19  0  0  1  0  0  0  0  0999 V2000
    7.4360  -12.1580   19.1486 C   0  0  0  0  0  0  0  0  0  0  0  0
    7.7354  -13.5936   19.5229 C   0  0  1  0  0  0  0  0  0  0  0  0
    8.2504  -14.3859   18.3432 C   0  0  0  0  0  0  0  0  0  0  0  0
    8.7741  -13.5769   20.6248 C   0  0  0  0  0  0  0  0  0  0  0  0
    8.7801  -14.9393   21.2606 C   0  0  2  0  0  0  0  0  0  0  0  0
    7.6385  -15.7259   20.9148 N   0  0  0  0  0  0  0  0  0  0  0  0
    8.9401  -14.8120   22.7503 C   0  0  0  0  0  0  0  0  0  0  0  0
    9.9741  -14.2518   23.1963 O   0  0  0  0  0  0  0  0  0  0  0  0
    6.8853  -14.8889   25.8255 C   0  0  0  0  0  0  0  0  0  0  0  0
    8.1926  -15.1161   25.0870 C   0  0  2  0  0  0  0  0  0  0  0  0
    7.9923  -15.2876   23.6662 N   0  0  0  0  0  0  0  0  0  0  0  0
    8.8114  -16.3635   25.6635 C   0  0  0  0  0  0  0  0  0  0  0  0
    8.9464  -16.4933   26.9071 O   0  0  0  0  0  0  0  0  0  0  0  0
    9.4097  -19.4283   23.2064 O   0  0  0  0  0  0  0  0  0  0  0  0
    9.4226  -19.7891   24.5629 C   0  0  0  0  0  0  0  0  0  0  0  0
    9.9437  -18.6009   25.3664 C   0  0  2  0  0  0  0  0  0  0  0  0
    9.2559  -17.4192   24.8231 N   0  0  0  0  0  0  0  0  0  0  0  0
   11.3851  -18.4970   25.0924 C   0  0  0  0  0  0  0  0  0  0  0  0
   12.2444  -19.4937   25.4789 O   0  0  0  0  0  0  0  0  0  0  0  0
   11.8293  -17.4970   24.5051 O   0  0  0  0  0  0  0  0  0  0  0  0
  2  1  1  6
  3  2  1  0
  4  2  1  0
  4  5  1  0
  5  6  1  1
  7  5  1  0
  7  8  2  0
 10  9  1  1
 10 11  1  0
 10 12  1  0
 11  7  1  0
 12 13  2  0
 15 14  1  0
 16 15  1  6
 17 12  1  0
 17 16  1  0
 18 19  1  0
 18 16  1  0
 20 18  2  0
M  END
$$$$
