LAS.pdb
     RDKit          3D

 20 19  0  0  1  0  0  0  0  0999 V2000
    7.3891  -12.3590   21.0714 C   0  0  0  0  0  0  0  0  0  0  0  0
    7.4071  -13.5277   20.1098 C   0  0  1  0  0  0  0  0  0  0  0  0
    7.9892  -13.1430   18.7690 C   0  0  0  0  0  0  0  0  0  0  0  0
    8.2386  -14.6281   20.7355 C   0  0  0  0  0  0  0  0  0  0  0  0
    8.1020  -15.8472   19.8662 C   0  0  2  0  0  0  0  0  0  0  0  0
    6.7584  -16.3244   19.7746 N   0  0  0  0  0  0  0  0  0  0  0  0
    9.0456  -16.9210   20.3327 C   0  0  0  0  0  0  0  0  0  0  0  0
    8.5742  -17.8983   20.9687 O   0  0  0  0  0  0  0  0  0  0  0  0
   12.6198  -17.9743   19.8767 C   0  0  0  0  0  0  0  0  0  0  0  0
   11.2876  -17.9266   20.6039 C   0  0  2  0  0  0  0  0  0  0  0  0
   10.4257  -16.8853   20.0929 N   0  0  0  0  0  0  0  0  0  0  0  0
   11.5897  -17.6639   22.0568 C   0  0  0  0  0  0  0  0  0  0  0  0
   12.5797  -18.2060   22.6114 O   0  0  0  0  0  0  0  0  0  0  0  0
    9.0087  -15.3448   24.2218 O   0  0  0  0  0  0  0  0  0  0  0  0
   10.3651  -15.1848   24.5460 C   0  0  0  0  0  0  0  0  0  0  0  0
   11.0858  -16.4941   24.2371 C   0  0  2  0  0  0  0  0  0  0  0  0
   10.7696  -16.8024   22.8337 N   0  0  0  0  0  0  0  0  0  0  0  0
   10.4979  -17.5230   25.1085 C   0  0  0  0  0  0  0  0  0  0  0  0
    9.7532  -18.5460   24.5792 O   0  0  0  0  0  0  0  0  0  0  0  0
   10.6773  -17.4656   26.3360 O   0  0  0  0  0  0  0  0  0  0  0  0
  2  1  1  1
  3  2  1  0
  4  2  1  0
  4  5  1  0
  5  6  1  1
  7  5  1  0
  7  8  2  0
 10  9  1  6
 10 11  1  0
 10 12  1  0
 11  7  1  0
 12 13  2  0
 15 14  1  0
 16 15  1  1
 17 12  1  0
 17 16  1  0
 18 19  1  0
 18 16  1  0
 20 18  2  0
M  END
$$$$
