LAS.pdb
     RDKit          3D

 20 19  0  0  1  0  0  0  0  0999 V2000
    9.1630  -12.7220   19.6582 C   0  0  0  0  0  0  0  0  0  0  0  0
    8.2310  -13.5680   20.4987 C   0  0  1  0  0  0  0  0  0  0  0  0
    7.1864  -12.7282   21.1973 C   0  0  0  0  0  0  0  0  0  0  0  0
    7.5585  -14.5667   19.5800 C   0  0  0  0  0  0  0  0  0  0  0  0
    8.5605  -15.6452   19.2745 C   0  0  2  0  0  0  0  0  0  0  0  0
    8.1112  -16.5632   18.2760 N   0  0  0  0  0  0  0  0  0  0  0  0
    8.9615  -16.3497   20.5410 C   0  0  0  0  0  0  0  0  0  0  0  0
    8.0926  -17.0209   21.1544 O   0  0  0  0  0  0  0  0  0  0  0  0
   12.1276  -17.1370   22.4273 C   0  0  0  0  0  0  0  0  0  0  0  0
   10.6266  -17.1207   22.1976 C   0  0  2  0  0  0  0  0  0  0  0  0
   10.2574  -16.2943   21.0711 N   0  0  0  0  0  0  0  0  0  0  0  0
    9.9963  -16.5739   23.4526 C   0  0  0  0  0  0  0  0  0  0  0  0
   10.1390  -15.3638   23.7639 O   0  0  0  0  0  0  0  0  0  0  0  0
    6.7016  -16.9532   24.4562 O   0  0  0  0  0  0  0  0  0  0  0  0
    7.2812  -17.2830   25.6914 C   0  0  0  0  0  0  0  0  0  0  0  0
    8.7662  -16.9372   25.6276 C   0  0  2  0  0  0  0  0  0  0  0  0
    9.2291  -17.4053   24.3119 N   0  0  0  0  0  0  0  0  0  0  0  0
    9.4327  -17.7126   26.6850 C   0  0  0  0  0  0  0  0  0  0  0  0
    9.1720  -17.4603   28.0077 O   0  0  0  0  0  0  0  0  0  0  0  0
   10.2399  -18.6049   26.3778 O   0  0  0  0  0  0  0  0  0  0  0  0
  2  1  1  6
  3  2  1  0
  4  2  1  0
  4  5  1  0
  5  6  1  6
  7  5  1  0
  7  8  2  0
 10  9  1  1
 10 11  1  0
 10 12  1  0
 11  7  1  0
 12 13  2  0
 15 14  1  0
 16 15  1  6
 17 12  1  0
 17 16  1  0
 18 19  1  0
 18 16  1  0
 20 18  2  0
M  END
$$$$
