LAS.pdb
     RDKit          3D

 20 19  0  0  1  0  0  0  0  0999 V2000
    6.6315  -16.1206   18.7760 C   0  0  0  0  0  0  0  0  0  0  0  0
    7.6042  -15.0466   19.2134 C   0  0  1  0  0  0  0  0  0  0  0  0
    6.9128  -13.7224   19.4430 C   0  0  0  0  0  0  0  0  0  0  0  0
    8.2618  -15.5132   20.4954 C   0  0  0  0  0  0  0  0  0  0  0  0
    9.1070  -14.3802   21.0077 C   0  0  2  0  0  0  0  0  0  0  0  0
   10.2565  -14.1258   20.1983 N   0  0  0  0  0  0  0  0  0  0  0  0
    9.4781  -14.6230   22.4445 C   0  0  0  0  0  0  0  0  0  0  0  0
   10.6104  -15.1087   22.6972 O   0  0  0  0  0  0  0  0  0  0  0  0
    7.9574  -14.2272   25.8810 C   0  0  0  0  0  0  0  0  0  0  0  0
    9.0152  -14.6402   24.8728 C   0  0  2  0  0  0  0  0  0  0  0  0
    8.6228  -14.3341   23.5161 N   0  0  0  0  0  0  0  0  0  0  0  0
    9.2045  -16.1281   25.0198 C   0  0  0  0  0  0  0  0  0  0  0  0
    8.3304  -16.9279   24.5981 O   0  0  0  0  0  0  0  0  0  0  0  0
   12.1705  -19.8060   25.4925 O   0  0  0  0  0  0  0  0  0  0  0  0
   11.9591  -18.4250   25.3560 C   0  0  0  0  0  0  0  0  0  0  0  0
   10.5420  -18.1117   25.8277 C   0  0  2  0  0  0  0  0  0  0  0  0
   10.3679  -16.6636   25.6346 N   0  0  0  0  0  0  0  0  0  0  0  0
   10.4894  -18.4235   27.2642 C   0  0  0  0  0  0  0  0  0  0  0  0
   10.5829  -19.7198   27.7027 O   0  0  0  0  0  0  0  0  0  0  0  0
   10.3592  -17.5044   28.0890 O   0  0  0  0  0  0  0  0  0  0  0  0
  2  1  1  1
  3  2  1  0
  4  2  1  0
  4  5  1  0
  5  6  1  6
  7  5  1  0
  7  8  2  0
 10  9  1  1
 10 11  1  0
 10 12  1  0
 11  7  1  0
 12 13  2  0
 15 14  1  0
 16 15  1  1
 17 12  1  0
 17 16  1  0
 18 19  1  0
 18 16  1  0
 20 18  2  0
M  END
$$$$
