LAS.pdb
     RDKit          3D

 20 19  0  0  1  0  0  0  0  0999 V2000
    7.2486  -16.7377   17.1302 C   0  0  0  0  0  0  0  0  0  0  0  0
    7.1859  -15.3586   17.7507 C   0  0  1  0  0  0  0  0  0  0  0  0
    5.7638  -14.9387   18.0436 C   0  0  0  0  0  0  0  0  0  0  0  0
    7.9874  -15.3930   19.0352 C   0  0  0  0  0  0  0  0  0  0  0  0
    7.9127  -14.0234   19.6510 C   0  0  2  0  0  0  0  0  0  0  0  0
    8.4518  -13.0000   18.8122 N   0  0  0  0  0  0  0  0  0  0  0  0
    8.5608  -14.0325   21.0078 C   0  0  0  0  0  0  0  0  0  0  0  0
    9.8097  -13.9008   21.0765 O   0  0  0  0  0  0  0  0  0  0  0  0
    7.5855  -14.0511   24.6426 C   0  0  0  0  0  0  0  0  0  0  0  0
    8.5265  -14.2599   23.4692 C   0  0  2  0  0  0  0  0  0  0  0  0
    7.8398  -14.1808   22.2002 N   0  0  0  0  0  0  0  0  0  0  0  0
    9.1322  -15.6304   23.6307 C   0  0  0  0  0  0  0  0  0  0  0  0
    8.5032  -16.6543   23.2595 O   0  0  0  0  0  0  0  0  0  0  0  0
   12.8708  -16.3836   23.1412 O   0  0  0  0  0  0  0  0  0  0  0  0
   12.5185  -16.9332   24.3838 C   0  0  0  0  0  0  0  0  0  0  0  0
   11.0062  -17.1365   24.4027 C   0  0  2  0  0  0  0  0  0  0  0  0
   10.4213  -15.8014   24.2026 N   0  0  0  0  0  0  0  0  0  0  0  0
   10.6563  -17.6279   25.7442 C   0  0  0  0  0  0  0  0  0  0  0  0
   11.0120  -18.8916   26.1413 O   0  0  0  0  0  0  0  0  0  0  0  0
   10.0325  -16.8916   26.5259 O   0  0  0  0  0  0  0  0  0  0  0  0
  2  1  1  1
  3  2  1  0
  4  2  1  0
  4  5  1  0
  5  6  1  6
  7  5  1  0
  7  8  2  0
 10  9  1  1
 10 11  1  0
 10 12  1  0
 11  7  1  0
 12 13  2  0
 15 14  1  0
 16 15  1  1
 17 12  1  0
 17 16  1  0
 18 19  1  0
 18 16  1  0
 20 18  2  0
M  END
$$$$
