LAS.pdb
     RDKit          3D

 20 19  0  0  1  0  0  0  0  0999 V2000
    5.8266  -11.5372   26.4571 C   0  0  0  0  0  0  0  0  0  0  0  0
    6.6495  -12.4626   25.5869 C   0  0  1  0  0  0  0  0  0  0  0  0
    8.0492  -11.9344   25.3717 C   0  0  0  0  0  0  0  0  0  0  0  0
    6.7081  -13.8115   26.2729 C   0  0  0  0  0  0  0  0  0  0  0  0
    7.5812  -14.7058   25.4372 C   0  0  2  0  0  0  0  0  0  0  0  0
    7.2053  -14.7298   24.0590 N   0  0  0  0  0  0  0  0  0  0  0  0
    7.6205  -16.0873   26.0296 C   0  0  0  0  0  0  0  0  0  0  0  0
    7.9208  -16.2101   27.2447 O   0  0  0  0  0  0  0  0  0  0  0  0
    6.5586  -19.5773   25.2935 C   0  0  0  0  0  0  0  0  0  0  0  0
    7.5116  -18.5527   25.8832 C   0  0  2  0  0  0  0  0  0  0  0  0
    7.3385  -17.2452   25.2926 N   0  0  0  0  0  0  0  0  0  0  0  0
    8.9095  -19.0471   25.6135 C   0  0  0  0  0  0  0  0  0  0  0  0
    9.3169  -20.1212   26.1253 O   0  0  0  0  0  0  0  0  0  0  0  0
   11.4109  -16.6660   23.4981 O   0  0  0  0  0  0  0  0  0  0  0  0
   11.6010  -18.0318   23.2359 C   0  0  0  0  0  0  0  0  0  0  0  0
   11.1446  -18.8194   24.4608 C   0  0  2  0  0  0  0  0  0  0  0  0
    9.7988  -18.3178   24.7795 N   0  0  0  0  0  0  0  0  0  0  0  0
   12.0654  -18.4797   25.5565 C   0  0  0  0  0  0  0  0  0  0  0  0
   11.6254  -17.7728   26.6464 O   0  0  0  0  0  0  0  0  0  0  0  0
   13.2533  -18.8362   25.4947 O   0  0  0  0  0  0  0  0  0  0  0  0
  2  1  1  1
  3  2  1  0
  4  2  1  0
  4  5  1  0
  5  6  1  6
  7  5  1  0
  7  8  2  0
 10  9  1  6
 10 11  1  0
 10 12  1  0
 11  7  1  0
 12 13  2  0
 15 14  1  0
 16 15  1  6
 17 12  1  0
 17 16  1  0
 18 19  1  0
 18 16  1  0
 20 18  2  0
M  END
$$$$
