LAS.pdb
     RDKit          3D

 20 19  0  0  1  0  0  0  0  0999 V2000
    7.7757  -12.0374   21.0231 C   0  0  0  0  0  0  0  0  0  0  0  0
    7.9727  -13.2442   20.1311 C   0  0  1  0  0  0  0  0  0  0  0  0
    8.8681  -12.9324   18.9539 C   0  0  0  0  0  0  0  0  0  0  0  0
    8.5899  -14.3434   20.9704 C   0  0  0  0  0  0  0  0  0  0  0  0
    8.6223  -15.5895   20.1297 C   0  0  2  0  0  0  0  0  0  0  0  0
    7.3300  -15.9931   19.6731 N   0  0  0  0  0  0  0  0  0  0  0  0
    9.3225  -16.6938   20.8720 C   0  0  0  0  0  0  0  0  0  0  0  0
    8.6824  -17.3243   21.7521 O   0  0  0  0  0  0  0  0  0  0  0  0
   12.5069  -18.6722   20.6375 C   0  0  0  0  0  0  0  0  0  0  0  0
   11.2532  -18.1683   21.3304 C   0  0  2  0  0  0  0  0  0  0  0  0
   10.6548  -17.0546   20.6304 N   0  0  0  0  0  0  0  0  0  0  0  0
   11.6611  -17.7338   22.7146 C   0  0  0  0  0  0  0  0  0  0  0  0
   12.1830  -16.6050   22.9018 O   0  0  0  0  0  0  0  0  0  0  0  0
    9.9152  -19.2586   25.7827 O   0  0  0  0  0  0  0  0  0  0  0  0
   10.7219  -18.1453   26.0658 C   0  0  0  0  0  0  0  0  0  0  0  0
   11.9593  -18.2155   25.1753 C   0  0  2  0  0  0  0  0  0  0  0  0
   11.4684  -18.5821   23.8378 N   0  0  0  0  0  0  0  0  0  0  0  0
   12.8043  -19.2991   25.7002 C   0  0  0  0  0  0  0  0  0  0  0  0
   13.3551  -19.2123   26.9533 O   0  0  0  0  0  0  0  0  0  0  0  0
   13.0217  -20.3030   25.0023 O   0  0  0  0  0  0  0  0  0  0  0  0
  2  1  1  1
  3  2  1  0
  4  2  1  0
  4  5  1  0
  5  6  1  1
  7  5  1  0
  7  8  2  0
 10  9  1  6
 10 11  1  0
 10 12  1  0
 11  7  1  0
 12 13  2  0
 15 14  1  0
 16 15  1  1
 17 12  1  0
 17 16  1  0
 18 19  1  0
 18 16  1  0
 20 18  2  0
M  END
$$$$
