LAS.pdb
     RDKit          3D

 20 19  0  0  1  0  0  0  0  0999 V2000
    7.6243  -11.8477   27.5916 C   0  0  0  0  0  0  0  0  0  0  0  0
    6.6931  -12.7561   26.8179 C   0  0  1  0  0  0  0  0  0  0  0  0
    5.7433  -11.9721   25.9418 C   0  0  0  0  0  0  0  0  0  0  0  0
    7.5449  -13.6714   25.9634 C   0  0  0  0  0  0  0  0  0  0  0  0
    6.6218  -14.6470   25.2877 C   0  0  2  0  0  0  0  0  0  0  0  0
    5.8986  -15.4663   26.2081 N   0  0  0  0  0  0  0  0  0  0  0  0
    7.3850  -15.4704   24.2874 C   0  0  0  0  0  0  0  0  0  0  0  0
    7.8667  -16.5710   24.6597 O   0  0  0  0  0  0  0  0  0  0  0  0
    8.4241  -15.2967   20.6589 C   0  0  0  0  0  0  0  0  0  0  0  0
    8.3902  -15.8704   22.0645 C   0  0  2  0  0  0  0  0  0  0  0  0
    7.5856  -15.0704   22.9595 N   0  0  0  0  0  0  0  0  0  0  0  0
    9.8133  -15.9041   22.5593 C   0  0  0  0  0  0  0  0  0  0  0  0
   10.5308  -14.8723   22.5110 O   0  0  0  0  0  0  0  0  0  0  0  0
   10.8584  -18.9731   24.7638 O   0  0  0  0  0  0  0  0  0  0  0  0
   11.7369  -17.8856   24.8904 C   0  0  0  0  0  0  0  0  0  0  0  0
   11.7732  -17.1454   23.5564 C   0  0  2  0  0  0  0  0  0  0  0  0
   10.3788  -17.0944   23.0900 N   0  0  0  0  0  0  0  0  0  0  0  0
   12.5686  -17.9673   22.6315 C   0  0  0  0  0  0  0  0  0  0  0  0
   11.9781  -18.5815   21.5567 O   0  0  0  0  0  0  0  0  0  0  0  0
   13.7873  -18.1069   22.8251 O   0  0  0  0  0  0  0  0  0  0  0  0
  2  1  1  6
  3  2  1  0
  4  2  1  0
  4  5  1  0
  5  6  1  1
  7  5  1  0
  7  8  2  0
 10  9  1  6
 10 11  1  0
 10 12  1  0
 11  7  1  0
 12 13  2  0
 15 14  1  0
 16 15  1  1
 17 12  1  0
 17 16  1  0
 18 19  1  0
 18 16  1  0
 20 18  2  0
M  END
$$$$
