KWE.pdb
     RDKit          3D

 33 34  0  0  1  0  0  0  0  0999 V2000
    7.6788  -16.2626   18.9135 N   0  0  0  0  0  0  0  0  0  0  0  0
    8.8101  -15.3835   19.0229 C   0  0  1  0  0  0  0  0  0  0  0  0
    8.5856  -14.1207   18.2962 C   0  0  0  0  0  0  0  0  0  0  0  0
    8.5766  -14.3039   16.8136 C   0  0  0  0  0  0  0  0  0  0  0  0
    7.3412  -13.8704   16.0995 C   0  0  0  0  0  0  0  0  0  0  0  0
    7.6587  -14.0547   14.5924 C   0  0  0  0  0  0  0  0  0  0  0  0
    6.4494  -13.7546   13.8866 N   0  0  0  0  0  0  0  0  0  0  0  0
    9.1568  -15.1770   20.4637 C   0  0  0  0  0  0  0  0  0  0  0  0
   10.2673  -14.6831   20.7611 O   0  0  0  0  0  0  0  0  0  0  0  0
    8.2671  -15.5235   21.5054 N   0  0  0  0  0  0  0  0  0  0  0  0
    8.4629  -15.2961   22.8925 C   0  0  1  0  0  0  0  0  0  0  0  0
    7.2622  -14.7783   23.6659 C   0  0  0  0  0  0  0  0  0  0  0  0
    7.4644  -14.6195   25.0935 C   0  0  0  0  0  0  0  0  0  0  0  0
    7.8981  -15.4872   26.0354 C   0  0  0  0  0  0  0  0  0  0  0  0
    7.9393  -14.8948   27.2645 N   0  0  0  0  0  0  0  0  0  0  0  0
    7.5263  -13.6348   27.0963 C   0  0  0  0  0  0  0  0  0  0  0  0
    7.3691  -12.5807   27.9853 C   0  0  0  0  0  0  0  0  0  0  0  0
    6.9245  -11.3396   27.5919 C   0  0  0  0  0  0  0  0  0  0  0  0
    6.6254  -11.1417   26.2616 C   0  0  0  0  0  0  0  0  0  0  0  0
    6.7766  -12.1823   25.3623 C   0  0  0  0  0  0  0  0  0  0  0  0
    7.2223  -13.4169   25.7751 C   0  0  0  0  0  0  0  0  0  0  0  0
    8.9898  -16.4559   23.6408 C   0  0  0  0  0  0  0  0  0  0  0  0
    8.2491  -17.4849   23.6706 O   0  0  0  0  0  0  0  0  0  0  0  0
   10.2173  -16.4933   24.3006 N   0  0  0  0  0  0  0  0  0  0  0  0
   10.7310  -17.7877   24.7600 C   0  0  1  0  0  0  0  0  0  0  0  0
   12.0177  -18.1080   24.0296 C   0  0  0  0  0  0  0  0  0  0  0  0
   13.1222  -17.1661   24.4164 C   0  0  0  0  0  0  0  0  0  0  0  0
   14.2595  -17.2611   23.4430 C   0  0  0  0  0  0  0  0  0  0  0  0
   14.6784  -18.3496   23.0280 O   0  0  0  0  0  0  0  0  0  0  0  0
   10.9056  -17.6727   26.2182 C   0  0  0  0  0  0  0  0  0  0  0  0
   10.6811  -16.4909   26.8905 O   0  0  0  0  0  0  0  0  0  0  0  0
   14.8402  -16.0845   23.0116 O   0  0  0  0  0  0  0  0  0  0  0  0
   11.2699  -18.6695   26.8776 O   0  0  0  0  0  0  0  0  0  0  0  0
  2  1  1  1
  2  3  1  0
  3  4  1  0
  4  5  1  0
  5  6  1  0
  6  7  1  0
  8  2  1  0
  8  9  2  0
 10  8  1  0
 11 10  1  0
 11 12  1  1
 13 12  1  0
 13 14  2  0
 15 14  1  0
 16 15  1  0
 17 16  2  0
 18 17  1  0
 19 18  2  0
 19 20  1  0
 20 21  2  0
 21 16  1  0
 21 13  1  0
 22 11  1  0
 23 22  2  0
 24 22  1  0
 25 24  1  0
 25 26  1  6
 26 27  1  0
 27 28  1  0
 28 29  2  0
 28 32  1  0
 30 31  1  0
 30 25  1  0
 33 30  2  0
M  END
$$$$
