KWE.pdb
     RDKit          3D

 33 34  0  0  1  0  0  0  0  0999 V2000
   10.0107  -16.6344   18.4743 N   0  0  0  0  0  0  0  0  0  0  0  0
    9.6433  -17.4668   19.5863 C   0  0  1  0  0  0  0  0  0  0  0  0
   10.5460  -18.6250   19.7161 C   0  0  0  0  0  0  0  0  0  0  0  0
   10.6490  -19.4183   18.4544 C   0  0  0  0  0  0  0  0  0  0  0  0
   11.4995  -20.6421   18.5084 C   0  0  0  0  0  0  0  0  0  0  0  0
   11.4731  -21.2176   17.0681 C   0  0  0  0  0  0  0  0  0  0  0  0
   12.3778  -22.3276   17.0615 N   0  0  0  0  0  0  0  0  0  0  0  0
    9.5625  -16.6438   20.8334 C   0  0  0  0  0  0  0  0  0  0  0  0
   10.4811  -15.8350   21.0932 O   0  0  0  0  0  0  0  0  0  0  0  0
    8.4775  -16.7505   21.7323 N   0  0  0  0  0  0  0  0  0  0  0  0
    8.3807  -16.1469   23.0130 C   0  0  1  0  0  0  0  0  0  0  0  0
    6.9812  -16.0068   23.5872 C   0  0  0  0  0  0  0  0  0  0  0  0
    6.9085  -15.4120   24.9082 C   0  0  0  0  0  0  0  0  0  0  0  0
    6.7563  -15.9693   26.1308 C   0  0  0  0  0  0  0  0  0  0  0  0
    6.7496  -15.0146   27.1063 N   0  0  0  0  0  0  0  0  0  0  0  0
    6.9002  -13.8376   26.4911 C   0  0  0  0  0  0  0  0  0  0  0  0
    6.9679  -12.5378   26.9731 C   0  0  0  0  0  0  0  0  0  0  0  0
    7.1327  -11.4492   26.1481 C   0  0  0  0  0  0  0  0  0  0  0  0
    7.2340  -11.6645   24.7910 C   0  0  0  0  0  0  0  0  0  0  0  0
    7.1684  -12.9543   24.2943 C   0  0  0  0  0  0  0  0  0  0  0  0
    7.0028  -14.0304   25.1355 C   0  0  0  0  0  0  0  0  0  0  0  0
    9.2140  -16.7766   24.0579 C   0  0  0  0  0  0  0  0  0  0  0  0
    8.9969  -18.0063   24.2799 O   0  0  0  0  0  0  0  0  0  0  0  0
   10.1990  -16.1247   24.7984 N   0  0  0  0  0  0  0  0  0  0  0  0
   11.0049  -16.9068   25.7413 C   0  0  1  0  0  0  0  0  0  0  0  0
   12.4744  -16.7015   25.4406 C   0  0  0  0  0  0  0  0  0  0  0  0
   12.8188  -17.1356   24.0444 C   0  0  0  0  0  0  0  0  0  0  0  0
   14.2980  -17.0406   23.8139 C   0  0  0  0  0  0  0  0  0  0  0  0
   14.9413  -16.0209   24.0944 O   0  0  0  0  0  0  0  0  0  0  0  0
   10.6210  -16.4568   27.0904 C   0  0  0  0  0  0  0  0  0  0  0  0
   11.1642  -17.0122   28.2285 O   0  0  0  0  0  0  0  0  0  0  0  0
   14.9387  -18.1374   23.2712 O   0  0  0  0  0  0  0  0  0  0  0  0
    9.7763  -15.5453   27.2208 O   0  0  0  0  0  0  0  0  0  0  0  0
  2  1  1  6
  2  3  1  0
  3  4  1  0
  4  5  1  0
  5  6  1  0
  6  7  1  0
  8  2  1  0
  8  9  2  0
 10  8  1  0
 11 10  1  0
 11 12  1  1
 13 12  1  0
 13 14  2  0
 15 14  1  0
 16 15  1  0
 17 16  2  0
 18 17  1  0
 19 18  2  0
 19 20  1  0
 20 21  2  0
 21 16  1  0
 21 13  1  0
 22 11  1  0
 23 22  2  0
 24 22  1  0
 25 24  1  0
 25 26  1  6
 26 27  1  0
 27 28  1  0
 28 29  2  0
 28 32  1  0
 30 31  1  0
 30 25  1  0
 33 30  2  0
M  END
$$$$
