KWE.pdb
     RDKit          3D

 33 34  0  0  1  0  0  0  0  0999 V2000
    6.9816  -16.4050   21.1830 N   0  0  0  0  0  0  0  0  0  0  0  0
    8.1213  -15.6211   20.7941 C   0  0  1  0  0  0  0  0  0  0  0  0
    7.7149  -14.3500   20.1679 C   0  0  0  0  0  0  0  0  0  0  0  0
    7.4666  -14.4850   18.7010 C   0  0  0  0  0  0  0  0  0  0  0  0
    7.8247  -13.3087   17.8570 C   0  0  0  0  0  0  0  0  0  0  0  0
    7.3110  -13.6585   16.4357 C   0  0  0  0  0  0  0  0  0  0  0  0
    7.4673  -12.4730   15.6481 N   0  0  0  0  0  0  0  0  0  0  0  0
    9.0330  -15.4324   21.9655 C   0  0  0  0  0  0  0  0  0  0  0  0
   10.0624  -14.7337   21.8333 O   0  0  0  0  0  0  0  0  0  0  0  0
    8.7685  -16.0204   23.2229 N   0  0  0  0  0  0  0  0  0  0  0  0
    9.5815  -15.9327   24.3828 C   0  0  1  0  0  0  0  0  0  0  0  0
    8.8509  -15.8252   25.7105 C   0  0  0  0  0  0  0  0  0  0  0  0
    7.6116  -15.0721   25.6783 C   0  0  0  0  0  0  0  0  0  0  0  0
    6.3282  -15.4714   25.5296 C   0  0  0  0  0  0  0  0  0  0  0  0
    5.4766  -14.4053   25.5686 N   0  0  0  0  0  0  0  0  0  0  0  0
    6.2328  -13.3174   25.7449 C   0  0  0  0  0  0  0  0  0  0  0  0
    5.9141  -11.9715   25.8605 C   0  0  0  0  0  0  0  0  0  0  0  0
    6.8679  -10.9974   26.0447 C   0  0  0  0  0  0  0  0  0  0  0  0
    8.1898  -11.3793   26.1165 C   0  0  0  0  0  0  0  0  0  0  0  0
    8.5244  -12.7171   26.0031 C   0  0  0  0  0  0  0  0  0  0  0  0
    7.5560  -13.6769   25.8187 C   0  0  0  0  0  0  0  0  0  0  0  0
   10.5755  -17.0165   24.5246 C   0  0  0  0  0  0  0  0  0  0  0  0
   10.1100  -18.1920   24.6244 O   0  0  0  0  0  0  0  0  0  0  0  0
   11.9577  -16.8372   24.5555 N   0  0  0  0  0  0  0  0  0  0  0  0
   12.8211  -18.0219   24.5905 C   0  0  1  0  0  0  0  0  0  0  0  0
   14.0665  -17.7633   23.7694 C   0  0  0  0  0  0  0  0  0  0  0  0
   14.8058  -16.5488   24.2542 C   0  0  0  0  0  0  0  0  0  0  0  0
   16.1039  -16.3948   23.5184 C   0  0  0  0  0  0  0  0  0  0  0  0
   16.4360  -17.1631   22.6064 O   0  0  0  0  0  0  0  0  0  0  0  0
   13.1081  -18.2863   26.0109 C   0  0  0  0  0  0  0  0  0  0  0  0
   13.7933  -19.4092   26.4217 O   0  0  0  0  0  0  0  0  0  0  0  0
   16.9365  -15.3566   23.8883 O   0  0  0  0  0  0  0  0  0  0  0  0
   12.7222  -17.4764   26.8806 O   0  0  0  0  0  0  0  0  0  0  0  0
  2  1  1  1
  2  3  1  0
  3  4  1  0
  4  5  1  0
  5  6  1  0
  6  7  1  0
  8  2  1  0
  8  9  2  0
 10  8  1  0
 11 10  1  0
 11 12  1  1
 13 12  1  0
 13 14  2  0
 15 14  1  0
 16 15  1  0
 17 16  2  0
 18 17  1  0
 19 18  2  0
 19 20  1  0
 20 21  2  0
 21 16  1  0
 21 13  1  0
 22 11  1  0
 23 22  2  0
 24 22  1  0
 25 24  1  0
 25 26  1  6
 26 27  1  0
 27 28  1  0
 28 29  2  0
 28 32  1  0
 30 31  1  0
 30 25  1  0
 33 30  2  0
M  END
$$$$
