KWE.pdb
     RDKit          3D

 33 34  0  0  1  0  0  0  0  0999 V2000
    8.4468  -17.4005   18.0421 N   0  0  0  0  0  0  0  0  0  0  0  0
    8.1350  -17.8659   19.3653 C   0  0  1  0  0  0  0  0  0  0  0  0
    8.4685  -19.2925   19.5290 C   0  0  0  0  0  0  0  0  0  0  0  0
    8.5522  -20.0170   18.2252 C   0  0  0  0  0  0  0  0  0  0  0  0
    9.9067  -20.4859   17.8132 C   0  0  0  0  0  0  0  0  0  0  0  0
    9.6565  -21.4578   16.6304 C   0  0  0  0  0  0  0  0  0  0  0  0
   10.9442  -21.7740   16.0898 N   0  0  0  0  0  0  0  0  0  0  0  0
    8.7954  -16.9891   20.3821 C   0  0  0  0  0  0  0  0  0  0  0  0
   10.0340  -16.8195   20.3318 O   0  0  0  0  0  0  0  0  0  0  0  0
    8.0627  -16.3428   21.4030 N   0  0  0  0  0  0  0  0  0  0  0  0
    8.5914  -15.5078   22.4214 C   0  0  1  0  0  0  0  0  0  0  0  0
    7.6827  -14.3975   22.9208 C   0  0  0  0  0  0  0  0  0  0  0  0
    7.1590  -14.5792   24.2613 C   0  0  0  0  0  0  0  0  0  0  0  0
    6.6955  -15.6791   24.8969 C   0  0  0  0  0  0  0  0  0  0  0  0
    6.3060  -15.3804   26.1705 N   0  0  0  0  0  0  0  0  0  0  0  0
    6.5271  -14.0734   26.3420 C   0  0  0  0  0  0  0  0  0  0  0  0
    6.3259  -13.2301   27.4258 C   0  0  0  0  0  0  0  0  0  0  0  0
    6.6322  -11.8894   27.3882 C   0  0  0  0  0  0  0  0  0  0  0  0
    7.1591  -11.3695   26.2261 C   0  0  0  0  0  0  0  0  0  0  0  0
    7.3657  -12.1968   25.1365 C   0  0  0  0  0  0  0  0  0  0  0  0
    7.0527  -13.5354   25.1932 C   0  0  0  0  0  0  0  0  0  0  0  0
    9.0896  -16.2254   23.6128 C   0  0  0  0  0  0  0  0  0  0  0  0
    8.3460  -17.1508   24.0592 O   0  0  0  0  0  0  0  0  0  0  0  0
   10.2934  -15.9592   24.2634 N   0  0  0  0  0  0  0  0  0  0  0  0
   11.0487  -17.0793   24.8337 C   0  0  1  0  0  0  0  0  0  0  0  0
   12.3876  -17.1926   24.1361 C   0  0  0  0  0  0  0  0  0  0  0  0
   13.3315  -16.1085   24.5724 C   0  0  0  0  0  0  0  0  0  0  0  0
   14.6091  -16.1770   23.7893 C   0  0  0  0  0  0  0  0  0  0  0  0
   15.5114  -15.3416   23.9322 O   0  0  0  0  0  0  0  0  0  0  0  0
   11.1682  -16.8092   26.2769 C   0  0  0  0  0  0  0  0  0  0  0  0
   11.5191  -17.7910   27.1779 O   0  0  0  0  0  0  0  0  0  0  0  0
   14.7593  -17.2127   22.8880 O   0  0  0  0  0  0  0  0  0  0  0  0
   10.9453  -15.6589   26.7109 O   0  0  0  0  0  0  0  0  0  0  0  0
  2  1  1  6
  2  3  1  0
  3  4  1  0
  4  5  1  0
  5  6  1  0
  6  7  1  0
  8  2  1  0
  8  9  2  0
 10  8  1  0
 11 10  1  0
 11 12  1  1
 13 12  1  0
 13 14  2  0
 15 14  1  0
 16 15  1  0
 17 16  2  0
 18 17  1  0
 19 18  2  0
 19 20  1  0
 20 21  2  0
 21 16  1  0
 21 13  1  0
 22 11  1  0
 23 22  2  0
 24 22  1  0
 25 24  1  0
 25 26  1  6
 26 27  1  0
 27 28  1  0
 28 29  2  0
 28 32  1  0
 30 31  1  0
 30 25  1  0
 33 30  2  0
M  END
$$$$
