KWE.pdb
     RDKit          3D

 33 34  0  0  1  0  0  0  0  0999 V2000
    7.1213  -16.3628   20.9765 N   0  0  0  0  0  0  0  0  0  0  0  0
    8.0566  -15.2790   20.8535 C   0  0  1  0  0  0  0  0  0  0  0  0
    7.3842  -14.0262   20.4642 C   0  0  0  0  0  0  0  0  0  0  0  0
    6.9423  -14.0300   19.0371 C   0  0  0  0  0  0  0  0  0  0  0  0
    7.8991  -13.4598   18.0454 C   0  0  0  0  0  0  0  0  0  0  0  0
    7.1587  -13.5259   16.6839 C   0  0  0  0  0  0  0  0  0  0  0  0
    8.0414  -12.9460   15.7170 N   0  0  0  0  0  0  0  0  0  0  0  0
    8.8541  -15.1494   22.1129 C   0  0  0  0  0  0  0  0  0  0  0  0
    9.7322  -14.2617   22.1925 O   0  0  0  0  0  0  0  0  0  0  0  0
    8.6474  -16.0011   23.2214 N   0  0  0  0  0  0  0  0  0  0  0  0
    9.3736  -15.9899   24.4406 C   0  0  1  0  0  0  0  0  0  0  0  0
    8.5599  -16.1724   25.7105 C   0  0  0  0  0  0  0  0  0  0  0  0
    7.4438  -15.2597   25.8696 C   0  0  0  0  0  0  0  0  0  0  0  0
    6.1107  -15.4501   25.7468 C   0  0  0  0  0  0  0  0  0  0  0  0
    5.4266  -14.2958   25.9973 N   0  0  0  0  0  0  0  0  0  0  0  0
    6.3405  -13.3633   26.2829 C   0  0  0  0  0  0  0  0  0  0  0  0
    6.2272  -12.0207   26.6160 C   0  0  0  0  0  0  0  0  0  0  0  0
    7.3202  -11.2280   26.8800 C   0  0  0  0  0  0  0  0  0  0  0  0
    8.5739  -11.7952   26.8094 C   0  0  0  0  0  0  0  0  0  0  0  0
    8.7042  -13.1324   26.4785 C   0  0  0  0  0  0  0  0  0  0  0  0
    7.5988  -13.9090   26.2175 C   0  0  0  0  0  0  0  0  0  0  0  0
   10.4918  -16.9536   24.5032 C   0  0  0  0  0  0  0  0  0  0  0  0
   10.2116  -18.1545   24.2068 O   0  0  0  0  0  0  0  0  0  0  0  0
   11.8025  -16.6383   24.8581 N   0  0  0  0  0  0  0  0  0  0  0  0
   12.7816  -17.7238   24.9738 C   0  0  1  0  0  0  0  0  0  0  0  0
   14.1808  -17.1537   24.8786 C   0  0  0  0  0  0  0  0  0  0  0  0
   14.8939  -17.6415   23.6498 C   0  0  0  0  0  0  0  0  0  0  0  0
   15.6102  -16.5103   22.9734 C   0  0  0  0  0  0  0  0  0  0  0  0
   16.4310  -15.8028   23.5717 O   0  0  0  0  0  0  0  0  0  0  0  0
   12.5138  -18.3908   26.2596 C   0  0  0  0  0  0  0  0  0  0  0  0
   12.9602  -19.6666   26.5283 O   0  0  0  0  0  0  0  0  0  0  0  0
   15.3281  -16.2711   21.6426 O   0  0  0  0  0  0  0  0  0  0  0  0
   11.8613  -17.7932   27.1419 O   0  0  0  0  0  0  0  0  0  0  0  0
  2  1  1  1
  2  3  1  0
  3  4  1  0
  4  5  1  0
  5  6  1  0
  6  7  1  0
  8  2  1  0
  8  9  2  0
 10  8  1  0
 11 10  1  0
 11 12  1  1
 13 12  1  0
 13 14  2  0
 15 14  1  0
 16 15  1  0
 17 16  2  0
 18 17  1  0
 19 18  2  0
 19 20  1  0
 20 21  2  0
 21 16  1  0
 21 13  1  0
 22 11  1  0
 23 22  2  0
 24 22  1  0
 25 24  1  0
 25 26  1  1
 26 27  1  0
 27 28  1  0
 28 29  2  0
 28 32  1  0
 30 31  1  0
 30 25  1  0
 33 30  2  0
M  END
$$$$
