KWE.pdb
     RDKit          3D

 33 34  0  0  1  0  0  0  0  0999 V2000
    7.6939  -16.7880   19.9757 N   0  0  0  0  0  0  0  0  0  0  0  0
    8.7490  -15.8147   20.0390 C   0  0  1  0  0  0  0  0  0  0  0  0
    8.3801  -14.5712   19.3386 C   0  0  0  0  0  0  0  0  0  0  0  0
    8.1720  -14.7763   17.8735 C   0  0  0  0  0  0  0  0  0  0  0  0
    8.0206  -13.5444   17.0466 C   0  0  0  0  0  0  0  0  0  0  0  0
    7.6838  -14.0528   15.6203 C   0  0  0  0  0  0  0  0  0  0  0  0
    7.4185  -12.8885   14.8301 N   0  0  0  0  0  0  0  0  0  0  0  0
    9.1484  -15.5889   21.4632 C   0  0  0  0  0  0  0  0  0  0  0  0
   10.1049  -14.8230   21.7163 O   0  0  0  0  0  0  0  0  0  0  0  0
    8.4778  -16.2155   22.5377 N   0  0  0  0  0  0  0  0  0  0  0  0
    8.8162  -16.1221   23.9127 C   0  0  1  0  0  0  0  0  0  0  0  0
    7.6770  -16.3071   24.9005 C   0  0  0  0  0  0  0  0  0  0  0  0
    7.0105  -15.0874   25.3156 C   0  0  0  0  0  0  0  0  0  0  0  0
    5.7471  -14.6486   25.1167 C   0  0  0  0  0  0  0  0  0  0  0  0
    5.5546  -13.4302   25.7011 N   0  0  0  0  0  0  0  0  0  0  0  0
    6.7128  -13.0950   26.2778 C   0  0  0  0  0  0  0  0  0  0  0  0
    7.0998  -11.9805   27.0091 C   0  0  0  0  0  0  0  0  0  0  0  0
    8.3670  -11.8363   27.5250 C   0  0  0  0  0  0  0  0  0  0  0  0
    9.2833  -12.8412   27.3035 C   0  0  0  0  0  0  0  0  0  0  0  0
    8.9135  -13.9587   26.5764 C   0  0  0  0  0  0  0  0  0  0  0  0
    7.6411  -14.0847   26.0681 C   0  0  0  0  0  0  0  0  0  0  0  0
    9.9092  -17.0183   24.3428 C   0  0  0  0  0  0  0  0  0  0  0  0
    9.8607  -18.2080   23.9059 O   0  0  0  0  0  0  0  0  0  0  0  0
   10.9644  -16.6523   25.1770 N   0  0  0  0  0  0  0  0  0  0  0  0
   12.0350  -17.6229   25.4260 C   0  0  1  0  0  0  0  0  0  0  0  0
   13.3651  -17.0211   25.0251 C   0  0  0  0  0  0  0  0  0  0  0  0
   14.5062  -17.9488   25.3315 C   0  0  0  0  0  0  0  0  0  0  0  0
   15.8093  -17.3369   24.9097 C   0  0  0  0  0  0  0  0  0  0  0  0
   15.8682  -16.2193   24.3807 O   0  0  0  0  0  0  0  0  0  0  0  0
   11.9618  -17.9659   26.8567 C   0  0  0  0  0  0  0  0  0  0  0  0
   12.6527  -19.0327   27.3890 O   0  0  0  0  0  0  0  0  0  0  0  0
   16.9641  -18.0622   25.1289 O   0  0  0  0  0  0  0  0  0  0  0  0
   11.2534  -17.2773   27.6219 O   0  0  0  0  0  0  0  0  0  0  0  0
  2  1  1  1
  2  3  1  0
  3  4  1  0
  4  5  1  0
  5  6  1  0
  6  7  1  0
  8  2  1  0
  8  9  2  0
 10  8  1  0
 11 10  1  0
 11 12  1  1
 13 12  1  0
 13 14  2  0
 15 14  1  0
 16 15  1  0
 17 16  2  0
 18 17  1  0
 19 18  2  0
 19 20  1  0
 20 21  2  0
 21 16  1  0
 21 13  1  0
 22 11  1  0
 23 22  2  0
 24 22  1  0
 25 24  1  0
 25 26  1  1
 26 27  1  0
 27 28  1  0
 28 29  2  0
 28 32  1  0
 30 31  1  0
 30 25  1  0
 33 30  2  0
M  END
$$$$
