KWE.pdb
     RDKit          3D

 33 34  0  0  1  0  0  0  0  0999 V2000
    7.5922  -16.7369   21.0146 N   0  0  0  0  0  0  0  0  0  0  0  0
    8.7191  -15.8455   21.0084 C   0  0  1  0  0  0  0  0  0  0  0  0
    8.3550  -14.5174   20.4823 C   0  0  0  0  0  0  0  0  0  0  0  0
    7.8716  -14.5709   19.0698 C   0  0  0  0  0  0  0  0  0  0  0  0
    8.2309  -13.4126   18.2018 C   0  0  0  0  0  0  0  0  0  0  0  0
    7.5776  -13.7176   16.8283 C   0  0  0  0  0  0  0  0  0  0  0  0
    7.9664  -12.6536   15.9525 N   0  0  0  0  0  0  0  0  0  0  0  0
    9.3303  -15.7881   22.3729 C   0  0  0  0  0  0  0  0  0  0  0  0
   10.3366  -15.0692   22.5629 O   0  0  0  0  0  0  0  0  0  0  0  0
    8.8061  -16.5230   23.4600 N   0  0  0  0  0  0  0  0  0  0  0  0
    9.3192  -16.5541   24.7829 C   0  0  1  0  0  0  0  0  0  0  0  0
    8.2979  -16.4587   25.9035 C   0  0  0  0  0  0  0  0  0  0  0  0
    7.3429  -15.3735   25.7828 C   0  0  0  0  0  0  0  0  0  0  0  0
    6.0564  -15.3589   25.3667 C   0  0  0  0  0  0  0  0  0  0  0  0
    5.5372  -14.0979   25.4265 N   0  0  0  0  0  0  0  0  0  0  0  0
    6.5094  -13.3049   25.8873 C   0  0  0  0  0  0  0  0  0  0  0  0
    6.5524  -11.9431   26.1517 C   0  0  0  0  0  0  0  0  0  0  0  0
    7.6782  -11.3174   26.6355 C   0  0  0  0  0  0  0  0  0  0  0  0
    8.8038  -12.0782   26.8646 C   0  0  0  0  0  0  0  0  0  0  0  0
    8.7775  -13.4373   26.6061 C   0  0  0  0  0  0  0  0  0  0  0  0
    7.6420  -14.0450   26.1220 C   0  0  0  0  0  0  0  0  0  0  0  0
   10.1822  -17.7147   25.0842 C   0  0  0  0  0  0  0  0  0  0  0  0
    9.6834  -18.8573   24.8513 O   0  0  0  0  0  0  0  0  0  0  0  0
   11.4769  -17.6393   25.5955 N   0  0  0  0  0  0  0  0  0  0  0  0
   12.2160  -18.8843   25.8284 C   0  0  1  0  0  0  0  0  0  0  0  0
   13.6866  -18.6579   25.5491 C   0  0  0  0  0  0  0  0  0  0  0  0
   14.4992  -19.8888   25.8342 C   0  0  0  0  0  0  0  0  0  0  0  0
   15.9566  -19.6234   25.5978 C   0  0  0  0  0  0  0  0  0  0  0  0
   16.6419  -18.9703   26.3953 O   0  0  0  0  0  0  0  0  0  0  0  0
   11.9444  -19.2753   27.2224 C   0  0  0  0  0  0  0  0  0  0  0  0
   12.1374  -20.5639   27.6710 O   0  0  0  0  0  0  0  0  0  0  0  0
   16.5277  -20.1338   24.4485 O   0  0  0  0  0  0  0  0  0  0  0  0
   11.5239  -18.4224   28.0329 O   0  0  0  0  0  0  0  0  0  0  0  0
  2  1  1  1
  2  3  1  0
  3  4  1  0
  4  5  1  0
  5  6  1  0
  6  7  1  0
  8  2  1  0
  8  9  2  0
 10  8  1  0
 11 10  1  0
 11 12  1  1
 13 12  1  0
 13 14  2  0
 15 14  1  0
 16 15  1  0
 17 16  2  0
 18 17  1  0
 19 18  2  0
 19 20  1  0
 20 21  2  0
 21 16  1  0
 21 13  1  0
 22 11  1  0
 23 22  2  0
 24 22  1  0
 25 24  1  0
 25 26  1  1
 26 27  1  0
 27 28  1  0
 28 29  2  0
 28 32  1  0
 30 31  1  0
 30 25  1  0
 33 30  2  0
M  END
$$$$
