KWE.pdb
     RDKit          3D

 33 34  0  0  1  0  0  0  0  0999 V2000
    7.9082  -16.5273   19.1042 N   0  0  0  0  0  0  0  0  0  0  0  0
    9.0149  -15.6373   19.3228 C   0  0  1  0  0  0  0  0  0  0  0  0
    8.8980  -14.4178   18.5027 C   0  0  0  0  0  0  0  0  0  0  0  0
    8.4147  -14.7002   17.1176 C   0  0  0  0  0  0  0  0  0  0  0  0
    8.3487  -13.5358   16.1882 C   0  0  0  0  0  0  0  0  0  0  0  0
    7.8518  -14.1210   14.8403 C   0  0  0  0  0  0  0  0  0  0  0  0
    7.7557  -13.0172   13.9332 N   0  0  0  0  0  0  0  0  0  0  0  0
    9.1557  -15.3495   20.7844 C   0  0  0  0  0  0  0  0  0  0  0  0
   10.1936  -14.7880   21.2001 O   0  0  0  0  0  0  0  0  0  0  0  0
    8.1502  -15.6930   21.7158 N   0  0  0  0  0  0  0  0  0  0  0  0
    8.2067  -15.5142   23.1225 C   0  0  1  0  0  0  0  0  0  0  0  0
    6.8784  -15.5455   23.8591 C   0  0  0  0  0  0  0  0  0  0  0  0
    6.9144  -15.0602   25.2256 C   0  0  0  0  0  0  0  0  0  0  0  0
    6.9777  -15.7185   26.4051 C   0  0  0  0  0  0  0  0  0  0  0  0
    6.9976  -14.8440   27.4529 N   0  0  0  0  0  0  0  0  0  0  0  0
    6.9467  -13.6159   26.9278 C   0  0  0  0  0  0  0  0  0  0  0  0
    6.9415  -12.3552   27.5084 C   0  0  0  0  0  0  0  0  0  0  0  0
    6.8869  -11.1980   26.7663 C   0  0  0  0  0  0  0  0  0  0  0  0
    6.8355  -11.3014   25.3933 C   0  0  0  0  0  0  0  0  0  0  0  0
    6.8398  -12.5508   24.7988 C   0  0  0  0  0  0  0  0  0  0  0  0
    6.8945  -13.6970   25.5581 C   0  0  0  0  0  0  0  0  0  0  0  0
    9.1126  -16.4439   23.8281 C   0  0  0  0  0  0  0  0  0  0  0  0
    8.8520  -17.6789   23.7051 O   0  0  0  0  0  0  0  0  0  0  0  0
   10.2080  -16.0629   24.6015 N   0  0  0  0  0  0  0  0  0  0  0  0
   11.1164  -17.1022   25.0967 C   0  0  1  0  0  0  0  0  0  0  0  0
   12.5451  -16.7194   24.7742 C   0  0  0  0  0  0  0  0  0  0  0  0
   12.8135  -16.7798   23.2974 C   0  0  0  0  0  0  0  0  0  0  0  0
   14.2068  -16.3124   22.9965 C   0  0  0  0  0  0  0  0  0  0  0  0
   14.9927  -15.9744   23.8912 O   0  0  0  0  0  0  0  0  0  0  0  0
   10.8613  -17.2239   26.5424 C   0  0  0  0  0  0  0  0  0  0  0  0
    9.9057  -16.4651   27.1827 O   0  0  0  0  0  0  0  0  0  0  0  0
   14.6010  -16.2668   21.6735 O   0  0  0  0  0  0  0  0  0  0  0  0
   11.5264  -18.0353   27.2212 O   0  0  0  0  0  0  0  0  0  0  0  0
  2  1  1  1
  2  3  1  0
  3  4  1  0
  4  5  1  0
  5  6  1  0
  6  7  1  0
  8  2  1  0
  8  9  2  0
 10  8  1  0
 11 10  1  0
 11 12  1  1
 13 12  1  0
 13 14  2  0
 15 14  1  0
 16 15  1  0
 17 16  2  0
 18 17  1  0
 19 18  2  0
 19 20  1  0
 20 21  2  0
 21 16  1  0
 21 13  1  0
 22 11  1  0
 23 22  2  0
 24 22  1  0
 25 24  1  0
 25 26  1  1
 26 27  1  0
 27 28  1  0
 28 29  2  0
 28 32  1  0
 30 31  1  0
 30 25  1  0
 33 30  2  0
M  END
$$$$
