KWE.pdb
     RDKit          3D

 33 34  0  0  1  0  0  0  0  0999 V2000
    6.9699  -16.4139   20.9233 N   0  0  0  0  0  0  0  0  0  0  0  0
    8.1217  -15.6230   20.5879 C   0  0  1  0  0  0  0  0  0  0  0  0
    7.7368  -14.3511   19.9498 C   0  0  0  0  0  0  0  0  0  0  0  0
    7.4971  -14.4933   18.4820 C   0  0  0  0  0  0  0  0  0  0  0  0
    7.7459  -13.2814   17.6493 C   0  0  0  0  0  0  0  0  0  0  0  0
    7.4321  -13.7182   16.1943 C   0  0  0  0  0  0  0  0  0  0  0  0
    7.5917  -12.5511   15.3802 N   0  0  0  0  0  0  0  0  0  0  0  0
    8.9804  -15.4351   21.7987 C   0  0  0  0  0  0  0  0  0  0  0  0
   10.0095  -14.7284   21.7153 O   0  0  0  0  0  0  0  0  0  0  0  0
    8.6661  -16.0327   23.0400 N   0  0  0  0  0  0  0  0  0  0  0  0
    9.4361  -15.9606   24.2299 C   0  0  1  0  0  0  0  0  0  0  0  0
    8.6741  -16.1139   25.5352 C   0  0  0  0  0  0  0  0  0  0  0  0
    7.5093  -15.2614   25.6784 C   0  0  0  0  0  0  0  0  0  0  0  0
    6.1873  -15.5388   25.6170 C   0  0  0  0  0  0  0  0  0  0  0  0
    5.4414  -14.4138   25.8203 N   0  0  0  0  0  0  0  0  0  0  0  0
    6.3046  -13.4118   26.0133 C   0  0  0  0  0  0  0  0  0  0  0  0
    6.1191  -12.0597   26.2661 C   0  0  0  0  0  0  0  0  0  0  0  0
    7.1689  -11.1876   26.4396 C   0  0  0  0  0  0  0  0  0  0  0  0
    8.4524  -11.6821   26.3582 C   0  0  0  0  0  0  0  0  0  0  0  0
    8.6545  -13.0276   26.1067 C   0  0  0  0  0  0  0  0  0  0  0  0
    7.5915  -13.8842   25.9355 C   0  0  0  0  0  0  0  0  0  0  0  0
   10.5780  -16.8964   24.2852 C   0  0  0  0  0  0  0  0  0  0  0  0
   10.4132  -18.0135   23.7079 O   0  0  0  0  0  0  0  0  0  0  0  0
   11.7950  -16.6394   24.9147 N   0  0  0  0  0  0  0  0  0  0  0  0
   12.8907  -17.5996   24.7485 C   0  0  1  0  0  0  0  0  0  0  0  0
   14.0833  -16.9023   24.1292 C   0  0  0  0  0  0  0  0  0  0  0  0
   15.2808  -17.8071   24.0653 C   0  0  0  0  0  0  0  0  0  0  0  0
   16.4636  -17.0752   23.5037 C   0  0  0  0  0  0  0  0  0  0  0  0
   17.0324  -16.1707   24.1288 O   0  0  0  0  0  0  0  0  0  0  0  0
   13.1706  -18.1478   26.0868 C   0  0  0  0  0  0  0  0  0  0  0  0
   13.9938  -19.2371   26.2732 O   0  0  0  0  0  0  0  0  0  0  0  0
   16.9127  -17.4400   22.2495 O   0  0  0  0  0  0  0  0  0  0  0  0
   12.6503  -17.6193   27.0925 O   0  0  0  0  0  0  0  0  0  0  0  0
  2  1  1  1
  2  3  1  0
  3  4  1  0
  4  5  1  0
  5  6  1  0
  6  7  1  0
  8  2  1  0
  8  9  2  0
 10  8  1  0
 11 10  1  0
 11 12  1  1
 13 12  1  0
 13 14  2  0
 15 14  1  0
 16 15  1  0
 17 16  2  0
 18 17  1  0
 19 18  2  0
 19 20  1  0
 20 21  2  0
 21 16  1  0
 21 13  1  0
 22 11  1  0
 23 22  2  0
 24 22  1  0
 25 24  1  0
 25 26  1  1
 26 27  1  0
 27 28  1  0
 28 29  2  0
 28 32  1  0
 30 31  1  0
 30 25  1  0
 33 30  2  0
M  END
$$$$
