KWE.pdb
     RDKit          3D

 33 34  0  0  1  0  0  0  0  0999 V2000
    6.3524  -16.2685   20.8860 N   0  0  0  0  0  0  0  0  0  0  0  0
    7.7719  -16.1306   20.7110 C   0  0  1  0  0  0  0  0  0  0  0  0
    8.0934  -15.2463   19.5762 C   0  0  0  0  0  0  0  0  0  0  0  0
    7.7269  -15.8460   18.2579 C   0  0  0  0  0  0  0  0  0  0  0  0
    8.5795  -15.4635   17.0957 C   0  0  0  0  0  0  0  0  0  0  0  0
    7.8944  -16.1068   15.8616 C   0  0  0  0  0  0  0  0  0  0  0  0
    8.6164  -15.6455   14.7142 N   0  0  0  0  0  0  0  0  0  0  0  0
    8.4026  -15.6901   21.9944 C   0  0  0  0  0  0  0  0  0  0  0  0
    8.6264  -14.4732   22.1801 O   0  0  0  0  0  0  0  0  0  0  0  0
    8.7559  -16.6078   23.0092 N   0  0  0  0  0  0  0  0  0  0  0  0
    9.4548  -16.3117   24.2083 C   0  0  1  0  0  0  0  0  0  0  0  0
    8.6429  -16.3642   25.4912 C   0  0  0  0  0  0  0  0  0  0  0  0
    7.4757  -15.5034   25.5233 C   0  0  0  0  0  0  0  0  0  0  0  0
    6.1724  -15.7570   25.2670 C   0  0  0  0  0  0  0  0  0  0  0  0
    5.4141  -14.6340   25.4311 N   0  0  0  0  0  0  0  0  0  0  0  0
    6.2502  -13.6574   25.7967 C   0  0  0  0  0  0  0  0  0  0  0  0
    6.0419  -12.3189   26.0989 C   0  0  0  0  0  0  0  0  0  0  0  0
    7.0645  -11.4737   26.4632 C   0  0  0  0  0  0  0  0  0  0  0  0
    8.3434  -11.9822   26.5287 C   0  0  0  0  0  0  0  0  0  0  0  0
    8.5681  -13.3145   26.2304 C   0  0  0  0  0  0  0  0  0  0  0  0
    7.5321  -14.1442   25.8676 C   0  0  0  0  0  0  0  0  0  0  0  0
   10.6686  -17.1234   24.4331 C   0  0  0  0  0  0  0  0  0  0  0  0
   10.4814  -18.3566   24.6625 O   0  0  0  0  0  0  0  0  0  0  0  0
   11.9743  -16.6356   24.4108 N   0  0  0  0  0  0  0  0  0  0  0  0
   13.0761  -17.5581   24.7030 C   0  0  1  0  0  0  0  0  0  0  0  0
   14.3892  -16.9183   24.3051 C   0  0  0  0  0  0  0  0  0  0  0  0
   14.3954  -16.5248   22.8554 C   0  0  0  0  0  0  0  0  0  0  0  0
   15.7062  -15.8954   22.4868 C   0  0  0  0  0  0  0  0  0  0  0  0
   15.7778  -14.7431   22.0401 O   0  0  0  0  0  0  0  0  0  0  0  0
   12.9928  -17.8639   26.1416 C   0  0  0  0  0  0  0  0  0  0  0  0
   13.7152  -18.8881   26.7144 O   0  0  0  0  0  0  0  0  0  0  0  0
   16.8536  -16.6445   22.6603 O   0  0  0  0  0  0  0  0  0  0  0  0
   12.2465  -17.1822   26.8762 O   0  0  0  0  0  0  0  0  0  0  0  0
  2  1  1  1
  2  3  1  0
  3  4  1  0
  4  5  1  0
  5  6  1  0
  6  7  1  0
  8  2  1  0
  8  9  2  0
 10  8  1  0
 11 10  1  0
 11 12  1  1
 13 12  1  0
 13 14  2  0
 15 14  1  0
 16 15  1  0
 17 16  2  0
 18 17  1  0
 19 18  2  0
 19 20  1  0
 20 21  2  0
 21 16  1  0
 21 13  1  0
 22 11  1  0
 23 22  2  0
 24 22  1  0
 25 24  1  0
 25 26  1  1
 26 27  1  0
 27 28  1  0
 28 29  2  0
 28 32  1  0
 30 31  1  0
 30 25  1  0
 33 30  2  0
M  END
$$$$
