KWE.pdb
     RDKit          3D

 33 34  0  0  1  0  0  0  0  0999 V2000
   10.4908  -16.7074   18.5874 N   0  0  0  0  0  0  0  0  0  0  0  0
    9.6744  -15.7495   19.2806 C   0  0  1  0  0  0  0  0  0  0  0  0
    8.2490  -15.9059   18.9387 C   0  0  0  0  0  0  0  0  0  0  0  0
    8.0073  -15.9017   17.4644 C   0  0  0  0  0  0  0  0  0  0  0  0
    8.4290  -14.6759   16.7271 C   0  0  0  0  0  0  0  0  0  0  0  0
    7.9896  -14.9152   15.2587 C   0  0  0  0  0  0  0  0  0  0  0  0
    8.4258  -13.7710   14.5165 N   0  0  0  0  0  0  0  0  0  0  0  0
    9.9364  -15.8273   20.7517 C   0  0  0  0  0  0  0  0  0  0  0  0
   10.4982  -16.8423   21.2203 O   0  0  0  0  0  0  0  0  0  0  0  0
    9.5682  -14.7869   21.6342 N   0  0  0  0  0  0  0  0  0  0  0  0
    8.9453  -14.9360   22.9006 C   0  0  1  0  0  0  0  0  0  0  0  0
    7.4611  -14.6179   22.9625 C   0  0  0  0  0  0  0  0  0  0  0  0
    6.8951  -14.5518   24.2964 C   0  0  0  0  0  0  0  0  0  0  0  0
    6.3337  -15.5035   25.0759 C   0  0  0  0  0  0  0  0  0  0  0  0
    5.9402  -14.9840   26.2753 N   0  0  0  0  0  0  0  0  0  0  0  0
    6.2580  -13.6860   26.2532 C   0  0  0  0  0  0  0  0  0  0  0  0
    6.0987  -12.6730   27.1886 C   0  0  0  0  0  0  0  0  0  0  0  0
    6.5087  -11.3802   26.9578 C   0  0  0  0  0  0  0  0  0  0  0  0
    7.1001  -11.0859   25.7486 C   0  0  0  0  0  0  0  0  0  0  0  0
    7.2663  -12.0844   24.8052 C   0  0  0  0  0  0  0  0  0  0  0  0
    6.8493  -13.3717   25.0545 C   0  0  0  0  0  0  0  0  0  0  0  0
    9.1284  -16.2611   23.5277 C   0  0  0  0  0  0  0  0  0  0  0  0
    8.8898  -17.2655   22.7909 O   0  0  0  0  0  0  0  0  0  0  0  0
    9.5358  -16.4757   24.8434 N   0  0  0  0  0  0  0  0  0  0  0  0
   10.7043  -17.3269   25.0893 C   0  0  1  0  0  0  0  0  0  0  0  0
   11.9371  -16.6741   24.5010 C   0  0  0  0  0  0  0  0  0  0  0  0
   13.1881  -17.4158   24.8770 C   0  0  0  0  0  0  0  0  0  0  0  0
   14.1359  -17.4713   23.7156 C   0  0  0  0  0  0  0  0  0  0  0  0
   14.6285  -16.4486   23.2218 O   0  0  0  0  0  0  0  0  0  0  0  0
   10.7863  -17.5104   26.5486 C   0  0  0  0  0  0  0  0  0  0  0  0
    9.9426  -16.8520   27.4168 O   0  0  0  0  0  0  0  0  0  0  0  0
   14.4530  -18.7126   23.1996 O   0  0  0  0  0  0  0  0  0  0  0  0
   11.6440  -18.2828   27.0272 O   0  0  0  0  0  0  0  0  0  0  0  0
  2  1  1  6
  2  3  1  0
  3  4  1  0
  4  5  1  0
  5  6  1  0
  6  7  1  0
  8  2  1  0
  8  9  2  0
 10  8  1  0
 11 10  1  0
 11 12  1  6
 13 12  1  0
 13 14  2  0
 15 14  1  0
 16 15  1  0
 17 16  2  0
 18 17  1  0
 19 18  2  0
 19 20  1  0
 20 21  2  0
 21 16  1  0
 21 13  1  0
 22 11  1  0
 23 22  2  0
 24 22  1  0
 25 24  1  0
 25 26  1  1
 26 27  1  0
 27 28  1  0
 28 29  2  0
 28 32  1  0
 30 31  1  0
 30 25  1  0
 33 30  2  0
M  END
$$$$
