KWE.pdb
     RDKit          3D

 33 34  0  0  1  0  0  0  0  0999 V2000
    8.2451  -16.7423   18.7746 N   0  0  0  0  0  0  0  0  0  0  0  0
    9.2429  -17.3701   19.5962 C   0  0  1  0  0  0  0  0  0  0  0  0
   10.5379  -17.4628   18.8981 C   0  0  0  0  0  0  0  0  0  0  0  0
   10.4659  -18.2965   17.6605 C   0  0  0  0  0  0  0  0  0  0  0  0
   11.7390  -18.4708   16.9036 C   0  0  0  0  0  0  0  0  0  0  0  0
   11.3549  -19.3005   15.6505 C   0  0  0  0  0  0  0  0  0  0  0  0
   12.5546  -19.4495   14.8830 N   0  0  0  0  0  0  0  0  0  0  0  0
    9.3357  -16.6648   20.9126 C   0  0  0  0  0  0  0  0  0  0  0  0
   10.3116  -15.9149   21.1374 O   0  0  0  0  0  0  0  0  0  0  0  0
    8.3525  -16.8186   21.9158 N   0  0  0  0  0  0  0  0  0  0  0  0
    8.3542  -16.2118   23.1986 C   0  0  1  0  0  0  0  0  0  0  0  0
    7.0042  -16.0798   23.8827 C   0  0  0  0  0  0  0  0  0  0  0  0
    7.0142  -15.3620   25.1432 C   0  0  0  0  0  0  0  0  0  0  0  0
    7.1143  -15.7997   26.4187 C   0  0  0  0  0  0  0  0  0  0  0  0
    7.0867  -14.7558   27.2977 N   0  0  0  0  0  0  0  0  0  0  0  0
    6.9680  -13.6429   26.5670 C   0  0  0  0  0  0  0  0  0  0  0  0
    6.8938  -12.3024   26.9188 C   0  0  0  0  0  0  0  0  0  0  0  0
    6.7752  -11.2973   25.9868 C   0  0  0  0  0  0  0  0  0  0  0  0
    6.7289  -11.6415   24.6535 C   0  0  0  0  0  0  0  0  0  0  0  0
    6.8015  -12.9735   24.2861 C   0  0  0  0  0  0  0  0  0  0  0  0
    6.9196  -13.9647   25.2330 C   0  0  0  0  0  0  0  0  0  0  0  0
    9.2731  -16.8324   24.1750 C   0  0  0  0  0  0  0  0  0  0  0  0
    9.1632  -18.0869   24.3264 O   0  0  0  0  0  0  0  0  0  0  0  0
   10.2294  -16.1474   24.9230 N   0  0  0  0  0  0  0  0  0  0  0  0
   11.1968  -16.9212   25.7077 C   0  0  1  0  0  0  0  0  0  0  0  0
   12.5840  -16.3500   25.5041 C   0  0  0  0  0  0  0  0  0  0  0  0
   13.1808  -16.7991   24.2008 C   0  0  0  0  0  0  0  0  0  0  0  0
   14.5442  -16.2023   24.0132 C   0  0  0  0  0  0  0  0  0  0  0  0
   15.4434  -16.3448   24.8519 O   0  0  0  0  0  0  0  0  0  0  0  0
   10.7435  -16.8572   27.1079 C   0  0  0  0  0  0  0  0  0  0  0  0
   11.3866  -17.5414   28.1165 O   0  0  0  0  0  0  0  0  0  0  0  0
   14.7784  -15.4763   22.8618 O   0  0  0  0  0  0  0  0  0  0  0  0
    9.7452  -16.1663   27.4034 O   0  0  0  0  0  0  0  0  0  0  0  0
  2  1  1  6
  2  3  1  0
  3  4  1  0
  4  5  1  0
  5  6  1  0
  6  7  1  0
  8  2  1  0
  8  9  2  0
 10  8  1  0
 11 10  1  0
 11 12  1  1
 13 12  1  0
 13 14  2  0
 15 14  1  0
 16 15  1  0
 17 16  2  0
 18 17  1  0
 19 18  2  0
 19 20  1  0
 20 21  2  0
 21 16  1  0
 21 13  1  0
 22 11  1  0
 23 22  2  0
 24 22  1  0
 25 24  1  0
 25 26  1  1
 26 27  1  0
 27 28  1  0
 28 29  2  0
 28 32  1  0
 30 31  1  0
 30 25  1  0
 33 30  2  0
M  END
$$$$
