KWE.pdb
     RDKit          3D

 33 34  0  0  1  0  0  0  0  0999 V2000
    7.9782  -16.7714   19.0726 N   0  0  0  0  0  0  0  0  0  0  0  0
    8.2557  -17.8553   19.9741 C   0  0  1  0  0  0  0  0  0  0  0  0
    9.1311  -18.8652   19.3520 C   0  0  0  0  0  0  0  0  0  0  0  0
    8.8135  -19.0919   17.9099 C   0  0  0  0  0  0  0  0  0  0  0  0
    9.7114  -20.0267   17.1724 C   0  0  0  0  0  0  0  0  0  0  0  0
    9.1696  -20.0467   15.7190 C   0  0  0  0  0  0  0  0  0  0  0  0
    9.9995  -20.9598   14.9924 N   0  0  0  0  0  0  0  0  0  0  0  0
    8.8002  -17.3204   21.2610 C   0  0  0  0  0  0  0  0  0  0  0  0
    9.7634  -17.9031   21.8071 O   0  0  0  0  0  0  0  0  0  0  0  0
    8.2597  -16.1728   21.8837 N   0  0  0  0  0  0  0  0  0  0  0  0
    8.6664  -15.6154   23.1237 C   0  0  1  0  0  0  0  0  0  0  0  0
    7.8121  -14.4817   23.6648 C   0  0  0  0  0  0  0  0  0  0  0  0
    8.1281  -14.0555   25.0149 C   0  0  0  0  0  0  0  0  0  0  0  0
    9.0340  -14.5158   25.9070 C   0  0  0  0  0  0  0  0  0  0  0  0
    8.9863  -13.7982   27.0672 N   0  0  0  0  0  0  0  0  0  0  0  0
    8.0371  -12.8712   26.9053 C   0  0  0  0  0  0  0  0  0  0  0  0
    7.5595  -11.8726   27.7425 C   0  0  0  0  0  0  0  0  0  0  0  0
    6.5581  -11.0071   27.3671 C   0  0  0  0  0  0  0  0  0  0  0  0
    6.0121  -11.1422   26.1093 C   0  0  0  0  0  0  0  0  0  0  0  0
    6.4769  -12.1327   25.2624 C   0  0  0  0  0  0  0  0  0  0  0  0
    7.4793  -12.9892   25.6561 C   0  0  0  0  0  0  0  0  0  0  0  0
    8.8271  -16.5942   24.2187 C   0  0  0  0  0  0  0  0  0  0  0  0
    7.8313  -17.3458   24.4467 O   0  0  0  0  0  0  0  0  0  0  0  0
    9.9725  -16.7427   24.9992 N   0  0  0  0  0  0  0  0  0  0  0  0
   10.2053  -18.0246   25.6721 C   0  0  1  0  0  0  0  0  0  0  0  0
   11.3728  -18.7331   25.0187 C   0  0  0  0  0  0  0  0  0  0  0  0
   11.6139  -20.0828   25.6324 C   0  0  0  0  0  0  0  0  0  0  0  0
   12.7810  -20.7584   24.9754 C   0  0  0  0  0  0  0  0  0  0  0  0
   12.9369  -21.9858   25.0174 O   0  0  0  0  0  0  0  0  0  0  0  0
   10.4381  -17.7129   27.0929 C   0  0  0  0  0  0  0  0  0  0  0  0
   10.3573  -18.6758   28.0754 O   0  0  0  0  0  0  0  0  0  0  0  0
   13.6953  -19.9655   24.3098 O   0  0  0  0  0  0  0  0  0  0  0  0
   10.7164  -16.5427   27.4314 O   0  0  0  0  0  0  0  0  0  0  0  0
  2  1  1  6
  2  3  1  0
  3  4  1  0
  4  5  1  0
  5  6  1  0
  6  7  1  0
  8  2  1  0
  8  9  2  0
 10  8  1  0
 11 10  1  0
 11 12  1  1
 13 12  1  0
 13 14  2  0
 15 14  1  0
 16 15  1  0
 17 16  2  0
 18 17  1  0
 19 18  2  0
 19 20  1  0
 20 21  2  0
 21 16  1  0
 21 13  1  0
 22 11  1  0
 23 22  2  0
 24 22  1  0
 25 24  1  0
 25 26  1  6
 26 27  1  0
 27 28  1  0
 28 29  2  0
 28 32  1  0
 30 31  1  0
 30 25  1  0
 33 30  2  0
M  END
$$$$
