KWE.pdb
     RDKit          3D

 33 34  0  0  1  0  0  0  0  0999 V2000
    7.7792  -16.4701   18.6017 N   0  0  0  0  0  0  0  0  0  0  0  0
    8.8536  -15.5386   18.8076 C   0  0  1  0  0  0  0  0  0  0  0  0
    8.6722  -14.3173   18.0023 C   0  0  0  0  0  0  0  0  0  0  0  0
    8.1544  -14.6044   16.6307 C   0  0  0  0  0  0  0  0  0  0  0  0
    8.0039  -13.4328   15.7202 C   0  0  0  0  0  0  0  0  0  0  0  0
    7.4733  -14.0216   14.3868 C   0  0  0  0  0  0  0  0  0  0  0  0
    7.3067  -12.9133   13.4955 N   0  0  0  0  0  0  0  0  0  0  0  0
    9.0118  -15.2590   20.2691 C   0  0  0  0  0  0  0  0  0  0  0  0
   10.0324  -14.6562   20.6697 O   0  0  0  0  0  0  0  0  0  0  0  0
    8.0416  -15.6554   21.2169 N   0  0  0  0  0  0  0  0  0  0  0  0
    8.1087  -15.4670   22.6219 C   0  0  1  0  0  0  0  0  0  0  0  0
    6.7893  -15.5254   23.3727 C   0  0  0  0  0  0  0  0  0  0  0  0
    6.8521  -15.1404   24.7698 C   0  0  0  0  0  0  0  0  0  0  0  0
    6.7910  -15.8770   25.9021 C   0  0  0  0  0  0  0  0  0  0  0  0
    6.9004  -15.0843   27.0079 N   0  0  0  0  0  0  0  0  0  0  0  0
    7.0329  -13.8292   26.5677 C   0  0  0  0  0  0  0  0  0  0  0  0
    7.1836  -12.6208   27.2336 C   0  0  0  0  0  0  0  0  0  0  0  0
    7.3091  -11.4210   26.5721 C   0  0  0  0  0  0  0  0  0  0  0  0
    7.2834  -11.4260   25.1945 C   0  0  0  0  0  0  0  0  0  0  0  0
    7.1338  -12.6223   24.5155 C   0  0  0  0  0  0  0  0  0  0  0  0
    7.0094  -13.8123   25.1950 C   0  0  0  0  0  0  0  0  0  0  0  0
    9.0437  -16.3709   23.3230 C   0  0  0  0  0  0  0  0  0  0  0  0
    8.8964  -17.6105   23.0987 O   0  0  0  0  0  0  0  0  0  0  0  0
   10.0524  -15.9618   24.1939 N   0  0  0  0  0  0  0  0  0  0  0  0
   11.1375  -16.8979   24.5046 C   0  0  1  0  0  0  0  0  0  0  0  0
   12.4524  -16.3254   24.0195 C   0  0  0  0  0  0  0  0  0  0  0  0
   13.6041  -17.2334   24.3447 C   0  0  0  0  0  0  0  0  0  0  0  0
   14.8838  -16.6777   23.7938 C   0  0  0  0  0  0  0  0  0  0  0  0
   15.7723  -16.2259   24.5279 O   0  0  0  0  0  0  0  0  0  0  0  0
   11.1002  -17.1099   25.9619 C   0  0  0  0  0  0  0  0  0  0  0  0
   10.2189  -16.4330   26.7768 O   0  0  0  0  0  0  0  0  0  0  0  0
   15.0521  -16.6814   22.4228 O   0  0  0  0  0  0  0  0  0  0  0  0
   11.8880  -17.9245   26.4883 O   0  0  0  0  0  0  0  0  0  0  0  0
  2  1  1  1
  2  3  1  0
  3  4  1  0
  4  5  1  0
  5  6  1  0
  6  7  1  0
  8  2  1  0
  8  9  2  0
 10  8  1  0
 11 10  1  0
 11 12  1  1
 13 12  1  0
 13 14  2  0
 15 14  1  0
 16 15  1  0
 17 16  2  0
 18 17  1  0
 19 18  2  0
 19 20  1  0
 20 21  2  0
 21 16  1  0
 21 13  1  0
 22 11  1  0
 23 22  2  0
 24 22  1  0
 25 24  1  0
 25 26  1  1
 26 27  1  0
 27 28  1  0
 28 29  2  0
 28 32  1  0
 30 31  1  0
 30 25  1  0
 33 30  2  0
M  END
$$$$
