KAY.pdb
     RDKit          3D

 27 27  0  0  1  0  0  0  0  0999 V2000
    7.7073  -18.8113   20.2465 N   0  0  0  0  0  0  0  0  0  0  0  0
    8.9455  -18.1391   19.9168 C   0  0  1  0  0  0  0  0  0  0  0  0
    9.2454  -18.3117   18.4704 C   0  0  0  0  0  0  0  0  0  0  0  0
    9.1087  -19.7464   18.0132 C   0  0  0  0  0  0  0  0  0  0  0  0
   10.3750  -20.2862   17.3926 C   0  0  0  0  0  0  0  0  0  0  0  0
   10.0689  -21.7164   16.9269 C   0  0  0  0  0  0  0  0  0  0  0  0
   11.2913  -22.2492   16.3644 N   0  0  0  0  0  0  0  0  0  0  0  0
    8.9093  -16.7811   20.4159 C   0  0  0  0  0  0  0  0  0  0  0  0
    9.9357  -16.0642   20.3040 O   0  0  0  0  0  0  0  0  0  0  0  0
    6.3766  -14.2319   21.5921 C   0  0  0  0  0  0  0  0  0  0  0  0
    7.7476  -14.8133   21.5164 C   0  0  2  0  0  0  0  0  0  0  0  0
    7.7850  -16.1640   21.0403 N   0  0  0  0  0  0  0  0  0  0  0  0
    8.4677  -14.6749   22.8302 C   0  0  0  0  0  0  0  0  0  0  0  0
    8.7405  -13.5392   23.2907 O   0  0  0  0  0  0  0  0  0  0  0  0
    6.2170  -10.7743   26.9555 O   0  0  0  0  0  0  0  0  0  0  0  0
    6.8059  -12.0069   26.7185 C   0  0  0  0  0  0  0  0  0  0  0  0
    6.0584  -13.1441   26.4458 C   0  0  0  0  0  0  0  0  0  0  0  0
    6.6979  -14.3441   26.2178 C   0  0  0  0  0  0  0  0  0  0  0  0
    8.0697  -14.4716   26.2485 C   0  0  0  0  0  0  0  0  0  0  0  0
    8.7683  -15.7509   26.0156 C   0  0  0  0  0  0  0  0  0  0  0  0
    9.6435  -15.6526   24.8197 C   0  0  2  0  0  0  0  0  0  0  0  0
    8.8574  -15.8114   23.5824 N   0  0  0  0  0  0  0  0  0  0  0  0
   10.6853  -16.6972   24.7793 C   0  0  0  0  0  0  0  0  0  0  0  0
   11.6902  -16.7995   25.7615 O   0  0  0  0  0  0  0  0  0  0  0  0
    8.7935  -13.3333   26.5203 C   0  0  0  0  0  0  0  0  0  0  0  0
    8.1663  -12.1127   26.7530 C   0  0  0  0  0  0  0  0  0  0  0  0
   10.7644  -17.5813   23.8681 O   0  0  0  0  0  0  0  0  0  0  0  0
  2  3  1  0
  2  1  1  6
  4  5  1  0
  4  3  1  0
  6  5  1  0
  7  6  1  0
  8  2  1  0
  9  8  2  0
 11 10  1  1
 11 12  1  0
 12  8  1  0
 13 22  1  0
 13 11  1  0
 14 13  2  0
 16 15  1  0
 17 16  2  0
 18 17  1  0
 19 18  2  0
 19 25  1  0
 21 20  1  1
 20 19  1  0
 21 22  1  0
 23 21  1  0
 24 23  1  0
 25 26  2  0
 26 16  1  0
 27 23  2  0
M  END
$$$$
