KAY.pdb
     RDKit          3D

 27 27  0  0  1  0  0  0  0  0999 V2000
    7.6271  -17.2932   18.9636 N   0  0  0  0  0  0  0  0  0  0  0  0
    8.8610  -17.1561   19.7068 C   0  0  1  0  0  0  0  0  0  0  0  0
    9.4865  -15.8398   19.4103 C   0  0  0  0  0  0  0  0  0  0  0  0
    8.6425  -14.6746   19.8753 C   0  0  0  0  0  0  0  0  0  0  0  0
    9.3127  -13.3401   19.6513 C   0  0  0  0  0  0  0  0  0  0  0  0
    8.2701  -12.2588   19.9673 C   0  0  0  0  0  0  0  0  0  0  0  0
    8.8789  -10.9817   19.6624 N   0  0  0  0  0  0  0  0  0  0  0  0
    8.6260  -17.4651   21.1010 C   0  0  0  0  0  0  0  0  0  0  0  0
    7.4581  -17.3720   21.5563 O   0  0  0  0  0  0  0  0  0  0  0  0
    9.8469  -19.7453   23.6071 C   0  0  0  0  0  0  0  0  0  0  0  0
    9.3669  -18.3558   23.3572 C   0  0  2  0  0  0  0  0  0  0  0  0
    9.6252  -17.8769   22.0319 N   0  0  0  0  0  0  0  0  0  0  0  0
    9.8958  -17.4052   24.3965 C   0  0  0  0  0  0  0  0  0  0  0  0
   10.9775  -16.7956   24.2109 O   0  0  0  0  0  0  0  0  0  0  0  0
    5.5667  -11.8930   24.7142 O   0  0  0  0  0  0  0  0  0  0  0  0
    6.2912  -12.8464   25.4133 C   0  0  0  0  0  0  0  0  0  0  0  0
    5.6995  -13.6914   26.3418 C   0  0  0  0  0  0  0  0  0  0  0  0
    6.4693  -14.6212   27.0079 C   0  0  0  0  0  0  0  0  0  0  0  0
    7.8239  -14.7546   26.7924 C   0  0  0  0  0  0  0  0  0  0  0  0
    8.6628  -15.7389   27.5041 C   0  0  0  0  0  0  0  0  0  0  0  0
    9.7406  -16.2404   26.6137 C   0  0  2  0  0  0  0  0  0  0  0  0
    9.1962  -17.1698   25.6068 N   0  0  0  0  0  0  0  0  0  0  0  0
   10.7863  -16.9887   27.3380 C   0  0  0  0  0  0  0  0  0  0  0  0
   11.7754  -16.3479   28.1102 O   0  0  0  0  0  0  0  0  0  0  0  0
    8.3923  -13.9083   25.8682 C   0  0  0  0  0  0  0  0  0  0  0  0
    7.6319  -12.9632   25.1855 C   0  0  0  0  0  0  0  0  0  0  0  0
   10.8831  -18.2571   27.3275 O   0  0  0  0  0  0  0  0  0  0  0  0
  2  3  1  0
  2  1  1  6
  4  5  1  0
  4  3  1  0
  6  5  1  0
  7  6  1  0
  8  2  1  0
  9  8  2  0
 11 10  1  6
 11 12  1  0
 12  8  1  0
 13 22  1  0
 13 11  1  0
 14 13  2  0
 16 15  1  0
 17 16  2  0
 18 17  1  0
 19 18  2  0
 19 25  1  0
 21 20  1  1
 20 19  1  0
 21 22  1  0
 23 21  1  0
 24 23  1  0
 25 26  2  0
 26 16  1  0
 27 23  2  0
M  END
$$$$
