KAY.pdb
     RDKit          3D

 27 27  0  0  1  0  0  0  0  0999 V2000
    9.3348  -17.5734   16.6873 N   0  0  0  0  0  0  0  0  0  0  0  0
    8.4729  -17.6521   17.8468 C   0  0  1  0  0  0  0  0  0  0  0  0
    8.5205  -19.0235   18.4204 C   0  0  0  0  0  0  0  0  0  0  0  0
    8.0552  -20.0806   17.4446 C   0  0  0  0  0  0  0  0  0  0  0  0
    8.1359  -21.4775   18.0124 C   0  0  0  0  0  0  0  0  0  0  0  0
    7.7244  -22.4397   16.8895 C   0  0  0  0  0  0  0  0  0  0  0  0
    7.6816  -23.7674   17.4642 N   0  0  0  0  0  0  0  0  0  0  0  0
    8.7697  -16.5596   18.7484 C   0  0  0  0  0  0  0  0  0  0  0  0
    9.9435  -16.4267   19.1777 O   0  0  0  0  0  0  0  0  0  0  0  0
    6.9261  -13.7281   20.5240 C   0  0  0  0  0  0  0  0  0  0  0  0
    8.0251  -14.7156   20.3227 C   0  0  2  0  0  0  0  0  0  0  0  0
    7.8266  -15.5929   19.2076 N   0  0  0  0  0  0  0  0  0  0  0  0
    8.2978  -15.4870   21.5854 C   0  0  0  0  0  0  0  0  0  0  0  0
    7.6411  -16.5229   21.8536 O   0  0  0  0  0  0  0  0  0  0  0  0
    6.3999  -11.2662   28.6863 O   0  0  0  0  0  0  0  0  0  0  0  0
    6.7855  -11.8303   27.4799 C   0  0  0  0  0  0  0  0  0  0  0  0
    7.9544  -12.5668   27.3473 C   0  0  0  0  0  0  0  0  0  0  0  0
    8.2882  -13.1049   26.1226 C   0  0  0  0  0  0  0  0  0  0  0  0
    7.5024  -12.9434   25.0020 C   0  0  0  0  0  0  0  0  0  0  0  0
    7.8508  -13.5055   23.6823 C   0  0  0  0  0  0  0  0  0  0  0  0
    8.9163  -14.5308   23.8213 C   0  0  2  0  0  0  0  0  0  0  0  0
    9.2952  -15.0727   22.5035 N   0  0  0  0  0  0  0  0  0  0  0  0
    8.5001  -15.6893   24.6356 C   0  0  0  0  0  0  0  0  0  0  0  0
    8.5285  -17.0084   24.1415 O   0  0  0  0  0  0  0  0  0  0  0  0
    6.3477  -12.2105   25.1533 C   0  0  0  0  0  0  0  0  0  0  0  0
    5.9935  -11.6594   26.3814 C   0  0  0  0  0  0  0  0  0  0  0  0
    8.0862  -15.5976   25.8350 O   0  0  0  0  0  0  0  0  0  0  0  0
  2  3  1  0
  2  1  1  6
  4  5  1  0
  4  3  1  0
  6  5  1  0
  7  6  1  0
  8  2  1  0
  9  8  2  0
 11 10  1  1
 11 12  1  0
 12  8  1  0
 13 22  1  0
 13 11  1  0
 14 13  2  0
 16 15  1  0
 17 16  2  0
 18 17  1  0
 19 18  2  0
 19 25  1  0
 21 20  1  6
 20 19  1  0
 21 22  1  0
 23 21  1  0
 24 23  1  0
 25 26  2  0
 26 16  1  0
 27 23  2  0
M  END
$$$$
