KAY.pdb
     RDKit          3D

 27 27  0  0  1  0  0  0  0  0999 V2000
    7.7335  -18.5273   18.7918 N   0  0  0  0  0  0  0  0  0  0  0  0
    7.2129  -17.8880   19.9809 C   0  0  1  0  0  0  0  0  0  0  0  0
    7.1313  -18.8742   21.0911 C   0  0  0  0  0  0  0  0  0  0  0  0
    6.1695  -20.0037   20.7989 C   0  0  0  0  0  0  0  0  0  0  0  0
    5.9940  -20.9408   21.9698 C   0  0  0  0  0  0  0  0  0  0  0  0
    5.0644  -22.0693   21.5024 C   0  0  0  0  0  0  0  0  0  0  0  0
    5.0630  -23.0750   22.5432 N   0  0  0  0  0  0  0  0  0  0  0  0
    7.9537  -16.6728   20.2437 C   0  0  0  0  0  0  0  0  0  0  0  0
    9.2069  -16.6918   20.1491 O   0  0  0  0  0  0  0  0  0  0  0  0
    7.3233  -12.9816   20.8720 C   0  0  0  0  0  0  0  0  0  0  0  0
    8.1171  -14.2416   20.9477 C   0  0  2  0  0  0  0  0  0  0  0  0
    7.3767  -15.4209   20.6104 N   0  0  0  0  0  0  0  0  0  0  0  0
    8.7874  -14.3796   22.2876 C   0  0  0  0  0  0  0  0  0  0  0  0
    9.5484  -13.4772   22.7153 O   0  0  0  0  0  0  0  0  0  0  0  0
    5.8046  -10.8093   26.9312 O   0  0  0  0  0  0  0  0  0  0  0  0
    6.4071  -12.0094   26.5862 C   0  0  0  0  0  0  0  0  0  0  0  0
    7.7828  -12.1869   26.6321 C   0  0  0  0  0  0  0  0  0  0  0  0
    8.3274  -13.4029   26.2776 C   0  0  0  0  0  0  0  0  0  0  0  0
    7.5570  -14.4711   25.8718 C   0  0  0  0  0  0  0  0  0  0  0  0
    8.1259  -15.7759   25.4805 C   0  0  0  0  0  0  0  0  0  0  0  0
    9.1785  -15.5932   24.4488 C   0  0  2  0  0  0  0  0  0  0  0  0
    8.5831  -15.5218   23.1018 N   0  0  0  0  0  0  0  0  0  0  0  0
   10.1474  -16.7058   24.4093 C   0  0  0  0  0  0  0  0  0  0  0  0
   11.3212  -16.7125   25.1886 O   0  0  0  0  0  0  0  0  0  0  0  0
    6.1955  -14.2759   25.8329 C   0  0  0  0  0  0  0  0  0  0  0  0
    5.6268  -13.0558   26.1871 C   0  0  0  0  0  0  0  0  0  0  0  0
   10.0082  -17.7383   23.6794 O   0  0  0  0  0  0  0  0  0  0  0  0
  2  3  1  0
  2  1  1  6
  4  5  1  0
  4  3  1  0
  6  5  1  0
  7  6  1  0
  8  2  1  0
  9  8  2  0
 11 10  1  1
 11 12  1  0
 12  8  1  0
 13 22  1  0
 13 11  1  0
 14 13  2  0
 16 15  1  0
 17 16  2  0
 18 17  1  0
 19 18  2  0
 19 25  1  0
 21 20  1  1
 20 19  1  0
 21 22  1  0
 23 21  1  0
 24 23  1  0
 25 26  2  0
 26 16  1  0
 27 23  2  0
M  END
$$$$
