KAY.pdb
     RDKit          3D

 27 27  0  0  1  0  0  0  0  0999 V2000
    7.0790  -18.8698   20.5923 N   0  0  0  0  0  0  0  0  0  0  0  0
    8.2939  -18.4724   19.9142 C   0  0  1  0  0  0  0  0  0  0  0  0
    8.1986  -18.8069   18.4682 C   0  0  0  0  0  0  0  0  0  0  0  0
    7.0864  -19.7860   18.1676 C   0  0  0  0  0  0  0  0  0  0  0  0
    6.9472  -20.0792   16.6929 C   0  0  0  0  0  0  0  0  0  0  0  0
    5.6841  -20.9351   16.5256 C   0  0  0  0  0  0  0  0  0  0  0  0
    5.4523  -21.0744   15.1038 N   0  0  0  0  0  0  0  0  0  0  0  0
    8.6084  -17.0990   20.2446 C   0  0  0  0  0  0  0  0  0  0  0  0
    9.7398  -16.6438   19.9404 O   0  0  0  0  0  0  0  0  0  0  0  0
    6.8282  -13.9191   21.1433 C   0  0  0  0  0  0  0  0  0  0  0  0
    8.0211  -14.8131   21.1735 C   0  0  2  0  0  0  0  0  0  0  0  0
    7.7283  -16.1890   20.9020 N   0  0  0  0  0  0  0  0  0  0  0  0
    8.7810  -14.6584   22.4628 C   0  0  0  0  0  0  0  0  0  0  0  0
    9.2207  -13.5356   22.8125 O   0  0  0  0  0  0  0  0  0  0  0  0
    5.5717  -11.3512   26.7205 O   0  0  0  0  0  0  0  0  0  0  0  0
    6.3511  -12.4706   26.4718 C   0  0  0  0  0  0  0  0  0  0  0  0
    5.7997  -13.6875   26.0957 C   0  0  0  0  0  0  0  0  0  0  0  0
    6.6235  -14.7678   25.8611 C   0  0  0  0  0  0  0  0  0  0  0  0
    7.9942  -14.6967   25.9848 C   0  0  0  0  0  0  0  0  0  0  0  0
    8.8884  -15.8466   25.7460 C   0  0  0  0  0  0  0  0  0  0  0  0
    9.7657  -15.5860   24.5762 C   0  0  2  0  0  0  0  0  0  0  0  0
    9.0224  -15.7648   23.3155 N   0  0  0  0  0  0  0  0  0  0  0  0
   10.9197  -16.5033   24.5043 C   0  0  0  0  0  0  0  0  0  0  0  0
   11.9520  -16.4942   25.4632 O   0  0  0  0  0  0  0  0  0  0  0  0
    8.5221  -13.4821   26.3584 C   0  0  0  0  0  0  0  0  0  0  0  0
    7.7070  -12.3798   26.5994 C   0  0  0  0  0  0  0  0  0  0  0  0
   11.0790  -17.3675   23.5846 O   0  0  0  0  0  0  0  0  0  0  0  0
  2  3  1  0
  2  1  1  1
  4  5  1  0
  4  3  1  0
  6  5  1  0
  7  6  1  0
  8  2  1  0
  9  8  2  0
 11 10  1  1
 11 12  1  0
 12  8  1  0
 13 22  1  0
 13 11  1  0
 14 13  2  0
 16 15  1  0
 17 16  2  0
 18 17  1  0
 19 18  2  0
 19 25  1  0
 21 20  1  1
 20 19  1  0
 21 22  1  0
 23 21  1  0
 24 23  1  0
 25 26  2  0
 26 16  1  0
 27 23  2  0
M  END
$$$$
