KAY.pdb
     RDKit          3D

 27 27  0  0  1  0  0  0  0  0999 V2000
    8.7005  -18.3348   18.4670 N   0  0  0  0  0  0  0  0  0  0  0  0
    9.8647  -17.8682   19.1885 C   0  0  1  0  0  0  0  0  0  0  0  0
   10.9932  -17.6540   18.2438 C   0  0  0  0  0  0  0  0  0  0  0  0
   10.9076  -18.5404   17.0218 C   0  0  0  0  0  0  0  0  0  0  0  0
   12.0608  -18.3363   16.0687 C   0  0  0  0  0  0  0  0  0  0  0  0
   11.8011  -19.2390   14.8547 C   0  0  0  0  0  0  0  0  0  0  0  0
   11.4863  -18.3703   13.7408 N   0  0  0  0  0  0  0  0  0  0  0  0
    9.4992  -16.7485   20.0295 C   0  0  0  0  0  0  0  0  0  0  0  0
   10.3892  -16.1890   20.7184 O   0  0  0  0  0  0  0  0  0  0  0  0
    6.3961  -14.7101   20.9138 C   0  0  0  0  0  0  0  0  0  0  0  0
    7.8036  -15.1763   21.0716 C   0  0  2  0  0  0  0  0  0  0  0  0
    8.1855  -16.2064   20.1520 N   0  0  0  0  0  0  0  0  0  0  0  0
    8.0842  -15.5793   22.4938 C   0  0  0  0  0  0  0  0  0  0  0  0
    7.9076  -16.7651   22.8667 O   0  0  0  0  0  0  0  0  0  0  0  0
   11.0771  -15.9171   30.6853 O   0  0  0  0  0  0  0  0  0  0  0  0
   10.6802  -15.4200   29.4533 C   0  0  0  0  0  0  0  0  0  0  0  0
    9.7395  -14.4067   29.3324 C   0  0  0  0  0  0  0  0  0  0  0  0
    9.3825  -13.9512   28.0810 C   0  0  0  0  0  0  0  0  0  0  0  0
    9.9246  -14.4634   26.9222 C   0  0  0  0  0  0  0  0  0  0  0  0
    9.5460  -13.9926   25.5753 C   0  0  0  0  0  0  0  0  0  0  0  0
    8.8406  -15.0668   24.8308 C   0  0  2  0  0  0  0  0  0  0  0  0
    8.5523  -14.6420   23.4486 N   0  0  0  0  0  0  0  0  0  0  0  0
    7.5395  -15.4249   25.4284 C   0  0  0  0  0  0  0  0  0  0  0  0
    7.3940  -16.4931   26.3356 O   0  0  0  0  0  0  0  0  0  0  0  0
   10.8554  -15.4671   27.0624 C   0  0  0  0  0  0  0  0  0  0  0  0
   11.2290  -15.9403   28.3170 C   0  0  0  0  0  0  0  0  0  0  0  0
    6.4544  -14.8094   25.1797 O   0  0  0  0  0  0  0  0  0  0  0  0
  2  3  1  0
  2  1  1  6
  4  5  1  0
  4  3  1  0
  6  5  1  0
  7  6  1  0
  8  2  1  0
  9  8  2  0
 11 10  1  1
 11 12  1  0
 12  8  1  0
 13 22  1  0
 13 11  1  0
 14 13  2  0
 16 15  1  0
 17 16  2  0
 18 17  1  0
 19 18  2  0
 19 25  1  0
 21 20  1  1
 20 19  1  0
 21 22  1  0
 23 21  1  0
 24 23  1  0
 25 26  2  0
 26 16  1  0
 27 23  2  0
M  END
$$$$
