KAY.pdb
     RDKit          3D

 27 27  0  0  1  0  0  0  0  0999 V2000
    5.6976  -17.0227   21.3786 N   0  0  0  0  0  0  0  0  0  0  0  0
    6.8292  -16.1680   21.6661 C   0  0  1  0  0  0  0  0  0  0  0  0
    6.3723  -14.7625   21.8324 C   0  0  0  0  0  0  0  0  0  0  0  0
    7.5065  -13.7663   21.7484 C   0  0  0  0  0  0  0  0  0  0  0  0
    7.8140  -13.3473   20.3306 C   0  0  0  0  0  0  0  0  0  0  0  0
    8.9840  -12.3564   20.4022 C   0  0  0  0  0  0  0  0  0  0  0  0
    9.3457  -12.0293   19.0396 N   0  0  0  0  0  0  0  0  0  0  0  0
    7.6023  -16.7332   22.7512 C   0  0  0  0  0  0  0  0  0  0  0  0
    7.0000  -17.1704   23.7640 O   0  0  0  0  0  0  0  0  0  0  0  0
   10.9897  -18.2088   23.3184 C   0  0  0  0  0  0  0  0  0  0  0  0
    9.7799  -17.4886   23.8096 C   0  0  2  0  0  0  0  0  0  0  0  0
    9.0243  -16.8427   22.7779 N   0  0  0  0  0  0  0  0  0  0  0  0
   10.1321  -16.5290   24.9137 C   0  0  0  0  0  0  0  0  0  0  0  0
   10.7000  -15.4398   24.6541 O   0  0  0  0  0  0  0  0  0  0  0  0
    5.8580  -11.7814   25.4943 O   0  0  0  0  0  0  0  0  0  0  0  0
    6.6440  -12.7214   26.1431 C   0  0  0  0  0  0  0  0  0  0  0  0
    6.3525  -14.0780   26.1122 C   0  0  0  0  0  0  0  0  0  0  0  0
    7.1698  -14.9681   26.7761 C   0  0  0  0  0  0  0  0  0  0  0  0
    8.2834  -14.5682   27.4827 C   0  0  0  0  0  0  0  0  0  0  0  0
    9.1626  -15.5079   28.2059 C   0  0  0  0  0  0  0  0  0  0  0  0
   10.2980  -15.9228   27.3430 C   0  0  2  0  0  0  0  0  0  0  0  0
    9.8368  -16.8215   26.2689 N   0  0  0  0  0  0  0  0  0  0  0  0
   11.3404  -16.6652   28.0780 C   0  0  0  0  0  0  0  0  0  0  0  0
   12.1698  -16.0514   29.0374 O   0  0  0  0  0  0  0  0  0  0  0  0
    8.5560  -13.2196   27.5015 C   0  0  0  0  0  0  0  0  0  0  0  0
    7.7431  -12.3055   26.8374 C   0  0  0  0  0  0  0  0  0  0  0  0
   11.5761  -17.9041   27.9110 O   0  0  0  0  0  0  0  0  0  0  0  0
  2  3  1  0
  2  1  1  1
  4  5  1  0
  4  3  1  0
  6  5  1  0
  7  6  1  0
  8  2  1  0
  9  8  2  0
 11 10  1  6
 11 12  1  0
 12  8  1  0
 13 22  1  0
 13 11  1  0
 14 13  2  0
 16 15  1  0
 17 16  2  0
 18 17  1  0
 19 18  2  0
 19 25  1  0
 21 20  1  1
 20 19  1  0
 21 22  1  0
 23 21  1  0
 24 23  1  0
 25 26  2  0
 26 16  1  0
 27 23  2  0
M  END
$$$$
