KAY.pdb
     RDKit          3D

 27 27  0  0  1  0  0  0  0  0999 V2000
    7.7872  -18.5909   18.0863 N   0  0  0  0  0  0  0  0  0  0  0  0
    8.2765  -18.3043   19.4175 C   0  0  1  0  0  0  0  0  0  0  0  0
    9.2295  -19.3631   19.8451 C   0  0  0  0  0  0  0  0  0  0  0  0
    9.4596  -20.4074   18.7762 C   0  0  0  0  0  0  0  0  0  0  0  0
   10.9159  -20.7752   18.6210 C   0  0  0  0  0  0  0  0  0  0  0  0
   10.9990  -21.7933   17.4753 C   0  0  0  0  0  0  0  0  0  0  0  0
   12.4008  -22.0940   17.2771 N   0  0  0  0  0  0  0  0  0  0  0  0
    8.7521  -16.9387   19.4774 C   0  0  0  0  0  0  0  0  0  0  0  0
    9.9472  -16.7244   19.8022 O   0  0  0  0  0  0  0  0  0  0  0  0
    7.7526  -13.4718   18.3940 C   0  0  0  0  0  0  0  0  0  0  0  0
    8.4221  -14.4289   19.3209 C   0  0  2  0  0  0  0  0  0  0  0  0
    7.9677  -15.7816   19.1939 N   0  0  0  0  0  0  0  0  0  0  0  0
    8.3358  -13.9530   20.7456 C   0  0  0  0  0  0  0  0  0  0  0  0
    7.6412  -12.9498   21.0413 O   0  0  0  0  0  0  0  0  0  0  0  0
    7.1241  -12.0880   28.9008 O   0  0  0  0  0  0  0  0  0  0  0  0
    7.2187  -12.6265   27.6266 C   0  0  0  0  0  0  0  0  0  0  0  0
    7.3834  -13.9872   27.4086 C   0  0  0  0  0  0  0  0  0  0  0  0
    7.4716  -14.4671   26.1191 C   0  0  0  0  0  0  0  0  0  0  0  0
    7.4030  -13.6453   25.0150 C   0  0  0  0  0  0  0  0  0  0  0  0
    7.5048  -14.1430   23.6290 C   0  0  0  0  0  0  0  0  0  0  0  0
    8.9202  -14.1355   23.1790 C   0  0  2  0  0  0  0  0  0  0  0  0
    9.0293  -14.6157   21.7893 N   0  0  0  0  0  0  0  0  0  0  0  0
    9.7870  -15.0167   23.9855 C   0  0  0  0  0  0  0  0  0  0  0  0
   10.0412  -16.3562   23.6301 O   0  0  0  0  0  0  0  0  0  0  0  0
    7.2393  -12.2997   25.2513 C   0  0  0  0  0  0  0  0  0  0  0  0
    7.1481  -11.7960   26.5457 C   0  0  0  0  0  0  0  0  0  0  0  0
   10.3702  -14.6482   25.0543 O   0  0  0  0  0  0  0  0  0  0  0  0
  2  3  1  0
  2  1  1  6
  4  5  1  0
  4  3  1  0
  6  5  1  0
  7  6  1  0
  8  2  1  0
  9  8  2  0
 11 10  1  6
 11 12  1  0
 12  8  1  0
 13 22  1  0
 13 11  1  0
 14 13  2  0
 16 15  1  0
 17 16  2  0
 18 17  1  0
 19 18  2  0
 19 25  1  0
 21 20  1  1
 20 19  1  0
 21 22  1  0
 23 21  1  0
 24 23  1  0
 25 26  2  0
 26 16  1  0
 27 23  2  0
M  END
$$$$
