KAY.pdb
     RDKit          3D

 27 27  0  0  1  0  0  0  0  0999 V2000
    6.8177  -17.0391   21.4447 N   0  0  0  0  0  0  0  0  0  0  0  0
    8.1188  -16.5144   21.7989 C   0  0  1  0  0  0  0  0  0  0  0  0
    8.1317  -15.0369   21.6292 C   0  0  0  0  0  0  0  0  0  0  0  0
    7.9939  -14.6142   20.1841 C   0  0  0  0  0  0  0  0  0  0  0  0
    7.9768  -13.1141   20.0121 C   0  0  0  0  0  0  0  0  0  0  0  0
    7.7689  -12.8391   18.5163 C   0  0  0  0  0  0  0  0  0  0  0  0
    7.6054  -11.4088   18.3676 N   0  0  0  0  0  0  0  0  0  0  0  0
    8.5120  -17.0235   23.0954 C   0  0  0  0  0  0  0  0  0  0  0  0
    7.6192  -17.3714   23.9087 O   0  0  0  0  0  0  0  0  0  0  0  0
   11.3676  -18.6897   24.7441 C   0  0  0  0  0  0  0  0  0  0  0  0
   10.2428  -17.7135   24.8162 C   0  0  2  0  0  0  0  0  0  0  0  0
    9.8568  -17.1708   23.5477 N   0  0  0  0  0  0  0  0  0  0  0  0
   10.5340  -16.6246   25.8127 C   0  0  0  0  0  0  0  0  0  0  0  0
   11.3382  -15.7023   25.5319 O   0  0  0  0  0  0  0  0  0  0  0  0
    6.5306  -12.2170   24.1626 O   0  0  0  0  0  0  0  0  0  0  0  0
    7.1728  -12.8315   25.2267 C   0  0  0  0  0  0  0  0  0  0  0  0
    8.3995  -12.3919   25.7046 C   0  0  0  0  0  0  0  0  0  0  0  0
    8.9922  -13.0418   26.7663 C   0  0  0  0  0  0  0  0  0  0  0  0
    8.4147  -14.1278   27.3878 C   0  0  0  0  0  0  0  0  0  0  0  0
    9.0410  -14.8394   28.5192 C   0  0  0  0  0  0  0  0  0  0  0  0
   10.2596  -15.5586   28.0677 C   0  0  2  0  0  0  0  0  0  0  0  0
    9.9155  -16.6055   27.0881 N   0  0  0  0  0  0  0  0  0  0  0  0
   10.9664  -16.2438   29.1673 C   0  0  0  0  0  0  0  0  0  0  0  0
   11.5883  -15.5412   30.2184 O   0  0  0  0  0  0  0  0  0  0  0  0
    7.1988  -14.5487   26.9000 C   0  0  0  0  0  0  0  0  0  0  0  0
    6.5844  -13.9057   25.8293 C   0  0  0  0  0  0  0  0  0  0  0  0
   11.0731  -17.5080   29.2592 O   0  0  0  0  0  0  0  0  0  0  0  0
  2  3  1  0
  2  1  1  1
  4  5  1  0
  4  3  1  0
  6  5  1  0
  7  6  1  0
  8  2  1  0
  9  8  2  0
 11 10  1  6
 11 12  1  0
 12  8  1  0
 13 22  1  0
 13 11  1  0
 14 13  2  0
 16 15  1  0
 17 16  2  0
 18 17  1  0
 19 18  2  0
 19 25  1  0
 21 20  1  1
 20 19  1  0
 21 22  1  0
 23 21  1  0
 24 23  1  0
 25 26  2  0
 26 16  1  0
 27 23  2  0
M  END
$$$$
