KAY.pdb
     RDKit          3D

 27 27  0  0  1  0  0  0  0  0999 V2000
    9.4908  -18.3092   17.3795 N   0  0  0  0  0  0  0  0  0  0  0  0
    8.4048  -17.5777   17.9952 C   0  0  1  0  0  0  0  0  0  0  0  0
    7.1891  -17.6645   17.1428 C   0  0  0  0  0  0  0  0  0  0  0  0
    7.3980  -18.5200   15.9137 C   0  0  0  0  0  0  0  0  0  0  0  0
    6.1712  -18.5938   15.0364 C   0  0  0  0  0  0  0  0  0  0  0  0
    6.5751  -19.3583   13.7682 C   0  0  0  0  0  0  0  0  0  0  0  0
    5.3734  -19.5394   12.9822 N   0  0  0  0  0  0  0  0  0  0  0  0
    8.2619  -17.9892   19.3753 C   0  0  0  0  0  0  0  0  0  0  0  0
    7.3658  -18.8187   19.6732 O   0  0  0  0  0  0  0  0  0  0  0  0
    9.8750  -19.6923   21.2838 C   0  0  0  0  0  0  0  0  0  0  0  0
    9.4275  -18.3067   21.6054 C   0  0  2  0  0  0  0  0  0  0  0  0
    9.0667  -17.5274   20.4587 N   0  0  0  0  0  0  0  0  0  0  0  0
   10.4434  -17.5934   22.4556 C   0  0  0  0  0  0  0  0  0  0  0  0
   11.1256  -18.2258   23.2987 O   0  0  0  0  0  0  0  0  0  0  0  0
    7.2210  -12.1084   18.7120 O   0  0  0  0  0  0  0  0  0  0  0  0
    7.6228  -12.8249   19.8289 C   0  0  0  0  0  0  0  0  0  0  0  0
    8.9443  -12.8564   20.2519 C   0  0  0  0  0  0  0  0  0  0  0  0
    9.2868  -13.5862   21.3704 C   0  0  0  0  0  0  0  0  0  0  0  0
    8.3629  -14.2999   22.1025 C   0  0  0  0  0  0  0  0  0  0  0  0
    8.7156  -15.0930   23.2965 C   0  0  0  0  0  0  0  0  0  0  0  0
   10.1872  -15.2750   23.3808 C   0  0  2  0  0  0  0  0  0  0  0  0
   10.6605  -16.1979   22.3328 N   0  0  0  0  0  0  0  0  0  0  0  0
   10.6245  -15.8557   24.6652 C   0  0  0  0  0  0  0  0  0  0  0  0
   11.0305  -15.0595   25.7543 O   0  0  0  0  0  0  0  0  0  0  0  0
    7.0581  -14.2563   21.6678 C   0  0  0  0  0  0  0  0  0  0  0  0
    6.6926  -13.5252   20.5411 C   0  0  0  0  0  0  0  0  0  0  0  0
   10.6717  -17.1058   24.8957 O   0  0  0  0  0  0  0  0  0  0  0  0
  2  3  1  0
  2  1  1  6
  4  5  1  0
  4  3  1  0
  6  5  1  0
  7  6  1  0
  8  2  1  0
  9  8  2  0
 11 10  1  6
 11 12  1  0
 12  8  1  0
 13 22  1  0
 13 11  1  0
 14 13  2  0
 16 15  1  0
 17 16  2  0
 18 17  1  0
 19 18  2  0
 19 25  1  0
 21 20  1  1
 20 19  1  0
 21 22  1  0
 23 21  1  0
 24 23  1  0
 25 26  2  0
 26 16  1  0
 27 23  2  0
M  END
$$$$
