KAY.pdb
     RDKit          3D

 27 27  0  0  1  0  0  0  0  0999 V2000
    8.0186  -17.1441   19.9049 N   0  0  0  0  0  0  0  0  0  0  0  0
    8.9226  -16.3068   20.6635 C   0  0  1  0  0  0  0  0  0  0  0  0
    8.5925  -14.8739   20.4403 C   0  0  0  0  0  0  0  0  0  0  0  0
    9.1093  -14.3552   19.1175 C   0  0  0  0  0  0  0  0  0  0  0  0
    8.0420  -13.6654   18.3018 C   0  0  0  0  0  0  0  0  0  0  0  0
    8.6576  -13.3596   16.9294 C   0  0  0  0  0  0  0  0  0  0  0  0
    7.6255  -12.7307   16.1332 N   0  0  0  0  0  0  0  0  0  0  0  0
    8.9653  -16.7578   22.0381 C   0  0  0  0  0  0  0  0  0  0  0  0
    8.0053  -16.4790   22.8000 O   0  0  0  0  0  0  0  0  0  0  0  0
   10.6511  -19.3089   24.1718 C   0  0  0  0  0  0  0  0  0  0  0  0
   10.0669  -17.9495   23.9872 C   0  0  2  0  0  0  0  0  0  0  0  0
   10.0259  -17.5103   22.6241 N   0  0  0  0  0  0  0  0  0  0  0  0
   10.7534  -16.9410   24.8678 C   0  0  0  0  0  0  0  0  0  0  0  0
   11.8603  -16.4520   24.5334 O   0  0  0  0  0  0  0  0  0  0  0  0
    5.2544  -12.7552   26.7304 O   0  0  0  0  0  0  0  0  0  0  0  0
    6.5887  -13.1247   26.6568 C   0  0  0  0  0  0  0  0  0  0  0  0
    7.0825  -13.9136   25.6272 C   0  0  0  0  0  0  0  0  0  0  0  0
    8.4193  -14.2503   25.6049 C   0  0  0  0  0  0  0  0  0  0  0  0
    9.3059  -13.8337   26.5741 C   0  0  0  0  0  0  0  0  0  0  0  0
   10.7376  -14.1934   26.5688 C   0  0  0  0  0  0  0  0  0  0  0  0
   10.9176  -15.6072   26.9868 C   0  0  2  0  0  0  0  0  0  0  0  0
   10.1778  -16.5151   26.0912 N   0  0  0  0  0  0  0  0  0  0  0  0
   10.4141  -15.8753   28.3480 C   0  0  0  0  0  0  0  0  0  0  0  0
   10.9735  -15.2727   29.4921 O   0  0  0  0  0  0  0  0  0  0  0  0
    8.7978  -13.0524   27.5864 C   0  0  0  0  0  0  0  0  0  0  0  0
    7.4513  -12.7017   27.6264 C   0  0  0  0  0  0  0  0  0  0  0  0
    9.4467  -16.6615   28.6012 O   0  0  0  0  0  0  0  0  0  0  0  0
  2  3  1  0
  2  1  1  6
  4  5  1  0
  4  3  1  0
  6  5  1  0
  7  6  1  0
  8  2  1  0
  9  8  2  0
 11 10  1  6
 11 12  1  0
 12  8  1  0
 13 22  1  0
 13 11  1  0
 14 13  2  0
 16 15  1  0
 17 16  2  0
 18 17  1  0
 19 18  2  0
 19 25  1  0
 21 20  1  6
 20 19  1  0
 21 22  1  0
 23 21  1  0
 24 23  1  0
 25 26  2  0
 26 16  1  0
 27 23  2  0
M  END
$$$$
