KAY.pdb
     RDKit          3D

 27 27  0  0  1  0  0  0  0  0999 V2000
    5.0865  -18.2185   22.5562 N   0  0  0  0  0  0  0  0  0  0  0  0
    5.5612  -18.2782   21.1906 C   0  0  1  0  0  0  0  0  0  0  0  0
    4.4904  -17.8265   20.2626 C   0  0  0  0  0  0  0  0  0  0  0  0
    3.6214  -18.9642   19.7761 C   0  0  0  0  0  0  0  0  0  0  0  0
    3.8226  -19.2693   18.3110 C   0  0  0  0  0  0  0  0  0  0  0  0
    2.8344  -20.3865   17.9484 C   0  0  0  0  0  0  0  0  0  0  0  0
    2.9898  -20.6461   16.5331 N   0  0  0  0  0  0  0  0  0  0  0  0
    6.8371  -17.6028   21.0892 C   0  0  0  0  0  0  0  0  0  0  0  0
    7.4340  -17.5927   19.9831 O   0  0  0  0  0  0  0  0  0  0  0  0
    7.2968  -14.5466   21.6053 C   0  0  0  0  0  0  0  0  0  0  0  0
    8.1731  -15.6702   22.0448 C   0  0  2  0  0  0  0  0  0  0  0  0
    7.4981  -16.9287   22.1586 N   0  0  0  0  0  0  0  0  0  0  0  0
    8.9031  -15.3229   23.3137 C   0  0  0  0  0  0  0  0  0  0  0  0
    9.6389  -14.3070   23.3678 O   0  0  0  0  0  0  0  0  0  0  0  0
    6.1567  -10.9594   26.8778 O   0  0  0  0  0  0  0  0  0  0  0  0
    6.8435  -12.1638   26.8631 C   0  0  0  0  0  0  0  0  0  0  0  0
    6.2307  -13.3611   26.5207 C   0  0  0  0  0  0  0  0  0  0  0  0
    6.9632  -14.5291   26.5232 C   0  0  0  0  0  0  0  0  0  0  0  0
    8.3000  -14.5662   26.8561 C   0  0  0  0  0  0  0  0  0  0  0  0
    9.0951  -15.8098   26.8723 C   0  0  0  0  0  0  0  0  0  0  0  0
    9.7725  -16.0081   25.5656 C   0  0  2  0  0  0  0  0  0  0  0  0
    8.7847  -16.1239   24.4771 N   0  0  0  0  0  0  0  0  0  0  0  0
   10.5819  -17.2413   25.5162 C   0  0  0  0  0  0  0  0  0  0  0  0
   10.3318  -18.2718   24.5885 O   0  0  0  0  0  0  0  0  0  0  0  0
    8.8898  -13.3694   27.1925 C   0  0  0  0  0  0  0  0  0  0  0  0
    8.1673  -12.1797   27.1956 C   0  0  0  0  0  0  0  0  0  0  0  0
   11.5600  -17.4761   26.2950 O   0  0  0  0  0  0  0  0  0  0  0  0
  2  3  1  0
  2  1  1  1
  4  5  1  0
  4  3  1  0
  6  5  1  0
  7  6  1  0
  8  2  1  0
  9  8  2  0
 11 10  1  1
 11 12  1  0
 12  8  1  0
 13 22  1  0
 13 11  1  0
 14 13  2  0
 16 15  1  0
 17 16  2  0
 18 17  1  0
 19 18  2  0
 19 25  1  0
 21 20  1  1
 20 19  1  0
 21 22  1  0
 23 21  1  0
 24 23  1  0
 25 26  2  0
 26 16  1  0
 27 23  2  0
M  END
$$$$
