DTH.pdb
     RDKit          3D

 26 26  0  0  1  0  0  0  0  0999 V2000
   18.0335  -12.5356  -16.1807 N   0  0  0  0  0  0  0  0  0  0  0  0
   18.2529  -11.1793  -16.6084 C   0  0  1  0  0  0  0  0  0  0  0  0
   16.8938  -10.4949  -16.6742 C   0  0  0  0  0  0  0  0  0  0  0  0
   16.1196  -11.0763  -17.8001 C   0  0  0  0  0  0  0  0  0  0  0  0
   16.6651  -11.6566  -18.7705 O   0  0  0  0  0  0  0  0  0  0  0  0
   19.1162  -10.4663  -15.6411 C   0  0  0  0  0  0  0  0  0  0  0  0
   18.9696  -10.6730  -14.4087 O   0  0  0  0  0  0  0  0  0  0  0  0
   14.7352  -10.9933  -17.8135 O   0  0  0  0  0  0  0  0  0  0  0  0
   22.3016  -10.6960  -14.3574 C   0  0  0  0  0  0  0  0  0  0  0  0
   22.3151   -9.3534  -15.0416 C   0  0  1  0  0  0  0  0  0  0  0  0
   22.8463   -9.4434  -16.3312 O   0  0  0  0  0  0  0  0  0  0  0  0
   20.8850   -8.7998  -15.0987 C   0  0  2  0  0  0  0  0  0  0  0  0
   20.1080   -9.5527  -16.0691 N   0  0  0  0  0  0  0  0  0  0  0  0
   20.9934   -7.3726  -15.4893 C   0  0  0  0  0  0  0  0  0  0  0  0
   20.9670   -7.0749  -16.6986 O   0  0  0  0  0  0  0  0  0  0  0  0
   21.1269   -6.3177  -14.5502 N   0  0  0  0  0  0  0  0  0  0  0  0
   21.1718   -4.9198  -14.9310 C   0  0  1  0  0  0  0  0  0  0  0  0
   19.8771   -4.2079  -14.6121 C   0  0  0  0  0  0  0  0  0  0  0  0
   18.7438   -4.7540  -15.4163 C   0  0  0  0  0  0  0  0  0  0  0  0
   18.6019   -4.4640  -16.7596 C   0  0  0  0  0  0  0  0  0  0  0  0
   17.4934   -5.1012  -17.1888 N   0  0  0  0  0  0  0  0  0  0  0  0
   16.9606   -5.7673  -16.1474 C   0  0  0  0  0  0  0  0  0  0  0  0
   17.7378   -5.5467  -15.0623 N   0  0  0  0  0  0  0  0  0  0  0  0
   22.3028   -4.2734  -14.2169 C   0  0  0  0  0  0  0  0  0  0  0  0
   22.6143   -2.9319  -14.4290 O   0  0  0  0  0  0  0  0  0  0  0  0
   23.0281   -4.8926  -13.3959 O   0  0  0  0  0  0  0  0  0  0  0  0
  2  3  1  0
  2  1  1  1
  3  4  1  0
  4  8  1  0
  4  5  2  0
  6  2  1  0
  6  7  2  0
 10  9  1  6
 10 12  1  0
 11 10  1  0
 12 13  1  6
 12 14  1  0
 13  6  1  0
 14 16  1  0
 15 14  2  0
 16 17  1  0
 17 24  1  0
 17 18  1  1
 19 18  1  0
 20 19  2  0
 21 22  1  0
 21 20  1  0
 22 23  2  0
 23 19  1  0
 24 26  2  0
 24 25  1  0
M  END
$$$$
