DTH.pdb
     RDKit          3D

 26 26  0  0  1  0  0  0  0  0999 V2000
   21.5602   -3.9368  -17.8137 N   0  0  0  0  0  0  0  0  0  0  0  0
   20.9889   -4.4951  -16.6169 C   0  0  1  0  0  0  0  0  0  0  0  0
   19.6621   -3.7885  -16.3706 C   0  0  0  0  0  0  0  0  0  0  0  0
   19.9350   -2.3852  -15.9692 C   0  0  0  0  0  0  0  0  0  0  0  0
   21.0969   -1.9182  -15.8812 O   0  0  0  0  0  0  0  0  0  0  0  0
   20.7496   -5.9453  -16.7871 C   0  0  0  0  0  0  0  0  0  0  0  0
   20.7781   -6.4478  -17.9401 O   0  0  0  0  0  0  0  0  0  0  0  0
   18.8872   -1.5265  -15.6717 O   0  0  0  0  0  0  0  0  0  0  0  0
   22.6046   -8.8288  -15.3033 C   0  0  0  0  0  0  0  0  0  0  0  0
   21.1618   -9.0024  -14.9046 C   0  0  1  0  0  0  0  0  0  0  0  0
   20.9410   -8.5782  -13.5914 O   0  0  0  0  0  0  0  0  0  0  0  0
   20.2705   -8.2104  -15.8707 C   0  0  2  0  0  0  0  0  0  0  0  0
   20.4880   -6.7862  -15.6797 N   0  0  0  0  0  0  0  0  0  0  0  0
   18.8679   -8.5847  -15.5641 C   0  0  0  0  0  0  0  0  0  0  0  0
   18.2269   -7.9004  -14.7440 O   0  0  0  0  0  0  0  0  0  0  0  0
   18.2107   -9.6912  -16.1607 N   0  0  0  0  0  0  0  0  0  0  0  0
   16.8532  -10.0779  -15.8304 C   0  0  1  0  0  0  0  0  0  0  0  0
   16.0423  -10.3957  -17.0658 C   0  0  0  0  0  0  0  0  0  0  0  0
   15.6758   -9.1541  -17.8100 C   0  0  0  0  0  0  0  0  0  0  0  0
   15.3714   -7.9777  -17.1525 C   0  0  0  0  0  0  0  0  0  0  0  0
   15.0873   -7.0570  -18.0962 N   0  0  0  0  0  0  0  0  0  0  0  0
   15.2103   -7.6396  -19.3035 C   0  0  0  0  0  0  0  0  0  0  0  0
   15.5726   -8.9294  -19.1155 N   0  0  0  0  0  0  0  0  0  0  0  0
   16.9057  -11.2601  -14.9323 C   0  0  0  0  0  0  0  0  0  0  0  0
   15.8104  -11.6164  -14.1481 O   0  0  0  0  0  0  0  0  0  0  0  0
   17.9253  -11.9910  -14.8334 O   0  0  0  0  0  0  0  0  0  0  0  0
  2  3  1  0
  2  1  1  6
  3  4  1  0
  4  8  1  0
  4  5  2  0
  6  2  1  0
  6  7  2  0
 10  9  1  6
 10 12  1  0
 11 10  1  0
 12 13  1  1
 12 14  1  0
 13  6  1  0
 14 16  1  0
 15 14  2  0
 16 17  1  0
 17 24  1  0
 17 18  1  6
 19 18  1  0
 20 19  2  0
 21 22  1  0
 21 20  1  0
 22 23  2  0
 23 19  1  0
 24 26  2  0
 24 25  1  0
M  END
$$$$
