DTH.pdb
     RDKit          3D

 26 26  0  0  1  0  0  0  0  0999 V2000
   25.1217   -4.3796  -18.5255 N   0  0  0  0  0  0  0  0  0  0  0  0
   23.7495   -4.2942  -18.1006 C   0  0  1  0  0  0  0  0  0  0  0  0
   22.8791   -4.3630  -19.3488 C   0  0  0  0  0  0  0  0  0  0  0  0
   23.0949   -3.1321  -20.1507 C   0  0  0  0  0  0  0  0  0  0  0  0
   23.0015   -1.9792  -19.6629 O   0  0  0  0  0  0  0  0  0  0  0  0
   23.4152   -5.4236  -17.2051 C   0  0  0  0  0  0  0  0  0  0  0  0
   24.1690   -5.6893  -16.2334 O   0  0  0  0  0  0  0  0  0  0  0  0
   23.4145   -3.2218  -21.4975 O   0  0  0  0  0  0  0  0  0  0  0  0
   22.5913   -5.6446  -14.6280 C   0  0  0  0  0  0  0  0  0  0  0  0
   21.4327   -6.4664  -15.1310 C   0  0  1  0  0  0  0  0  0  0  0  0
   20.3082   -5.6710  -15.3683 O   0  0  0  0  0  0  0  0  0  0  0  0
   21.8468   -7.1905  -16.4190 C   0  0  2  0  0  0  0  0  0  0  0  0
   22.2627   -6.2170  -17.4147 N   0  0  0  0  0  0  0  0  0  0  0  0
   20.6624   -7.9564  -16.8796 C   0  0  0  0  0  0  0  0  0  0  0  0
   19.8009   -7.3777  -17.5685 O   0  0  0  0  0  0  0  0  0  0  0  0
   20.4561   -9.3264  -16.5747 N   0  0  0  0  0  0  0  0  0  0  0  0
   19.3168  -10.0819  -17.0571 C   0  0  1  0  0  0  0  0  0  0  0  0
   19.5476  -11.5724  -16.9584 C   0  0  0  0  0  0  0  0  0  0  0  0
   20.5306  -12.0393  -17.9809 C   0  0  0  0  0  0  0  0  0  0  0  0
   21.0311  -11.1883  -18.9473 C   0  0  0  0  0  0  0  0  0  0  0  0
   21.8839  -11.9065  -19.7062 N   0  0  0  0  0  0  0  0  0  0  0  0
   21.9147  -13.1649  -19.2291 C   0  0  0  0  0  0  0  0  0  0  0  0
   21.0786  -13.2353  -18.1679 N   0  0  0  0  0  0  0  0  0  0  0  0
   18.1235   -9.6932  -16.2622 C   0  0  0  0  0  0  0  0  0  0  0  0
   16.8350   -9.9291  -16.7376 O   0  0  0  0  0  0  0  0  0  0  0  0
   18.2109   -9.1392  -15.1356 O   0  0  0  0  0  0  0  0  0  0  0  0
  2  3  1  0
  2  1  1  6
  3  4  1  0
  4  8  1  0
  4  5  2  0
  6  2  1  0
  6  7  2  0
 10  9  1  6
 10 12  1  0
 11 10  1  0
 12 13  1  6
 12 14  1  0
 13  6  1  0
 14 16  1  0
 15 14  2  0
 16 17  1  0
 17 24  1  0
 17 18  1  1
 19 18  1  0
 20 19  2  0
 21 22  1  0
 21 20  1  0
 22 23  2  0
 23 19  1  0
 24 26  2  0
 24 25  1  0
M  END
$$$$
