DTH.pdb
     RDKit          3D

 26 26  0  0  1  0  0  0  0  0999 V2000
   23.3592  -12.1574  -20.1526 N   0  0  0  0  0  0  0  0  0  0  0  0
   24.0057  -11.3639  -19.1411 C   0  0  1  0  0  0  0  0  0  0  0  0
   24.6160  -10.1512  -19.8317 C   0  0  0  0  0  0  0  0  0  0  0  0
   25.7113  -10.6096  -20.7234 C   0  0  0  0  0  0  0  0  0  0  0  0
   26.5692  -11.4536  -20.3659 O   0  0  0  0  0  0  0  0  0  0  0  0
   23.0219  -10.9121  -18.1325 C   0  0  0  0  0  0  0  0  0  0  0  0
   21.8901  -10.5096  -18.5065 O   0  0  0  0  0  0  0  0  0  0  0  0
   25.8221  -10.1061  -22.0110 O   0  0  0  0  0  0  0  0  0  0  0  0
   21.6306  -10.4289  -13.4284 C   0  0  0  0  0  0  0  0  0  0  0  0
   22.6271  -10.9896  -14.4099 C   0  0  1  0  0  0  0  0  0  0  0  0
   22.5300  -12.3812  -14.4965 O   0  0  0  0  0  0  0  0  0  0  0  0
   22.3902  -10.3585  -15.7885 C   0  0  2  0  0  0  0  0  0  0  0  0
   23.3233  -10.9212  -16.7502 N   0  0  0  0  0  0  0  0  0  0  0  0
   22.5968   -8.8976  -15.6321 C   0  0  0  0  0  0  0  0  0  0  0  0
   23.7036   -8.4100  -15.9303 O   0  0  0  0  0  0  0  0  0  0  0  0
   21.5915   -8.0170  -15.1563 N   0  0  0  0  0  0  0  0  0  0  0  0
   21.6905   -6.5743  -15.2569 C   0  0  1  0  0  0  0  0  0  0  0  0
   21.9023   -6.1230  -16.6839 C   0  0  0  0  0  0  0  0  0  0  0  0
   21.9727   -4.6345  -16.7787 C   0  0  0  0  0  0  0  0  0  0  0  0
   22.5375   -3.8699  -15.7761 C   0  0  0  0  0  0  0  0  0  0  0  0
   22.4464   -2.5804  -16.1605 N   0  0  0  0  0  0  0  0  0  0  0  0
   21.8443   -2.5412  -17.3639 C   0  0  0  0  0  0  0  0  0  0  0  0
   21.5573   -3.8102  -17.7345 N   0  0  0  0  0  0  0  0  0  0  0  0
   20.4452   -5.9776  -14.7089 C   0  0  0  0  0  0  0  0  0  0  0  0
   19.1964   -6.5169  -15.0107 O   0  0  0  0  0  0  0  0  0  0  0  0
   20.4516   -4.9698  -13.9553 O   0  0  0  0  0  0  0  0  0  0  0  0
  2  3  1  0
  2  1  1  6
  3  4  1  0
  4  8  1  0
  4  5  2  0
  6  2  1  0
  6  7  2  0
 10  9  1  1
 10 12  1  0
 11 10  1  0
 12 13  1  6
 12 14  1  0
 13  6  1  0
 14 16  1  0
 15 14  2  0
 16 17  1  0
 17 24  1  0
 17 18  1  6
 19 18  1  0
 20 19  2  0
 21 22  1  0
 21 20  1  0
 22 23  2  0
 23 19  1  0
 24 26  2  0
 24 25  1  0
M  END
$$$$
