DTH.pdb
     RDKit          3D

 26 26  0  0  1  0  0  0  0  0999 V2000
   15.9856  -10.8799  -11.7243 N   0  0  0  0  0  0  0  0  0  0  0  0
   14.9662   -9.8658  -11.7795 C   0  0  1  0  0  0  0  0  0  0  0  0
   14.0570  -10.0652  -10.5738 C   0  0  0  0  0  0  0  0  0  0  0  0
   13.4324  -11.4093  -10.6629 C   0  0  0  0  0  0  0  0  0  0  0  0
   13.9062  -12.3323  -11.3698 O   0  0  0  0  0  0  0  0  0  0  0  0
   15.5746   -8.5184  -11.7191 C   0  0  0  0  0  0  0  0  0  0  0  0
   14.8415   -7.5146  -11.5243 O   0  0  0  0  0  0  0  0  0  0  0  0
   12.2771  -11.6926   -9.9495 O   0  0  0  0  0  0  0  0  0  0  0  0
   16.0263   -6.5435   -9.7999 C   0  0  0  0  0  0  0  0  0  0  0  0
   17.4734   -6.6105  -10.2150 C   0  0  1  0  0  0  0  0  0  0  0  0
   18.1880   -7.5186   -9.4288 O   0  0  0  0  0  0  0  0  0  0  0  0
   17.5581   -7.0134  -11.6933 C   0  0  2  0  0  0  0  0  0  0  0  0
   16.9679   -8.3289  -11.8757 N   0  0  0  0  0  0  0  0  0  0  0  0
   18.9971   -7.0162  -12.0548 C   0  0  0  0  0  0  0  0  0  0  0  0
   19.7239   -7.9337  -11.6285 O   0  0  0  0  0  0  0  0  0  0  0  0
   19.5961   -6.0202  -12.8681 N   0  0  0  0  0  0  0  0  0  0  0  0
   21.0037   -6.0221  -13.2146 C   0  0  1  0  0  0  0  0  0  0  0  0
   21.2302   -6.4525  -14.6458 C   0  0  0  0  0  0  0  0  0  0  0  0
   20.7118   -7.8318  -14.8874 C   0  0  0  0  0  0  0  0  0  0  0  0
   19.4845   -8.0512  -15.4828 C   0  0  0  0  0  0  0  0  0  0  0  0
   19.3118   -9.3868  -15.5565 N   0  0  0  0  0  0  0  0  0  0  0  0
   20.3958   -9.9817  -15.0245 C   0  0  0  0  0  0  0  0  0  0  0  0
   21.2504   -9.0158  -14.6161 N   0  0  0  0  0  0  0  0  0  0  0  0
   21.5438   -4.6553  -12.9976 C   0  0  0  0  0  0  0  0  0  0  0  0
   22.9117   -4.4019  -13.0774 O   0  0  0  0  0  0  0  0  0  0  0  0
   20.8071   -3.6696  -12.7345 O   0  0  0  0  0  0  0  0  0  0  0  0
  2  3  1  0
  2  1  1  1
  3  4  1  0
  4  8  1  0
  4  5  2  0
  6  2  1  0
  6  7  2  0
 10  9  1  1
 10 12  1  0
 11 10  1  0
 12 13  1  1
 12 14  1  0
 13  6  1  0
 14 16  1  0
 15 14  2  0
 16 17  1  0
 17 24  1  0
 17 18  1  6
 19 18  1  0
 20 19  2  0
 21 22  1  0
 21 20  1  0
 22 23  2  0
 23 19  1  0
 24 26  2  0
 24 25  1  0
M  END
$$$$
