DTH.pdb
     RDKit          3D

 26 26  0  0  1  0  0  0  0  0999 V2000
   15.9706  -12.3246  -14.5196 N   0  0  0  0  0  0  0  0  0  0  0  0
   15.9413  -12.3044  -15.9581 C   0  0  1  0  0  0  0  0  0  0  0  0
   14.4942  -12.0914  -16.3832 C   0  0  0  0  0  0  0  0  0  0  0  0
   13.6876  -13.2541  -15.9333 C   0  0  0  0  0  0  0  0  0  0  0  0
   12.7441  -13.1485  -15.1118 O   0  0  0  0  0  0  0  0  0  0  0  0
   16.7740  -11.1964  -16.4759 C   0  0  0  0  0  0  0  0  0  0  0  0
   16.9320  -11.0666  -17.7173 O   0  0  0  0  0  0  0  0  0  0  0  0
   13.9594  -14.5242  -16.4197 O   0  0  0  0  0  0  0  0  0  0  0  0
   16.6358   -7.4735  -16.4314 C   0  0  0  0  0  0  0  0  0  0  0  0
   17.8708   -7.8776  -15.6683 C   0  0  1  0  0  0  0  0  0  0  0  0
   17.6415   -7.8769  -14.2897 O   0  0  0  0  0  0  0  0  0  0  0  0
   18.3160   -9.2726  -16.1274 C   0  0  2  0  0  0  0  0  0  0  0  0
   17.4008  -10.2738  -15.6055 N   0  0  0  0  0  0  0  0  0  0  0  0
   19.6896   -9.4773  -15.6053 C   0  0  0  0  0  0  0  0  0  0  0  0
   19.8361   -9.9763  -14.4734 O   0  0  0  0  0  0  0  0  0  0  0  0
   20.8572   -9.1319  -16.3332 N   0  0  0  0  0  0  0  0  0  0  0  0
   22.1971   -9.2989  -15.8058 C   0  0  1  0  0  0  0  0  0  0  0  0
   23.1408   -9.8715  -16.8385 C   0  0  0  0  0  0  0  0  0  0  0  0
   24.5215  -10.0208  -16.2898 C   0  0  0  0  0  0  0  0  0  0  0  0
   24.7627  -10.6896  -15.1052 C   0  0  0  0  0  0  0  0  0  0  0  0
   26.0934  -10.6486  -14.8896 N   0  0  0  0  0  0  0  0  0  0  0  0
   26.6644   -9.9761  -15.9064 C   0  0  0  0  0  0  0  0  0  0  0  0
   25.6883   -9.5946  -16.7618 N   0  0  0  0  0  0  0  0  0  0  0  0
   22.6875   -7.9766  -15.3390 C   0  0  0  0  0  0  0  0  0  0  0  0
   23.7483   -7.8796  -14.4406 O   0  0  0  0  0  0  0  0  0  0  0  0
   22.1795   -6.8914  -15.7234 O   0  0  0  0  0  0  0  0  0  0  0  0
  2  3  1  0
  2  1  1  1
  3  4  1  0
  4  8  1  0
  4  5  2  0
  6  2  1  0
  6  7  2  0
 10  9  1  6
 10 12  1  0
 11 10  1  0
 12 13  1  1
 12 14  1  0
 13  6  1  0
 14 16  1  0
 15 14  2  0
 16 17  1  0
 17 24  1  0
 17 18  1  6
 19 18  1  0
 20 19  2  0
 21 22  1  0
 21 20  1  0
 22 23  2  0
 23 19  1  0
 24 26  2  0
 24 25  1  0
M  END
$$$$
