DTH.pdb
     RDKit          3D

 26 26  0  0  1  0  0  0  0  0999 V2000
   19.5576  -13.7493  -16.7941 N   0  0  0  0  0  0  0  0  0  0  0  0
   19.1726  -12.3665  -16.8944 C   0  0  1  0  0  0  0  0  0  0  0  0
   17.6891  -12.2793  -16.5600 C   0  0  0  0  0  0  0  0  0  0  0  0
   16.9072  -12.7682  -17.7238 C   0  0  0  0  0  0  0  0  0  0  0  0
   17.0509  -13.9198  -18.2025 O   0  0  0  0  0  0  0  0  0  0  0  0
   19.9423  -11.5455  -15.9337 C   0  0  0  0  0  0  0  0  0  0  0  0
   19.8859  -11.8116  -14.7053 O   0  0  0  0  0  0  0  0  0  0  0  0
   15.9705  -11.9459  -18.3323 O   0  0  0  0  0  0  0  0  0  0  0  0
   23.4469  -11.2111  -15.3522 C   0  0  0  0  0  0  0  0  0  0  0  0
   23.0004   -9.8118  -15.6890 C   0  0  1  0  0  0  0  0  0  0  0  0
   23.2629   -9.5007  -17.0261 O   0  0  0  0  0  0  0  0  0  0  0  0
   21.4991   -9.6763  -15.4019 C   0  0  2  0  0  0  0  0  0  0  0  0
   20.7448  -10.4626  -16.3637 N   0  0  0  0  0  0  0  0  0  0  0  0
   21.1702   -8.2338  -15.5125 C   0  0  0  0  0  0  0  0  0  0  0  0
   20.5423   -7.8336  -16.5112 O   0  0  0  0  0  0  0  0  0  0  0  0
   21.5360   -7.2758  -14.5324 N   0  0  0  0  0  0  0  0  0  0  0  0
   21.3610   -5.8486  -14.7162 C   0  0  1  0  0  0  0  0  0  0  0  0
   19.9047   -5.4481  -14.6567 C   0  0  0  0  0  0  0  0  0  0  0  0
   19.7390   -3.9736  -14.8240 C   0  0  0  0  0  0  0  0  0  0  0  0
   19.9802   -3.3493  -16.0326 C   0  0  0  0  0  0  0  0  0  0  0  0
   19.7428   -2.0336  -15.8547 N   0  0  0  0  0  0  0  0  0  0  0  0
   19.3658   -1.8428  -14.5765 C   0  0  0  0  0  0  0  0  0  0  0  0
   19.3669   -3.0427  -13.9519 N   0  0  0  0  0  0  0  0  0  0  0  0
   22.1320   -5.1401  -13.6624 C   0  0  0  0  0  0  0  0  0  0  0  0
   22.3872   -5.7413  -12.4315 O   0  0  0  0  0  0  0  0  0  0  0  0
   22.5885   -3.9783  -13.8224 O   0  0  0  0  0  0  0  0  0  0  0  0
  2  3  1  0
  2  1  1  1
  3  4  1  0
  4  8  1  0
  4  5  2  0
  6  2  1  0
  6  7  2  0
 10  9  1  6
 10 12  1  0
 11 10  1  0
 12 13  1  6
 12 14  1  0
 13  6  1  0
 14 16  1  0
 15 14  2  0
 16 17  1  0
 17 24  1  0
 17 18  1  1
 19 18  1  0
 20 19  2  0
 21 22  1  0
 21 20  1  0
 22 23  2  0
 23 19  1  0
 24 26  2  0
 24 25  1  0
M  END
$$$$
