DTH.pdb
     RDKit          3D

 26 26  0  0  1  0  0  0  0  0999 V2000
   24.0416   -7.0335  -21.6851 N   0  0  0  0  0  0  0  0  0  0  0  0
   23.7009   -5.6611  -21.4188 C   0  0  1  0  0  0  0  0  0  0  0  0
   23.3073   -5.0220  -22.7442 C   0  0  0  0  0  0  0  0  0  0  0  0
   24.5113   -4.9337  -23.6088 C   0  0  0  0  0  0  0  0  0  0  0  0
   25.6308   -4.5639  -23.1776 O   0  0  0  0  0  0  0  0  0  0  0  0
   22.5609   -5.5853  -20.4786 C   0  0  0  0  0  0  0  0  0  0  0  0
   22.1741   -4.4632  -20.0615 O   0  0  0  0  0  0  0  0  0  0  0  0
   24.4330   -5.2659  -24.9532 O   0  0  0  0  0  0  0  0  0  0  0  0
   19.1139   -6.6473  -20.9852 C   0  0  0  0  0  0  0  0  0  0  0  0
   19.5470   -7.3685  -19.7350 C   0  0  1  0  0  0  0  0  0  0  0  0
   19.8662   -8.7030  -20.0007 O   0  0  0  0  0  0  0  0  0  0  0  0
   20.7587   -6.6480  -19.1286 C   0  0  2  0  0  0  0  0  0  0  0  0
   21.8909   -6.7494  -20.0342 N   0  0  0  0  0  0  0  0  0  0  0  0
   21.0470   -7.3108  -17.8329 C   0  0  0  0  0  0  0  0  0  0  0  0
   22.2283   -7.5792  -17.5429 O   0  0  0  0  0  0  0  0  0  0  0  0
   20.0395   -7.6591  -16.8969 N   0  0  0  0  0  0  0  0  0  0  0  0
   20.3234   -8.3139  -15.6352 C   0  0  1  0  0  0  0  0  0  0  0  0
   21.1896   -7.4582  -14.7395 C   0  0  0  0  0  0  0  0  0  0  0  0
   21.4583   -8.1345  -13.4356 C   0  0  0  0  0  0  0  0  0  0  0  0
   22.5949   -8.8932  -13.2330 C   0  0  0  0  0  0  0  0  0  0  0  0
   22.5405   -9.3608  -11.9691 N   0  0  0  0  0  0  0  0  0  0  0  0
   21.4068   -8.9087  -11.4012 C   0  0  0  0  0  0  0  0  0  0  0  0
   20.7489   -8.1555  -12.3122 N   0  0  0  0  0  0  0  0  0  0  0  0
   19.0344   -8.6200  -14.9631 C   0  0  0  0  0  0  0  0  0  0  0  0
   18.9001   -9.7364  -14.1401 O   0  0  0  0  0  0  0  0  0  0  0  0
   18.0117   -7.8994  -15.0988 O   0  0  0  0  0  0  0  0  0  0  0  0
  2  3  1  0
  2  1  1  6
  3  4  1  0
  4  8  1  0
  4  5  2  0
  6  2  1  0
  6  7  2  0
 10  9  1  6
 10 12  1  0
 11 10  1  0
 12 13  1  6
 12 14  1  0
 13  6  1  0
 14 16  1  0
 15 14  2  0
 16 17  1  0
 17 24  1  0
 17 18  1  1
 19 18  1  0
 20 19  2  0
 21 22  1  0
 21 20  1  0
 22 23  2  0
 23 19  1  0
 24 26  2  0
 24 25  1  0
M  END
$$$$
