DTH.pdb
     RDKit          3D

 26 26  0  0  1  0  0  0  0  0999 V2000
   31.1851   -9.8263  -19.5426 N   0  0  0  0  0  0  0  0  0  0  0  0
   30.4463   -9.3089  -18.4214 C   0  0  1  0  0  0  0  0  0  0  0  0
   31.2523   -8.1573  -17.8347 C   0  0  0  0  0  0  0  0  0  0  0  0
   32.4587   -8.7090  -17.1677 C   0  0  0  0  0  0  0  0  0  0  0  0
   32.7427   -9.9318  -17.1820 O   0  0  0  0  0  0  0  0  0  0  0  0
   29.1241   -8.8103  -18.8603 C   0  0  0  0  0  0  0  0  0  0  0  0
   29.0476   -8.0542  -19.8630 O   0  0  0  0  0  0  0  0  0  0  0  0
   33.3304   -7.8683  -16.4915 O   0  0  0  0  0  0  0  0  0  0  0  0
   26.3000  -10.4675  -20.3392 C   0  0  0  0  0  0  0  0  0  0  0  0
   25.7731   -9.8821  -19.0545 C   0  0  1  0  0  0  0  0  0  0  0  0
   25.7531  -10.8335  -18.0309 O   0  0  0  0  0  0  0  0  0  0  0  0
   26.6463   -8.6880  -18.6465 C   0  0  2  0  0  0  0  0  0  0  0  0
   27.9368   -9.1642  -18.1772 N   0  0  0  0  0  0  0  0  0  0  0  0
   25.9163   -7.9705  -17.5724 C   0  0  0  0  0  0  0  0  0  0  0  0
   26.1644   -8.2504  -16.3842 O   0  0  0  0  0  0  0  0  0  0  0  0
   24.9409   -6.9728  -17.8282 N   0  0  0  0  0  0  0  0  0  0  0  0
   24.1603   -6.3421  -16.7821 C   0  0  1  0  0  0  0  0  0  0  0  0
   23.2504   -5.2665  -17.3298 C   0  0  0  0  0  0  0  0  0  0  0  0
   22.4290   -4.6464  -16.2480 C   0  0  0  0  0  0  0  0  0  0  0  0
   22.9557   -4.3828  -14.9983 C   0  0  0  0  0  0  0  0  0  0  0  0
   21.9713   -3.8298  -14.2607 N   0  0  0  0  0  0  0  0  0  0  0  0
   20.8660   -3.7507  -15.0251 C   0  0  0  0  0  0  0  0  0  0  0  0
   21.1589   -4.2558  -16.2454 N   0  0  0  0  0  0  0  0  0  0  0  0
   23.3619   -7.3891  -16.0942 C   0  0  0  0  0  0  0  0  0  0  0  0
   22.7205   -8.3940  -16.8157 O   0  0  0  0  0  0  0  0  0  0  0  0
   23.2245   -7.4240  -14.8438 O   0  0  0  0  0  0  0  0  0  0  0  0
  2  3  1  0
  2  1  1  6
  3  4  1  0
  4  8  1  0
  4  5  2  0
  6  2  1  0
  6  7  2  0
 10  9  1  6
 10 12  1  0
 11 10  1  0
 12 13  1  1
 12 14  1  0
 13  6  1  0
 14 16  1  0
 15 14  2  0
 16 17  1  0
 17 24  1  0
 17 18  1  6
 19 18  1  0
 20 19  2  0
 21 22  1  0
 21 20  1  0
 22 23  2  0
 23 19  1  0
 24 26  2  0
 24 25  1  0
M  END
$$$$
