HSG.pdb
     RDKit          3D

 21 21  0  0  1  0  0  0  0  0999 V2000
   21.3949  -14.9928  -17.0953 N   0  0  0  0  0  0  0  0  0  0  0  0
   20.4791  -13.9087  -16.9339 C   0  0  1  0  0  0  0  0  0  0  0  0
   19.5744  -14.0659  -15.7216 C   0  0  0  0  0  0  0  0  0  0  0  0
   18.7110  -15.2650  -15.8768 C   0  0  0  0  0  0  0  0  0  0  0  0
   17.4642  -15.2833  -16.5114 C   0  0  0  0  0  0  0  0  0  0  0  0
   16.9708  -16.5231  -16.4672 N   0  0  0  0  0  0  0  0  0  0  0  0
   17.8757  -17.2803  -15.8220 C   0  0  0  0  0  0  0  0  0  0  0  0
   18.9418  -16.5114  -15.4599 N   0  0  0  0  0  0  0  0  0  0  0  0
   21.1485  -12.5807  -16.8346 C   0  0  0  0  0  0  0  0  0  0  0  0
   22.0208  -12.4639  -15.9307 O   0  0  0  0  0  0  0  0  0  0  0  0
   21.8688  -10.0073  -19.9101 O   0  0  0  0  0  0  0  0  0  0  0  0
   21.3610   -9.3899  -18.7695 C   0  0  0  0  0  0  0  0  0  0  0  0
   21.5298  -10.2455  -17.5428 C   0  0  2  0  0  0  0  0  0  0  0  0
   20.8357  -11.5006  -17.6971 N   0  0  0  0  0  0  0  0  0  0  0  0
   21.1601   -9.5486  -16.2914 C   0  0  0  0  0  0  0  0  0  0  0  0
   19.9979   -9.6807  -15.8271 O   0  0  0  0  0  0  0  0  0  0  0  0
   22.0887   -8.7321  -15.6003 N   0  0  0  0  0  0  0  0  0  0  0  0
   21.7795   -8.0292  -14.3787 C   0  0  0  0  0  0  0  0  0  0  0  0
   20.9574   -6.8373  -14.5804 C   0  0  0  0  0  0  0  0  0  0  0  0
   20.5454   -6.0939  -13.4876 O   0  0  0  0  0  0  0  0  0  0  0  0
   20.6018   -6.4505  -15.7196 O   0  0  0  0  0  0  0  0  0  0  0  0
  2  1  1  1
  2  3  1  0
  3  4  1  0
  4  8  1  0
  5  4  2  0
  5  6  1  0
  6  7  1  0
  8  7  2  0
  9 14  1  0
  9  2  1  0
 10  9  2  0
 12 11  1  0
 13 12  1  6
 13 14  1  0
 15 13  1  0
 15 17  1  0
 16 15  2  0
 18 17  1  0
 18 19  1  0
 19 20  1  0
 21 19  2  0
M  END
$$$$
