HSG.pdb
     RDKit          3D

 21 21  0  0  1  0  0  0  0  0999 V2000
   18.1630  -12.2530  -17.8867 N   0  0  0  0  0  0  0  0  0  0  0  0
   18.5017  -11.8672  -16.5538 C   0  0  1  0  0  0  0  0  0  0  0  0
   19.7197  -12.5985  -16.0110 C   0  0  0  0  0  0  0  0  0  0  0  0
   20.8134  -12.5919  -17.0165 C   0  0  0  0  0  0  0  0  0  0  0  0
   21.6556  -11.5071  -17.2837 C   0  0  0  0  0  0  0  0  0  0  0  0
   22.5192  -11.8514  -18.2419 N   0  0  0  0  0  0  0  0  0  0  0  0
   22.2394  -13.1223  -18.5809 C   0  0  0  0  0  0  0  0  0  0  0  0
   21.1952  -13.5771  -17.8315 N   0  0  0  0  0  0  0  0  0  0  0  0
   18.7448  -10.4041  -16.4068 C   0  0  0  0  0  0  0  0  0  0  0  0
   18.7976   -9.7389  -17.4774 O   0  0  0  0  0  0  0  0  0  0  0  0
   18.9994   -8.4374  -12.6785 O   0  0  0  0  0  0  0  0  0  0  0  0
   18.4870   -7.8018  -13.8070 C   0  0  0  0  0  0  0  0  0  0  0  0
   19.0777   -8.3484  -15.0788 C   0  0  2  0  0  0  0  0  0  0  0  0
   18.9095   -9.7795  -15.1453 N   0  0  0  0  0  0  0  0  0  0  0  0
   20.4824   -7.9367  -15.2924 C   0  0  0  0  0  0  0  0  0  0  0  0
   20.7693   -6.7126  -15.3466 O   0  0  0  0  0  0  0  0  0  0  0  0
   21.5170   -8.8932  -15.4381 N   0  0  0  0  0  0  0  0  0  0  0  0
   22.9049   -8.5461  -15.6255 C   0  0  0  0  0  0  0  0  0  0  0  0
   23.2283   -8.1415  -16.9926 C   0  0  0  0  0  0  0  0  0  0  0  0
   24.5392   -7.8532  -17.3318 O   0  0  0  0  0  0  0  0  0  0  0  0
   22.3560   -8.0420  -17.8887 O   0  0  0  0  0  0  0  0  0  0  0  0
  2  1  1  6
  2  3  1  0
  3  4  1  0
  4  8  1  0
  5  4  2  0
  5  6  1  0
  6  7  1  0
  8  7  2  0
  9 14  1  0
  9  2  1  0
 10  9  2  0
 12 11  1  0
 13 12  1  1
 13 14  1  0
 15 13  1  0
 15 17  1  0
 16 15  2  0
 18 17  1  0
 18 19  1  0
 19 20  1  0
 21 19  2  0
M  END
$$$$
