HSG.pdb
     RDKit          3D

 21 21  0  0  1  0  0  0  0  0999 V2000
   17.4590  -11.0244  -16.2824 N   0  0  0  0  0  0  0  0  0  0  0  0
   18.1973   -9.8221  -16.5049 C   0  0  1  0  0  0  0  0  0  0  0  0
   17.3199   -8.5806  -16.5454 C   0  0  0  0  0  0  0  0  0  0  0  0
   16.3286   -8.6876  -17.6469 C   0  0  0  0  0  0  0  0  0  0  0  0
   14.9390   -8.6800  -17.4838 C   0  0  0  0  0  0  0  0  0  0  0  0
   14.3590   -8.7936  -18.6809 N   0  0  0  0  0  0  0  0  0  0  0  0
   15.3487   -8.8720  -19.5880 C   0  0  0  0  0  0  0  0  0  0  0  0
   16.5553   -8.8072  -18.9565 N   0  0  0  0  0  0  0  0  0  0  0  0
   19.2680   -9.5915  -15.4940 C   0  0  0  0  0  0  0  0  0  0  0  0
   18.9451   -9.7803  -14.2892 O   0  0  0  0  0  0  0  0  0  0  0  0
   23.8441   -9.5751  -14.2386 O   0  0  0  0  0  0  0  0  0  0  0  0
   22.8569   -9.7158  -15.2111 C   0  0  0  0  0  0  0  0  0  0  0  0
   21.5761   -9.0303  -14.8175 C   0  0  2  0  0  0  0  0  0  0  0  0
   20.5783   -9.1835  -15.8478 N   0  0  0  0  0  0  0  0  0  0  0  0
   21.7686   -7.6166  -14.4267 C   0  0  0  0  0  0  0  0  0  0  0  0
   22.5422   -7.3353  -13.4747 O   0  0  0  0  0  0  0  0  0  0  0  0
   21.0989   -6.5672  -15.1025 N   0  0  0  0  0  0  0  0  0  0  0  0
   21.1906   -5.1806  -14.7139 C   0  0  0  0  0  0  0  0  0  0  0  0
   20.4697   -4.2734  -15.6053 C   0  0  0  0  0  0  0  0  0  0  0  0
   19.8582   -4.7705  -16.7435 O   0  0  0  0  0  0  0  0  0  0  0  0
   20.3784   -3.0424  -15.3814 O   0  0  0  0  0  0  0  0  0  0  0  0
  2  1  1  1
  2  3  1  0
  3  4  1  0
  4  8  1  0
  5  4  2  0
  5  6  1  0
  6  7  1  0
  8  7  2  0
  9 14  1  0
  9  2  1  0
 10  9  2  0
 12 11  1  0
 13 12  1  6
 13 14  1  0
 15 13  1  0
 15 17  1  0
 16 15  2  0
 18 17  1  0
 18 19  1  0
 19 20  1  0
 21 19  2  0
M  END
$$$$
