HSG.pdb
     RDKit          3D

 21 21  0  0  1  0  0  0  0  0999 V2000
   20.7255  -20.9961  -15.5487 N   0  0  0  0  0  0  0  0  0  0  0  0
   21.8378  -20.1049  -15.4548 C   0  0  1  0  0  0  0  0  0  0  0  0
   21.4641  -18.7387  -14.9010 C   0  0  0  0  0  0  0  0  0  0  0  0
   20.8369  -17.9083  -15.9615 C   0  0  0  0  0  0  0  0  0  0  0  0
   20.6776  -18.2930  -17.2972 C   0  0  0  0  0  0  0  0  0  0  0  0
   20.0777  -17.3059  -17.9665 N   0  0  0  0  0  0  0  0  0  0  0  0
   19.8577  -16.3143  -17.0851 C   0  0  0  0  0  0  0  0  0  0  0  0
   20.3220  -16.6817  -15.8570 N   0  0  0  0  0  0  0  0  0  0  0  0
   22.9561  -20.6419  -14.6286 C   0  0  0  0  0  0  0  0  0  0  0  0
   22.6249  -21.3308  -13.6250 O   0  0  0  0  0  0  0  0  0  0  0  0
   27.6238  -21.7231  -14.0812 O   0  0  0  0  0  0  0  0  0  0  0  0
   26.6301  -21.1301  -14.8565 C   0  0  0  0  0  0  0  0  0  0  0  0
   25.3460  -20.9567  -14.0909 C   0  0  2  0  0  0  0  0  0  0  0  0
   24.3183  -20.4023  -14.9377 N   0  0  0  0  0  0  0  0  0  0  0  0
   25.5148  -20.1909  -12.8366 C   0  0  0  0  0  0  0  0  0  0  0  0
   25.6301  -18.9386  -12.8843 O   0  0  0  0  0  0  0  0  0  0  0  0
   25.5498  -20.8377  -11.5768 N   0  0  0  0  0  0  0  0  0  0  0  0
   25.8786  -20.1658  -10.3430 C   0  0  0  0  0  0  0  0  0  0  0  0
   25.9702  -21.0639   -9.1931 C   0  0  0  0  0  0  0  0  0  0  0  0
   26.3780  -20.5693   -7.9660 O   0  0  0  0  0  0  0  0  0  0  0  0
   25.6909  -22.2845   -9.2692 O   0  0  0  0  0  0  0  0  0  0  0  0
  2  1  1  1
  2  3  1  0
  3  4  1  0
  4  8  1  0
  5  4  2  0
  5  6  1  0
  6  7  1  0
  8  7  2  0
  9 14  1  0
  9  2  1  0
 10  9  2  0
 12 11  1  0
 13 12  1  6
 13 14  1  0
 15 13  1  0
 15 17  1  0
 16 15  2  0
 18 17  1  0
 18 19  1  0
 19 20  1  0
 21 19  2  0
M  END
$$$$
