HSG.pdb
     RDKit          3D

 21 21  0  0  1  0  0  0  0  0999 V2000
   23.8400  -15.8358  -15.8530 N   0  0  0  0  0  0  0  0  0  0  0  0
   24.0209  -14.6742  -16.6642 C   0  0  1  0  0  0  0  0  0  0  0  0
   22.8898  -14.4564  -17.6571 C   0  0  0  0  0  0  0  0  0  0  0  0
   22.6904  -15.6744  -18.4842 C   0  0  0  0  0  0  0  0  0  0  0  0
   23.3860  -15.9718  -19.6612 C   0  0  0  0  0  0  0  0  0  0  0  0
   22.9537  -17.1409  -20.1395 N   0  0  0  0  0  0  0  0  0  0  0  0
   22.0066  -17.5824  -19.2931 C   0  0  0  0  0  0  0  0  0  0  0  0
   21.8442  -16.6856  -18.2790 N   0  0  0  0  0  0  0  0  0  0  0  0
   24.1813  -13.4212  -15.8731 C   0  0  0  0  0  0  0  0  0  0  0  0
   23.3837  -13.2671  -14.9079 O   0  0  0  0  0  0  0  0  0  0  0  0
   27.2485  -10.5285  -16.5127 O   0  0  0  0  0  0  0  0  0  0  0  0
   26.7419  -10.8490  -15.2554 C   0  0  0  0  0  0  0  0  0  0  0  0
   25.3050  -11.2918  -15.3228 C   0  0  2  0  0  0  0  0  0  0  0  0
   25.1671  -12.4484  -16.1736 N   0  0  0  0  0  0  0  0  0  0  0  0
   24.3772  -10.2029  -15.6994 C   0  0  0  0  0  0  0  0  0  0  0  0
   23.8897  -10.1758  -16.8594 O   0  0  0  0  0  0  0  0  0  0  0  0
   24.0231   -9.1850  -14.7801 N   0  0  0  0  0  0  0  0  0  0  0  0
   23.0802   -8.1339  -15.0767 C   0  0  0  0  0  0  0  0  0  0  0  0
   21.9276   -8.1097  -14.1777 C   0  0  0  0  0  0  0  0  0  0  0  0
   21.0607   -7.0306  -14.2010 O   0  0  0  0  0  0  0  0  0  0  0  0
   21.6842   -9.0393  -13.3713 O   0  0  0  0  0  0  0  0  0  0  0  0
  2  1  1  1
  2  3  1  0
  3  4  1  0
  4  8  1  0
  5  4  2  0
  5  6  1  0
  6  7  1  0
  8  7  2  0
  9 14  1  0
  9  2  1  0
 10  9  2  0
 12 11  1  0
 13 12  1  6
 13 14  1  0
 15 13  1  0
 15 17  1  0
 16 15  2  0
 18 17  1  0
 18 19  1  0
 19 20  1  0
 21 19  2  0
M  END
$$$$
