HSG.pdb
     RDKit          3D

 21 21  0  0  1  0  0  0  0  0999 V2000
   26.1327  -18.9498  -16.7765 N   0  0  0  0  0  0  0  0  0  0  0  0
   24.9693  -18.1215  -16.8055 C   0  0  1  0  0  0  0  0  0  0  0  0
   24.7709  -17.4161  -18.1381 C   0  0  0  0  0  0  0  0  0  0  0  0
   25.9335  -16.5395  -18.4336 C   0  0  0  0  0  0  0  0  0  0  0  0
   26.9117  -16.7971  -19.4002 C   0  0  0  0  0  0  0  0  0  0  0  0
   27.8028  -15.8030  -19.3943 N   0  0  0  0  0  0  0  0  0  0  0  0
   27.4080  -14.9308  -18.4499 C   0  0  0  0  0  0  0  0  0  0  0  0
   26.2635  -15.3803  -17.8608 N   0  0  0  0  0  0  0  0  0  0  0  0
   23.7129  -18.8575  -16.4871 C   0  0  0  0  0  0  0  0  0  0  0  0
   23.5323  -19.9424  -17.1051 O   0  0  0  0  0  0  0  0  0  0  0  0
   21.9973  -19.0956  -12.8633 O   0  0  0  0  0  0  0  0  0  0  0  0
   21.8246  -19.9468  -13.9523 C   0  0  0  0  0  0  0  0  0  0  0  0
   21.6105  -19.1867  -15.2336 C   0  0  2  0  0  0  0  0  0  0  0  0
   22.7651  -18.3809  -15.5475 N   0  0  0  0  0  0  0  0  0  0  0  0
   20.3573  -18.4008  -15.2419 C   0  0  0  0  0  0  0  0  0  0  0  0
   20.4033  -17.1565  -15.0594 O   0  0  0  0  0  0  0  0  0  0  0  0
   19.1004  -19.0196  -15.4516 N   0  0  0  0  0  0  0  0  0  0  0  0
   17.8412  -18.3210  -15.3601 C   0  0  0  0  0  0  0  0  0  0  0  0
   17.2463  -18.3578  -14.0252 C   0  0  0  0  0  0  0  0  0  0  0  0
   15.9606  -17.8820  -13.8327 O   0  0  0  0  0  0  0  0  0  0  0  0
   17.8592  -18.8093  -13.0280 O   0  0  0  0  0  0  0  0  0  0  0  0
  2  1  1  6
  2  3  1  0
  3  4  1  0
  4  8  1  0
  5  4  2  0
  5  6  1  0
  6  7  1  0
  8  7  2  0
  9 14  1  0
  9  2  1  0
 10  9  2  0
 12 11  1  0
 13 12  1  1
 13 14  1  0
 15 13  1  0
 15 17  1  0
 16 15  2  0
 18 17  1  0
 18 19  1  0
 19 20  1  0
 21 19  2  0
M  END
$$$$
