HSG.pdb
     RDKit          3D

 21 21  0  0  1  0  0  0  0  0999 V2000
   18.1013  -11.6067  -17.7592 N   0  0  0  0  0  0  0  0  0  0  0  0
   18.4671  -11.3656  -16.3997 C   0  0  1  0  0  0  0  0  0  0  0  0
   19.6726  -12.1777  -15.9521 C   0  0  0  0  0  0  0  0  0  0  0  0
   19.3989  -13.6301  -16.1041 C   0  0  0  0  0  0  0  0  0  0  0  0
   18.5776  -14.3876  -15.2621 C   0  0  0  0  0  0  0  0  0  0  0  0
   18.5591  -15.6513  -15.6926 N   0  0  0  0  0  0  0  0  0  0  0  0
   19.3469  -15.7040  -16.7813 C   0  0  0  0  0  0  0  0  0  0  0  0
   19.8618  -14.4672  -17.0345 N   0  0  0  0  0  0  0  0  0  0  0  0
   18.7503   -9.9312  -16.1103 C   0  0  0  0  0  0  0  0  0  0  0  0
   19.5477   -9.3520  -16.8977 O   0  0  0  0  0  0  0  0  0  0  0  0
   16.7781   -7.6589  -13.0892 O   0  0  0  0  0  0  0  0  0  0  0  0
   17.1171   -7.1618  -14.3455 C   0  0  0  0  0  0  0  0  0  0  0  0
   18.3552   -7.8172  -14.8958 C   0  0  2  0  0  0  0  0  0  0  0  0
   18.1664   -9.2421  -15.0182 N   0  0  0  0  0  0  0  0  0  0  0  0
   19.5800   -7.4752  -14.1401 C   0  0  0  0  0  0  0  0  0  0  0  0
   20.0412   -8.2929  -13.3020 O   0  0  0  0  0  0  0  0  0  0  0  0
   20.2489   -6.2425  -14.3390 N   0  0  0  0  0  0  0  0  0  0  0  0
   21.4679   -5.8766  -13.6592 C   0  0  0  0  0  0  0  0  0  0  0  0
   21.9951   -4.5739  -14.0620 C   0  0  0  0  0  0  0  0  0  0  0  0
   23.0936   -4.0448  -13.4062 O   0  0  0  0  0  0  0  0  0  0  0  0
   21.4881   -3.9015  -14.9918 O   0  0  0  0  0  0  0  0  0  0  0  0
  2  1  1  6
  2  3  1  0
  3  4  1  0
  4  8  1  0
  5  4  2  0
  5  6  1  0
  6  7  1  0
  8  7  2  0
  9 14  1  0
  9  2  1  0
 10  9  2  0
 12 11  1  0
 13 12  1  1
 13 14  1  0
 15 13  1  0
 15 17  1  0
 16 15  2  0
 18 17  1  0
 18 19  1  0
 19 20  1  0
 21 19  2  0
M  END
$$$$
