HSG.pdb
     RDKit          3D

 21 21  0  0  1  0  0  0  0  0999 V2000
   19.0778  -11.5577  -17.3664 N   0  0  0  0  0  0  0  0  0  0  0  0
   20.0739  -10.5407  -17.4827 C   0  0  1  0  0  0  0  0  0  0  0  0
   19.7707   -9.5293  -18.5772 C   0  0  0  0  0  0  0  0  0  0  0  0
   18.4073   -8.9680  -18.3948 C   0  0  0  0  0  0  0  0  0  0  0  0
   17.7700   -8.7836  -17.1630 C   0  0  0  0  0  0  0  0  0  0  0  0
   16.5598   -8.2602  -17.3722 N   0  0  0  0  0  0  0  0  0  0  0  0
   16.4233   -8.1123  -18.7019 C   0  0  0  0  0  0  0  0  0  0  0  0
   17.5537   -8.5453  -19.3294 N   0  0  0  0  0  0  0  0  0  0  0  0
   20.2998   -9.7883  -16.2160 C   0  0  0  0  0  0  0  0  0  0  0  0
   19.2879   -9.6193  -15.4818 O   0  0  0  0  0  0  0  0  0  0  0  0
   23.8091   -9.7544  -14.1443 O   0  0  0  0  0  0  0  0  0  0  0  0
   22.5444   -9.4788  -13.6297 C   0  0  0  0  0  0  0  0  0  0  0  0
   21.7272   -8.6303  -14.5663 C   0  0  2  0  0  0  0  0  0  0  0  0
   21.5707   -9.2849  -15.8422 N   0  0  0  0  0  0  0  0  0  0  0  0
   22.2428   -7.2504  -14.7018 C   0  0  0  0  0  0  0  0  0  0  0  0
   22.9102   -6.9341  -15.7208 O   0  0  0  0  0  0  0  0  0  0  0  0
   22.0016   -6.2722  -13.7061 N   0  0  0  0  0  0  0  0  0  0  0  0
   22.5449   -4.9362  -13.7510 C   0  0  0  0  0  0  0  0  0  0  0  0
   21.7738   -4.0177  -14.5870 C   0  0  0  0  0  0  0  0  0  0  0  0
   22.1792   -2.7002  -14.7147 O   0  0  0  0  0  0  0  0  0  0  0  0
   20.7427   -4.3759  -15.2053 O   0  0  0  0  0  0  0  0  0  0  0  0
  2  1  1  1
  2  3  1  0
  3  4  1  0
  4  8  1  0
  5  4  2  0
  5  6  1  0
  6  7  1  0
  8  7  2  0
  9 14  1  0
  9  2  1  0
 10  9  2  0
 12 11  1  0
 13 12  1  1
 13 14  1  0
 15 13  1  0
 15 17  1  0
 16 15  2  0
 18 17  1  0
 18 19  1  0
 19 20  1  0
 21 19  2  0
M  END
$$$$
