HSG.pdb
     RDKit          3D

 21 21  0  0  1  0  0  0  0  0999 V2000
   18.1505  -10.2164  -17.2045 N   0  0  0  0  0  0  0  0  0  0  0  0
   19.4673   -9.7297  -17.4678 C   0  0  1  0  0  0  0  0  0  0  0  0
   19.5074   -8.6787  -18.5663 C   0  0  0  0  0  0  0  0  0  0  0  0
   18.9980   -9.2477  -19.8407 C   0  0  0  0  0  0  0  0  0  0  0  0
   19.7875   -9.8481  -20.8275 C   0  0  0  0  0  0  0  0  0  0  0  0
   19.0027  -10.2448  -21.8321 N   0  0  0  0  0  0  0  0  0  0  0  0
   17.7437   -9.9086  -21.4997 C   0  0  0  0  0  0  0  0  0  0  0  0
   17.7392   -9.2979  -20.2807 N   0  0  0  0  0  0  0  0  0  0  0  0
   20.1367   -9.1583  -16.2649 C   0  0  0  0  0  0  0  0  0  0  0  0
   19.3883   -8.5626  -15.4424 O   0  0  0  0  0  0  0  0  0  0  0  0
   23.0737  -10.7098  -14.0242 O   0  0  0  0  0  0  0  0  0  0  0  0
   23.3547   -9.4134  -14.4490 C   0  0  0  0  0  0  0  0  0  0  0  0
   22.1109   -8.6735  -14.8623 C   0  0  2  0  0  0  0  0  0  0  0  0
   21.5319   -9.2685  -16.0419 N   0  0  0  0  0  0  0  0  0  0  0  0
   22.3228   -7.2173  -15.0131 C   0  0  0  0  0  0  0  0  0  0  0  0
   22.6926   -6.7553  -16.1238 O   0  0  0  0  0  0  0  0  0  0  0  0
   22.1179   -6.3265  -13.9310 N   0  0  0  0  0  0  0  0  0  0  0  0
   22.3208   -4.9007  -14.0209 C   0  0  0  0  0  0  0  0  0  0  0  0
   21.1206   -4.1613  -14.4083 C   0  0  0  0  0  0  0  0  0  0  0  0
   21.1618   -2.7801  -14.4921 O   0  0  0  0  0  0  0  0  0  0  0  0
   20.0353   -4.7321  -14.6730 O   0  0  0  0  0  0  0  0  0  0  0  0
  2  1  1  1
  2  3  1  0
  3  4  1  0
  4  8  1  0
  5  4  2  0
  5  6  1  0
  6  7  1  0
  8  7  2  0
  9 14  1  0
  9  2  1  0
 10  9  2  0
 12 11  1  0
 13 12  1  6
 13 14  1  0
 15 13  1  0
 15 17  1  0
 16 15  2  0
 18 17  1  0
 18 19  1  0
 19 20  1  0
 21 19  2  0
M  END
$$$$
