HSG.pdb
     RDKit          3D

 21 21  0  0  1  0  0  0  0  0999 V2000
   24.5280  -25.2415  -14.9979 N   0  0  0  0  0  0  0  0  0  0  0  0
   25.0952  -23.9751  -14.6594 C   0  0  1  0  0  0  0  0  0  0  0  0
   25.5196  -23.1660  -15.8752 C   0  0  0  0  0  0  0  0  0  0  0  0
   26.5993  -23.8729  -16.6115 C   0  0  0  0  0  0  0  0  0  0  0  0
   27.9507  -23.8792  -16.2495 C   0  0  0  0  0  0  0  0  0  0  0  0
   28.6349  -24.6115  -17.1316 N   0  0  0  0  0  0  0  0  0  0  0  0
   27.7474  -25.0633  -18.0353 C   0  0  0  0  0  0  0  0  0  0  0  0
   26.5005  -24.6119  -17.7182 N   0  0  0  0  0  0  0  0  0  0  0  0
   24.1889  -23.1232  -13.8381 C   0  0  0  0  0  0  0  0  0  0  0  0
   22.9557  -23.2252  -14.0841 O   0  0  0  0  0  0  0  0  0  0  0  0
   24.8344  -21.6827   -9.9676 O   0  0  0  0  0  0  0  0  0  0  0  0
   24.4111  -20.7674  -10.9284 C   0  0  0  0  0  0  0  0  0  0  0  0
   23.7292  -21.4422  -12.0881 C   0  0  2  0  0  0  0  0  0  0  0  0
   24.6673  -22.2440  -12.8349 N   0  0  0  0  0  0  0  0  0  0  0  0
   22.9812  -20.5019  -12.9510 C   0  0  0  0  0  0  0  0  0  0  0  0
   23.5948  -19.8456  -13.8322 O   0  0  0  0  0  0  0  0  0  0  0  0
   21.5835  -20.3224  -12.8077 N   0  0  0  0  0  0  0  0  0  0  0  0
   20.8127  -19.3926  -13.5972 C   0  0  0  0  0  0  0  0  0  0  0  0
   19.4176  -19.2810  -13.1746 C   0  0  0  0  0  0  0  0  0  0  0  0
   18.8922  -20.2056  -12.2883 O   0  0  0  0  0  0  0  0  0  0  0  0
   18.6612  -18.3687  -13.5862 O   0  0  0  0  0  0  0  0  0  0  0  0
  2  1  1  6
  2  3  1  0
  3  4  1  0
  4  8  1  0
  5  4  2  0
  5  6  1  0
  6  7  1  0
  8  7  2  0
  9 14  1  0
  9  2  1  0
 10  9  2  0
 12 11  1  0
 13 12  1  1
 13 14  1  0
 15 13  1  0
 15 17  1  0
 16 15  2  0
 18 17  1  0
 18 19  1  0
 19 20  1  0
 21 19  2  0
M  END
$$$$
