HSG.pdb
     RDKit          3D

 21 21  0  0  1  0  0  0  0  0999 V2000
   26.0440  -35.7939   -7.0991 N   0  0  0  0  0  0  0  0  0  0  0  0
   26.9289  -34.8120   -6.5577 C   0  0  1  0  0  0  0  0  0  0  0  0
   26.3223  -33.4180   -6.5177 C   0  0  0  0  0  0  0  0  0  0  0  0
   26.0270  -32.9463   -7.8953 C   0  0  0  0  0  0  0  0  0  0  0  0
   26.9776  -32.4714   -8.8054 C   0  0  0  0  0  0  0  0  0  0  0  0
   26.3631  -32.1351   -9.9419 N   0  0  0  0  0  0  0  0  0  0  0  0
   25.0538  -32.3871   -9.7668 C   0  0  0  0  0  0  0  0  0  0  0  0
   24.8464  -32.8838   -8.5141 N   0  0  0  0  0  0  0  0  0  0  0  0
   27.4069  -35.1413   -5.1849 C   0  0  0  0  0  0  0  0  0  0  0  0
   26.5334  -35.5630   -4.3783 O   0  0  0  0  0  0  0  0  0  0  0  0
   31.0668  -35.9355   -2.1089 O   0  0  0  0  0  0  0  0  0  0  0  0
   30.6566  -35.4700   -3.3560 C   0  0  0  0  0  0  0  0  0  0  0  0
   29.1577  -35.3818   -3.4596 C   0  0  2  0  0  0  0  0  0  0  0  0
   28.7604  -34.9951   -4.7913 N   0  0  0  0  0  0  0  0  0  0  0  0
   28.5518  -34.5213   -2.4199 C   0  0  0  0  0  0  0  0  0  0  0  0
   28.4090  -33.2902   -2.6385 O   0  0  0  0  0  0  0  0  0  0  0  0
   28.1266  -35.0537   -1.1780 N   0  0  0  0  0  0  0  0  0  0  0  0
   27.5786  -34.2518   -0.1110 C   0  0  0  0  0  0  0  0  0  0  0  0
   27.2590  -35.0174    1.0927 C   0  0  0  0  0  0  0  0  0  0  0  0
   26.7951  -34.3622    2.2206 O   0  0  0  0  0  0  0  0  0  0  0  0
   27.3884  -36.2638    1.1510 O   0  0  0  0  0  0  0  0  0  0  0  0
  2  1  1  1
  2  3  1  0
  3  4  1  0
  4  8  1  0
  5  4  2  0
  5  6  1  0
  6  7  1  0
  8  7  2  0
  9 14  1  0
  9  2  1  0
 10  9  2  0
 12 11  1  0
 13 12  1  6
 13 14  1  0
 15 13  1  0
 15 17  1  0
 16 15  2  0
 18 17  1  0
 18 19  1  0
 19 20  1  0
 21 19  2  0
M  END
$$$$
