HSG.pdb
     RDKit          3D

 21 21  0  0  1  0  0  0  0  0999 V2000
   20.6429  -13.2407  -17.5481 N   0  0  0  0  0  0  0  0  0  0  0  0
   19.9554  -12.6952  -16.4212 C   0  0  1  0  0  0  0  0  0  0  0  0
   20.3692  -13.3311  -15.1032 C   0  0  0  0  0  0  0  0  0  0  0  0
   20.0505  -14.7823  -15.1104 C   0  0  0  0  0  0  0  0  0  0  0  0
   20.9878  -15.8124  -15.2436 C   0  0  0  0  0  0  0  0  0  0  0  0
   20.3533  -16.9865  -15.2080 N   0  0  0  0  0  0  0  0  0  0  0  0
   19.0444  -16.7180  -15.0560 C   0  0  0  0  0  0  0  0  0  0  0  0
   18.8573  -15.3688  -14.9961 N   0  0  0  0  0  0  0  0  0  0  0  0
   20.1195  -11.2198  -16.2874 C   0  0  0  0  0  0  0  0  0  0  0  0
   21.2875  -10.7730  -16.4532 O   0  0  0  0  0  0  0  0  0  0  0  0
   17.0643   -8.4153  -15.1446 O   0  0  0  0  0  0  0  0  0  0  0  0
   17.9319   -8.2070  -16.2142 C   0  0  0  0  0  0  0  0  0  0  0  0
   19.2406   -8.9264  -16.0269 C   0  0  2  0  0  0  0  0  0  0  0  0
   19.0372  -10.3541  -15.9915 N   0  0  0  0  0  0  0  0  0  0  0  0
   20.0114   -8.4392  -14.8621 C   0  0  0  0  0  0  0  0  0  0  0  0
   20.0073   -9.1032  -13.7930 O   0  0  0  0  0  0  0  0  0  0  0  0
   20.7575   -7.2366  -14.9225 N   0  0  0  0  0  0  0  0  0  0  0  0
   21.5407   -6.7267  -13.8232 C   0  0  0  0  0  0  0  0  0  0  0  0
   22.2264   -5.4713  -14.1250 C   0  0  0  0  0  0  0  0  0  0  0  0
   22.9343   -4.8189  -13.1301 O   0  0  0  0  0  0  0  0  0  0  0  0
   22.2021   -4.9490  -15.2653 O   0  0  0  0  0  0  0  0  0  0  0  0
  2  1  1  6
  2  3  1  0
  3  4  1  0
  4  8  1  0
  5  4  2  0
  5  6  1  0
  6  7  1  0
  8  7  2  0
  9 14  1  0
  9  2  1  0
 10  9  2  0
 12 11  1  0
 13 12  1  1
 13 14  1  0
 15 13  1  0
 15 17  1  0
 16 15  2  0
 18 17  1  0
 18 19  1  0
 19 20  1  0
 21 19  2  0
M  END
$$$$
