GVC.pdb
     RDKit          3D

 18 17  0  0  1  0  0  0  0  0999 V2000
    7.0469  -14.2430   20.3604 N   0  0  0  0  0  0  0  0  0  0  0  0
    6.3563  -14.2684   21.6323 C   0  0  0  0  0  0  0  0  0  0  0  0
    7.3385  -14.1141   22.7274 C   0  0  0  0  0  0  0  0  0  0  0  0
    8.5468  -14.3232   22.4844 O   0  0  0  0  0  0  0  0  0  0  0  0
    6.0672  -13.3412   26.7755 C   0  0  0  0  0  0  0  0  0  0  0  0
    7.3413  -12.8337   26.2084 C   0  0  2  0  0  0  0  0  0  0  0  0
    7.1670  -11.4034   25.7637 C   0  0  0  0  0  0  0  0  0  0  0  0
    7.9282  -13.7218   25.1694 C   0  0  2  0  0  0  0  0  0  0  0  0
    6.9627  -13.7367   24.0478 N   0  0  0  0  0  0  0  0  0  0  0  0
    8.2554  -15.0838   25.5745 C   0  0  0  0  0  0  0  0  0  0  0  0
    7.3792  -16.0213   25.6181 O   0  0  0  0  0  0  0  0  0  0  0  0
    9.5529  -15.4894   25.9484 N   0  0  0  0  0  0  0  0  0  0  0  0
    9.8474  -16.8814   26.3313 C   0  0  1  0  0  0  0  0  0  0  0  0
   11.0076  -17.3091   25.4557 C   0  0  0  0  0  0  0  0  0  0  0  0
   11.5265  -18.9519   26.0083 S   0  0  0  0  0  0  0  0  0  0  0  0
   10.2067  -16.9386   27.7731 C   0  0  0  0  0  0  0  0  0  0  0  0
   10.1743  -18.1482   28.4266 O   0  0  0  0  0  0  0  0  0  0  0  0
   10.5390  -15.9153   28.4121 O   0  0  0  0  0  0  0  0  0  0  0  0
  2  3  1  0
  2  1  1  0
  3  4  2  0
  6  5  1  6
  6  7  1  0
  6  8  1  0
  8 10  1  0
  8  9  1  6
  9  3  1  0
 10 11  2  0
 10 12  1  0
 12 13  1  0
 13 16  1  0
 13 14  1  6
 14 15  1  0
 16 18  2  0
 16 17  1  0
M  END
$$$$
