GVC.pdb
     RDKit          3D

 18 17  0  0  1  0  0  0  0  0999 V2000
    7.1185  -18.1865   17.7385 N   0  0  0  0  0  0  0  0  0  0  0  0
    6.5004  -17.3748   18.7654 C   0  0  0  0  0  0  0  0  0  0  0  0
    7.5468  -16.6284   19.4975 C   0  0  0  0  0  0  0  0  0  0  0  0
    8.7062  -17.0948   19.5293 O   0  0  0  0  0  0  0  0  0  0  0  0
    6.7723  -12.9613   21.8436 C   0  0  0  0  0  0  0  0  0  0  0  0
    7.9362  -13.2658   20.9747 C   0  0  2  0  0  0  0  0  0  0  0  0
    7.7111  -12.6870   19.6005 C   0  0  0  0  0  0  0  0  0  0  0  0
    8.3174  -14.7036   20.9692 C   0  0  2  0  0  0  0  0  0  0  0  0
    7.2862  -15.3996   20.1676 N   0  0  0  0  0  0  0  0  0  0  0  0
    8.4716  -15.3497   22.2673 C   0  0  0  0  0  0  0  0  0  0  0  0
    7.4725  -15.7861   22.9452 O   0  0  0  0  0  0  0  0  0  0  0  0
    9.7218  -15.5533   22.8866 N   0  0  0  0  0  0  0  0  0  0  0  0
    9.8444  -16.2912   24.1561 C   0  0  1  0  0  0  0  0  0  0  0  0
    9.4534  -17.7200   23.8374 C   0  0  0  0  0  0  0  0  0  0  0  0
    9.7752  -18.7122   25.3157 S   0  0  0  0  0  0  0  0  0  0  0  0
   11.2450  -16.2098   24.6491 C   0  0  0  0  0  0  0  0  0  0  0  0
   11.5361  -16.6429   25.9215 O   0  0  0  0  0  0  0  0  0  0  0  0
   12.1702  -15.7573   23.9383 O   0  0  0  0  0  0  0  0  0  0  0  0
  2  3  1  0
  2  1  1  0
  3  4  2  0
  6  5  1  1
  6  7  1  0
  6  8  1  0
  8 10  1  0
  8  9  1  6
  9  3  1  0
 10 11  2  0
 10 12  1  0
 12 13  1  0
 13 16  1  0
 13 14  1  6
 14 15  1  0
 16 18  2  0
 16 17  1  0
M  END
$$$$
