GVC.pdb
     RDKit          3D

 18 17  0  0  1  0  0  0  0  0999 V2000
    4.3144  -18.3126   20.8276 N   0  0  0  0  0  0  0  0  0  0  0  0
    4.5604  -16.9685   21.3053 C   0  0  0  0  0  0  0  0  0  0  0  0
    6.0014  -16.6590   21.1805 C   0  0  0  0  0  0  0  0  0  0  0  0
    6.7944  -17.5882   20.9150 O   0  0  0  0  0  0  0  0  0  0  0  0
    7.6808  -12.6228   21.7130 C   0  0  0  0  0  0  0  0  0  0  0  0
    8.0218  -13.6336   20.6812 C   0  0  2  0  0  0  0  0  0  0  0  0
    7.2080  -13.3852   19.4363 C   0  0  0  0  0  0  0  0  0  0  0  0
    7.9582  -15.0354   21.1746 C   0  0  2  0  0  0  0  0  0  0  0  0
    6.5216  -15.3447   21.3508 N   0  0  0  0  0  0  0  0  0  0  0  0
    8.6953  -15.3388   22.3956 C   0  0  0  0  0  0  0  0  0  0  0  0
    8.1853  -15.1939   23.5649 O   0  0  0  0  0  0  0  0  0  0  0  0
   10.0216  -15.8170   22.4002 N   0  0  0  0  0  0  0  0  0  0  0  0
   10.7518  -16.0586   23.6570 C   0  0  1  0  0  0  0  0  0  0  0  0
   10.1129  -17.2877   24.2708 C   0  0  0  0  0  0  0  0  0  0  0  0
   10.2152  -18.6186   23.0495 S   0  0  0  0  0  0  0  0  0  0  0  0
   12.1918  -16.2857   23.3635 C   0  0  0  0  0  0  0  0  0  0  0  0
   13.0758  -16.4311   24.4069 O   0  0  0  0  0  0  0  0  0  0  0  0
   12.6250  -16.3486   22.1912 O   0  0  0  0  0  0  0  0  0  0  0  0
  2  3  1  0
  2  1  1  0
  3  4  2  0
  6  5  1  1
  6  7  1  0
  6  8  1  0
  8 10  1  0
  8  9  1  1
  9  3  1  0
 10 11  2  0
 10 12  1  0
 12 13  1  0
 13 16  1  0
 13 14  1  6
 14 15  1  0
 16 18  2  0
 16 17  1  0
M  END
$$$$
