GVC.pdb
     RDKit          3D

 18 17  0  0  1  0  0  0  0  0999 V2000
    5.1865  -18.6829   19.5970 N   0  0  0  0  0  0  0  0  0  0  0  0
    5.1322  -17.4027   20.2703 C   0  0  0  0  0  0  0  0  0  0  0  0
    6.4890  -16.8156   20.3189 C   0  0  0  0  0  0  0  0  0  0  0  0
    7.4630  -17.5260   19.9879 O   0  0  0  0  0  0  0  0  0  0  0  0
    7.3704  -12.6875   21.6854 C   0  0  0  0  0  0  0  0  0  0  0  0
    8.0275  -13.4901   20.6240 C   0  0  2  0  0  0  0  0  0  0  0  0
    7.4030  -13.1764   19.2879 C   0  0  0  0  0  0  0  0  0  0  0  0
    8.0971  -14.9439   20.9315 C   0  0  2  0  0  0  0  0  0  0  0  0
    6.7302  -15.4733   20.7278 N   0  0  0  0  0  0  0  0  0  0  0  0
    8.5931  -15.3155   22.2514 C   0  0  0  0  0  0  0  0  0  0  0  0
    7.8432  -15.3272   23.2935 O   0  0  0  0  0  0  0  0  0  0  0  0
    9.9285  -15.6947   22.4977 N   0  0  0  0  0  0  0  0  0  0  0  0
   10.3909  -16.0634   23.8473 C   0  0  1  0  0  0  0  0  0  0  0  0
    9.7024  -17.3737   24.1712 C   0  0  0  0  0  0  0  0  0  0  0  0
   10.2542  -18.5914   22.9522 S   0  0  0  0  0  0  0  0  0  0  0  0
   11.8703  -16.2145   23.8455 C   0  0  0  0  0  0  0  0  0  0  0  0
   12.5209  -16.4754   25.0288 O   0  0  0  0  0  0  0  0  0  0  0  0
   12.5436  -16.1111   22.7959 O   0  0  0  0  0  0  0  0  0  0  0  0
  2  3  1  0
  2  1  1  0
  3  4  2  0
  6  5  1  1
  6  7  1  0
  6  8  1  0
  8 10  1  0
  8  9  1  1
  9  3  1  0
 10 11  2  0
 10 12  1  0
 12 13  1  0
 13 16  1  0
 13 14  1  6
 14 15  1  0
 16 18  2  0
 16 17  1  0
M  END
$$$$
