GVC.pdb
     RDKit          3D

 18 17  0  0  1  0  0  0  0  0999 V2000
    5.4469  -18.9560   21.9117 N   0  0  0  0  0  0  0  0  0  0  0  0
    5.3067  -17.5220   22.0510 C   0  0  0  0  0  0  0  0  0  0  0  0
    6.6437  -16.8910   22.0026 C   0  0  0  0  0  0  0  0  0  0  0  0
    7.6555  -17.6208   22.0827 O   0  0  0  0  0  0  0  0  0  0  0  0
    7.3456  -12.5258   21.5913 C   0  0  0  0  0  0  0  0  0  0  0  0
    8.0319  -13.6679   20.9376 C   0  0  2  0  0  0  0  0  0  0  0  0
    7.3877  -13.9538   19.6045 C   0  0  0  0  0  0  0  0  0  0  0  0
    8.1663  -14.8636   21.8122 C   0  0  2  0  0  0  0  0  0  0  0  0
    6.8243  -15.4852   21.8683 N   0  0  0  0  0  0  0  0  0  0  0  0
    8.6783  -14.6411   23.1592 C   0  0  0  0  0  0  0  0  0  0  0  0
    9.8974  -14.3104   23.3893 O   0  0  0  0  0  0  0  0  0  0  0  0
    7.8858  -14.7653   24.3186 N   0  0  0  0  0  0  0  0  0  0  0  0
    8.4451  -14.5470   25.6642 C   0  0  1  0  0  0  0  0  0  0  0  0
    7.3301  -13.9149   26.4723 C   0  0  0  0  0  0  0  0  0  0  0  0
    6.6381  -12.5692   25.4806 S   0  0  0  0  0  0  0  0  0  0  0  0
    8.8671  -15.8480   26.2479 C   0  0  0  0  0  0  0  0  0  0  0  0
    9.4459  -15.8690   27.4953 O   0  0  0  0  0  0  0  0  0  0  0  0
    8.7109  -16.9282   25.6360 O   0  0  0  0  0  0  0  0  0  0  0  0
  2  3  1  0
  2  1  1  0
  3  4  2  0
  6  5  1  1
  6  7  1  0
  6  8  1  0
  8 10  1  0
  8  9  1  1
  9  3  1  0
 10 11  2  0
 10 12  1  0
 12 13  1  0
 13 16  1  0
 13 14  1  1
 14 15  1  0
 16 18  2  0
 16 17  1  0
M  END
$$$$
