GVC.pdb
     RDKit          3D

 18 17  0  0  1  0  0  0  0  0999 V2000
    6.4196  -19.1877   24.2047 N   0  0  0  0  0  0  0  0  0  0  0  0
    6.0394  -18.1249   25.1110 C   0  0  0  0  0  0  0  0  0  0  0  0
    6.8404  -16.9172   24.8150 C   0  0  0  0  0  0  0  0  0  0  0  0
    7.7818  -17.0063   23.9975 O   0  0  0  0  0  0  0  0  0  0  0  0
    7.2213  -11.9893   25.1376 C   0  0  0  0  0  0  0  0  0  0  0  0
    6.5735  -13.2847   25.4610 C   0  0  2  0  0  0  0  0  0  0  0  0
    6.0393  -13.2492   26.8707 C   0  0  0  0  0  0  0  0  0  0  0  0
    7.4258  -14.4682   25.1679 C   0  0  2  0  0  0  0  0  0  0  0  0
    6.5818  -15.6566   25.4242 N   0  0  0  0  0  0  0  0  0  0  0  0
    8.6831  -14.5724   25.8989 C   0  0  0  0  0  0  0  0  0  0  0  0
    9.5671  -13.6413   25.8899 O   0  0  0  0  0  0  0  0  0  0  0  0
    9.0354  -15.6944   26.6766 N   0  0  0  0  0  0  0  0  0  0  0  0
   10.2344  -15.6957   27.5330 C   0  0  1  0  0  0  0  0  0  0  0  0
    9.8569  -14.8994   28.7655 C   0  0  0  0  0  0  0  0  0  0  0  0
   10.2132  -13.1602   28.4168 S   0  0  0  0  0  0  0  0  0  0  0  0
   10.5986  -17.0946   27.8821 C   0  0  0  0  0  0  0  0  0  0  0  0
   11.6982  -17.3250   28.6753 O   0  0  0  0  0  0  0  0  0  0  0  0
    9.9322  -18.0720   27.4743 O   0  0  0  0  0  0  0  0  0  0  0  0
  2  3  1  0
  2  1  1  0
  3  4  2  0
  6  5  1  1
  6  7  1  0
  6  8  1  0
  8 10  1  0
  8  9  1  1
  9  3  1  0
 10 11  2  0
 10 12  1  0
 12 13  1  0
 13 16  1  0
 13 14  1  1
 14 15  1  0
 16 18  2  0
 16 17  1  0
M  END
$$$$
