GVC.pdb
     RDKit          3D

 18 17  0  0  1  0  0  0  0  0999 V2000
    4.4051  -18.2586   20.2971 N   0  0  0  0  0  0  0  0  0  0  0  0
    4.4544  -16.9572   20.9291 C   0  0  0  0  0  0  0  0  0  0  0  0
    5.8623  -16.6001   21.2084 C   0  0  0  0  0  0  0  0  0  0  0  0
    6.6666  -17.5115   21.5004 O   0  0  0  0  0  0  0  0  0  0  0  0
    7.3206  -12.4568   21.7789 C   0  0  0  0  0  0  0  0  0  0  0  0
    7.9595  -13.5361   20.9855 C   0  0  2  0  0  0  0  0  0  0  0  0
    7.5877  -13.3877   19.5317 C   0  0  0  0  0  0  0  0  0  0  0  0
    7.7240  -14.8990   21.5329 C   0  0  2  0  0  0  0  0  0  0  0  0
    6.3384  -15.2592   21.1580 N   0  0  0  0  0  0  0  0  0  0  0  0
    7.9239  -15.0774   22.9662 C   0  0  0  0  0  0  0  0  0  0  0  0
    7.2734  -14.4030   23.8440 O   0  0  0  0  0  0  0  0  0  0  0  0
    8.8395  -16.0009   23.5109 N   0  0  0  0  0  0  0  0  0  0  0  0
    9.1154  -16.0544   24.9572 C   0  0  1  0  0  0  0  0  0  0  0  0
    8.3219  -17.2342   25.4810 C   0  0  0  0  0  0  0  0  0  0  0  0
    6.5676  -16.8243   25.3136 S   0  0  0  0  0  0  0  0  0  0  0  0
   10.5737  -16.2394   25.1821 C   0  0  0  0  0  0  0  0  0  0  0  0
   11.0564  -16.2734   26.4694 O   0  0  0  0  0  0  0  0  0  0  0  0
   11.3778  -16.3655   24.2317 O   0  0  0  0  0  0  0  0  0  0  0  0
  2  3  1  0
  2  1  1  0
  3  4  2  0
  6  5  1  1
  6  7  1  0
  6  8  1  0
  8 10  1  0
  8  9  1  1
  9  3  1  0
 10 11  2  0
 10 12  1  0
 12 13  1  0
 13 16  1  0
 13 14  1  6
 14 15  1  0
 16 18  2  0
 16 17  1  0
M  END
$$$$
