GVC.pdb
     RDKit          3D

 18 17  0  0  1  0  0  0  0  0999 V2000
    5.6392  -19.9540   24.0679 N   0  0  0  0  0  0  0  0  0  0  0  0
    5.6228  -18.7501   24.8715 C   0  0  0  0  0  0  0  0  0  0  0  0
    6.5267  -17.7458   24.2696 C   0  0  0  0  0  0  0  0  0  0  0  0
    7.3062  -18.1069   23.3615 O   0  0  0  0  0  0  0  0  0  0  0  0
    7.8696  -12.9911   23.8788 C   0  0  0  0  0  0  0  0  0  0  0  0
    7.0369  -14.0741   24.4586 C   0  0  2  0  0  0  0  0  0  0  0  0
    6.7317  -13.7643   25.9025 C   0  0  0  0  0  0  0  0  0  0  0  0
    7.5908  -15.4368   24.2375 C   0  0  2  0  0  0  0  0  0  0  0  0
    6.5444  -16.3836   24.6834 N   0  0  0  0  0  0  0  0  0  0  0  0
    8.8614  -15.7448   24.8832 C   0  0  0  0  0  0  0  0  0  0  0  0
    8.9589  -15.9742   26.1426 O   0  0  0  0  0  0  0  0  0  0  0  0
   10.0850  -15.8203   24.1868 N   0  0  0  0  0  0  0  0  0  0  0  0
   11.3258  -16.2584   24.8497 C   0  0  1  0  0  0  0  0  0  0  0  0
   11.1750  -17.7523   25.0527 C   0  0  0  0  0  0  0  0  0  0  0  0
   10.3880  -18.0035   26.6624 S   0  0  0  0  0  0  0  0  0  0  0  0
   12.4935  -15.9442   23.9842 C   0  0  0  0  0  0  0  0  0  0  0  0
   13.7640  -16.1585   24.4653 O   0  0  0  0  0  0  0  0  0  0  0  0
   12.3544  -15.4891   22.8269 O   0  0  0  0  0  0  0  0  0  0  0  0
  2  3  1  0
  2  1  1  0
  3  4  2  0
  6  5  1  1
  6  7  1  0
  6  8  1  0
  8 10  1  0
  8  9  1  1
  9  3  1  0
 10 11  2  0
 10 12  1  0
 12 13  1  0
 13 16  1  0
 13 14  1  6
 14 15  1  0
 16 18  2  0
 16 17  1  0
M  END
$$$$
