GVC.pdb
     RDKit          3D

 18 17  0  0  1  0  0  0  0  0999 V2000
    7.8118  -17.7971   16.9312 N   0  0  0  0  0  0  0  0  0  0  0  0
    7.1058  -17.1649   18.0255 C   0  0  0  0  0  0  0  0  0  0  0  0
    8.0725  -16.4447   18.8826 C   0  0  0  0  0  0  0  0  0  0  0  0
    9.2839  -16.7430   18.8035 O   0  0  0  0  0  0  0  0  0  0  0  0
    6.8758  -13.4780   21.9166 C   0  0  0  0  0  0  0  0  0  0  0  0
    8.0975  -13.4719   21.0740 C   0  0  2  0  0  0  0  0  0  0  0  0
    7.8702  -12.6161   19.8534 C   0  0  0  0  0  0  0  0  0  0  0  0
    8.6199  -14.8310   20.7698 C   0  0  2  0  0  0  0  0  0  0  0  0
    7.6782  -15.4249   19.7946 N   0  0  0  0  0  0  0  0  0  0  0  0
    8.8132  -15.7313   21.9004 C   0  0  0  0  0  0  0  0  0  0  0  0
    7.8346  -16.3001   22.5062 O   0  0  0  0  0  0  0  0  0  0  0  0
   10.0819  -16.0568   22.4222 N   0  0  0  0  0  0  0  0  0  0  0  0
   10.2344  -16.9573   23.5784 C   0  0  1  0  0  0  0  0  0  0  0  0
   10.5720  -18.3151   22.9969 C   0  0  0  0  0  0  0  0  0  0  0  0
   12.0259  -18.1056   21.9406 S   0  0  0  0  0  0  0  0  0  0  0  0
   11.3232  -16.4596   24.4605 C   0  0  0  0  0  0  0  0  0  0  0  0
   11.6146  -17.1412   25.6189 O   0  0  0  0  0  0  0  0  0  0  0  0
   11.9847  -15.4353   24.1794 O   0  0  0  0  0  0  0  0  0  0  0  0
  2  3  1  0
  2  1  1  0
  3  4  2  0
  6  5  1  6
  6  7  1  0
  6  8  1  0
  8 10  1  0
  8  9  1  6
  9  3  1  0
 10 11  2  0
 10 12  1  0
 12 13  1  0
 13 16  1  0
 13 14  1  6
 14 15  1  0
 16 18  2  0
 16 17  1  0
M  END
$$$$
