GVC.pdb
     RDKit          3D

 18 17  0  0  1  0  0  0  0  0999 V2000
    4.7971  -19.4682   24.1686 N   0  0  0  0  0  0  0  0  0  0  0  0
    5.4009  -18.6197   25.1741 C   0  0  0  0  0  0  0  0  0  0  0  0
    6.1866  -17.5560   24.5115 C   0  0  0  0  0  0  0  0  0  0  0  0
    6.4182  -17.6546   23.2870 O   0  0  0  0  0  0  0  0  0  0  0  0
    8.1114  -14.2249   26.6846 C   0  0  0  0  0  0  0  0  0  0  0  0
    7.4458  -14.1801   25.3589 C   0  0  2  0  0  0  0  0  0  0  0  0
    6.0190  -13.7197   25.5206 C   0  0  0  0  0  0  0  0  0  0  0  0
    7.5898  -15.4366   24.5757 C   0  0  2  0  0  0  0  0  0  0  0  0
    6.6900  -16.4239   25.2129 N   0  0  0  0  0  0  0  0  0  0  0  0
    8.9352  -15.9844   24.4497 C   0  0  0  0  0  0  0  0  0  0  0  0
    9.4384  -16.7874   25.3159 O   0  0  0  0  0  0  0  0  0  0  0  0
    9.7946  -15.6857   23.3726 N   0  0  0  0  0  0  0  0  0  0  0  0
   11.0233  -16.4606   23.1263 C   0  0  1  0  0  0  0  0  0  0  0  0
   11.4674  -16.0880   21.7264 C   0  0  0  0  0  0  0  0  0  0  0  0
   12.9989  -16.9893   21.3860 S   0  0  0  0  0  0  0  0  0  0  0  0
   12.0537  -16.0996   24.1359 C   0  0  0  0  0  0  0  0  0  0  0  0
   12.9296  -17.0637   24.5769 O   0  0  0  0  0  0  0  0  0  0  0  0
   12.1481  -14.9406   24.5980 O   0  0  0  0  0  0  0  0  0  0  0  0
  2  3  1  0
  2  1  1  0
  3  4  2  0
  6  5  1  1
  6  7  1  0
  6  8  1  0
  8 10  1  0
  8  9  1  1
  9  3  1  0
 10 11  2  0
 10 12  1  0
 12 13  1  0
 13 16  1  0
 13 14  1  6
 14 15  1  0
 16 18  2  0
 16 17  1  0
M  END
$$$$
