GVC.pdb
     RDKit          3D

 18 17  0  0  1  0  0  0  0  0999 V2000
    7.4775  -19.6093   19.2125 N   0  0  0  0  0  0  0  0  0  0  0  0
    6.8387  -18.4015   19.6907 C   0  0  0  0  0  0  0  0  0  0  0  0
    7.8103  -17.2867   19.6595 C   0  0  0  0  0  0  0  0  0  0  0  0
    9.0195  -17.5487   19.4804 O   0  0  0  0  0  0  0  0  0  0  0  0
    8.4701  -12.3861   19.2967 C   0  0  0  0  0  0  0  0  0  0  0  0
    7.6251  -13.5788   19.5537 C   0  0  2  0  0  0  0  0  0  0  0  0
    6.6094  -13.2627   20.6224 C   0  0  0  0  0  0  0  0  0  0  0  0
    8.4051  -14.8192   19.8099 C   0  0  2  0  0  0  0  0  0  0  0  0
    7.4233  -15.9266   19.8254 N   0  0  0  0  0  0  0  0  0  0  0  0
    9.2201  -14.8476   21.0187 C   0  0  0  0  0  0  0  0  0  0  0  0
   10.3175  -14.1903   21.1279 O   0  0  0  0  0  0  0  0  0  0  0  0
    8.8765  -15.5911   22.1663 N   0  0  0  0  0  0  0  0  0  0  0  0
    9.6729  -15.5149   23.4036 C   0  0  1  0  0  0  0  0  0  0  0  0
    8.6715  -15.5831   24.5387 C   0  0  0  0  0  0  0  0  0  0  0  0
    7.6302  -14.1073   24.4318 S   0  0  0  0  0  0  0  0  0  0  0  0
   10.6284  -16.6533   23.4548 C   0  0  0  0  0  0  0  0  0  0  0  0
   11.5400  -16.7202   24.4823 O   0  0  0  0  0  0  0  0  0  0  0  0
   10.6278  -17.5555   22.5878 O   0  0  0  0  0  0  0  0  0  0  0  0
  2  3  1  0
  2  1  1  0
  3  4  2  0
  6  5  1  1
  6  7  1  0
  6  8  1  0
  8 10  1  0
  8  9  1  1
  9  3  1  0
 10 11  2  0
 10 12  1  0
 12 13  1  0
 13 16  1  0
 13 14  1  1
 14 15  1  0
 16 18  2  0
 16 17  1  0
M  END
$$$$
