GVC.pdb
     RDKit          3D

 18 17  0  0  1  0  0  0  0  0999 V2000
    5.4732  -17.8760   22.8932 N   0  0  0  0  0  0  0  0  0  0  0  0
    5.2579  -17.0675   24.0745 C   0  0  0  0  0  0  0  0  0  0  0  0
    6.4701  -16.2652   24.3480 C   0  0  0  0  0  0  0  0  0  0  0  0
    7.5085  -16.5040   23.6943 O   0  0  0  0  0  0  0  0  0  0  0  0
    6.6802  -13.2067   27.5089 C   0  0  0  0  0  0  0  0  0  0  0  0
    7.3540  -13.1918   26.1867 C   0  0  2  0  0  0  0  0  0  0  0  0
    6.5222  -12.4119   25.1999 C   0  0  0  0  0  0  0  0  0  0  0  0
    7.7546  -14.5411   25.7053 C   0  0  2  0  0  0  0  0  0  0  0  0
    6.5015  -15.2315   25.3266 N   0  0  0  0  0  0  0  0  0  0  0  0
    8.5295  -15.3658   26.6248 C   0  0  0  0  0  0  0  0  0  0  0  0
    7.9854  -16.0545   27.5618 O   0  0  0  0  0  0  0  0  0  0  0  0
    9.9334  -15.4815   26.5649 N   0  0  0  0  0  0  0  0  0  0  0  0
   10.6669  -16.4390   27.4112 C   0  0  1  0  0  0  0  0  0  0  0  0
   11.9261  -16.7830   26.6419 C   0  0  0  0  0  0  0  0  0  0  0  0
   12.8252  -15.2392   26.3563 S   0  0  0  0  0  0  0  0  0  0  0  0
   10.9865  -15.8082   28.7194 C   0  0  0  0  0  0  0  0  0  0  0  0
   11.6169  -16.5527   29.6887 O   0  0  0  0  0  0  0  0  0  0  0  0
   10.6979  -14.6157   28.9657 O   0  0  0  0  0  0  0  0  0  0  0  0
  2  3  1  0
  2  1  1  0
  3  4  2  0
  6  5  1  1
  6  7  1  0
  6  8  1  0
  8 10  1  0
  8  9  1  1
  9  3  1  0
 10 11  2  0
 10 12  1  0
 12 13  1  0
 13 16  1  0
 13 14  1  6
 14 15  1  0
 16 18  2  0
 16 17  1  0
M  END
$$$$
