GVC.pdb
     RDKit          3D

 18 17  0  0  1  0  0  0  0  0999 V2000
    7.2315  -14.3806   20.3393 N   0  0  0  0  0  0  0  0  0  0  0  0
    6.4928  -14.6474   21.5553 C   0  0  0  0  0  0  0  0  0  0  0  0
    7.3307  -14.3024   22.7244 C   0  0  0  0  0  0  0  0  0  0  0  0
    8.5738  -14.2978   22.5921 O   0  0  0  0  0  0  0  0  0  0  0  0
    6.4605  -11.6939   25.5706 C   0  0  0  0  0  0  0  0  0  0  0  0
    6.8567  -12.9990   26.1554 C   0  0  2  0  0  0  0  0  0  0  0  0
    7.5536  -12.7758   27.4740 C   0  0  0  0  0  0  0  0  0  0  0  0
    7.6098  -13.8710   25.2146 C   0  0  2  0  0  0  0  0  0  0  0  0
    6.7778  -13.9753   23.9950 N   0  0  0  0  0  0  0  0  0  0  0  0
    7.9741  -15.1988   25.6945 C   0  0  0  0  0  0  0  0  0  0  0  0
    7.1040  -16.1164   25.9165 O   0  0  0  0  0  0  0  0  0  0  0  0
    9.3038  -15.5905   25.9524 N   0  0  0  0  0  0  0  0  0  0  0  0
    9.6318  -16.9456   26.4291 C   0  0  1  0  0  0  0  0  0  0  0  0
   10.6656  -17.4806   25.4592 C   0  0  0  0  0  0  0  0  0  0  0  0
   12.0571  -16.3243   25.4583 S   0  0  0  0  0  0  0  0  0  0  0  0
   10.1730  -16.8723   27.8122 C   0  0  0  0  0  0  0  0  0  0  0  0
   10.4820  -18.0366   28.4758 O   0  0  0  0  0  0  0  0  0  0  0  0
   10.3565  -15.7790   28.3926 O   0  0  0  0  0  0  0  0  0  0  0  0
  2  3  1  0
  2  1  1  0
  3  4  2  0
  6  5  1  6
  6  7  1  0
  6  8  1  0
  8 10  1  0
  8  9  1  6
  9  3  1  0
 10 11  2  0
 10 12  1  0
 12 13  1  0
 13 16  1  0
 13 14  1  6
 14 15  1  0
 16 18  2  0
 16 17  1  0
M  END
$$$$
