MAH.pdb
     RDKit          3D

 24 24  0  0  1  0  0  0  0  0999 V2000
   25.8450  -21.2307   -9.6107 C   0  0  0  0  0  0  0  0  0  0  0  0
   27.5188  -21.0131  -10.2112 S   0  0  0  0  0  0  0  0  0  0  0  0
   27.6510  -20.2731  -11.8289 C   0  0  0  0  0  0  0  0  0  0  0  0
   26.4802  -20.4623  -12.7260 C   0  0  0  0  0  0  0  0  0  0  0  0
   26.5691  -21.5965  -13.6850 C   0  0  2  0  0  0  0  0  0  0  0  0
   27.7082  -21.5132  -14.5680 N   0  0  0  0  0  0  0  0  0  0  0  0
   25.2896  -21.6661  -14.4436 C   0  0  0  0  0  0  0  0  0  0  0  0
   25.1348  -20.8541  -15.3924 O   0  0  0  0  0  0  0  0  0  0  0  0
   22.3537  -23.8761  -14.7326 C   0  0  0  0  0  0  0  0  0  0  0  0
   23.0163  -22.5452  -14.8986 C   0  0  2  0  0  0  0  0  0  0  0  0
   24.2581  -22.5845  -14.1544 N   0  0  0  0  0  0  0  0  0  0  0  0
   22.1772  -21.3975  -14.5226 C   0  0  0  0  0  0  0  0  0  0  0  0
   22.6751  -20.5312  -13.7603 O   0  0  0  0  0  0  0  0  0  0  0  0
   20.8415  -21.2156  -14.9721 N   0  0  0  0  0  0  0  0  0  0  0  0
   20.3465  -19.9297  -15.4647 C   0  0  1  0  0  0  0  0  0  0  0  0
   21.2280  -19.5455  -16.6393 C   0  0  0  0  0  0  0  0  0  0  0  0
   20.7758  -18.2625  -17.2315 C   0  0  0  0  0  0  0  0  0  0  0  0
   19.7124  -17.4756  -16.8671 C   0  0  0  0  0  0  0  0  0  0  0  0
   19.6593  -16.4161  -17.6668 N   0  0  0  0  0  0  0  0  0  0  0  0
   20.6821  -16.5226  -18.5388 C   0  0  0  0  0  0  0  0  0  0  0  0
   21.3752  -17.6527  -18.2815 N   0  0  0  0  0  0  0  0  0  0  0  0
   18.9229  -19.9864  -15.8019 C   0  0  0  0  0  0  0  0  0  0  0  0
   18.1675  -19.0137  -15.4773 O   0  0  0  0  0  0  0  0  0  0  0  0
   18.3133  -21.0338  -16.4608 O   0  0  0  0  0  0  0  0  0  0  0  0
  2  3  1  0
  2  1  1  0
  4  5  1  0
  4  3  1  0
  5  6  1  6
  7  5  1  0
  7  8  2  0
 10  9  1  1
 10 12  1  0
 10 11  1  0
 11  7  1  0
 12 14  1  0
 13 12  2  0
 14 15  1  0
 15 22  1  0
 15 16  1  6
 17 16  1  0
 18 17  2  0
 19 18  1  0
 20 19  1  0
 20 21  2  0
 21 17  1  0
 22 23  2  0
 22 24  1  0
M  END
$$$$
