MAH.pdb
     RDKit          3D

 24 24  0  0  1  0  0  0  0  0999 V2000
   22.0963  -16.9221  -15.0853 C   0  0  0  0  0  0  0  0  0  0  0  0
   21.1514  -16.9779  -16.6064 S   0  0  0  0  0  0  0  0  0  0  0  0
   21.9227  -16.1832  -18.0047 C   0  0  0  0  0  0  0  0  0  0  0  0
   22.4023  -14.7941  -17.7776 C   0  0  0  0  0  0  0  0  0  0  0  0
   21.5913  -13.7132  -18.4006 C   0  0  2  0  0  0  0  0  0  0  0  0
   21.7309  -13.6461  -19.8359 N   0  0  0  0  0  0  0  0  0  0  0  0
   21.9574  -12.4238  -17.7518 C   0  0  0  0  0  0  0  0  0  0  0  0
   21.8315  -12.3488  -16.5021 O   0  0  0  0  0  0  0  0  0  0  0  0
   23.6512   -9.2749  -18.6707 C   0  0  0  0  0  0  0  0  0  0  0  0
   22.8019  -10.0926  -17.7498 C   0  0  2  0  0  0  0  0  0  0  0  0
   22.4314  -11.2991  -18.4601 N   0  0  0  0  0  0  0  0  0  0  0  0
   21.6327   -9.3822  -17.2101 C   0  0  0  0  0  0  0  0  0  0  0  0
   20.6116   -9.2952  -17.9375 O   0  0  0  0  0  0  0  0  0  0  0  0
   21.5951   -8.7922  -15.9179 N   0  0  0  0  0  0  0  0  0  0  0  0
   20.4446   -8.0265  -15.4370 C   0  0  1  0  0  0  0  0  0  0  0  0
   19.9024   -8.7690  -14.2290 C   0  0  0  0  0  0  0  0  0  0  0  0
   19.1306   -9.9624  -14.6551 C   0  0  0  0  0  0  0  0  0  0  0  0
   18.8500  -10.3951  -15.9266 C   0  0  0  0  0  0  0  0  0  0  0  0
   18.1223  -11.5045  -15.8595 N   0  0  0  0  0  0  0  0  0  0  0  0
   17.9371  -11.7819  -14.5530 C   0  0  0  0  0  0  0  0  0  0  0  0
   18.5519  -10.8417  -13.8033 N   0  0  0  0  0  0  0  0  0  0  0  0
   20.7967   -6.6343  -15.1522 C   0  0  0  0  0  0  0  0  0  0  0  0
   22.0149   -6.3326  -14.9351 O   0  0  0  0  0  0  0  0  0  0  0  0
   19.8950   -5.5917  -15.0984 O   0  0  0  0  0  0  0  0  0  0  0  0
  2  3  1  0
  2  1  1  0
  4  5  1  0
  4  3  1  0
  5  6  1  6
  7  5  1  0
  7  8  2  0
 10  9  1  6
 10 12  1  0
 10 11  1  0
 11  7  1  0
 12 14  1  0
 13 12  2  0
 14 15  1  0
 15 22  1  0
 15 16  1  1
 17 16  1  0
 18 17  2  0
 19 18  1  0
 20 19  1  0
 20 21  2  0
 21 17  1  0
 22 23  2  0
 22 24  1  0
M  END
$$$$
