MAH.pdb
     RDKit          3D

 24 24  0  0  1  0  0  0  0  0999 V2000
   26.4097  -14.7053  -15.1495 C   0  0  0  0  0  0  0  0  0  0  0  0
   27.0706  -16.3074  -14.6953 S   0  0  0  0  0  0  0  0  0  0  0  0
   26.9606  -17.5573  -15.9632 C   0  0  0  0  0  0  0  0  0  0  0  0
   25.6104  -17.7692  -16.5491 C   0  0  0  0  0  0  0  0  0  0  0  0
   24.6244  -18.4682  -15.6812 C   0  0  2  0  0  0  0  0  0  0  0  0
   25.0882  -19.7485  -15.2018 N   0  0  0  0  0  0  0  0  0  0  0  0
   23.3468  -18.5939  -16.4358 C   0  0  0  0  0  0  0  0  0  0  0  0
   22.8675  -17.5456  -16.9405 O   0  0  0  0  0  0  0  0  0  0  0  0
   21.2930  -21.2682  -17.8937 C   0  0  0  0  0  0  0  0  0  0  0  0
   21.4511  -19.8620  -17.4085 C   0  0  2  0  0  0  0  0  0  0  0  0
   22.6581  -19.8132  -16.6095 N   0  0  0  0  0  0  0  0  0  0  0  0
   20.2835  -19.3331  -16.6874 C   0  0  0  0  0  0  0  0  0  0  0  0
   20.2485  -19.4800  -15.4397 O   0  0  0  0  0  0  0  0  0  0  0  0
   19.1991  -18.6687  -17.3211 N   0  0  0  0  0  0  0  0  0  0  0  0
   18.0789  -18.1007  -16.5704 C   0  0  1  0  0  0  0  0  0  0  0  0
   17.7556  -16.7652  -17.2158 C   0  0  0  0  0  0  0  0  0  0  0  0
   18.7573  -15.7427  -16.8254 C   0  0  0  0  0  0  0  0  0  0  0  0
   19.7452  -15.8259  -15.8768 C   0  0  0  0  0  0  0  0  0  0  0  0
   20.4148  -14.6790  -15.8421 N   0  0  0  0  0  0  0  0  0  0  0  0
   19.8600  -13.8650  -16.7628 C   0  0  0  0  0  0  0  0  0  0  0  0
   18.8408  -14.5072  -17.3734 N   0  0  0  0  0  0  0  0  0  0  0  0
   16.9355  -19.0138  -16.5227 C   0  0  0  0  0  0  0  0  0  0  0  0
   16.8620  -19.9633  -17.3683 O   0  0  0  0  0  0  0  0  0  0  0  0
   15.9019  -18.9307  -15.6129 O   0  0  0  0  0  0  0  0  0  0  0  0
  2  3  1  0
  2  1  1  0
  4  5  1  0
  4  3  1  0
  5  6  1  6
  7  5  1  0
  7  8  2  0
 10  9  1  1
 10 12  1  0
 10 11  1  0
 11  7  1  0
 12 14  1  0
 13 12  2  0
 14 15  1  0
 15 22  1  0
 15 16  1  6
 17 16  1  0
 18 17  2  0
 19 18  1  0
 20 19  1  0
 20 21  2  0
 21 17  1  0
 22 23  2  0
 22 24  1  0
M  END
$$$$
