MAH.pdb
     RDKit          3D

 24 24  0  0  1  0  0  0  0  0999 V2000
   28.1397  -18.3955   -6.5371 C   0  0  0  0  0  0  0  0  0  0  0  0
   28.0367  -20.1839   -6.5601 S   0  0  0  0  0  0  0  0  0  0  0  0
   26.8872  -20.8594   -7.7451 C   0  0  0  0  0  0  0  0  0  0  0  0
   26.1487  -19.8670   -8.5703 C   0  0  0  0  0  0  0  0  0  0  0  0
   25.1668  -20.4249   -9.5391 C   0  0  2  0  0  0  0  0  0  0  0  0
   24.8815  -21.8238   -9.3253 N   0  0  0  0  0  0  0  0  0  0  0  0
   25.6757  -20.1719  -10.9156 C   0  0  0  0  0  0  0  0  0  0  0  0
   25.7785  -18.9728  -11.2830 O   0  0  0  0  0  0  0  0  0  0  0  0
   27.4399  -21.7681  -13.6444 C   0  0  0  0  0  0  0  0  0  0  0  0
   26.3155  -20.8859  -13.2021 C   0  0  2  0  0  0  0  0  0  0  0  0
   26.0426  -21.1962  -11.8141 N   0  0  0  0  0  0  0  0  0  0  0  0
   25.1100  -20.9719  -14.0401 C   0  0  0  0  0  0  0  0  0  0  0  0
   24.0986  -21.5400  -13.5565 O   0  0  0  0  0  0  0  0  0  0  0  0
   25.0269  -20.4503  -15.3592 N   0  0  0  0  0  0  0  0  0  0  0  0
   23.7916  -19.8871  -15.9051 C   0  0  1  0  0  0  0  0  0  0  0  0
   23.3745  -18.7662  -14.9703 C   0  0  0  0  0  0  0  0  0  0  0  0
   22.2911  -19.2206  -14.0640 C   0  0  0  0  0  0  0  0  0  0  0  0
   21.7273  -20.4669  -13.9563 C   0  0  0  0  0  0  0  0  0  0  0  0
   20.7809  -20.4388  -13.0243 N   0  0  0  0  0  0  0  0  0  0  0  0
   20.7379  -19.1823  -12.5372 C   0  0  0  0  0  0  0  0  0  0  0  0
   21.6609  -18.4246  -13.1680 N   0  0  0  0  0  0  0  0  0  0  0  0
   23.9571  -19.4532  -17.2935 C   0  0  0  0  0  0  0  0  0  0  0  0
   25.0022  -18.8036  -17.6220 O   0  0  0  0  0  0  0  0  0  0  0  0
   23.0513  -19.6960  -18.3052 O   0  0  0  0  0  0  0  0  0  0  0  0
  2  3  1  0
  2  1  1  0
  4  5  1  0
  4  3  1  0
  5  6  1  1
  7  5  1  0
  7  8  2  0
 10  9  1  6
 10 12  1  0
 10 11  1  0
 11  7  1  0
 12 14  1  0
 13 12  2  0
 14 15  1  0
 15 22  1  0
 15 16  1  1
 17 16  1  0
 18 17  2  0
 19 18  1  0
 20 19  1  0
 20 21  2  0
 21 17  1  0
 22 23  2  0
 22 24  1  0
M  END
$$$$
