MAH.pdb
     RDKit          3D

 24 24  0  0  1  0  0  0  0  0999 V2000
   22.1247  -15.7036  -17.1559 C   0  0  0  0  0  0  0  0  0  0  0  0
   22.7933  -14.0451  -17.2671 S   0  0  0  0  0  0  0  0  0  0  0  0
   24.5393  -13.9100  -16.9279 C   0  0  0  0  0  0  0  0  0  0  0  0
   25.1034  -12.5348  -16.9702 C   0  0  0  0  0  0  0  0  0  0  0  0
   26.5694  -12.4231  -16.7417 C   0  0  2  0  0  0  0  0  0  0  0  0
   27.0041  -13.0223  -15.5022 N   0  0  0  0  0  0  0  0  0  0  0  0
   26.9441  -10.9839  -16.8174 C   0  0  0  0  0  0  0  0  0  0  0  0
   26.7600  -10.2833  -15.7885 O   0  0  0  0  0  0  0  0  0  0  0  0
   28.7365   -8.6872  -19.0714 C   0  0  0  0  0  0  0  0  0  0  0  0
   27.7286   -8.9492  -17.9974 C   0  0  2  0  0  0  0  0  0  0  0  0
   27.4874  -10.3770  -17.9697 N   0  0  0  0  0  0  0  0  0  0  0  0
   26.4845   -8.1762  -18.1299 C   0  0  0  0  0  0  0  0  0  0  0  0
   26.5712   -6.9225  -18.1428 O   0  0  0  0  0  0  0  0  0  0  0  0
   25.1969   -8.7665  -18.2438 N   0  0  0  0  0  0  0  0  0  0  0  0
   23.9760   -7.9702  -18.3712 C   0  0  1  0  0  0  0  0  0  0  0  0
   22.8959   -8.9085  -18.8787 C   0  0  0  0  0  0  0  0  0  0  0  0
   21.6194   -8.1772  -19.0704 C   0  0  0  0  0  0  0  0  0  0  0  0
   21.3631   -6.8389  -18.9086 C   0  0  0  0  0  0  0  0  0  0  0  0
   20.0831   -6.6042  -19.1754 N   0  0  0  0  0  0  0  0  0  0  0  0
   19.5214   -7.7845  -19.5062 C   0  0  0  0  0  0  0  0  0  0  0  0
   20.4552   -8.7583  -19.4454 N   0  0  0  0  0  0  0  0  0  0  0  0
   23.6242   -7.3064  -17.1146 C   0  0  0  0  0  0  0  0  0  0  0  0
   24.1313   -7.7282  -16.0251 O   0  0  0  0  0  0  0  0  0  0  0  0
   22.7661   -6.2317  -17.0079 O   0  0  0  0  0  0  0  0  0  0  0  0
  2  3  1  0
  2  1  1  0
  4  5  1  0
  4  3  1  0
  5  6  1  1
  7  5  1  0
  7  8  2  0
 10  9  1  6
 10 12  1  0
 10 11  1  0
 11  7  1  0
 12 14  1  0
 13 12  2  0
 14 15  1  0
 15 22  1  0
 15 16  1  1
 17 16  1  0
 18 17  2  0
 19 18  1  0
 20 19  1  0
 20 21  2  0
 21 17  1  0
 22 23  2  0
 22 24  1  0
M  END
$$$$
