MAH.pdb
     RDKit          3D

 24 24  0  0  1  0  0  0  0  0999 V2000
   19.0973  -18.2668  -12.1075 C   0  0  0  0  0  0  0  0  0  0  0  0
   18.9914  -16.7446  -13.0463 S   0  0  0  0  0  0  0  0  0  0  0  0
   20.4764  -16.2945  -13.9259 C   0  0  0  0  0  0  0  0  0  0  0  0
   20.4578  -14.9648  -14.5915 C   0  0  0  0  0  0  0  0  0  0  0  0
   19.3767  -14.7501  -15.5911 C   0  0  2  0  0  0  0  0  0  0  0  0
   19.4841  -15.6098  -16.7459 N   0  0  0  0  0  0  0  0  0  0  0  0
   19.3768  -13.3113  -15.9750 C   0  0  0  0  0  0  0  0  0  0  0  0
   20.3341  -12.9011  -16.6812 O   0  0  0  0  0  0  0  0  0  0  0  0
   17.1176  -10.3948  -15.7921 C   0  0  0  0  0  0  0  0  0  0  0  0
   18.4752  -11.0017  -15.9548 C   0  0  2  0  0  0  0  0  0  0  0  0
   18.3705  -12.3996  -15.5911 N   0  0  0  0  0  0  0  0  0  0  0  0
   19.5421  -10.3114  -15.2144 C   0  0  0  0  0  0  0  0  0  0  0  0
   19.7198  -10.6268  -14.0109 O   0  0  0  0  0  0  0  0  0  0  0  0
   20.3784   -9.3130  -15.7827 N   0  0  0  0  0  0  0  0  0  0  0  0
   21.3951   -8.6039  -15.0052 C   0  0  1  0  0  0  0  0  0  0  0  0
   22.6748   -8.6475  -15.8206 C   0  0  0  0  0  0  0  0  0  0  0  0
   23.2024  -10.0326  -15.8871 C   0  0  0  0  0  0  0  0  0  0  0  0
   23.4051  -10.9248  -14.8646 C   0  0  0  0  0  0  0  0  0  0  0  0
   23.9012  -12.0527  -15.3613 N   0  0  0  0  0  0  0  0  0  0  0  0
   24.0161  -11.8851  -16.6942 C   0  0  0  0  0  0  0  0  0  0  0  0
   23.5900  -10.6482  -17.0293 N   0  0  0  0  0  0  0  0  0  0  0  0
   20.9709   -7.2449  -14.6637 C   0  0  0  0  0  0  0  0  0  0  0  0
   20.2167   -6.6079  -15.4683 O   0  0  0  0  0  0  0  0  0  0  0  0
   21.3286   -6.5772  -13.5108 O   0  0  0  0  0  0  0  0  0  0  0  0
  2  3  1  0
  2  1  1  0
  4  5  1  0
  4  3  1  0
  5  6  1  6
  7  5  1  0
  7  8  2  0
 10  9  1  1
 10 12  1  0
 10 11  1  0
 11  7  1  0
 12 14  1  0
 13 12  2  0
 14 15  1  0
 15 22  1  0
 15 16  1  6
 17 16  1  0
 18 17  2  0
 19 18  1  0
 20 19  1  0
 20 21  2  0
 21 17  1  0
 22 23  2  0
 22 24  1  0
M  END
$$$$
