MAH.pdb
     RDKit          3D

 24 24  0  0  1  0  0  0  0  0999 V2000
   31.7001  -22.6646  -10.5005 C   0  0  0  0  0  0  0  0  0  0  0  0
   30.1380  -21.9692  -11.0351 S   0  0  0  0  0  0  0  0  0  0  0  0
   30.2521  -20.3750  -11.8272 C   0  0  0  0  0  0  0  0  0  0  0  0
   28.9631  -19.7712  -12.2575 C   0  0  0  0  0  0  0  0  0  0  0  0
   27.9971  -20.6932  -12.9139 C   0  0  2  0  0  0  0  0  0  0  0  0
   28.5278  -21.3359  -14.0926 N   0  0  0  0  0  0  0  0  0  0  0  0
   26.7558  -19.9283  -13.2167 C   0  0  0  0  0  0  0  0  0  0  0  0
   26.1065  -19.4695  -12.2413 O   0  0  0  0  0  0  0  0  0  0  0  0
   25.1639  -18.3160  -16.0990 C   0  0  0  0  0  0  0  0  0  0  0  0
   25.0724  -18.9250  -14.7357 C   0  0  2  0  0  0  0  0  0  0  0  0
   26.2797  -19.6966  -14.5247 N   0  0  0  0  0  0  0  0  0  0  0  0
   23.8560  -19.7190  -14.5052 C   0  0  0  0  0  0  0  0  0  0  0  0
   23.9160  -20.9574  -14.7107 O   0  0  0  0  0  0  0  0  0  0  0  0
   22.6237  -19.1651  -14.0651 N   0  0  0  0  0  0  0  0  0  0  0  0
   21.4615  -19.9928  -13.7409 C   0  0  1  0  0  0  0  0  0  0  0  0
   21.0148  -19.5884  -12.3475 C   0  0  0  0  0  0  0  0  0  0  0  0
   21.9706  -20.0890  -11.3291 C   0  0  0  0  0  0  0  0  0  0  0  0
   23.1367  -20.7878  -11.5151 C   0  0  0  0  0  0  0  0  0  0  0  0
   23.6834  -21.0475  -10.3325 N   0  0  0  0  0  0  0  0  0  0  0  0
   22.8732  -20.5185   -9.3935 C   0  0  0  0  0  0  0  0  0  0  0  0
   21.8176  -19.9270   -9.9934 N   0  0  0  0  0  0  0  0  0  0  0  0
   20.4056  -19.8685  -14.7474 C   0  0  0  0  0  0  0  0  0  0  0  0
   20.4354  -18.8906  -15.5627 O   0  0  0  0  0  0  0  0  0  0  0  0
   19.3515  -20.7465  -14.8920 O   0  0  0  0  0  0  0  0  0  0  0  0
  2  3  1  0
  2  1  1  0
  4  5  1  0
  4  3  1  0
  5  6  1  6
  7  5  1  0
  7  8  2  0
 10  9  1  6
 10 12  1  0
 10 11  1  0
 11  7  1  0
 12 14  1  0
 13 12  2  0
 14 15  1  0
 15 22  1  0
 15 16  1  1
 17 16  1  0
 18 17  2  0
 19 18  1  0
 20 19  1  0
 20 21  2  0
 21 17  1  0
 22 23  2  0
 22 24  1  0
M  END
$$$$
