MAH.pdb
     RDKit          3D

 24 24  0  0  1  0  0  0  0  0999 V2000
   21.2637  -13.3795  -22.1832 C   0  0  0  0  0  0  0  0  0  0  0  0
   22.5435  -14.5114  -21.6443 S   0  0  0  0  0  0  0  0  0  0  0  0
   24.0096  -13.7368  -20.9867 C   0  0  0  0  0  0  0  0  0  0  0  0
   23.8446  -13.0366  -19.6852 C   0  0  0  0  0  0  0  0  0  0  0  0
   24.4205  -13.7227  -18.4971 C   0  0  2  0  0  0  0  0  0  0  0  0
   23.8582  -15.0313  -18.2617 N   0  0  0  0  0  0  0  0  0  0  0  0
   24.2504  -12.8309  -17.3167 C   0  0  0  0  0  0  0  0  0  0  0  0
   23.1649  -12.9082  -16.6850 O   0  0  0  0  0  0  0  0  0  0  0  0
   26.2646  -10.4549  -15.3214 C   0  0  0  0  0  0  0  0  0  0  0  0
   24.9568  -11.0234  -15.7735 C   0  0  2  0  0  0  0  0  0  0  0  0
   25.2327  -11.9173  -16.8790 N   0  0  0  0  0  0  0  0  0  0  0  0
   23.9406  -10.0155  -16.1119 C   0  0  0  0  0  0  0  0  0  0  0  0
   23.6526   -9.8569  -17.3249 O   0  0  0  0  0  0  0  0  0  0  0  0
   23.2702   -9.2161  -15.1472 N   0  0  0  0  0  0  0  0  0  0  0  0
   22.1863   -8.2995  -15.5026 C   0  0  1  0  0  0  0  0  0  0  0  0
   21.1158   -9.1346  -16.1817 C   0  0  0  0  0  0  0  0  0  0  0  0
   19.9343   -8.2992  -16.5095 C   0  0  0  0  0  0  0  0  0  0  0  0
   19.7493   -6.9550  -16.3059 C   0  0  0  0  0  0  0  0  0  0  0  0
   18.5413   -6.6102  -16.7381 N   0  0  0  0  0  0  0  0  0  0  0  0
   17.9549   -7.7263  -17.2159 C   0  0  0  0  0  0  0  0  0  0  0  0
   18.8007   -8.7705  -17.0809 N   0  0  0  0  0  0  0  0  0  0  0  0
   21.6939   -7.5600  -14.3390 C   0  0  0  0  0  0  0  0  0  0  0  0
   21.5050   -8.1796  -13.2425 O   0  0  0  0  0  0  0  0  0  0  0  0
   21.4097   -6.2102  -14.3294 O   0  0  0  0  0  0  0  0  0  0  0  0
  2  3  1  0
  2  1  1  0
  4  5  1  0
  4  3  1  0
  5  6  1  1
  7  5  1  0
  7  8  2  0
 10  9  1  6
 10 12  1  0
 10 11  1  0
 11  7  1  0
 12 14  1  0
 13 12  2  0
 14 15  1  0
 15 22  1  0
 15 16  1  1
 17 16  1  0
 18 17  2  0
 19 18  1  0
 20 19  1  0
 20 21  2  0
 21 17  1  0
 22 23  2  0
 22 24  1  0
M  END
$$$$
