MAH.pdb
     RDKit          3D

 24 24  0  0  1  0  0  0  0  0999 V2000
   20.6852  -17.8925  -17.0457 C   0  0  0  0  0  0  0  0  0  0  0  0
   22.4547  -18.1723  -17.0670 S   0  0  0  0  0  0  0  0  0  0  0  0
   22.9633  -19.8266  -16.6353 C   0  0  0  0  0  0  0  0  0  0  0  0
   22.2043  -20.4708  -15.5307 C   0  0  0  0  0  0  0  0  0  0  0  0
   22.9270  -20.6123  -14.2378 C   0  0  2  0  0  0  0  0  0  0  0  0
   24.0274  -21.5450  -14.2948 N   0  0  0  0  0  0  0  0  0  0  0  0
   21.9383  -20.9922  -13.1910 C   0  0  0  0  0  0  0  0  0  0  0  0
   21.8223  -22.2159  -12.9217 O   0  0  0  0  0  0  0  0  0  0  0  0
   19.8211  -19.3287  -10.6637 C   0  0  0  0  0  0  0  0  0  0  0  0
   20.1891  -20.5130  -11.5003 C   0  0  2  0  0  0  0  0  0  0  0  0
   21.1372  -20.0605  -12.4972 N   0  0  0  0  0  0  0  0  0  0  0  0
   19.0431  -21.2140  -12.0986 C   0  0  0  0  0  0  0  0  0  0  0  0
   18.7762  -20.9797  -13.3042 O   0  0  0  0  0  0  0  0  0  0  0  0
   18.2260  -22.1370  -11.3918 N   0  0  0  0  0  0  0  0  0  0  0  0
   17.0653  -22.7863  -12.0019 C   0  0  1  0  0  0  0  0  0  0  0  0
   16.7822  -24.0315  -11.1810 C   0  0  0  0  0  0  0  0  0  0  0  0
   17.9222  -24.9777  -11.2611 C   0  0  0  0  0  0  0  0  0  0  0  0
   18.5363  -25.4907  -12.3757 C   0  0  0  0  0  0  0  0  0  0  0  0
   19.5114  -26.3104  -11.9986 N   0  0  0  0  0  0  0  0  0  0  0  0
   19.5228  -26.3232  -10.6504 C   0  0  0  0  0  0  0  0  0  0  0  0
   18.5512  -25.5084  -10.1857 N   0  0  0  0  0  0  0  0  0  0  0  0
   15.9194  -21.8798  -12.0948 C   0  0  0  0  0  0  0  0  0  0  0  0
   15.7219  -21.0298  -11.1671 O   0  0  0  0  0  0  0  0  0  0  0  0
   15.0101  -21.8676  -13.1320 O   0  0  0  0  0  0  0  0  0  0  0  0
  2  3  1  0
  2  1  1  0
  4  5  1  0
  4  3  1  0
  5  6  1  6
  7  5  1  0
  7  8  2  0
 10  9  1  6
 10 12  1  0
 10 11  1  0
 11  7  1  0
 12 14  1  0
 13 12  2  0
 14 15  1  0
 15 22  1  0
 15 16  1  1
 17 16  1  0
 18 17  2  0
 19 18  1  0
 20 19  1  0
 20 21  2  0
 21 17  1  0
 22 23  2  0
 22 24  1  0
M  END
$$$$
