MAH.pdb
     RDKit          3D

 24 24  0  0  1  0  0  0  0  0999 V2000
   34.7732  -11.7493  -21.5512 C   0  0  0  0  0  0  0  0  0  0  0  0
   33.1973  -12.2158  -20.8381 S   0  0  0  0  0  0  0  0  0  0  0  0
   32.1334  -10.8529  -20.3991 C   0  0  0  0  0  0  0  0  0  0  0  0
   32.5255  -10.0895  -19.1847 C   0  0  0  0  0  0  0  0  0  0  0  0
   32.2640  -10.7574  -17.8810 C   0  0  2  0  0  0  0  0  0  0  0  0
   30.8774  -11.1076  -17.6837 N   0  0  0  0  0  0  0  0  0  0  0  0
   32.7671   -9.8715  -16.7949 C   0  0  0  0  0  0  0  0  0  0  0  0
   31.9739   -9.0074  -16.3393 O   0  0  0  0  0  0  0  0  0  0  0  0
   35.7153   -9.6012  -14.5869 C   0  0  0  0  0  0  0  0  0  0  0  0
   34.4982   -9.0224  -15.2361 C   0  0  2  0  0  0  0  0  0  0  0  0
   34.0704   -9.9528  -16.2602 N   0  0  0  0  0  0  0  0  0  0  0  0
   34.6790   -7.6604  -15.7608 C   0  0  0  0  0  0  0  0  0  0  0  0
   34.6650   -7.5053  -17.0079 O   0  0  0  0  0  0  0  0  0  0  0  0
   34.8672   -6.5166  -14.9389 N   0  0  0  0  0  0  0  0  0  0  0  0
   34.6471   -5.1544  -15.4258 C   0  0  1  0  0  0  0  0  0  0  0  0
   33.1919   -5.0743  -15.8504 C   0  0  0  0  0  0  0  0  0  0  0  0
   32.8850   -3.7330  -16.4054 C   0  0  0  0  0  0  0  0  0  0  0  0
   33.6324   -2.9668  -17.2639 C   0  0  0  0  0  0  0  0  0  0  0  0
   32.9924   -1.8271  -17.5016 N   0  0  0  0  0  0  0  0  0  0  0  0
   31.8416   -1.8618  -16.7998 C   0  0  0  0  0  0  0  0  0  0  0  0
   31.7642   -3.0276  -16.1224 N   0  0  0  0  0  0  0  0  0  0  0  0
   35.0155   -4.1514  -14.4249 C   0  0  0  0  0  0  0  0  0  0  0  0
   34.6803   -4.3329  -13.2097 O   0  0  0  0  0  0  0  0  0  0  0  0
   35.7154   -2.9937  -14.6943 O   0  0  0  0  0  0  0  0  0  0  0  0
  2  3  1  0
  2  1  1  0
  4  5  1  0
  4  3  1  0
  5  6  1  1
  7  5  1  0
  7  8  2  0
 10  9  1  6
 10 12  1  0
 10 11  1  0
 11  7  1  0
 12 14  1  0
 13 12  2  0
 14 15  1  0
 15 22  1  0
 15 16  1  1
 17 16  1  0
 18 17  2  0
 19 18  1  0
 20 19  1  0
 20 21  2  0
 21 17  1  0
 22 23  2  0
 22 24  1  0
M  END
$$$$
