MAH.pdb
     RDKit          3D

 24 24  0  0  1  0  0  0  0  0999 V2000
   22.7808  -21.3628  -16.6147 C   0  0  0  0  0  0  0  0  0  0  0  0
   22.2900  -19.7373  -16.0434 S   0  0  0  0  0  0  0  0  0  0  0  0
   23.5717  -18.4979  -16.0991 C   0  0  0  0  0  0  0  0  0  0  0  0
   23.1608  -17.1225  -15.7108 C   0  0  0  0  0  0  0  0  0  0  0  0
   22.1471  -16.4726  -16.5848 C   0  0  2  0  0  0  0  0  0  0  0  0
   22.2449  -16.8689  -17.9695 N   0  0  0  0  0  0  0  0  0  0  0  0
   22.2719  -14.9974  -16.4252 C   0  0  0  0  0  0  0  0  0  0  0  0
   22.2060  -14.5343  -15.2570 O   0  0  0  0  0  0  0  0  0  0  0  0
   23.1085  -12.0185  -18.4225 C   0  0  0  0  0  0  0  0  0  0  0  0
   22.3850  -12.6766  -17.2905 C   0  0  2  0  0  0  0  0  0  0  0  0
   22.4577  -14.1071  -17.5041 N   0  0  0  0  0  0  0  0  0  0  0  0
   21.0030  -12.2110  -17.1001 C   0  0  0  0  0  0  0  0  0  0  0  0
   20.0718  -12.9724  -17.4644 O   0  0  0  0  0  0  0  0  0  0  0  0
   20.6652  -10.9542  -16.5296 N   0  0  0  0  0  0  0  0  0  0  0  0
   19.2825  -10.4893  -16.4153 C   0  0  1  0  0  0  0  0  0  0  0  0
   18.5540  -11.5007  -15.5488 C   0  0  0  0  0  0  0  0  0  0  0  0
   17.1424  -11.0913  -15.3462 C   0  0  0  0  0  0  0  0  0  0  0  0
   16.6516  -10.0096  -14.6593 C   0  0  0  0  0  0  0  0  0  0  0  0
   15.3245  -10.0207  -14.7180 N   0  0  0  0  0  0  0  0  0  0  0  0
   14.9660  -11.1028  -15.4381 C   0  0  0  0  0  0  0  0  0  0  0  0
   16.0739  -11.7685  -15.8295 N   0  0  0  0  0  0  0  0  0  0  0  0
   19.2079   -9.1218  -15.8980 C   0  0  0  0  0  0  0  0  0  0  0  0
   20.1917   -8.6509  -15.2403 O   0  0  0  0  0  0  0  0  0  0  0  0
   18.1318   -8.2756  -16.0682 O   0  0  0  0  0  0  0  0  0  0  0  0
  2  3  1  0
  2  1  1  0
  4  5  1  0
  4  3  1  0
  5  6  1  6
  7  5  1  0
  7  8  2  0
 10  9  1  6
 10 12  1  0
 10 11  1  0
 11  7  1  0
 12 14  1  0
 13 12  2  0
 14 15  1  0
 15 22  1  0
 15 16  1  1
 17 16  1  0
 18 17  2  0
 19 18  1  0
 20 19  1  0
 20 21  2  0
 21 17  1  0
 22 23  2  0
 22 24  1  0
M  END
$$$$
