MAH.pdb
     RDKit          3D

 24 24  0  0  1  0  0  0  0  0999 V2000
   43.0904  -16.8840   -9.7009 C   0  0  0  0  0  0  0  0  0  0  0  0
   42.4371  -15.2222   -9.5546 S   0  0  0  0  0  0  0  0  0  0  0  0
   43.5326  -14.0449   -8.7827 C   0  0  0  0  0  0  0  0  0  0  0  0
   43.0221  -12.6516   -8.6853 C   0  0  0  0  0  0  0  0  0  0  0  0
   43.9522  -11.6558   -8.0874 C   0  0  2  0  0  0  0  0  0  0  0  0
   44.3784  -11.9989   -6.7514 N   0  0  0  0  0  0  0  0  0  0  0  0
   43.2940  -10.3207   -8.1285 C   0  0  0  0  0  0  0  0  0  0  0  0
   42.4942  -10.0412   -7.1981 O   0  0  0  0  0  0  0  0  0  0  0  0
   43.4948   -7.1917  -10.0888 C   0  0  0  0  0  0  0  0  0  0  0  0
   42.7903   -8.1176   -9.1484 C   0  0  2  0  0  0  0  0  0  0  0  0
   43.5203   -9.3684   -9.1449 N   0  0  0  0  0  0  0  0  0  0  0  0
   41.3611   -8.3071   -9.4390 C   0  0  0  0  0  0  0  0  0  0  0  0
   40.9126   -9.4811   -9.4372 O   0  0  0  0  0  0  0  0  0  0  0  0
   40.4647   -7.2409   -9.7198 N   0  0  0  0  0  0  0  0  0  0  0  0
   39.0394   -7.3064   -9.3953 C   0  0  1  0  0  0  0  0  0  0  0  0
   38.9450   -7.5927   -7.9075 C   0  0  0  0  0  0  0  0  0  0  0  0
   38.7409   -9.0427   -7.6686 C   0  0  0  0  0  0  0  0  0  0  0  0
   38.6171  -10.0556   -8.5859 C   0  0  0  0  0  0  0  0  0  0  0  0
   38.4384  -11.2055   -7.9451 N   0  0  0  0  0  0  0  0  0  0  0  0
   38.4474  -10.9321   -6.6248 C   0  0  0  0  0  0  0  0  0  0  0  0
   38.6324   -9.6068   -6.4423 N   0  0  0  0  0  0  0  0  0  0  0  0
   38.3319   -6.0896   -9.7980 C   0  0  0  0  0  0  0  0  0  0  0  0
   38.8366   -4.9546   -9.5168 O   0  0  0  0  0  0  0  0  0  0  0  0
   37.1309   -6.0678  -10.4762 O   0  0  0  0  0  0  0  0  0  0  0  0
  2  3  1  0
  2  1  1  0
  4  5  1  0
  4  3  1  0
  5  6  1  1
  7  5  1  0
  7  8  2  0
 10  9  1  6
 10 12  1  0
 10 11  1  0
 11  7  1  0
 12 14  1  0
 13 12  2  0
 14 15  1  0
 15 22  1  0
 15 16  1  1
 17 16  1  0
 18 17  2  0
 19 18  1  0
 20 19  1  0
 20 21  2  0
 21 17  1  0
 22 23  2  0
 22 24  1  0
M  END
$$$$
