MAH.pdb
     RDKit          3D

 24 24  0  0  1  0  0  0  0  0999 V2000
   29.7592  -15.9559  -17.1100 C   0  0  0  0  0  0  0  0  0  0  0  0
   28.3425  -16.7809  -16.3875 S   0  0  0  0  0  0  0  0  0  0  0  0
   28.6219  -18.4735  -15.8988 C   0  0  0  0  0  0  0  0  0  0  0  0
   27.5071  -19.1287  -15.1645 C   0  0  0  0  0  0  0  0  0  0  0  0
   27.7752  -20.5031  -14.6616 C   0  0  2  0  0  0  0  0  0  0  0  0
   28.1907  -21.4213  -15.6952 N   0  0  0  0  0  0  0  0  0  0  0  0
   26.5568  -20.9861  -13.9547 C   0  0  0  0  0  0  0  0  0  0  0  0
   25.6969  -21.6003  -14.6379 O   0  0  0  0  0  0  0  0  0  0  0  0
   25.2392  -21.1229  -10.4925 C   0  0  0  0  0  0  0  0  0  0  0  0
   25.0849  -21.2410  -11.9758 C   0  0  2  0  0  0  0  0  0  0  0  0
   26.3235  -20.7913  -12.5767 N   0  0  0  0  0  0  0  0  0  0  0  0
   23.9133  -20.5399  -12.5225 C   0  0  0  0  0  0  0  0  0  0  0  0
   23.9404  -19.2837  -12.5481 O   0  0  0  0  0  0  0  0  0  0  0  0
   22.7590  -21.2021  -13.0209 N   0  0  0  0  0  0  0  0  0  0  0  0
   21.5907  -20.4760  -13.5199 C   0  0  1  0  0  0  0  0  0  0  0  0
   21.3572  -20.9531  -14.9420 C   0  0  0  0  0  0  0  0  0  0  0  0
   22.3158  -20.3065  -15.8717 C   0  0  0  0  0  0  0  0  0  0  0  0
   23.2832  -19.3732  -15.5963 C   0  0  0  0  0  0  0  0  0  0  0  0
   23.9144  -19.0539  -16.7208 N   0  0  0  0  0  0  0  0  0  0  0  0
   23.3555  -19.7778  -17.7115 C   0  0  0  0  0  0  0  0  0  0  0  0
   22.3723  -20.5511  -17.2024 N   0  0  0  0  0  0  0  0  0  0  0  0
   20.4264  -20.6527  -12.6502 C   0  0  0  0  0  0  0  0  0  0  0  0
   20.3795  -21.6583  -11.8701 O   0  0  0  0  0  0  0  0  0  0  0  0
   19.3452  -19.7973  -12.6023 O   0  0  0  0  0  0  0  0  0  0  0  0
  2  3  1  0
  2  1  1  0
  4  5  1  0
  4  3  1  0
  5  6  1  6
  7  5  1  0
  7  8  2  0
 10  9  1  1
 10 12  1  0
 10 11  1  0
 11  7  1  0
 12 14  1  0
 13 12  2  0
 14 15  1  0
 15 22  1  0
 15 16  1  6
 17 16  1  0
 18 17  2  0
 19 18  1  0
 20 19  1  0
 20 21  2  0
 21 17  1  0
 22 23  2  0
 22 24  1  0
M  END
$$$$
