MAH.pdb
     RDKit          3D

 24 24  0  0  1  0  0  0  0  0999 V2000
   24.0218  -15.4217  -17.2637 C   0  0  0  0  0  0  0  0  0  0  0  0
   25.1636  -14.0680  -17.5346 S   0  0  0  0  0  0  0  0  0  0  0  0
   24.9124  -12.6464  -16.4869 C   0  0  0  0  0  0  0  0  0  0  0  0
   23.6061  -11.9521  -16.6384 C   0  0  0  0  0  0  0  0  0  0  0  0
   23.3714  -10.7971  -15.7302 C   0  0  2  0  0  0  0  0  0  0  0  0
   23.2927  -11.1692  -14.3375 N   0  0  0  0  0  0  0  0  0  0  0  0
   22.1393  -10.0930  -16.1814 C   0  0  0  0  0  0  0  0  0  0  0  0
   22.1593   -9.5669  -17.3243 O   0  0  0  0  0  0  0  0  0  0  0  0
   18.6042  -10.0979  -15.5726 C   0  0  0  0  0  0  0  0  0  0  0  0
   19.8116   -9.2824  -15.9119 C   0  0  2  0  0  0  0  0  0  0  0  0
   20.9681   -9.9888  -15.4011 N   0  0  0  0  0  0  0  0  0  0  0  0
   19.7563   -7.8900  -15.4415 C   0  0  0  0  0  0  0  0  0  0  0  0
   20.3055   -7.6192  -14.3441 O   0  0  0  0  0  0  0  0  0  0  0  0
   19.1195   -6.8402  -16.1567 N   0  0  0  0  0  0  0  0  0  0  0  0
   19.0385   -5.4737  -15.6398 C   0  0  1  0  0  0  0  0  0  0  0  0
   19.3196   -4.5488  -16.8102 C   0  0  0  0  0  0  0  0  0  0  0  0
   20.7657   -4.5544  -17.1421 C   0  0  0  0  0  0  0  0  0  0  0  0
   21.8379   -4.3318  -16.3152 C   0  0  0  0  0  0  0  0  0  0  0  0
   22.9596   -4.4218  -17.0212 N   0  0  0  0  0  0  0  0  0  0  0  0
   22.6094   -4.7004  -18.2931 C   0  0  0  0  0  0  0  0  0  0  0  0
   21.2642   -4.7842  -18.3799 N   0  0  0  0  0  0  0  0  0  0  0  0
   17.7533   -5.2120  -14.9892 C   0  0  0  0  0  0  0  0  0  0  0  0
   16.7343   -5.8976  -15.3264 O   0  0  0  0  0  0  0  0  0  0  0  0
   17.5469   -4.2589  -14.0136 O   0  0  0  0  0  0  0  0  0  0  0  0
  2  3  1  0
  2  1  1  0
  4  5  1  0
  4  3  1  0
  5  6  1  1
  7  5  1  0
  7  8  2  0
 10  9  1  1
 10 12  1  0
 10 11  1  0
 11  7  1  0
 12 14  1  0
 13 12  2  0
 14 15  1  0
 15 22  1  0
 15 16  1  6
 17 16  1  0
 18 17  2  0
 19 18  1  0
 20 19  1  0
 20 21  2  0
 21 17  1  0
 22 23  2  0
 22 24  1  0
M  END
$$$$
