MAH.pdb
     RDKit          3D

 24 24  0  0  1  0  0  0  0  0999 V2000
   29.2062  -14.1468  -15.5074 C   0  0  0  0  0  0  0  0  0  0  0  0
   27.6029  -13.3601  -15.3646 S   0  0  0  0  0  0  0  0  0  0  0  0
   26.3677  -13.9490  -16.5087 C   0  0  0  0  0  0  0  0  0  0  0  0
   25.0162  -13.3440  -16.3718 C   0  0  0  0  0  0  0  0  0  0  0  0
   23.9665  -13.8784  -17.2810 C   0  0  2  0  0  0  0  0  0  0  0  0
   24.4472  -14.1511  -18.6146 N   0  0  0  0  0  0  0  0  0  0  0  0
   22.8281  -12.9184  -17.2927 C   0  0  0  0  0  0  0  0  0  0  0  0
   22.9517  -11.8831  -17.9973 O   0  0  0  0  0  0  0  0  0  0  0  0
   19.3031  -12.8506  -16.2160 C   0  0  0  0  0  0  0  0  0  0  0  0
   20.5474  -12.1624  -16.6809 C   0  0  2  0  0  0  0  0  0  0  0  0
   21.6358  -13.1105  -16.5630 N   0  0  0  0  0  0  0  0  0  0  0  0
   20.8347  -10.8954  -15.9918 C   0  0  0  0  0  0  0  0  0  0  0  0
   21.5035  -10.9440  -14.9289 O   0  0  0  0  0  0  0  0  0  0  0  0
   20.3998   -9.6262  -16.4600 N   0  0  0  0  0  0  0  0  0  0  0  0
   20.6037   -8.3949  -15.6962 C   0  0  1  0  0  0  0  0  0  0  0  0
   21.2904   -7.4134  -16.6287 C   0  0  0  0  0  0  0  0  0  0  0  0
   21.4341   -6.0889  -15.9759 C   0  0  0  0  0  0  0  0  0  0  0  0
   22.3030   -5.7096  -14.9840 C   0  0  0  0  0  0  0  0  0  0  0  0
   22.0912   -4.4332  -14.6826 N   0  0  0  0  0  0  0  0  0  0  0  0
   21.0925   -3.9963  -15.4761 C   0  0  0  0  0  0  0  0  0  0  0  0
   20.6805   -5.0042  -16.2750 N   0  0  0  0  0  0  0  0  0  0  0  0
   19.3497   -7.8850  -15.1386 C   0  0  0  0  0  0  0  0  0  0  0  0
   18.2528   -8.1521  -15.7281 O   0  0  0  0  0  0  0  0  0  0  0  0
   19.2529   -7.1185  -13.9959 O   0  0  0  0  0  0  0  0  0  0  0  0
  2  3  1  0
  2  1  1  0
  4  5  1  0
  4  3  1  0
  5  6  1  6
  7  5  1  0
  7  8  2  0
 10  9  1  1
 10 12  1  0
 10 11  1  0
 11  7  1  0
 12 14  1  0
 13 12  2  0
 14 15  1  0
 15 22  1  0
 15 16  1  6
 17 16  1  0
 18 17  2  0
 19 18  1  0
 20 19  1  0
 20 21  2  0
 21 17  1  0
 22 23  2  0
 22 24  1  0
M  END
$$$$
