DLI.pdb
     RDKit          3D

 25 24  0  0  1  0  0  0  0  0999 V2000
   19.9721  -33.2745  -10.6586 N   0  0  0  0  0  0  0  0  0  0  0  0
   20.0830  -32.7592   -9.3016 C   0  0  1  0  0  0  0  0  0  0  0  0
   18.7702  -32.8276   -8.5753 C   0  0  0  0  0  0  0  0  0  0  0  0
   17.8017  -31.8354   -9.0857 C   0  0  0  0  0  0  0  0  0  0  0  0
   16.6552  -31.6391   -8.5672 O   0  0  0  0  0  0  0  0  0  0  0  0
   21.1237  -33.4510   -8.5325 C   0  0  0  0  0  0  0  0  0  0  0  0
   20.9518  -34.6129   -8.1565 O   0  0  0  0  0  0  0  0  0  0  0  0
   18.0931  -31.0272  -10.2019 O   0  0  0  0  0  0  0  0  0  0  0  0
   25.7000  -34.7072   -9.3208 C   0  0  0  0  0  0  0  0  0  0  0  0
   25.4764  -33.2621   -9.0788 C   0  0  2  0  0  0  0  0  0  0  0  0
   26.8068  -32.5482   -9.3417 C   0  0  0  0  0  0  0  0  0  0  0  0
   24.8252  -32.8478   -7.8171 C   0  0  0  0  0  0  0  0  0  0  0  0
   23.4632  -33.4299   -7.5329 C   0  0  2  0  0  0  0  0  0  0  0  0
   22.3685  -32.8135   -8.1886 N   0  0  0  0  0  0  0  0  0  0  0  0
   23.2152  -33.4427   -6.0710 C   0  0  0  0  0  0  0  0  0  0  0  0
   22.8940  -32.3553   -5.4791 O   0  0  0  0  0  0  0  0  0  0  0  0
   19.7840  -36.3110   -3.1574 C   0  0  0  0  0  0  0  0  0  0  0  0
   20.7226  -35.2927   -3.7082 C   0  0  0  0  0  0  0  0  0  0  0  0
   22.1440  -35.4450   -3.2492 C   0  0  2  0  0  0  0  0  0  0  0  0
   22.1111  -35.1820   -1.7363 C   0  0  0  0  0  0  0  0  0  0  0  0
   23.1262  -34.5054   -3.8448 C   0  0  2  0  0  0  0  0  0  0  0  0
   23.3128  -34.6055   -5.2705 N   0  0  0  0  0  0  0  0  0  0  0  0
   24.4614  -34.7791   -3.1850 C   0  0  0  0  0  0  0  0  0  0  0  0
   24.7174  -34.2700   -1.9347 O   0  0  0  0  0  0  0  0  0  0  0  0
   25.3086  -35.4689   -3.7988 O   0  0  0  0  0  0  0  0  0  0  0  0
  2  1  1  6
  3  2  1  0
  3  4  1  0
  4  8  1  0
  4  5  2  0
  6  7  2  0
  6  2  1  0
 10  9  1  1
 10 12  1  0
 11 10  1  0
 13 12  1  1
 13 14  1  0
 14  6  1  0
 15 16  2  0
 15 13  1  0
 18 17  1  0
 19 21  1  0
 19 18  1  0
 19 20  1  1
 21 22  1  6
 22 15  1  0
 23 21  1  0
 24 23  1  0
 25 23  2  0
M  END
$$$$
