DLI.pdb
     RDKit          3D

 25 24  0  0  1  0  0  0  0  0999 V2000
   19.7489  -11.7062  -16.4065 N   0  0  0  0  0  0  0  0  0  0  0  0
   20.0654  -10.7553  -17.4622 C   0  0  1  0  0  0  0  0  0  0  0  0
   19.7364  -11.3067  -18.8198 C   0  0  0  0  0  0  0  0  0  0  0  0
   20.4827  -12.5486  -19.1097 C   0  0  0  0  0  0  0  0  0  0  0  0
   21.3022  -13.0840  -18.2952 O   0  0  0  0  0  0  0  0  0  0  0  0
   19.3930   -9.4663  -17.2628 C   0  0  0  0  0  0  0  0  0  0  0  0
   19.4918   -8.5747  -18.1092 O   0  0  0  0  0  0  0  0  0  0  0  0
   20.3302  -13.2322  -20.3318 O   0  0  0  0  0  0  0  0  0  0  0  0
   15.0869   -7.6570  -17.1283 C   0  0  0  0  0  0  0  0  0  0  0  0
   15.4955   -8.5030  -15.9819 C   0  0  2  0  0  0  0  0  0  0  0  0
   14.2259   -8.8375  -15.1914 C   0  0  0  0  0  0  0  0  0  0  0  0
   16.6165   -8.0488  -15.1306 C   0  0  0  0  0  0  0  0  0  0  0  0
   17.9728   -7.9597  -15.7844 C   0  0  2  0  0  0  0  0  0  0  0  0
   18.6037   -9.1912  -16.0900 N   0  0  0  0  0  0  0  0  0  0  0  0
   18.8815   -7.1367  -14.9504 C   0  0  0  0  0  0  0  0  0  0  0  0
   19.0830   -7.4642  -13.7305 O   0  0  0  0  0  0  0  0  0  0  0  0
   23.8765   -6.9383  -15.5480 C   0  0  0  0  0  0  0  0  0  0  0  0
   22.4785   -6.8442  -15.0400 C   0  0  0  0  0  0  0  0  0  0  0  0
   21.9343   -5.4464  -14.9738 C   0  0  2  0  0  0  0  0  0  0  0  0
   22.7765   -4.7344  -13.9048 C   0  0  0  0  0  0  0  0  0  0  0  0
   20.5097   -5.3190  -14.5782 C   0  0  2  0  0  0  0  0  0  0  0  0
   19.5554   -5.9873  -15.4269 N   0  0  0  0  0  0  0  0  0  0  0  0
   20.1760   -3.8419  -14.5837 C   0  0  0  0  0  0  0  0  0  0  0  0
   20.5062   -3.0677  -13.4976 O   0  0  0  0  0  0  0  0  0  0  0  0
   19.6023   -3.3558  -15.5861 O   0  0  0  0  0  0  0  0  0  0  0  0
  2  1  1  1
  3  2  1  0
  3  4  1  0
  4  8  1  0
  4  5  2  0
  6  7  2  0
  6  2  1  0
 10  9  1  6
 10 12  1  0
 11 10  1  0
 13 12  1  1
 13 14  1  0
 14  6  1  0
 15 16  2  0
 15 13  1  0
 18 17  1  0
 19 21  1  0
 19 18  1  0
 19 20  1  1
 21 22  1  6
 22 15  1  0
 23 21  1  0
 24 23  1  0
 25 23  2  0
M  END
$$$$
