DLI.pdb
     RDKit          3D

 25 24  0  0  1  0  0  0  0  0999 V2000
   23.0678  -19.3380  -18.5064 N   0  0  0  0  0  0  0  0  0  0  0  0
   23.3733  -19.1798  -17.0920 C   0  0  1  0  0  0  0  0  0  0  0  0
   22.1241  -19.0681  -16.2657 C   0  0  0  0  0  0  0  0  0  0  0  0
   21.3892  -17.8155  -16.5381 C   0  0  0  0  0  0  0  0  0  0  0  0
   20.3829  -17.7442  -17.3153 O   0  0  0  0  0  0  0  0  0  0  0  0
   24.2195  -20.2665  -16.5858 C   0  0  0  0  0  0  0  0  0  0  0  0
   23.8333  -21.4363  -16.6457 O   0  0  0  0  0  0  0  0  0  0  0  0
   21.7645  -16.5959  -15.9416 O   0  0  0  0  0  0  0  0  0  0  0  0
   28.4926  -18.2607  -14.4969 C   0  0  0  0  0  0  0  0  0  0  0  0
   28.1077  -19.6484  -14.1458 C   0  0  2  0  0  0  0  0  0  0  0  0
   29.1541  -20.1712  -13.1557 C   0  0  0  0  0  0  0  0  0  0  0  0
   27.8056  -20.5976  -15.2391 C   0  0  0  0  0  0  0  0  0  0  0  0
   26.3604  -20.9905  -15.4174 C   0  0  2  0  0  0  0  0  0  0  0  0
   25.5143  -20.0181  -16.0062 N   0  0  0  0  0  0  0  0  0  0  0  0
   25.7890  -21.4148  -14.1166 C   0  0  0  0  0  0  0  0  0  0  0  0
   26.0993  -22.5597  -13.6381 O   0  0  0  0  0  0  0  0  0  0  0  0
   26.6530  -20.6118   -8.9987 C   0  0  0  0  0  0  0  0  0  0  0  0
   25.9535  -21.3326  -10.0997 C   0  0  0  0  0  0  0  0  0  0  0  0
   24.9839  -20.4895  -10.8767 C   0  0  2  0  0  0  0  0  0  0  0  0
   23.8257  -20.2080   -9.9080 C   0  0  0  0  0  0  0  0  0  0  0  0
   24.4070  -21.1127  -12.0937 C   0  0  2  0  0  0  0  0  0  0  0  0
   24.9031  -20.6180  -13.3533 N   0  0  0  0  0  0  0  0  0  0  0  0
   22.9138  -20.8637  -12.0567 C   0  0  0  0  0  0  0  0  0  0  0  0
   22.1587  -21.4148  -11.0497 O   0  0  0  0  0  0  0  0  0  0  0  0
   22.3970  -20.1554  -12.9520 O   0  0  0  0  0  0  0  0  0  0  0  0
  2  1  1  6
  3  2  1  0
  3  4  1  0
  4  8  1  0
  4  5  2  0
  6  7  2  0
  6  2  1  0
 10  9  1  6
 10 12  1  0
 11 10  1  0
 13 12  1  1
 13 14  1  0
 14  6  1  0
 15 16  2  0
 15 13  1  0
 18 17  1  0
 19 21  1  0
 19 18  1  0
 19 20  1  1
 21 22  1  6
 22 15  1  0
 23 21  1  0
 24 23  1  0
 25 23  2  0
M  END
$$$$
