DLI.pdb
     RDKit          3D

 25 24  0  0  1  0  0  0  0  0999 V2000
   28.3749  -21.3228  -16.1778 N   0  0  0  0  0  0  0  0  0  0  0  0
   27.5164  -20.2785  -15.6380 C   0  0  1  0  0  0  0  0  0  0  0  0
   27.0041  -19.3704  -16.7189 C   0  0  0  0  0  0  0  0  0  0  0  0
   28.0894  -18.5896  -17.3479 C   0  0  0  0  0  0  0  0  0  0  0  0
   28.6868  -17.6236  -16.7721 O   0  0  0  0  0  0  0  0  0  0  0  0
   26.3963  -20.8295  -14.8666 C   0  0  0  0  0  0  0  0  0  0  0  0
   25.8512  -21.8773  -15.2217 O   0  0  0  0  0  0  0  0  0  0  0  0
   28.5404  -18.8719  -18.6520 O   0  0  0  0  0  0  0  0  0  0  0  0
   26.1730  -22.3515  -10.5223 C   0  0  0  0  0  0  0  0  0  0  0  0
   26.0654  -20.8745  -10.5823 C   0  0  2  0  0  0  0  0  0  0  0  0
   26.1251  -20.3576   -9.1408 C   0  0  0  0  0  0  0  0  0  0  0  0
   24.9714  -20.2759  -11.3776 C   0  0  0  0  0  0  0  0  0  0  0  0
   24.8829  -20.6847  -12.8266 C   0  0  2  0  0  0  0  0  0  0  0  0
   25.8933  -20.1810  -13.6832 N   0  0  0  0  0  0  0  0  0  0  0  0
   23.5524  -20.3236  -13.3723 C   0  0  0  0  0  0  0  0  0  0  0  0
   23.2680  -19.0922  -13.5698 O   0  0  0  0  0  0  0  0  0  0  0  0
   21.7760  -21.2832  -18.0655 C   0  0  0  0  0  0  0  0  0  0  0  0
   22.0141  -20.7556  -16.6922 C   0  0  0  0  0  0  0  0  0  0  0  0
   21.0394  -21.2456  -15.6606 C   0  0  2  0  0  0  0  0  0  0  0  0
   19.6837  -20.6510  -16.0701 C   0  0  0  0  0  0  0  0  0  0  0  0
   21.3057  -20.8289  -14.2614 C   0  0  2  0  0  0  0  0  0  0  0  0
   22.5548  -21.2735  -13.6960 N   0  0  0  0  0  0  0  0  0  0  0  0
   20.1878  -21.3911  -13.4086 C   0  0  0  0  0  0  0  0  0  0  0  0
   19.1588  -20.5713  -13.0122 O   0  0  0  0  0  0  0  0  0  0  0  0
   20.2270  -22.6001  -13.0814 O   0  0  0  0  0  0  0  0  0  0  0  0
  2  1  1  6
  3  2  1  0
  3  4  1  0
  4  8  1  0
  4  5  2  0
  6  7  2  0
  6  2  1  0
 10  9  1  1
 10 12  1  0
 11 10  1  0
 13 12  1  1
 13 14  1  0
 14  6  1  0
 15 16  2  0
 15 13  1  0
 18 17  1  0
 19 21  1  0
 19 18  1  0
 19 20  1  6
 21 22  1  1
 22 15  1  0
 23 21  1  0
 24 23  1  0
 25 23  2  0
M  END
$$$$
