DLI.pdb
     RDKit          3D

 25 24  0  0  1  0  0  0  0  0999 V2000
   22.5357  -21.6150  -12.6996 N   0  0  0  0  0  0  0  0  0  0  0  0
   23.0206  -20.5497  -11.8342 C   0  0  1  0  0  0  0  0  0  0  0  0
   21.9469  -20.0602  -10.9052 C   0  0  0  0  0  0  0  0  0  0  0  0
   20.8989  -19.3021  -11.6195 C   0  0  0  0  0  0  0  0  0  0  0  0
   21.0512  -18.8206  -12.7885 O   0  0  0  0  0  0  0  0  0  0  0  0
   24.2049  -20.9569  -11.0693 C   0  0  0  0  0  0  0  0  0  0  0  0
   24.1865  -21.9899  -10.3957 O   0  0  0  0  0  0  0  0  0  0  0  0
   19.6387  -19.0601  -11.0387 O   0  0  0  0  0  0  0  0  0  0  0  0
   28.0822  -22.3769  -12.5138 C   0  0  0  0  0  0  0  0  0  0  0  0
   28.0826  -20.8953  -12.4711 C   0  0  2  0  0  0  0  0  0  0  0  0
   29.3251  -20.4211  -13.2327 C   0  0  0  0  0  0  0  0  0  0  0  0
   27.9006  -20.2244  -11.1655 C   0  0  0  0  0  0  0  0  0  0  0  0
   26.6265  -20.5280  -10.4178 C   0  0  2  0  0  0  0  0  0  0  0  0
   25.4179  -20.1807  -11.0711 N   0  0  0  0  0  0  0  0  0  0  0  0
   26.6622  -19.8890   -9.0802 C   0  0  0  0  0  0  0  0  0  0  0  0
   26.1562  -18.7243   -8.9272 O   0  0  0  0  0  0  0  0  0  0  0  0
   26.7413  -22.2856   -3.8770 C   0  0  0  0  0  0  0  0  0  0  0  0
   26.4308  -21.3998   -5.0346 C   0  0  0  0  0  0  0  0  0  0  0  0
   27.5747  -20.5350   -5.4795 C   0  0  2  0  0  0  0  0  0  0  0  0
   27.8036  -19.5433   -4.3292 C   0  0  0  0  0  0  0  0  0  0  0  0
   27.3517  -19.7429   -6.7145 C   0  0  2  0  0  0  0  0  0  0  0  0
   27.2320  -20.4974   -7.9368 N   0  0  0  0  0  0  0  0  0  0  0  0
   28.5338  -18.8082   -6.8639 C   0  0  0  0  0  0  0  0  0  0  0  0
   29.5205  -19.1022   -7.7739 O   0  0  0  0  0  0  0  0  0  0  0  0
   28.5855  -17.7804   -6.1490 O   0  0  0  0  0  0  0  0  0  0  0  0
  2  1  1  1
  3  2  1  0
  3  4  1  0
  4  8  1  0
  4  5  2  0
  6  7  2  0
  6  2  1  0
 10  9  1  1
 10 12  1  0
 11 10  1  0
 13 12  1  6
 13 14  1  0
 14  6  1  0
 15 16  2  0
 15 13  1  0
 18 17  1  0
 19 21  1  0
 19 18  1  0
 19 20  1  1
 21 22  1  6
 22 15  1  0
 23 21  1  0
 24 23  1  0
 25 23  2  0
M  END
$$$$
