DLI.pdb
     RDKit          3D

 25 24  0  0  1  0  0  0  0  0999 V2000
   28.9637  -21.5075  -13.7288 N   0  0  0  0  0  0  0  0  0  0  0  0
   28.0273  -20.5195  -13.2129 C   0  0  1  0  0  0  0  0  0  0  0  0
   27.2309  -19.8837  -14.3161 C   0  0  0  0  0  0  0  0  0  0  0  0
   28.0776  -19.0711  -15.2140 C   0  0  0  0  0  0  0  0  0  0  0  0
   28.8616  -19.5698  -16.0848 O   0  0  0  0  0  0  0  0  0  0  0  0
   27.1281  -21.0874  -12.2019 C   0  0  0  0  0  0  0  0  0  0  0  0
   26.5318  -22.1443  -12.4218 O   0  0  0  0  0  0  0  0  0  0  0  0
   28.0694  -17.6636  -15.1611 O   0  0  0  0  0  0  0  0  0  0  0  0
   27.6012  -21.4804   -7.4799 C   0  0  0  0  0  0  0  0  0  0  0  0
   27.1719  -20.1437   -7.9552 C   0  0  2  0  0  0  0  0  0  0  0  0
   27.2679  -19.1870   -6.7619 C   0  0  0  0  0  0  0  0  0  0  0  0
   25.8982  -20.0319   -8.6987 C   0  0  0  0  0  0  0  0  0  0  0  0
   25.8348  -20.7118  -10.0434 C   0  0  2  0  0  0  0  0  0  0  0  0
   26.9061  -20.4454  -10.9320 N   0  0  0  0  0  0  0  0  0  0  0  0
   24.5512  -20.3889  -10.7118 C   0  0  0  0  0  0  0  0  0  0  0  0
   24.3126  -19.1825  -11.0635 O   0  0  0  0  0  0  0  0  0  0  0  0
   23.2100  -22.5843  -15.2647 C   0  0  0  0  0  0  0  0  0  0  0  0
   23.3802  -21.7046  -14.0738 C   0  0  0  0  0  0  0  0  0  0  0  0
   22.2686  -21.7975  -13.0688 C   0  0  2  0  0  0  0  0  0  0  0  0
   21.0209  -21.2741  -13.7958 C   0  0  0  0  0  0  0  0  0  0  0  0
   22.4368  -20.9922  -11.8337 C   0  0  2  0  0  0  0  0  0  0  0  0
   23.5511  -21.3498  -10.9923 N   0  0  0  0  0  0  0  0  0  0  0  0
   21.1717  -21.1578  -11.0180 C   0  0  0  0  0  0  0  0  0  0  0  0
   21.2107  -21.8669   -9.8418 O   0  0  0  0  0  0  0  0  0  0  0  0
   20.1102  -20.6404  -11.4375 O   0  0  0  0  0  0  0  0  0  0  0  0
  2  1  1  6
  3  2  1  0
  3  4  1  0
  4  8  1  0
  4  5  2  0
  6  7  2  0
  6  2  1  0
 10  9  1  1
 10 12  1  0
 11 10  1  0
 13 12  1  1
 13 14  1  0
 14  6  1  0
 15 16  2  0
 15 13  1  0
 18 17  1  0
 19 21  1  0
 19 18  1  0
 19 20  1  6
 21 22  1  1
 22 15  1  0
 23 21  1  0
 24 23  1  0
 25 23  2  0
M  END
$$$$
