DLI.pdb
     RDKit          3D

 25 24  0  0  1  0  0  0  0  0999 V2000
   16.8437  -12.9058  -17.7941 N   0  0  0  0  0  0  0  0  0  0  0  0
   17.6621  -11.7604  -18.1649 C   0  0  1  0  0  0  0  0  0  0  0  0
   16.8226  -10.6200  -18.6651 C   0  0  0  0  0  0  0  0  0  0  0  0
   16.0634  -10.9814  -19.8801 C   0  0  0  0  0  0  0  0  0  0  0  0
   16.5393  -11.6946  -20.8216 O   0  0  0  0  0  0  0  0  0  0  0  0
   18.5173  -11.3128  -17.0597 C   0  0  0  0  0  0  0  0  0  0  0  0
   18.0264  -11.0504  -15.9591 O   0  0  0  0  0  0  0  0  0  0  0  0
   14.7370  -10.5500  -20.0762 O   0  0  0  0  0  0  0  0  0  0  0  0
   23.1903   -9.7662  -14.4210 C   0  0  0  0  0  0  0  0  0  0  0  0
   22.9455  -11.1499  -14.8928 C   0  0  2  0  0  0  0  0  0  0  0  0
   24.2953  -11.8755  -14.8864 C   0  0  0  0  0  0  0  0  0  0  0  0
   22.1770  -11.3469  -16.1411 C   0  0  0  0  0  0  0  0  0  0  0  0
   20.8327  -10.6684  -16.2252 C   0  0  2  0  0  0  0  0  0  0  0  0
   19.9416  -11.1621  -17.2103 N   0  0  0  0  0  0  0  0  0  0  0  0
   21.0152   -9.2093  -16.4160 C   0  0  0  0  0  0  0  0  0  0  0  0
   21.6330   -8.7841  -17.4521 O   0  0  0  0  0  0  0  0  0  0  0  0
   17.2623   -5.8280  -17.2504 C   0  0  0  0  0  0  0  0  0  0  0  0
   18.5796   -6.5198  -17.1656 C   0  0  0  0  0  0  0  0  0  0  0  0
   19.4456   -6.0694  -16.0248 C   0  0  2  0  0  0  0  0  0  0  0  0
   19.8393   -4.6235  -16.3617 C   0  0  0  0  0  0  0  0  0  0  0  0
   20.6986   -6.8363  -15.8146 C   0  0  2  0  0  0  0  0  0  0  0  0
   20.5398   -8.2353  -15.5063 N   0  0  0  0  0  0  0  0  0  0  0  0
   21.4282   -6.1891  -14.6561 C   0  0  0  0  0  0  0  0  0  0  0  0
   22.1763   -5.0571  -14.8727 O   0  0  0  0  0  0  0  0  0  0  0  0
   21.3321   -6.7044  -13.5179 O   0  0  0  0  0  0  0  0  0  0  0  0
  2  1  1  1
  3  2  1  0
  3  4  1  0
  4  8  1  0
  4  5  2  0
  6  7  2  0
  6  2  1  0
 10  9  1  6
 10 12  1  0
 11 10  1  0
 13 12  1  6
 13 14  1  0
 14  6  1  0
 15 16  2  0
 15 13  1  0
 18 17  1  0
 19 21  1  0
 19 18  1  0
 19 20  1  6
 21 22  1  1
 22 15  1  0
 23 21  1  0
 24 23  1  0
 25 23  2  0
M  END
$$$$
