DLI.pdb
     RDKit          3D

 25 24  0  0  1  0  0  0  0  0999 V2000
   28.0425  -22.1272  -15.5547 N   0  0  0  0  0  0  0  0  0  0  0  0
   27.5688  -20.9473  -14.8459 C   0  0  1  0  0  0  0  0  0  0  0  0
   26.8191  -20.0186  -15.7574 C   0  0  0  0  0  0  0  0  0  0  0  0
   27.6674  -19.5178  -16.8587 C   0  0  0  0  0  0  0  0  0  0  0  0
   27.3162  -19.5369  -18.0826 O   0  0  0  0  0  0  0  0  0  0  0  0
   26.7404  -21.2964  -13.6861 C   0  0  0  0  0  0  0  0  0  0  0  0
   25.8900  -22.1855  -13.7730 O   0  0  0  0  0  0  0  0  0  0  0  0
   28.9450  -18.9761  -16.6174 O   0  0  0  0  0  0  0  0  0  0  0  0
   26.0903  -19.5434   -7.6262 C   0  0  0  0  0  0  0  0  0  0  0  0
   25.8167  -20.4518   -8.7649 C   0  0  2  0  0  0  0  0  0  0  0  0
   25.6769  -21.8662   -8.1918 C   0  0  0  0  0  0  0  0  0  0  0  0
   26.6947  -20.3822   -9.9532 C   0  0  0  0  0  0  0  0  0  0  0  0
   26.1205  -20.8890  -11.2524 C   0  0  2  0  0  0  0  0  0  0  0  0
   26.8813  -20.6267  -12.4189 N   0  0  0  0  0  0  0  0  0  0  0  0
   24.7458  -20.3643  -11.4351 C   0  0  0  0  0  0  0  0  0  0  0  0
   24.5439  -19.1022  -11.3862 O   0  0  0  0  0  0  0  0  0  0  0  0
   22.5045  -20.9248  -15.9822 C   0  0  0  0  0  0  0  0  0  0  0  0
   22.8856  -20.4605  -14.6182 C   0  0  0  0  0  0  0  0  0  0  0  0
   21.9871  -20.9528  -13.5207 C   0  0  2  0  0  0  0  0  0  0  0  0
   20.6244  -20.2964  -13.7881 C   0  0  0  0  0  0  0  0  0  0  0  0
   22.3909  -20.5965  -12.1378 C   0  0  2  0  0  0  0  0  0  0  0  0
   23.6178  -21.1871  -11.6652 N   0  0  0  0  0  0  0  0  0  0  0  0
   21.2769  -21.0498  -11.2175 C   0  0  0  0  0  0  0  0  0  0  0  0
   20.1919  -20.2323  -11.0118 O   0  0  0  0  0  0  0  0  0  0  0  0
   21.3708  -22.1684  -10.6606 O   0  0  0  0  0  0  0  0  0  0  0  0
  2  1  1  6
  3  2  1  0
  3  4  1  0
  4  8  1  0
  4  5  2  0
  6  7  2  0
  6  2  1  0
 10  9  1  1
 10 12  1  0
 11 10  1  0
 13 12  1  1
 13 14  1  0
 14  6  1  0
 15 16  2  0
 15 13  1  0
 18 17  1  0
 19 21  1  0
 19 18  1  0
 19 20  1  6
 21 22  1  1
 22 15  1  0
 23 21  1  0
 24 23  1  0
 25 23  2  0
M  END
$$$$
