DLI.pdb
     RDKit          3D

 25 24  0  0  1  0  0  0  0  0999 V2000
   28.3634  -21.3507  -15.0649 N   0  0  0  0  0  0  0  0  0  0  0  0
   27.4024  -20.3854  -14.5516 C   0  0  1  0  0  0  0  0  0  0  0  0
   26.7496  -19.6117  -15.6609 C   0  0  0  0  0  0  0  0  0  0  0  0
   27.7301  -18.8335  -16.4460 C   0  0  0  0  0  0  0  0  0  0  0  0
   27.4691  -18.3074  -17.5759 O   0  0  0  0  0  0  0  0  0  0  0  0
   26.3824  -21.0183  -13.7075 C   0  0  0  0  0  0  0  0  0  0  0  0
   25.8307  -22.0593  -14.0719 O   0  0  0  0  0  0  0  0  0  0  0  0
   29.0431  -18.6207  -15.9826 O   0  0  0  0  0  0  0  0  0  0  0  0
   26.7645  -21.9670   -9.2312 C   0  0  0  0  0  0  0  0  0  0  0  0
   26.2172  -20.6051   -9.4376 C   0  0  2  0  0  0  0  0  0  0  0  0
   26.2071  -19.9098   -8.0720 C   0  0  0  0  0  0  0  0  0  0  0  0
   24.9482  -20.4573  -10.1830 C   0  0  0  0  0  0  0  0  0  0  0  0
   24.9407  -20.9371  -11.6128 C   0  0  2  0  0  0  0  0  0  0  0  0
   25.9878  -20.4599  -12.4400 N   0  0  0  0  0  0  0  0  0  0  0  0
   23.6358  -20.6232  -12.2433 C   0  0  0  0  0  0  0  0  0  0  0  0
   23.3689  -19.4145  -12.5656 O   0  0  0  0  0  0  0  0  0  0  0  0
   22.1253  -22.5292  -16.7620 C   0  0  0  0  0  0  0  0  0  0  0  0
   22.2479  -21.6415  -15.5712 C   0  0  0  0  0  0  0  0  0  0  0  0
   21.2018  -21.8667  -14.5180 C   0  0  2  0  0  0  0  0  0  0  0  0
   19.9076  -21.2800  -15.1010 C   0  0  0  0  0  0  0  0  0  0  0  0
   21.4411  -21.2085  -13.2096 C   0  0  2  0  0  0  0  0  0  0  0  0
   22.6449  -21.5953  -12.5177 N   0  0  0  0  0  0  0  0  0  0  0  0
   20.2664  -21.5508  -12.3172 C   0  0  0  0  0  0  0  0  0  0  0  0
   19.0524  -20.9440  -12.5311 O   0  0  0  0  0  0  0  0  0  0  0  0
   20.4298  -22.3858  -11.3973 O   0  0  0  0  0  0  0  0  0  0  0  0
  2  1  1  6
  3  2  1  0
  3  4  1  0
  4  8  1  0
  4  5  2  0
  6  7  2  0
  6  2  1  0
 10  9  1  1
 10 12  1  0
 11 10  1  0
 13 12  1  1
 13 14  1  0
 14  6  1  0
 15 16  2  0
 15 13  1  0
 18 17  1  0
 19 21  1  0
 19 18  1  0
 19 20  1  6
 21 22  1  1
 22 15  1  0
 23 21  1  0
 24 23  1  0
 25 23  2  0
M  END
$$$$
