DLI.pdb
     RDKit          3D

 25 24  0  0  1  0  0  0  0  0999 V2000
   21.6002  -14.3731  -19.2322 N   0  0  0  0  0  0  0  0  0  0  0  0
   22.1787  -13.0746  -19.5457 C   0  0  1  0  0  0  0  0  0  0  0  0
   21.3143  -12.2998  -20.4986 C   0  0  0  0  0  0  0  0  0  0  0  0
   21.3018  -12.8994  -21.8489 C   0  0  0  0  0  0  0  0  0  0  0  0
   22.2269  -13.6534  -22.2932 O   0  0  0  0  0  0  0  0  0  0  0  0
   22.4393  -12.2813  -18.3391 C   0  0  0  0  0  0  0  0  0  0  0  0
   21.5633  -12.1456  -17.4816 O   0  0  0  0  0  0  0  0  0  0  0  0
   20.2423  -12.6693  -22.7480 O   0  0  0  0  0  0  0  0  0  0  0  0
   27.6437  -11.3137  -15.5379 C   0  0  0  0  0  0  0  0  0  0  0  0
   26.1754  -11.4260  -15.7062 C   0  0  2  0  0  0  0  0  0  0  0  0
   25.8435  -12.9194  -15.7974 C   0  0  0  0  0  0  0  0  0  0  0  0
   25.5181  -10.6119  -16.7516 C   0  0  0  0  0  0  0  0  0  0  0  0
   24.0468  -10.8554  -16.9769 C   0  0  2  0  0  0  0  0  0  0  0  0
   23.7067  -11.6372  -18.1088 N   0  0  0  0  0  0  0  0  0  0  0  0
   23.3253   -9.5615  -17.0398 C   0  0  0  0  0  0  0  0  0  0  0  0
   23.3487   -8.8816  -18.1229 O   0  0  0  0  0  0  0  0  0  0  0  0
   18.4008   -6.8966  -17.6466 C   0  0  0  0  0  0  0  0  0  0  0  0
   19.6858   -6.7170  -16.9132 C   0  0  0  0  0  0  0  0  0  0  0  0
   20.5308   -7.9551  -16.8278 C   0  0  2  0  0  0  0  0  0  0  0  0
   19.6971   -8.9591  -16.0177 C   0  0  0  0  0  0  0  0  0  0  0  0
   21.8392   -7.8061  -16.1435 C   0  0  2  0  0  0  0  0  0  0  0  0
   22.5962   -9.0181  -15.9556 N   0  0  0  0  0  0  0  0  0  0  0  0
   21.5622   -7.2189  -14.7754 C   0  0  0  0  0  0  0  0  0  0  0  0
   21.2275   -5.8911  -14.6620 O   0  0  0  0  0  0  0  0  0  0  0  0
   21.6452   -7.9630  -13.7705 O   0  0  0  0  0  0  0  0  0  0  0  0
  2  1  1  1
  3  2  1  0
  3  4  1  0
  4  8  1  0
  4  5  2  0
  6  7  2  0
  6  2  1  0
 10  9  1  6
 10 12  1  0
 11 10  1  0
 13 12  1  6
 13 14  1  0
 14  6  1  0
 15 16  2  0
 15 13  1  0
 18 17  1  0
 19 21  1  0
 19 18  1  0
 19 20  1  1
 21 22  1  1
 22 15  1  0
 23 21  1  0
 24 23  1  0
 25 23  2  0
M  END
$$$$
