DLI.pdb
     RDKit          3D

 25 24  0  0  1  0  0  0  0  0999 V2000
   18.3892  -11.5027  -16.9283 N   0  0  0  0  0  0  0  0  0  0  0  0
   19.2086  -10.4167  -17.4463 C   0  0  1  0  0  0  0  0  0  0  0  0
   18.3748   -9.3756  -18.1364 C   0  0  0  0  0  0  0  0  0  0  0  0
   17.7985   -9.8758  -19.4017 C   0  0  0  0  0  0  0  0  0  0  0  0
   18.0700  -11.0174  -19.8963 O   0  0  0  0  0  0  0  0  0  0  0  0
   20.0280   -9.7965  -16.3988 C   0  0  0  0  0  0  0  0  0  0  0  0
   19.5424   -9.5498  -15.2923 O   0  0  0  0  0  0  0  0  0  0  0  0
   16.8931   -9.1038  -20.1554 O   0  0  0  0  0  0  0  0  0  0  0  0
   23.6509  -10.8122  -13.7493 C   0  0  0  0  0  0  0  0  0  0  0  0
   24.0007  -10.5040  -15.1563 C   0  0  2  0  0  0  0  0  0  0  0  0
   25.4607  -10.9221  -15.3615 C   0  0  0  0  0  0  0  0  0  0  0  0
   23.6945   -9.1563  -15.6832 C   0  0  0  0  0  0  0  0  0  0  0  0
   22.2421   -8.7507  -15.7082 C   0  0  2  0  0  0  0  0  0  0  0  0
   21.4101   -9.4539  -16.6146 N   0  0  0  0  0  0  0  0  0  0  0  0
   22.1293   -7.2951  -15.9670 C   0  0  0  0  0  0  0  0  0  0  0  0
   22.4895   -6.8296  -17.1027 O   0  0  0  0  0  0  0  0  0  0  0  0
   17.8464   -4.4214  -16.3410 C   0  0  0  0  0  0  0  0  0  0  0  0
   19.2303   -4.9707  -16.4056 C   0  0  0  0  0  0  0  0  0  0  0  0
   20.1743   -4.3979  -15.3882 C   0  0  2  0  0  0  0  0  0  0  0  0
   20.3023   -2.9100  -15.7473 C   0  0  0  0  0  0  0  0  0  0  0  0
   21.5424   -4.9727  -15.3711 C   0  0  2  0  0  0  0  0  0  0  0  0
   21.6382   -6.3669  -15.0185 N   0  0  0  0  0  0  0  0  0  0  0  0
   22.3442   -4.1846  -14.3565 C   0  0  0  0  0  0  0  0  0  0  0  0
   22.8943   -2.9779  -14.7158 O   0  0  0  0  0  0  0  0  0  0  0  0
   22.4886   -4.6545  -13.2039 O   0  0  0  0  0  0  0  0  0  0  0  0
  2  1  1  1
  3  2  1  0
  3  4  1  0
  4  8  1  0
  4  5  2  0
  6  7  2  0
  6  2  1  0
 10  9  1  1
 10 12  1  0
 11 10  1  0
 13 12  1  6
 13 14  1  0
 14  6  1  0
 15 16  2  0
 15 13  1  0
 18 17  1  0
 19 21  1  0
 19 18  1  0
 19 20  1  6
 21 22  1  1
 22 15  1  0
 23 21  1  0
 24 23  1  0
 25 23  2  0
M  END
$$$$
