DLI.pdb
     RDKit          3D

 25 24  0  0  1  0  0  0  0  0999 V2000
   27.9425  -21.6084  -15.8615 N   0  0  0  0  0  0  0  0  0  0  0  0
   26.9681  -20.5751  -15.5423 C   0  0  1  0  0  0  0  0  0  0  0  0
   26.3894  -19.9586  -16.7835 C   0  0  0  0  0  0  0  0  0  0  0  0
   27.4251  -19.3142  -17.6174 C   0  0  0  0  0  0  0  0  0  0  0  0
   28.3490  -18.5751  -17.1464 O   0  0  0  0  0  0  0  0  0  0  0  0
   25.8936  -21.0784  -14.6788 C   0  0  0  0  0  0  0  0  0  0  0  0
   25.2900  -22.1126  -14.9741 O   0  0  0  0  0  0  0  0  0  0  0  0
   27.4553  -19.4816  -19.0156 O   0  0  0  0  0  0  0  0  0  0  0  0
   26.1813  -22.3753  -10.4382 C   0  0  0  0  0  0  0  0  0  0  0  0
   25.9160  -20.9179  -10.4898 C   0  0  2  0  0  0  0  0  0  0  0  0
   26.1168  -20.3710   -9.0724 C   0  0  0  0  0  0  0  0  0  0  0  0
   24.6690  -20.4474  -11.1313 C   0  0  0  0  0  0  0  0  0  0  0  0
   24.4762  -20.8040  -12.5840 C   0  0  2  0  0  0  0  0  0  0  0  0
   25.5037  -20.3975  -13.4712 N   0  0  0  0  0  0  0  0  0  0  0  0
   23.1763  -20.2769  -13.0645 C   0  0  0  0  0  0  0  0  0  0  0  0
   23.0216  -19.0142  -13.1981 O   0  0  0  0  0  0  0  0  0  0  0  0
   21.0985  -20.9825  -17.7104 C   0  0  0  0  0  0  0  0  0  0  0  0
   21.4643  -20.4991  -16.3489 C   0  0  0  0  0  0  0  0  0  0  0  0
   20.4755  -20.8551  -15.2767 C   0  0  2  0  0  0  0  0  0  0  0  0
   19.2026  -20.0682  -15.6225 C   0  0  0  0  0  0  0  0  0  0  0  0
   20.8600  -20.4955  -13.8892 C   0  0  2  0  0  0  0  0  0  0  0  0
   22.0714  -21.0979  -13.3923 N   0  0  0  0  0  0  0  0  0  0  0  0
   19.7251  -20.9299  -12.9855 C   0  0  0  0  0  0  0  0  0  0  0  0
   18.8228  -19.9975  -12.5334 O   0  0  0  0  0  0  0  0  0  0  0  0
   19.6341  -22.1388  -12.6684 O   0  0  0  0  0  0  0  0  0  0  0  0
  2  1  1  6
  3  2  1  0
  3  4  1  0
  4  8  1  0
  4  5  2  0
  6  7  2  0
  6  2  1  0
 10  9  1  1
 10 12  1  0
 11 10  1  0
 13 12  1  1
 13 14  1  0
 14  6  1  0
 15 16  2  0
 15 13  1  0
 18 17  1  0
 19 21  1  0
 19 18  1  0
 19 20  1  6
 21 22  1  1
 22 15  1  0
 23 21  1  0
 24 23  1  0
 25 23  2  0
M  END
$$$$
