EIC.pdb
     RDKit          3D

 24 23  0  0  1  0  0  0  0  0999 V2000
   17.1977  -11.8317  -17.8525 N   0  0  0  0  0  0  0  0  0  0  0  0
   18.0965  -11.4364  -16.8276 C   0  0  1  0  0  0  0  0  0  0  0  0
   19.3903  -12.1913  -16.9312 C   0  0  0  0  0  0  0  0  0  0  0  0
   19.3052  -13.6597  -16.7507 C   0  0  0  0  0  0  0  0  0  0  0  0
   18.9736  -14.1661  -15.4273 C   0  0  0  0  0  0  0  0  0  0  0  0
   19.4928  -13.5404  -14.4366 O   0  0  0  0  0  0  0  0  0  0  0  0
   18.3077   -9.9680  -16.7624 C   0  0  0  0  0  0  0  0  0  0  0  0
   18.4986   -9.3119  -17.8031 O   0  0  0  0  0  0  0  0  0  0  0  0
   18.1723  -15.2370  -15.1072 O   0  0  0  0  0  0  0  0  0  0  0  0
   14.8897   -7.5862  -15.0056 C   0  0  0  0  0  0  0  0  0  0  0  0
   16.1045   -7.1108  -15.7232 C   0  0  0  0  0  0  0  0  0  0  0  0
   17.3653   -6.9988  -14.9695 C   0  0  2  0  0  0  0  0  0  0  0  0
   17.7698   -5.5447  -14.7377 C   0  0  0  0  0  0  0  0  0  0  0  0
   18.4779   -7.8256  -15.4627 C   0  0  2  0  0  0  0  0  0  0  0  0
   18.3032   -9.2466  -15.5086 N   0  0  0  0  0  0  0  0  0  0  0  0
   19.7191   -7.4916  -14.6677 C   0  0  0  0  0  0  0  0  0  0  0  0
   19.8425   -7.8843  -13.4779 O   0  0  0  0  0  0  0  0  0  0  0  0
   20.7684   -6.7279  -15.2469 N   0  0  0  0  0  0  0  0  0  0  0  0
   22.0255   -6.5811  -14.5699 C   0  0  1  0  0  0  0  0  0  0  0  0
   23.1376   -6.4822  -15.5918 C   0  0  0  0  0  0  0  0  0  0  0  0
   23.1246   -7.8811  -16.7331 S   0  0  0  0  0  0  0  0  0  0  0  0
   22.0456   -5.4738  -13.6206 C   0  0  0  0  0  0  0  0  0  0  0  0
   21.3203   -4.4738  -13.8025 O   0  0  0  0  0  0  0  0  0  0  0  0
   22.8627   -5.5107  -12.5074 O   0  0  0  0  0  0  0  0  0  0  0  0
  2  3  1  0
  2  1  1  6
  4  3  1  0
  5  4  1  0
  5  6  2  0
  7  8  2  0
  7  2  1  0
  9  5  1  0
 10 11  1  0
 11 12  1  0
 12 14  1  0
 12 13  1  6
 14 15  1  1
 15  7  1  0
 16 17  2  0
 16 14  1  0
 18 16  1  0
 19 20  1  6
 19 18  1  0
 21 20  1  0
 22 19  1  0
 23 22  2  0
 24 22  1  0
M  END
$$$$
