EIC.pdb
     RDKit          3D

 24 23  0  0  1  0  0  0  0  0999 V2000
   19.6718  -11.5950  -19.6238 N   0  0  0  0  0  0  0  0  0  0  0  0
   20.7011  -10.6565  -19.3509 C   0  0  1  0  0  0  0  0  0  0  0  0
   20.8457   -9.6784  -20.4809 C   0  0  0  0  0  0  0  0  0  0  0  0
   21.2654  -10.2448  -21.7844 C   0  0  0  0  0  0  0  0  0  0  0  0
   22.6655  -10.1227  -22.1620 C   0  0  0  0  0  0  0  0  0  0  0  0
   23.0007  -10.6671  -23.2728 O   0  0  0  0  0  0  0  0  0  0  0  0
   20.5485   -9.9787  -18.0386 C   0  0  0  0  0  0  0  0  0  0  0  0
   19.4692  -10.0370  -17.4209 O   0  0  0  0  0  0  0  0  0  0  0  0
   23.6766   -9.4962  -21.4717 O   0  0  0  0  0  0  0  0  0  0  0  0
   23.7347  -10.8276  -13.9577 C   0  0  0  0  0  0  0  0  0  0  0  0
   22.6394  -10.4011  -14.8715 C   0  0  0  0  0  0  0  0  0  0  0  0
   22.4231   -8.9591  -15.0817 C   0  0  2  0  0  0  0  0  0  0  0  0
   22.1370   -8.2236  -13.7744 C   0  0  0  0  0  0  0  0  0  0  0  0
   21.4757   -8.6062  -16.1505 C   0  0  2  0  0  0  0  0  0  0  0  0
   21.6275   -9.2316  -17.4302 N   0  0  0  0  0  0  0  0  0  0  0  0
   21.4702   -7.1041  -16.3165 C   0  0  0  0  0  0  0  0  0  0  0  0
   22.3895   -6.5269  -16.9544 O   0  0  0  0  0  0  0  0  0  0  0  0
   20.4295   -6.3155  -15.7555 N   0  0  0  0  0  0  0  0  0  0  0  0
   20.3545   -4.9071  -16.0218 C   0  0  1  0  0  0  0  0  0  0  0  0
   20.4747   -4.6707  -17.5120 C   0  0  0  0  0  0  0  0  0  0  0  0
   18.9339   -5.0445  -18.3757 S   0  0  0  0  0  0  0  0  0  0  0  0
   19.1698   -4.2731  -15.4543 C   0  0  0  0  0  0  0  0  0  0  0  0
   19.0757   -3.0285  -15.4203 O   0  0  0  0  0  0  0  0  0  0  0  0
   18.1343   -5.0338  -14.9471 O   0  0  0  0  0  0  0  0  0  0  0  0
  2  3  1  0
  2  1  1  6
  4  3  1  0
  5  4  1  0
  5  6  2  0
  7  8  2  0
  7  2  1  0
  9  5  1  0
 10 11  1  0
 11 12  1  0
 12 14  1  0
 12 13  1  1
 14 15  1  6
 15  7  1  0
 16 17  2  0
 16 14  1  0
 18 16  1  0
 19 20  1  6
 19 18  1  0
 21 20  1  0
 22 19  1  0
 23 22  2  0
 24 22  1  0
M  END
$$$$
