EIC.pdb
     RDKit          3D

 24 23  0  0  1  0  0  0  0  0999 V2000
   27.2407  -19.9458  -17.8756 N   0  0  0  0  0  0  0  0  0  0  0  0
   26.4260  -19.2193  -16.9684 C   0  0  1  0  0  0  0  0  0  0  0  0
   25.5292  -18.2647  -17.7024 C   0  0  0  0  0  0  0  0  0  0  0  0
   26.2059  -17.1915  -18.4681 C   0  0  0  0  0  0  0  0  0  0  0  0
   27.0647  -17.5819  -19.5760 C   0  0  0  0  0  0  0  0  0  0  0  0
   28.3007  -17.7698  -19.2938 O   0  0  0  0  0  0  0  0  0  0  0  0
   25.6720  -20.0867  -16.0281 C   0  0  0  0  0  0  0  0  0  0  0  0
   25.0687  -21.0929  -16.4448 O   0  0  0  0  0  0  0  0  0  0  0  0
   26.7143  -17.7721  -20.8922 O   0  0  0  0  0  0  0  0  0  0  0  0
   27.4745  -21.2333  -10.9267 C   0  0  0  0  0  0  0  0  0  0  0  0
   26.8183  -21.2432  -12.2631 C   0  0  0  0  0  0  0  0  0  0  0  0
   25.4027  -20.8452  -12.3522 C   0  0  2  0  0  0  0  0  0  0  0  0
   24.5015  -21.7289  -11.4925 C   0  0  0  0  0  0  0  0  0  0  0  0
   24.8789  -20.6549  -13.7138 C   0  0  2  0  0  0  0  0  0  0  0  0
   25.6041  -19.8056  -14.6108 N   0  0  0  0  0  0  0  0  0  0  0  0
   23.4445  -20.1884  -13.6202 C   0  0  0  0  0  0  0  0  0  0  0  0
   23.1640  -19.0839  -13.0848 O   0  0  0  0  0  0  0  0  0  0  0  0
   22.3865  -20.9868  -14.1328 N   0  0  0  0  0  0  0  0  0  0  0  0
   21.0233  -20.5505  -14.0261 C   0  0  1  0  0  0  0  0  0  0  0  0
   20.3733  -20.5953  -15.3922 C   0  0  0  0  0  0  0  0  0  0  0  0
   18.5981  -20.2794  -15.2998 S   0  0  0  0  0  0  0  0  0  0  0  0
   20.2577  -21.2839  -13.0242 C   0  0  0  0  0  0  0  0  0  0  0  0
   20.4371  -22.5094  -12.8660 O   0  0  0  0  0  0  0  0  0  0  0  0
   19.3251  -20.6396  -12.2348 O   0  0  0  0  0  0  0  0  0  0  0  0
  2  3  1  0
  2  1  1  6
  4  3  1  0
  5  4  1  0
  5  6  2  0
  7  8  2  0
  7  2  1  0
  9  5  1  0
 10 11  1  0
 11 12  1  0
 12 14  1  0
 12 13  1  6
 14 15  1  1
 15  7  1  0
 16 17  2  0
 16 14  1  0
 18 16  1  0
 19 20  1  6
 19 18  1  0
 21 20  1  0
 22 19  1  0
 23 22  2  0
 24 22  1  0
M  END
$$$$
