EIC.pdb
     RDKit          3D

 24 23  0  0  1  0  0  0  0  0999 V2000
   27.5308  -22.5166  -16.2664 N   0  0  0  0  0  0  0  0  0  0  0  0
   26.7711  -21.3753  -15.8993 C   0  0  1  0  0  0  0  0  0  0  0  0
   26.2272  -20.6819  -17.1150 C   0  0  0  0  0  0  0  0  0  0  0  0
   27.2310  -20.1446  -18.0635 C   0  0  0  0  0  0  0  0  0  0  0  0
   28.1578  -19.1342  -17.5758 C   0  0  0  0  0  0  0  0  0  0  0  0
   29.4039  -19.4198  -17.6662 O   0  0  0  0  0  0  0  0  0  0  0  0
   25.7124  -21.6678  -14.9000 C   0  0  0  0  0  0  0  0  0  0  0  0
   24.9705  -22.6579  -15.0393 O   0  0  0  0  0  0  0  0  0  0  0  0
   27.8616  -17.9089  -17.0261 O   0  0  0  0  0  0  0  0  0  0  0  0
   26.3227  -20.7565   -9.4275 C   0  0  0  0  0  0  0  0  0  0  0  0
   25.9152  -21.2808  -10.7600 C   0  0  0  0  0  0  0  0  0  0  0  0
   24.6928  -20.7426  -11.3815 C   0  0  2  0  0  0  0  0  0  0  0  0
   23.4587  -20.9643  -10.5099 C   0  0  0  0  0  0  0  0  0  0  0  0
   24.4715  -21.1224  -12.7856 C   0  0  2  0  0  0  0  0  0  0  0  0
   25.4978  -20.8294  -13.7410 N   0  0  0  0  0  0  0  0  0  0  0  0
   23.1618  -20.5268  -13.2479 C   0  0  0  0  0  0  0  0  0  0  0  0
   23.0456  -19.2837  -13.4107 O   0  0  0  0  0  0  0  0  0  0  0  0
   22.0378  -21.3572  -13.5062 N   0  0  0  0  0  0  0  0  0  0  0  0
   20.7908  -20.7882  -13.9323 C   0  0  1  0  0  0  0  0  0  0  0  0
   20.3738  -21.4178  -15.2440 C   0  0  0  0  0  0  0  0  0  0  0  0
   18.7163  -20.9000  -15.7383 S   0  0  0  0  0  0  0  0  0  0  0  0
   19.7425  -20.8686  -12.9213 C   0  0  0  0  0  0  0  0  0  0  0  0
   19.6591  -21.8680  -12.1774 O   0  0  0  0  0  0  0  0  0  0  0  0
   18.8272  -19.8454  -12.7679 O   0  0  0  0  0  0  0  0  0  0  0  0
  2  3  1  0
  2  1  1  6
  4  3  1  0
  5  4  1  0
  5  6  2  0
  7  8  2  0
  7  2  1  0
  9  5  1  0
 10 11  1  0
 11 12  1  0
 12 14  1  0
 12 13  1  1
 14 15  1  6
 15  7  1  0
 16 17  2  0
 16 14  1  0
 18 16  1  0
 19 20  1  6
 19 18  1  0
 21 20  1  0
 22 19  1  0
 23 22  2  0
 24 22  1  0
M  END
$$$$
