EIC.pdb
     RDKit          3D

 24 23  0  0  1  0  0  0  0  0999 V2000
   27.7398  -20.9319  -15.5657 N   0  0  0  0  0  0  0  0  0  0  0  0
   26.8407  -20.0365  -14.9296 C   0  0  1  0  0  0  0  0  0  0  0  0
   26.2118  -19.1102  -15.9300 C   0  0  0  0  0  0  0  0  0  0  0  0
   27.1459  -18.2943  -16.7411 C   0  0  0  0  0  0  0  0  0  0  0  0
   27.7304  -18.9033  -17.9265 C   0  0  0  0  0  0  0  0  0  0  0  0
   26.9040  -19.3626  -18.7917 O   0  0  0  0  0  0  0  0  0  0  0  0
   25.8289  -20.7186  -14.0834 C   0  0  0  0  0  0  0  0  0  0  0  0
   25.2809  -21.7651  -14.4764 O   0  0  0  0  0  0  0  0  0  0  0  0
   29.0631  -19.0497  -18.2330 O   0  0  0  0  0  0  0  0  0  0  0  0
   26.2721  -20.3917   -8.6387 C   0  0  0  0  0  0  0  0  0  0  0  0
   25.9003  -21.0456   -9.9235 C   0  0  0  0  0  0  0  0  0  0  0  0
   24.5822  -20.7440  -10.5082 C   0  0  2  0  0  0  0  0  0  0  0  0
   23.4491  -21.4517   -9.7683 C   0  0  0  0  0  0  0  0  0  0  0  0
   24.4845  -20.8903  -11.9689 C   0  0  2  0  0  0  0  0  0  0  0  0
   25.4398  -20.2059  -12.7880 N   0  0  0  0  0  0  0  0  0  0  0  0
   23.0851  -20.5173  -12.4006 C   0  0  0  0  0  0  0  0  0  0  0  0
   22.7246  -19.3114  -12.4320 O   0  0  0  0  0  0  0  0  0  0  0  0
   22.1505  -21.5193  -12.7776 N   0  0  0  0  0  0  0  0  0  0  0  0
   20.8000  -21.1696  -13.1155 C   0  0  1  0  0  0  0  0  0  0  0  0
   20.5064  -21.6118  -14.5329 C   0  0  0  0  0  0  0  0  0  0  0  0
   18.7587  -21.4233  -14.9447 S   0  0  0  0  0  0  0  0  0  0  0  0
   19.8164  -21.6731  -12.1633 C   0  0  0  0  0  0  0  0  0  0  0  0
   20.0254  -22.7368  -11.5437 O   0  0  0  0  0  0  0  0  0  0  0  0
   18.6413  -20.9856  -11.9294 O   0  0  0  0  0  0  0  0  0  0  0  0
  2  3  1  0
  2  1  1  6
  4  3  1  0
  5  4  1  0
  5  6  2  0
  7  8  2  0
  7  2  1  0
  9  5  1  0
 10 11  1  0
 11 12  1  0
 12 14  1  0
 12 13  1  1
 14 15  1  6
 15  7  1  0
 16 17  2  0
 16 14  1  0
 18 16  1  0
 19 20  1  6
 19 18  1  0
 21 20  1  0
 22 19  1  0
 23 22  2  0
 24 22  1  0
M  END
$$$$
