EIC.pdb
     RDKit          3D

 24 23  0  0  1  0  0  0  0  0999 V2000
   24.4513  -25.3581  -14.7278 N   0  0  0  0  0  0  0  0  0  0  0  0
   24.6350  -23.9586  -14.8766 C   0  0  1  0  0  0  0  0  0  0  0  0
   25.7006  -23.6646  -15.8929 C   0  0  0  0  0  0  0  0  0  0  0  0
   27.0639  -24.1450  -15.5665 C   0  0  0  0  0  0  0  0  0  0  0  0
   28.1356  -23.8442  -16.5038 C   0  0  0  0  0  0  0  0  0  0  0  0
   28.5442  -22.6296  -16.5240 O   0  0  0  0  0  0  0  0  0  0  0  0
   23.3749  -23.2248  -15.1571 C   0  0  0  0  0  0  0  0  0  0  0  0
   22.3446  -23.8433  -15.4824 O   0  0  0  0  0  0  0  0  0  0  0  0
   28.7642  -24.7032  -17.3746 O   0  0  0  0  0  0  0  0  0  0  0  0
   18.4729  -21.0761  -13.7753 C   0  0  0  0  0  0  0  0  0  0  0  0
   19.6555  -20.7470  -14.6178 C   0  0  0  0  0  0  0  0  0  0  0  0
   20.9160  -21.4679  -14.3692 C   0  0  2  0  0  0  0  0  0  0  0  0
   21.2903  -21.4786  -12.8888 C   0  0  0  0  0  0  0  0  0  0  0  0
   22.0443  -21.0962  -15.2372 C   0  0  2  0  0  0  0  0  0  0  0  0
   23.2896  -21.7835  -15.0683 N   0  0  0  0  0  0  0  0  0  0  0  0
   22.2679  -19.6055  -15.1292 C   0  0  0  0  0  0  0  0  0  0  0  0
   22.6228  -19.0885  -14.0375 O   0  0  0  0  0  0  0  0  0  0  0  0
   22.0809  -18.7599  -16.2561 N   0  0  0  0  0  0  0  0  0  0  0  0
   22.6365  -17.4366  -16.2775 C   0  0  1  0  0  0  0  0  0  0  0  0
   23.9856  -17.4695  -16.9628 C   0  0  0  0  0  0  0  0  0  0  0  0
   25.2675  -18.1452  -15.8857 S   0  0  0  0  0  0  0  0  0  0  0  0
   21.7426  -16.4431  -16.8619 C   0  0  0  0  0  0  0  0  0  0  0  0
   22.0588  -15.2352  -16.8662 O   0  0  0  0  0  0  0  0  0  0  0  0
   20.5356  -16.8179  -17.4195 O   0  0  0  0  0  0  0  0  0  0  0  0
  2  3  1  0
  2  1  1  6
  4  3  1  0
  5  4  1  0
  5  6  2  0
  7  8  2  0
  7  2  1  0
  9  5  1  0
 10 11  1  0
 11 12  1  0
 12 14  1  0
 12 13  1  1
 14 15  1  1
 15  7  1  0
 16 17  2  0
 16 14  1  0
 18 16  1  0
 19 20  1  6
 19 18  1  0
 21 20  1  0
 22 19  1  0
 23 22  2  0
 24 22  1  0
M  END
$$$$
