EIC.pdb
     RDKit          3D

 24 23  0  0  1  0  0  0  0  0999 V2000
   17.6962  -11.6775  -17.0717 N   0  0  0  0  0  0  0  0  0  0  0  0
   18.4476  -10.5263  -17.4250 C   0  0  1  0  0  0  0  0  0  0  0  0
   17.5498   -9.4417  -17.9467 C   0  0  0  0  0  0  0  0  0  0  0  0
   16.9090   -9.6995  -19.2577 C   0  0  0  0  0  0  0  0  0  0  0  0
   17.4268   -8.9941  -20.4204 C   0  0  0  0  0  0  0  0  0  0  0  0
   18.6143   -9.3061  -20.7880 O   0  0  0  0  0  0  0  0  0  0  0  0
   19.3351  -10.0443  -16.3364 C   0  0  0  0  0  0  0  0  0  0  0  0
   18.9803  -10.1365  -15.1466 O   0  0  0  0  0  0  0  0  0  0  0  0
   16.7994   -8.0300  -21.1742 O   0  0  0  0  0  0  0  0  0  0  0  0
   24.1469  -11.6850  -15.1548 C   0  0  0  0  0  0  0  0  0  0  0  0
   22.8227  -11.0146  -15.2707 C   0  0  0  0  0  0  0  0  0  0  0  0
   22.7862   -9.5443  -15.3561 C   0  0  2  0  0  0  0  0  0  0  0  0
   23.5684   -8.8826  -14.2236 C   0  0  0  0  0  0  0  0  0  0  0  0
   21.4540   -8.9502  -15.5483 C   0  0  2  0  0  0  0  0  0  0  0  0
   20.6285   -9.4547  -16.6046 N   0  0  0  0  0  0  0  0  0  0  0  0
   21.6073   -7.4538  -15.6937 C   0  0  0  0  0  0  0  0  0  0  0  0
   22.1878   -6.9641  -16.6980 O   0  0  0  0  0  0  0  0  0  0  0  0
   21.1011   -6.5723  -14.7006 N   0  0  0  0  0  0  0  0  0  0  0  0
   21.2943   -5.1545  -14.8141 C   0  0  1  0  0  0  0  0  0  0  0  0
   19.9482   -4.4715  -14.9244 C   0  0  0  0  0  0  0  0  0  0  0  0
   18.9324   -5.1998  -16.2273 S   0  0  0  0  0  0  0  0  0  0  0  0
   22.1135   -4.5947  -13.7449 C   0  0  0  0  0  0  0  0  0  0  0  0
   22.4177   -5.2901  -12.7535 O   0  0  0  0  0  0  0  0  0  0  0  0
   22.5666   -3.2913  -13.8090 O   0  0  0  0  0  0  0  0  0  0  0  0
  2  3  1  0
  2  1  1  1
  4  3  1  0
  5  4  1  0
  5  6  2  0
  7  8  2  0
  7  2  1  0
  9  5  1  0
 10 11  1  0
 11 12  1  0
 12 14  1  0
 12 13  1  1
 14 15  1  6
 15  7  1  0
 16 17  2  0
 16 14  1  0
 18 16  1  0
 19 20  1  1
 19 18  1  0
 21 20  1  0
 22 19  1  0
 23 22  2  0
 24 22  1  0
M  END
$$$$
