EIC.pdb
     RDKit          3D

 24 23  0  0  1  0  0  0  0  0999 V2000
   21.8761  -15.7251  -17.0012 N   0  0  0  0  0  0  0  0  0  0  0  0
   22.3991  -14.5690  -17.6373 C   0  0  1  0  0  0  0  0  0  0  0  0
   21.4513  -14.0608  -18.6851 C   0  0  0  0  0  0  0  0  0  0  0  0
   21.1205  -15.0046  -19.7787 C   0  0  0  0  0  0  0  0  0  0  0  0
   22.1557  -15.3058  -20.7560 C   0  0  0  0  0  0  0  0  0  0  0  0
   21.8068  -16.0542  -21.7362 O   0  0  0  0  0  0  0  0  0  0  0  0
   22.8055  -13.5046  -16.6850 C   0  0  0  0  0  0  0  0  0  0  0  0
   22.1930  -13.3518  -15.6119 O   0  0  0  0  0  0  0  0  0  0  0  0
   23.4659  -14.8879  -20.7571 O   0  0  0  0  0  0  0  0  0  0  0  0
   27.9820  -12.6635  -15.3361 C   0  0  0  0  0  0  0  0  0  0  0  0
   26.4991  -12.7227  -15.4551 C   0  0  0  0  0  0  0  0  0  0  0  0
   25.7681  -11.4758  -15.7400 C   0  0  2  0  0  0  0  0  0  0  0  0
   26.0667  -10.3862  -14.7126 C   0  0  0  0  0  0  0  0  0  0  0  0
   24.3288  -11.6273  -16.0045 C   0  0  2  0  0  0  0  0  0  0  0  0
   23.9106  -12.6118  -16.9572 N   0  0  0  0  0  0  0  0  0  0  0  0
   23.7615  -10.2791  -16.3846 C   0  0  0  0  0  0  0  0  0  0  0  0
   24.1725   -9.6780  -17.4117 O   0  0  0  0  0  0  0  0  0  0  0  0
   22.7559   -9.6646  -15.5904 N   0  0  0  0  0  0  0  0  0  0  0  0
   22.2240   -8.3806  -15.9490 C   0  0  1  0  0  0  0  0  0  0  0  0
   20.9091   -8.5666  -16.6751 C   0  0  0  0  0  0  0  0  0  0  0  0
   19.7763   -9.6239  -15.7486 S   0  0  0  0  0  0  0  0  0  0  0  0
   22.1079   -7.4662  -14.8185 C   0  0  0  0  0  0  0  0  0  0  0  0
   22.3829   -7.8530  -13.6636 O   0  0  0  0  0  0  0  0  0  0  0  0
   21.6945   -6.1611  -15.0033 O   0  0  0  0  0  0  0  0  0  0  0  0
  2  3  1  0
  2  1  1  1
  4  3  1  0
  5  4  1  0
  5  6  2  0
  7  8  2  0
  7  2  1  0
  9  5  1  0
 10 11  1  0
 11 12  1  0
 12 14  1  0
 12 13  1  1
 14 15  1  6
 15  7  1  0
 16 17  2  0
 16 14  1  0
 18 16  1  0
 19 20  1  1
 19 18  1  0
 21 20  1  0
 22 19  1  0
 23 22  2  0
 24 22  1  0
M  END
$$$$
