EIC.pdb
     RDKit          3D

 24 23  0  0  1  0  0  0  0  0999 V2000
   19.4245  -13.0423  -16.7024 N   0  0  0  0  0  0  0  0  0  0  0  0
   19.8171  -11.7819  -17.2238 C   0  0  1  0  0  0  0  0  0  0  0  0
   18.6259  -11.0151  -17.7214 C   0  0  0  0  0  0  0  0  0  0  0  0
   17.7970  -11.6908  -18.7473 C   0  0  0  0  0  0  0  0  0  0  0  0
   16.4919  -12.1943  -18.3463 C   0  0  0  0  0  0  0  0  0  0  0  0
   16.3293  -13.4635  -18.4191 O   0  0  0  0  0  0  0  0  0  0  0  0
   20.6432  -10.9852  -16.2816 C   0  0  0  0  0  0  0  0  0  0  0  0
   20.2847  -10.8382  -15.0984 O   0  0  0  0  0  0  0  0  0  0  0  0
   15.4079  -11.4752  -17.9001 O   0  0  0  0  0  0  0  0  0  0  0  0
   25.9483  -11.5319  -15.4915 C   0  0  0  0  0  0  0  0  0  0  0  0
   24.4979  -11.1971  -15.4622 C   0  0  0  0  0  0  0  0  0  0  0  0
   24.0964   -9.7982  -15.6904 C   0  0  2  0  0  0  0  0  0  0  0  0
   24.7956   -8.8354  -14.7332 C   0  0  0  0  0  0  0  0  0  0  0  0
   22.6477   -9.5576  -15.7795 C   0  0  2  0  0  0  0  0  0  0  0  0
   21.8790  -10.3535  -16.6892 N   0  0  0  0  0  0  0  0  0  0  0  0
   22.4167   -8.0919  -16.0665 C   0  0  0  0  0  0  0  0  0  0  0  0
   22.7124   -7.6049  -17.1892 O   0  0  0  0  0  0  0  0  0  0  0  0
   21.8634   -7.2366  -15.0756 N   0  0  0  0  0  0  0  0  0  0  0  0
   21.7439   -5.8258  -15.3113 C   0  0  1  0  0  0  0  0  0  0  0  0
   20.2795   -5.4528  -15.3949 C   0  0  0  0  0  0  0  0  0  0  0  0
   20.0386   -3.6649  -15.3230 S   0  0  0  0  0  0  0  0  0  0  0  0
   22.4678   -5.0134  -14.3399 C   0  0  0  0  0  0  0  0  0  0  0  0
   23.0422   -3.9642  -14.6983 O   0  0  0  0  0  0  0  0  0  0  0  0
   22.5307   -5.3871  -13.0115 O   0  0  0  0  0  0  0  0  0  0  0  0
  2  3  1  0
  2  1  1  1
  4  3  1  0
  5  4  1  0
  5  6  2  0
  7  8  2  0
  7  2  1  0
  9  5  1  0
 10 11  1  0
 11 12  1  0
 12 14  1  0
 12 13  1  1
 14 15  1  6
 15  7  1  0
 16 17  2  0
 16 14  1  0
 18 16  1  0
 19 20  1  1
 19 18  1  0
 21 20  1  0
 22 19  1  0
 23 22  2  0
 24 22  1  0
M  END
$$$$
