EIC.pdb
     RDKit          3D

 24 23  0  0  1  0  0  0  0  0999 V2000
   23.9118  -12.0236  -21.0370 N   0  0  0  0  0  0  0  0  0  0  0  0
   24.3351  -10.7738  -20.5140 C   0  0  1  0  0  0  0  0  0  0  0  0
   23.9578   -9.6524  -21.4384 C   0  0  0  0  0  0  0  0  0  0  0  0
   24.5955   -9.6667  -22.7760 C   0  0  0  0  0  0  0  0  0  0  0  0
   24.2810   -8.5816  -23.6931 C   0  0  0  0  0  0  0  0  0  0  0  0
   24.0155   -8.9210  -24.9001 O   0  0  0  0  0  0  0  0  0  0  0  0
   23.8777  -10.5313  -19.1223 C   0  0  0  0  0  0  0  0  0  0  0  0
   22.8594  -11.0991  -18.6857 O   0  0  0  0  0  0  0  0  0  0  0  0
   24.2357   -7.2334  -23.4253 O   0  0  0  0  0  0  0  0  0  0  0  0
   26.9080  -11.2870  -14.9251 C   0  0  0  0  0  0  0  0  0  0  0  0
   25.8013  -11.0148  -15.8831 C   0  0  0  0  0  0  0  0  0  0  0  0
   25.0916   -9.7273  -15.7872 C   0  0  2  0  0  0  0  0  0  0  0  0
   24.4810   -9.5086  -14.4048 C   0  0  0  0  0  0  0  0  0  0  0  0
   24.1468   -9.4380  -16.8772 C   0  0  2  0  0  0  0  0  0  0  0  0
   24.5812   -9.6387  -18.2274 N   0  0  0  0  0  0  0  0  0  0  0  0
   23.6352   -8.0255  -16.7127 C   0  0  0  0  0  0  0  0  0  0  0  0
   24.4112   -7.0434  -16.8491 O   0  0  0  0  0  0  0  0  0  0  0  0
   22.2709   -7.7793  -16.4001 N   0  0  0  0  0  0  0  0  0  0  0  0
   21.7527   -6.4408  -16.3915 C   0  0  1  0  0  0  0  0  0  0  0  0
   21.9728   -5.8083  -17.7488 C   0  0  0  0  0  0  0  0  0  0  0  0
   21.3263   -4.1239  -17.8154 S   0  0  0  0  0  0  0  0  0  0  0  0
   20.3607   -6.3619  -15.9628 C   0  0  0  0  0  0  0  0  0  0  0  0
   19.6356   -7.3782  -15.9845 O   0  0  0  0  0  0  0  0  0  0  0  0
   19.8212   -5.1676  -15.5261 O   0  0  0  0  0  0  0  0  0  0  0  0
  2  3  1  0
  2  1  1  6
  4  3  1  0
  5  4  1  0
  5  6  2  0
  7  8  2  0
  7  2  1  0
  9  5  1  0
 10 11  1  0
 11 12  1  0
 12 14  1  0
 12 13  1  1
 14 15  1  6
 15  7  1  0
 16 17  2  0
 16 14  1  0
 18 16  1  0
 19 20  1  6
 19 18  1  0
 21 20  1  0
 22 19  1  0
 23 22  2  0
 24 22  1  0
M  END
$$$$
