EIC.pdb
     RDKit          3D

 24 23  0  0  1  0  0  0  0  0999 V2000
   14.6173  -10.8661  -17.1198 N   0  0  0  0  0  0  0  0  0  0  0  0
   15.3412  -10.4106  -15.9871 C   0  0  1  0  0  0  0  0  0  0  0  0
   16.0414  -11.5511  -15.3065 C   0  0  0  0  0  0  0  0  0  0  0  0
   15.3214  -12.8463  -15.2966 C   0  0  0  0  0  0  0  0  0  0  0  0
   15.9837  -13.9902  -14.6880 C   0  0  0  0  0  0  0  0  0  0  0  0
   15.2167  -14.8972  -14.2069 O   0  0  0  0  0  0  0  0  0  0  0  0
   16.2633   -9.2866  -16.2893 C   0  0  0  0  0  0  0  0  0  0  0  0
   16.8606   -9.2375  -17.3806 O   0  0  0  0  0  0  0  0  0  0  0  0
   17.3342  -14.2181  -14.5626 O   0  0  0  0  0  0  0  0  0  0  0  0
   17.1086   -3.3828  -16.6223 C   0  0  0  0  0  0  0  0  0  0  0  0
   17.6695   -4.7053  -16.2313 C   0  0  0  0  0  0  0  0  0  0  0  0
   16.7375   -5.8242  -16.0085 C   0  0  2  0  0  0  0  0  0  0  0  0
   15.6043   -5.4482  -15.0564 C   0  0  0  0  0  0  0  0  0  0  0  0
   17.3595   -7.1136  -15.6692 C   0  0  2  0  0  0  0  0  0  0  0  0
   16.5064   -8.2178  -15.3454 N   0  0  0  0  0  0  0  0  0  0  0  0
   18.3520   -6.8933  -14.5511 C   0  0  0  0  0  0  0  0  0  0  0  0
   17.9651   -6.8290  -13.3547 O   0  0  0  0  0  0  0  0  0  0  0  0
   19.7388   -6.7535  -14.8285 N   0  0  0  0  0  0  0  0  0  0  0  0
   20.6886   -6.6219  -13.7604 C   0  0  1  0  0  0  0  0  0  0  0  0
   21.2996   -7.9742  -13.4623 C   0  0  0  0  0  0  0  0  0  0  0  0
   22.5548   -7.8713  -12.1686 S   0  0  0  0  0  0  0  0  0  0  0  0
   21.6994   -5.5997  -14.0076 C   0  0  0  0  0  0  0  0  0  0  0  0
   22.1278   -5.4029  -15.1638 O   0  0  0  0  0  0  0  0  0  0  0  0
   22.1988   -4.8333  -12.9725 O   0  0  0  0  0  0  0  0  0  0  0  0
  2  3  1  0
  2  1  1  6
  4  3  1  0
  5  4  1  0
  5  6  2  0
  7  8  2  0
  7  2  1  0
  9  5  1  0
 10 11  1  0
 11 12  1  0
 12 14  1  0
 12 13  1  1
 14 15  1  1
 15  7  1  0
 16 17  2  0
 16 14  1  0
 18 16  1  0
 19 20  1  6
 19 18  1  0
 21 20  1  0
 22 19  1  0
 23 22  2  0
 24 22  1  0
M  END
$$$$
