YPF.pdb
     RDKit          3D

 31 33  0  0  1  0  0  0  0  0999 V2000
   30.1428  -15.2915  -18.6187 O   0  0  0  0  0  0  0  0  0  0  0  0
   29.2058  -16.0048  -17.9076 C   0  0  0  0  0  0  0  0  0  0  0  0
   27.8501  -15.9147  -18.1854 C   0  0  0  0  0  0  0  0  0  0  0  0
   26.9207  -16.6373  -17.4625 C   0  0  0  0  0  0  0  0  0  0  0  0
   27.3256  -17.4704  -16.4408 C   0  0  0  0  0  0  0  0  0  0  0  0
   26.3964  -18.2684  -15.6289 C   0  0  0  0  0  0  0  0  0  0  0  0
   26.6496  -19.7668  -15.8114 C   0  0  2  0  0  0  0  0  0  0  0  0
   26.2524  -20.0552  -17.1762 N   0  0  0  0  0  0  0  0  0  0  0  0
   25.7843  -20.5025  -14.8655 C   0  0  0  0  0  0  0  0  0  0  0  0
   24.6469  -20.8664  -15.2548 O   0  0  0  0  0  0  0  0  0  0  0  0
   28.6756  -17.5487  -16.1775 C   0  0  0  0  0  0  0  0  0  0  0  0
   29.6167  -16.8341  -16.8896 C   0  0  0  0  0  0  0  0  0  0  0  0
   26.1730  -20.8187  -13.5403 N   0  0  0  0  0  0  0  0  0  0  0  0
   27.4577  -20.4888  -12.9643 C   0  0  0  0  0  0  0  0  0  0  0  0
   27.7159  -21.7318  -12.1006 C   0  0  0  0  0  0  0  0  0  0  0  0
   26.3630  -21.8861  -11.4357 C   0  0  0  0  0  0  0  0  0  0  0  0
   25.4064  -21.4990  -12.5431 C   0  0  1  0  0  0  0  0  0  0  0  0
   24.3330  -20.6005  -12.0082 C   0  0  0  0  0  0  0  0  0  0  0  0
   24.6047  -19.4973  -11.4505 O   0  0  0  0  0  0  0  0  0  0  0  0
   22.9597  -20.9305  -12.0946 N   0  0  0  0  0  0  0  0  0  0  0  0
   21.9021  -20.1539  -11.4528 C   0  0  1  0  0  0  0  0  0  0  0  0
   21.5988  -19.0340  -12.4219 C   0  0  0  0  0  0  0  0  0  0  0  0
   21.1039  -19.4672  -13.7253 C   0  0  0  0  0  0  0  0  0  0  0  0
   22.0337  -19.7970  -14.6986 C   0  0  0  0  0  0  0  0  0  0  0  0
   21.6555  -20.2232  -15.9569 C   0  0  0  0  0  0  0  0  0  0  0  0
   20.3137  -20.3197  -16.2421 C   0  0  0  0  0  0  0  0  0  0  0  0
   19.3656  -19.9983  -15.2936 C   0  0  0  0  0  0  0  0  0  0  0  0
   19.7766  -19.5699  -14.0283 C   0  0  0  0  0  0  0  0  0  0  0  0
   20.6814  -20.9611  -11.2591 C   0  0  0  0  0  0  0  0  0  0  0  0
   20.6423  -22.1148  -11.7559 O   0  0  0  0  0  0  0  0  0  0  0  0
   19.5687  -20.5285  -10.5605 O   0  0  0  0  0  0  0  0  0  0  0  0
  2  1  1  0
  3  2  2  0
  4  3  1  0
  5 11  1  0
  5  4  2  0
  6  5  1  0
  7  6  1  0
  7  8  1  6
  9  7  1  0
  9 10  2  0
 11 12  2  0
 12  2  1  0
 13  9  1  0
 14 13  1  0
 15 14  1  0
 16 15  1  0
 16 17  1  0
 17 13  1  0
 17 18  1  1
 19 18  2  0
 20 18  1  0
 21 29  1  0
 21 20  1  0
 21 22  1  6
 23 22  1  0
 24 23  2  0
 25 24  1  0
 26 27  1  0
 26 25  2  0
 27 28  2  0
 28 23  1  0
 29 31  1  0
 30 29  2  0
M  END
$$$$
