YPF.pdb
     RDKit          3D

 31 33  0  0  1  0  0  0  0  0999 V2000
   20.2653  -15.8832  -17.4279 O   0  0  0  0  0  0  0  0  0  0  0  0
   20.9231  -16.6102  -16.4628 C   0  0  0  0  0  0  0  0  0  0  0  0
   22.2547  -16.9731  -16.5989 C   0  0  0  0  0  0  0  0  0  0  0  0
   22.9020  -17.7034  -15.6211 C   0  0  0  0  0  0  0  0  0  0  0  0
   22.2315  -18.0898  -14.4796 C   0  0  0  0  0  0  0  0  0  0  0  0
   22.8527  -18.8672  -13.3984 C   0  0  0  0  0  0  0  0  0  0  0  0
   23.2208  -20.2757  -13.8713 C   0  0  2  0  0  0  0  0  0  0  0  0
   21.9768  -21.0211  -13.8472 N   0  0  0  0  0  0  0  0  0  0  0  0
   24.1775  -20.8548  -12.9049 C   0  0  0  0  0  0  0  0  0  0  0  0
   23.7225  -21.4415  -11.8917 O   0  0  0  0  0  0  0  0  0  0  0  0
   20.9094  -17.7213  -14.3597 C   0  0  0  0  0  0  0  0  0  0  0  0
   20.2482  -16.9923  -15.3265 C   0  0  0  0  0  0  0  0  0  0  0  0
   25.5835  -20.7819  -13.0633 N   0  0  0  0  0  0  0  0  0  0  0  0
   26.2491  -20.1171  -14.1615 C   0  0  0  0  0  0  0  0  0  0  0  0
   27.4368  -21.0618  -14.3952 C   0  0  0  0  0  0  0  0  0  0  0  0
   27.8962  -21.2784  -12.9676 C   0  0  0  0  0  0  0  0  0  0  0  0
   26.5894  -21.3268  -12.2053 C   0  0  1  0  0  0  0  0  0  0  0  0
   26.6946  -20.5192  -10.9474 C   0  0  0  0  0  0  0  0  0  0  0  0
   26.5427  -19.2626  -10.9482 O   0  0  0  0  0  0  0  0  0  0  0  0
   26.9683  -21.1104   -9.6914 N   0  0  0  0  0  0  0  0  0  0  0  0
   27.7407  -20.4513   -8.6413 C   0  0  1  0  0  0  0  0  0  0  0  0
   26.9315  -20.6499   -7.3799 C   0  0  0  0  0  0  0  0  0  0  0  0
   27.5214  -20.0739   -6.1751 C   0  0  0  0  0  0  0  0  0  0  0  0
   28.1903  -20.9225   -5.3073 C   0  0  0  0  0  0  0  0  0  0  0  0
   28.7846  -20.4631   -4.1481 C   0  0  0  0  0  0  0  0  0  0  0  0
   28.7043  -19.1218   -3.8556 C   0  0  0  0  0  0  0  0  0  0  0  0
   28.0453  -18.2535   -4.7003 C   0  0  0  0  0  0  0  0  0  0  0  0
   27.4531  -18.7456   -5.8668 C   0  0  0  0  0  0  0  0  0  0  0  0
   29.0624  -21.0845   -8.4650 C   0  0  0  0  0  0  0  0  0  0  0  0
   29.1819  -22.3052   -8.7389 O   0  0  0  0  0  0  0  0  0  0  0  0
   30.1878  -20.4178   -8.0154 O   0  0  0  0  0  0  0  0  0  0  0  0
  2  1  1  0
  3  2  2  0
  4  3  1  0
  5 11  1  0
  5  4  2  0
  6  5  1  0
  7  6  1  0
  7  8  1  1
  9  7  1  0
  9 10  2  0
 11 12  2  0
 12  2  1  0
 13  9  1  0
 14 13  1  0
 15 14  1  0
 16 15  1  0
 16 17  1  0
 17 13  1  0
 17 18  1  1
 19 18  2  0
 20 18  1  0
 21 29  1  0
 21 20  1  0
 21 22  1  1
 23 22  1  0
 24 23  2  0
 25 24  1  0
 26 27  1  0
 26 25  2  0
 27 28  2  0
 28 23  1  0
 29 31  1  0
 30 29  2  0
M  END
$$$$
