YPF.pdb
     RDKit          3D

 31 33  0  0  1  0  0  0  0  0999 V2000
   21.9678  -12.7050  -20.4446 O   0  0  0  0  0  0  0  0  0  0  0  0
   22.3059  -13.8017  -19.6859 C   0  0  0  0  0  0  0  0  0  0  0  0
   21.4703  -14.9030  -19.5763 C   0  0  0  0  0  0  0  0  0  0  0  0
   21.8234  -15.9972  -18.8105 C   0  0  0  0  0  0  0  0  0  0  0  0
   23.0247  -16.0169  -18.1335 C   0  0  0  0  0  0  0  0  0  0  0  0
   23.4673  -17.1435  -17.3002 C   0  0  0  0  0  0  0  0  0  0  0  0
   24.5640  -17.9506  -17.9991 C   0  0  2  0  0  0  0  0  0  0  0  0
   23.8925  -18.6463  -19.0802 N   0  0  0  0  0  0  0  0  0  0  0  0
   25.1112  -18.9252  -17.0319 C   0  0  0  0  0  0  0  0  0  0  0  0
   24.4625  -19.9782  -16.8124 O   0  0  0  0  0  0  0  0  0  0  0  0
   23.8433  -14.9153  -18.2527 C   0  0  0  0  0  0  0  0  0  0  0  0
   23.5059  -13.8147  -19.0131 C   0  0  0  0  0  0  0  0  0  0  0  0
   26.3318  -18.7321  -16.3390 N   0  0  0  0  0  0  0  0  0  0  0  0
   27.1977  -17.5869  -16.5119 C   0  0  0  0  0  0  0  0  0  0  0  0
   28.5788  -18.2479  -16.3966 C   0  0  0  0  0  0  0  0  0  0  0  0
   28.3588  -19.1259  -15.1813 C   0  0  0  0  0  0  0  0  0  0  0  0
   26.9311  -19.5930  -15.3672 C   0  0  1  0  0  0  0  0  0  0  0  0
   26.1872  -19.5108  -14.0689 C   0  0  0  0  0  0  0  0  0  0  0  0
   25.8291  -18.4015  -13.5757 O   0  0  0  0  0  0  0  0  0  0  0  0
   25.8429  -20.6621  -13.3219 N   0  0  0  0  0  0  0  0  0  0  0  0
   25.1173  -20.6139  -12.0551 C   0  0  1  0  0  0  0  0  0  0  0  0
   23.6744  -20.3822  -12.4415 C   0  0  0  0  0  0  0  0  0  0  0  0
   22.7179  -20.5053  -11.3453 C   0  0  0  0  0  0  0  0  0  0  0  0
   22.4706  -19.3854  -10.5673 C   0  0  0  0  0  0  0  0  0  0  0  0
   21.5765  -19.4090   -9.5148 C   0  0  0  0  0  0  0  0  0  0  0  0
   20.9172  -20.5839   -9.2390 C   0  0  0  0  0  0  0  0  0  0  0  0
   21.1428  -21.7143   -9.9960 C   0  0  0  0  0  0  0  0  0  0  0  0
   22.0530  -21.6620  -11.0554 C   0  0  0  0  0  0  0  0  0  0  0  0
   25.2167  -21.8941  -11.3270 C   0  0  0  0  0  0  0  0  0  0  0  0
   25.1083  -21.8800  -10.0750 O   0  0  0  0  0  0  0  0  0  0  0  0
   25.4221  -23.1188  -11.9364 O   0  0  0  0  0  0  0  0  0  0  0  0
  2  1  1  0
  3  2  2  0
  4  3  1  0
  5 11  1  0
  5  4  2  0
  6  5  1  0
  7  6  1  0
  7  8  1  6
  9  7  1  0
  9 10  2  0
 11 12  2  0
 12  2  1  0
 13  9  1  0
 14 13  1  0
 15 14  1  0
 16 15  1  0
 16 17  1  0
 17 13  1  0
 17 18  1  1
 19 18  2  0
 20 18  1  0
 21 29  1  0
 21 20  1  0
 21 22  1  6
 23 22  1  0
 24 23  2  0
 25 24  1  0
 26 27  1  0
 26 25  2  0
 27 28  2  0
 28 23  1  0
 29 31  1  0
 30 29  2  0
M  END
$$$$
