YPF.pdb
     RDKit          3D

 31 33  0  0  1  0  0  0  0  0999 V2000
   23.0287  -11.9125  -17.7003 O   0  0  0  0  0  0  0  0  0  0  0  0
   23.2827  -13.1259  -17.1039 C   0  0  0  0  0  0  0  0  0  0  0  0
   24.5011  -13.4071  -16.5041 C   0  0  0  0  0  0  0  0  0  0  0  0
   24.7415  -14.6305  -15.9090 C   0  0  0  0  0  0  0  0  0  0  0  0
   23.7664  -15.6056  -15.8991 C   0  0  0  0  0  0  0  0  0  0  0  0
   23.9494  -16.9289  -15.2869 C   0  0  0  0  0  0  0  0  0  0  0  0
   24.7948  -17.8394  -16.1809 C   0  0  2  0  0  0  0  0  0  0  0  0
   23.8939  -18.2881  -17.2253 N   0  0  0  0  0  0  0  0  0  0  0  0
   25.2486  -18.9913  -15.3735 C   0  0  0  0  0  0  0  0  0  0  0  0
   24.4283  -19.9109  -15.1301 O   0  0  0  0  0  0  0  0  0  0  0  0
   22.5619  -15.3105  -16.4990 C   0  0  0  0  0  0  0  0  0  0  0  0
   22.3054  -14.0942  -17.0976 C   0  0  0  0  0  0  0  0  0  0  0  0
   26.5634  -19.1114  -14.8597 N   0  0  0  0  0  0  0  0  0  0  0  0
   27.6772  -18.2813  -15.2615 C   0  0  0  0  0  0  0  0  0  0  0  0
   28.8223  -19.3040  -15.2431 C   0  0  0  0  0  0  0  0  0  0  0  0
   28.5501  -19.9925  -13.9210 C   0  0  0  0  0  0  0  0  0  0  0  0
   27.0377  -20.0381  -13.8793 C   0  0  1  0  0  0  0  0  0  0  0  0
   26.5463  -19.6525  -12.5172 C   0  0  0  0  0  0  0  0  0  0  0  0
   26.3094  -18.4474  -12.2112 O   0  0  0  0  0  0  0  0  0  0  0  0
   26.3193  -20.6077  -11.4982 N   0  0  0  0  0  0  0  0  0  0  0  0
   26.0644  -20.2540  -10.1041 C   0  0  1  0  0  0  0  0  0  0  0  0
   24.7440  -19.5182  -10.1243 C   0  0  0  0  0  0  0  0  0  0  0  0
   23.6172  -20.2932  -10.6353 C   0  0  0  0  0  0  0  0  0  0  0  0
   23.5772  -20.5674  -11.9932 C   0  0  0  0  0  0  0  0  0  0  0  0
   22.5531  -21.2993  -12.5618 C   0  0  0  0  0  0  0  0  0  0  0  0
   21.5479  -21.7653  -11.7473 C   0  0  0  0  0  0  0  0  0  0  0  0
   21.5610  -21.5083  -10.3925 C   0  0  0  0  0  0  0  0  0  0  0  0
   22.6098  -20.7650   -9.8438 C   0  0  0  0  0  0  0  0  0  0  0  0
   25.9279  -21.4562   -9.2584 C   0  0  0  0  0  0  0  0  0  0  0  0
   25.6462  -21.3036   -8.0432 O   0  0  0  0  0  0  0  0  0  0  0  0
   26.0900  -22.7504   -9.7188 O   0  0  0  0  0  0  0  0  0  0  0  0
  2  1  1  0
  3  2  2  0
  4  3  1  0
  5 11  1  0
  5  4  2  0
  6  5  1  0
  7  6  1  0
  7  8  1  6
  9  7  1  0
  9 10  2  0
 11 12  2  0
 12  2  1  0
 13  9  1  0
 14 13  1  0
 15 14  1  0
 16 15  1  0
 16 17  1  0
 17 13  1  0
 17 18  1  1
 19 18  2  0
 20 18  1  0
 21 29  1  0
 21 20  1  0
 21 22  1  6
 23 22  1  0
 24 23  2  0
 25 24  1  0
 26 27  1  0
 26 25  2  0
 27 28  2  0
 28 23  1  0
 29 31  1  0
 30 29  2  0
M  END
$$$$
