YPF.pdb
     RDKit          3D

 31 33  0  0  1  0  0  0  0  0999 V2000
   20.2545  -16.8721  -16.9632 O   0  0  0  0  0  0  0  0  0  0  0  0
   21.0554  -17.5927  -16.1076 C   0  0  0  0  0  0  0  0  0  0  0  0
   22.3104  -17.1433  -15.7254 C   0  0  0  0  0  0  0  0  0  0  0  0
   23.1035  -17.8781  -14.8653 C   0  0  0  0  0  0  0  0  0  0  0  0
   22.6594  -19.0839  -14.3648 C   0  0  0  0  0  0  0  0  0  0  0  0
   23.4460  -19.9201  -13.4474 C   0  0  0  0  0  0  0  0  0  0  0  0
   24.5455  -20.6780  -14.1955 C   0  0  2  0  0  0  0  0  0  0  0  0
   23.8550  -21.7212  -14.9296 N   0  0  0  0  0  0  0  0  0  0  0  0
   25.4567  -21.2780  -13.1984 C   0  0  0  0  0  0  0  0  0  0  0  0
   25.1908  -22.4244  -12.7591 O   0  0  0  0  0  0  0  0  0  0  0  0
   21.4106  -19.5162  -14.7542 C   0  0  0  0  0  0  0  0  0  0  0  0
   20.6061  -18.7949  -15.6120 C   0  0  0  0  0  0  0  0  0  0  0  0
   26.6165  -20.6254  -12.7124 N   0  0  0  0  0  0  0  0  0  0  0  0
   27.1972  -19.4412  -13.3051 C   0  0  0  0  0  0  0  0  0  0  0  0
   28.6941  -19.7289  -13.1206 C   0  0  0  0  0  0  0  0  0  0  0  0
   28.7043  -20.2004  -11.6806 C   0  0  0  0  0  0  0  0  0  0  0  0
   27.4156  -20.9884  -11.5834 C   0  0  1  0  0  0  0  0  0  0  0  0
   26.7002  -20.6541  -10.3098 C   0  0  0  0  0  0  0  0  0  0  0  0
   25.7767  -19.7895  -10.2719 O   0  0  0  0  0  0  0  0  0  0  0  0
   27.0132  -21.2820   -9.0810 N   0  0  0  0  0  0  0  0  0  0  0  0
   26.3101  -21.0034   -7.8313 C   0  0  1  0  0  0  0  0  0  0  0  0
   27.0882  -21.7504   -6.7720 C   0  0  0  0  0  0  0  0  0  0  0  0
   27.9894  -20.9235   -5.9748 C   0  0  0  0  0  0  0  0  0  0  0  0
   28.9830  -20.2187   -6.6356 C   0  0  0  0  0  0  0  0  0  0  0  0
   29.8749  -19.4068   -5.9624 C   0  0  0  0  0  0  0  0  0  0  0  0
   29.7650  -19.3016   -4.5957 C   0  0  0  0  0  0  0  0  0  0  0  0
   28.7862  -19.9910   -3.9112 C   0  0  0  0  0  0  0  0  0  0  0  0
   27.8969  -20.8054   -4.6178 C   0  0  0  0  0  0  0  0  0  0  0  0
   26.3295  -19.5627   -7.5106 C   0  0  0  0  0  0  0  0  0  0  0  0
   25.5160  -19.1292   -6.6564 O   0  0  0  0  0  0  0  0  0  0  0  0
   27.1915  -18.6505   -8.0920 O   0  0  0  0  0  0  0  0  0  0  0  0
  2  1  1  0
  3  2  2  0
  4  3  1  0
  5 11  1  0
  5  4  2  0
  6  5  1  0
  7  6  1  0
  7  8  1  1
  9  7  1  0
  9 10  2  0
 11 12  2  0
 12  2  1  0
 13  9  1  0
 14 13  1  0
 15 14  1  0
 16 15  1  0
 16 17  1  0
 17 13  1  0
 17 18  1  1
 19 18  2  0
 20 18  1  0
 21 29  1  0
 21 20  1  0
 21 22  1  1
 23 22  1  0
 24 23  2  0
 25 24  1  0
 26 27  1  0
 26 25  2  0
 27 28  2  0
 28 23  1  0
 29 31  1  0
 30 29  2  0
M  END
$$$$
