YPF.pdb
     RDKit          3D

 31 33  0  0  1  0  0  0  0  0999 V2000
   20.7772  -16.6708  -17.6141 O   0  0  0  0  0  0  0  0  0  0  0  0
   21.4387  -17.3860  -16.6428 C   0  0  0  0  0  0  0  0  0  0  0  0
   22.7406  -17.0863  -16.2705 C   0  0  0  0  0  0  0  0  0  0  0  0
   23.3920  -17.8136  -15.2932 C   0  0  0  0  0  0  0  0  0  0  0  0
   22.7555  -18.8617  -14.6622 C   0  0  0  0  0  0  0  0  0  0  0  0
   23.3836  -19.6799  -13.6156 C   0  0  0  0  0  0  0  0  0  0  0  0
   24.3765  -20.6782  -14.2158 C   0  0  2  0  0  0  0  0  0  0  0  0
   23.5575  -21.7202  -14.8049 N   0  0  0  0  0  0  0  0  0  0  0  0
   25.1946  -21.2361  -13.1184 C   0  0  0  0  0  0  0  0  0  0  0  0
   24.7661  -22.2465  -12.5075 O   0  0  0  0  0  0  0  0  0  0  0  0
   21.4626  -19.1465  -15.0435 C   0  0  0  0  0  0  0  0  0  0  0  0
   20.7977  -18.4304  -16.0174 C   0  0  0  0  0  0  0  0  0  0  0  0
   26.4392  -20.6888  -12.7202 N   0  0  0  0  0  0  0  0  0  0  0  0
   27.1082  -19.6006  -13.3980 C   0  0  0  0  0  0  0  0  0  0  0  0
   28.5748  -20.0367  -13.2689 C   0  0  0  0  0  0  0  0  0  0  0  0
   28.6101  -20.4412  -11.8090 C   0  0  0  0  0  0  0  0  0  0  0  0
   27.2533  -21.0830  -11.6126 C   0  0  1  0  0  0  0  0  0  0  0  0
   26.6429  -20.6177  -10.3256 C   0  0  0  0  0  0  0  0  0  0  0  0
   25.8892  -19.6021  -10.2749 O   0  0  0  0  0  0  0  0  0  0  0  0
   26.8717  -21.2826   -9.0977 N   0  0  0  0  0  0  0  0  0  0  0  0
   26.3509  -20.8118   -7.8168 C   0  0  1  0  0  0  0  0  0  0  0  0
   26.9329  -21.7557   -6.7893 C   0  0  0  0  0  0  0  0  0  0  0  0
   28.1126  -21.2523   -6.0919 C   0  0  0  0  0  0  0  0  0  0  0  0
   27.9189  -20.4188   -5.0017 C   0  0  0  0  0  0  0  0  0  0  0  0
   28.9765  -19.9022   -4.2790 C   0  0  0  0  0  0  0  0  0  0  0  0
   30.2560  -20.2309   -4.6608 C   0  0  0  0  0  0  0  0  0  0  0  0
   30.4796  -21.0581   -5.7414 C   0  0  0  0  0  0  0  0  0  0  0  0
   29.3906  -21.5668   -6.4548 C   0  0  0  0  0  0  0  0  0  0  0  0
   26.8091  -19.4406   -7.5188 C   0  0  0  0  0  0  0  0  0  0  0  0
   26.1209  -18.7367   -6.7376 O   0  0  0  0  0  0  0  0  0  0  0  0
   27.9558  -18.8746   -8.0461 O   0  0  0  0  0  0  0  0  0  0  0  0
  2  1  1  0
  3  2  2  0
  4  3  1  0
  5 11  1  0
  5  4  2  0
  6  5  1  0
  7  6  1  0
  7  8  1  1
  9  7  1  0
  9 10  2  0
 11 12  2  0
 12  2  1  0
 13  9  1  0
 14 13  1  0
 15 14  1  0
 16 15  1  0
 16 17  1  0
 17 13  1  0
 17 18  1  1
 19 18  2  0
 20 18  1  0
 21 29  1  0
 21 20  1  0
 21 22  1  1
 23 22  1  0
 24 23  2  0
 25 24  1  0
 26 27  1  0
 26 25  2  0
 27 28  2  0
 28 23  1  0
 29 31  1  0
 30 29  2  0
M  END
$$$$
