YPF.pdb
     RDKit          3D

 31 33  0  0  1  0  0  0  0  0999 V2000
   20.9444  -17.3111  -17.4464 O   0  0  0  0  0  0  0  0  0  0  0  0
   21.5845  -17.9032  -16.3822 C   0  0  0  0  0  0  0  0  0  0  0  0
   22.9579  -17.8149  -16.2116 C   0  0  0  0  0  0  0  0  0  0  0  0
   23.5867  -18.4148  -15.1377 C   0  0  0  0  0  0  0  0  0  0  0  0
   22.8551  -19.1199  -14.2053 C   0  0  0  0  0  0  0  0  0  0  0  0
   23.4535  -19.7845  -13.0392 C   0  0  0  0  0  0  0  0  0  0  0  0
   24.2183  -21.0442  -13.4529 C   0  0  2  0  0  0  0  0  0  0  0  0
   23.1951  -22.0185  -13.7810 N   0  0  0  0  0  0  0  0  0  0  0  0
   25.0082  -21.5096  -12.2936 C   0  0  0  0  0  0  0  0  0  0  0  0
   24.4870  -22.3420  -11.5104 O   0  0  0  0  0  0  0  0  0  0  0  0
   21.4921  -19.1982  -14.3892 C   0  0  0  0  0  0  0  0  0  0  0  0
   20.8485  -18.6051  -15.4557 C   0  0  0  0  0  0  0  0  0  0  0  0
   26.3251  -21.0643  -12.0203 N   0  0  0  0  0  0  0  0  0  0  0  0
   27.1077  -20.2330  -12.9077 C   0  0  0  0  0  0  0  0  0  0  0  0
   28.5088  -20.8257  -12.6996 C   0  0  0  0  0  0  0  0  0  0  0  0
   28.5374  -20.9305  -11.1882 C   0  0  0  0  0  0  0  0  0  0  0  0
   27.1158  -21.3334  -10.8595 C   0  0  1  0  0  0  0  0  0  0  0  0
   26.6115  -20.5427   -9.6908 C   0  0  0  0  0  0  0  0  0  0  0  0
   25.6551  -19.7216   -9.8052 O   0  0  0  0  0  0  0  0  0  0  0  0
   27.1716  -20.6666   -8.3973 N   0  0  0  0  0  0  0  0  0  0  0  0
   26.7417  -19.8675   -7.2527 C   0  0  1  0  0  0  0  0  0  0  0  0
   26.8646  -20.7928   -6.0637 C   0  0  0  0  0  0  0  0  0  0  0  0
   28.1220  -20.6854   -5.3296 C   0  0  0  0  0  0  0  0  0  0  0  0
   28.6916  -21.8496   -4.8388 C   0  0  0  0  0  0  0  0  0  0  0  0
   29.8827  -21.8427   -4.1394 C   0  0  0  0  0  0  0  0  0  0  0  0
   30.5142  -20.6393   -3.9292 C   0  0  0  0  0  0  0  0  0  0  0  0
   29.9713  -19.4646   -4.4058 C   0  0  0  0  0  0  0  0  0  0  0  0
   28.7648  -19.5010   -5.1105 C   0  0  0  0  0  0  0  0  0  0  0  0
   27.6252  -18.7033   -7.0447 C   0  0  0  0  0  0  0  0  0  0  0  0
   28.7811  -18.7343   -7.5372 O   0  0  0  0  0  0  0  0  0  0  0  0
   27.2621  -17.5707   -6.3387 O   0  0  0  0  0  0  0  0  0  0  0  0
  2  1  1  0
  3  2  2  0
  4  3  1  0
  5 11  1  0
  5  4  2  0
  6  5  1  0
  7  6  1  0
  7  8  1  1
  9  7  1  0
  9 10  2  0
 11 12  2  0
 12  2  1  0
 13  9  1  0
 14 13  1  0
 15 14  1  0
 16 15  1  0
 16 17  1  0
 17 13  1  0
 17 18  1  1
 19 18  2  0
 20 18  1  0
 21 29  1  0
 21 20  1  0
 21 22  1  1
 23 22  1  0
 24 23  2  0
 25 24  1  0
 26 27  1  0
 26 25  2  0
 27 28  2  0
 28 23  1  0
 29 31  1  0
 30 29  2  0
M  END
$$$$
