YPF.pdb
     RDKit          3D

 31 33  0  0  1  0  0  0  0  0999 V2000
   20.4409  -17.0748  -17.1854 O   0  0  0  0  0  0  0  0  0  0  0  0
   21.0843  -17.8171  -16.2222 C   0  0  0  0  0  0  0  0  0  0  0  0
   20.5502  -18.9977  -15.7283 C   0  0  0  0  0  0  0  0  0  0  0  0
   21.2082  -19.7325  -14.7610 C   0  0  0  0  0  0  0  0  0  0  0  0
   22.4201  -19.3032  -14.2624 C   0  0  0  0  0  0  0  0  0  0  0  0
   23.1770  -20.0302  -13.2337 C   0  0  0  0  0  0  0  0  0  0  0  0
   24.3218  -20.8342  -13.8545 C   0  0  2  0  0  0  0  0  0  0  0  0
   23.6826  -21.9551  -14.5169 N   0  0  0  0  0  0  0  0  0  0  0  0
   25.1931  -21.3198  -12.7638 C   0  0  0  0  0  0  0  0  0  0  0  0
   24.8179  -22.3167  -12.0978 O   0  0  0  0  0  0  0  0  0  0  0  0
   22.9370  -18.1286  -14.7634 C   0  0  0  0  0  0  0  0  0  0  0  0
   22.2931  -17.3829  -15.7292 C   0  0  0  0  0  0  0  0  0  0  0  0
   26.4314  -20.7177  -12.4306 N   0  0  0  0  0  0  0  0  0  0  0  0
   27.0632  -19.6683  -13.1992 C   0  0  0  0  0  0  0  0  0  0  0  0
   28.5415  -20.0617  -13.0664 C   0  0  0  0  0  0  0  0  0  0  0  0
   28.6116  -20.3563  -11.5816 C   0  0  0  0  0  0  0  0  0  0  0  0
   27.2736  -21.0111  -11.3128 C   0  0  1  0  0  0  0  0  0  0  0  0
   26.6751  -20.4653  -10.0521 C   0  0  0  0  0  0  0  0  0  0  0  0
   25.8728  -19.4865  -10.0652 O   0  0  0  0  0  0  0  0  0  0  0  0
   26.9699  -21.0091   -8.7794 N   0  0  0  0  0  0  0  0  0  0  0  0
   26.4788  -20.4408   -7.5266 C   0  0  1  0  0  0  0  0  0  0  0  0
   26.9545  -21.3939   -6.4539 C   0  0  0  0  0  0  0  0  0  0  0  0
   28.1596  -20.9703   -5.7468 C   0  0  0  0  0  0  0  0  0  0  0  0
   29.3863  -21.3720   -6.2513 C   0  0  0  0  0  0  0  0  0  0  0  0
   30.5772  -21.0120   -5.6513 C   0  0  0  0  0  0  0  0  0  0  0  0
   30.5333  -20.2315   -4.5200 C   0  0  0  0  0  0  0  0  0  0  0  0
   29.3273  -19.8167   -3.9951 C   0  0  0  0  0  0  0  0  0  0  0  0
   28.1375  -20.1956   -4.6229 C   0  0  0  0  0  0  0  0  0  0  0  0
   27.0612  -19.1082   -7.2733 C   0  0  0  0  0  0  0  0  0  0  0  0
   26.4915  -18.3542   -6.4449 O   0  0  0  0  0  0  0  0  0  0  0  0
   28.2026  -18.6306   -7.8919 O   0  0  0  0  0  0  0  0  0  0  0  0
  2  1  1  0
  3  2  2  0
  4  3  1  0
  5 11  1  0
  5  4  2  0
  6  5  1  0
  7  6  1  0
  7  8  1  1
  9  7  1  0
  9 10  2  0
 11 12  2  0
 12  2  1  0
 13  9  1  0
 14 13  1  0
 15 14  1  0
 16 15  1  0
 16 17  1  0
 17 13  1  0
 17 18  1  1
 19 18  2  0
 20 18  1  0
 21 29  1  0
 21 20  1  0
 21 22  1  1
 23 22  1  0
 24 23  2  0
 25 24  1  0
 26 27  1  0
 26 25  2  0
 27 28  2  0
 28 23  1  0
 29 31  1  0
 30 29  2  0
M  END
$$$$
