YPF.pdb
     RDKit          3D

 31 33  0  0  1  0  0  0  0  0999 V2000
   31.2256  -16.5650  -18.6779 O   0  0  0  0  0  0  0  0  0  0  0  0
   30.1811  -17.1885  -18.0354 C   0  0  0  0  0  0  0  0  0  0  0  0
   28.9754  -17.4421  -18.6721 C   0  0  0  0  0  0  0  0  0  0  0  0
   27.9353  -18.0692  -18.0138 C   0  0  0  0  0  0  0  0  0  0  0  0
   28.0759  -18.4594  -16.6986 C   0  0  0  0  0  0  0  0  0  0  0  0
   27.0150  -19.1297  -15.9339 C   0  0  0  0  0  0  0  0  0  0  0  0
   27.4432  -20.5371  -15.5112 C   0  0  2  0  0  0  0  0  0  0  0  0
   27.6115  -21.2709  -16.7509 N   0  0  0  0  0  0  0  0  0  0  0  0
   26.3521  -21.1343  -14.7128 C   0  0  0  0  0  0  0  0  0  0  0  0
   25.4279  -21.7332  -15.3170 O   0  0  0  0  0  0  0  0  0  0  0  0
   29.2796  -18.2003  -16.0806 C   0  0  0  0  0  0  0  0  0  0  0  0
   30.3281  -17.5751  -16.7233 C   0  0  0  0  0  0  0  0  0  0  0  0
   26.2953  -21.0657  -13.2988 N   0  0  0  0  0  0  0  0  0  0  0  0
   27.3302  -20.4946  -12.4658 C   0  0  0  0  0  0  0  0  0  0  0  0
   27.2927  -21.4478  -11.2626 C   0  0  0  0  0  0  0  0  0  0  0  0
   25.7975  -21.5358  -11.0326 C   0  0  0  0  0  0  0  0  0  0  0  0
   25.2468  -21.5265  -12.4426 C   0  0  1  0  0  0  0  0  0  0  0  0
   24.0633  -20.6115  -12.5292 C   0  0  0  0  0  0  0  0  0  0  0  0
   24.1888  -19.3533  -12.4736 O   0  0  0  0  0  0  0  0  0  0  0  0
   22.7426  -21.0974  -12.6775 N   0  0  0  0  0  0  0  0  0  0  0  0
   21.5725  -20.2304  -12.7896 C   0  0  1  0  0  0  0  0  0  0  0  0
   21.7651  -19.4826  -14.0892 C   0  0  0  0  0  0  0  0  0  0  0  0
   21.7225  -20.3145  -15.2882 C   0  0  0  0  0  0  0  0  0  0  0  0
   20.5032  -20.4746  -15.9274 C   0  0  0  0  0  0  0  0  0  0  0  0
   20.3716  -21.2377  -17.0711 C   0  0  0  0  0  0  0  0  0  0  0  0
   21.4899  -21.8529  -17.5827 C   0  0  0  0  0  0  0  0  0  0  0  0
   22.7165  -21.7117  -16.9684 C   0  0  0  0  0  0  0  0  0  0  0  0
   22.8209  -20.9334  -15.8122 C   0  0  0  0  0  0  0  0  0  0  0  0
   20.3249  -21.0152  -12.8710 C   0  0  0  0  0  0  0  0  0  0  0  0
   20.4102  -22.2636  -12.9867 O   0  0  0  0  0  0  0  0  0  0  0  0
   19.0574  -20.4631  -12.8270 O   0  0  0  0  0  0  0  0  0  0  0  0
  2  1  1  0
  3  2  2  0
  4  3  1  0
  5 11  1  0
  5  4  2  0
  6  5  1  0
  7  6  1  0
  7  8  1  6
  9  7  1  0
  9 10  2  0
 11 12  2  0
 12  2  1  0
 13  9  1  0
 14 13  1  0
 15 14  1  0
 16 15  1  0
 16 17  1  0
 17 13  1  0
 17 18  1  1
 19 18  2  0
 20 18  1  0
 21 29  1  0
 21 20  1  0
 21 22  1  6
 23 22  1  0
 24 23  2  0
 25 24  1  0
 26 27  1  0
 26 25  2  0
 27 28  2  0
 28 23  1  0
 29 31  1  0
 30 29  2  0
M  END
$$$$
