YPF.pdb
     RDKit          3D

 31 33  0  0  1  0  0  0  0  0999 V2000
   29.6184  -12.0995  -16.7421 O   0  0  0  0  0  0  0  0  0  0  0  0
   28.4392  -11.4158  -16.5556 C   0  0  0  0  0  0  0  0  0  0  0  0
   27.5200  -11.7904  -15.5872 C   0  0  0  0  0  0  0  0  0  0  0  0
   26.3399  -11.0939  -15.4116 C   0  0  0  0  0  0  0  0  0  0  0  0
   26.0493  -10.0024  -16.2027 C   0  0  0  0  0  0  0  0  0  0  0  0
   24.8157   -9.2140  -16.0751 C   0  0  0  0  0  0  0  0  0  0  0  0
   23.5980  -10.0129  -16.5460 C   0  0  2  0  0  0  0  0  0  0  0  0
   23.8453  -10.2905  -17.9480 N   0  0  0  0  0  0  0  0  0  0  0  0
   22.3993   -9.1601  -16.4020 C   0  0  0  0  0  0  0  0  0  0  0  0
   22.1844   -8.2791  -17.2712 O   0  0  0  0  0  0  0  0  0  0  0  0
   26.9727   -9.6433  -17.1600 C   0  0  0  0  0  0  0  0  0  0  0  0
   28.1557  -10.3277  -17.3484 C   0  0  0  0  0  0  0  0  0  0  0  0
   21.4789   -9.2860  -15.3323 N   0  0  0  0  0  0  0  0  0  0  0  0
   21.6130  -10.2302  -14.2453 C   0  0  0  0  0  0  0  0  0  0  0  0
   20.1463  -10.6260  -14.0226 C   0  0  0  0  0  0  0  0  0  0  0  0
   19.4897   -9.2607  -14.0491 C   0  0  0  0  0  0  0  0  0  0  0  0
   20.2805   -8.5362  -15.1173 C   0  0  1  0  0  0  0  0  0  0  0  0
   20.6097   -7.1465  -14.6634 C   0  0  0  0  0  0  0  0  0  0  0  0
   21.7784   -6.8242  -14.2997 O   0  0  0  0  0  0  0  0  0  0  0  0
   19.6389   -6.1183  -14.6150 N   0  0  0  0  0  0  0  0  0  0  0  0
   19.9373   -4.7463  -14.2121 C   0  0  1  0  0  0  0  0  0  0  0  0
   20.8496   -4.2128  -15.2929 C   0  0  0  0  0  0  0  0  0  0  0  0
   21.1149   -2.7790  -15.2200 C   0  0  0  0  0  0  0  0  0  0  0  0
   20.4482   -1.9471  -16.1055 C   0  0  0  0  0  0  0  0  0  0  0  0
   20.6325   -0.5782  -16.1028 C   0  0  0  0  0  0  0  0  0  0  0  0
   21.5059   -0.0346  -15.1903 C   0  0  0  0  0  0  0  0  0  0  0  0
   22.1833   -0.8375  -14.2968 C   0  0  0  0  0  0  0  0  0  0  0  0
   21.9775   -2.2197  -14.3216 C   0  0  0  0  0  0  0  0  0  0  0  0
   18.7156   -3.9189  -14.1676 C   0  0  0  0  0  0  0  0  0  0  0  0
   18.6880   -2.9347  -13.3866 O   0  0  0  0  0  0  0  0  0  0  0  0
   17.5899   -4.1565  -14.9354 O   0  0  0  0  0  0  0  0  0  0  0  0
  2  1  1  0
  3  2  2  0
  4  3  1  0
  5 11  1  0
  5  4  2  0
  6  5  1  0
  7  6  1  0
  7  8  1  6
  9  7  1  0
  9 10  2  0
 11 12  2  0
 12  2  1  0
 13  9  1  0
 14 13  1  0
 15 14  1  0
 16 15  1  0
 16 17  1  0
 17 13  1  0
 17 18  1  1
 19 18  2  0
 20 18  1  0
 21 29  1  0
 21 20  1  0
 21 22  1  6
 23 22  1  0
 24 23  2  0
 25 24  1  0
 26 27  1  0
 26 25  2  0
 27 28  2  0
 28 23  1  0
 29 31  1  0
 30 29  2  0
M  END
$$$$
