YPF.pdb
     RDKit          3D

 31 33  0  0  1  0  0  0  0  0999 V2000
   22.2606  -17.8731  -17.3221 O   0  0  0  0  0  0  0  0  0  0  0  0
   22.8764  -18.3003  -16.1684 C   0  0  0  0  0  0  0  0  0  0  0  0
   24.2554  -18.4088  -16.0706 C   0  0  0  0  0  0  0  0  0  0  0  0
   24.8596  -18.8393  -14.9052 C   0  0  0  0  0  0  0  0  0  0  0  0
   24.0970  -19.1729  -13.8056 C   0  0  0  0  0  0  0  0  0  0  0  0
   24.6678  -19.6386  -12.5341 C   0  0  0  0  0  0  0  0  0  0  0  0
   25.2814  -21.0331  -12.6815 C   0  0  2  0  0  0  0  0  0  0  0  0
   24.1522  -21.9296  -12.8393 N   0  0  0  0  0  0  0  0  0  0  0  0
   26.0123  -21.3527  -11.4372 C   0  0  0  0  0  0  0  0  0  0  0  0
   25.3657  -21.8216  -10.4677 O   0  0  0  0  0  0  0  0  0  0  0  0
   22.7287  -19.0596  -13.9191 C   0  0  0  0  0  0  0  0  0  0  0  0
   22.1095  -18.6314  -15.0753 C   0  0  0  0  0  0  0  0  0  0  0  0
   27.4068  -21.1569  -11.2820 N   0  0  0  0  0  0  0  0  0  0  0  0
   28.2984  -20.7488  -12.3448 C   0  0  0  0  0  0  0  0  0  0  0  0
   29.5503  -21.5700  -12.0043 C   0  0  0  0  0  0  0  0  0  0  0  0
   29.6393  -21.3230  -10.5120 C   0  0  0  0  0  0  0  0  0  0  0  0
   28.1849  -21.3151  -10.0927 C   0  0  1  0  0  0  0  0  0  0  0  0
   27.9260  -20.1825   -9.1463 C   0  0  0  0  0  0  0  0  0  0  0  0
   27.2033  -19.1954   -9.4709 O   0  0  0  0  0  0  0  0  0  0  0  0
   28.4712  -20.1498   -7.8409 N   0  0  0  0  0  0  0  0  0  0  0  0
   28.3843  -18.9879   -6.9599 C   0  0  1  0  0  0  0  0  0  0  0  0
   26.9499  -18.9670   -6.4834 C   0  0  0  0  0  0  0  0  0  0  0  0
   26.5049  -20.1901   -5.8219 C   0  0  0  0  0  0  0  0  0  0  0  0
   26.9346  -20.4230   -4.5250 C   0  0  0  0  0  0  0  0  0  0  0  0
   26.5575  -21.5498   -3.8208 C   0  0  0  0  0  0  0  0  0  0  0  0
   25.7308  -22.4616   -4.4339 C   0  0  0  0  0  0  0  0  0  0  0  0
   25.2872  -22.2567   -5.7235 C   0  0  0  0  0  0  0  0  0  0  0  0
   25.6844  -21.1075   -6.4128 C   0  0  0  0  0  0  0  0  0  0  0  0
   29.2738  -19.1296   -5.7904 C   0  0  0  0  0  0  0  0  0  0  0  0
   29.3798  -18.1593   -4.9987 O   0  0  0  0  0  0  0  0  0  0  0  0
   30.0038  -20.2693   -5.5050 O   0  0  0  0  0  0  0  0  0  0  0  0
  2  1  1  0
  3  2  2  0
  4  3  1  0
  5 11  1  0
  5  4  2  0
  6  5  1  0
  7  6  1  0
  7  8  1  1
  9  7  1  0
  9 10  2  0
 11 12  2  0
 12  2  1  0
 13  9  1  0
 14 13  1  0
 15 14  1  0
 16 15  1  0
 16 17  1  0
 17 13  1  0
 17 18  1  1
 19 18  2  0
 20 18  1  0
 21 29  1  0
 21 20  1  0
 21 22  1  1
 23 22  1  0
 24 23  2  0
 25 24  1  0
 26 27  1  0
 26 25  2  0
 27 28  2  0
 28 23  1  0
 29 31  1  0
 30 29  2  0
M  END
$$$$
