YPF.pdb
     RDKit          3D

 31 33  0  0  1  0  0  0  0  0999 V2000
   19.7964  -15.0111  -24.5575 O   0  0  0  0  0  0  0  0  0  0  0  0
   19.8853  -14.3131  -23.3754 C   0  0  0  0  0  0  0  0  0  0  0  0
   18.7621  -13.9898  -22.6288 C   0  0  0  0  0  0  0  0  0  0  0  0
   18.8671  -13.2882  -21.4434 C   0  0  0  0  0  0  0  0  0  0  0  0
   20.1017  -12.8916  -20.9740 C   0  0  0  0  0  0  0  0  0  0  0  0
   20.2914  -12.1429  -19.7238 C   0  0  0  0  0  0  0  0  0  0  0  0
   20.9426  -13.0172  -18.6493 C   0  0  2  0  0  0  0  0  0  0  0  0
   19.9641  -14.0460  -18.3530 N   0  0  0  0  0  0  0  0  0  0  0  0
   21.1792  -12.1829  -17.4524 C   0  0  0  0  0  0  0  0  0  0  0  0
   20.2183  -11.9719  -16.6714 O   0  0  0  0  0  0  0  0  0  0  0  0
   21.2073  -13.2206  -21.7272 C   0  0  0  0  0  0  0  0  0  0  0  0
   21.1201  -13.9205  -22.9129 C   0  0  0  0  0  0  0  0  0  0  0  0
   22.4362  -11.6085  -17.1405 N   0  0  0  0  0  0  0  0  0  0  0  0
   23.6377  -11.7966  -17.9229 C   0  0  0  0  0  0  0  0  0  0  0  0
   24.6976  -11.8663  -16.8141 C   0  0  0  0  0  0  0  0  0  0  0  0
   24.2699  -10.6931  -15.9558 C   0  0  0  0  0  0  0  0  0  0  0  0
   22.7599  -10.7603  -16.0357 C   0  0  1  0  0  0  0  0  0  0  0  0
   22.1920   -9.3897  -16.2473 C   0  0  0  0  0  0  0  0  0  0  0  0
   21.8718   -8.9720  -17.3984 O   0  0  0  0  0  0  0  0  0  0  0  0
   21.9814   -8.4866  -15.1786 N   0  0  0  0  0  0  0  0  0  0  0  0
   21.4363   -7.1428  -15.3543 C   0  0  1  0  0  0  0  0  0  0  0  0
   19.9729   -7.3544  -15.6689 C   0  0  0  0  0  0  0  0  0  0  0  0
   19.2270   -8.0914  -14.6530 C   0  0  0  0  0  0  0  0  0  0  0  0
   18.8601   -9.3980  -14.9336 C   0  0  0  0  0  0  0  0  0  0  0  0
   18.1596  -10.1714  -14.0287 C   0  0  0  0  0  0  0  0  0  0  0  0
   17.8209   -9.6189  -12.8159 C   0  0  0  0  0  0  0  0  0  0  0  0
   18.1725   -8.3213  -12.5086 C   0  0  0  0  0  0  0  0  0  0  0  0
   18.8815   -7.5614  -13.4431 C   0  0  0  0  0  0  0  0  0  0  0  0
   21.5481   -6.3486  -14.1150 C   0  0  0  0  0  0  0  0  0  0  0  0
   21.2611   -5.1260  -14.1604 O   0  0  0  0  0  0  0  0  0  0  0  0
   21.9503   -6.8654  -12.8966 O   0  0  0  0  0  0  0  0  0  0  0  0
  2  1  1  0
  3  2  2  0
  4  3  1  0
  5 11  1  0
  5  4  2  0
  6  5  1  0
  7  6  1  0
  7  8  1  1
  9  7  1  0
  9 10  2  0
 11 12  2  0
 12  2  1  0
 13  9  1  0
 14 13  1  0
 15 14  1  0
 16 15  1  0
 16 17  1  0
 17 13  1  0
 17 18  1  6
 19 18  2  0
 20 18  1  0
 21 29  1  0
 21 20  1  0
 21 22  1  1
 23 22  1  0
 24 23  2  0
 25 24  1  0
 26 27  1  0
 26 25  2  0
 27 28  2  0
 28 23  1  0
 29 31  1  0
 30 29  2  0
M  END
$$$$
