YPF.pdb
     RDKit          3D

 31 33  0  0  1  0  0  0  0  0999 V2000
   26.0938  -14.3811  -19.8829 O   0  0  0  0  0  0  0  0  0  0  0  0
   26.0474  -15.2889  -18.8503 C   0  0  0  0  0  0  0  0  0  0  0  0
   27.1806  -15.6419  -18.1330 C   0  0  0  0  0  0  0  0  0  0  0  0
   27.1184  -16.5552  -17.0984 C   0  0  0  0  0  0  0  0  0  0  0  0
   25.9176  -17.1398  -16.7546 C   0  0  0  0  0  0  0  0  0  0  0  0
   25.7741  -18.1187  -15.6680 C   0  0  0  0  0  0  0  0  0  0  0  0
   26.5864  -19.3842  -15.9533 C   0  0  2  0  0  0  0  0  0  0  0  0
   25.8632  -20.0695  -17.0074 N   0  0  0  0  0  0  0  0  0  0  0  0
   26.6021  -20.2117  -14.7287 C   0  0  0  0  0  0  0  0  0  0  0  0
   25.6343  -20.9840  -14.5166 O   0  0  0  0  0  0  0  0  0  0  0  0
   24.8014  -16.7785  -17.4768 C   0  0  0  0  0  0  0  0  0  0  0  0
   24.8461  -15.8683  -18.5126 C   0  0  0  0  0  0  0  0  0  0  0  0
   27.6544  -20.1785  -13.7807 N   0  0  0  0  0  0  0  0  0  0  0  0
   28.8652  -19.4020  -13.9302 C   0  0  0  0  0  0  0  0  0  0  0  0
   29.8994  -20.3570  -13.3169 C   0  0  0  0  0  0  0  0  0  0  0  0
   29.1655  -20.7816  -12.0611 C   0  0  0  0  0  0  0  0  0  0  0  0
   27.7308  -20.8754  -12.5344 C   0  0  1  0  0  0  0  0  0  0  0  0
   26.8129  -20.2482  -11.5296 C   0  0  0  0  0  0  0  0  0  0  0  0
   26.6049  -18.9999  -11.5058 O   0  0  0  0  0  0  0  0  0  0  0  0
   26.1283  -21.0101  -10.5535 N   0  0  0  0  0  0  0  0  0  0  0  0
   25.3857  -20.4181   -9.4436 C   0  0  1  0  0  0  0  0  0  0  0  0
   24.0009  -21.0168   -9.5385 C   0  0  0  0  0  0  0  0  0  0  0  0
   23.2386  -20.6166  -10.7176 C   0  0  0  0  0  0  0  0  0  0  0  0
   23.3047  -21.4248  -11.8416 C   0  0  0  0  0  0  0  0  0  0  0  0
   22.6110  -21.1271  -12.9983 C   0  0  0  0  0  0  0  0  0  0  0  0
   21.8345  -19.9925  -13.0251 C   0  0  0  0  0  0  0  0  0  0  0  0
   21.7493  -19.1693  -11.9220 C   0  0  0  0  0  0  0  0  0  0  0  0
   22.4619  -19.4948  -10.7645 C   0  0  0  0  0  0  0  0  0  0  0  0
   25.9764  -20.7858   -8.1417 C   0  0  0  0  0  0  0  0  0  0  0  0
   26.9184  -21.6176   -8.1260 O   0  0  0  0  0  0  0  0  0  0  0  0
   25.5590  -20.2707   -6.9278 O   0  0  0  0  0  0  0  0  0  0  0  0
  2  1  1  0
  3  2  2  0
  4  3  1  0
  5 11  1  0
  5  4  2  0
  6  5  1  0
  7  6  1  0
  7  8  1  6
  9  7  1  0
  9 10  2  0
 11 12  2  0
 12  2  1  0
 13  9  1  0
 14 13  1  0
 15 14  1  0
 16 15  1  0
 16 17  1  0
 17 13  1  0
 17 18  1  1
 19 18  2  0
 20 18  1  0
 21 29  1  0
 21 20  1  0
 21 22  1  1
 23 22  1  0
 24 23  2  0
 25 24  1  0
 26 27  1  0
 26 25  2  0
 27 28  2  0
 28 23  1  0
 29 31  1  0
 30 29  2  0
M  END
$$$$
