YPF.pdb
     RDKit          3D

 31 33  0  0  1  0  0  0  0  0999 V2000
   25.1727  -17.2669  -17.6613 O   0  0  0  0  0  0  0  0  0  0  0  0
   25.2926  -17.7703  -16.3866 C   0  0  0  0  0  0  0  0  0  0  0  0
   26.5292  -18.0087  -15.8059 C   0  0  0  0  0  0  0  0  0  0  0  0
   26.6337  -18.5146  -14.5247 C   0  0  0  0  0  0  0  0  0  0  0  0
   25.5007  -18.7954  -13.7904 C   0  0  0  0  0  0  0  0  0  0  0  0
   25.5331  -19.3352  -12.4240 C   0  0  0  0  0  0  0  0  0  0  0  0
   25.7818  -20.8454  -12.4321 C   0  0  2  0  0  0  0  0  0  0  0  0
   24.4853  -21.4421  -12.6906 N   0  0  0  0  0  0  0  0  0  0  0  0
   26.2651  -21.2435  -11.0932 C   0  0  0  0  0  0  0  0  0  0  0  0
   25.4230  -21.6248  -10.2426 O   0  0  0  0  0  0  0  0  0  0  0  0
   24.2801  -18.5531  -14.3816 C   0  0  0  0  0  0  0  0  0  0  0  0
   24.1580  -18.0482  -15.6597 C   0  0  0  0  0  0  0  0  0  0  0  0
   27.6314  -21.2172  -10.7197 N   0  0  0  0  0  0  0  0  0  0  0  0
   28.7140  -20.8496  -11.6050 C   0  0  0  0  0  0  0  0  0  0  0  0
   29.8067  -21.8268  -11.1480 C   0  0  0  0  0  0  0  0  0  0  0  0
   29.6886  -21.6819   -9.6442 C   0  0  0  0  0  0  0  0  0  0  0  0
   28.1955  -21.5341   -9.4444 C   0  0  1  0  0  0  0  0  0  0  0  0
   27.9114  -20.4386   -8.4622 C   0  0  0  0  0  0  0  0  0  0  0  0
   27.8281  -19.2277   -8.8210 O   0  0  0  0  0  0  0  0  0  0  0  0
   27.7203  -20.6918   -7.0833 N   0  0  0  0  0  0  0  0  0  0  0  0
   27.5074  -19.6398   -6.0924 C   0  0  1  0  0  0  0  0  0  0  0  0
   26.1743  -19.9659   -5.4588 C   0  0  0  0  0  0  0  0  0  0  0  0
   26.2208  -20.9987   -4.4279 C   0  0  0  0  0  0  0  0  0  0  0  0
   25.0398  -21.3283   -3.7819 C   0  0  0  0  0  0  0  0  0  0  0  0
   24.9896  -22.2979   -2.7995 C   0  0  0  0  0  0  0  0  0  0  0  0
   26.1518  -22.9497   -2.4596 C   0  0  0  0  0  0  0  0  0  0  0  0
   27.3418  -22.6430   -3.0852 C   0  0  0  0  0  0  0  0  0  0  0  0
   27.3637  -21.6575   -4.0761 C   0  0  0  0  0  0  0  0  0  0  0  0
   28.5505  -19.6627   -5.0482 C   0  0  0  0  0  0  0  0  0  0  0  0
   28.6173  -18.6956   -4.2484 O   0  0  0  0  0  0  0  0  0  0  0  0
   29.4665  -20.6870   -4.8895 O   0  0  0  0  0  0  0  0  0  0  0  0
  2  1  1  0
  3  2  2  0
  4  3  1  0
  5 11  1  0
  5  4  2  0
  6  5  1  0
  7  6  1  0
  7  8  1  1
  9  7  1  0
  9 10  2  0
 11 12  2  0
 12  2  1  0
 13  9  1  0
 14 13  1  0
 15 14  1  0
 16 15  1  0
 16 17  1  0
 17 13  1  0
 17 18  1  1
 19 18  2  0
 20 18  1  0
 21 29  1  0
 21 20  1  0
 21 22  1  1
 23 22  1  0
 24 23  2  0
 25 24  1  0
 26 27  1  0
 26 25  2  0
 27 28  2  0
 28 23  1  0
 29 31  1  0
 30 29  2  0
M  END
$$$$
