YPF.pdb
     RDKit          3D

 31 33  0  0  1  0  0  0  0  0999 V2000
   19.5318  -16.5777  -17.5797 O   0  0  0  0  0  0  0  0  0  0  0  0
   20.0326  -17.1797  -16.4486 C   0  0  0  0  0  0  0  0  0  0  0  0
   19.2511  -17.3887  -15.3222 C   0  0  0  0  0  0  0  0  0  0  0  0
   19.7682  -17.9946  -14.1935 C   0  0  0  0  0  0  0  0  0  0  0  0
   21.0836  -18.4076  -14.1634 C   0  0  0  0  0  0  0  0  0  0  0  0
   21.7029  -19.0576  -13.0001 C   0  0  0  0  0  0  0  0  0  0  0  0
   21.8653  -20.5623  -13.2290 C   0  0  2  0  0  0  0  0  0  0  0  0
   20.5391  -21.1195  -13.0438 N   0  0  0  0  0  0  0  0  0  0  0  0
   22.7857  -21.0917  -12.2007 C   0  0  0  0  0  0  0  0  0  0  0  0
   22.3284  -21.3319  -11.0557 O   0  0  0  0  0  0  0  0  0  0  0  0
   21.8465  -18.1927  -15.2903 C   0  0  0  0  0  0  0  0  0  0  0  0
   21.3458  -17.5893  -16.4255 C   0  0  0  0  0  0  0  0  0  0  0  0
   24.1592  -21.3426  -12.4410 N   0  0  0  0  0  0  0  0  0  0  0  0
   24.8146  -21.1505  -13.7156 C   0  0  0  0  0  0  0  0  0  0  0  0
   25.7893  -22.3369  -13.7221 C   0  0  0  0  0  0  0  0  0  0  0  0
   26.3475  -22.2371  -12.3169 C   0  0  0  0  0  0  0  0  0  0  0  0
   25.1372  -21.8160  -11.5113 C   0  0  1  0  0  0  0  0  0  0  0  0
   25.5095  -20.7298  -10.5485 C   0  0  0  0  0  0  0  0  0  0  0  0
   24.9044  -19.6182  -10.5321 O   0  0  0  0  0  0  0  0  0  0  0  0
   26.5538  -20.8818   -9.6059 N   0  0  0  0  0  0  0  0  0  0  0  0
   27.5880  -19.8755   -9.3793 C   0  0  1  0  0  0  0  0  0  0  0  0
   27.0959  -19.0707   -8.1981 C   0  0  0  0  0  0  0  0  0  0  0  0
   27.6563  -19.4665   -6.9093 C   0  0  0  0  0  0  0  0  0  0  0  0
   27.0007  -20.4522   -6.1887 C   0  0  0  0  0  0  0  0  0  0  0  0
   27.4636  -20.8933   -4.9644 C   0  0  0  0  0  0  0  0  0  0  0  0
   28.6100  -20.3310   -4.4540 C   0  0  0  0  0  0  0  0  0  0  0  0
   29.2837  -19.3483   -5.1485 C   0  0  0  0  0  0  0  0  0  0  0  0
   28.7929  -18.9210   -6.3854 C   0  0  0  0  0  0  0  0  0  0  0  0
   28.8794  -20.4983   -9.0277 C   0  0  0  0  0  0  0  0  0  0  0  0
   29.8789  -19.7533   -8.8690 O   0  0  0  0  0  0  0  0  0  0  0  0
   29.0637  -21.8587   -8.8591 O   0  0  0  0  0  0  0  0  0  0  0  0
  2  1  1  0
  3  2  2  0
  4  3  1  0
  5 11  1  0
  5  4  2  0
  6  5  1  0
  7  6  1  0
  7  8  1  1
  9  7  1  0
  9 10  2  0
 11 12  2  0
 12  2  1  0
 13  9  1  0
 14 13  1  0
 15 14  1  0
 16 15  1  0
 16 17  1  0
 17 13  1  0
 17 18  1  1
 19 18  2  0
 20 18  1  0
 21 29  1  0
 21 20  1  0
 21 22  1  1
 23 22  1  0
 24 23  2  0
 25 24  1  0
 26 27  1  0
 26 25  2  0
 27 28  2  0
 28 23  1  0
 29 31  1  0
 30 29  2  0
M  END
$$$$
