YPF.pdb
     RDKit          3D

 31 33  0  0  1  0  0  0  0  0999 V2000
   19.5590  -15.8787  -18.3225 O   0  0  0  0  0  0  0  0  0  0  0  0
   20.3641  -16.8200  -17.7240 C   0  0  0  0  0  0  0  0  0  0  0  0
   20.1047  -18.1785  -17.8267 C   0  0  0  0  0  0  0  0  0  0  0  0
   20.9225  -19.1121  -17.2201 C   0  0  0  0  0  0  0  0  0  0  0  0
   22.0232  -18.7089  -16.4937 C   0  0  0  0  0  0  0  0  0  0  0  0
   22.9370  -19.6426  -15.8208 C   0  0  0  0  0  0  0  0  0  0  0  0
   24.2726  -19.7396  -16.5621 C   0  0  2  0  0  0  0  0  0  0  0  0
   24.0403  -20.6808  -17.6409 N   0  0  0  0  0  0  0  0  0  0  0  0
   25.2838  -20.2785  -15.6283 C   0  0  0  0  0  0  0  0  0  0  0  0
   25.4055  -21.5251  -15.5332 O   0  0  0  0  0  0  0  0  0  0  0  0
   22.2670  -17.3562  -16.4013 C   0  0  0  0  0  0  0  0  0  0  0  0
   21.4606  -16.4108  -17.0008 C   0  0  0  0  0  0  0  0  0  0  0  0
   26.1240  -19.4596  -14.8342 N   0  0  0  0  0  0  0  0  0  0  0  0
   26.2872  -18.0346  -15.0178 C   0  0  0  0  0  0  0  0  0  0  0  0
   27.7815  -17.8713  -14.7046 C   0  0  0  0  0  0  0  0  0  0  0  0
   27.8880  -18.7079  -13.4458 C   0  0  0  0  0  0  0  0  0  0  0  0
   26.9469  -19.8577  -13.7345 C   0  0  1  0  0  0  0  0  0  0  0  0
   26.1029  -20.1496  -12.5312 C   0  0  0  0  0  0  0  0  0  0  0  0
   24.9695  -19.6108  -12.3662 O   0  0  0  0  0  0  0  0  0  0  0  0
   26.5208  -21.0398  -11.5139 N   0  0  0  0  0  0  0  0  0  0  0  0
   25.7055  -21.3719  -10.3483 C   0  0  1  0  0  0  0  0  0  0  0  0
   26.6567  -22.0489   -9.3879 C   0  0  0  0  0  0  0  0  0  0  0  0
   27.5723  -21.1482   -8.6937 C   0  0  0  0  0  0  0  0  0  0  0  0
   27.0670  -20.3740   -7.6612 C   0  0  0  0  0  0  0  0  0  0  0  0
   27.8621  -19.5003   -6.9455 C   0  0  0  0  0  0  0  0  0  0  0  0
   29.1936  -19.4033   -7.2752 C   0  0  0  0  0  0  0  0  0  0  0  0
   29.7245  -20.1612   -8.2977 C   0  0  0  0  0  0  0  0  0  0  0  0
   28.8969  -21.0374   -9.0054 C   0  0  0  0  0  0  0  0  0  0  0  0
   25.1620  -20.1589   -9.7062 C   0  0  0  0  0  0  0  0  0  0  0  0
   24.1028  -20.2597   -9.0376 O   0  0  0  0  0  0  0  0  0  0  0  0
   25.7467  -18.9083   -9.7917 O   0  0  0  0  0  0  0  0  0  0  0  0
  2  1  1  0
  3  2  2  0
  4  3  1  0
  5 11  1  0
  5  4  2  0
  6  5  1  0
  7  6  1  0
  7  8  1  6
  9  7  1  0
  9 10  2  0
 11 12  2  0
 12  2  1  0
 13  9  1  0
 14 13  1  0
 15 14  1  0
 16 15  1  0
 16 17  1  0
 17 13  1  0
 17 18  1  1
 19 18  2  0
 20 18  1  0
 21 29  1  0
 21 20  1  0
 21 22  1  1
 23 22  1  0
 24 23  2  0
 25 24  1  0
 26 27  1  0
 26 25  2  0
 27 28  2  0
 28 23  1  0
 29 31  1  0
 30 29  2  0
M  END
$$$$
