MQP.pdb
     RDKit          3D

 25 25  0  0  1  0  0  0  0  0999 V2000
    7.8570  -11.5081   19.6636 C   0  0  0  0  0  0  0  0  0  0  0  0
    8.1312  -12.5852   18.2122 S   0  0  0  0  0  0  0  0  0  0  0  0
    8.1751  -14.3295   18.7297 C   0  0  0  0  0  0  0  0  0  0  0  0
    7.5401  -14.4892   20.0698 C   0  0  0  0  0  0  0  0  0  0  0  0
    7.4609  -15.8973   20.5543 C   0  0  2  0  0  0  0  0  0  0  0  0
    6.5755  -16.6409   19.6897 N   0  0  0  0  0  0  0  0  0  0  0  0
    7.0857  -16.0345   21.9858 C   0  0  0  0  0  0  0  0  0  0  0  0
    5.8874  -15.8026   22.3667 O   0  0  0  0  0  0  0  0  0  0  0  0
    7.3844  -20.0930   26.3071 N   0  0  0  0  0  0  0  0  0  0  0  0
    7.1872  -18.9650   27.1167 C   0  0  0  0  0  0  0  0  0  0  0  0
    6.9460  -19.0619   28.3277 O   0  0  0  0  0  0  0  0  0  0  0  0
    7.2706  -17.6061   26.5011 C   0  0  0  0  0  0  0  0  0  0  0  0
    7.5723  -17.6823   25.0384 C   0  0  0  0  0  0  0  0  0  0  0  0
    7.6462  -16.3259   24.4289 C   0  0  2  0  0  0  0  0  0  0  0  0
    7.9812  -16.4173   23.0119 N   0  0  0  0  0  0  0  0  0  0  0  0
    8.4277  -15.3705   25.1897 C   0  0  0  0  0  0  0  0  0  0  0  0
    9.7166  -15.4603   25.1662 O   0  0  0  0  0  0  0  0  0  0  0  0
    7.9505  -14.3042   25.9922 N   0  0  0  0  0  0  0  0  0  0  0  0
    6.5867  -13.8937   26.1454 C   0  0  0  0  0  0  0  0  0  0  0  0
    6.5976  -12.8262   27.2576 C   0  0  0  0  0  0  0  0  0  0  0  0
    7.9830  -12.2084   27.0232 C   0  0  0  0  0  0  0  0  0  0  0  0
    8.7927  -13.4510   26.7938 C   0  0  1  0  0  0  0  0  0  0  0  0
    9.0565  -14.0557   28.1352 C   0  0  0  0  0  0  0  0  0  0  0  0
    8.4011  -15.0752   28.4612 O   0  0  0  0  0  0  0  0  0  0  0  0
    9.9783  -13.5545   29.0296 O   0  0  0  0  0  0  0  0  0  0  0  0
  1  2  1  0
  3  2  1  0
  4  3  1  0
  5  4  1  0
  5  6  1  6
  7  5  1  0
  7  8  2  0
 10  9  1  0
 11 10  2  0
 12 10  1  0
 13 12  1  0
 14 13  1  1
 14 15  1  0
 15  7  1  0
 16 18  1  0
 16 14  1  0
 17 16  2  0
 18 22  1  0
 19 18  1  0
 19 20  1  0
 20 21  1  0
 22 21  1  0
 23 25  1  0
 22 23  1  1
 24 23  2  0
M  END
$$$$
