MQP.pdb
     RDKit          3D

 25 25  0  0  1  0  0  0  0  0999 V2000
    8.0755  -11.6197   19.6988 C   0  0  0  0  0  0  0  0  0  0  0  0
    8.7148  -12.8428   18.5000 S   0  0  0  0  0  0  0  0  0  0  0  0
    8.1960  -14.5191   18.9827 C   0  0  0  0  0  0  0  0  0  0  0  0
    7.6989  -14.5235   20.3890 C   0  0  0  0  0  0  0  0  0  0  0  0
    7.2845  -15.8634   20.8956 C   0  0  2  0  0  0  0  0  0  0  0  0
    6.1887  -16.3497   20.0912 N   0  0  0  0  0  0  0  0  0  0  0  0
    6.9684  -15.9006   22.3473 C   0  0  0  0  0  0  0  0  0  0  0  0
    6.1328  -15.0736   22.8501 O   0  0  0  0  0  0  0  0  0  0  0  0
    7.6489  -20.3347   26.7758 N   0  0  0  0  0  0  0  0  0  0  0  0
    7.4447  -19.1825   27.5488 C   0  0  0  0  0  0  0  0  0  0  0  0
    7.3673  -19.2277   28.7841 O   0  0  0  0  0  0  0  0  0  0  0  0
    7.3166  -17.8614   26.8627 C   0  0  0  0  0  0  0  0  0  0  0  0
    7.4881  -17.9911   25.3829 C   0  0  0  0  0  0  0  0  0  0  0  0
    7.4151  -16.6647   24.7105 C   0  0  2  0  0  0  0  0  0  0  0  0
    7.5386  -16.8144   23.2646 N   0  0  0  0  0  0  0  0  0  0  0  0
    8.2617  -15.6471   25.3023 C   0  0  0  0  0  0  0  0  0  0  0  0
    9.5334  -15.6861   25.0769 O   0  0  0  0  0  0  0  0  0  0  0  0
    7.8681  -14.5675   26.1320 N   0  0  0  0  0  0  0  0  0  0  0  0
    6.5289  -14.2149   26.4982 C   0  0  0  0  0  0  0  0  0  0  0  0
    6.6676  -13.0964   27.5499 C   0  0  0  0  0  0  0  0  0  0  0  0
    7.9586  -12.4258   27.0600 C   0  0  0  0  0  0  0  0  0  0  0  0
    8.7849  -13.6384   26.7452 C   0  0  1  0  0  0  0  0  0  0  0  0
    9.3021  -14.1655   28.0449 C   0  0  0  0  0  0  0  0  0  0  0  0
    8.7659  -15.1970   28.5178 O   0  0  0  0  0  0  0  0  0  0  0  0
   10.3332  -13.5804   28.7488 O   0  0  0  0  0  0  0  0  0  0  0  0
  1  2  1  0
  3  2  1  0
  4  3  1  0
  5  4  1  0
  5  6  1  6
  7  5  1  0
  7  8  2  0
 10  9  1  0
 11 10  2  0
 12 10  1  0
 13 12  1  0
 14 13  1  1
 14 15  1  0
 15  7  1  0
 16 18  1  0
 16 14  1  0
 17 16  2  0
 18 22  1  0
 19 18  1  0
 19 20  1  0
 20 21  1  0
 22 21  1  0
 23 25  1  0
 22 23  1  1
 24 23  2  0
M  END
$$$$
