MQP.pdb
     RDKit          3D

 25 25  0  0  1  0  0  0  0  0999 V2000
    8.6704  -11.6084   20.3450 C   0  0  0  0  0  0  0  0  0  0  0  0
    7.7012  -12.4170   19.0227 S   0  0  0  0  0  0  0  0  0  0  0  0
    7.0923  -14.0335   19.5956 C   0  0  0  0  0  0  0  0  0  0  0  0
    8.2208  -15.0020   19.7100 C   0  0  0  0  0  0  0  0  0  0  0  0
    7.8497  -16.3189   20.3033 C   0  0  2  0  0  0  0  0  0  0  0  0
    6.8829  -16.9629   19.4461 N   0  0  0  0  0  0  0  0  0  0  0  0
    7.3837  -16.2483   21.7128 C   0  0  0  0  0  0  0  0  0  0  0  0
    6.1705  -15.9453   21.9799 O   0  0  0  0  0  0  0  0  0  0  0  0
    7.2587  -20.0228   26.2157 N   0  0  0  0  0  0  0  0  0  0  0  0
    6.9798  -18.8598   26.9483 C   0  0  0  0  0  0  0  0  0  0  0  0
    6.6164  -18.9024   28.1315 O   0  0  0  0  0  0  0  0  0  0  0  0
    7.1254  -17.5302   26.2825 C   0  0  0  0  0  0  0  0  0  0  0  0
    7.6148  -17.6697   24.8763 C   0  0  0  0  0  0  0  0  0  0  0  0
    7.7343  -16.3435   24.2100 C   0  0  2  0  0  0  0  0  0  0  0  0
    8.2043  -16.4989   22.8377 N   0  0  0  0  0  0  0  0  0  0  0  0
    8.4305  -15.3415   24.9934 C   0  0  0  0  0  0  0  0  0  0  0  0
    9.7221  -15.3616   25.0247 O   0  0  0  0  0  0  0  0  0  0  0  0
    7.8631  -14.2965   25.7647 N   0  0  0  0  0  0  0  0  0  0  0  0
    6.4687  -14.0045   25.9142 C   0  0  0  0  0  0  0  0  0  0  0  0
    6.3887  -12.9049   26.9916 C   0  0  0  0  0  0  0  0  0  0  0  0
    7.7125  -12.1739   26.7280 C   0  0  0  0  0  0  0  0  0  0  0  0
    8.6290  -13.3462   26.5329 C   0  0  1  0  0  0  0  0  0  0  0  0
    8.9511  -13.8812   27.8910 C   0  0  0  0  0  0  0  0  0  0  0  0
    8.3879  -14.9419   28.2554 O   0  0  0  0  0  0  0  0  0  0  0  0
    9.8310  -13.2731   28.7611 O   0  0  0  0  0  0  0  0  0  0  0  0
  1  2  1  0
  3  2  1  0
  4  3  1  0
  5  4  1  0
  5  6  1  6
  7  5  1  0
  7  8  2  0
 10  9  1  0
 11 10  2  0
 12 10  1  0
 13 12  1  0
 14 13  1  1
 14 15  1  0
 15  7  1  0
 16 18  1  0
 16 14  1  0
 17 16  2  0
 18 22  1  0
 19 18  1  0
 19 20  1  0
 20 21  1  0
 22 21  1  0
 23 25  1  0
 22 23  1  1
 24 23  2  0
M  END
$$$$
