MQP.pdb
     RDKit          3D

 25 25  0  0  1  0  0  0  0  0999 V2000
    7.7541  -11.1439   19.4966 C   0  0  0  0  0  0  0  0  0  0  0  0
    8.5911  -12.7555   19.2866 S   0  0  0  0  0  0  0  0  0  0  0  0
    7.5914  -14.0794   20.0349 C   0  0  0  0  0  0  0  0  0  0  0  0
    8.3151  -15.3814   19.9598 C   0  0  0  0  0  0  0  0  0  0  0  0
    7.5796  -16.5344   20.5544 C   0  0  2  0  0  0  0  0  0  0  0  0
    6.4198  -16.8187   19.7429 N   0  0  0  0  0  0  0  0  0  0  0  0
    7.2274  -16.3652   21.9883 C   0  0  0  0  0  0  0  0  0  0  0  0
    6.1049  -15.8532   22.3239 O   0  0  0  0  0  0  0  0  0  0  0  0
    7.2364  -20.1622   26.5737 N   0  0  0  0  0  0  0  0  0  0  0  0
    7.1011  -18.9764   27.3101 C   0  0  0  0  0  0  0  0  0  0  0  0
    6.8740  -18.9836   28.5276 O   0  0  0  0  0  0  0  0  0  0  0  0
    7.2347  -17.6654   26.6058 C   0  0  0  0  0  0  0  0  0  0  0  0
    7.5341  -17.8497   25.1523 C   0  0  0  0  0  0  0  0  0  0  0  0
    7.6950  -16.5403   24.4619 C   0  0  2  0  0  0  0  0  0  0  0  0
    8.0658  -16.7387   23.0649 N   0  0  0  0  0  0  0  0  0  0  0  0
    8.5019  -15.5778   25.1862 C   0  0  0  0  0  0  0  0  0  0  0  0
    9.7855  -15.7257   25.2002 O   0  0  0  0  0  0  0  0  0  0  0  0
    8.0559  -14.4465   25.9143 N   0  0  0  0  0  0  0  0  0  0  0  0
    6.7158  -13.9443   25.9771 C   0  0  0  0  0  0  0  0  0  0  0  0
    6.7409  -12.8278   27.0398 C   0  0  0  0  0  0  0  0  0  0  0  0
    8.1737  -12.3101   26.8515 C   0  0  0  0  0  0  0  0  0  0  0  0
    8.9110  -13.6107   26.7205 C   0  0  1  0  0  0  0  0  0  0  0  0
    9.0678  -14.1661   28.0995 C   0  0  0  0  0  0  0  0  0  0  0  0
    8.3349  -15.1285   28.4340 O   0  0  0  0  0  0  0  0  0  0  0  0
    9.9716  -13.6788   29.0196 O   0  0  0  0  0  0  0  0  0  0  0  0
  1  2  1  0
  3  2  1  0
  4  3  1  0
  5  4  1  0
  5  6  1  6
  7  5  1  0
  7  8  2  0
 10  9  1  0
 11 10  2  0
 12 10  1  0
 13 12  1  0
 14 13  1  1
 14 15  1  0
 15  7  1  0
 16 18  1  0
 16 14  1  0
 17 16  2  0
 18 22  1  0
 19 18  1  0
 19 20  1  0
 20 21  1  0
 22 21  1  0
 23 25  1  0
 22 23  1  1
 24 23  2  0
M  END
$$$$
