MQP.pdb
     RDKit          3D

 25 25  0  0  1  0  0  0  0  0999 V2000
    8.5778  -11.7421   20.1342 C   0  0  0  0  0  0  0  0  0  0  0  0
    7.9439  -12.5824   18.6396 S   0  0  0  0  0  0  0  0  0  0  0  0
    7.1407  -14.1496   19.0988 C   0  0  0  0  0  0  0  0  0  0  0  0
    8.0491  -14.9671   19.9538 C   0  0  0  0  0  0  0  0  0  0  0  0
    7.4377  -16.2176   20.4890 C   0  0  2  0  0  0  0  0  0  0  0  0
    6.3051  -16.5737   19.6675 N   0  0  0  0  0  0  0  0  0  0  0  0
    7.0828  -16.1598   21.9310 C   0  0  0  0  0  0  0  0  0  0  0  0
    5.9205  -15.7731   22.2974 O   0  0  0  0  0  0  0  0  0  0  0  0
    7.6452  -20.1450   26.3648 N   0  0  0  0  0  0  0  0  0  0  0  0
    7.2159  -19.0377   27.1107 C   0  0  0  0  0  0  0  0  0  0  0  0
    6.8520  -19.1434   28.2899 O   0  0  0  0  0  0  0  0  0  0  0  0
    7.1969  -17.6906   26.4646 C   0  0  0  0  0  0  0  0  0  0  0  0
    7.6038  -17.7639   25.0275 C   0  0  0  0  0  0  0  0  0  0  0  0
    7.5866  -16.4184   24.3902 C   0  0  2  0  0  0  0  0  0  0  0  0
    7.9607  -16.5119   22.9831 N   0  0  0  0  0  0  0  0  0  0  0  0
    8.2738  -15.3898   25.1466 C   0  0  0  0  0  0  0  0  0  0  0  0
    9.5579  -15.2916   25.0411 O   0  0  0  0  0  0  0  0  0  0  0  0
    7.7048  -14.4349   26.0259 N   0  0  0  0  0  0  0  0  0  0  0  0
    6.3252  -14.3301   26.3972 C   0  0  0  0  0  0  0  0  0  0  0  0
    6.2744  -13.2594   27.5051 C   0  0  0  0  0  0  0  0  0  0  0  0
    7.4352  -12.3585   27.0613 C   0  0  0  0  0  0  0  0  0  0  0  0
    8.4529  -13.3984   26.6935 C   0  0  1  0  0  0  0  0  0  0  0  0
    9.0502  -13.8974   27.9696 C   0  0  0  0  0  0  0  0  0  0  0  0
    9.7965  -13.1210   28.6142 O   0  0  0  0  0  0  0  0  0  0  0  0
    8.8254  -15.1608   28.4740 O   0  0  0  0  0  0  0  0  0  0  0  0
  1  2  1  0
  3  2  1  0
  4  3  1  0
  5  4  1  0
  5  6  1  6
  7  5  1  0
  7  8  2  0
 10  9  1  0
 11 10  2  0
 12 10  1  0
 13 12  1  0
 14 13  1  1
 14 15  1  0
 15  7  1  0
 16 18  1  0
 16 14  1  0
 17 16  2  0
 18 22  1  0
 19 18  1  0
 19 20  1  0
 20 21  1  0
 22 21  1  0
 23 25  1  0
 22 23  1  1
 24 23  2  0
M  END
$$$$
