MQP.pdb
     RDKit          3D

 25 25  0  0  1  0  0  0  0  0999 V2000
    7.7797  -11.5857   27.8538 C   0  0  0  0  0  0  0  0  0  0  0  0
    6.5022  -12.7015   27.1722 S   0  0  0  0  0  0  0  0  0  0  0  0
    7.1524  -14.3974   27.0577 C   0  0  0  0  0  0  0  0  0  0  0  0
    6.1032  -15.3214   26.5380 C   0  0  0  0  0  0  0  0  0  0  0  0
    6.5787  -16.2750   25.4948 C   0  0  2  0  0  0  0  0  0  0  0  0
    7.3809  -17.2966   26.1250 N   0  0  0  0  0  0  0  0  0  0  0  0
    7.2866  -15.6361   24.3549 C   0  0  0  0  0  0  0  0  0  0  0  0
    6.7459  -14.6696   23.7158 O   0  0  0  0  0  0  0  0  0  0  0  0
   13.1272  -16.9528   22.6109 N   0  0  0  0  0  0  0  0  0  0  0  0
   12.8293  -16.0690   23.6583 C   0  0  0  0  0  0  0  0  0  0  0  0
   13.6643  -15.7747   24.5245 O   0  0  0  0  0  0  0  0  0  0  0  0
   11.4650  -15.4644   23.7320 C   0  0  0  0  0  0  0  0  0  0  0  0
   10.6063  -15.9033   22.5891 C   0  0  0  0  0  0  0  0  0  0  0  0
    9.2105  -15.4067   22.7381 C   0  0  2  0  0  0  0  0  0  0  0  0
    8.5669  -16.0226   23.8935 N   0  0  0  0  0  0  0  0  0  0  0  0
    8.4349  -15.4271   21.5132 C   0  0  0  0  0  0  0  0  0  0  0  0
    7.6392  -16.4218   21.2959 O   0  0  0  0  0  0  0  0  0  0  0  0
    8.4301  -14.4628   20.4745 N   0  0  0  0  0  0  0  0  0  0  0  0
    9.0861  -13.1894   20.4872 C   0  0  0  0  0  0  0  0  0  0  0  0
    8.9227  -12.6247   19.0621 C   0  0  0  0  0  0  0  0  0  0  0  0
    7.5653  -13.2345   18.6857 C   0  0  0  0  0  0  0  0  0  0  0  0
    7.7429  -14.6267   19.2173 C   0  0  1  0  0  0  0  0  0  0  0  0
    8.5869  -15.3678   18.2309 C   0  0  0  0  0  0  0  0  0  0  0  0
    9.7849  -15.5914   18.5310 O   0  0  0  0  0  0  0  0  0  0  0  0
    8.1205  -15.8170   17.0137 O   0  0  0  0  0  0  0  0  0  0  0  0
  1  2  1  0
  3  2  1  0
  4  3  1  0
  5  4  1  0
  5  6  1  1
  7  5  1  0
  7  8  2  0
 10  9  1  0
 11 10  2  0
 12 10  1  0
 13 12  1  0
 14 13  1  6
 14 15  1  0
 15  7  1  0
 16 18  1  0
 16 14  1  0
 17 16  2  0
 18 22  1  0
 19 18  1  0
 19 20  1  0
 20 21  1  0
 22 21  1  0
 23 25  1  0
 22 23  1  6
 24 23  2  0
M  END
$$$$
