MQP.pdb
     RDKit          3D

 25 25  0  0  1  0  0  0  0  0999 V2000
    8.5414  -11.6279   20.3378 C   0  0  0  0  0  0  0  0  0  0  0  0
    7.9705  -12.5473   18.8645 S   0  0  0  0  0  0  0  0  0  0  0  0
    7.2415  -14.1376   19.3659 C   0  0  0  0  0  0  0  0  0  0  0  0
    8.3149  -15.1211   19.6900 C   0  0  0  0  0  0  0  0  0  0  0  0
    7.8319  -16.3750   20.3368 C   0  0  2  0  0  0  0  0  0  0  0  0
    6.7916  -16.9529   19.5194 N   0  0  0  0  0  0  0  0  0  0  0  0
    7.4026  -16.2114   21.7502 C   0  0  0  0  0  0  0  0  0  0  0  0
    6.1792  -15.9690   22.0320 O   0  0  0  0  0  0  0  0  0  0  0  0
    7.3849  -19.9969   26.0734 N   0  0  0  0  0  0  0  0  0  0  0  0
    7.0818  -18.8743   26.8573 C   0  0  0  0  0  0  0  0  0  0  0  0
    6.6969  -18.9787   28.0299 O   0  0  0  0  0  0  0  0  0  0  0  0
    7.2274  -17.5120   26.2612 C   0  0  0  0  0  0  0  0  0  0  0  0
    7.6549  -17.5806   24.8298 C   0  0  0  0  0  0  0  0  0  0  0  0
    7.8010  -16.2205   24.2421 C   0  0  2  0  0  0  0  0  0  0  0  0
    8.2707  -16.3046   22.8634 N   0  0  0  0  0  0  0  0  0  0  0  0
    8.5146  -15.2793   25.0831 C   0  0  0  0  0  0  0  0  0  0  0  0
    9.8045  -15.3394   25.1302 O   0  0  0  0  0  0  0  0  0  0  0  0
    7.9668  -14.2570   25.8978 N   0  0  0  0  0  0  0  0  0  0  0  0
    6.5834  -13.9027   26.0100 C   0  0  0  0  0  0  0  0  0  0  0  0
    6.5113  -12.8708   27.1530 C   0  0  0  0  0  0  0  0  0  0  0  0
    7.8798  -12.1946   26.9909 C   0  0  0  0  0  0  0  0  0  0  0  0
    8.7447  -13.3984   26.7564 C   0  0  1  0  0  0  0  0  0  0  0  0
    8.9809  -14.0343   28.0884 C   0  0  0  0  0  0  0  0  0  0  0  0
    8.3619  -15.0933   28.3540 O   0  0  0  0  0  0  0  0  0  0  0  0
    9.8397  -13.5208   29.0370 O   0  0  0  0  0  0  0  0  0  0  0  0
  1  2  1  0
  3  2  1  0
  4  3  1  0
  5  4  1  0
  5  6  1  6
  7  5  1  0
  7  8  2  0
 10  9  1  0
 11 10  2  0
 12 10  1  0
 13 12  1  0
 14 13  1  1
 14 15  1  0
 15  7  1  0
 16 18  1  0
 16 14  1  0
 17 16  2  0
 18 22  1  0
 19 18  1  0
 19 20  1  0
 20 21  1  0
 22 21  1  0
 23 25  1  0
 22 23  1  1
 24 23  2  0
M  END
$$$$
