MQP.pdb
     RDKit          3D

 25 25  0  0  1  0  0  0  0  0999 V2000
    8.0001  -11.7122   19.5156 C   0  0  0  0  0  0  0  0  0  0  0  0
    8.6466  -12.9335   18.3188 S   0  0  0  0  0  0  0  0  0  0  0  0
    8.1235  -14.6103   18.7950 C   0  0  0  0  0  0  0  0  0  0  0  0
    7.8809  -14.6802   20.2650 C   0  0  0  0  0  0  0  0  0  0  0  0
    7.3738  -15.9970   20.7475 C   0  0  2  0  0  0  0  0  0  0  0  0
    6.2664  -16.4054   19.9161 N   0  0  0  0  0  0  0  0  0  0  0  0
    7.0266  -16.0298   22.1922 C   0  0  0  0  0  0  0  0  0  0  0  0
    5.9760  -15.4398   22.6199 O   0  0  0  0  0  0  0  0  0  0  0  0
    7.6358  -20.1529   26.7275 N   0  0  0  0  0  0  0  0  0  0  0  0
    7.3873  -18.9907   27.4720 C   0  0  0  0  0  0  0  0  0  0  0  0
    7.2997  -19.0103   28.7073 O   0  0  0  0  0  0  0  0  0  0  0  0
    7.2234  -17.6903   26.7546 C   0  0  0  0  0  0  0  0  0  0  0  0
    7.4364  -17.8435   25.2825 C   0  0  0  0  0  0  0  0  0  0  0  0
    7.5530  -16.5196   24.6111 C   0  0  2  0  0  0  0  0  0  0  0  0
    7.7937  -16.6880   23.1821 N   0  0  0  0  0  0  0  0  0  0  0  0
    8.4355  -15.5849   25.2819 C   0  0  0  0  0  0  0  0  0  0  0  0
    9.7098  -15.7958   25.2463 O   0  0  0  0  0  0  0  0  0  0  0  0
    8.0759  -14.4197   26.0043 N   0  0  0  0  0  0  0  0  0  0  0  0
    6.7800  -13.8115   26.0553 C   0  0  0  0  0  0  0  0  0  0  0  0
    6.8862  -12.6980   27.1161 C   0  0  0  0  0  0  0  0  0  0  0  0
    8.3573  -12.2974   26.9385 C   0  0  0  0  0  0  0  0  0  0  0  0
    8.9888  -13.6532   26.8159 C   0  0  1  0  0  0  0  0  0  0  0  0
    9.0896  -14.2161   28.1970 C   0  0  0  0  0  0  0  0  0  0  0  0
    8.2814  -15.1181   28.5262 O   0  0  0  0  0  0  0  0  0  0  0  0
   10.0201  -13.7982   29.1247 O   0  0  0  0  0  0  0  0  0  0  0  0
  1  2  1  0
  3  2  1  0
  4  3  1  0
  5  4  1  0
  5  6  1  6
  7  5  1  0
  7  8  2  0
 10  9  1  0
 11 10  2  0
 12 10  1  0
 13 12  1  0
 14 13  1  1
 14 15  1  0
 15  7  1  0
 16 18  1  0
 16 14  1  0
 17 16  2  0
 18 22  1  0
 19 18  1  0
 19 20  1  0
 20 21  1  0
 22 21  1  0
 23 25  1  0
 22 23  1  1
 24 23  2  0
M  END
$$$$
