MQP.pdb
     RDKit          3D

 25 25  0  0  1  0  0  0  0  0999 V2000
    8.4386  -11.9713   19.5136 C   0  0  0  0  0  0  0  0  0  0  0  0
    8.3872  -13.1683   18.1328 S   0  0  0  0  0  0  0  0  0  0  0  0
    8.3276  -14.8673   18.7824 C   0  0  0  0  0  0  0  0  0  0  0  0
    7.5484  -14.9097   20.0535 C   0  0  0  0  0  0  0  0  0  0  0  0
    7.5191  -16.2442   20.7183 C   0  0  2  0  0  0  0  0  0  0  0  0
    6.7945  -17.1693   19.8797 N   0  0  0  0  0  0  0  0  0  0  0  0
    6.9955  -16.2266   22.1091 C   0  0  0  0  0  0  0  0  0  0  0  0
    5.7360  -16.1949   22.3271 O   0  0  0  0  0  0  0  0  0  0  0  0
    6.6361  -20.5571   25.5533 N   0  0  0  0  0  0  0  0  0  0  0  0
    7.1515  -19.3940   26.1434 C   0  0  0  0  0  0  0  0  0  0  0  0
    7.2090  -19.2532   27.3725 O   0  0  0  0  0  0  0  0  0  0  0  0
    7.6461  -18.2919   25.2640 C   0  0  0  0  0  0  0  0  0  0  0  0
    6.6738  -17.1573   25.2042 C   0  0  0  0  0  0  0  0  0  0  0  0
    7.2917  -15.9453   24.5993 C   0  0  2  0  0  0  0  0  0  0  0  0
    7.8077  -16.2423   23.2674 N   0  0  0  0  0  0  0  0  0  0  0  0
    8.2076  -15.2407   25.4753 C   0  0  0  0  0  0  0  0  0  0  0  0
    9.4584  -15.5645   25.4595 O   0  0  0  0  0  0  0  0  0  0  0  0
    7.9053  -14.1994   26.3880 N   0  0  0  0  0  0  0  0  0  0  0  0
    6.6134  -13.6368   26.6456 C   0  0  0  0  0  0  0  0  0  0  0  0
    6.8075  -12.6832   27.8412 C   0  0  0  0  0  0  0  0  0  0  0  0
    8.2505  -12.2252   27.5879 C   0  0  0  0  0  0  0  0  0  0  0  0
    8.8827  -13.5339   27.2135 C   0  0  1  0  0  0  0  0  0  0  0  0
    9.1206  -14.2848   28.4840 C   0  0  0  0  0  0  0  0  0  0  0  0
    8.3749  -15.2613   28.7398 O   0  0  0  0  0  0  0  0  0  0  0  0
   10.1122  -13.9624   29.3860 O   0  0  0  0  0  0  0  0  0  0  0  0
  1  2  1  0
  3  2  1  0
  4  3  1  0
  5  4  1  0
  5  6  1  6
  7  5  1  0
  7  8  2  0
 10  9  1  0
 11 10  2  0
 12 10  1  0
 13 12  1  0
 14 13  1  1
 14 15  1  0
 15  7  1  0
 16 18  1  0
 16 14  1  0
 17 16  2  0
 18 22  1  0
 19 18  1  0
 19 20  1  0
 20 21  1  0
 22 21  1  0
 23 25  1  0
 22 23  1  1
 24 23  2  0
M  END
$$$$
