MQP.pdb
     RDKit          3D

 25 25  0  0  1  0  0  0  0  0999 V2000
    8.2538  -11.3339   19.7998 C   0  0  0  0  0  0  0  0  0  0  0  0
    8.2142  -12.3912   18.3090 S   0  0  0  0  0  0  0  0  0  0  0  0
    8.3289  -14.1441   18.7847 C   0  0  0  0  0  0  0  0  0  0  0  0
    7.4607  -14.4191   19.9658 C   0  0  0  0  0  0  0  0  0  0  0  0
    7.5123  -15.8255   20.4590 C   0  0  2  0  0  0  0  0  0  0  0  0
    6.7471  -16.6632   19.5662 N   0  0  0  0  0  0  0  0  0  0  0  0
    7.0958  -15.9957   21.8754 C   0  0  0  0  0  0  0  0  0  0  0  0
    5.8635  -15.9041   22.2041 O   0  0  0  0  0  0  0  0  0  0  0  0
    7.3996  -20.1118   26.0369 N   0  0  0  0  0  0  0  0  0  0  0  0
    7.0795  -19.0339   26.8751 C   0  0  0  0  0  0  0  0  0  0  0  0
    6.7262  -19.2006   28.0505 O   0  0  0  0  0  0  0  0  0  0  0  0
    7.1671  -17.6436   26.3351 C   0  0  0  0  0  0  0  0  0  0  0  0
    7.5355  -17.6384   24.8858 C   0  0  0  0  0  0  0  0  0  0  0  0
    7.5705  -16.2534   24.3405 C   0  0  2  0  0  0  0  0  0  0  0  0
    7.9861  -16.2626   22.9420 N   0  0  0  0  0  0  0  0  0  0  0  0
    8.2580  -15.2957   25.1846 C   0  0  0  0  0  0  0  0  0  0  0  0
    9.5500  -15.2975   25.2048 O   0  0  0  0  0  0  0  0  0  0  0  0
    7.6813  -14.3143   26.0291 N   0  0  0  0  0  0  0  0  0  0  0  0
    6.2836  -14.0697   26.2250 C   0  0  0  0  0  0  0  0  0  0  0  0
    6.1995  -13.0387   27.3680 C   0  0  0  0  0  0  0  0  0  0  0  0
    7.4977  -12.2576   27.1211 C   0  0  0  0  0  0  0  0  0  0  0  0
    8.4395  -13.3909   26.8367 C   0  0  1  0  0  0  0  0  0  0  0  0
    8.8060  -13.9968   28.1531 C   0  0  0  0  0  0  0  0  0  0  0  0
    9.5499  -13.3370   28.9189 O   0  0  0  0  0  0  0  0  0  0  0  0
    8.3716  -15.2376   28.5689 O   0  0  0  0  0  0  0  0  0  0  0  0
  1  2  1  0
  3  2  1  0
  4  3  1  0
  5  4  1  0
  5  6  1  6
  7  5  1  0
  7  8  2  0
 10  9  1  0
 11 10  2  0
 12 10  1  0
 13 12  1  0
 14 13  1  1
 14 15  1  0
 15  7  1  0
 16 18  1  0
 16 14  1  0
 17 16  2  0
 18 22  1  0
 19 18  1  0
 19 20  1  0
 20 21  1  0
 22 21  1  0
 23 25  1  0
 22 23  1  1
 24 23  2  0
M  END
$$$$
