MQP.pdb
     RDKit          3D

 25 25  0  0  1  0  0  0  0  0999 V2000
    7.9909  -11.8382   19.7421 C   0  0  0  0  0  0  0  0  0  0  0  0
    8.6213  -13.0320   18.5095 S   0  0  0  0  0  0  0  0  0  0  0  0
    8.0817  -14.7160   18.9398 C   0  0  0  0  0  0  0  0  0  0  0  0
    7.6470  -14.7730   20.3654 C   0  0  0  0  0  0  0  0  0  0  0  0
    7.2244  -16.1253   20.8308 C   0  0  2  0  0  0  0  0  0  0  0  0
    6.1100  -16.5697   20.0277 N   0  0  0  0  0  0  0  0  0  0  0  0
    6.9311  -16.2108   22.2853 C   0  0  0  0  0  0  0  0  0  0  0  0
    5.8121  -15.7979   22.7462 O   0  0  0  0  0  0  0  0  0  0  0  0
    6.3689  -20.0045   27.3927 N   0  0  0  0  0  0  0  0  0  0  0  0
    7.4668  -19.1384   27.4994 C   0  0  0  0  0  0  0  0  0  0  0  0
    8.4830  -19.4445   28.1379 O   0  0  0  0  0  0  0  0  0  0  0  0
    7.4096  -17.8073   26.8231 C   0  0  0  0  0  0  0  0  0  0  0  0
    7.6351  -17.9286   25.3498 C   0  0  0  0  0  0  0  0  0  0  0  0
    7.6072  -16.5962   24.6858 C   0  0  2  0  0  0  0  0  0  0  0  0
    7.8244  -16.7336   23.2497 N   0  0  0  0  0  0  0  0  0  0  0  0
    8.4143  -15.5851   25.3403 C   0  0  0  0  0  0  0  0  0  0  0  0
    9.7009  -15.6561   25.2440 O   0  0  0  0  0  0  0  0  0  0  0  0
    7.9656  -14.4802   26.1063 N   0  0  0  0  0  0  0  0  0  0  0  0
    6.6047  -14.1198   26.3708 C   0  0  0  0  0  0  0  0  0  0  0  0
    6.6721  -12.9674   27.3925 C   0  0  0  0  0  0  0  0  0  0  0  0
    7.9924  -12.3093   26.9681 C   0  0  0  0  0  0  0  0  0  0  0  0
    8.8387  -13.5291   26.7488 C   0  0  1  0  0  0  0  0  0  0  0  0
    9.2685  -14.0123   28.0965 C   0  0  0  0  0  0  0  0  0  0  0  0
    8.7151  -15.0397   28.5582 O   0  0  0  0  0  0  0  0  0  0  0  0
   10.2370  -13.3910   28.8561 O   0  0  0  0  0  0  0  0  0  0  0  0
  1  2  1  0
  3  2  1  0
  4  3  1  0
  5  4  1  0
  5  6  1  6
  7  5  1  0
  7  8  2  0
 10  9  1  0
 11 10  2  0
 12 10  1  0
 13 12  1  0
 14 13  1  1
 14 15  1  0
 15  7  1  0
 16 18  1  0
 16 14  1  0
 17 16  2  0
 18 22  1  0
 19 18  1  0
 19 20  1  0
 20 21  1  0
 22 21  1  0
 23 25  1  0
 22 23  1  1
 24 23  2  0
M  END
$$$$
