MQP.pdb
     RDKit          3D

 25 25  0  0  1  0  0  0  0  0999 V2000
    8.7618  -11.7105   20.1512 C   0  0  0  0  0  0  0  0  0  0  0  0
    8.0308  -12.6316   18.7516 S   0  0  0  0  0  0  0  0  0  0  0  0
    7.1404  -14.0953   19.3656 C   0  0  0  0  0  0  0  0  0  0  0  0
    8.1019  -15.0955   19.9132 C   0  0  0  0  0  0  0  0  0  0  0  0
    7.4647  -16.2919   20.5350 C   0  0  2  0  0  0  0  0  0  0  0  0
    6.2980  -16.6541   19.7655 N   0  0  0  0  0  0  0  0  0  0  0  0
    7.1530  -16.1407   21.9803 C   0  0  0  0  0  0  0  0  0  0  0  0
    6.1378  -15.4605   22.3566 O   0  0  0  0  0  0  0  0  0  0  0  0
    7.9424  -19.1816   28.4392 N   0  0  0  0  0  0  0  0  0  0  0  0
    7.1584  -18.9771   27.2945 C   0  0  0  0  0  0  0  0  0  0  0  0
    6.4062  -19.8551   26.8502 O   0  0  0  0  0  0  0  0  0  0  0  0
    7.2320  -17.6616   26.5899 C   0  0  0  0  0  0  0  0  0  0  0  0
    7.4602  -17.8357   25.1223 C   0  0  0  0  0  0  0  0  0  0  0  0
    7.5954  -16.5217   24.4353 C   0  0  2  0  0  0  0  0  0  0  0  0
    7.9180  -16.7104   23.0250 N   0  0  0  0  0  0  0  0  0  0  0  0
    8.4257  -15.5626   25.1375 C   0  0  0  0  0  0  0  0  0  0  0  0
    9.7104  -15.6584   25.0362 O   0  0  0  0  0  0  0  0  0  0  0  0
    8.0026  -14.4866   25.9573 N   0  0  0  0  0  0  0  0  0  0  0  0
    6.6638  -13.9989   26.1041 C   0  0  0  0  0  0  0  0  0  0  0  0
    6.7241  -12.9573   27.2389 C   0  0  0  0  0  0  0  0  0  0  0  0
    8.1466  -12.4183   27.0333 C   0  0  0  0  0  0  0  0  0  0  0  0
    8.8839  -13.7020   26.7864 C   0  0  1  0  0  0  0  0  0  0  0  0
    9.0947  -14.3490   28.1174 C   0  0  0  0  0  0  0  0  0  0  0  0
    8.3928  -15.3491   28.4042 O   0  0  0  0  0  0  0  0  0  0  0  0
   10.0160  -13.9068   29.0429 O   0  0  0  0  0  0  0  0  0  0  0  0
  1  2  1  0
  3  2  1  0
  4  3  1  0
  5  4  1  0
  5  6  1  6
  7  5  1  0
  7  8  2  0
 10  9  1  0
 11 10  2  0
 12 10  1  0
 13 12  1  0
 14 13  1  1
 14 15  1  0
 15  7  1  0
 16 18  1  0
 16 14  1  0
 17 16  2  0
 18 22  1  0
 19 18  1  0
 19 20  1  0
 20 21  1  0
 22 21  1  0
 23 25  1  0
 22 23  1  1
 24 23  2  0
M  END
$$$$
