MQP.pdb
     RDKit          3D

 25 25  0  0  1  0  0  0  0  0999 V2000
    7.9017  -11.8522   19.1229 C   0  0  0  0  0  0  0  0  0  0  0  0
    8.0686  -13.1763   17.8736 S   0  0  0  0  0  0  0  0  0  0  0  0
    8.3273  -14.7795   18.6952 C   0  0  0  0  0  0  0  0  0  0  0  0
    7.8524  -14.7211   20.1079 C   0  0  0  0  0  0  0  0  0  0  0  0
    8.6065  -15.5953   21.0518 C   0  0  2  0  0  0  0  0  0  0  0  0
    8.5112  -16.9635   20.6007 N   0  0  0  0  0  0  0  0  0  0  0  0
    8.2074  -15.4501   22.4761 C   0  0  0  0  0  0  0  0  0  0  0  0
    8.2308  -14.3038   23.0420 O   0  0  0  0  0  0  0  0  0  0  0  0
    6.1516  -19.2547   27.3154 N   0  0  0  0  0  0  0  0  0  0  0  0
    7.4761  -19.3691   26.8688 C   0  0  0  0  0  0  0  0  0  0  0  0
    8.2771  -20.1577   27.3890 O   0  0  0  0  0  0  0  0  0  0  0  0
    7.9350  -18.5150   25.7320 C   0  0  0  0  0  0  0  0  0  0  0  0
    6.8489  -17.6048   25.2543 C   0  0  0  0  0  0  0  0  0  0  0  0
    7.4065  -16.3418   24.6967 C   0  0  2  0  0  0  0  0  0  0  0  0
    7.7841  -16.5203   23.2989 N   0  0  0  0  0  0  0  0  0  0  0  0
    8.4084  -15.7102   25.5331 C   0  0  0  0  0  0  0  0  0  0  0  0
    9.6278  -16.1334   25.4723 O   0  0  0  0  0  0  0  0  0  0  0  0
    8.2255  -14.6450   26.4500 N   0  0  0  0  0  0  0  0  0  0  0  0
    7.0038  -13.9455   26.7150 C   0  0  0  0  0  0  0  0  0  0  0  0
    7.3059  -13.0227   27.9122 C   0  0  0  0  0  0  0  0  0  0  0  0
    8.7892  -12.7241   27.6535 C   0  0  0  0  0  0  0  0  0  0  0  0
    9.2731  -14.0927   27.2728 C   0  0  1  0  0  0  0  0  0  0  0  0
    9.4331  -14.8690   28.5402 C   0  0  0  0  0  0  0  0  0  0  0  0
    8.5820  -15.7539   28.8005 O   0  0  0  0  0  0  0  0  0  0  0  0
   10.4623  -14.6651   29.4346 O   0  0  0  0  0  0  0  0  0  0  0  0
  1  2  1  0
  3  2  1  0
  4  3  1  0
  5  4  1  0
  5  6  1  6
  7  5  1  0
  7  8  2  0
 10  9  1  0
 11 10  2  0
 12 10  1  0
 13 12  1  0
 14 13  1  1
 14 15  1  0
 15  7  1  0
 16 18  1  0
 16 14  1  0
 17 16  2  0
 18 22  1  0
 19 18  1  0
 19 20  1  0
 20 21  1  0
 22 21  1  0
 23 25  1  0
 22 23  1  1
 24 23  2  0
M  END
$$$$
