MQP.pdb
     RDKit          3D

 25 25  0  0  1  0  0  0  0  0999 V2000
    8.3779  -11.7130   19.7434 C   0  0  0  0  0  0  0  0  0  0  0  0
    8.4226  -12.8230   18.2916 S   0  0  0  0  0  0  0  0  0  0  0  0
    8.1746  -14.5475   18.8174 C   0  0  0  0  0  0  0  0  0  0  0  0
    7.7103  -14.5963   20.2340 C   0  0  0  0  0  0  0  0  0  0  0  0
    7.3126  -15.9526   20.7095 C   0  0  2  0  0  0  0  0  0  0  0  0
    6.2262  -16.4359   19.8907 N   0  0  0  0  0  0  0  0  0  0  0  0
    6.9923  -16.0262   22.1589 C   0  0  0  0  0  0  0  0  0  0  0  0
    5.8829  -15.5698   22.6015 O   0  0  0  0  0  0  0  0  0  0  0  0
    7.5184  -20.2502   26.4833 N   0  0  0  0  0  0  0  0  0  0  0  0
    7.3755  -19.1185   27.2993 C   0  0  0  0  0  0  0  0  0  0  0  0
    7.2679  -19.2077   28.5300 O   0  0  0  0  0  0  0  0  0  0  0  0
    7.3525  -17.7654   26.6661 C   0  0  0  0  0  0  0  0  0  0  0  0
    7.5935  -17.8434   25.1924 C   0  0  0  0  0  0  0  0  0  0  0  0
    7.5795  -16.4915   24.5686 C   0  0  2  0  0  0  0  0  0  0  0  0
    7.8485  -16.5834   23.1377 N   0  0  0  0  0  0  0  0  0  0  0  0
    8.3557  -15.4960   25.2819 C   0  0  0  0  0  0  0  0  0  0  0  0
    9.6429  -15.5116   25.1699 O   0  0  0  0  0  0  0  0  0  0  0  0
    7.8746  -14.4621   26.1237 N   0  0  0  0  0  0  0  0  0  0  0  0
    6.5040  -14.1675   26.4180 C   0  0  0  0  0  0  0  0  0  0  0  0
    6.5390  -13.0860   27.5159 C   0  0  0  0  0  0  0  0  0  0  0  0
    7.8333  -12.3554   27.1320 C   0  0  0  0  0  0  0  0  0  0  0  0
    8.7191  -13.5276   26.8261 C   0  0  1  0  0  0  0  0  0  0  0  0
    9.1739  -14.0866   28.1357 C   0  0  0  0  0  0  0  0  0  0  0  0
    8.6583  -15.1612   28.5287 O   0  0  0  0  0  0  0  0  0  0  0  0
   10.1264  -13.4862   28.9316 O   0  0  0  0  0  0  0  0  0  0  0  0
  1  2  1  0
  3  2  1  0
  4  3  1  0
  5  4  1  0
  5  6  1  6
  7  5  1  0
  7  8  2  0
 10  9  1  0
 11 10  2  0
 12 10  1  0
 13 12  1  0
 14 13  1  1
 14 15  1  0
 15  7  1  0
 16 18  1  0
 16 14  1  0
 17 16  2  0
 18 22  1  0
 19 18  1  0
 19 20  1  0
 20 21  1  0
 22 21  1  0
 23 25  1  0
 22 23  1  1
 24 23  2  0
M  END
$$$$
