MQP.pdb
     RDKit          3D

 25 25  0  0  1  0  0  0  0  0999 V2000
    5.6068  -10.7079   27.5164 C   0  0  0  0  0  0  0  0  0  0  0  0
    6.8360  -11.7553   26.6598 S   0  0  0  0  0  0  0  0  0  0  0  0
    6.1393  -12.3869   25.1017 C   0  0  0  0  0  0  0  0  0  0  0  0
    7.0828  -13.3503   24.4644 C   0  0  0  0  0  0  0  0  0  0  0  0
    7.0285  -14.7322   25.0224 C   0  0  2  0  0  0  0  0  0  0  0  0
    6.6359  -14.6617   26.4099 N   0  0  0  0  0  0  0  0  0  0  0  0
    8.2751  -15.5196   24.8362 C   0  0  0  0  0  0  0  0  0  0  0  0
    9.3731  -15.1288   25.3621 O   0  0  0  0  0  0  0  0  0  0  0  0
   10.4269  -20.4272   26.6808 N   0  0  0  0  0  0  0  0  0  0  0  0
   11.3525  -20.2698   25.6390 C   0  0  0  0  0  0  0  0  0  0  0  0
   12.3859  -20.9493   25.5726 O   0  0  0  0  0  0  0  0  0  0  0  0
   11.0847  -19.2528   24.5776 C   0  0  0  0  0  0  0  0  0  0  0  0
    9.8196  -18.5009   24.8428 C   0  0  0  0  0  0  0  0  0  0  0  0
    9.6160  -17.4141   23.8457 C   0  0  2  0  0  0  0  0  0  0  0  0
    8.3565  -16.7203   24.0924 N   0  0  0  0  0  0  0  0  0  0  0  0
    9.8436  -17.8140   22.4707 C   0  0  0  0  0  0  0  0  0  0  0  0
    9.0382  -18.6663   21.9281 O   0  0  0  0  0  0  0  0  0  0  0  0
   10.8753  -17.3794   21.6014 N   0  0  0  0  0  0  0  0  0  0  0  0
   11.9272  -16.4594   21.9160 C   0  0  0  0  0  0  0  0  0  0  0  0
   12.8717  -16.4773   20.6979 C   0  0  0  0  0  0  0  0  0  0  0  0
   11.8596  -16.7542   19.5775 C   0  0  0  0  0  0  0  0  0  0  0  0
   11.0201  -17.8113   20.2332 C   0  0  1  0  0  0  0  0  0  0  0  0
   11.7843  -19.0932   20.1475 C   0  0  0  0  0  0  0  0  0  0  0  0
   12.2766  -19.5575   21.2044 O   0  0  0  0  0  0  0  0  0  0  0  0
   11.9759  -19.7896   18.9730 O   0  0  0  0  0  0  0  0  0  0  0  0
  1  2  1  0
  3  2  1  0
  4  3  1  0
  5  4  1  0
  5  6  1  1
  7  5  1  0
  7  8  2  0
 10  9  1  0
 11 10  2  0
 12 10  1  0
 13 12  1  0
 14 13  1  1
 14 15  1  0
 15  7  1  0
 16 18  1  0
 16 14  1  0
 17 16  2  0
 18 22  1  0
 19 18  1  0
 19 20  1  0
 20 21  1  0
 22 21  1  0
 23 25  1  0
 22 23  1  1
 24 23  2  0
M  END
$$$$
