MQP.pdb
     RDKit          3D

 25 25  0  0  1  0  0  0  0  0999 V2000
    8.7559  -11.7302   19.8914 C   0  0  0  0  0  0  0  0  0  0  0  0
    8.2299  -12.9020   18.5906 S   0  0  0  0  0  0  0  0  0  0  0  0
    7.4962  -14.3855   19.3476 C   0  0  0  0  0  0  0  0  0  0  0  0
    8.5665  -15.3201   19.8009 C   0  0  0  0  0  0  0  0  0  0  0  0
    8.0705  -16.5276   20.5217 C   0  0  2  0  0  0  0  0  0  0  0  0
    7.2209  -17.2864   19.6346 N   0  0  0  0  0  0  0  0  0  0  0  0
    7.4042  -16.2388   21.8184 C   0  0  0  0  0  0  0  0  0  0  0  0
    6.1457  -16.0176   21.8652 O   0  0  0  0  0  0  0  0  0  0  0  0
    6.1020  -19.2990   26.3359 N   0  0  0  0  0  0  0  0  0  0  0  0
    7.4863  -19.1026   26.2265 C   0  0  0  0  0  0  0  0  0  0  0  0
    8.3006  -19.8642   26.7658 O   0  0  0  0  0  0  0  0  0  0  0  0
    7.9943  -17.9408   25.4363 C   0  0  0  0  0  0  0  0  0  0  0  0
    6.8794  -17.0511   24.9873 C   0  0  0  0  0  0  0  0  0  0  0  0
    7.3988  -15.8317   24.3088 C   0  0  2  0  0  0  0  0  0  0  0  0
    8.0728  -16.1845   23.0640 N   0  0  0  0  0  0  0  0  0  0  0  0
    8.1325  -14.9314   25.1767 C   0  0  0  0  0  0  0  0  0  0  0  0
    9.4236  -14.9286   25.1235 O   0  0  0  0  0  0  0  0  0  0  0  0
    7.6043  -14.0132   26.1185 N   0  0  0  0  0  0  0  0  0  0  0  0
    6.2191  -13.7669   26.3878 C   0  0  0  0  0  0  0  0  0  0  0  0
    6.1951  -12.8297   27.6115 C   0  0  0  0  0  0  0  0  0  0  0  0
    7.4953  -12.0483   27.3767 C   0  0  0  0  0  0  0  0  0  0  0  0
    8.4073  -13.1673   26.9665 C   0  0  1  0  0  0  0  0  0  0  0  0
    8.8138  -13.8813   28.2153 C   0  0  0  0  0  0  0  0  0  0  0  0
    8.2774  -14.9887   28.4622 O   0  0  0  0  0  0  0  0  0  0  0  0
    9.7435  -13.3892   29.1068 O   0  0  0  0  0  0  0  0  0  0  0  0
  1  2  1  0
  3  2  1  0
  4  3  1  0
  5  4  1  0
  5  6  1  6
  7  5  1  0
  7  8  2  0
 10  9  1  0
 11 10  2  0
 12 10  1  0
 13 12  1  0
 14 13  1  1
 14 15  1  0
 15  7  1  0
 16 18  1  0
 16 14  1  0
 17 16  2  0
 18 22  1  0
 19 18  1  0
 19 20  1  0
 20 21  1  0
 22 21  1  0
 23 25  1  0
 22 23  1  1
 24 23  2  0
M  END
$$$$
