MQP.pdb
     RDKit          3D

 25 25  0  0  1  0  0  0  0  0999 V2000
   10.0914  -13.7374   27.9491 C   0  0  0  0  0  0  0  0  0  0  0  0
    9.6381  -14.5995   29.4961 S   0  0  0  0  0  0  0  0  0  0  0  0
    9.0689  -16.2879   29.1251 C   0  0  0  0  0  0  0  0  0  0  0  0
    9.1611  -16.5565   27.6609 C   0  0  0  0  0  0  0  0  0  0  0  0
    7.8561  -16.8487   27.0010 C   0  0  2  0  0  0  0  0  0  0  0  0
    7.2811  -18.0286   27.6025 N   0  0  0  0  0  0  0  0  0  0  0  0
    7.9268  -16.9571   25.5205 C   0  0  0  0  0  0  0  0  0  0  0  0
    7.9158  -18.1030   24.9533 O   0  0  0  0  0  0  0  0  0  0  0  0
    7.1108  -16.2129   20.3961 N   0  0  0  0  0  0  0  0  0  0  0  0
    6.1689  -15.5214   21.1717 C   0  0  0  0  0  0  0  0  0  0  0  0
    4.9546  -15.5818   20.9356 O   0  0  0  0  0  0  0  0  0  0  0  0
    6.6437  -14.6870   22.3167 C   0  0  0  0  0  0  0  0  0  0  0  0
    8.1282  -14.7676   22.4778 C   0  0  0  0  0  0  0  0  0  0  0  0
    8.5223  -15.9575   23.2812 C   0  0  2  0  0  0  0  0  0  0  0  0
    8.0093  -15.8506   24.6428 N   0  0  0  0  0  0  0  0  0  0  0  0
    9.9237  -16.3139   23.1737 C   0  0  0  0  0  0  0  0  0  0  0  0
   10.7676  -15.7781   23.9925 O   0  0  0  0  0  0  0  0  0  0  0  0
   10.5218  -17.2090   22.2518 N   0  0  0  0  0  0  0  0  0  0  0  0
    9.8643  -17.9035   21.1854 C   0  0  0  0  0  0  0  0  0  0  0  0
   10.9877  -18.5885   20.3821 C   0  0  0  0  0  0  0  0  0  0  0  0
   11.9939  -18.8633   21.5083 C   0  0  0  0  0  0  0  0  0  0  0  0
   11.9198  -17.5628   22.2537 C   0  0  1  0  0  0  0  0  0  0  0  0
   12.7311  -16.5703   21.4848 C   0  0  0  0  0  0  0  0  0  0  0  0
   12.1238  -15.7660   20.7368 O   0  0  0  0  0  0  0  0  0  0  0  0
   14.1059  -16.4922   21.5536 O   0  0  0  0  0  0  0  0  0  0  0  0
  1  2  1  0
  3  2  1  0
  4  3  1  0
  5  4  1  0
  5  6  1  1
  7  5  1  0
  7  8  2  0
 10  9  1  0
 11 10  2  0
 12 10  1  0
 13 12  1  0
 14 13  1  1
 14 15  1  0
 15  7  1  0
 16 18  1  0
 16 14  1  0
 17 16  2  0
 18 22  1  0
 19 18  1  0
 19 20  1  0
 20 21  1  0
 22 21  1  0
 23 25  1  0
 22 23  1  6
 24 23  2  0
M  END
$$$$
