MQP.pdb
     RDKit          3D

 25 25  0  0  1  0  0  0  0  0999 V2000
    7.4746  -11.8718   26.7846 C   0  0  0  0  0  0  0  0  0  0  0  0
    5.9449  -11.9799   25.7895 S   0  0  0  0  0  0  0  0  0  0  0  0
    6.1128  -13.2804   24.5275 C   0  0  0  0  0  0  0  0  0  0  0  0
    7.1103  -12.8759   23.4951 C   0  0  0  0  0  0  0  0  0  0  0  0
    7.3662  -13.9029   22.4446 C   0  0  2  0  0  0  0  0  0  0  0  0
    6.1870  -14.0356   21.6223 N   0  0  0  0  0  0  0  0  0  0  0  0
    7.8304  -15.2144   22.9674 C   0  0  0  0  0  0  0  0  0  0  0  0
    6.9858  -16.1014   23.3344 O   0  0  0  0  0  0  0  0  0  0  0  0
   12.2282  -18.8722   21.0599 N   0  0  0  0  0  0  0  0  0  0  0  0
   11.9365  -19.5131   22.2728 C   0  0  0  0  0  0  0  0  0  0  0  0
   12.3213  -20.6654   22.5139 O   0  0  0  0  0  0  0  0  0  0  0  0
   11.1383  -18.7851   23.3048 C   0  0  0  0  0  0  0  0  0  0  0  0
   10.7524  -17.4177   22.8383 C   0  0  0  0  0  0  0  0  0  0  0  0
    9.6091  -16.8791   23.6254 C   0  0  2  0  0  0  0  0  0  0  0  0
    9.1895  -15.5840   23.1009 N   0  0  0  0  0  0  0  0  0  0  0  0
    9.7937  -16.9349   25.0625 C   0  0  0  0  0  0  0  0  0  0  0  0
   10.5520  -16.0545   25.6280 O   0  0  0  0  0  0  0  0  0  0  0  0
    9.2321  -17.8648   25.9728 N   0  0  0  0  0  0  0  0  0  0  0  0
    8.2627  -18.8758   25.6728 C   0  0  0  0  0  0  0  0  0  0  0  0
    8.1350  -19.7212   26.9555 C   0  0  0  0  0  0  0  0  0  0  0  0
    8.4089  -18.6447   28.0150 C   0  0  0  0  0  0  0  0  0  0  0  0
    9.5629  -17.9299   27.3749 C   0  0  1  0  0  0  0  0  0  0  0  0
   10.7795  -18.7669   27.6064 C   0  0  0  0  0  0  0  0  0  0  0  0
   11.2428  -19.4142   26.6362 O   0  0  0  0  0  0  0  0  0  0  0  0
   11.4172  -18.8649   28.8250 O   0  0  0  0  0  0  0  0  0  0  0  0
  1  2  1  0
  3  2  1  0
  4  3  1  0
  5  4  1  0
  5  6  1  1
  7  5  1  0
  7  8  2  0
 10  9  1  0
 11 10  2  0
 12 10  1  0
 13 12  1  0
 14 13  1  6
 14 15  1  0
 15  7  1  0
 16 18  1  0
 16 14  1  0
 17 16  2  0
 18 22  1  0
 19 18  1  0
 19 20  1  0
 20 21  1  0
 22 21  1  0
 23 25  1  0
 22 23  1  6
 24 23  2  0
M  END
$$$$
