SRG.pdb
     RDKit          3D

 22 21  0  0  1  0  0  0  0  0999 V2000
   10.3426  -20.7374   21.8528 O   0  0  0  0  0  0  0  0  0  0  0  0
    9.4648  -21.8303   21.8124 C   0  0  0  0  0  0  0  0  0  0  0  0
    8.0632  -21.4136   22.2178 C   0  0  2  0  0  0  0  0  0  0  0  0
    7.7831  -20.1549   21.5221 N   0  0  0  0  0  0  0  0  0  0  0  0
    8.0250  -21.2046   23.6694 C   0  0  0  0  0  0  0  0  0  0  0  0
    7.9988  -20.0258   24.1158 O   0  0  0  0  0  0  0  0  0  0  0  0
    2.7878  -26.0257   28.1775 N   0  0  0  0  0  0  0  0  0  0  0  0
    2.6485  -24.6536   28.5082 C   0  0  0  0  0  0  0  0  0  0  0  0
    1.5985  -24.2611   29.1325 N   0  0  0  0  0  0  0  0  0  0  0  0
    3.6442  -23.6877   28.1679 N   0  0  0  0  0  0  0  0  0  0  0  0
    4.8424  -24.0000   27.4626 C   0  0  0  0  0  0  0  0  0  0  0  0
    5.7441  -22.8079   27.2499 C   0  0  0  0  0  0  0  0  0  0  0  0
    6.9305  -23.2515   26.4330 C   0  0  0  0  0  0  0  0  0  0  0  0
    7.8445  -22.1505   26.0031 C   0  0  2  0  0  0  0  0  0  0  0  0
    8.0176  -22.3071   24.5486 N   0  0  0  0  0  0  0  0  0  0  0  0
    9.1930  -22.2099   26.5977 C   0  0  0  0  0  0  0  0  0  0  0  0
   10.0346  -23.0275   26.1575 O   0  0  0  0  0  0  0  0  0  0  0  0
    1.4688  -23.2612   29.3320 N   0  0  0  0  0  0  0  0  0  0  0  0
    9.5764  -21.3746   27.6529 C   0  0  0  0  0  0  0  0  0  0  0  0
   10.9171  -21.4524   28.2421 C   0  0  0  0  0  0  0  0  0  0  0  0
   11.7381  -20.3766   27.6625 O   0  0  0  0  0  0  0  0  0  0  0  0
   13.0098  -20.0982   28.1277 O   0  0  0  0  0  0  0  0  0  0  0  0
  1  2  1  0
  3  2  1  0
  3  4  1  6
  5  3  1  0
  6  5  2  0
  7  8  1  0
  8 10  1  0
  9  8  2  0
 10 11  1  0
 11 12  1  0
 12 13  1  0
 14 13  1  1
 14 16  1  0
 14 15  1  0
 15  5  1  0
 16 18  1  0
 17 16  2  0
 18 19  1  0
 20 21  1  0
 20 19  1  0
 22 20  2  0
M  END
$$$$
