SRG.pdb
     RDKit          3D

 22 21  0  0  1  0  0  0  0  0999 V2000
   14.7275  -17.3269   18.6202 O   0  0  0  0  0  0  0  0  0  0  0  0
   13.7069  -17.0898   17.6880 C   0  0  0  0  0  0  0  0  0  0  0  0
   13.4392  -15.6030   17.5454 C   0  0  2  0  0  0  0  0  0  0  0  0
   14.6641  -15.0071   17.0059 N   0  0  0  0  0  0  0  0  0  0  0  0
   13.1460  -15.0387   18.8674 C   0  0  0  0  0  0  0  0  0  0  0  0
   14.0133  -14.3157   19.4284 O   0  0  0  0  0  0  0  0  0  0  0  0
    7.6415  -14.9201   16.8091 N   0  0  0  0  0  0  0  0  0  0  0  0
    7.6508  -13.5641   17.2248 C   0  0  0  0  0  0  0  0  0  0  0  0
    7.8939  -12.6446   16.3636 N   0  0  0  0  0  0  0  0  0  0  0  0
    7.3966  -13.1851   18.5783 N   0  0  0  0  0  0  0  0  0  0  0  0
    8.0271  -13.7924   19.7027 C   0  0  0  0  0  0  0  0  0  0  0  0
    9.5352  -13.7629   19.6362 C   0  0  0  0  0  0  0  0  0  0  0  0
   10.0759  -14.5549   20.7989 C   0  0  0  0  0  0  0  0  0  0  0  0
   11.5602  -14.7257   20.8068 C   0  0  2  0  0  0  0  0  0  0  0  0
   11.9125  -15.3025   19.4978 N   0  0  0  0  0  0  0  0  0  0  0  0
   12.0610  -15.6628   21.8297 C   0  0  0  0  0  0  0  0  0  0  0  0
   11.3686  -16.6527   22.1631 O   0  0  0  0  0  0  0  0  0  0  0  0
    7.9970  -11.6703   16.6746 N   0  0  0  0  0  0  0  0  0  0  0  0
   13.3011  -15.4869   22.4539 C   0  0  0  0  0  0  0  0  0  0  0  0
   13.7827  -16.4218   23.4760 C   0  0  0  0  0  0  0  0  0  0  0  0
   15.1237  -15.9882   23.9016 O   0  0  0  0  0  0  0  0  0  0  0  0
   15.8041  -16.6205   24.9254 O   0  0  0  0  0  0  0  0  0  0  0  0
  1  2  1  0
  3  2  1  0
  3  4  1  1
  5  3  1  0
  6  5  2  0
  7  8  1  0
  8 10  1  0
  9  8  2  0
 10 11  1  0
 11 12  1  0
 12 13  1  0
 14 13  1  6
 14 16  1  0
 14 15  1  0
 15  5  1  0
 16 18  1  0
 17 16  2  0
 18 19  1  0
 20 21  1  0
 20 19  1  0
 22 20  2  0
M  END
$$$$
