SRG.pdb
     RDKit          3D

 22 21  0  0  1  0  0  0  0  0999 V2000
    5.2649  -22.9053   19.0428 O   0  0  0  0  0  0  0  0  0  0  0  0
    3.9544  -23.2671   19.3872 C   0  0  0  0  0  0  0  0  0  0  0  0
    3.1692  -22.0612   19.8688 C   0  0  2  0  0  0  0  0  0  0  0  0
    3.8825  -20.8767   19.3843 N   0  0  0  0  0  0  0  0  0  0  0  0
    3.1370  -22.0633   21.3355 C   0  0  0  0  0  0  0  0  0  0  0  0
    3.8778  -21.2592   21.9634 O   0  0  0  0  0  0  0  0  0  0  0  0
   -1.7607  -21.1927   27.0868 N   0  0  0  0  0  0  0  0  0  0  0  0
   -2.4235  -20.7176   25.9264 C   0  0  0  0  0  0  0  0  0  0  0  0
   -3.1058  -19.6329   25.9922 N   0  0  0  0  0  0  0  0  0  0  0  0
   -2.3562  -21.4099   24.6788 N   0  0  0  0  0  0  0  0  0  0  0  0
   -1.4618  -22.4882   24.4186 C   0  0  0  0  0  0  0  0  0  0  0  0
   -0.0363  -22.0465   24.1894 C   0  0  0  0  0  0  0  0  0  0  0  0
    0.7842  -23.2601   23.8354 C   0  0  0  0  0  0  0  0  0  0  0  0
    2.2124  -22.9768   23.4998 C   0  0  2  0  0  0  0  0  0  0  0  0
    2.2896  -22.9519   22.0288 N   0  0  0  0  0  0  0  0  0  0  0  0
    3.1624  -24.0092   23.9551 C   0  0  0  0  0  0  0  0  0  0  0  0
    3.2788  -25.0786   23.3122 O   0  0  0  0  0  0  0  0  0  0  0  0
   -3.5413  -19.2532   25.1421 N   0  0  0  0  0  0  0  0  0  0  0  0
    3.9528  -23.8386   25.0972 C   0  0  0  0  0  0  0  0  0  0  0  0
    4.9506  -24.8375   25.4934 C   0  0  0  0  0  0  0  0  0  0  0  0
    5.7866  -24.2569   26.5570 O   0  0  0  0  0  0  0  0  0  0  0  0
    6.7263  -25.0078   27.2382 O   0  0  0  0  0  0  0  0  0  0  0  0
  1  2  1  0
  3  2  1  0
  3  4  1  1
  5  3  1  0
  6  5  2  0
  7  8  1  0
  8 10  1  0
  9  8  2  0
 10 11  1  0
 11 12  1  0
 12 13  1  0
 14 13  1  6
 14 16  1  0
 14 15  1  0
 15  5  1  0
 16 18  1  0
 17 16  2  0
 18 19  1  0
 20 21  1  0
 20 19  1  0
 22 20  2  0
M  END
$$$$
