SRG.pdb
     RDKit          3D

 22 21  0  0  1  0  0  0  0  0999 V2000
    9.6848  -13.6058   18.2798 O   0  0  0  0  0  0  0  0  0  0  0  0
    9.3168  -13.5500   19.6319 C   0  0  0  0  0  0  0  0  0  0  0  0
    7.9278  -14.1250   19.8385 C   0  0  2  0  0  0  0  0  0  0  0  0
    6.9805  -13.1068   19.3776 N   0  0  0  0  0  0  0  0  0  0  0  0
    7.7251  -14.3899   21.2671 C   0  0  0  0  0  0  0  0  0  0  0  0
    7.2759  -13.4684   22.0010 O   0  0  0  0  0  0  0  0  0  0  0  0
    5.1466  -21.4954   25.2145 N   0  0  0  0  0  0  0  0  0  0  0  0
    6.2248  -21.1334   26.0616 C   0  0  0  0  0  0  0  0  0  0  0  0
    6.2188  -21.5181   27.2857 N   0  0  0  0  0  0  0  0  0  0  0  0
    7.3246  -20.3503   25.5952 N   0  0  0  0  0  0  0  0  0  0  0  0
    7.3130  -19.6169   24.3735 C   0  0  0  0  0  0  0  0  0  0  0  0
    7.5323  -18.1347   24.5587 C   0  0  0  0  0  0  0  0  0  0  0  0
    7.4180  -17.4673   23.2122 C   0  0  0  0  0  0  0  0  0  0  0  0
    7.7282  -16.0058   23.2069 C   0  0  2  0  0  0  0  0  0  0  0  0
    8.0286  -15.6565   21.8076 N   0  0  0  0  0  0  0  0  0  0  0  0
    8.9142  -15.6310   23.9996 C   0  0  0  0  0  0  0  0  0  0  0  0
    9.9980  -15.3804   23.4225 O   0  0  0  0  0  0  0  0  0  0  0  0
    7.0242  -21.3087   27.8891 N   0  0  0  0  0  0  0  0  0  0  0  0
    8.8762  -15.5428   25.3957 C   0  0  0  0  0  0  0  0  0  0  0  0
    9.2412  -14.3063   26.0944 C   0  0  0  0  0  0  0  0  0  0  0  0
    9.0795  -14.5294   27.5406 O   0  0  0  0  0  0  0  0  0  0  0  0
    8.5377  -15.6980   28.0424 O   0  0  0  0  0  0  0  0  0  0  0  0
  1  2  1  0
  3  2  1  0
  3  4  1  1
  5  3  1  0
  6  5  2  0
  7  8  1  0
  8 10  1  0
  9  8  2  0
 10 11  1  0
 11 12  1  0
 12 13  1  0
 14 13  1  6
 14 16  1  0
 14 15  1  0
 15  5  1  0
 16 18  1  0
 17 16  2  0
 18 19  1  0
 20 21  1  0
 20 19  1  0
 22 20  2  0
M  END
$$$$
