SRG.pdb
     RDKit          3D

 22 21  0  0  1  0  0  0  0  0999 V2000
    8.3830  -16.4655   16.5248 O   0  0  0  0  0  0  0  0  0  0  0  0
    7.2374  -15.6611   16.6101 C   0  0  0  0  0  0  0  0  0  0  0  0
    7.6114  -14.2117   16.8588 C   0  0  2  0  0  0  0  0  0  0  0  0
    8.4650  -13.8020   15.7407 N   0  0  0  0  0  0  0  0  0  0  0  0
    8.3552  -14.1170   18.1197 C   0  0  0  0  0  0  0  0  0  0  0  0
    9.6122  -14.0264   18.0815 O   0  0  0  0  0  0  0  0  0  0  0  0
    7.1021  -14.5156   26.6437 N   0  0  0  0  0  0  0  0  0  0  0  0
    6.5813  -13.2356   26.3247 C   0  0  0  0  0  0  0  0  0  0  0  0
    5.6618  -12.7296   27.0628 N   0  0  0  0  0  0  0  0  0  0  0  0
    7.0491  -12.4857   25.2027 N   0  0  0  0  0  0  0  0  0  0  0  0
    6.6799  -12.7636   23.8547 C   0  0  0  0  0  0  0  0  0  0  0  0
    7.8023  -13.3479   23.0311 C   0  0  0  0  0  0  0  0  0  0  0  0
    7.3367  -13.4500   21.6013 C   0  0  0  0  0  0  0  0  0  0  0  0
    8.3680  -13.9413   20.6382 C   0  0  2  0  0  0  0  0  0  0  0  0
    7.6719  -14.1272   19.3532 N   0  0  0  0  0  0  0  0  0  0  0  0
    8.9595  -15.2456   20.9906 C   0  0  0  0  0  0  0  0  0  0  0  0
    8.3126  -16.3000   20.7898 O   0  0  0  0  0  0  0  0  0  0  0  0
    5.3229  -11.7779   26.8732 N   0  0  0  0  0  0  0  0  0  0  0  0
   10.2374  -15.3541   21.5504 C   0  0  0  0  0  0  0  0  0  0  0  0
   10.7527  -16.6375   22.0382 C   0  0  0  0  0  0  0  0  0  0  0  0
   12.1738  -16.4632   22.3806 O   0  0  0  0  0  0  0  0  0  0  0  0
   12.9129  -17.4747   22.9651 O   0  0  0  0  0  0  0  0  0  0  0  0
  1  2  1  0
  3  2  1  0
  3  4  1  6
  5  3  1  0
  6  5  2  0
  7  8  1  0
  8 10  1  0
  9  8  2  0
 10 11  1  0
 11 12  1  0
 12 13  1  0
 14 13  1  1
 14 16  1  0
 14 15  1  0
 15  5  1  0
 16 18  1  0
 17 16  2  0
 18 19  1  0
 20 21  1  0
 20 19  1  0
 22 20  2  0
M  END
$$$$
