SRG.pdb
     RDKit          3D

 22 21  0  0  1  0  0  0  0  0999 V2000
   12.8106  -20.1942   18.9456 O   0  0  0  0  0  0  0  0  0  0  0  0
   11.4526  -19.8682   19.0748 C   0  0  0  0  0  0  0  0  0  0  0  0
   11.1603  -18.5138   18.4562 C   0  0  2  0  0  0  0  0  0  0  0  0
   12.1902  -18.2873   17.4390 N   0  0  0  0  0  0  0  0  0  0  0  0
   11.2454  -17.4823   19.4958 C   0  0  0  0  0  0  0  0  0  0  0  0
   12.3071  -16.8110   19.6041 O   0  0  0  0  0  0  0  0  0  0  0  0
    7.1059  -13.6138   17.0452 N   0  0  0  0  0  0  0  0  0  0  0  0
    7.7158  -12.9996   18.1687 C   0  0  0  0  0  0  0  0  0  0  0  0
    8.7618  -12.2762   17.9986 N   0  0  0  0  0  0  0  0  0  0  0  0
    7.2014  -13.1597   19.4916 N   0  0  0  0  0  0  0  0  0  0  0  0
    7.9183  -13.7906   20.5493 C   0  0  0  0  0  0  0  0  0  0  0  0
    7.9574  -15.2957   20.4364 C   0  0  0  0  0  0  0  0  0  0  0  0
    8.7206  -15.8392   21.6169 C   0  0  0  0  0  0  0  0  0  0  0  0
   10.1557  -16.1546   21.3461 C   0  0  2  0  0  0  0  0  0  0  0  0
   10.1549  -17.2478   20.3586 N   0  0  0  0  0  0  0  0  0  0  0  0
   10.9043  -16.6453   22.5185 C   0  0  0  0  0  0  0  0  0  0  0  0
   10.3434  -17.3997   23.3472 O   0  0  0  0  0  0  0  0  0  0  0  0
    9.2411  -11.8745   18.8144 N   0  0  0  0  0  0  0  0  0  0  0  0
   12.2398  -16.2950   22.7462 C   0  0  0  0  0  0  0  0  0  0  0  0
   12.9741  -16.7959   23.9125 C   0  0  0  0  0  0  0  0  0  0  0  0
   14.3653  -16.3234   23.8189 O   0  0  0  0  0  0  0  0  0  0  0  0
   15.2784  -16.5374   24.8344 O   0  0  0  0  0  0  0  0  0  0  0  0
  1  2  1  0
  3  2  1  0
  3  4  1  6
  5  3  1  0
  6  5  2  0
  7  8  1  0
  8 10  1  0
  9  8  2  0
 10 11  1  0
 11 12  1  0
 12 13  1  0
 14 13  1  1
 14 16  1  0
 14 15  1  0
 15  5  1  0
 16 18  1  0
 17 16  2  0
 18 19  1  0
 20 21  1  0
 20 19  1  0
 22 20  2  0
M  END
$$$$
