SRG.pdb
     RDKit          3D

 22 21  0  0  1  0  0  0  0  0999 V2000
   11.9582  -20.2509   16.8653 O   0  0  0  0  0  0  0  0  0  0  0  0
   12.1571  -19.4588   18.0054 C   0  0  0  0  0  0  0  0  0  0  0  0
   11.4898  -18.1053   17.8467 C   0  0  2  0  0  0  0  0  0  0  0  0
   12.1383  -17.4499   16.7081 N   0  0  0  0  0  0  0  0  0  0  0  0
   11.7021  -17.3188   19.0668 C   0  0  0  0  0  0  0  0  0  0  0  0
   12.7465  -16.6200   19.1685 O   0  0  0  0  0  0  0  0  0  0  0  0
    7.1542  -13.8040   18.6724 N   0  0  0  0  0  0  0  0  0  0  0  0
    8.0399  -13.0863   19.5161 C   0  0  0  0  0  0  0  0  0  0  0  0
    8.8600  -12.2469   18.9973 N   0  0  0  0  0  0  0  0  0  0  0  0
    8.0496  -13.2672   20.9329 N   0  0  0  0  0  0  0  0  0  0  0  0
    8.8912  -14.1989   21.6068 C   0  0  0  0  0  0  0  0  0  0  0  0
    8.5756  -15.6394   21.2829 C   0  0  0  0  0  0  0  0  0  0  0  0
    9.5766  -16.5144   21.9926 C   0  0  0  0  0  0  0  0  0  0  0  0
   10.9245  -16.5753   21.3507 C   0  0  2  0  0  0  0  0  0  0  0  0
   10.7509  -17.3463   20.1074 N   0  0  0  0  0  0  0  0  0  0  0  0
   11.9474  -17.2806   22.1456 C   0  0  0  0  0  0  0  0  0  0  0  0
   11.7584  -18.4695   22.4936 O   0  0  0  0  0  0  0  0  0  0  0  0
    9.5582  -11.7831   19.5923 N   0  0  0  0  0  0  0  0  0  0  0  0
   13.1418  -16.6632   22.5334 C   0  0  0  0  0  0  0  0  0  0  0  0
   14.1617  -17.3846   23.3015 C   0  0  0  0  0  0  0  0  0  0  0  0
   15.2962  -16.4744   23.5294 O   0  0  0  0  0  0  0  0  0  0  0  0
   16.3672  -16.8293   24.3282 O   0  0  0  0  0  0  0  0  0  0  0  0
  1  2  1  0
  3  2  1  0
  3  4  1  6
  5  3  1  0
  6  5  2  0
  7  8  1  0
  8 10  1  0
  9  8  2  0
 10 11  1  0
 11 12  1  0
 12 13  1  0
 14 13  1  1
 14 16  1  0
 14 15  1  0
 15  5  1  0
 16 18  1  0
 17 16  2  0
 18 19  1  0
 20 21  1  0
 20 19  1  0
 22 20  2  0
M  END
$$$$
