SRG.pdb
     RDKit          3D

 22 21  0  0  1  0  0  0  0  0999 V2000
   13.3222  -20.2670   19.9432 O   0  0  0  0  0  0  0  0  0  0  0  0
   11.9678  -20.2281   19.5816 C   0  0  0  0  0  0  0  0  0  0  0  0
   11.6018  -18.8750   19.0006 C   0  0  2  0  0  0  0  0  0  0  0  0
   12.5460  -18.6185   17.9101 N   0  0  0  0  0  0  0  0  0  0  0  0
   11.7453  -17.8506   20.0408 C   0  0  0  0  0  0  0  0  0  0  0  0
   12.7738  -17.1214   20.0416 O   0  0  0  0  0  0  0  0  0  0  0  0
    6.3277  -13.9631   19.5112 N   0  0  0  0  0  0  0  0  0  0  0  0
    7.3970  -13.0430   19.3646 C   0  0  0  0  0  0  0  0  0  0  0  0
    7.5102  -12.3801   18.2719 N   0  0  0  0  0  0  0  0  0  0  0  0
    8.3581  -12.8278   20.3992 N   0  0  0  0  0  0  0  0  0  0  0  0
    8.6459  -13.7764   21.4228 C   0  0  0  0  0  0  0  0  0  0  0  0
    9.1660  -15.0921   20.8956 C   0  0  0  0  0  0  0  0  0  0  0  0
    9.4658  -15.9875   22.0703 C   0  0  0  0  0  0  0  0  0  0  0  0
   10.8158  -16.6274   22.0442 C   0  0  2  0  0  0  0  0  0  0  0  0
   10.7466  -17.6867   21.0228 N   0  0  0  0  0  0  0  0  0  0  0  0
   11.2046  -17.2830   23.3069 C   0  0  0  0  0  0  0  0  0  0  0  0
   10.3255  -17.7754   24.0520 O   0  0  0  0  0  0  0  0  0  0  0  0
    8.3043  -11.7399   18.1449 N   0  0  0  0  0  0  0  0  0  0  0  0
   12.5404  -17.3785   23.7130 C   0  0  0  0  0  0  0  0  0  0  0  0
   13.4135  -16.2010   23.7545 C   0  0  0  0  0  0  0  0  0  0  0  0
   14.7579  -16.6386   24.1649 O   0  0  0  0  0  0  0  0  0  0  0  0
   15.0441  -17.9647   24.4304 O   0  0  0  0  0  0  0  0  0  0  0  0
  1  2  1  0
  3  2  1  0
  3  4  1  6
  5  3  1  0
  6  5  2  0
  7  8  1  0
  8 10  1  0
  9  8  2  0
 10 11  1  0
 11 12  1  0
 12 13  1  0
 14 13  1  1
 14 16  1  0
 14 15  1  0
 15  5  1  0
 16 18  1  0
 17 16  2  0
 18 19  1  0
 20 21  1  0
 20 19  1  0
 22 20  2  0
M  END
$$$$
