SRG.pdb
     RDKit          3D

 22 21  0  0  1  0  0  0  0  0999 V2000
    7.7599  -19.0203   28.5531 O   0  0  0  0  0  0  0  0  0  0  0  0
    8.2647  -18.7055   27.2831 C   0  0  0  0  0  0  0  0  0  0  0  0
    7.2551  -19.0412   26.2013 C   0  0  2  0  0  0  0  0  0  0  0  0
    7.1822  -20.5030   26.1359 N   0  0  0  0  0  0  0  0  0  0  0  0
    7.7267  -18.5038   24.9203 C   0  0  0  0  0  0  0  0  0  0  0  0
    8.2659  -19.2862   24.0916 O   0  0  0  0  0  0  0  0  0  0  0  0
    7.9535  -14.5843   18.8296 N   0  0  0  0  0  0  0  0  0  0  0  0
    8.0252  -13.2191   19.2069 C   0  0  0  0  0  0  0  0  0  0  0  0
    8.6695  -12.3948   18.4642 N   0  0  0  0  0  0  0  0  0  0  0  0
    7.3998  -12.7274   20.3933 N   0  0  0  0  0  0  0  0  0  0  0  0
    6.9674  -13.5614   21.4647 C   0  0  0  0  0  0  0  0  0  0  0  0
    8.0041  -14.5692   21.8996 C   0  0  0  0  0  0  0  0  0  0  0  0
    7.4187  -15.4005   23.0122 C   0  0  0  0  0  0  0  0  0  0  0  0
    8.3119  -16.4833   23.5243 C   0  0  2  0  0  0  0  0  0  0  0  0
    7.5777  -17.1333   24.6237 N   0  0  0  0  0  0  0  0  0  0  0  0
    9.5864  -16.0052   24.0922 C   0  0  0  0  0  0  0  0  0  0  0  0
    9.5889  -15.3593   25.1661 O   0  0  0  0  0  0  0  0  0  0  0  0
    8.7200  -11.4030   18.7292 N   0  0  0  0  0  0  0  0  0  0  0  0
   10.8149  -16.2488   23.4679 C   0  0  0  0  0  0  0  0  0  0  0  0
   12.0562  -15.6413   23.9584 C   0  0  0  0  0  0  0  0  0  0  0  0
   13.1571  -16.0694   23.0797 O   0  0  0  0  0  0  0  0  0  0  0  0
   14.4558  -15.6372   23.2738 O   0  0  0  0  0  0  0  0  0  0  0  0
  1  2  1  0
  3  2  1  0
  3  4  1  6
  5  3  1  0
  6  5  2  0
  7  8  1  0
  8 10  1  0
  9  8  2  0
 10 11  1  0
 11 12  1  0
 12 13  1  0
 14 13  1  1
 14 16  1  0
 14 15  1  0
 15  5  1  0
 16 18  1  0
 17 16  2  0
 18 19  1  0
 20 21  1  0
 20 19  1  0
 22 20  2  0
M  END
$$$$
