SRG.pdb
     RDKit          3D

 22 21  0  0  1  0  0  0  0  0999 V2000
    9.8270  -13.0336   18.7809 O   0  0  0  0  0  0  0  0  0  0  0  0
    9.2050  -13.1237   20.0347 C   0  0  0  0  0  0  0  0  0  0  0  0
    7.9608  -13.9890   19.9602 C   0  0  2  0  0  0  0  0  0  0  0  0
    6.9059  -13.1559   19.3774 N   0  0  0  0  0  0  0  0  0  0  0  0
    7.5822  -14.4039   21.3155 C   0  0  0  0  0  0  0  0  0  0  0  0
    6.9060  -13.6144   22.0290 O   0  0  0  0  0  0  0  0  0  0  0  0
    6.2332  -20.0525   26.9779 N   0  0  0  0  0  0  0  0  0  0  0  0
    6.2395  -20.9218   25.8574 C   0  0  0  0  0  0  0  0  0  0  0  0
    5.3184  -21.8079   25.7442 N   0  0  0  0  0  0  0  0  0  0  0  0
    7.2428  -20.8435   24.8437 N   0  0  0  0  0  0  0  0  0  0  0  0
    7.1818  -19.9488   23.7363 C   0  0  0  0  0  0  0  0  0  0  0  0
    7.2813  -18.4948   24.1306 C   0  0  0  0  0  0  0  0  0  0  0  0
    7.2557  -17.6611   22.8752 C   0  0  0  0  0  0  0  0  0  0  0  0
    7.4683  -16.1976   23.0884 C   0  0  2  0  0  0  0  0  0  0  0  0
    7.9701  -15.6666   21.8091 N   0  0  0  0  0  0  0  0  0  0  0  0
    8.4827  -15.8707   24.1082 C   0  0  0  0  0  0  0  0  0  0  0  0
    9.6963  -15.8460   23.7970 O   0  0  0  0  0  0  0  0  0  0  0  0
    5.3068  -22.4284   24.9249 N   0  0  0  0  0  0  0  0  0  0  0  0
    8.1369  -15.5821   25.4331 C   0  0  0  0  0  0  0  0  0  0  0  0
    9.1241  -15.0648   26.3862 C   0  0  0  0  0  0  0  0  0  0  0  0
    9.5738  -16.1807   27.2348 O   0  0  0  0  0  0  0  0  0  0  0  0
   10.3035  -15.9707   28.3899 O   0  0  0  0  0  0  0  0  0  0  0  0
  1  2  1  0
  3  2  1  0
  3  4  1  1
  5  3  1  0
  6  5  2  0
  7  8  1  0
  8 10  1  0
  9  8  2  0
 10 11  1  0
 11 12  1  0
 12 13  1  0
 14 13  1  6
 14 16  1  0
 14 15  1  0
 15  5  1  0
 16 18  1  0
 17 16  2  0
 18 19  1  0
 20 21  1  0
 20 19  1  0
 22 20  2  0
M  END
$$$$
