SRG.pdb
     RDKit          3D

 22 21  0  0  1  0  0  0  0  0999 V2000
    9.4718  -14.5436   17.9091 O   0  0  0  0  0  0  0  0  0  0  0  0
    8.1171  -14.8321   18.1287 C   0  0  0  0  0  0  0  0  0  0  0  0
    7.5035  -13.8405   19.0998 C   0  0  2  0  0  0  0  0  0  0  0  0
    7.8224  -12.5042   18.5907 N   0  0  0  0  0  0  0  0  0  0  0  0
    8.1049  -14.0302   20.4244 C   0  0  0  0  0  0  0  0  0  0  0  0
    9.0347  -13.2605   20.7885 O   0  0  0  0  0  0  0  0  0  0  0  0
    6.9426  -20.4830   25.8391 N   0  0  0  0  0  0  0  0  0  0  0  0
    7.4086  -19.4390   26.6783 C   0  0  0  0  0  0  0  0  0  0  0  0
    8.2538  -19.7078   27.6054 N   0  0  0  0  0  0  0  0  0  0  0  0
    6.9661  -18.0895   26.5250 N   0  0  0  0  0  0  0  0  0  0  0  0
    6.6031  -17.5122   25.2738 C   0  0  0  0  0  0  0  0  0  0  0  0
    7.6369  -16.5561   24.7291 C   0  0  0  0  0  0  0  0  0  0  0  0
    7.2506  -16.1949   23.3178 C   0  0  0  0  0  0  0  0  0  0  0  0
    8.1847  -15.2513   22.6326 C   0  0  2  0  0  0  0  0  0  0  0  0
    7.6476  -15.0582   21.2745 N   0  0  0  0  0  0  0  0  0  0  0  0
    9.5596  -15.7613   22.4744 C   0  0  0  0  0  0  0  0  0  0  0  0
    9.7673  -16.8024   21.8084 O   0  0  0  0  0  0  0  0  0  0  0  0
    8.5691  -18.9621   28.2387 N   0  0  0  0  0  0  0  0  0  0  0  0
   10.6610  -15.1172   23.0491 C   0  0  0  0  0  0  0  0  0  0  0  0
   11.7785  -15.8755   23.6207 C   0  0  0  0  0  0  0  0  0  0  0  0
   12.7753  -16.0966   22.5601 O   0  0  0  0  0  0  0  0  0  0  0  0
   13.9772  -16.7325   22.8097 O   0  0  0  0  0  0  0  0  0  0  0  0
  1  2  1  0
  3  2  1  0
  3  4  1  6
  5  3  1  0
  6  5  2  0
  7  8  1  0
  8 10  1  0
  9  8  2  0
 10 11  1  0
 11 12  1  0
 12 13  1  0
 14 13  1  1
 14 16  1  0
 14 15  1  0
 15  5  1  0
 16 18  1  0
 17 16  2  0
 18 19  1  0
 20 21  1  0
 20 19  1  0
 22 20  2  0
M  END
$$$$
