SRG.pdb
     RDKit          3D

 22 21  0  0  1  0  0  0  0  0999 V2000
   12.4870  -19.0450   21.9445 O   0  0  0  0  0  0  0  0  0  0  0  0
   11.5394  -19.2725   20.9360 C   0  0  0  0  0  0  0  0  0  0  0  0
   11.5404  -18.1389   19.9272 C   0  0  2  0  0  0  0  0  0  0  0  0
   12.8615  -18.1438   19.2936 N   0  0  0  0  0  0  0  0  0  0  0  0
   11.3252  -16.8696   20.6305 C   0  0  0  0  0  0  0  0  0  0  0  0
   12.2559  -16.0195   20.6541 O   0  0  0  0  0  0  0  0  0  0  0  0
    9.0341  -14.1319   16.6369 N   0  0  0  0  0  0  0  0  0  0  0  0
    7.7964  -13.5902   17.0682 C   0  0  0  0  0  0  0  0  0  0  0  0
    6.7283  -13.8628   16.4116 N   0  0  0  0  0  0  0  0  0  0  0  0
    7.6980  -12.7462   18.2164 N   0  0  0  0  0  0  0  0  0  0  0  0
    7.7023  -13.2291   19.5571 C   0  0  0  0  0  0  0  0  0  0  0  0
    8.6604  -14.3742   19.7816 C   0  0  0  0  0  0  0  0  0  0  0  0
    8.5110  -14.8440   21.2059 C   0  0  0  0  0  0  0  0  0  0  0  0
    9.7791  -15.2939   21.8554 C   0  0  2  0  0  0  0  0  0  0  0  0
   10.0954  -16.6077   21.2688 N   0  0  0  0  0  0  0  0  0  0  0  0
    9.6798  -15.4952   23.3132 C   0  0  0  0  0  0  0  0  0  0  0  0
    8.9324  -14.7571   23.9966 O   0  0  0  0  0  0  0  0  0  0  0  0
    5.8283  -13.4728   16.7190 N   0  0  0  0  0  0  0  0  0  0  0  0
   10.4003  -16.4957   23.9751 C   0  0  0  0  0  0  0  0  0  0  0  0
   10.2495  -16.7211   25.4163 C   0  0  0  0  0  0  0  0  0  0  0  0
   11.2022  -17.7680   25.8210 O   0  0  0  0  0  0  0  0  0  0  0  0
   11.2562  -18.2435   27.1179 O   0  0  0  0  0  0  0  0  0  0  0  0
  1  2  1  0
  3  2  1  0
  3  4  1  1
  5  3  1  0
  6  5  2  0
  7  8  1  0
  8 10  1  0
  9  8  2  0
 10 11  1  0
 11 12  1  0
 12 13  1  0
 14 13  1  6
 14 16  1  0
 14 15  1  0
 15  5  1  0
 16 18  1  0
 17 16  2  0
 18 19  1  0
 20 21  1  0
 20 19  1  0
 22 20  2  0
M  END
$$$$
