NSH.pdb
     RDKit          3D

 25 25  0  0  1  0  0  0  0  0999 V2000
   15.6129  -12.5233  -18.6340 N   0  0  0  0  0  0  0  0  0  0  0  0
   16.8180  -11.7870  -18.4987 C   0  0  0  0  0  0  0  0  0  0  0  0
   17.5894  -11.6595  -19.4798 O   0  0  0  0  0  0  0  0  0  0  0  0
   17.1307  -11.1831  -17.1779 C   0  0  0  0  0  0  0  0  0  0  0  0
   18.5204  -11.5999  -16.8330 C   0  0  2  0  0  0  0  0  0  0  0  0
   18.5221  -12.9920  -16.3575 N   0  0  0  0  0  0  0  0  0  0  0  0
   19.2692  -10.7202  -15.9441 C   0  0  0  0  0  0  0  0  0  0  0  0
   18.7859  -10.5499  -14.7665 O   0  0  0  0  0  0  0  0  0  0  0  0
   23.1285   -9.5354  -16.7670 O   0  0  0  0  0  0  0  0  0  0  0  0
   22.6652   -9.5503  -15.4430 C   0  0  0  0  0  0  0  0  0  0  0  0
   21.1605   -9.2040  -15.4333 C   0  0  2  0  0  0  0  0  0  0  0  0
   20.4639  -10.0834  -16.3384 N   0  0  0  0  0  0  0  0  0  0  0  0
   21.0783   -7.7779  -15.7898 C   0  0  0  0  0  0  0  0  0  0  0  0
   20.8533   -7.4677  -16.9855 O   0  0  0  0  0  0  0  0  0  0  0  0
   21.2475   -6.7579  -14.8218 N   0  0  0  0  0  0  0  0  0  0  0  0
   21.3030   -5.3351  -15.1322 C   0  0  1  0  0  0  0  0  0  0  0  0
   19.9928   -4.7357  -14.6992 C   0  0  0  0  0  0  0  0  0  0  0  0
   19.9116   -3.2784  -14.9362 C   0  0  0  0  0  0  0  0  0  0  0  0
   20.1176   -2.3038  -13.9789 C   0  0  0  0  0  0  0  0  0  0  0  0
   19.9574   -1.1247  -14.6024 N   0  0  0  0  0  0  0  0  0  0  0  0
   19.6641   -1.3263  -15.8915 C   0  0  0  0  0  0  0  0  0  0  0  0
   19.6317   -2.6474  -16.1149 N   0  0  0  0  0  0  0  0  0  0  0  0
   22.3839   -4.6808  -14.3387 C   0  0  0  0  0  0  0  0  0  0  0  0
   23.0214   -3.5302  -14.7618 O   0  0  0  0  0  0  0  0  0  0  0  0
   22.7078   -5.2172  -13.2487 O   0  0  0  0  0  0  0  0  0  0  0  0
  1  2  1  0
  2  4  1  0
  3  2  2  0
  5  4  1  0
  5  7  1  0
  5  6  1  1
  7  8  2  0
 10  9  1  0
 11 10  1  6
 11 13  1  0
 12 11  1  0
 12  7  1  0
 13 15  1  0
 14 13  2  0
 15 16  1  0
 16 23  1  0
 16 17  1  1
 18 17  1  0
 19 18  2  0
 20 19  1  0
 21 20  1  0
 21 22  2  0
 22 18  1  0
 23 25  2  0
 23 24  1  0
M  END
$$$$
