NSH.pdb
     RDKit          3D

 25 25  0  0  1  0  0  0  0  0999 V2000
   18.5189  -12.8978  -16.9087 N   0  0  0  0  0  0  0  0  0  0  0  0
   17.4691  -12.1372  -17.4852 C   0  0  0  0  0  0  0  0  0  0  0  0
   16.7956  -12.6125  -18.4309 O   0  0  0  0  0  0  0  0  0  0  0  0
   17.1997  -10.7815  -16.9408 C   0  0  0  0  0  0  0  0  0  0  0  0
   18.4488  -10.3365  -16.2584 C   0  0  2  0  0  0  0  0  0  0  0  0
   18.7760  -11.2599  -15.1610 N   0  0  0  0  0  0  0  0  0  0  0  0
   18.5051   -8.9435  -15.8328 C   0  0  0  0  0  0  0  0  0  0  0  0
   17.5323   -8.1917  -16.2039 O   0  0  0  0  0  0  0  0  0  0  0  0
   21.2705   -7.7499  -13.1190 O   0  0  0  0  0  0  0  0  0  0  0  0
   20.1602   -6.9030  -13.2536 C   0  0  0  0  0  0  0  0  0  0  0  0
   19.5956   -7.0386  -14.6843 C   0  0  2  0  0  0  0  0  0  0  0  0
   19.5625   -8.4317  -15.0528 N   0  0  0  0  0  0  0  0  0  0  0  0
   20.4627   -6.2067  -15.5348 C   0  0  0  0  0  0  0  0  0  0  0  0
   21.4537   -6.7414  -16.0903 O   0  0  0  0  0  0  0  0  0  0  0  0
   20.2062   -4.8284  -15.7366 N   0  0  0  0  0  0  0  0  0  0  0  0
   20.9698   -3.9766  -16.6392 C   0  0  1  0  0  0  0  0  0  0  0  0
   19.9805   -3.1280  -17.3906 C   0  0  0  0  0  0  0  0  0  0  0  0
   19.3097   -3.8516  -18.4920 C   0  0  0  0  0  0  0  0  0  0  0  0
   19.5910   -5.1471  -18.8807 C   0  0  0  0  0  0  0  0  0  0  0  0
   18.7626   -5.4214  -19.9020 N   0  0  0  0  0  0  0  0  0  0  0  0
   17.9887   -4.3615  -20.1592 C   0  0  0  0  0  0  0  0  0  0  0  0
   18.3121   -3.3850  -19.3001 N   0  0  0  0  0  0  0  0  0  0  0  0
   21.8488   -3.0601  -15.8559 C   0  0  0  0  0  0  0  0  0  0  0  0
   23.1174   -2.7100  -16.2768 O   0  0  0  0  0  0  0  0  0  0  0  0
   21.3938   -2.6041  -14.7761 O   0  0  0  0  0  0  0  0  0  0  0  0
  1  2  1  0
  2  4  1  0
  3  2  2  0
  5  4  1  0
  5  7  1  0
  5  6  1  1
  7  8  2  0
 10  9  1  0
 11 10  1  1
 11 13  1  0
 12 11  1  0
 12  7  1  0
 13 15  1  0
 14 13  2  0
 15 16  1  0
 16 23  1  0
 16 17  1  1
 18 17  1  0
 19 18  2  0
 20 19  1  0
 21 20  1  0
 21 22  2  0
 22 18  1  0
 23 25  2  0
 23 24  1  0
M  END
$$$$
