NSH.pdb
     RDKit          3D

 25 25  0  0  1  0  0  0  0  0999 V2000
   22.1679   -4.3623  -13.0504 N   0  0  0  0  0  0  0  0  0  0  0  0
   22.1716   -5.6368  -13.6738 C   0  0  0  0  0  0  0  0  0  0  0  0
   23.2570   -6.2297  -13.8841 O   0  0  0  0  0  0  0  0  0  0  0  0
   20.8687   -6.2347  -14.0633 C   0  0  0  0  0  0  0  0  0  0  0  0
   20.9534   -6.5369  -15.5212 C   0  0  2  0  0  0  0  0  0  0  0  0
   20.9991   -5.2838  -16.2905 N   0  0  0  0  0  0  0  0  0  0  0  0
   19.9697   -7.4693  -16.0577 C   0  0  0  0  0  0  0  0  0  0  0  0
   18.7593   -7.0463  -16.1294 O   0  0  0  0  0  0  0  0  0  0  0  0
   20.8503  -11.4238  -16.4418 O   0  0  0  0  0  0  0  0  0  0  0  0
   19.9683  -10.9829  -17.4397 C   0  0  0  0  0  0  0  0  0  0  0  0
   19.2999   -9.6708  -16.9751 C   0  0  2  0  0  0  0  0  0  0  0  0
   20.3113   -8.7699  -16.4822 N   0  0  0  0  0  0  0  0  0  0  0  0
   18.2997  -10.0679  -15.9704 C   0  0  0  0  0  0  0  0  0  0  0  0
   18.5810   -9.9330  -14.7542 O   0  0  0  0  0  0  0  0  0  0  0  0
   17.0392  -10.5956  -16.3431 N   0  0  0  0  0  0  0  0  0  0  0  0
   15.9888  -10.9526  -15.3983 C   0  0  1  0  0  0  0  0  0  0  0  0
   14.7489  -10.2076  -15.8119 C   0  0  0  0  0  0  0  0  0  0  0  0
   13.5922  -10.4638  -14.9270 C   0  0  0  0  0  0  0  0  0  0  0  0
   13.6430  -11.1520  -13.7301 C   0  0  0  0  0  0  0  0  0  0  0  0
   12.3904  -11.1548  -13.2448 N   0  0  0  0  0  0  0  0  0  0  0  0
   11.5751  -10.5043  -14.0818 C   0  0  0  0  0  0  0  0  0  0  0  0
   12.2986  -10.0719  -15.1239 N   0  0  0  0  0  0  0  0  0  0  0  0
   15.6919  -12.4118  -15.4915 C   0  0  0  0  0  0  0  0  0  0  0  0
   16.2299  -13.2165  -16.4776 O   0  0  0  0  0  0  0  0  0  0  0  0
   14.9199  -12.9019  -14.6285 O   0  0  0  0  0  0  0  0  0  0  0  0
  1  2  1  0
  2  4  1  0
  3  2  2  0
  5  4  1  0
  5  7  1  0
  5  6  1  6
  7  8  2  0
 10  9  1  0
 11 10  1  1
 11 13  1  0
 12 11  1  0
 12  7  1  0
 13 15  1  0
 14 13  2  0
 15 16  1  0
 16 23  1  0
 16 17  1  6
 18 17  1  0
 19 18  2  0
 20 19  1  0
 21 20  1  0
 21 22  2  0
 22 18  1  0
 23 25  2  0
 23 24  1  0
M  END
$$$$
