NSH.pdb
     RDKit          3D

 25 25  0  0  1  0  0  0  0  0999 V2000
   15.1664  -12.1217  -10.0004 N   0  0  0  0  0  0  0  0  0  0  0  0
   15.8969  -12.1915  -11.2145 C   0  0  0  0  0  0  0  0  0  0  0  0
   16.3178  -13.2974  -11.6313 O   0  0  0  0  0  0  0  0  0  0  0  0
   16.1432  -10.9318  -11.9625 C   0  0  0  0  0  0  0  0  0  0  0  0
   15.5497   -9.8286  -11.1533 C   0  0  2  0  0  0  0  0  0  0  0  0
   14.0886   -9.9866  -11.0867 N   0  0  0  0  0  0  0  0  0  0  0  0
   15.9344   -8.4693  -11.5125 C   0  0  0  0  0  0  0  0  0  0  0  0
   15.4427   -8.0046  -12.6040 O   0  0  0  0  0  0  0  0  0  0  0  0
   17.3912   -5.9030   -8.7764 O   0  0  0  0  0  0  0  0  0  0  0  0
   16.8830   -5.3727   -9.9716 C   0  0  0  0  0  0  0  0  0  0  0  0
   17.1735   -6.3599  -11.1227 C   0  0  2  0  0  0  0  0  0  0  0  0
   16.7977   -7.6904  -10.7149 N   0  0  0  0  0  0  0  0  0  0  0  0
   18.6043   -6.2015  -11.4312 C   0  0  0  0  0  0  0  0  0  0  0  0
   19.4481   -6.7184  -10.6582 O   0  0  0  0  0  0  0  0  0  0  0  0
   19.0452   -5.4838  -12.5698 N   0  0  0  0  0  0  0  0  0  0  0  0
   20.4439   -5.2141  -12.8773 C   0  0  1  0  0  0  0  0  0  0  0  0
   20.7980   -6.0356  -14.0868 C   0  0  0  0  0  0  0  0  0  0  0  0
   20.7555   -7.4922  -13.8353 C   0  0  0  0  0  0  0  0  0  0  0  0
   19.7564   -8.3449  -14.2636 C   0  0  0  0  0  0  0  0  0  0  0  0
   20.0995   -9.5709  -13.8350 N   0  0  0  0  0  0  0  0  0  0  0  0
   21.2564   -9.5137  -13.1666 C   0  0  0  0  0  0  0  0  0  0  0  0
   21.6750   -8.2405  -13.1568 N   0  0  0  0  0  0  0  0  0  0  0  0
   20.6198   -3.7774  -13.2390 C   0  0  0  0  0  0  0  0  0  0  0  0
   21.8600   -3.2226  -13.4906 O   0  0  0  0  0  0  0  0  0  0  0  0
   19.5847   -3.0672  -13.3102 O   0  0  0  0  0  0  0  0  0  0  0  0
  1  2  1  0
  2  4  1  0
  3  2  2  0
  5  4  1  0
  5  7  1  0
  5  6  1  6
  7  8  2  0
 10  9  1  0
 11 10  1  1
 11 13  1  0
 12 11  1  0
 12  7  1  0
 13 15  1  0
 14 13  2  0
 15 16  1  0
 16 23  1  0
 16 17  1  6
 18 17  1  0
 19 18  2  0
 20 19  1  0
 21 20  1  0
 21 22  2  0
 22 18  1  0
 23 25  2  0
 23 24  1  0
M  END
$$$$
