NSH.pdb
     RDKit          3D

 25 25  0  0  1  0  0  0  0  0999 V2000
   21.8387  -16.3445  -18.0827 N   0  0  0  0  0  0  0  0  0  0  0  0
   21.4422  -16.3650  -16.7207 C   0  0  0  0  0  0  0  0  0  0  0  0
   20.8366  -17.3615  -16.2580 O   0  0  0  0  0  0  0  0  0  0  0  0
   21.7622  -15.1859  -15.8755 C   0  0  0  0  0  0  0  0  0  0  0  0
   22.3866  -14.1711  -16.7724 C   0  0  2  0  0  0  0  0  0  0  0  0
   23.5999  -14.7280  -17.3903 N   0  0  0  0  0  0  0  0  0  0  0  0
   22.6220  -12.8489  -16.2058 C   0  0  0  0  0  0  0  0  0  0  0  0
   21.6750  -12.3544  -15.4932 O   0  0  0  0  0  0  0  0  0  0  0  0
   25.6538   -9.1148  -15.4913 O   0  0  0  0  0  0  0  0  0  0  0  0
   25.4529  -10.3541  -16.1171 C   0  0  0  0  0  0  0  0  0  0  0  0
   24.0134  -10.8338  -15.8311 C   0  0  2  0  0  0  0  0  0  0  0  0
   23.8207  -12.1368  -16.4166 N   0  0  0  0  0  0  0  0  0  0  0  0
   23.1304   -9.7884  -16.3741 C   0  0  0  0  0  0  0  0  0  0  0  0
   23.0363   -9.6666  -17.6203 O   0  0  0  0  0  0  0  0  0  0  0  0
   22.3928   -8.9240  -15.5286 N   0  0  0  0  0  0  0  0  0  0  0  0
   21.5715   -7.8179  -16.0035 C   0  0  1  0  0  0  0  0  0  0  0  0
   20.1566   -8.1023  -15.5785 C   0  0  0  0  0  0  0  0  0  0  0  0
   19.4750   -9.0887  -16.4440 C   0  0  0  0  0  0  0  0  0  0  0  0
   20.0196   -9.6656  -17.5751 C   0  0  0  0  0  0  0  0  0  0  0  0
   19.0845  -10.5000  -18.0588 N   0  0  0  0  0  0  0  0  0  0  0  0
   17.9957  -10.4643  -17.2831 C   0  0  0  0  0  0  0  0  0  0  0  0
   18.2186   -9.5999  -16.2833 N   0  0  0  0  0  0  0  0  0  0  0  0
   21.9948   -6.5476  -15.3451 C   0  0  0  0  0  0  0  0  0  0  0  0
   21.4212   -5.3279  -15.6493 O   0  0  0  0  0  0  0  0  0  0  0  0
   22.9099   -6.6178  -14.4857 O   0  0  0  0  0  0  0  0  0  0  0  0
  1  2  1  0
  2  4  1  0
  3  2  2  0
  5  4  1  0
  5  7  1  0
  5  6  1  1
  7  8  2  0
 10  9  1  0
 11 10  1  6
 11 13  1  0
 12 11  1  0
 12  7  1  0
 13 15  1  0
 14 13  2  0
 15 16  1  0
 16 23  1  0
 16 17  1  1
 18 17  1  0
 19 18  2  0
 20 19  1  0
 21 20  1  0
 21 22  2  0
 22 18  1  0
 23 25  2  0
 23 24  1  0
M  END
$$$$
