NSH.pdb
     RDKit          3D

 25 25  0  0  1  0  0  0  0  0999 V2000
   19.4645  -11.7684  -19.5842 N   0  0  0  0  0  0  0  0  0  0  0  0
   18.2664  -11.0723  -19.2798 C   0  0  0  0  0  0  0  0  0  0  0  0
   17.4707  -10.7606  -20.1982 O   0  0  0  0  0  0  0  0  0  0  0  0
   17.9912  -10.7299  -17.8607 C   0  0  0  0  0  0  0  0  0  0  0  0
   19.1074  -11.3045  -17.0558 C   0  0  2  0  0  0  0  0  0  0  0  0
   18.7092  -12.6105  -16.5082 N   0  0  0  0  0  0  0  0  0  0  0  0
   19.6946  -10.4432  -16.0369 C   0  0  0  0  0  0  0  0  0  0  0  0
   18.8795   -9.9038  -15.2039 O   0  0  0  0  0  0  0  0  0  0  0  0
   23.7687   -9.8442  -15.8733 O   0  0  0  0  0  0  0  0  0  0  0  0
   23.0828   -9.7084  -14.6571 C   0  0  0  0  0  0  0  0  0  0  0  0
   21.6165   -9.3220  -14.9477 C   0  0  2  0  0  0  0  0  0  0  0  0
   21.0820  -10.2052  -15.9537 N   0  0  0  0  0  0  0  0  0  0  0  0
   21.6493   -7.9037  -15.3414 C   0  0  0  0  0  0  0  0  0  0  0  0
   21.8271   -7.6181  -16.5511 O   0  0  0  0  0  0  0  0  0  0  0  0
   21.4878   -6.8642  -14.3931 N   0  0  0  0  0  0  0  0  0  0  0  0
   21.5606   -5.4444  -14.7135 C   0  0  1  0  0  0  0  0  0  0  0  0
   20.1547   -4.9101  -14.6799 C   0  0  0  0  0  0  0  0  0  0  0  0
   19.3364   -5.3489  -15.8307 C   0  0  0  0  0  0  0  0  0  0  0  0
   19.6169   -5.0777  -17.1561 C   0  0  0  0  0  0  0  0  0  0  0  0
   18.6389   -5.6556  -17.8731 N   0  0  0  0  0  0  0  0  0  0  0  0
   17.7741   -6.2665  -17.0562 C   0  0  0  0  0  0  0  0  0  0  0  0
   18.1881   -6.0878  -15.7941 N   0  0  0  0  0  0  0  0  0  0  0  0
   22.3434   -4.7239  -13.6675 C   0  0  0  0  0  0  0  0  0  0  0  0
   22.6229   -3.3732  -13.7494 O   0  0  0  0  0  0  0  0  0  0  0  0
   22.7526   -5.3945  -12.6858 O   0  0  0  0  0  0  0  0  0  0  0  0
  1  2  1  0
  2  4  1  0
  3  2  2  0
  5  4  1  0
  5  7  1  0
  5  6  1  1
  7  8  2  0
 10  9  1  0
 11 10  1  6
 11 13  1  0
 12 11  1  0
 12  7  1  0
 13 15  1  0
 14 13  2  0
 15 16  1  0
 16 23  1  0
 16 17  1  1
 18 17  1  0
 19 18  2  0
 20 19  1  0
 21 20  1  0
 21 22  2  0
 22 18  1  0
 23 25  2  0
 23 24  1  0
M  END
$$$$
