NSH.pdb
     RDKit          3D

 25 25  0  0  1  0  0  0  0  0999 V2000
   31.2636  -22.5475  -11.1679 N   0  0  0  0  0  0  0  0  0  0  0  0
   31.2737  -21.1621  -10.8622 C   0  0  0  0  0  0  0  0  0  0  0  0
   32.0449  -20.7201   -9.9769 O   0  0  0  0  0  0  0  0  0  0  0  0
   30.3550  -20.2679  -11.6127 C   0  0  0  0  0  0  0  0  0  0  0  0
   29.6049  -21.1294  -12.5715 C   0  0  2  0  0  0  0  0  0  0  0  0
   30.5442  -21.7927  -13.4890 N   0  0  0  0  0  0  0  0  0  0  0  0
   28.4950  -20.5085  -13.2838 C   0  0  0  0  0  0  0  0  0  0  0  0
   28.0685  -19.3908  -12.8168 O   0  0  0  0  0  0  0  0  0  0  0  0
   26.8026  -22.2686  -16.6556 O   0  0  0  0  0  0  0  0  0  0  0  0
   26.7166  -20.8732  -16.5401 C   0  0  0  0  0  0  0  0  0  0  0  0
   26.7529  -20.4897  -15.0449 C   0  0  2  0  0  0  0  0  0  0  0  0
   27.9097  -21.0888  -14.4279 N   0  0  0  0  0  0  0  0  0  0  0  0
   25.4667  -20.9398  -14.4874 C   0  0  0  0  0  0  0  0  0  0  0  0
   25.3710  -22.1201  -14.0700 O   0  0  0  0  0  0  0  0  0  0  0  0
   24.3450  -20.0781  -14.4140 N   0  0  0  0  0  0  0  0  0  0  0  0
   23.0542  -20.4594  -13.8556 C   0  0  1  0  0  0  0  0  0  0  0  0
   22.8930  -19.7107  -12.5607 C   0  0  0  0  0  0  0  0  0  0  0  0
   23.7245  -20.2543  -11.4654 C   0  0  0  0  0  0  0  0  0  0  0  0
   24.5518  -21.3562  -11.5660 C   0  0  0  0  0  0  0  0  0  0  0  0
   25.1244  -21.5076  -10.3603 N   0  0  0  0  0  0  0  0  0  0  0  0
   24.6911  -20.5560   -9.5265 C   0  0  0  0  0  0  0  0  0  0  0  0
   23.8278  -19.7749  -10.1905 N   0  0  0  0  0  0  0  0  0  0  0  0
   21.9551  -20.0276  -14.7676 C   0  0  0  0  0  0  0  0  0  0  0  0
   20.6944  -20.5916  -14.7283 O   0  0  0  0  0  0  0  0  0  0  0  0
   22.2128  -19.1151  -15.5933 O   0  0  0  0  0  0  0  0  0  0  0  0
  1  2  1  0
  2  4  1  0
  3  2  2  0
  5  4  1  0
  5  7  1  0
  5  6  1  6
  7  8  2  0
 10  9  1  0
 11 10  1  6
 11 13  1  0
 12 11  1  0
 12  7  1  0
 13 15  1  0
 14 13  2  0
 15 16  1  0
 16 23  1  0
 16 17  1  1
 18 17  1  0
 19 18  2  0
 20 19  1  0
 21 20  1  0
 21 22  2  0
 22 18  1  0
 23 25  2  0
 23 24  1  0
M  END
$$$$
