NSH.pdb
     RDKit          3D

 25 25  0  0  1  0  0  0  0  0999 V2000
   19.5155  -18.6448  -18.3324 N   0  0  0  0  0  0  0  0  0  0  0  0
   19.7158  -20.0493  -18.3387 C   0  0  0  0  0  0  0  0  0  0  0  0
   18.7830  -20.8150  -18.6813 O   0  0  0  0  0  0  0  0  0  0  0  0
   21.0449  -20.5736  -17.9320 C   0  0  0  0  0  0  0  0  0  0  0  0
   21.8729  -19.3941  -17.5480 C   0  0  2  0  0  0  0  0  0  0  0  0
   21.7406  -18.3377  -18.5631 N   0  0  0  0  0  0  0  0  0  0  0  0
   23.2670  -19.6518  -17.2090 C   0  0  0  0  0  0  0  0  0  0  0  0
   23.5310  -20.8048  -16.7088 O   0  0  0  0  0  0  0  0  0  0  0  0
   27.9015  -18.2139  -17.2178 O   0  0  0  0  0  0  0  0  0  0  0  0
   26.5867  -17.9265  -17.6136 C   0  0  0  0  0  0  0  0  0  0  0  0
   25.6321  -18.9547  -16.9690 C   0  0  2  0  0  0  0  0  0  0  0  0
   24.2853  -18.6983  -17.4144 N   0  0  0  0  0  0  0  0  0  0  0  0
   25.8259  -18.8211  -15.5157 C   0  0  0  0  0  0  0  0  0  0  0  0
   25.2302  -17.8960  -14.9109 O   0  0  0  0  0  0  0  0  0  0  0  0
   26.6637  -19.7047  -14.7922 N   0  0  0  0  0  0  0  0  0  0  0  0
   26.6840  -19.8086  -13.3388 C   0  0  1  0  0  0  0  0  0  0  0  0
   25.3582  -20.3810  -12.9170 C   0  0  0  0  0  0  0  0  0  0  0  0
   25.2452  -20.5748  -11.4554 C   0  0  0  0  0  0  0  0  0  0  0  0
   26.2502  -20.3284  -10.5399 C   0  0  0  0  0  0  0  0  0  0  0  0
   25.7401  -20.6246   -9.3331 N   0  0  0  0  0  0  0  0  0  0  0  0
   24.4752  -21.0394   -9.4614 C   0  0  0  0  0  0  0  0  0  0  0  0
   24.1537  -21.0151  -10.7623 N   0  0  0  0  0  0  0  0  0  0  0  0
   27.7463  -20.7643  -12.9096 C   0  0  0  0  0  0  0  0  0  0  0  0
   28.1567  -20.8753  -11.5948 O   0  0  0  0  0  0  0  0  0  0  0  0
   28.2715  -21.4833  -13.7973 O   0  0  0  0  0  0  0  0  0  0  0  0
  1  2  1  0
  2  4  1  0
  3  2  2  0
  5  4  1  0
  5  7  1  0
  5  6  1  6
  7  8  2  0
 10  9  1  0
 11 10  1  6
 11 13  1  0
 12 11  1  0
 12  7  1  0
 13 15  1  0
 14 13  2  0
 15 16  1  0
 16 23  1  0
 16 17  1  6
 18 17  1  0
 19 18  2  0
 20 19  1  0
 21 20  1  0
 21 22  2  0
 22 18  1  0
 23 25  2  0
 23 24  1  0
M  END
$$$$
