NSH.pdb
     RDKit          3D

 25 25  0  0  1  0  0  0  0  0999 V2000
   17.5641  -12.9160  -18.2007 N   0  0  0  0  0  0  0  0  0  0  0  0
   17.2574  -11.5909  -18.6041 C   0  0  0  0  0  0  0  0  0  0  0  0
   16.7407  -11.3803  -19.7277 O   0  0  0  0  0  0  0  0  0  0  0  0
   17.5645  -10.4799  -17.6670 C   0  0  0  0  0  0  0  0  0  0  0  0
   18.1803  -11.0964  -16.4567 C   0  0  2  0  0  0  0  0  0  0  0  0
   17.1553  -11.8156  -15.6846 N   0  0  0  0  0  0  0  0  0  0  0  0
   18.9857  -10.2236  -15.6116 C   0  0  0  0  0  0  0  0  0  0  0  0
   18.3724   -9.6310  -14.6515 O   0  0  0  0  0  0  0  0  0  0  0  0
   23.0541  -10.0862  -16.0264 O   0  0  0  0  0  0  0  0  0  0  0  0
   22.5428   -9.6819  -14.7842 C   0  0  0  0  0  0  0  0  0  0  0  0
   21.1164   -9.1260  -14.9851 C   0  0  2  0  0  0  0  0  0  0  0  0
   20.3666  -10.0298  -15.8210 N   0  0  0  0  0  0  0  0  0  0  0  0
   21.2907   -7.7787  -15.5524 C   0  0  0  0  0  0  0  0  0  0  0  0
   21.3857   -7.6574  -16.7986 O   0  0  0  0  0  0  0  0  0  0  0  0
   21.3545   -6.6273  -14.7300 N   0  0  0  0  0  0  0  0  0  0  0  0
   21.5756   -5.2759  -15.2284 C   0  0  1  0  0  0  0  0  0  0  0  0
   20.2387   -4.5862  -15.2466 C   0  0  0  0  0  0  0  0  0  0  0  0
   19.3334   -5.0969  -16.2985 C   0  0  0  0  0  0  0  0  0  0  0  0
   19.5409   -4.9680  -17.6583 C   0  0  0  0  0  0  0  0  0  0  0  0
   18.4980   -5.5677  -18.2560 N   0  0  0  0  0  0  0  0  0  0  0  0
   17.6627   -6.0572  -17.3334 C   0  0  0  0  0  0  0  0  0  0  0  0
   18.1616   -5.7762  -16.1217 N   0  0  0  0  0  0  0  0  0  0  0  0
   22.4597   -4.5238  -14.2910 C   0  0  0  0  0  0  0  0  0  0  0  0
   22.8865   -3.2348  -14.5475 O   0  0  0  0  0  0  0  0  0  0  0  0
   22.8154   -5.1080  -13.2360 O   0  0  0  0  0  0  0  0  0  0  0  0
  1  2  1  0
  2  4  1  0
  3  2  2  0
  5  4  1  0
  5  7  1  0
  5  6  1  1
  7  8  2  0
 10  9  1  0
 11 10  1  6
 11 13  1  0
 12 11  1  0
 12  7  1  0
 13 15  1  0
 14 13  2  0
 15 16  1  0
 16 23  1  0
 16 17  1  1
 18 17  1  0
 19 18  2  0
 20 19  1  0
 21 20  1  0
 21 22  2  0
 22 18  1  0
 23 25  2  0
 23 24  1  0
M  END
$$$$
