NSH.pdb
     RDKit          3D

 25 25  0  0  1  0  0  0  0  0999 V2000
   25.1136  -21.5117   -9.5356 N   0  0  0  0  0  0  0  0  0  0  0  0
   26.0427  -20.5169   -9.1355 C   0  0  0  0  0  0  0  0  0  0  0  0
   26.2009  -20.2589   -7.9180 O   0  0  0  0  0  0  0  0  0  0  0  0
   26.8082  -19.8027  -10.1894 C   0  0  0  0  0  0  0  0  0  0  0  0
   26.3758  -20.3748  -11.4969 C   0  0  2  0  0  0  0  0  0  0  0  0
   27.2571  -21.4919  -11.8706 N   0  0  0  0  0  0  0  0  0  0  0  0
   26.1909  -19.4360  -12.5966 C   0  0  0  0  0  0  0  0  0  0  0  0
   25.3072  -18.5202  -12.4251 O   0  0  0  0  0  0  0  0  0  0  0  0
   27.7293  -17.6462  -16.8263 O   0  0  0  0  0  0  0  0  0  0  0  0
   27.8619  -18.6758  -15.8827 C   0  0  0  0  0  0  0  0  0  0  0  0
   26.7117  -18.5694  -14.8582 C   0  0  2  0  0  0  0  0  0  0  0  0
   26.9355  -19.5128  -13.7916 N   0  0  0  0  0  0  0  0  0  0  0  0
   25.4750  -18.8006  -15.6228 C   0  0  0  0  0  0  0  0  0  0  0  0
   25.1622  -19.9797  -15.9204 O   0  0  0  0  0  0  0  0  0  0  0  0
   24.6392  -17.7312  -16.0275 N   0  0  0  0  0  0  0  0  0  0  0  0
   23.4114  -17.8962  -16.7950 C   0  0  1  0  0  0  0  0  0  0  0  0
   22.3805  -16.9879  -16.1823 C   0  0  0  0  0  0  0  0  0  0  0  0
   21.0653  -17.0616  -16.8543 C   0  0  0  0  0  0  0  0  0  0  0  0
   20.7327  -17.9521  -17.8568 C   0  0  0  0  0  0  0  0  0  0  0  0
   19.4560  -17.6912  -18.1829 N   0  0  0  0  0  0  0  0  0  0  0  0
   18.9892  -16.6874  -17.4326 C   0  0  0  0  0  0  0  0  0  0  0  0
   19.9674  -16.2871  -16.6084 N   0  0  0  0  0  0  0  0  0  0  0  0
   23.6255  -17.4525  -18.2033 C   0  0  0  0  0  0  0  0  0  0  0  0
   23.1171  -18.1461  -19.2847 O   0  0  0  0  0  0  0  0  0  0  0  0
   24.2976  -16.4054  -18.3847 O   0  0  0  0  0  0  0  0  0  0  0  0
  1  2  1  0
  2  4  1  0
  3  2  2  0
  5  4  1  0
  5  7  1  0
  5  6  1  6
  7  8  2  0
 10  9  1  0
 11 10  1  6
 11 13  1  0
 12 11  1  0
 12  7  1  0
 13 15  1  0
 14 13  2  0
 15 16  1  0
 16 23  1  0
 16 17  1  1
 18 17  1  0
 19 18  2  0
 20 19  1  0
 21 20  1  0
 21 22  2  0
 22 18  1  0
 23 25  2  0
 23 24  1  0
M  END
$$$$
