SIV.pdb
     RDKit          3D

 22 21  0  0  1  0  0  0  0  0999 V2000
    5.2809  -20.1304   25.2380 O   0  0  0  0  0  0  0  0  0  0  0  0
    6.0515  -19.3333   24.3945 C   0  0  0  0  0  0  0  0  0  0  0  0
    5.3130  -18.0513   24.0732 C   0  0  2  0  0  0  0  0  0  0  0  0
    4.5393  -18.2490   22.8795 N   0  0  0  0  0  0  0  0  0  0  0  0
    6.2270  -16.8983   23.9575 C   0  0  0  0  0  0  0  0  0  0  0  0
    6.7732  -16.6634   22.8439 O   0  0  0  0  0  0  0  0  0  0  0  0
    5.8045  -12.3816   26.9361 C   0  0  0  0  0  0  0  0  0  0  0  0
    6.1873  -13.2954   25.7954 C   0  0  0  0  0  0  0  0  0  0  0  0
    7.4145  -14.1259   26.1418 C   0  0  2  0  0  0  0  0  0  0  0  0
    8.6145  -13.2711   26.3534 C   0  0  0  0  0  0  0  0  0  0  0  0
    7.6264  -15.0778   24.9695 C   0  0  2  0  0  0  0  0  0  0  0  0
    6.5044  -16.0605   25.0438 N   0  0  0  0  0  0  0  0  0  0  0  0
    8.8968  -15.7955   25.1754 C   0  0  0  0  0  0  0  0  0  0  0  0
    8.9606  -16.6055   26.1636 O   0  0  0  0  0  0  0  0  0  0  0  0
   13.1387  -17.4980   23.2981 C   0  0  0  0  0  0  0  0  0  0  0  0
   11.9443  -16.6054   23.1743 C   0  0  1  0  0  0  0  0  0  0  0  0
   11.0836  -16.9074   21.9876 C   0  0  0  0  0  0  0  0  0  0  0  0
   11.0813  -16.6640   24.4406 C   0  0  2  0  0  0  0  0  0  0  0  0
   10.0322  -15.6594   24.3672 N   0  0  0  0  0  0  0  0  0  0  0  0
   11.8814  -16.4329   25.6409 C   0  0  0  0  0  0  0  0  0  0  0  0
   12.4717  -17.4738   26.3761 O   0  0  0  0  0  0  0  0  0  0  0  0
   12.0792  -15.2830   26.0734 O   0  0  0  0  0  0  0  0  0  0  0  0
  1  2  1  0
  3  2  1  0
  3  4  1  6
  5  3  1  0
  6  5  2  0
  7  8  1  0
  8  9  1  0
  9 11  1  0
  9 10  1  6
 11 12  1  1
 12  5  1  0
 13 11  1  0
 13 19  1  0
 14 13  2  0
 16 15  1  1
 17 16  1  0
 18 20  1  0
 18 16  1  0
 18 19  1  6
 20 22  2  0
 20 21  1  0
M  END
$$$$
