SIV.pdb
     RDKit          3D

 22 21  0  0  1  0  0  0  0  0999 V2000
    5.0734  -16.8402   20.6553 O   0  0  0  0  0  0  0  0  0  0  0  0
    6.2914  -16.6116   21.2914 C   0  0  0  0  0  0  0  0  0  0  0  0
    6.6184  -15.1335   21.2722 C   0  0  2  0  0  0  0  0  0  0  0  0
    7.1483  -14.7928   19.9815 N   0  0  0  0  0  0  0  0  0  0  0  0
    7.5335  -14.7531   22.3658 C   0  0  0  0  0  0  0  0  0  0  0  0
    8.7725  -14.6947   22.1307 O   0  0  0  0  0  0  0  0  0  0  0  0
    5.8339  -11.4554   26.2553 C   0  0  0  0  0  0  0  0  0  0  0  0
    6.7371  -12.1778   25.2831 C   0  0  0  0  0  0  0  0  0  0  0  0
    7.2134  -13.5053   25.8546 C   0  0  2  0  0  0  0  0  0  0  0  0
    8.0319  -13.3127   27.0828 C   0  0  0  0  0  0  0  0  0  0  0  0
    8.0340  -14.1700   24.7546 C   0  0  2  0  0  0  0  0  0  0  0  0
    7.0684  -14.4561   23.6520 N   0  0  0  0  0  0  0  0  0  0  0  0
    8.5548  -15.4487   25.2694 C   0  0  0  0  0  0  0  0  0  0  0  0
    7.7004  -16.3493   25.5787 O   0  0  0  0  0  0  0  0  0  0  0  0
   12.1681  -18.7522   25.2005 C   0  0  0  0  0  0  0  0  0  0  0  0
   11.6153  -17.4043   24.8598 C   0  0  1  0  0  0  0  0  0  0  0  0
   11.3656  -17.2047   23.3976 C   0  0  0  0  0  0  0  0  0  0  0  0
   10.3149  -17.1343   25.6264 C   0  0  2  0  0  0  0  0  0  0  0  0
    9.9120  -15.7495   25.4381 N   0  0  0  0  0  0  0  0  0  0  0  0
   10.4753  -17.3954   27.0549 C   0  0  0  0  0  0  0  0  0  0  0  0
   10.9482  -16.4298   27.9583 O   0  0  0  0  0  0  0  0  0  0  0  0
   10.1950  -18.5048   27.5437 O   0  0  0  0  0  0  0  0  0  0  0  0
  1  2  1  0
  3  2  1  0
  3  4  1  6
  5  3  1  0
  6  5  2  0
  7  8  1  0
  8  9  1  0
  9 11  1  0
  9 10  1  1
 11 12  1  6
 12  5  1  0
 13 11  1  0
 13 19  1  0
 14 13  2  0
 16 15  1  6
 17 16  1  0
 18 20  1  0
 18 16  1  0
 18 19  1  1
 20 22  2  0
 20 21  1  0
M  END
$$$$
