SIV.pdb
     RDKit          3D

 22 21  0  0  1  0  0  0  0  0999 V2000
    8.5451  -19.8583   18.5333 O   0  0  0  0  0  0  0  0  0  0  0  0
    7.6991  -18.9794   17.8607 C   0  0  0  0  0  0  0  0  0  0  0  0
    8.4767  -17.7701   17.3866 C   0  0  2  0  0  0  0  0  0  0  0  0
    9.4501  -18.1948   16.4198 N   0  0  0  0  0  0  0  0  0  0  0  0
    9.0924  -17.0320   18.5066 C   0  0  0  0  0  0  0  0  0  0  0  0
   10.3431  -17.0983   18.6654 O   0  0  0  0  0  0  0  0  0  0  0  0
    6.7386  -12.4554   20.2446 C   0  0  0  0  0  0  0  0  0  0  0  0
    7.8299  -13.4468   19.9143 C   0  0  0  0  0  0  0  0  0  0  0  0
    7.9549  -14.5103   20.9955 C   0  0  2  0  0  0  0  0  0  0  0  0
    8.3670  -13.9224   22.2993 C   0  0  0  0  0  0  0  0  0  0  0  0
    8.9979  -15.5033   20.4943 C   0  0  2  0  0  0  0  0  0  0  0  0
    8.3317  -16.2630   19.3947 N   0  0  0  0  0  0  0  0  0  0  0  0
    9.3156  -16.4378   21.5884 C   0  0  0  0  0  0  0  0  0  0  0  0
    8.3883  -17.2321   21.9706 O   0  0  0  0  0  0  0  0  0  0  0  0
   12.4616  -18.9795   24.3587 C   0  0  0  0  0  0  0  0  0  0  0  0
   12.1885  -18.0527   23.2163 C   0  0  1  0  0  0  0  0  0  0  0  0
   12.4285  -18.6634   21.8711 C   0  0  0  0  0  0  0  0  0  0  0  0
   10.7506  -17.5227   23.2709 C   0  0  2  0  0  0  0  0  0  0  0  0
   10.5558  -16.5225   22.2330 N   0  0  0  0  0  0  0  0  0  0  0  0
   10.4521  -16.9268   24.5710 C   0  0  0  0  0  0  0  0  0  0  0  0
   10.7397  -15.5874   24.8801 O   0  0  0  0  0  0  0  0  0  0  0  0
    9.9203  -17.5911   25.4788 O   0  0  0  0  0  0  0  0  0  0  0  0
  1  2  1  0
  3  2  1  0
  3  4  1  6
  5  3  1  0
  6  5  2  0
  7  8  1  0
  8  9  1  0
  9 11  1  0
  9 10  1  1
 11 12  1  6
 12  5  1  0
 13 11  1  0
 13 19  1  0
 14 13  2  0
 16 15  1  1
 17 16  1  0
 18 20  1  0
 18 16  1  0
 18 19  1  6
 20 22  2  0
 20 21  1  0
M  END
$$$$
