SIV.pdb
     RDKit          3D

 22 21  0  0  1  0  0  0  0  0999 V2000
    5.6312  -17.0901   20.3485 O   0  0  0  0  0  0  0  0  0  0  0  0
    6.5820  -16.8057   21.3261 C   0  0  0  0  0  0  0  0  0  0  0  0
    6.8993  -15.3253   21.3272 C   0  0  2  0  0  0  0  0  0  0  0  0
    7.4697  -14.9727   20.0573 N   0  0  0  0  0  0  0  0  0  0  0  0
    7.7747  -14.9461   22.4533 C   0  0  0  0  0  0  0  0  0  0  0  0
    9.0230  -14.9088   22.2686 O   0  0  0  0  0  0  0  0  0  0  0  0
    5.9541  -11.6153   26.1655 C   0  0  0  0  0  0  0  0  0  0  0  0
    6.8849  -12.3862   25.2588 C   0  0  0  0  0  0  0  0  0  0  0  0
    7.3586  -13.6727   25.9195 C   0  0  2  0  0  0  0  0  0  0  0  0
    8.1713  -13.3985   27.1360 C   0  0  0  0  0  0  0  0  0  0  0  0
    8.1843  -14.4087   24.8699 C   0  0  2  0  0  0  0  0  0  0  0  0
    7.2620  -14.6277   23.7161 N   0  0  0  0  0  0  0  0  0  0  0  0
    8.5738  -15.7197   25.4183 C   0  0  0  0  0  0  0  0  0  0  0  0
    7.6333  -16.5097   25.7764 O   0  0  0  0  0  0  0  0  0  0  0  0
   10.8919  -18.2443   23.7162 C   0  0  0  0  0  0  0  0  0  0  0  0
   11.2796  -18.1338   25.1571 C   0  0  1  0  0  0  0  0  0  0  0  0
   12.5213  -17.3312   25.3898 C   0  0  0  0  0  0  0  0  0  0  0  0
   10.1387  -17.5344   25.9882 C   0  0  2  0  0  0  0  0  0  0  0  0
    9.8933  -16.1633   25.5695 N   0  0  0  0  0  0  0  0  0  0  0  0
   10.4546  -17.5494   27.4145 C   0  0  0  0  0  0  0  0  0  0  0  0
   10.7598  -16.3865   28.1402 O   0  0  0  0  0  0  0  0  0  0  0  0
   10.4676  -18.6121   28.0617 O   0  0  0  0  0  0  0  0  0  0  0  0
  1  2  1  0
  3  2  1  0
  3  4  1  6
  5  3  1  0
  6  5  2  0
  7  8  1  0
  8  9  1  0
  9 11  1  0
  9 10  1  1
 11 12  1  6
 12  5  1  0
 13 11  1  0
 13 19  1  0
 14 13  2  0
 16 15  1  6
 17 16  1  0
 18 20  1  0
 18 16  1  0
 18 19  1  6
 20 22  2  0
 20 21  1  0
M  END
$$$$
