SIV.pdb
     RDKit          3D

 22 21  0  0  1  0  0  0  0  0999 V2000
    7.2263  -17.1061   21.0943 O   0  0  0  0  0  0  0  0  0  0  0  0
    6.1702  -16.1992   21.1451 C   0  0  0  0  0  0  0  0  0  0  0  0
    6.7017  -14.7817   21.1380 C   0  0  2  0  0  0  0  0  0  0  0  0
    7.3368  -14.5312   19.8744 N   0  0  0  0  0  0  0  0  0  0  0  0
    7.6064  -14.5223   22.2748 C   0  0  0  0  0  0  0  0  0  0  0  0
    8.8491  -14.4576   22.0618 O   0  0  0  0  0  0  0  0  0  0  0  0
    5.7915  -11.4948   26.2001 C   0  0  0  0  0  0  0  0  0  0  0  0
    6.7421  -12.1743   25.2421 C   0  0  0  0  0  0  0  0  0  0  0  0
    7.2625  -13.4835   25.8172 C   0  0  2  0  0  0  0  0  0  0  0  0
    8.0974  -13.2582   27.0287 C   0  0  0  0  0  0  0  0  0  0  0  0
    8.0804  -14.1375   24.7088 C   0  0  2  0  0  0  0  0  0  0  0  0
    7.1275  -14.3466   23.5781 N   0  0  0  0  0  0  0  0  0  0  0  0
    8.5434  -15.4529   25.1850 C   0  0  0  0  0  0  0  0  0  0  0  0
    7.6506  -16.3325   25.4416 O   0  0  0  0  0  0  0  0  0  0  0  0
   11.9527  -18.9516   25.5557 C   0  0  0  0  0  0  0  0  0  0  0  0
   11.5101  -17.6092   25.0653 C   0  0  1  0  0  0  0  0  0  0  0  0
   11.3187  -17.5396   23.5825 C   0  0  0  0  0  0  0  0  0  0  0  0
   10.2110  -17.1739   25.7540 C   0  0  2  0  0  0  0  0  0  0  0  0
    9.8848  -15.8094   25.3705 N   0  0  0  0  0  0  0  0  0  0  0  0
   10.3297  -17.2463   27.2084 C   0  0  0  0  0  0  0  0  0  0  0  0
   10.0430  -18.4103   27.9399 O   0  0  0  0  0  0  0  0  0  0  0  0
   10.6966  -16.2624   27.8759 O   0  0  0  0  0  0  0  0  0  0  0  0
  1  2  1  0
  3  2  1  0
  3  4  1  6
  5  3  1  0
  6  5  2  0
  7  8  1  0
  8  9  1  0
  9 11  1  0
  9 10  1  1
 11 12  1  6
 12  5  1  0
 13 11  1  0
 13 19  1  0
 14 13  2  0
 16 15  1  6
 17 16  1  0
 18 20  1  0
 18 16  1  0
 18 19  1  1
 20 22  2  0
 20 21  1  0
M  END
$$$$
