SIV.pdb
     RDKit          3D

 22 21  0  0  1  0  0  0  0  0999 V2000
    5.4492  -16.9531   20.2422 O   0  0  0  0  0  0  0  0  0  0  0  0
    6.1933  -16.5681   21.3552 C   0  0  0  0  0  0  0  0  0  0  0  0
    6.5374  -15.0965   21.2664 C   0  0  2  0  0  0  0  0  0  0  0  0
    7.0529  -14.8193   19.9550 N   0  0  0  0  0  0  0  0  0  0  0  0
    7.4724  -14.6799   22.3297 C   0  0  0  0  0  0  0  0  0  0  0  0
    8.6941  -14.5374   22.0450 O   0  0  0  0  0  0  0  0  0  0  0  0
    5.8198  -11.5627   26.3749 C   0  0  0  0  0  0  0  0  0  0  0  0
    6.7115  -12.2285   25.3529 C   0  0  0  0  0  0  0  0  0  0  0  0
    7.2436  -13.5581   25.8676 C   0  0  2  0  0  0  0  0  0  0  0  0
    8.1012  -13.3779   27.0707 C   0  0  0  0  0  0  0  0  0  0  0  0
    8.0405  -14.1683   24.7197 C   0  0  2  0  0  0  0  0  0  0  0  0
    7.0447  -14.4392   23.6404 N   0  0  0  0  0  0  0  0  0  0  0  0
    8.6047  -15.4514   25.1742 C   0  0  0  0  0  0  0  0  0  0  0  0
    7.7817  -16.3497   25.5649 O   0  0  0  0  0  0  0  0  0  0  0  0
   12.2059  -18.7844   24.9972 C   0  0  0  0  0  0  0  0  0  0  0  0
   11.6919  -17.4146   24.6842 C   0  0  1  0  0  0  0  0  0  0  0  0
   11.4735  -17.1693   23.2240 C   0  0  0  0  0  0  0  0  0  0  0  0
   10.3848  -17.1337   25.4353 C   0  0  2  0  0  0  0  0  0  0  0  0
    9.9705  -15.7589   25.2035 N   0  0  0  0  0  0  0  0  0  0  0  0
   10.5392  -17.3507   26.8717 C   0  0  0  0  0  0  0  0  0  0  0  0
   10.2691  -18.5823   27.4903 O   0  0  0  0  0  0  0  0  0  0  0  0
   10.9238  -16.4379   27.6248 O   0  0  0  0  0  0  0  0  0  0  0  0
  1  2  1  0
  3  2  1  0
  3  4  1  6
  5  3  1  0
  6  5  2  0
  7  8  1  0
  8  9  1  0
  9 11  1  0
  9 10  1  1
 11 12  1  6
 12  5  1  0
 13 11  1  0
 13 19  1  0
 14 13  2  0
 16 15  1  6
 17 16  1  0
 18 20  1  0
 18 16  1  0
 18 19  1  1
 20 22  2  0
 20 21  1  0
M  END
$$$$
