SIV.pdb
     RDKit          3D

 22 21  0  0  1  0  0  0  0  0999 V2000
    6.5140  -17.1771   21.7569 O   0  0  0  0  0  0  0  0  0  0  0  0
    7.0693  -16.6533   20.5917 C   0  0  0  0  0  0  0  0  0  0  0  0
    7.2552  -15.1574   20.7315 C   0  0  2  0  0  0  0  0  0  0  0  0
    7.8606  -14.6514   19.5315 N   0  0  0  0  0  0  0  0  0  0  0  0
    8.0317  -14.8047   21.9361 C   0  0  0  0  0  0  0  0  0  0  0  0
    9.2925  -14.8047   21.8696 O   0  0  0  0  0  0  0  0  0  0  0  0
    7.4413  -11.9046   27.3221 C   0  0  0  0  0  0  0  0  0  0  0  0
    8.1947  -12.8462   26.4118 C   0  0  0  0  0  0  0  0  0  0  0  0
    7.3403  -13.2684   25.2254 C   0  0  2  0  0  0  0  0  0  0  0  0
    6.1333  -14.0238   25.6589 C   0  0  0  0  0  0  0  0  0  0  0  0
    8.2353  -14.1343   24.3456 C   0  0  2  0  0  0  0  0  0  0  0  0
    7.4123  -14.4714   23.1460 N   0  0  0  0  0  0  0  0  0  0  0  0
    8.5409  -15.3787   25.0731 C   0  0  0  0  0  0  0  0  0  0  0  0
    7.5953  -16.2305   25.2035 O   0  0  0  0  0  0  0  0  0  0  0  0
   11.7529  -18.8677   26.1224 C   0  0  0  0  0  0  0  0  0  0  0  0
   11.3633  -17.5621   25.5043 C   0  0  1  0  0  0  0  0  0  0  0  0
   11.2544  -17.6076   24.0122 C   0  0  0  0  0  0  0  0  0  0  0  0
   10.0369  -17.0547   26.0830 C   0  0  2  0  0  0  0  0  0  0  0  0
    9.7881  -15.6970   25.6245 N   0  0  0  0  0  0  0  0  0  0  0  0
   10.0530  -17.0705   27.5438 C   0  0  0  0  0  0  0  0  0  0  0  0
    9.7319  -18.2110   28.2977 O   0  0  0  0  0  0  0  0  0  0  0  0
   10.3574  -16.0562   28.1971 O   0  0  0  0  0  0  0  0  0  0  0  0
  1  2  1  0
  3  2  1  0
  3  4  1  6
  5  3  1  0
  6  5  2  0
  7  8  1  0
  8  9  1  0
  9 11  1  0
  9 10  1  1
 11 12  1  6
 12  5  1  0
 13 11  1  0
 13 19  1  0
 14 13  2  0
 16 15  1  1
 17 16  1  0
 18 20  1  0
 18 16  1  0
 18 19  1  1
 20 22  2  0
 20 21  1  0
M  END
$$$$
