SIV.pdb
     RDKit          3D

 22 21  0  0  1  0  0  0  0  0999 V2000
    6.6706  -18.0537   22.2182 O   0  0  0  0  0  0  0  0  0  0  0  0
    5.6524  -17.1069   22.1329 C   0  0  0  0  0  0  0  0  0  0  0  0
    6.2344  -15.7446   21.8211 C   0  0  2  0  0  0  0  0  0  0  0  0
    6.7032  -15.7405   20.4636 N   0  0  0  0  0  0  0  0  0  0  0  0
    7.2935  -15.3618   22.7751 C   0  0  0  0  0  0  0  0  0  0  0  0
    8.4986  -15.4212   22.4033 O   0  0  0  0  0  0  0  0  0  0  0  0
    6.0164  -11.6811   26.3518 C   0  0  0  0  0  0  0  0  0  0  0  0
    6.8404  -12.5143   25.3981 C   0  0  0  0  0  0  0  0  0  0  0  0
    7.4457  -13.7206   26.1010 C   0  0  2  0  0  0  0  0  0  0  0  0
    8.4419  -13.3145   27.1296 C   0  0  0  0  0  0  0  0  0  0  0  0
    8.1029  -14.5603   25.0109 C   0  0  2  0  0  0  0  0  0  0  0  0
    7.0010  -14.9362   24.0758 N   0  0  0  0  0  0  0  0  0  0  0  0
    8.6385  -15.7872   25.6266 C   0  0  0  0  0  0  0  0  0  0  0  0
    7.8105  -16.5484   26.2362 O   0  0  0  0  0  0  0  0  0  0  0  0
   12.1226  -19.2504   26.0267 C   0  0  0  0  0  0  0  0  0  0  0  0
   11.6636  -17.9490   25.4486 C   0  0  1  0  0  0  0  0  0  0  0  0
   11.4802  -17.9778   23.9634 C   0  0  0  0  0  0  0  0  0  0  0  0
   10.3541  -17.4897   26.1011 C   0  0  2  0  0  0  0  0  0  0  0  0
    9.9818  -16.1808   25.5876 N   0  0  0  0  0  0  0  0  0  0  0  0
   10.4817  -17.4143   27.5545 C   0  0  0  0  0  0  0  0  0  0  0  0
   10.1713  -18.4887   28.4041 O   0  0  0  0  0  0  0  0  0  0  0  0
   10.8781  -16.3764   28.1148 O   0  0  0  0  0  0  0  0  0  0  0  0
  1  2  1  0
  3  2  1  0
  3  4  1  6
  5  3  1  0
  6  5  2  0
  7  8  1  0
  8  9  1  0
  9 11  1  0
  9 10  1  1
 11 12  1  6
 12  5  1  0
 13 11  1  0
 13 19  1  0
 14 13  2  0
 16 15  1  1
 17 16  1  0
 18 20  1  0
 18 16  1  0
 18 19  1  6
 20 22  2  0
 20 21  1  0
M  END
$$$$
