SIV.pdb
     RDKit          3D

 22 21  0  0  1  0  0  0  0  0999 V2000
    5.8747  -16.8325   20.0715 O   0  0  0  0  0  0  0  0  0  0  0  0
    6.5729  -16.5125   21.2337 C   0  0  0  0  0  0  0  0  0  0  0  0
    6.8525  -15.0253   21.2791 C   0  0  2  0  0  0  0  0  0  0  0  0
    7.4211  -14.6221   20.0235 N   0  0  0  0  0  0  0  0  0  0  0  0
    7.7115  -14.6567   22.4212 C   0  0  0  0  0  0  0  0  0  0  0  0
    8.9630  -14.6271   22.2575 O   0  0  0  0  0  0  0  0  0  0  0  0
    5.8365  -11.4114   26.2662 C   0  0  0  0  0  0  0  0  0  0  0  0
    6.8090  -12.1155   25.3489 C   0  0  0  0  0  0  0  0  0  0  0  0
    7.2224  -13.4661   25.9152 C   0  0  2  0  0  0  0  0  0  0  0  0
    7.9783  -13.3197   27.1890 C   0  0  0  0  0  0  0  0  0  0  0  0
    8.0846  -14.1278   24.8457 C   0  0  2  0  0  0  0  0  0  0  0  0
    7.1800  -14.3399   23.6766 N   0  0  0  0  0  0  0  0  0  0  0  0
    8.5233  -15.4419   25.3475 C   0  0  0  0  0  0  0  0  0  0  0  0
    7.6174  -16.3160   25.5759 O   0  0  0  0  0  0  0  0  0  0  0  0
   11.8740  -18.9821   25.5226 C   0  0  0  0  0  0  0  0  0  0  0  0
   11.4399  -17.6062   25.1264 C   0  0  1  0  0  0  0  0  0  0  0  0
   11.2003  -17.4468   23.6576 C   0  0  0  0  0  0  0  0  0  0  0  0
   10.1728  -17.1908   25.8836 C   0  0  2  0  0  0  0  0  0  0  0  0
    9.8550  -15.8031   25.5859 N   0  0  0  0  0  0  0  0  0  0  0  0
   10.3410  -17.3437   27.3267 C   0  0  0  0  0  0  0  0  0  0  0  0
   10.0544  -18.5393   28.0055 O   0  0  0  0  0  0  0  0  0  0  0  0
   10.7532  -16.4048   28.0317 O   0  0  0  0  0  0  0  0  0  0  0  0
  1  2  1  0
  3  2  1  0
  3  4  1  6
  5  3  1  0
  6  5  2  0
  7  8  1  0
  8  9  1  0
  9 11  1  0
  9 10  1  1
 11 12  1  6
 12  5  1  0
 13 11  1  0
 13 19  1  0
 14 13  2  0
 16 15  1  6
 17 16  1  0
 18 20  1  0
 18 16  1  0
 18 19  1  1
 20 22  2  0
 20 21  1  0
M  END
$$$$
