SIV.pdb
     RDKit          3D

 22 21  0  0  1  0  0  0  0  0999 V2000
    7.2631  -17.3137   21.5212 O   0  0  0  0  0  0  0  0  0  0  0  0
    6.3808  -16.2439   21.3883 C   0  0  0  0  0  0  0  0  0  0  0  0
    7.1415  -14.9354   21.4237 C   0  0  2  0  0  0  0  0  0  0  0  0
    7.9085  -14.8124   20.2158 N   0  0  0  0  0  0  0  0  0  0  0  0
    7.9830  -14.8151   22.6302 C   0  0  0  0  0  0  0  0  0  0  0  0
    9.2324  -14.9570   22.5180 O   0  0  0  0  0  0  0  0  0  0  0  0
    5.9800  -11.6857   26.4060 C   0  0  0  0  0  0  0  0  0  0  0  0
    6.9599  -12.3926   25.4987 C   0  0  0  0  0  0  0  0  0  0  0  0
    7.4681  -13.6797   26.1317 C   0  0  2  0  0  0  0  0  0  0  0  0
    8.2575  -13.4113   27.3647 C   0  0  0  0  0  0  0  0  0  0  0  0
    8.3295  -14.3607   25.0736 C   0  0  2  0  0  0  0  0  0  0  0  0
    7.4371  -14.5489   23.8911 N   0  0  0  0  0  0  0  0  0  0  0  0
    8.7286  -15.6859   25.5794 C   0  0  0  0  0  0  0  0  0  0  0  0
    7.7987  -16.5391   25.7895 O   0  0  0  0  0  0  0  0  0  0  0  0
   11.2210  -18.0243   23.9598 C   0  0  0  0  0  0  0  0  0  0  0  0
   11.5197  -17.9849   25.4253 C   0  0  1  0  0  0  0  0  0  0  0  0
   12.7251  -17.1697   25.7754 C   0  0  0  0  0  0  0  0  0  0  0  0
   10.3170  -17.4571   26.2168 C   0  0  2  0  0  0  0  0  0  0  0  0
   10.0472  -16.0785   25.8398 N   0  0  0  0  0  0  0  0  0  0  0  0
   10.5581  -17.5206   27.6564 C   0  0  0  0  0  0  0  0  0  0  0  0
   10.6218  -18.7307   28.3663 O   0  0  0  0  0  0  0  0  0  0  0  0
   10.7206  -16.4871   28.3299 O   0  0  0  0  0  0  0  0  0  0  0  0
  1  2  1  0
  3  2  1  0
  3  4  1  6
  5  3  1  0
  6  5  2  0
  7  8  1  0
  8  9  1  0
  9 11  1  0
  9 10  1  1
 11 12  1  6
 12  5  1  0
 13 11  1  0
 13 19  1  0
 14 13  2  0
 16 15  1  6
 17 16  1  0
 18 20  1  0
 18 16  1  0
 18 19  1  6
 20 22  2  0
 20 21  1  0
M  END
$$$$
