SIV.pdb
     RDKit          3D

 22 21  0  0  1  0  0  0  0  0999 V2000
    7.0737  -17.0961   21.1520 O   0  0  0  0  0  0  0  0  0  0  0  0
    6.0845  -16.1211   21.2584 C   0  0  0  0  0  0  0  0  0  0  0  0
    6.7076  -14.7420   21.2175 C   0  0  2  0  0  0  0  0  0  0  0  0
    7.3820  -14.5752   19.9606 N   0  0  0  0  0  0  0  0  0  0  0  0
    7.6051  -14.5041   22.3647 C   0  0  0  0  0  0  0  0  0  0  0  0
    8.8518  -14.4775   22.1675 O   0  0  0  0  0  0  0  0  0  0  0  0
    5.8844  -11.3689   26.3184 C   0  0  0  0  0  0  0  0  0  0  0  0
    6.8080  -12.0790   25.3564 C   0  0  0  0  0  0  0  0  0  0  0  0
    7.2307  -13.4369   25.8980 C   0  0  2  0  0  0  0  0  0  0  0  0
    8.0235  -13.3059   27.1509 C   0  0  0  0  0  0  0  0  0  0  0  0
    8.0587  -14.0925   24.7982 C   0  0  2  0  0  0  0  0  0  0  0  0
    7.1151  -14.3078   23.6609 N   0  0  0  0  0  0  0  0  0  0  0  0
    8.5213  -15.4051   25.2824 C   0  0  0  0  0  0  0  0  0  0  0  0
    7.6274  -16.2753   25.5658 O   0  0  0  0  0  0  0  0  0  0  0  0
   11.9536  -18.8961   25.4935 C   0  0  0  0  0  0  0  0  0  0  0  0
   11.4584  -17.5686   25.0129 C   0  0  1  0  0  0  0  0  0  0  0  0
   11.1830  -17.5217   23.5425 C   0  0  0  0  0  0  0  0  0  0  0  0
   10.1915  -17.1489   25.7683 C   0  0  2  0  0  0  0  0  0  0  0  0
    9.8634  -15.7685   25.4485 N   0  0  0  0  0  0  0  0  0  0  0  0
   10.3667  -17.2762   27.2131 C   0  0  0  0  0  0  0  0  0  0  0  0
   10.6563  -16.1828   28.0455 O   0  0  0  0  0  0  0  0  0  0  0  0
   10.2654  -18.3788   27.7810 O   0  0  0  0  0  0  0  0  0  0  0  0
  1  2  1  0
  3  2  1  0
  3  4  1  6
  5  3  1  0
  6  5  2  0
  7  8  1  0
  8  9  1  0
  9 11  1  0
  9 10  1  1
 11 12  1  6
 12  5  1  0
 13 11  1  0
 13 19  1  0
 14 13  2  0
 16 15  1  1
 17 16  1  0
 18 20  1  0
 18 16  1  0
 18 19  1  1
 20 22  2  0
 20 21  1  0
M  END
$$$$
