VRS.pdb
     RDKit          3D

 25 24  0  0  1  0  0  0  0  0999 V2000
    8.9490  -12.8770   20.6107 C   0  0  0  0  0  0  0  0  0  0  0  0
    7.8304  -13.4329   19.7563 C   0  0  1  0  0  0  0  0  0  0  0  0
    7.1726  -12.2848   19.0442 C   0  0  0  0  0  0  0  0  0  0  0  0
    8.3996  -14.4690   18.8400 C   0  0  2  0  0  0  0  0  0  0  0  0
    7.3678  -14.9935   17.9989 N   0  0  0  0  0  0  0  0  0  0  0  0
    9.0473  -15.5529   19.6619 C   0  0  0  0  0  0  0  0  0  0  0  0
    8.3669  -16.3390   20.3556 O   0  0  0  0  0  0  0  0  0  0  0  0
   15.4527  -19.2865   17.1892 N   0  0  0  0  0  0  0  0  0  0  0  0
   14.2579  -19.5139   17.8960 C   0  0  0  0  0  0  0  0  0  0  0  0
   13.1290  -19.5200   17.2645 N   0  0  0  0  0  0  0  0  0  0  0  0
   14.3139  -19.7351   19.3056 N   0  0  0  0  0  0  0  0  0  0  0  0
   14.4555  -18.5778   20.1620 C   0  0  0  0  0  0  0  0  0  0  0  0
   13.1021  -18.1718   20.7049 C   0  0  0  0  0  0  0  0  0  0  0  0
   12.4966  -17.0839   19.8428 C   0  0  0  0  0  0  0  0  0  0  0  0
   11.1122  -16.7684   20.4112 C   0  0  2  0  0  0  0  0  0  0  0  0
   10.4576  -15.7295   19.6851 N   0  0  0  0  0  0  0  0  0  0  0  0
   11.3259  -16.4261   21.8444 C   0  0  0  0  0  0  0  0  0  0  0  0
   12.1766  -15.5171   22.0722 O   0  0  0  0  0  0  0  0  0  0  0  0
   12.2384  -19.7335   17.7831 O   0  0  0  0  0  0  0  0  0  0  0  0
    8.7447  -17.5049   24.9968 C   0  0  0  0  0  0  0  0  0  0  0  0
    9.5959  -16.4188   25.0305 C   0  0  1  0  0  0  0  0  0  0  0  0
   10.8668  -16.6464   24.2444 N   0  0  0  0  0  0  0  0  0  0  0  0
   10.6292  -17.0677   22.9004 C   0  0  0  0  0  0  0  0  0  0  0  0
   11.7410  -17.6093   24.9690 O   0  0  0  0  0  0  0  0  0  0  0  0
   12.0724  -18.7083   24.4529 O   0  0  0  0  0  0  0  0  0  0  0  0
  2  1  1  6
  2  4  1  0
  3  2  1  0
  4  6  1  0
  4  5  1  1
  6 16  1  0
  7  6  2  0
  9 10  2  0
  9  8  1  0
 11  9  1  0
 12 11  1  0
 13 12  1  0
 14 13  1  0
 15 17  1  0
 15 14  1  6
 16 15  1  0
 17 18  2  0
 19 20  1  0
 21 20  1  6
 22 21  1  0
 22 17  1  0
 23 25  1  0
 23 21  1  0
 24 23  2  0
M  END
$$$$
