VRS.pdb
     RDKit          3D

 25 24  0  0  1  0  0  0  0  0999 V2000
    8.1730  -11.9988   25.4431 C   0  0  0  0  0  0  0  0  0  0  0  0
    6.9622  -12.2512   26.3153 C   0  0  1  0  0  0  0  0  0  0  0  0
    6.3965  -10.9207   26.7245 C   0  0  0  0  0  0  0  0  0  0  0  0
    6.0009  -13.1124   25.5596 C   0  0  2  0  0  0  0  0  0  0  0  0
    4.7600  -13.1922   26.2673 N   0  0  0  0  0  0  0  0  0  0  0  0
    6.6114  -14.4752   25.3587 C   0  0  0  0  0  0  0  0  0  0  0  0
    6.6986  -15.2949   26.2981 O   0  0  0  0  0  0  0  0  0  0  0  0
    9.9934  -13.6257   19.9452 N   0  0  0  0  0  0  0  0  0  0  0  0
    8.8200  -13.3333   19.2265 C   0  0  0  0  0  0  0  0  0  0  0  0
    8.8045  -12.3396   18.3986 N   0  0  0  0  0  0  0  0  0  0  0  0
    7.6612  -14.1436   19.4255 N   0  0  0  0  0  0  0  0  0  0  0  0
    7.8288  -15.3924   20.1363 C   0  0  0  0  0  0  0  0  0  0  0  0
    7.7029  -15.1564   21.6262 C   0  0  0  0  0  0  0  0  0  0  0  0
    7.9100  -16.4527   22.3813 C   0  0  0  0  0  0  0  0  0  0  0  0
    7.7548  -16.1431   23.8710 C   0  0  2  0  0  0  0  0  0  0  0  0
    7.1142  -14.8884   24.0949 N   0  0  0  0  0  0  0  0  0  0  0  0
    9.1265  -16.2030   24.4471 C   0  0  0  0  0  0  0  0  0  0  0  0
    9.8010  -15.1345   24.3745 O   0  0  0  0  0  0  0  0  0  0  0  0
    7.9013  -12.0505   17.9422 O   0  0  0  0  0  0  0  0  0  0  0  0
   10.1193  -17.9478   27.7058 C   0  0  0  0  0  0  0  0  0  0  0  0
   11.1677  -18.1303   26.8267 C   0  0  2  0  0  0  0  0  0  0  0  0
   10.9977  -17.3507   25.5429 N   0  0  0  0  0  0  0  0  0  0  0  0
    9.6597  -17.3745   25.0433 C   0  0  0  0  0  0  0  0  0  0  0  0
   11.9666  -17.8410   24.5245 O   0  0  0  0  0  0  0  0  0  0  0  0
   11.5820  -18.2420   23.3952 O   0  0  0  0  0  0  0  0  0  0  0  0
  2  1  1  6
  2  4  1  0
  3  2  1  0
  4  6  1  0
  4  5  1  1
  6 16  1  0
  7  6  2  0
  9 10  2  0
  9  8  1  0
 11  9  1  0
 12 11  1  0
 13 12  1  0
 14 13  1  0
 15 17  1  0
 15 14  1  6
 16 15  1  0
 17 18  2  0
 19 20  1  0
 21 20  1  1
 22 21  1  0
 22 17  1  0
 23 25  1  0
 23 21  1  0
 24 23  2  0
M  END
$$$$
