VRS.pdb
     RDKit          3D

 25 24  0  0  1  0  0  0  0  0999 V2000
    8.2943  -11.9802   19.4430 C   0  0  0  0  0  0  0  0  0  0  0  0
    8.7463  -13.2775   20.0776 C   0  0  1  0  0  0  0  0  0  0  0  0
    7.7146  -13.6856   21.0910 C   0  0  0  0  0  0  0  0  0  0  0  0
    8.9663  -14.2867   18.9958 C   0  0  2  0  0  0  0  0  0  0  0  0
    7.7658  -14.4539   18.2357 N   0  0  0  0  0  0  0  0  0  0  0  0
    9.4136  -15.5852   19.6155 C   0  0  0  0  0  0  0  0  0  0  0  0
    8.5933  -16.4756   19.9259 O   0  0  0  0  0  0  0  0  0  0  0  0
   15.2293  -13.8456   19.3715 N   0  0  0  0  0  0  0  0  0  0  0  0
   15.2093  -14.5365   18.1463 C   0  0  0  0  0  0  0  0  0  0  0  0
   15.3232  -13.8808   17.0371 N   0  0  0  0  0  0  0  0  0  0  0  0
   15.0628  -15.9569   18.1499 N   0  0  0  0  0  0  0  0  0  0  0  0
   14.8667  -16.6086   19.4264 C   0  0  0  0  0  0  0  0  0  0  0  0
   13.5058  -16.2490   19.9831 C   0  0  0  0  0  0  0  0  0  0  0  0
   12.6193  -17.4759   20.0332 C   0  0  0  0  0  0  0  0  0  0  0  0
   11.2480  -17.0279   20.5410 C   0  0  2  0  0  0  0  0  0  0  0  0
   10.7852  -15.8549   19.8740 N   0  0  0  0  0  0  0  0  0  0  0  0
   11.3973  -16.8368   22.0101 C   0  0  0  0  0  0  0  0  0  0  0  0
   11.7658  -15.6840   22.3805 O   0  0  0  0  0  0  0  0  0  0  0  0
   15.4012  -14.4009   16.1254 O   0  0  0  0  0  0  0  0  0  0  0  0
    9.6296  -19.2875   24.8468 C   0  0  0  0  0  0  0  0  0  0  0  0
   10.0355  -17.9999   25.1343 C   0  0  1  0  0  0  0  0  0  0  0  0
   11.2536  -17.5798   24.3439 N   0  0  0  0  0  0  0  0  0  0  0  0
   11.1468  -17.8699   22.9494 C   0  0  0  0  0  0  0  0  0  0  0  0
   12.4736  -18.1950   24.9349 O   0  0  0  0  0  0  0  0  0  0  0  0
   13.1914  -18.9900   24.2738 O   0  0  0  0  0  0  0  0  0  0  0  0
  2  1  1  6
  2  4  1  0
  3  2  1  0
  4  6  1  0
  4  5  1  1
  6 16  1  0
  7  6  2  0
  9 10  2  0
  9  8  1  0
 11  9  1  0
 12 11  1  0
 13 12  1  0
 14 13  1  0
 15 17  1  0
 15 14  1  6
 16 15  1  0
 17 18  2  0
 19 20  1  0
 21 20  1  6
 22 21  1  0
 22 17  1  0
 23 25  1  0
 23 21  1  0
 24 23  2  0
M  END
$$$$
