VRS.pdb
     RDKit          3D

 25 24  0  0  1  0  0  0  0  0999 V2000
    8.0885  -12.0021   18.5898 C   0  0  0  0  0  0  0  0  0  0  0  0
    8.4738  -13.0913   19.5673 C   0  0  1  0  0  0  0  0  0  0  0  0
    7.7611  -12.8282   20.8638 C   0  0  0  0  0  0  0  0  0  0  0  0
    8.1506  -14.4175   18.9559 C   0  0  2  0  0  0  0  0  0  0  0  0
    6.7448  -14.5079   18.7062 N   0  0  0  0  0  0  0  0  0  0  0  0
    8.6201  -15.5135   19.8770 C   0  0  0  0  0  0  0  0  0  0  0  0
    7.9239  -15.8966   20.8416 O   0  0  0  0  0  0  0  0  0  0  0  0
   14.8951  -21.0182   20.7648 N   0  0  0  0  0  0  0  0  0  0  0  0
   13.8341  -21.9037   21.0274 C   0  0  0  0  0  0  0  0  0  0  0  0
   14.0409  -22.9590   21.7463 N   0  0  0  0  0  0  0  0  0  0  0  0
   12.5410  -21.6196   20.4923 N   0  0  0  0  0  0  0  0  0  0  0  0
   12.3828  -20.4007   19.7295 C   0  0  0  0  0  0  0  0  0  0  0  0
   11.4838  -19.4396   20.4774 C   0  0  0  0  0  0  0  0  0  0  0  0
   11.2286  -18.2027   19.6416 C   0  0  0  0  0  0  0  0  0  0  0  0
   10.2974  -17.2932   20.4447 C   0  0  2  0  0  0  0  0  0  0  0  0
    9.8728  -16.1591   19.6906 N   0  0  0  0  0  0  0  0  0  0  0  0
   11.0488  -16.9211   21.6751 C   0  0  0  0  0  0  0  0  0  0  0  0
   11.8899  -15.9844   21.5442 O   0  0  0  0  0  0  0  0  0  0  0  0
   13.2351  -23.5852   22.0036 O   0  0  0  0  0  0  0  0  0  0  0  0
    9.6324  -17.5720   25.4796 C   0  0  0  0  0  0  0  0  0  0  0  0
   10.5853  -16.6213   25.1740 C   0  0  1  0  0  0  0  0  0  0  0  0
   11.5256  -17.0662   24.0773 N   0  0  0  0  0  0  0  0  0  0  0  0
   10.8478  -17.5647   22.9231 C   0  0  0  0  0  0  0  0  0  0  0  0
   12.4891  -18.0655   24.6154 O   0  0  0  0  0  0  0  0  0  0  0  0
   12.5375  -19.2382   24.1609 O   0  0  0  0  0  0  0  0  0  0  0  0
  2  1  1  6
  2  4  1  0
  3  2  1  0
  4  6  1  0
  4  5  1  1
  6 16  1  0
  7  6  2  0
  9 10  2  0
  9  8  1  0
 11  9  1  0
 12 11  1  0
 13 12  1  0
 14 13  1  0
 15 17  1  0
 15 14  1  6
 16 15  1  0
 17 18  2  0
 19 20  1  0
 21 20  1  6
 22 21  1  0
 22 17  1  0
 23 25  1  0
 23 21  1  0
 24 23  2  0
M  END
$$$$
