VRS.pdb
     RDKit          3D

 25 24  0  0  1  0  0  0  0  0999 V2000
    6.3287  -10.9180   27.0108 C   0  0  0  0  0  0  0  0  0  0  0  0
    7.0995  -12.0748   26.4125 C   0  0  1  0  0  0  0  0  0  0  0  0
    7.9830  -12.6502   27.4831 C   0  0  0  0  0  0  0  0  0  0  0  0
    6.1237  -13.0534   25.8405 C   0  0  2  0  0  0  0  0  0  0  0  0
    5.3451  -13.6339   26.8911 N   0  0  0  0  0  0  0  0  0  0  0  0
    6.8752  -14.1036   25.0643 C   0  0  0  0  0  0  0  0  0  0  0  0
    7.1233  -15.2250   25.5572 O   0  0  0  0  0  0  0  0  0  0  0  0
    9.5840  -14.6196   18.3563 N   0  0  0  0  0  0  0  0  0  0  0  0
    8.4015  -14.0619   17.8374 C   0  0  0  0  0  0  0  0  0  0  0  0
    8.4649  -13.2148   16.8619 N   0  0  0  0  0  0  0  0  0  0  0  0
    7.1459  -14.4435   18.4003 N   0  0  0  0  0  0  0  0  0  0  0  0
    7.1604  -15.1124   19.6829 C   0  0  0  0  0  0  0  0  0  0  0  0
    7.2180  -14.0881   20.7959 C   0  0  0  0  0  0  0  0  0  0  0  0
    8.4821  -14.2695   21.6099 C   0  0  0  0  0  0  0  0  0  0  0  0
    8.0703  -14.8203   22.9761 C   0  0  2  0  0  0  0  0  0  0  0  0
    7.3343  -13.8666   23.7400 N   0  0  0  0  0  0  0  0  0  0  0  0
    9.3314  -15.2464   23.6432 C   0  0  0  0  0  0  0  0  0  0  0  0
   10.1874  -14.3342   23.8360 O   0  0  0  0  0  0  0  0  0  0  0  0
    7.5866  -12.7559   16.5071 O   0  0  0  0  0  0  0  0  0  0  0  0
    9.9064  -18.9061   25.6215 C   0  0  0  0  0  0  0  0  0  0  0  0
   10.7091  -17.8060   25.8464 C   0  0  1  0  0  0  0  0  0  0  0  0
   10.8343  -16.9145   24.6322 N   0  0  0  0  0  0  0  0  0  0  0  0
    9.5750  -16.5851   24.0440 C   0  0  0  0  0  0  0  0  0  0  0  0
   11.7500  -17.5415   23.6399 O   0  0  0  0  0  0  0  0  0  0  0  0
   11.3922  -17.7317   22.4483 O   0  0  0  0  0  0  0  0  0  0  0  0
  2  1  1  1
  2  4  1  0
  3  2  1  0
  4  6  1  0
  4  5  1  1
  6 16  1  0
  7  6  2  0
  9 10  2  0
  9  8  1  0
 11  9  1  0
 12 11  1  0
 13 12  1  0
 14 13  1  0
 15 17  1  0
 15 14  1  6
 16 15  1  0
 17 18  2  0
 19 20  1  0
 21 20  1  1
 22 21  1  0
 22 17  1  0
 23 25  1  0
 23 21  1  0
 24 23  2  0
M  END
$$$$
