VRS.pdb
     RDKit          3D

 25 24  0  0  1  0  0  0  0  0999 V2000
    8.0367  -12.6611   18.5315 C   0  0  0  0  0  0  0  0  0  0  0  0
    7.6714  -13.0275   19.9537 C   0  0  1  0  0  0  0  0  0  0  0  0
    6.4208  -13.8596   19.9146 C   0  0  0  0  0  0  0  0  0  0  0  0
    8.8394  -13.7172   20.5839 C   0  0  2  0  0  0  0  0  0  0  0  0
    9.2580  -14.8119   19.7634 N   0  0  0  0  0  0  0  0  0  0  0  0
    8.4542  -14.1777   21.9658 C   0  0  0  0  0  0  0  0  0  0  0  0
    8.0219  -13.3768   22.8225 O   0  0  0  0  0  0  0  0  0  0  0  0
    6.0503  -21.6222   25.6163 N   0  0  0  0  0  0  0  0  0  0  0  0
    6.5031  -20.9275   26.7526 C   0  0  0  0  0  0  0  0  0  0  0  0
    6.0991  -21.2857   27.9280 N   0  0  0  0  0  0  0  0  0  0  0  0
    7.4057  -19.8335   26.5863 N   0  0  0  0  0  0  0  0  0  0  0  0
    7.7694  -19.4620   25.2364 C   0  0  0  0  0  0  0  0  0  0  0  0
    7.7579  -17.9547   25.0976 C   0  0  0  0  0  0  0  0  0  0  0  0
    8.1333  -17.5556   23.6858 C   0  0  0  0  0  0  0  0  0  0  0  0
    8.1836  -16.0276   23.6413 C   0  0  2  0  0  0  0  0  0  0  0  0
    8.5649  -15.5401   22.3561 N   0  0  0  0  0  0  0  0  0  0  0  0
    9.1260  -15.6171   24.7184 C   0  0  0  0  0  0  0  0  0  0  0  0
   10.3560  -15.7642   24.4591 O   0  0  0  0  0  0  0  0  0  0  0  0
    6.5336  -20.8576   28.7856 O   0  0  0  0  0  0  0  0  0  0  0  0
    8.1417  -13.0350   27.9006 C   0  0  0  0  0  0  0  0  0  0  0  0
    9.3949  -13.1891   27.3431 C   0  0  1  0  0  0  0  0  0  0  0  0
    9.6633  -14.6053   26.8880 N   0  0  0  0  0  0  0  0  0  0  0  0
    8.6906  -15.0925   25.9624 C   0  0  0  0  0  0  0  0  0  0  0  0
    9.7828  -15.5001   28.0718 O   0  0  0  0  0  0  0  0  0  0  0  0
    9.1004  -16.5533   28.1673 O   0  0  0  0  0  0  0  0  0  0  0  0
  2  1  1  6
  2  4  1  0
  3  2  1  0
  4  6  1  0
  4  5  1  6
  6 16  1  0
  7  6  2  0
  9 10  2  0
  9  8  1  0
 11  9  1  0
 12 11  1  0
 13 12  1  0
 14 13  1  0
 15 17  1  0
 15 14  1  6
 16 15  1  0
 17 18  2  0
 19 20  1  0
 21 20  1  6
 22 21  1  0
 22 17  1  0
 23 25  1  0
 23 21  1  0
 24 23  2  0
M  END
$$$$
