VRS.pdb
     RDKit          3D

 25 24  0  0  1  0  0  0  0  0999 V2000
    8.1188  -11.7100   19.5358 C   0  0  0  0  0  0  0  0  0  0  0  0
    8.1386  -13.1351   20.0447 C   0  0  1  0  0  0  0  0  0  0  0  0
    7.7270  -14.0390   18.9171 C   0  0  0  0  0  0  0  0  0  0  0  0
    9.4998  -13.4281   20.5908 C   0  0  2  0  0  0  0  0  0  0  0  0
   10.4802  -13.2753   19.5601 N   0  0  0  0  0  0  0  0  0  0  0  0
    9.5126  -14.8214   21.1640 C   0  0  0  0  0  0  0  0  0  0  0  0
    8.6422  -15.1993   21.9774 O   0  0  0  0  0  0  0  0  0  0  0  0
   10.8956  -19.2808   15.4071 N   0  0  0  0  0  0  0  0  0  0  0  0
   11.9675  -18.6103   16.0237 C   0  0  0  0  0  0  0  0  0  0  0  0
   12.8994  -18.0841   15.2971 N   0  0  0  0  0  0  0  0  0  0  0  0
   12.0071  -18.5224   17.4484 N   0  0  0  0  0  0  0  0  0  0  0  0
   10.9552  -19.1812   18.1915 C   0  0  0  0  0  0  0  0  0  0  0  0
   10.3494  -18.2170   19.1888 C   0  0  0  0  0  0  0  0  0  0  0  0
   11.2591  -18.0653   20.3900 C   0  0  0  0  0  0  0  0  0  0  0  0
   10.5873  -17.0826   21.3503 C   0  0  2  0  0  0  0  0  0  0  0  0
   10.5128  -15.7661   20.8062 N   0  0  0  0  0  0  0  0  0  0  0  0
   11.3728  -17.1425   22.6138 C   0  0  0  0  0  0  0  0  0  0  0  0
   12.3577  -16.3510   22.6876 O   0  0  0  0  0  0  0  0  0  0  0  0
   13.7467  -17.6606   15.7558 O   0  0  0  0  0  0  0  0  0  0  0  0
   10.0995  -18.9420   26.1306 C   0  0  0  0  0  0  0  0  0  0  0  0
   11.1930  -18.0997   26.1271 C   0  0  1  0  0  0  0  0  0  0  0  0
   11.9260  -18.0972   24.8051 N   0  0  0  0  0  0  0  0  0  0  0  0
   11.0521  -18.0244   23.6776 C   0  0  0  0  0  0  0  0  0  0  0  0
   12.8204  -19.2844   24.7235 O   0  0  0  0  0  0  0  0  0  0  0  0
   12.7025  -20.1300   23.7987 O   0  0  0  0  0  0  0  0  0  0  0  0
  2  1  1  6
  2  4  1  0
  3  2  1  0
  4  6  1  0
  4  5  1  6
  6 16  1  0
  7  6  2  0
  9 10  2  0
  9  8  1  0
 11  9  1  0
 12 11  1  0
 13 12  1  0
 14 13  1  0
 15 17  1  0
 15 14  1  6
 16 15  1  0
 17 18  2  0
 19 20  1  0
 21 20  1  1
 22 21  1  0
 22 17  1  0
 23 25  1  0
 23 21  1  0
 24 23  2  0
M  END
$$$$
