VRS.pdb
     RDKit          3D

 25 24  0  0  1  0  0  0  0  0999 V2000
    8.0987  -11.8567   19.6355 C   0  0  0  0  0  0  0  0  0  0  0  0
    8.3828  -13.1338   20.3961 C   0  0  1  0  0  0  0  0  0  0  0  0
    7.5588  -13.1217   21.6526 C   0  0  0  0  0  0  0  0  0  0  0  0
    8.1024  -14.2965   19.4981 C   0  0  2  0  0  0  0  0  0  0  0  0
    6.7277  -14.2842   19.1019 N   0  0  0  0  0  0  0  0  0  0  0  0
    8.4595  -15.5722   20.2159 C   0  0  0  0  0  0  0  0  0  0  0  0
    7.5871  -16.2719   20.7738 O   0  0  0  0  0  0  0  0  0  0  0  0
   13.8161  -21.8888   18.1248 N   0  0  0  0  0  0  0  0  0  0  0  0
   14.3211  -20.9123   19.0025 C   0  0  0  0  0  0  0  0  0  0  0  0
   15.5991  -20.7876   19.1581 N   0  0  0  0  0  0  0  0  0  0  0  0
   13.4081  -20.0722   19.7094 N   0  0  0  0  0  0  0  0  0  0  0  0
   12.0008  -20.3988   19.6367 C   0  0  0  0  0  0  0  0  0  0  0  0
   11.2139  -19.4879   20.5546 C   0  0  0  0  0  0  0  0  0  0  0  0
   10.9922  -18.1432   19.8941 C   0  0  0  0  0  0  0  0  0  0  0  0
   10.1742  -17.2880   20.8629 C   0  0  2  0  0  0  0  0  0  0  0  0
    9.8012  -16.0358   20.2904 N   0  0  0  0  0  0  0  0  0  0  0  0
   11.0115  -17.1385   22.0850 C   0  0  0  0  0  0  0  0  0  0  0  0
   12.0185  -16.3801   21.9729 O   0  0  0  0  0  0  0  0  0  0  0  0
   15.9782  -20.0959   19.8550 O   0  0  0  0  0  0  0  0  0  0  0  0
   11.8623  -17.9687   26.7905 C   0  0  0  0  0  0  0  0  0  0  0  0
   11.0310  -18.1821   25.7095 C   0  0  2  0  0  0  0  0  0  0  0  0
   11.5825  -17.6081   24.4244 N   0  0  0  0  0  0  0  0  0  0  0  0
   10.7144  -17.7968   23.3059 C   0  0  0  0  0  0  0  0  0  0  0  0
   12.9360  -18.1700   24.1625 O   0  0  0  0  0  0  0  0  0  0  0  0
   13.0838  -19.3265   23.6885 O   0  0  0  0  0  0  0  0  0  0  0  0
  2  1  1  6
  2  4  1  0
  3  2  1  0
  4  6  1  0
  4  5  1  1
  6 16  1  0
  7  6  2  0
  9 10  2  0
  9  8  1  0
 11  9  1  0
 12 11  1  0
 13 12  1  0
 14 13  1  0
 15 17  1  0
 15 14  1  6
 16 15  1  0
 17 18  2  0
 19 20  1  0
 21 20  1  1
 22 21  1  0
 22 17  1  0
 23 25  1  0
 23 21  1  0
 24 23  2  0
M  END
$$$$
