VRS.pdb
     RDKit          3D

 25 24  0  0  1  0  0  0  0  0999 V2000
    8.5301  -12.0442   19.3825 C   0  0  0  0  0  0  0  0  0  0  0  0
    8.5155  -12.9205   20.6163 C   0  0  1  0  0  0  0  0  0  0  0  0
    7.3565  -12.4986   21.4745 C   0  0  0  0  0  0  0  0  0  0  0  0
    8.4613  -14.3515   20.1846 C   0  0  2  0  0  0  0  0  0  0  0  0
    7.3491  -14.5527   19.3074 N   0  0  0  0  0  0  0  0  0  0  0  0
    8.3702  -15.2320   21.4039 C   0  0  0  0  0  0  0  0  0  0  0  0
    7.2685  -15.5179   21.9201 O   0  0  0  0  0  0  0  0  0  0  0  0
   12.1187  -19.5974   19.3175 N   0  0  0  0  0  0  0  0  0  0  0  0
   10.9357  -20.3584   19.3124 C   0  0  0  0  0  0  0  0  0  0  0  0
   10.5027  -20.8655   18.2040 N   0  0  0  0  0  0  0  0  0  0  0  0
   10.2308  -20.5582   20.5381 N   0  0  0  0  0  0  0  0  0  0  0  0
   10.6941  -19.8387   21.7044 C   0  0  0  0  0  0  0  0  0  0  0  0
    9.9194  -18.5467   21.8523 C   0  0  0  0  0  0  0  0  0  0  0  0
   10.3548  -17.8151   23.1048 C   0  0  0  0  0  0  0  0  0  0  0  0
    9.4998  -16.5519   23.2162 C   0  0  2  0  0  0  0  0  0  0  0  0
    9.5303  -15.7754   22.0199 N   0  0  0  0  0  0  0  0  0  0  0  0
   10.0161  -15.8107   24.3999 C   0  0  0  0  0  0  0  0  0  0  0  0
   11.0566  -15.1172   24.2042 O   0  0  0  0  0  0  0  0  0  0  0  0
    9.5842  -21.3790   18.1850 O   0  0  0  0  0  0  0  0  0  0  0  0
    9.4952  -13.2563   28.2548 C   0  0  0  0  0  0  0  0  0  0  0  0
    8.9543  -14.0466   27.2608 C   0  0  2  0  0  0  0  0  0  0  0  0
    9.9266  -15.0803   26.7404 N   0  0  0  0  0  0  0  0  0  0  0  0
    9.3940  -15.8667   25.6736 C   0  0  0  0  0  0  0  0  0  0  0  0
   10.3993  -15.9364   27.8629 O   0  0  0  0  0  0  0  0  0  0  0  0
   10.9440  -15.4373   28.8819 O   0  0  0  0  0  0  0  0  0  0  0  0
  2  1  1  6
  2  4  1  0
  3  2  1  0
  4  6  1  0
  4  5  1  6
  6 16  1  0
  7  6  2  0
  9 10  2  0
  9  8  1  0
 11  9  1  0
 12 11  1  0
 13 12  1  0
 14 13  1  0
 15 17  1  0
 15 14  1  6
 16 15  1  0
 17 18  2  0
 19 20  1  0
 21 20  1  6
 22 21  1  0
 22 17  1  0
 23 25  1  0
 23 21  1  0
 24 23  2  0
M  END
$$$$
