VRS.pdb
     RDKit          3D

 25 24  0  0  1  0  0  0  0  0999 V2000
    6.9549  -13.8665   18.9320 C   0  0  0  0  0  0  0  0  0  0  0  0
    8.3144  -13.2034   18.9796 C   0  0  1  0  0  0  0  0  0  0  0  0
    8.2447  -12.0661   19.9592 C   0  0  0  0  0  0  0  0  0  0  0  0
    9.3384  -14.2380   19.3233 C   0  0  2  0  0  0  0  0  0  0  0  0
    9.3775  -15.2406   18.3034 N   0  0  0  0  0  0  0  0  0  0  0  0
    9.0092  -14.8307   20.6688 C   0  0  0  0  0  0  0  0  0  0  0  0
    9.0514  -14.1430   21.7116 O   0  0  0  0  0  0  0  0  0  0  0  0
   10.3241  -20.9362   19.7454 N   0  0  0  0  0  0  0  0  0  0  0  0
   10.3951  -21.7683   20.8773 C   0  0  0  0  0  0  0  0  0  0  0  0
   11.3338  -22.6538   20.9658 N   0  0  0  0  0  0  0  0  0  0  0  0
    9.4241  -21.6190   21.9136 N   0  0  0  0  0  0  0  0  0  0  0  0
    8.3870  -20.6285   21.7246 C   0  0  0  0  0  0  0  0  0  0  0  0
    8.9180  -19.2552   22.0759 C   0  0  0  0  0  0  0  0  0  0  0  0
    7.8232  -18.2183   21.9352 C   0  0  0  0  0  0  0  0  0  0  0  0
    8.4769  -16.8425   22.0731 C   0  0  2  0  0  0  0  0  0  0  0  0
    8.6369  -16.1951   20.8121 N   0  0  0  0  0  0  0  0  0  0  0  0
    9.7706  -17.0718   22.7736 C   0  0  0  0  0  0  0  0  0  0  0  0
   10.7743  -16.4751   22.2852 O   0  0  0  0  0  0  0  0  0  0  0  0
   11.3730  -23.2960   21.7988 O   0  0  0  0  0  0  0  0  0  0  0  0
    9.8003  -16.1545   26.4846 C   0  0  0  0  0  0  0  0  0  0  0  0
   10.7455  -16.2153   25.4806 C   0  0  1  0  0  0  0  0  0  0  0  0
   10.8874  -17.6009   24.8931 N   0  0  0  0  0  0  0  0  0  0  0  0
    9.8892  -17.9029   23.9171 C   0  0  0  0  0  0  0  0  0  0  0  0
   10.9020  -18.6116   25.9860 O   0  0  0  0  0  0  0  0  0  0  0  0
    9.9900  -19.4724   26.0934 O   0  0  0  0  0  0  0  0  0  0  0  0
  2  1  1  1
  2  4  1  0
  3  2  1  0
  4  6  1  0
  4  5  1  6
  6 16  1  0
  7  6  2  0
  9 10  2  0
  9  8  1  0
 11  9  1  0
 12 11  1  0
 13 12  1  0
 14 13  1  0
 15 17  1  0
 15 14  1  6
 16 15  1  0
 17 18  2  0
 19 20  1  0
 21 20  1  6
 22 21  1  0
 22 17  1  0
 23 25  1  0
 23 21  1  0
 24 23  2  0
M  END
$$$$
