VRS.pdb
     RDKit          3D

 25 24  0  0  1  0  0  0  0  0999 V2000
    7.5509  -11.9754   19.8928 C   0  0  0  0  0  0  0  0  0  0  0  0
    8.2851  -13.2551   20.2300 C   0  0  1  0  0  0  0  0  0  0  0  0
    8.2719  -13.4209   21.7234 C   0  0  0  0  0  0  0  0  0  0  0  0
    7.6420  -14.3838   19.4888 C   0  0  2  0  0  0  0  0  0  0  0  0
    6.3039  -14.5736   19.9581 N   0  0  0  0  0  0  0  0  0  0  0  0
    8.4722  -15.6284   19.6672 C   0  0  0  0  0  0  0  0  0  0  0  0
    8.2292  -16.4485   20.5785 O   0  0  0  0  0  0  0  0  0  0  0  0
   15.4164  -18.8319   18.4113 N   0  0  0  0  0  0  0  0  0  0  0  0
   14.9849  -20.0350   17.8238 C   0  0  0  0  0  0  0  0  0  0  0  0
   15.6915  -21.1090   17.9662 N   0  0  0  0  0  0  0  0  0  0  0  0
   13.7679  -20.0482   17.0771 N   0  0  0  0  0  0  0  0  0  0  0  0
   13.0876  -18.7870   16.8789 C   0  0  0  0  0  0  0  0  0  0  0  0
   12.1017  -18.5528   18.0033 C   0  0  0  0  0  0  0  0  0  0  0  0
   11.3452  -17.2607   17.7762 C   0  0  0  0  0  0  0  0  0  0  0  0
   10.4134  -17.0608   18.9724 C   0  0  2  0  0  0  0  0  0  0  0  0
    9.5662  -15.9247   18.8093 N   0  0  0  0  0  0  0  0  0  0  0  0
   11.2963  -16.9570   20.1669 C   0  0  0  0  0  0  0  0  0  0  0  0
   11.9002  -15.8540   20.3107 O   0  0  0  0  0  0  0  0  0  0  0  0
   15.3642  -22.0133   17.5386 O   0  0  0  0  0  0  0  0  0  0  0  0
   10.6244  -18.7769   23.7701 C   0  0  0  0  0  0  0  0  0  0  0  0
   11.3938  -17.6580   23.5224 C   0  0  1  0  0  0  0  0  0  0  0  0
   12.2359  -17.7910   22.2742 N   0  0  0  0  0  0  0  0  0  0  0  0
   11.4621  -18.0168   21.0950 C   0  0  0  0  0  0  0  0  0  0  0  0
   13.2563  -18.8578   22.4670 O   0  0  0  0  0  0  0  0  0  0  0  0
   13.2813  -19.8796   21.7326 O   0  0  0  0  0  0  0  0  0  0  0  0
  2  1  1  1
  2  4  1  0
  3  2  1  0
  4  6  1  0
  4  5  1  1
  6 16  1  0
  7  6  2  0
  9 10  2  0
  9  8  1  0
 11  9  1  0
 12 11  1  0
 13 12  1  0
 14 13  1  0
 15 17  1  0
 15 14  1  6
 16 15  1  0
 17 18  2  0
 19 20  1  0
 21 20  1  6
 22 21  1  0
 22 17  1  0
 23 25  1  0
 23 21  1  0
 24 23  2  0
M  END
$$$$
