AWH.pdb
     RDKit          3D

 30 32  0  0  1  0  0  0  0  0999 V2000
    8.2296  -19.1616   19.9181 C   0  0  0  0  0  0  0  0  0  0  0  0
    8.7668  -17.7524   19.7933 C   0  0  2  0  0  0  0  0  0  0  0  0
    9.8708  -17.7627   18.8796 N   0  0  0  0  0  0  0  0  0  0  0  0
    9.1841  -17.2238   21.1379 C   0  0  0  0  0  0  0  0  0  0  0  0
   10.2965  -17.5184   21.6544 O   0  0  0  0  0  0  0  0  0  0  0  0
    8.3416  -16.3656   21.8893 N   0  0  0  0  0  0  0  0  0  0  0  0
    8.7374  -15.7575   23.1526 C   0  0  1  0  0  0  0  0  0  0  0  0
    7.8827  -14.5733   23.4761 C   0  0  0  0  0  0  0  0  0  0  0  0
    8.1469  -13.9320   24.7772 C   0  0  0  0  0  0  0  0  0  0  0  0
    9.4115  -13.9765   25.4040 C   0  0  0  0  0  0  0  0  0  0  0  0
    9.3652  -13.2932   26.5569 N   0  0  0  0  0  0  0  0  0  0  0  0
    8.1276  -12.7933   26.7316 C   0  0  0  0  0  0  0  0  0  0  0  0
    7.5584  -12.0393   27.7267 C   0  0  0  0  0  0  0  0  0  0  0  0
    6.2316  -11.6807   27.6207 C   0  0  0  0  0  0  0  0  0  0  0  0
    5.4623  -12.0539   26.5521 C   0  0  0  0  0  0  0  0  0  0  0  0
    6.0606  -12.8201   25.5513 C   0  0  0  0  0  0  0  0  0  0  0  0
    7.3778  -13.1905   25.6301 C   0  0  0  0  0  0  0  0  0  0  0  0
    8.8705  -16.7677   24.1961 C   0  0  0  0  0  0  0  0  0  0  0  0
    7.9495  -17.5592   24.5493 O   0  0  0  0  0  0  0  0  0  0  0  0
   10.1480  -16.8677   24.8606 N   0  0  0  0  0  0  0  0  0  0  0  0
   10.3093  -17.8284   25.9178 C   0  0  1  0  0  0  0  0  0  0  0  0
   11.7060  -18.4454   25.8168 C   0  0  0  0  0  0  0  0  0  0  0  0
   11.7986  -19.3884   24.6806 C   0  0  0  0  0  0  0  0  0  0  0  0
   10.7716  -19.7430   23.8455 C   0  0  0  0  0  0  0  0  0  0  0  0
   11.2914  -20.6193   22.9569 N   0  0  0  0  0  0  0  0  0  0  0  0
   12.5945  -20.8171   23.2122 C   0  0  0  0  0  0  0  0  0  0  0  0
   12.8855  -20.0472   24.2803 N   0  0  0  0  0  0  0  0  0  0  0  0
   10.2456  -17.2239   27.2694 C   0  0  0  0  0  0  0  0  0  0  0  0
   10.0605  -15.8606   27.4194 O   0  0  0  0  0  0  0  0  0  0  0  0
   10.3665  -17.9962   28.2563 O   0  0  0  0  0  0  0  0  0  0  0  0
  2  1  1  1
  2  4  1  0
  2  3  1  0
  4  5  2  0
  6  7  1  0
  6  4  1  0
  7  8  1  1
  9  8  1  0
  9 10  2  0
 11 10  1  0
 12 11  1  0
 13 12  2  0
 14 13  1  0
 15 14  2  0
 15 16  1  0
 16 17  2  0
 17 12  1  0
 17  9  1  0
 18 20  1  0
 18  7  1  0
 19 18  2  0
 21 28  1  0
 21 20  1  0
 21 22  1  6
 22 23  1  0
 23 27  1  0
 23 24  2  0
 24 25  1  0
 26 25  1  0
 27 26  2  0
 28 29  1  0
 30 28  2  0
M  END
$$$$
