AWH.pdb
     RDKit          3D

 30 32  0  0  1  0  0  0  0  0999 V2000
    6.6423  -14.3140   20.6500 C   0  0  0  0  0  0  0  0  0  0  0  0
    7.3683  -15.6045   20.9624 C   0  0  2  0  0  0  0  0  0  0  0  0
    6.4184  -16.5549   21.4606 N   0  0  0  0  0  0  0  0  0  0  0  0
    8.4672  -15.3657   21.9608 C   0  0  0  0  0  0  0  0  0  0  0  0
    9.3942  -14.5375   21.7470 O   0  0  0  0  0  0  0  0  0  0  0  0
    8.5106  -16.0642   23.1942 N   0  0  0  0  0  0  0  0  0  0  0  0
    9.5510  -15.8629   24.1939 C   0  0  1  0  0  0  0  0  0  0  0  0
    8.9857  -15.8909   25.5786 C   0  0  0  0  0  0  0  0  0  0  0  0
    7.7999  -15.0434   25.8010 C   0  0  0  0  0  0  0  0  0  0  0  0
    6.4832  -15.5517   25.7584 C   0  0  0  0  0  0  0  0  0  0  0  0
    5.6127  -14.5654   26.0184 N   0  0  0  0  0  0  0  0  0  0  0  0
    6.2857  -13.4194   26.2328 C   0  0  0  0  0  0  0  0  0  0  0  0
    5.8813  -12.1416   26.5267 C   0  0  0  0  0  0  0  0  0  0  0  0
    6.8328  -11.1569   26.6853 C   0  0  0  0  0  0  0  0  0  0  0  0
    8.1711  -11.4139   26.5585 C   0  0  0  0  0  0  0  0  0  0  0  0
    8.5608  -12.7198   26.2596 C   0  0  0  0  0  0  0  0  0  0  0  0
    7.6367  -13.7189   26.0972 C   0  0  0  0  0  0  0  0  0  0  0  0
   10.6914  -16.7358   23.9396 C   0  0  0  0  0  0  0  0  0  0  0  0
   10.6116  -17.9846   23.7566 O   0  0  0  0  0  0  0  0  0  0  0  0
   11.9963  -16.1207   23.8880 N   0  0  0  0  0  0  0  0  0  0  0  0
   13.1518  -16.9546   23.6981 C   0  0  1  0  0  0  0  0  0  0  0  0
   14.2448  -16.1358   23.0078 C   0  0  0  0  0  0  0  0  0  0  0  0
   13.8164  -15.6880   21.6643 C   0  0  0  0  0  0  0  0  0  0  0  0
   13.0632  -16.4130   20.7785 C   0  0  0  0  0  0  0  0  0  0  0  0
   12.9075  -15.6321   19.6859 N   0  0  0  0  0  0  0  0  0  0  0  0
   13.5340  -14.4583   19.8647 C   0  0  0  0  0  0  0  0  0  0  0  0
   14.0879  -14.5153   21.0928 N   0  0  0  0  0  0  0  0  0  0  0  0
   13.7536  -17.4154   24.9715 C   0  0  0  0  0  0  0  0  0  0  0  0
   14.8533  -18.2555   24.9634 O   0  0  0  0  0  0  0  0  0  0  0  0
   13.2252  -17.0138   26.0413 O   0  0  0  0  0  0  0  0  0  0  0  0
  2  1  1  1
  2  4  1  0
  2  3  1  0
  4  5  2  0
  6  7  1  0
  6  4  1  0
  7  8  1  1
  9  8  1  0
  9 10  2  0
 11 10  1  0
 12 11  1  0
 13 12  2  0
 14 13  1  0
 15 14  2  0
 15 16  1  0
 16 17  2  0
 17 12  1  0
 17  9  1  0
 18 20  1  0
 18  7  1  0
 19 18  2  0
 21 28  1  0
 21 20  1  0
 21 22  1  1
 22 23  1  0
 23 27  1  0
 23 24  2  0
 24 25  1  0
 26 25  1  0
 27 26  2  0
 28 29  1  0
 30 28  2  0
M  END
$$$$
