AWH.pdb
     RDKit          3D

 30 32  0  0  1  0  0  0  0  0999 V2000
    7.2676  -18.8142   20.2482 C   0  0  0  0  0  0  0  0  0  0  0  0
    7.9336  -17.5699   19.7022 C   0  0  2  0  0  0  0  0  0  0  0  0
    8.6730  -17.9249   18.5270 N   0  0  0  0  0  0  0  0  0  0  0  0
    8.8313  -16.9517   20.7383 C   0  0  0  0  0  0  0  0  0  0  0  0
   10.0138  -17.3510   20.9201 O   0  0  0  0  0  0  0  0  0  0  0  0
    8.3863  -15.8862   21.5616 N   0  0  0  0  0  0  0  0  0  0  0  0
    9.1695  -15.3428   22.6633 C   0  0  1  0  0  0  0  0  0  0  0  0
    8.6686  -13.9937   23.0714 C   0  0  0  0  0  0  0  0  0  0  0  0
    7.6538  -13.9864   24.1409 C   0  0  0  0  0  0  0  0  0  0  0  0
    6.7101  -15.0246   24.3007 C   0  0  0  0  0  0  0  0  0  0  0  0
    5.9327  -14.7650   25.3620 N   0  0  0  0  0  0  0  0  0  0  0  0
    6.3119  -13.6003   25.9204 C   0  0  0  0  0  0  0  0  0  0  0  0
    5.8524  -12.8914   27.0017 C   0  0  0  0  0  0  0  0  0  0  0  0
    6.4589  -11.6971   27.3274 C   0  0  0  0  0  0  0  0  0  0  0  0
    7.5070  -11.1948   26.6047 C   0  0  0  0  0  0  0  0  0  0  0  0
    7.9588  -11.9315   25.5093 C   0  0  0  0  0  0  0  0  0  0  0  0
    7.3753  -13.1223   25.1629 C   0  0  0  0  0  0  0  0  0  0  0  0
    9.3228  -16.3285   23.7272 C   0  0  0  0  0  0  0  0  0  0  0  0
    8.5459  -17.3089   23.9136 O   0  0  0  0  0  0  0  0  0  0  0  0
   10.4463  -16.1691   24.6194 N   0  0  0  0  0  0  0  0  0  0  0  0
   11.0892  -17.3423   25.1455 C   0  0  1  0  0  0  0  0  0  0  0  0
   11.8226  -18.0566   24.0082 C   0  0  0  0  0  0  0  0  0  0  0  0
   12.3727  -19.3561   24.4528 C   0  0  0  0  0  0  0  0  0  0  0  0
   12.2312  -19.9032   25.7012 C   0  0  0  0  0  0  0  0  0  0  0  0
   12.8848  -21.0863   25.6724 N   0  0  0  0  0  0  0  0  0  0  0  0
   13.4212  -21.2877   24.4584 C   0  0  0  0  0  0  0  0  0  0  0  0
   13.0924  -20.2069   23.7222 N   0  0  0  0  0  0  0  0  0  0  0  0
   12.1331  -17.0336   26.1511 C   0  0  0  0  0  0  0  0  0  0  0  0
   12.4286  -17.9390   27.1551 O   0  0  0  0  0  0  0  0  0  0  0  0
   12.7264  -15.9278   26.0501 O   0  0  0  0  0  0  0  0  0  0  0  0
  2  1  1  1
  2  4  1  0
  2  3  1  0
  4  5  2  0
  6  7  1  0
  6  4  1  0
  7  8  1  1
  9  8  1  0
  9 10  2  0
 11 10  1  0
 12 11  1  0
 13 12  2  0
 14 13  1  0
 15 14  2  0
 15 16  1  0
 16 17  2  0
 17 12  1  0
 17  9  1  0
 18 20  1  0
 18  7  1  0
 19 18  2  0
 21 28  1  0
 21 20  1  0
 21 22  1  6
 22 23  1  0
 23 27  1  0
 23 24  2  0
 24 25  1  0
 26 25  1  0
 27 26  2  0
 28 29  1  0
 30 28  2  0
M  END
$$$$
