AWH.pdb
     RDKit          3D

 30 32  0  0  1  0  0  0  0  0999 V2000
   11.3515  -18.2682   19.7980 C   0  0  0  0  0  0  0  0  0  0  0  0
   11.0012  -16.7993   19.6998 C   0  0  2  0  0  0  0  0  0  0  0  0
   12.1145  -16.1006   19.1285 N   0  0  0  0  0  0  0  0  0  0  0  0
   10.6543  -16.2458   21.0543 C   0  0  0  0  0  0  0  0  0  0  0  0
   11.5414  -15.8717   21.8691 O   0  0  0  0  0  0  0  0  0  0  0  0
    9.3071  -16.1188   21.4785 N   0  0  0  0  0  0  0  0  0  0  0  0
    8.9247  -15.7343   22.8306 C   0  0  1  0  0  0  0  0  0  0  0  0
    7.5175  -15.2288   22.8735 C   0  0  0  0  0  0  0  0  0  0  0  0
    7.0586  -14.7290   24.1826 C   0  0  0  0  0  0  0  0  0  0  0  0
    6.3217  -15.5266   25.0851 C   0  0  0  0  0  0  0  0  0  0  0  0
    6.0622  -14.8232   26.1969 N   0  0  0  0  0  0  0  0  0  0  0  0
    6.5911  -13.5907   26.0805 C   0  0  0  0  0  0  0  0  0  0  0  0
    6.6071  -12.5004   26.9135 C   0  0  0  0  0  0  0  0  0  0  0  0
    7.2403  -11.3485   26.4982 C   0  0  0  0  0  0  0  0  0  0  0  0
    7.8548  -11.2577   25.2786 C   0  0  0  0  0  0  0  0  0  0  0  0
    7.8270  -12.3779   24.4472 C   0  0  0  0  0  0  0  0  0  0  0  0
    7.2055  -13.5364   24.8344 C   0  0  0  0  0  0  0  0  0  0  0  0
    9.2686  -16.7819   23.7853 C   0  0  0  0  0  0  0  0  0  0  0  0
    9.0101  -18.0096   23.6263 O   0  0  0  0  0  0  0  0  0  0  0  0
    9.9578  -16.3800   24.9883 N   0  0  0  0  0  0  0  0  0  0  0  0
   10.3416  -17.3868   25.9399 C   0  0  1  0  0  0  0  0  0  0  0  0
   11.8691  -17.4438   26.0109 C   0  0  0  0  0  0  0  0  0  0  0  0
   12.4376  -18.1532   24.8437 C   0  0  0  0  0  0  0  0  0  0  0  0
   11.7274  -18.6540   23.7842 C   0  0  0  0  0  0  0  0  0  0  0  0
   12.6331  -19.2176   22.9537 N   0  0  0  0  0  0  0  0  0  0  0  0
   13.8693  -19.0833   23.4596 C   0  0  0  0  0  0  0  0  0  0  0  0
   13.7243  -18.4234   24.6265 N   0  0  0  0  0  0  0  0  0  0  0  0
    9.8968  -17.0835   27.3206 C   0  0  0  0  0  0  0  0  0  0  0  0
    9.1712  -15.9356   27.5869 O   0  0  0  0  0  0  0  0  0  0  0  0
   10.2060  -17.9051   28.2230 O   0  0  0  0  0  0  0  0  0  0  0  0
  2  1  1  1
  2  4  1  0
  2  3  1  0
  4  5  2  0
  6  7  1  0
  6  4  1  0
  7  8  1  6
  9  8  1  0
  9 10  2  0
 11 10  1  0
 12 11  1  0
 13 12  2  0
 14 13  1  0
 15 14  2  0
 15 16  1  0
 16 17  2  0
 17 12  1  0
 17  9  1  0
 18 20  1  0
 18  7  1  0
 19 18  2  0
 21 28  1  0
 21 20  1  0
 21 22  1  1
 22 23  1  0
 23 27  1  0
 23 24  2  0
 24 25  1  0
 26 25  1  0
 27 26  2  0
 28 29  1  0
 30 28  2  0
M  END
$$$$
