AWH.pdb
     RDKit          3D

 30 32  0  0  1  0  0  0  0  0999 V2000
   11.3163  -16.8369   19.5231 C   0  0  0  0  0  0  0  0  0  0  0  0
   11.0311  -17.7247   20.7150 C   0  0  2  0  0  0  0  0  0  0  0  0
    9.9672  -18.6219   20.3732 N   0  0  0  0  0  0  0  0  0  0  0  0
   10.6731  -16.8968   21.9183 C   0  0  0  0  0  0  0  0  0  0  0  0
   11.5437  -16.2621   22.5741 O   0  0  0  0  0  0  0  0  0  0  0  0
    9.3336  -16.7917   22.3719 N   0  0  0  0  0  0  0  0  0  0  0  0
    8.9340  -15.9758   23.5108 C   0  0  1  0  0  0  0  0  0  0  0  0
    7.6562  -15.2485   23.2355 C   0  0  0  0  0  0  0  0  0  0  0  0
    7.0334  -14.5900   24.3984 C   0  0  0  0  0  0  0  0  0  0  0  0
    6.1530  -15.2642   25.2726 C   0  0  0  0  0  0  0  0  0  0  0  0
    5.7615  -14.4298   26.2466 N   0  0  0  0  0  0  0  0  0  0  0  0
    6.3389  -13.2274   26.0649 C   0  0  0  0  0  0  0  0  0  0  0  0
    6.2709  -12.0459   26.7594 C   0  0  0  0  0  0  0  0  0  0  0  0
    6.9911  -10.9605   26.3083 C   0  0  0  0  0  0  0  0  0  0  0  0
    7.7733  -11.0241   25.1870 C   0  0  0  0  0  0  0  0  0  0  0  0
    7.8285  -12.2349   24.4958 C   0  0  0  0  0  0  0  0  0  0  0  0
    7.1236  -13.3304   24.9218 C   0  0  0  0  0  0  0  0  0  0  0  0
    8.9896  -16.7473   24.7472 C   0  0  0  0  0  0  0  0  0  0  0  0
    8.0266  -17.4193   25.2168 O   0  0  0  0  0  0  0  0  0  0  0  0
   10.2367  -16.7426   25.4741 N   0  0  0  0  0  0  0  0  0  0  0  0
   10.3183  -17.4532   26.7211 C   0  0  1  0  0  0  0  0  0  0  0  0
   10.4025  -18.9533   26.4310 C   0  0  0  0  0  0  0  0  0  0  0  0
   10.3706  -19.7470   27.6792 C   0  0  0  0  0  0  0  0  0  0  0  0
   10.1888  -19.2494   28.9429 C   0  0  0  0  0  0  0  0  0  0  0  0
   10.2287  -20.3120   29.7777 N   0  0  0  0  0  0  0  0  0  0  0  0
   10.4274  -21.4407   29.0787 C   0  0  0  0  0  0  0  0  0  0  0  0
   10.5120  -21.0677   27.7857 N   0  0  0  0  0  0  0  0  0  0  0  0
   11.5417  -17.1349   27.4944 C   0  0  0  0  0  0  0  0  0  0  0  0
   12.5298  -16.3364   26.9455 O   0  0  0  0  0  0  0  0  0  0  0  0
   11.6372  -17.6179   28.6531 O   0  0  0  0  0  0  0  0  0  0  0  0
  2  1  1  6
  2  4  1  0
  2  3  1  0
  4  5  2  0
  6  7  1  0
  6  4  1  0
  7  8  1  6
  9  8  1  0
  9 10  2  0
 11 10  1  0
 12 11  1  0
 13 12  2  0
 14 13  1  0
 15 14  2  0
 15 16  1  0
 16 17  2  0
 17 12  1  0
 17  9  1  0
 18 20  1  0
 18  7  1  0
 19 18  2  0
 21 28  1  0
 21 20  1  0
 21 22  1  6
 22 23  1  0
 23 27  1  0
 23 24  2  0
 24 25  1  0
 26 25  1  0
 27 26  2  0
 28 29  1  0
 30 28  2  0
M  END
$$$$
