AWH.pdb
     RDKit          3D

 30 32  0  0  1  0  0  0  0  0999 V2000
    9.3757  -15.3621   20.2592 C   0  0  0  0  0  0  0  0  0  0  0  0
   10.0178  -16.5148   21.0002 C   0  0  2  0  0  0  0  0  0  0  0  0
    9.1472  -17.6505   20.9227 N   0  0  0  0  0  0  0  0  0  0  0  0
   10.2889  -16.1393   22.4309 C   0  0  0  0  0  0  0  0  0  0  0  0
   11.0638  -15.1923   22.7365 O   0  0  0  0  0  0  0  0  0  0  0  0
    9.6819  -16.8365   23.5063 N   0  0  0  0  0  0  0  0  0  0  0  0
    9.7987  -16.4227   24.8983 C   0  0  1  0  0  0  0  0  0  0  0  0
    8.4534  -16.2813   25.5370 C   0  0  0  0  0  0  0  0  0  0  0  0
    7.7112  -15.0537   25.1966 C   0  0  0  0  0  0  0  0  0  0  0  0
    6.8863  -14.9559   24.0547 C   0  0  0  0  0  0  0  0  0  0  0  0
    6.3227  -13.7400   24.0110 N   0  0  0  0  0  0  0  0  0  0  0  0
    6.7324  -13.0183   25.0710 C   0  0  0  0  0  0  0  0  0  0  0  0
    6.4635  -11.7391   25.4883 C   0  0  0  0  0  0  0  0  0  0  0  0
    7.0564  -11.2714   26.6415 C   0  0  0  0  0  0  0  0  0  0  0  0
    7.9068  -12.0442   27.3850 C   0  0  0  0  0  0  0  0  0  0  0  0
    8.1665  -13.3419   26.9432 C   0  0  0  0  0  0  0  0  0  0  0  0
    7.5904  -13.8334   25.8008 C   0  0  0  0  0  0  0  0  0  0  0  0
   10.7707  -17.2485   25.6057 C   0  0  0  0  0  0  0  0  0  0  0  0
   11.0418  -17.1413   26.8363 O   0  0  0  0  0  0  0  0  0  0  0  0
   11.4603  -18.2600   24.8407 N   0  0  0  0  0  0  0  0  0  0  0  0
   12.2915  -19.2084   25.5308 C   0  0  1  0  0  0  0  0  0  0  0  0
   12.5026  -20.4279   24.6309 C   0  0  0  0  0  0  0  0  0  0  0  0
   11.2128  -21.0101   24.1994 C   0  0  0  0  0  0  0  0  0  0  0  0
   10.0691  -21.0743   24.9514 C   0  0  0  0  0  0  0  0  0  0  0  0
    9.1401  -21.6786   24.1771 N   0  0  0  0  0  0  0  0  0  0  0  0
    9.6664  -21.9877   22.9813 C   0  0  0  0  0  0  0  0  0  0  0  0
   10.9466  -21.5657   23.0178 N   0  0  0  0  0  0  0  0  0  0  0  0
   13.6512  -18.6926   25.8160 C   0  0  0  0  0  0  0  0  0  0  0  0
   14.5758  -19.4820   26.4770 O   0  0  0  0  0  0  0  0  0  0  0  0
   13.9191  -17.5227   25.4356 O   0  0  0  0  0  0  0  0  0  0  0  0
  2  1  1  6
  2  4  1  0
  2  3  1  0
  4  5  2  0
  6  7  1  0
  6  4  1  0
  7  8  1  1
  9  8  1  0
  9 10  2  0
 11 10  1  0
 12 11  1  0
 13 12  2  0
 14 13  1  0
 15 14  2  0
 15 16  1  0
 16 17  2  0
 17 12  1  0
 17  9  1  0
 18 20  1  0
 18  7  1  0
 19 18  2  0
 21 28  1  0
 21 20  1  0
 21 22  1  6
 22 23  1  0
 23 27  1  0
 23 24  2  0
 24 25  1  0
 26 25  1  0
 27 26  2  0
 28 29  1  0
 30 28  2  0
M  END
$$$$
