AWH.pdb
     RDKit          3D

 30 32  0  0  1  0  0  0  0  0999 V2000
    7.4669  -15.8767   19.2715 C   0  0  0  0  0  0  0  0  0  0  0  0
    7.2185  -14.8042   20.3097 C   0  0  2  0  0  0  0  0  0  0  0  0
    7.1226  -13.5379   19.6456 N   0  0  0  0  0  0  0  0  0  0  0  0
    8.3192  -14.7941   21.3344 C   0  0  0  0  0  0  0  0  0  0  0  0
    9.3620  -14.1003   21.1863 O   0  0  0  0  0  0  0  0  0  0  0  0
    8.2334  -15.5679   22.5197 N   0  0  0  0  0  0  0  0  0  0  0  0
    9.2788  -15.6006   23.5337 C   0  0  1  0  0  0  0  0  0  0  0  0
    8.7087  -15.8562   24.8928 C   0  0  0  0  0  0  0  0  0  0  0  0
    7.6567  -14.9202   25.3299 C   0  0  0  0  0  0  0  0  0  0  0  0
    6.3015  -15.2996   25.4456 C   0  0  0  0  0  0  0  0  0  0  0  0
    5.5796  -14.2577   25.8831 N   0  0  0  0  0  0  0  0  0  0  0  0
    6.3888  -13.1974   26.0654 C   0  0  0  0  0  0  0  0  0  0  0  0
    6.1605  -11.9117   26.4870 C   0  0  0  0  0  0  0  0  0  0  0  0
    7.2201  -11.0335   26.5652 C   0  0  0  0  0  0  0  0  0  0  0  0
    8.4956  -11.4042   26.2349 C   0  0  0  0  0  0  0  0  0  0  0  0
    8.7059  -12.7160   25.8089 C   0  0  0  0  0  0  0  0  0  0  0  0
    7.6712  -13.6108   25.7222 C   0  0  0  0  0  0  0  0  0  0  0  0
   10.3791  -16.4628   23.1177 C   0  0  0  0  0  0  0  0  0  0  0  0
   10.2362  -17.6028   22.5890 O   0  0  0  0  0  0  0  0  0  0  0  0
   11.7200  -15.9684   23.3212 N   0  0  0  0  0  0  0  0  0  0  0  0
   12.8324  -16.8118   22.9781 C   0  0  1  0  0  0  0  0  0  0  0  0
   14.0147  -15.9299   22.5705 C   0  0  0  0  0  0  0  0  0  0  0  0
   13.7884  -15.2996   21.2513 C   0  0  0  0  0  0  0  0  0  0  0  0
   12.9359  -15.7544   20.2796 C   0  0  0  0  0  0  0  0  0  0  0  0
   13.0394  -14.8864   19.2484 N   0  0  0  0  0  0  0  0  0  0  0  0
   13.9200  -13.9181   19.5471 C   0  0  0  0  0  0  0  0  0  0  0  0
   14.3696  -14.1936   20.7881 N   0  0  0  0  0  0  0  0  0  0  0  0
   13.3231  -17.6217   24.1179 C   0  0  0  0  0  0  0  0  0  0  0  0
   14.3812  -18.4979   23.9510 O   0  0  0  0  0  0  0  0  0  0  0  0
   12.7410  -17.4774   25.2249 O   0  0  0  0  0  0  0  0  0  0  0  0
  2  1  1  6
  2  4  1  0
  2  3  1  0
  4  5  2  0
  6  7  1  0
  6  4  1  0
  7  8  1  1
  9  8  1  0
  9 10  2  0
 11 10  1  0
 12 11  1  0
 13 12  2  0
 14 13  1  0
 15 14  2  0
 15 16  1  0
 16 17  2  0
 17 12  1  0
 17  9  1  0
 18 20  1  0
 18  7  1  0
 19 18  2  0
 21 28  1  0
 21 20  1  0
 21 22  1  1
 22 23  1  0
 23 27  1  0
 23 24  2  0
 24 25  1  0
 26 25  1  0
 27 26  2  0
 28 29  1  0
 30 28  2  0
M  END
$$$$
