AWH.pdb
     RDKit          3D

 30 32  0  0  1  0  0  0  0  0999 V2000
    7.5471  -20.2643   19.6528 C   0  0  0  0  0  0  0  0  0  0  0  0
    7.6099  -18.8282   19.1799 C   0  0  2  0  0  0  0  0  0  0  0  0
    8.3135  -18.7876   17.9320 N   0  0  0  0  0  0  0  0  0  0  0  0
    8.2835  -17.9612   20.2075 C   0  0  0  0  0  0  0  0  0  0  0  0
    9.5384  -17.8478   20.2652 O   0  0  0  0  0  0  0  0  0  0  0  0
    7.5342  -17.2282   21.1627 N   0  0  0  0  0  0  0  0  0  0  0  0
    8.1281  -16.2653   22.0806 C   0  0  1  0  0  0  0  0  0  0  0  0
    7.1347  -15.2264   22.4947 C   0  0  0  0  0  0  0  0  0  0  0  0
    7.6613  -14.1429   23.3447 C   0  0  0  0  0  0  0  0  0  0  0  0
    8.6074  -13.2033   22.8797 C   0  0  0  0  0  0  0  0  0  0  0  0
    8.8851  -12.3260   23.8550 N   0  0  0  0  0  0  0  0  0  0  0  0
    8.1690  -12.6348   24.9523 C   0  0  0  0  0  0  0  0  0  0  0  0
    8.0868  -12.0719   26.2010 C   0  0  0  0  0  0  0  0  0  0  0  0
    7.2459  -12.6356   27.1365 C   0  0  0  0  0  0  0  0  0  0  0  0
    6.4889  -13.7415   26.8588 C   0  0  0  0  0  0  0  0  0  0  0  0
    6.5873  -14.2980   25.5832 C   0  0  0  0  0  0  0  0  0  0  0  0
    7.4145  -13.7581   24.6330 C   0  0  0  0  0  0  0  0  0  0  0  0
    8.8441  -16.9448   23.1543 C   0  0  0  0  0  0  0  0  0  0  0  0
    8.4276  -17.9789   23.7514 O   0  0  0  0  0  0  0  0  0  0  0  0
   10.1188  -16.3950   23.5503 N   0  0  0  0  0  0  0  0  0  0  0  0
   10.9964  -17.1898   24.3656 C   0  0  1  0  0  0  0  0  0  0  0  0
   12.4453  -16.8520   24.0074 C   0  0  0  0  0  0  0  0  0  0  0  0
   13.3980  -17.7087   24.7472 C   0  0  0  0  0  0  0  0  0  0  0  0
   13.1684  -18.3035   25.9601 C   0  0  0  0  0  0  0  0  0  0  0  0
   14.2937  -18.9877   26.2655 N   0  0  0  0  0  0  0  0  0  0  0  0
   15.2040  -18.8373   25.2904 C   0  0  0  0  0  0  0  0  0  0  0  0
   14.6293  -18.0440   24.3638 N   0  0  0  0  0  0  0  0  0  0  0  0
   10.8726  -16.8963   25.8128 C   0  0  0  0  0  0  0  0  0  0  0  0
   11.5206  -17.6863   26.7461 O   0  0  0  0  0  0  0  0  0  0  0  0
   10.1618  -15.9120   26.1461 O   0  0  0  0  0  0  0  0  0  0  0  0
  2  1  1  1
  2  4  1  0
  2  3  1  0
  4  5  2  0
  6  7  1  0
  6  4  1  0
  7  8  1  1
  9  8  1  0
  9 10  2  0
 11 10  1  0
 12 11  1  0
 13 12  2  0
 14 13  1  0
 15 14  2  0
 15 16  1  0
 16 17  2  0
 17 12  1  0
 17  9  1  0
 18 20  1  0
 18  7  1  0
 19 18  2  0
 21 28  1  0
 21 20  1  0
 21 22  1  6
 22 23  1  0
 23 27  1  0
 23 24  2  0
 24 25  1  0
 26 25  1  0
 27 26  2  0
 28 29  1  0
 30 28  2  0
M  END
$$$$
