AWH.pdb
     RDKit          3D

 30 32  0  0  1  0  0  0  0  0999 V2000
    9.1480  -18.0209   18.1739 C   0  0  0  0  0  0  0  0  0  0  0  0
    8.8392  -16.5450   18.3021 C   0  0  2  0  0  0  0  0  0  0  0  0
    9.6828  -15.8207   17.3979 N   0  0  0  0  0  0  0  0  0  0  0  0
    9.0432  -16.0823   19.7184 C   0  0  0  0  0  0  0  0  0  0  0  0
   10.1838  -15.7787   20.1630 O   0  0  0  0  0  0  0  0  0  0  0  0
    7.9567  -15.9657   20.6222 N   0  0  0  0  0  0  0  0  0  0  0  0
    8.1153  -15.6068   22.0251 C   0  0  1  0  0  0  0  0  0  0  0  0
    6.8173  -15.1630   22.6218 C   0  0  0  0  0  0  0  0  0  0  0  0
    6.8527  -14.8431   24.0606 C   0  0  0  0  0  0  0  0  0  0  0  0
    6.5485  -15.7945   25.0587 C   0  0  0  0  0  0  0  0  0  0  0  0
    6.6843  -15.2339   26.2693 N   0  0  0  0  0  0  0  0  0  0  0  0
    7.0650  -13.9505   26.1281 C   0  0  0  0  0  0  0  0  0  0  0  0
    7.3315  -12.9522   27.0311 C   0  0  0  0  0  0  0  0  0  0  0  0
    7.7019  -11.7086   26.5659 C   0  0  0  0  0  0  0  0  0  0  0  0
    7.8124  -11.4374   25.2289 C   0  0  0  0  0  0  0  0  0  0  0  0
    7.5372  -12.4665   24.3278 C   0  0  0  0  0  0  0  0  0  0  0  0
    7.1676  -13.7128   24.7620 C   0  0  0  0  0  0  0  0  0  0  0  0
    8.8418  -16.6446   22.7478 C   0  0  0  0  0  0  0  0  0  0  0  0
    8.6838  -17.8867   22.5697 O   0  0  0  0  0  0  0  0  0  0  0  0
    9.8111  -16.2137   23.7267 N   0  0  0  0  0  0  0  0  0  0  0  0
   10.5918  -17.2045   24.4162 C   0  0  1  0  0  0  0  0  0  0  0  0
   12.0439  -16.7273   24.4891 C   0  0  0  0  0  0  0  0  0  0  0  0
   12.9015  -17.7122   25.1844 C   0  0  0  0  0  0  0  0  0  0  0  0
   13.2098  -17.7075   26.5196 C   0  0  0  0  0  0  0  0  0  0  0  0
   14.0123  -18.7755   26.7267 N   0  0  0  0  0  0  0  0  0  0  0  0
   14.2091  -19.4352   25.5742 C   0  0  0  0  0  0  0  0  0  0  0  0
   13.5140  -18.7609   24.6360 N   0  0  0  0  0  0  0  0  0  0  0  0
   10.1732  -17.4002   25.8242 C   0  0  0  0  0  0  0  0  0  0  0  0
    9.9824  -16.3111   26.6565 O   0  0  0  0  0  0  0  0  0  0  0  0
   10.0035  -18.5834   26.2195 O   0  0  0  0  0  0  0  0  0  0  0  0
  2  1  1  1
  2  4  1  0
  2  3  1  0
  4  5  2  0
  6  7  1  0
  6  4  1  0
  7  8  1  1
  9  8  1  0
  9 10  2  0
 11 10  1  0
 12 11  1  0
 13 12  2  0
 14 13  1  0
 15 14  2  0
 15 16  1  0
 16 17  2  0
 17 12  1  0
 17  9  1  0
 18 20  1  0
 18  7  1  0
 19 18  2  0
 21 28  1  0
 21 20  1  0
 21 22  1  1
 22 23  1  0
 23 27  1  0
 23 24  2  0
 24 25  1  0
 26 25  1  0
 27 26  2  0
 28 29  1  0
 30 28  2  0
M  END
$$$$
