AWH.pdb
     RDKit          3D

 30 32  0  0  1  0  0  0  0  0999 V2000
    9.5310  -18.8757   19.0628 C   0  0  0  0  0  0  0  0  0  0  0  0
    9.5928  -17.3654   18.9904 C   0  0  2  0  0  0  0  0  0  0  0  0
   10.7391  -16.9910   18.2160 N   0  0  0  0  0  0  0  0  0  0  0  0
    9.6564  -16.7712   20.3703 C   0  0  0  0  0  0  0  0  0  0  0  0
   10.7490  -16.6213   20.9822 O   0  0  0  0  0  0  0  0  0  0  0  0
    8.4846  -16.3502   21.0490 N   0  0  0  0  0  0  0  0  0  0  0  0
    8.4966  -15.7666   22.3838 C   0  0  1  0  0  0  0  0  0  0  0  0
    7.2728  -14.9412   22.6262 C   0  0  0  0  0  0  0  0  0  0  0  0
    6.9817  -14.6307   24.0378 C   0  0  0  0  0  0  0  0  0  0  0  0
    6.5068  -15.6008   24.9474 C   0  0  0  0  0  0  0  0  0  0  0  0
    6.3537  -15.0442   26.1577 N   0  0  0  0  0  0  0  0  0  0  0  0
    6.7037  -13.7456   26.1007 C   0  0  0  0  0  0  0  0  0  0  0  0
    6.7270  -12.7441   27.0385 C   0  0  0  0  0  0  0  0  0  0  0  0
    7.1390  -11.4834   26.6630 C   0  0  0  0  0  0  0  0  0  0  0  0
    7.5262  -11.1982   25.3817 C   0  0  0  0  0  0  0  0  0  0  0  0
    7.4952  -12.2308   24.4439 C   0  0  0  0  0  0  0  0  0  0  0  0
    7.0908  -13.4940   24.7892 C   0  0  0  0  0  0  0  0  0  0  0  0
    8.8097  -16.7758   23.3890 C   0  0  0  0  0  0  0  0  0  0  0  0
    8.4804  -17.9942   23.3085 O   0  0  0  0  0  0  0  0  0  0  0  0
    9.5535  -16.3453   24.5489 N   0  0  0  0  0  0  0  0  0  0  0  0
   10.7218  -17.0856   24.9406 C   0  0  1  0  0  0  0  0  0  0  0  0
   11.9393  -16.5088   24.2149 C   0  0  0  0  0  0  0  0  0  0  0  0
   13.1327  -17.3636   24.3995 C   0  0  0  0  0  0  0  0  0  0  0  0
   13.1798  -18.5346   25.1097 C   0  0  0  0  0  0  0  0  0  0  0  0
   14.4525  -18.9813   25.0195 N   0  0  0  0  0  0  0  0  0  0  0  0
   15.1882  -18.1330   24.2836 C   0  0  0  0  0  0  0  0  0  0  0  0
   14.3528  -17.1422   23.9116 N   0  0  0  0  0  0  0  0  0  0  0  0
   11.0326  -16.9629   26.3843 C   0  0  0  0  0  0  0  0  0  0  0  0
   11.8152  -17.9136   27.0161 O   0  0  0  0  0  0  0  0  0  0  0  0
   10.5584  -15.9707   26.9973 O   0  0  0  0  0  0  0  0  0  0  0  0
  2  1  1  1
  2  4  1  0
  2  3  1  0
  4  5  2  0
  6  7  1  0
  6  4  1  0
  7  8  1  1
  9  8  1  0
  9 10  2  0
 11 10  1  0
 12 11  1  0
 13 12  2  0
 14 13  1  0
 15 14  2  0
 15 16  1  0
 16 17  2  0
 17 12  1  0
 17  9  1  0
 18 20  1  0
 18  7  1  0
 19 18  2  0
 21 28  1  0
 21 20  1  0
 21 22  1  6
 22 23  1  0
 23 27  1  0
 23 24  2  0
 24 25  1  0
 26 25  1  0
 27 26  2  0
 28 29  1  0
 30 28  2  0
M  END
$$$$
