AWH.pdb
     RDKit          3D

 30 32  0  0  1  0  0  0  0  0999 V2000
    6.5966  -14.3742   20.9679 C   0  0  0  0  0  0  0  0  0  0  0  0
    7.3356  -15.6821   21.1506 C   0  0  2  0  0  0  0  0  0  0  0  0
    6.3906  -16.6938   21.5210 N   0  0  0  0  0  0  0  0  0  0  0  0
    8.4115  -15.5414   22.1918 C   0  0  0  0  0  0  0  0  0  0  0  0
    9.3286  -14.6814   22.0913 O   0  0  0  0  0  0  0  0  0  0  0  0
    8.4432  -16.3735   23.3397 N   0  0  0  0  0  0  0  0  0  0  0  0
    9.4280  -16.2346   24.4042 C   0  0  1  0  0  0  0  0  0  0  0  0
    8.7736  -16.2116   25.7492 C   0  0  0  0  0  0  0  0  0  0  0  0
    7.7052  -15.2103   25.9220 C   0  0  0  0  0  0  0  0  0  0  0  0
    6.3352  -15.5523   25.9203 C   0  0  0  0  0  0  0  0  0  0  0  0
    5.5974  -14.4505   26.1197 N   0  0  0  0  0  0  0  0  0  0  0  0
    6.4102  -13.3858   26.2545 C   0  0  0  0  0  0  0  0  0  0  0  0
    6.1714  -12.0512   26.4660 C   0  0  0  0  0  0  0  0  0  0  0  0
    7.2397  -11.1846   26.5541 C   0  0  0  0  0  0  0  0  0  0  0  0
    8.5339  -11.6141   26.4369 C   0  0  0  0  0  0  0  0  0  0  0  0
    8.7546  -12.9749   26.2224 C   0  0  0  0  0  0  0  0  0  0  0  0
    7.7116  -13.8595   26.1313 C   0  0  0  0  0  0  0  0  0  0  0  0
   10.5200  -17.1853   24.2288 C   0  0  0  0  0  0  0  0  0  0  0  0
   10.3698  -18.3965   23.8974 O   0  0  0  0  0  0  0  0  0  0  0  0
   11.8618  -16.6981   24.4437 N   0  0  0  0  0  0  0  0  0  0  0  0
   12.9644  -17.6093   24.3003 C   0  0  1  0  0  0  0  0  0  0  0  0
   14.1157  -16.8861   23.5982 C   0  0  0  0  0  0  0  0  0  0  0  0
   13.7086  -16.3903   22.2650 C   0  0  0  0  0  0  0  0  0  0  0  0
   13.0233  -17.1045   21.3174 C   0  0  0  0  0  0  0  0  0  0  0  0
   12.8629  -16.2760   20.2613 N   0  0  0  0  0  0  0  0  0  0  0  0
   13.4213  -15.0832   20.5216 C   0  0  0  0  0  0  0  0  0  0  0  0
   13.9372  -15.1769   21.7638 N   0  0  0  0  0  0  0  0  0  0  0  0
   13.5196  -18.0612   25.5979 C   0  0  0  0  0  0  0  0  0  0  0  0
   14.5758  -18.9545   25.6352 O   0  0  0  0  0  0  0  0  0  0  0  0
   12.9930  -17.6021   26.6452 O   0  0  0  0  0  0  0  0  0  0  0  0
  2  1  1  1
  2  4  1  0
  2  3  1  0
  4  5  2  0
  6  7  1  0
  6  4  1  0
  7  8  1  1
  9  8  1  0
  9 10  2  0
 11 10  1  0
 12 11  1  0
 13 12  2  0
 14 13  1  0
 15 14  2  0
 15 16  1  0
 16 17  2  0
 17 12  1  0
 17  9  1  0
 18 20  1  0
 18  7  1  0
 19 18  2  0
 21 28  1  0
 21 20  1  0
 21 22  1  6
 22 23  1  0
 23 27  1  0
 23 24  2  0
 24 25  1  0
 26 25  1  0
 27 26  2  0
 28 29  1  0
 30 28  2  0
M  END
$$$$
