AWH.pdb
     RDKit          3D

 30 32  0  0  1  0  0  0  0  0999 V2000
    8.1622  -15.0920   19.4777 C   0  0  0  0  0  0  0  0  0  0  0  0
    8.3558  -16.3576   20.2844 C   0  0  2  0  0  0  0  0  0  0  0  0
    7.0808  -16.7824   20.7822 N   0  0  0  0  0  0  0  0  0  0  0  0
    9.3245  -16.1246   21.4108 C   0  0  0  0  0  0  0  0  0  0  0  0
   10.5371  -15.8479   21.2011 O   0  0  0  0  0  0  0  0  0  0  0  0
    8.9161  -16.2057   22.7664 N   0  0  0  0  0  0  0  0  0  0  0  0
    9.8258  -16.0280   23.8902 C   0  0  1  0  0  0  0  0  0  0  0  0
    9.6529  -14.6826   24.5209 C   0  0  0  0  0  0  0  0  0  0  0  0
    8.3035  -14.3885   25.0371 C   0  0  0  0  0  0  0  0  0  0  0  0
    7.2665  -15.3469   25.0439 C   0  0  0  0  0  0  0  0  0  0  0  0
    6.1643  -14.8115   25.5886 N   0  0  0  0  0  0  0  0  0  0  0  0
    6.4150  -13.5383   25.9466 C   0  0  0  0  0  0  0  0  0  0  0  0
    5.6437  -12.5643   26.5290 C   0  0  0  0  0  0  0  0  0  0  0  0
    6.1974  -11.3251   26.7697 C   0  0  0  0  0  0  0  0  0  0  0  0
    7.4949  -11.0347   26.4452 C   0  0  0  0  0  0  0  0  0  0  0  0
    8.2618  -12.0393   25.8540 C   0  0  0  0  0  0  0  0  0  0  0  0
    7.7376  -13.2807   25.6038 C   0  0  0  0  0  0  0  0  0  0  0  0
    9.7748  -17.1775   24.7865 C   0  0  0  0  0  0  0  0  0  0  0  0
    8.7093  -17.7395   25.1716 O   0  0  0  0  0  0  0  0  0  0  0  0
   11.0333  -17.7072   25.2548 N   0  0  0  0  0  0  0  0  0  0  0  0
   11.0240  -18.7774   26.2146 C   0  0  1  0  0  0  0  0  0  0  0  0
   11.9534  -19.8897   25.7241 C   0  0  0  0  0  0  0  0  0  0  0  0
   11.6227  -20.2990   24.3414 C   0  0  0  0  0  0  0  0  0  0  0  0
   10.4822  -20.9483   23.9471 C   0  0  0  0  0  0  0  0  0  0  0  0
   10.5903  -21.1263   22.6113 N   0  0  0  0  0  0  0  0  0  0  0  0
   11.7496  -20.6131   22.1698 C   0  0  0  0  0  0  0  0  0  0  0  0
   12.3703  -20.1079   23.2550 N   0  0  0  0  0  0  0  0  0  0  0  0
   11.5567  -18.3778   27.5384 C   0  0  0  0  0  0  0  0  0  0  0  0
   12.0052  -17.0862   27.7525 O   0  0  0  0  0  0  0  0  0  0  0  0
   11.5819  -19.2541   28.4419 O   0  0  0  0  0  0  0  0  0  0  0  0
  2  1  1  1
  2  4  1  0
  2  3  1  0
  4  5  2  0
  6  7  1  0
  6  4  1  0
  7  8  1  1
  9  8  1  0
  9 10  2  0
 11 10  1  0
 12 11  1  0
 13 12  2  0
 14 13  1  0
 15 14  2  0
 15 16  1  0
 16 17  2  0
 17 12  1  0
 17  9  1  0
 18 20  1  0
 18  7  1  0
 19 18  2  0
 21 28  1  0
 21 20  1  0
 21 22  1  6
 22 23  1  0
 23 27  1  0
 23 24  2  0
 24 25  1  0
 26 25  1  0
 27 26  2  0
 28 29  1  0
 30 28  2  0
M  END
$$$$
