AWH.pdb
     RDKit          3D

 30 32  0  0  1  0  0  0  0  0999 V2000
    6.9726  -13.7613   20.4056 C   0  0  0  0  0  0  0  0  0  0  0  0
    7.6046  -15.1217   20.6052 C   0  0  2  0  0  0  0  0  0  0  0  0
    6.5705  -16.0669   20.9071 N   0  0  0  0  0  0  0  0  0  0  0  0
    8.6292  -15.0734   21.7049 C   0  0  0  0  0  0  0  0  0  0  0  0
    9.6302  -14.3079   21.6507 O   0  0  0  0  0  0  0  0  0  0  0  0
    8.5154  -15.8904   22.8585 N   0  0  0  0  0  0  0  0  0  0  0  0
    9.4295  -15.8124   23.9901 C   0  0  1  0  0  0  0  0  0  0  0  0
    8.7251  -16.1017   25.2776 C   0  0  0  0  0  0  0  0  0  0  0  0
    7.6280  -15.1804   25.6259 C   0  0  0  0  0  0  0  0  0  0  0  0
    6.2793  -15.5937   25.6897 C   0  0  0  0  0  0  0  0  0  0  0  0
    5.5089  -14.5572   26.0504 N   0  0  0  0  0  0  0  0  0  0  0  0
    6.2794  -13.4682   26.2307 C   0  0  0  0  0  0  0  0  0  0  0  0
    5.9960  -12.1746   26.5902 C   0  0  0  0  0  0  0  0  0  0  0  0
    7.0266  -11.2642   26.6860 C   0  0  0  0  0  0  0  0  0  0  0  0
    8.3264  -11.6103   26.4333 C   0  0  0  0  0  0  0  0  0  0  0  0
    8.5927  -12.9307   26.0695 C   0  0  0  0  0  0  0  0  0  0  0  0
    7.5879  -13.8573   25.9671 C   0  0  0  0  0  0  0  0  0  0  0  0
   10.6455  -16.5741   23.7288 C   0  0  0  0  0  0  0  0  0  0  0  0
   10.6705  -17.7987   23.4136 O   0  0  0  0  0  0  0  0  0  0  0  0
   11.9017  -15.8706   23.8329 N   0  0  0  0  0  0  0  0  0  0  0  0
   13.1208  -16.5773   23.5483 C   0  0  1  0  0  0  0  0  0  0  0  0
   14.2820  -15.5807   23.5493 C   0  0  0  0  0  0  0  0  0  0  0  0
   15.5802  -16.2644   23.3589 C   0  0  0  0  0  0  0  0  0  0  0  0
   15.8943  -17.5262   23.7911 C   0  0  0  0  0  0  0  0  0  0  0  0
   17.1714  -17.7506   23.4085 N   0  0  0  0  0  0  0  0  0  0  0  0
   17.6537  -16.6789   22.7597 C   0  0  0  0  0  0  0  0  0  0  0  0
   16.6542  -15.7740   22.7411 N   0  0  0  0  0  0  0  0  0  0  0  0
   13.4667  -17.5821   24.5811 C   0  0  0  0  0  0  0  0  0  0  0  0
   14.1128  -18.7544   24.2297 O   0  0  0  0  0  0  0  0  0  0  0  0
   13.1495  -17.3229   25.7715 O   0  0  0  0  0  0  0  0  0  0  0  0
  2  1  1  1
  2  4  1  0
  2  3  1  0
  4  5  2  0
  6  7  1  0
  6  4  1  0
  7  8  1  1
  9  8  1  0
  9 10  2  0
 11 10  1  0
 12 11  1  0
 13 12  2  0
 14 13  1  0
 15 14  2  0
 15 16  1  0
 16 17  2  0
 17 12  1  0
 17  9  1  0
 18 20  1  0
 18  7  1  0
 19 18  2  0
 21 28  1  0
 21 20  1  0
 21 22  1  1
 22 23  1  0
 23 27  1  0
 23 24  2  0
 24 25  1  0
 26 25  1  0
 27 26  2  0
 28 29  1  0
 30 28  2  0
M  END
$$$$
