AWH.pdb
     RDKit          3D

 30 32  0  0  1  0  0  0  0  0999 V2000
   10.5554  -19.3834   21.5052 C   0  0  0  0  0  0  0  0  0  0  0  0
    9.7014  -18.1411   21.6381 C   0  0  2  0  0  0  0  0  0  0  0  0
   10.2212  -17.1327   20.7626 N   0  0  0  0  0  0  0  0  0  0  0  0
    9.6828  -17.6612   23.0632 C   0  0  0  0  0  0  0  0  0  0  0  0
   10.7009  -17.1561   23.6101 O   0  0  0  0  0  0  0  0  0  0  0  0
    8.5136  -17.7552   23.8601 N   0  0  0  0  0  0  0  0  0  0  0  0
    8.4355  -17.2669   25.2304 C   0  0  1  0  0  0  0  0  0  0  0  0
    7.1343  -16.5747   25.4865 C   0  0  0  0  0  0  0  0  0  0  0  0
    7.0362  -15.1932   24.9811 C   0  0  0  0  0  0  0  0  0  0  0  0
    6.8757  -14.8946   23.6103 C   0  0  0  0  0  0  0  0  0  0  0  0
    6.7933  -13.5662   23.4470 N   0  0  0  0  0  0  0  0  0  0  0  0
    6.8916  -12.9609   24.6454 C   0  0  0  0  0  0  0  0  0  0  0  0
    6.8732  -11.6436   25.0289 C   0  0  0  0  0  0  0  0  0  0  0  0
    7.0067  -11.3323   26.3652 C   0  0  0  0  0  0  0  0  0  0  0  0
    7.1575  -12.2978   27.3235 C   0  0  0  0  0  0  0  0  0  0  0  0
    7.1732  -13.6309   26.9121 C   0  0  0  0  0  0  0  0  0  0  0  0
    7.0419  -13.9696   25.5905 C   0  0  0  0  0  0  0  0  0  0  0  0
    8.8137  -18.3108   26.1761 C   0  0  0  0  0  0  0  0  0  0  0  0
    8.1193  -19.3379   26.4257 O   0  0  0  0  0  0  0  0  0  0  0  0
   10.0730  -18.1549   26.8644 N   0  0  0  0  0  0  0  0  0  0  0  0
   10.4813  -19.1622   27.8052 C   0  0  1  0  0  0  0  0  0  0  0  0
   10.6810  -20.4835   27.0597 C   0  0  0  0  0  0  0  0  0  0  0  0
   11.7823  -20.3874   26.0765 C   0  0  0  0  0  0  0  0  0  0  0  0
   12.4937  -19.2556   25.7756 C   0  0  0  0  0  0  0  0  0  0  0  0
   13.3952  -19.6140   24.8340 N   0  0  0  0  0  0  0  0  0  0  0  0
   13.2664  -20.9187   24.5449 C   0  0  0  0  0  0  0  0  0  0  0  0
   12.2649  -21.3754   25.3237 N   0  0  0  0  0  0  0  0  0  0  0  0
   11.7876  -18.8705   28.4411 C   0  0  0  0  0  0  0  0  0  0  0  0
   12.5390  -17.7828   28.0319 O   0  0  0  0  0  0  0  0  0  0  0  0
   12.1741  -19.6463   29.3543 O   0  0  0  0  0  0  0  0  0  0  0  0
  2  1  1  1
  2  4  1  0
  2  3  1  0
  4  5  2  0
  6  7  1  0
  6  4  1  0
  7  8  1  1
  9  8  1  0
  9 10  2  0
 11 10  1  0
 12 11  1  0
 13 12  2  0
 14 13  1  0
 15 14  2  0
 15 16  1  0
 16 17  2  0
 17 12  1  0
 17  9  1  0
 18 20  1  0
 18  7  1  0
 19 18  2  0
 21 28  1  0
 21 20  1  0
 21 22  1  6
 22 23  1  0
 23 27  1  0
 23 24  2  0
 24 25  1  0
 26 25  1  0
 27 26  2  0
 28 29  1  0
 30 28  2  0
M  END
$$$$
