AWH.pdb
     RDKit          3D

 30 32  0  0  1  0  0  0  0  0999 V2000
    7.9073  -19.6409   20.7225 C   0  0  0  0  0  0  0  0  0  0  0  0
    8.2748  -18.2360   20.2969 C   0  0  2  0  0  0  0  0  0  0  0  0
    8.9280  -18.2999   19.0229 N   0  0  0  0  0  0  0  0  0  0  0  0
    9.1591  -17.5855   21.3247 C   0  0  0  0  0  0  0  0  0  0  0  0
   10.3873  -17.8575   21.4159 O   0  0  0  0  0  0  0  0  0  0  0  0
    8.6491  -16.6318   22.2421 N   0  0  0  0  0  0  0  0  0  0  0  0
    9.4567  -16.0065   23.2808 C   0  0  1  0  0  0  0  0  0  0  0  0
    9.1006  -14.5635   23.4499 C   0  0  0  0  0  0  0  0  0  0  0  0
    7.9525  -14.2888   24.3332 C   0  0  0  0  0  0  0  0  0  0  0  0
    6.9743  -15.2619   24.6335 C   0  0  0  0  0  0  0  0  0  0  0  0
    6.0678  -14.7424   25.4741 N   0  0  0  0  0  0  0  0  0  0  0  0
    6.3934  -13.4658   25.7504 C   0  0  0  0  0  0  0  0  0  0  0  0
    5.8087  -12.5031   26.5341 C   0  0  0  0  0  0  0  0  0  0  0  0
    6.3912  -11.2561   26.6109 C   0  0  0  0  0  0  0  0  0  0  0  0
    7.5368  -10.9472   25.9286 C   0  0  0  0  0  0  0  0  0  0  0  0
    8.1151  -11.9405   25.1378 C   0  0  0  0  0  0  0  0  0  0  0  0
    7.5582  -13.1893   25.0434 C   0  0  0  0  0  0  0  0  0  0  0  0
    9.4664  -16.8198   24.4914 C   0  0  0  0  0  0  0  0  0  0  0  0
    8.4332  -17.2990   25.0414 O   0  0  0  0  0  0  0  0  0  0  0  0
   10.7496  -17.0973   25.0914 N   0  0  0  0  0  0  0  0  0  0  0  0
   10.8003  -17.8833   26.2939 C   0  0  1  0  0  0  0  0  0  0  0  0
   10.6370  -19.3599   25.9271 C   0  0  0  0  0  0  0  0  0  0  0  0
   11.5802  -19.7583   24.8592 C   0  0  0  0  0  0  0  0  0  0  0  0
   11.2544  -20.0071   23.5516 C   0  0  0  0  0  0  0  0  0  0  0  0
   12.4087  -20.3370   22.9299 N   0  0  0  0  0  0  0  0  0  0  0  0
   13.4290  -20.3009   23.8017 C   0  0  0  0  0  0  0  0  0  0  0  0
   12.8940  -19.9414   24.9861 N   0  0  0  0  0  0  0  0  0  0  0  0
   12.1041  -17.7958   26.9929 C   0  0  0  0  0  0  0  0  0  0  0  0
   13.1349  -17.0405   26.4616 O   0  0  0  0  0  0  0  0  0  0  0  0
   12.2267  -18.4308   28.0731 O   0  0  0  0  0  0  0  0  0  0  0  0
  2  1  1  1
  2  4  1  0
  2  3  1  0
  4  5  2  0
  6  7  1  0
  6  4  1  0
  7  8  1  1
  9  8  1  0
  9 10  2  0
 11 10  1  0
 12 11  1  0
 13 12  2  0
 14 13  1  0
 15 14  2  0
 15 16  1  0
 16 17  2  0
 17 12  1  0
 17  9  1  0
 18 20  1  0
 18  7  1  0
 19 18  2  0
 21 28  1  0
 21 20  1  0
 21 22  1  6
 22 23  1  0
 23 27  1  0
 23 24  2  0
 24 25  1  0
 26 25  1  0
 27 26  2  0
 28 29  1  0
 30 28  2  0
M  END
$$$$
