IRQ.pdb
     RDKit          3D

 29 28  0  0  1  0  0  0  0  0999 V2000
    6.4727  -11.6636   28.0048 C   0  0  0  0  0  0  0  0  0  0  0  0
    5.8830  -12.8611   27.3182 C   0  0  0  0  0  0  0  0  0  0  0  0
    6.9436  -13.3975   26.3229 C   0  0  2  0  0  0  0  0  0  0  0  0
    7.3946  -12.1811   25.5357 C   0  0  0  0  0  0  0  0  0  0  0  0
    6.3054  -14.4350   25.4779 C   0  0  2  0  0  0  0  0  0  0  0  0
    6.0586  -15.6533   26.2992 N   0  0  0  0  0  0  0  0  0  0  0  0
    7.0136  -14.9070   24.2835 C   0  0  0  0  0  0  0  0  0  0  0  0
    7.5749  -16.0774   24.3217 O   0  0  0  0  0  0  0  0  0  0  0  0
    9.6144  -15.1664   16.3224 N   0  0  0  0  0  0  0  0  0  0  0  0
    8.3573  -14.4864   16.2958 C   0  0  0  0  0  0  0  0  0  0  0  0
    8.0983  -13.7619   15.2716 N   0  0  0  0  0  0  0  0  0  0  0  0
    7.4277  -14.6086   17.3626 N   0  0  0  0  0  0  0  0  0  0  0  0
    7.6297  -15.6025   18.3962 C   0  0  0  0  0  0  0  0  0  0  0  0
    8.4954  -15.0866   19.5032 C   0  0  0  0  0  0  0  0  0  0  0  0
    7.7580  -14.3835   20.5972 C   0  0  0  0  0  0  0  0  0  0  0  0
    7.9030  -14.8801   21.9660 C   0  0  2  0  0  0  0  0  0  0  0  0
    7.1824  -14.2551   23.0362 N   0  0  0  0  0  0  0  0  0  0  0  0
    9.3503  -15.1004   22.3488 C   0  0  0  0  0  0  0  0  0  0  0  0
    9.9656  -14.0869   22.7876 O   0  0  0  0  0  0  0  0  0  0  0  0
    7.2397  -13.2203   15.0922 N   0  0  0  0  0  0  0  0  0  0  0  0
   11.4282  -20.0176   25.8513 C   0  0  0  0  0  0  0  0  0  0  0  0
   12.2779  -18.9113   25.4843 O   0  0  0  0  0  0  0  0  0  0  0  0
   12.8643  -18.3606   26.4429 C   0  0  0  0  0  0  0  0  0  0  0  0
   12.4098  -18.5035   24.0753 C   0  0  0  0  0  0  0  0  0  0  0  0
   11.1215  -18.0016   23.5025 C   0  0  1  0  0  0  0  0  0  0  0  0
   11.2165  -16.6482   22.8697 N   0  0  0  0  0  0  0  0  0  0  0  0
    9.9459  -16.3551   22.2168 C   0  0  0  0  0  0  0  0  0  0  0  0
   12.2627  -16.6418   21.7965 O   0  0  0  0  0  0  0  0  0  0  0  0
   12.0263  -17.1606   20.5449 O   0  0  0  0  0  0  0  0  0  0  0  0
  2  3  1  0
  2  1  1  0
  3  4  1  6
  5  6  1  1
  5  3  1  0
  7  5  1  0
  8  7  2  0
  9 10  1  0
 10 12  1  0
 11 10  2  0
 13 12  1  0
 13 14  1  0
 15 14  1  0
 16 15  1  6
 16 17  1  0
 17  7  1  0
 18 16  1  0
 18 26  1  0
 19 18  2  0
 20 21  1  0
 21 23  1  0
 22 21  2  0
 23 24  1  0
 25 26  1  0
 25 24  1  1
 25 27  1  0
 27 28  1  0
 29 27  2  0
M  END
$$$$
