IRQ.pdb
     RDKit          3D

 29 28  0  0  1  0  0  0  0  0999 V2000
    7.3730  -11.5593   19.9766 C   0  0  0  0  0  0  0  0  0  0  0  0
    7.2600  -12.9090   19.3294 C   0  0  0  0  0  0  0  0  0  0  0  0
    8.2342  -13.8631   20.0668 C   0  0  2  0  0  0  0  0  0  0  0  0
    9.6016  -13.2229   19.9149 C   0  0  0  0  0  0  0  0  0  0  0  0
    8.1431  -15.2005   19.4339 C   0  0  2  0  0  0  0  0  0  0  0  0
    6.7446  -15.7021   19.5455 N   0  0  0  0  0  0  0  0  0  0  0  0
    8.9877  -16.2840   19.9476 C   0  0  0  0  0  0  0  0  0  0  0  0
    8.5935  -16.9240   21.0064 O   0  0  0  0  0  0  0  0  0  0  0  0
   10.7509  -18.9137   14.8985 N   0  0  0  0  0  0  0  0  0  0  0  0
   12.1628  -18.9071   15.1219 C   0  0  0  0  0  0  0  0  0  0  0  0
   12.8864  -18.2271   14.3126 N   0  0  0  0  0  0  0  0  0  0  0  0
   12.7442  -19.6250   16.2006 N   0  0  0  0  0  0  0  0  0  0  0  0
   11.9019  -20.2956   17.1690 C   0  0  0  0  0  0  0  0  0  0  0  0
   11.0461  -19.3290   17.9267 C   0  0  0  0  0  0  0  0  0  0  0  0
   11.6594  -18.8048   19.1853 C   0  0  0  0  0  0  0  0  0  0  0  0
   10.8676  -17.9035   20.0231 C   0  0  2  0  0  0  0  0  0  0  0  0
   10.2207  -16.7648   19.4399 N   0  0  0  0  0  0  0  0  0  0  0  0
   11.5883  -17.5187   21.2968 C   0  0  0  0  0  0  0  0  0  0  0  0
   12.2512  -16.4431   21.2525 O   0  0  0  0  0  0  0  0  0  0  0  0
   13.9130  -18.1330   14.3229 N   0  0  0  0  0  0  0  0  0  0  0  0
   10.8092  -20.4159   26.8531 C   0  0  0  0  0  0  0  0  0  0  0  0
   11.9363  -19.5522   27.1071 O   0  0  0  0  0  0  0  0  0  0  0  0
   12.4441  -19.6744   28.2443 C   0  0  0  0  0  0  0  0  0  0  0  0
   12.4121  -18.6181   26.0728 C   0  0  0  0  0  0  0  0  0  0  0  0
   11.6503  -18.7478   24.7912 C   0  0  1  0  0  0  0  0  0  0  0  0
   12.2095  -17.9424   23.6599 N   0  0  0  0  0  0  0  0  0  0  0  0
   11.5098  -18.3188   22.4370 C   0  0  0  0  0  0  0  0  0  0  0  0
   13.6561  -18.2704   23.4456 O   0  0  0  0  0  0  0  0  0  0  0  0
   14.6643  -17.5219   24.0068 O   0  0  0  0  0  0  0  0  0  0  0  0
  2  3  1  0
  2  1  1  0
  3  4  1  6
  5  6  1  1
  5  3  1  0
  7  5  1  0
  8  7  2  0
  9 10  1  0
 10 12  1  0
 11 10  2  0
 13 12  1  0
 13 14  1  0
 15 14  1  0
 16 15  1  6
 16 17  1  0
 17  7  1  0
 18 16  1  0
 18 26  1  0
 19 18  2  0
 20 21  1  0
 21 23  1  0
 22 21  2  0
 23 24  1  0
 25 26  1  0
 25 24  1  1
 25 27  1  0
 27 28  1  0
 29 27  2  0
M  END
$$$$
