IRQ.pdb
     RDKit          3D

 29 28  0  0  1  0  0  0  0  0999 V2000
    8.8429  -11.9888   27.6908 C   0  0  0  0  0  0  0  0  0  0  0  0
    7.9309  -13.1520   27.4294 C   0  0  0  0  0  0  0  0  0  0  0  0
    8.3374  -13.7662   26.0653 C   0  0  2  0  0  0  0  0  0  0  0  0
    8.2487  -12.6193   25.0757 C   0  0  0  0  0  0  0  0  0  0  0  0
    7.4028  -14.8751   25.7578 C   0  0  2  0  0  0  0  0  0  0  0  0
    7.3667  -15.8201   26.9091 N   0  0  0  0  0  0  0  0  0  0  0  0
    7.6587  -15.7079   24.5780 C   0  0  0  0  0  0  0  0  0  0  0  0
    8.1156  -16.9099   24.7590 O   0  0  0  0  0  0  0  0  0  0  0  0
    8.7562  -14.6767   17.1277 N   0  0  0  0  0  0  0  0  0  0  0  0
    7.8699  -13.5929   17.4168 C   0  0  0  0  0  0  0  0  0  0  0  0
    8.2414  -12.4168   17.0708 N   0  0  0  0  0  0  0  0  0  0  0  0
    6.6232  -13.8090   18.0618 N   0  0  0  0  0  0  0  0  0  0  0  0
    6.4082  -15.0026   18.8530 C   0  0  0  0  0  0  0  0  0  0  0  0
    7.3676  -15.0915   19.9987 C   0  0  0  0  0  0  0  0  0  0  0  0
    7.1768  -16.2820   20.8826 C   0  0  0  0  0  0  0  0  0  0  0  0
    7.8593  -16.3052   22.1769 C   0  0  2  0  0  0  0  0  0  0  0  0
    7.4704  -15.3900   23.2095 N   0  0  0  0  0  0  0  0  0  0  0  0
    9.3651  -16.3462   22.0336 C   0  0  0  0  0  0  0  0  0  0  0  0
    9.8452  -15.6940   21.0629 O   0  0  0  0  0  0  0  0  0  0  0  0
    7.7587  -11.5275   17.2679 N   0  0  0  0  0  0  0  0  0  0  0  0
   13.1048  -13.6890   20.5463 C   0  0  0  0  0  0  0  0  0  0  0  0
   13.9208  -14.3343   21.5456 O   0  0  0  0  0  0  0  0  0  0  0  0
   14.9458  -13.6969   21.8763 C   0  0  0  0  0  0  0  0  0  0  0  0
   13.5312  -15.6414   22.1010 C   0  0  0  0  0  0  0  0  0  0  0  0
   12.0465  -15.8237   22.1460 C   0  0  1  0  0  0  0  0  0  0  0  0
   11.6038  -17.1029   22.7855 N   0  0  0  0  0  0  0  0  0  0  0  0
   10.1533  -17.0666   22.9315 C   0  0  0  0  0  0  0  0  0  0  0  0
   12.1719  -17.2242   24.1671 O   0  0  0  0  0  0  0  0  0  0  0  0
   13.5076  -17.4671   24.3875 O   0  0  0  0  0  0  0  0  0  0  0  0
  2  3  1  0
  2  1  1  0
  3  4  1  6
  5  6  1  1
  5  3  1  0
  7  5  1  0
  8  7  2  0
  9 10  1  0
 10 12  1  0
 11 10  2  0
 13 12  1  0
 13 14  1  0
 15 14  1  0
 16 15  1  6
 16 17  1  0
 17  7  1  0
 18 16  1  0
 18 26  1  0
 19 18  2  0
 20 21  1  0
 21 23  1  0
 22 21  2  0
 23 24  1  0
 25 26  1  0
 25 24  1  6
 25 27  1  0
 27 28  1  0
 29 27  2  0
M  END
$$$$
