IRQ.pdb
     RDKit          3D

 29 28  0  0  1  0  0  0  0  0999 V2000
    6.7450  -12.0791   27.7554 C   0  0  0  0  0  0  0  0  0  0  0  0
    6.1191  -13.1516   26.9121 C   0  0  0  0  0  0  0  0  0  0  0  0
    7.2500  -13.8125   26.0830 C   0  0  2  0  0  0  0  0  0  0  0  0
    7.8575  -12.6810   25.2747 C   0  0  0  0  0  0  0  0  0  0  0  0
    6.6491  -14.8738   25.2402 C   0  0  2  0  0  0  0  0  0  0  0  0
    5.9838  -15.8785   26.1165 N   0  0  0  0  0  0  0  0  0  0  0  0
    7.5214  -15.6486   24.3515 C   0  0  0  0  0  0  0  0  0  0  0  0
    8.0839  -16.7208   24.8209 O   0  0  0  0  0  0  0  0  0  0  0  0
    7.5911  -13.7972   16.5215 N   0  0  0  0  0  0  0  0  0  0  0  0
    8.1985  -13.4001   17.7532 C   0  0  0  0  0  0  0  0  0  0  0  0
    8.7569  -12.2479   17.7927 N   0  0  0  0  0  0  0  0  0  0  0  0
    8.1839  -14.2483   18.8921 N   0  0  0  0  0  0  0  0  0  0  0  0
    7.6433  -15.5884   18.7971 C   0  0  0  0  0  0  0  0  0  0  0  0
    7.6411  -16.2832   20.1230 C   0  0  0  0  0  0  0  0  0  0  0  0
    8.9303  -16.1984   20.8752 C   0  0  0  0  0  0  0  0  0  0  0  0
    8.8822  -16.1506   22.3369 C   0  0  2  0  0  0  0  0  0  0  0  0
    7.8554  -15.3987   22.9968 N   0  0  0  0  0  0  0  0  0  0  0  0
   10.2361  -15.8644   22.9490 C   0  0  0  0  0  0  0  0  0  0  0  0
   10.3249  -14.7945   23.6168 O   0  0  0  0  0  0  0  0  0  0  0  0
    9.2727  -11.8320   18.5825 N   0  0  0  0  0  0  0  0  0  0  0  0
   10.5448  -17.7625   27.4736 C   0  0  0  0  0  0  0  0  0  0  0  0
   11.8336  -18.3800   27.2777 O   0  0  0  0  0  0  0  0  0  0  0  0
   12.2641  -19.0181   28.2643 C   0  0  0  0  0  0  0  0  0  0  0  0
   12.5442  -18.2395   25.9954 C   0  0  0  0  0  0  0  0  0  0  0  0
   11.6318  -17.8461   24.8763 C   0  0  1  0  0  0  0  0  0  0  0  0
   12.2684  -16.9676   23.8447 N   0  0  0  0  0  0  0  0  0  0  0  0
   11.3050  -16.7435   22.7731 C   0  0  0  0  0  0  0  0  0  0  0  0
   13.4482  -17.6538   23.2253 O   0  0  0  0  0  0  0  0  0  0  0  0
   14.6684  -17.7183   23.8567 O   0  0  0  0  0  0  0  0  0  0  0  0
  2  3  1  0
  2  1  1  0
  3  4  1  6
  5  6  1  1
  5  3  1  0
  7  5  1  0
  8  7  2  0
  9 10  1  0
 10 12  1  0
 11 10  2  0
 13 12  1  0
 13 14  1  0
 15 14  1  0
 16 15  1  6
 16 17  1  0
 17  7  1  0
 18 16  1  0
 18 26  1  0
 19 18  2  0
 20 21  1  0
 21 23  1  0
 22 21  2  0
 23 24  1  0
 25 26  1  0
 25 24  1  1
 25 27  1  0
 27 28  1  0
 29 27  2  0
M  END
$$$$
