IRQ.pdb
     RDKit          3D

 29 28  0  0  1  0  0  0  0  0999 V2000
    6.1141  -11.4066   27.8275 C   0  0  0  0  0  0  0  0  0  0  0  0
    5.6135  -12.6178   27.0956 C   0  0  0  0  0  0  0  0  0  0  0  0
    6.7611  -13.1179   26.1813 C   0  0  2  0  0  0  0  0  0  0  0  0
    7.0467  -11.9616   25.2410 C   0  0  0  0  0  0  0  0  0  0  0  0
    6.2981  -14.3391   25.4799 C   0  0  2  0  0  0  0  0  0  0  0  0
    6.0181  -15.4047   26.4828 N   0  0  0  0  0  0  0  0  0  0  0  0
    7.1805  -14.9607   24.4869 C   0  0  0  0  0  0  0  0  0  0  0  0
    8.0476  -15.8369   24.8952 O   0  0  0  0  0  0  0  0  0  0  0  0
    8.8815  -15.8092   15.7458 N   0  0  0  0  0  0  0  0  0  0  0  0
    8.6347  -14.7192   16.6373 C   0  0  0  0  0  0  0  0  0  0  0  0
    9.0369  -13.5577   16.2766 N   0  0  0  0  0  0  0  0  0  0  0  0
    7.9677  -14.9134   17.8759 N   0  0  0  0  0  0  0  0  0  0  0  0
    7.9662  -13.8661   18.8759 C   0  0  0  0  0  0  0  0  0  0  0  0
    7.3255  -14.3156   20.1520 C   0  0  0  0  0  0  0  0  0  0  0  0
    7.9946  -15.4786   20.8114 C   0  0  0  0  0  0  0  0  0  0  0  0
    8.1711  -15.4491   22.2637 C   0  0  2  0  0  0  0  0  0  0  0  0
    7.2308  -14.7464   23.0867 N   0  0  0  0  0  0  0  0  0  0  0  0
    9.5915  -15.1156   22.6650 C   0  0  0  0  0  0  0  0  0  0  0  0
    9.8068  -13.9111   22.9831 O   0  0  0  0  0  0  0  0  0  0  0  0
    8.9910  -12.6848   16.8231 N   0  0  0  0  0  0  0  0  0  0  0  0
   11.8409  -16.5283   28.7352 C   0  0  0  0  0  0  0  0  0  0  0  0
   11.1589  -16.6659   27.4716 O   0  0  0  0  0  0  0  0  0  0  0  0
    9.9710  -17.0503   27.5566 C   0  0  0  0  0  0  0  0  0  0  0  0
   11.8535  -16.3633   26.2087 C   0  0  0  0  0  0  0  0  0  0  0  0
   10.9281  -16.3663   25.0325 C   0  0  2  0  0  0  0  0  0  0  0  0
   11.6021  -16.1125   23.7201 N   0  0  0  0  0  0  0  0  0  0  0  0
   10.5844  -16.0955   22.6757 C   0  0  0  0  0  0  0  0  0  0  0  0
   12.5417  -17.2315   23.3864 O   0  0  0  0  0  0  0  0  0  0  0  0
   12.1606  -18.2934   22.5997 O   0  0  0  0  0  0  0  0  0  0  0  0
  2  3  1  0
  2  1  1  0
  3  4  1  6
  5  6  1  1
  5  3  1  0
  7  5  1  0
  8  7  2  0
  9 10  1  0
 10 12  1  0
 11 10  2  0
 13 12  1  0
 13 14  1  0
 15 14  1  0
 16 15  1  6
 16 17  1  0
 17  7  1  0
 18 16  1  0
 18 26  1  0
 19 18  2  0
 20 21  1  0
 21 23  1  0
 22 21  2  0
 23 24  1  0
 25 26  1  0
 25 24  1  1
 25 27  1  0
 27 28  1  0
 29 27  2  0
M  END
$$$$
