IRQ.pdb
     RDKit          3D

 29 28  0  0  1  0  0  0  0  0999 V2000
    6.3043  -11.2035   27.2403 C   0  0  0  0  0  0  0  0  0  0  0  0
    5.7277  -12.3413   26.4489 C   0  0  0  0  0  0  0  0  0  0  0  0
    6.9120  -13.2011   25.9374 C   0  0  2  0  0  0  0  0  0  0  0  0
    7.7436  -12.2586   25.0873 C   0  0  0  0  0  0  0  0  0  0  0  0
    6.3598  -14.3438   25.1711 C   0  0  2  0  0  0  0  0  0  0  0  0
    5.5176  -15.1785   26.0731 N   0  0  0  0  0  0  0  0  0  0  0  0
    7.2897  -15.2793   24.5298 C   0  0  0  0  0  0  0  0  0  0  0  0
    7.9021  -16.1483   25.2755 O   0  0  0  0  0  0  0  0  0  0  0  0
    7.0874  -14.7713   17.2463 N   0  0  0  0  0  0  0  0  0  0  0  0
    8.3823  -14.1743   17.3488 C   0  0  0  0  0  0  0  0  0  0  0  0
    8.5477  -13.0244   16.8092 N   0  0  0  0  0  0  0  0  0  0  0  0
    9.4468  -14.8284   18.0240 N   0  0  0  0  0  0  0  0  0  0  0  0
    9.1750  -15.9429   18.9077 C   0  0  0  0  0  0  0  0  0  0  0  0
    9.0985  -15.5127   20.3394 C   0  0  0  0  0  0  0  0  0  0  0  0
    8.8045  -16.6131   21.3078 C   0  0  0  0  0  0  0  0  0  0  0  0
    8.6729  -16.2765   22.7257 C   0  0  2  0  0  0  0  0  0  0  0  0
    7.6338  -15.3891   23.1591 N   0  0  0  0  0  0  0  0  0  0  0  0
    9.9973  -15.9014   23.3542 C   0  0  0  0  0  0  0  0  0  0  0  0
   10.3741  -14.7077   23.1767 O   0  0  0  0  0  0  0  0  0  0  0  0
    9.3808  -12.4203   16.8720 N   0  0  0  0  0  0  0  0  0  0  0  0
   12.2183  -16.6750   28.6493 C   0  0  0  0  0  0  0  0  0  0  0  0
   11.0229  -17.2411   28.0739 O   0  0  0  0  0  0  0  0  0  0  0  0
   10.0972  -17.4504   28.8897 C   0  0  0  0  0  0  0  0  0  0  0  0
   10.9501  -17.5300   26.6316 C   0  0  0  0  0  0  0  0  0  0  0  0
   12.2280  -17.2131   25.9200 C   0  0  2  0  0  0  0  0  0  0  0  0
   12.0454  -16.4852   24.6247 N   0  0  0  0  0  0  0  0  0  0  0  0
   10.7379  -16.8339   24.0810 C   0  0  0  0  0  0  0  0  0  0  0  0
   13.0625  -16.9359   23.6203 O   0  0  0  0  0  0  0  0  0  0  0  0
   14.3950  -16.6160   23.7381 O   0  0  0  0  0  0  0  0  0  0  0  0
  2  3  1  0
  2  1  1  0
  3  4  1  6
  5  6  1  1
  5  3  1  0
  7  5  1  0
  8  7  2  0
  9 10  1  0
 10 12  1  0
 11 10  2  0
 13 12  1  0
 13 14  1  0
 15 14  1  0
 16 15  1  6
 16 17  1  0
 17  7  1  0
 18 16  1  0
 18 26  1  0
 19 18  2  0
 20 21  1  0
 21 23  1  0
 22 21  2  0
 23 24  1  0
 25 26  1  0
 25 24  1  1
 25 27  1  0
 27 28  1  0
 29 27  2  0
M  END
$$$$
