IRQ.pdb
     RDKit          3D

 29 28  0  0  1  0  0  0  0  0999 V2000
    6.3628  -11.7212   28.4362 C   0  0  0  0  0  0  0  0  0  0  0  0
    5.8153  -12.9567   27.7829 C   0  0  0  0  0  0  0  0  0  0  0  0
    6.8375  -13.4085   26.7085 C   0  0  2  0  0  0  0  0  0  0  0  0
    6.9926  -12.2133   25.7864 C   0  0  0  0  0  0  0  0  0  0  0  0
    6.2941  -14.6061   26.0243 C   0  0  2  0  0  0  0  0  0  0  0  0
    6.2916  -15.7547   26.9733 N   0  0  0  0  0  0  0  0  0  0  0  0
    6.9693  -15.0981   24.8189 C   0  0  0  0  0  0  0  0  0  0  0  0
    7.9939  -15.8827   24.9628 O   0  0  0  0  0  0  0  0  0  0  0  0
    8.3317  -13.0387   17.0440 N   0  0  0  0  0  0  0  0  0  0  0  0
    9.0187  -14.2813   16.8780 C   0  0  0  0  0  0  0  0  0  0  0  0
   10.0176  -14.3022   16.0763 N   0  0  0  0  0  0  0  0  0  0  0  0
    8.6125  -15.4498   17.5753 N   0  0  0  0  0  0  0  0  0  0  0  0
    7.5386  -15.3849   18.5446 C   0  0  0  0  0  0  0  0  0  0  0  0
    8.0330  -15.6105   19.9394 C   0  0  0  0  0  0  0  0  0  0  0  0
    7.1715  -15.0228   21.0106 C   0  0  0  0  0  0  0  0  0  0  0  0
    7.5345  -15.2645   22.4074 C   0  0  2  0  0  0  0  0  0  0  0  0
    6.6580  -14.8414   23.4600 N   0  0  0  0  0  0  0  0  0  0  0  0
    8.9645  -14.8710   22.7075 C   0  0  0  0  0  0  0  0  0  0  0  0
    9.1531  -13.6550   22.9975 O   0  0  0  0  0  0  0  0  0  0  0  0
   10.5868  -15.1197   15.8108 N   0  0  0  0  0  0  0  0  0  0  0  0
   12.1229  -17.0496   28.0032 C   0  0  0  0  0  0  0  0  0  0  0  0
   11.6478  -15.9277   27.2311 O   0  0  0  0  0  0  0  0  0  0  0  0
   10.9072  -15.1368   27.8573 C   0  0  0  0  0  0  0  0  0  0  0  0
   12.0358  -15.7723   25.8189 C   0  0  0  0  0  0  0  0  0  0  0  0
   10.8569  -15.7892   24.8971 C   0  0  1  0  0  0  0  0  0  0  0  0
   11.2062  -15.6279   23.4503 N   0  0  0  0  0  0  0  0  0  0  0  0
    9.9938  -15.8116   22.6609 C   0  0  0  0  0  0  0  0  0  0  0  0
   12.1657  -16.6953   23.0188 O   0  0  0  0  0  0  0  0  0  0  0  0
   13.5186  -16.5943   23.2452 O   0  0  0  0  0  0  0  0  0  0  0  0
  2  3  1  0
  2  1  1  0
  3  4  1  6
  5  6  1  1
  5  3  1  0
  7  5  1  0
  8  7  2  0
  9 10  1  0
 10 12  1  0
 11 10  2  0
 13 12  1  0
 13 14  1  0
 15 14  1  0
 16 15  1  6
 16 17  1  0
 17  7  1  0
 18 16  1  0
 18 26  1  0
 19 18  2  0
 20 21  1  0
 21 23  1  0
 22 21  2  0
 23 24  1  0
 25 26  1  0
 25 24  1  1
 25 27  1  0
 27 28  1  0
 29 27  2  0
M  END
$$$$
