IRQ.pdb
     RDKit          3D

 29 28  0  0  1  0  0  0  0  0999 V2000
    7.4914  -11.8238   19.4132 C   0  0  0  0  0  0  0  0  0  0  0  0
    7.4370  -13.3217   19.3321 C   0  0  0  0  0  0  0  0  0  0  0  0
    7.7584  -13.8773   20.7431 C   0  0  2  0  0  0  0  0  0  0  0  0
    9.1319  -13.3266   21.0789 C   0  0  0  0  0  0  0  0  0  0  0  0
    7.7238  -15.3580   20.6786 C   0  0  2  0  0  0  0  0  0  0  0  0
    6.3307  -15.8045   20.3961 N   0  0  0  0  0  0  0  0  0  0  0  0
    8.1485  -16.1263   21.8536 C   0  0  0  0  0  0  0  0  0  0  0  0
    7.3390  -16.2025   22.8660 O   0  0  0  0  0  0  0  0  0  0  0  0
   10.5153  -21.4332   27.0286 N   0  0  0  0  0  0  0  0  0  0  0  0
   10.5539  -22.1262   25.7788 C   0  0  0  0  0  0  0  0  0  0  0  0
   10.0066  -23.2833   25.7272 N   0  0  0  0  0  0  0  0  0  0  0  0
   11.1735  -21.5555   24.6356 N   0  0  0  0  0  0  0  0  0  0  0  0
   11.8554  -20.2818   24.7346 C   0  0  0  0  0  0  0  0  0  0  0  0
   10.8934  -19.1351   24.7527 C   0  0  0  0  0  0  0  0  0  0  0  0
   10.5451  -18.5902   23.4048 C   0  0  0  0  0  0  0  0  0  0  0  0
    9.6621  -17.4257   23.3311 C   0  0  2  0  0  0  0  0  0  0  0  0
    9.3588  -16.8344   22.0608 N   0  0  0  0  0  0  0  0  0  0  0  0
   10.0234  -16.3633   24.3462 C   0  0  0  0  0  0  0  0  0  0  0  0
   10.9943  -15.6139   24.0391 O   0  0  0  0  0  0  0  0  0  0  0  0
   10.0138  -23.9413   24.9336 N   0  0  0  0  0  0  0  0  0  0  0  0
    6.0736  -12.0079   25.1732 C   0  0  0  0  0  0  0  0  0  0  0  0
    6.8554  -12.6647   26.1921 O   0  0  0  0  0  0  0  0  0  0  0  0
    6.4004  -12.5562   27.3528 C   0  0  0  0  0  0  0  0  0  0  0  0
    8.0853  -13.3937   25.8388 C   0  0  0  0  0  0  0  0  0  0  0  0
    8.4469  -14.4310   26.8552 C   0  0  2  0  0  0  0  0  0  0  0  0
    9.6743  -15.2192   26.5185 N   0  0  0  0  0  0  0  0  0  0  0  0
    9.3128  -16.2385   25.5403 C   0  0  0  0  0  0  0  0  0  0  0  0
   10.1813  -15.9449   27.7279 O   0  0  0  0  0  0  0  0  0  0  0  0
   10.8116  -15.2901   28.7602 O   0  0  0  0  0  0  0  0  0  0  0  0
  2  3  1  0
  2  1  1  0
  3  4  1  6
  5  6  1  1
  5  3  1  0
  7  5  1  0
  8  7  2  0
  9 10  1  0
 10 12  1  0
 11 10  2  0
 13 12  1  0
 13 14  1  0
 15 14  1  0
 16 15  1  6
 16 17  1  0
 17  7  1  0
 18 16  1  0
 18 26  1  0
 19 18  2  0
 20 21  1  0
 21 23  1  0
 22 21  2  0
 23 24  1  0
 25 26  1  0
 25 24  1  6
 25 27  1  0
 27 28  1  0
 29 27  2  0
M  END
$$$$
