IRQ.pdb
     RDKit          3D

 29 28  0  0  1  0  0  0  0  0999 V2000
    7.0939  -12.4607   28.3991 C   0  0  0  0  0  0  0  0  0  0  0  0
    6.3677  -13.4766   27.5663 C   0  0  0  0  0  0  0  0  0  0  0  0
    7.2386  -13.7638   26.3164 C   0  0  2  0  0  0  0  0  0  0  0  0
    7.4546  -12.4090   25.6681 C   0  0  0  0  0  0  0  0  0  0  0  0
    6.5055  -14.7156   25.4478 C   0  0  2  0  0  0  0  0  0  0  0  0
    6.4012  -16.0310   26.1395 N   0  0  0  0  0  0  0  0  0  0  0  0
    7.0443  -15.0165   24.1173 C   0  0  0  0  0  0  0  0  0  0  0  0
    7.7541  -16.0938   23.9688 O   0  0  0  0  0  0  0  0  0  0  0  0
    8.6182  -14.1829   14.7385 N   0  0  0  0  0  0  0  0  0  0  0  0
    8.5468  -14.6562   16.0856 C   0  0  0  0  0  0  0  0  0  0  0  0
    9.3314  -15.6124   16.4187 N   0  0  0  0  0  0  0  0  0  0  0  0
    7.6423  -14.0887   17.0218 N   0  0  0  0  0  0  0  0  0  0  0  0
    8.1395  -13.3122   18.1384 C   0  0  0  0  0  0  0  0  0  0  0  0
    8.3721  -14.1624   19.3483 C   0  0  0  0  0  0  0  0  0  0  0  0
    7.5340  -13.8053   20.5337 C   0  0  0  0  0  0  0  0  0  0  0  0
    7.6736  -14.6041   21.7517 C   0  0  2  0  0  0  0  0  0  0  0  0
    6.8984  -14.2821   22.9137 N   0  0  0  0  0  0  0  0  0  0  0  0
    9.1214  -14.8441   22.1206 C   0  0  0  0  0  0  0  0  0  0  0  0
    9.6476  -13.9817   22.8807 O   0  0  0  0  0  0  0  0  0  0  0  0
    9.3905  -16.0794   17.3359 N   0  0  0  0  0  0  0  0  0  0  0  0
   11.3561  -19.9168   24.3827 C   0  0  0  0  0  0  0  0  0  0  0  0
   12.3257  -18.8728   24.6075 O   0  0  0  0  0  0  0  0  0  0  0  0
   13.0388  -19.0302   25.6238 C   0  0  0  0  0  0  0  0  0  0  0  0
   12.4271  -17.7326   23.6810 C   0  0  0  0  0  0  0  0  0  0  0  0
   11.0967  -17.3213   23.1328 C   0  0  1  0  0  0  0  0  0  0  0  0
   11.1663  -16.2467   22.0929 N   0  0  0  0  0  0  0  0  0  0  0  0
    9.8111  -15.9571   21.6389 C   0  0  0  0  0  0  0  0  0  0  0  0
   11.9284  -16.7240   20.8938 O   0  0  0  0  0  0  0  0  0  0  0  0
   11.2979  -17.0909   19.7279 O   0  0  0  0  0  0  0  0  0  0  0  0
  2  3  1  0
  2  1  1  0
  3  4  1  6
  5  6  1  1
  5  3  1  0
  7  5  1  0
  8  7  2  0
  9 10  1  0
 10 12  1  0
 11 10  2  0
 13 12  1  0
 13 14  1  0
 15 14  1  0
 16 15  1  6
 16 17  1  0
 17  7  1  0
 18 16  1  0
 18 26  1  0
 19 18  2  0
 20 21  1  0
 21 23  1  0
 22 21  2  0
 23 24  1  0
 25 26  1  0
 25 24  1  1
 25 27  1  0
 27 28  1  0
 29 27  2  0
M  END
$$$$
