IRQ.pdb
     RDKit          3D

 29 28  0  0  1  0  0  0  0  0999 V2000
    6.4513  -12.0728   27.0459 C   0  0  0  0  0  0  0  0  0  0  0  0
    6.0064  -13.2809   26.2740 C   0  0  0  0  0  0  0  0  0  0  0  0
    7.2576  -13.8785   25.5808 C   0  0  2  0  0  0  0  0  0  0  0  0
    7.7746  -12.7717   24.6807 C   0  0  0  0  0  0  0  0  0  0  0  0
    6.8416  -15.0902   24.8349 C   0  0  2  0  0  0  0  0  0  0  0  0
    6.3090  -16.0983   25.7940 N   0  0  0  0  0  0  0  0  0  0  0  0
    7.8413  -15.8044   24.0339 C   0  0  0  0  0  0  0  0  0  0  0  0
    8.3457  -16.9012   24.5123 O   0  0  0  0  0  0  0  0  0  0  0  0
   11.8458  -19.6290   18.4059 N   0  0  0  0  0  0  0  0  0  0  0  0
   10.7801  -19.4232   17.4756 C   0  0  0  0  0  0  0  0  0  0  0  0
   10.5818  -20.3307   16.5934 N   0  0  0  0  0  0  0  0  0  0  0  0
    9.9692  -18.2584   17.5258 N   0  0  0  0  0  0  0  0  0  0  0  0
   10.1967  -17.2543   18.5440 C   0  0  0  0  0  0  0  0  0  0  0  0
    9.6618  -17.6803   19.8756 C   0  0  0  0  0  0  0  0  0  0  0  0
    8.8726  -16.6346   20.5958 C   0  0  0  0  0  0  0  0  0  0  0  0
    9.1530  -16.4031   22.0132 C   0  0  2  0  0  0  0  0  0  0  0  0
    8.3606  -15.4693   22.7582 N   0  0  0  0  0  0  0  0  0  0  0  0
   10.6271  -16.1924   22.2820 C   0  0  0  0  0  0  0  0  0  0  0  0
   11.4216  -16.7903   21.5012 O   0  0  0  0  0  0  0  0  0  0  0  0
    9.8638  -20.3345   15.8536 N   0  0  0  0  0  0  0  0  0  0  0  0
   10.2089  -18.9388   26.6290 C   0  0  0  0  0  0  0  0  0  0  0  0
   11.6227  -18.7114   26.8028 O   0  0  0  0  0  0  0  0  0  0  0  0
   12.1820  -19.4850   27.6120 C   0  0  0  0  0  0  0  0  0  0  0  0
   12.3057  -17.6388   26.0600 C   0  0  0  0  0  0  0  0  0  0  0  0
   11.3663  -16.8481   25.2045 C   0  0  1  0  0  0  0  0  0  0  0  0
   12.0405  -15.8696   24.2940 N   0  0  0  0  0  0  0  0  0  0  0  0
   11.0576  -15.3823   23.3332 C   0  0  0  0  0  0  0  0  0  0  0  0
   13.1180  -16.5453   23.5011 O   0  0  0  0  0  0  0  0  0  0  0  0
   12.8780  -17.6827   22.7661 O   0  0  0  0  0  0  0  0  0  0  0  0
  2  3  1  0
  2  1  1  0
  3  4  1  6
  5  6  1  1
  5  3  1  0
  7  5  1  0
  8  7  2  0
  9 10  1  0
 10 12  1  0
 11 10  2  0
 13 12  1  0
 13 14  1  0
 15 14  1  0
 16 15  1  6
 16 17  1  0
 17  7  1  0
 18 16  1  0
 18 26  1  0
 19 18  2  0
 20 21  1  0
 21 23  1  0
 22 21  2  0
 23 24  1  0
 25 26  1  0
 25 24  1  1
 25 27  1  0
 27 28  1  0
 29 27  2  0
M  END
$$$$
