IRQ.pdb
     RDKit          3D

 29 28  0  0  1  0  0  0  0  0999 V2000
    8.1491  -11.4788   27.2009 C   0  0  0  0  0  0  0  0  0  0  0  0
    7.7565  -12.9268   27.2504 C   0  0  0  0  0  0  0  0  0  0  0  0
    6.6178  -13.1369   26.2197 C   0  0  2  0  0  0  0  0  0  0  0  0
    5.3635  -12.6371   26.9123 C   0  0  0  0  0  0  0  0  0  0  0  0
    6.5602  -14.5783   25.8781 C   0  0  2  0  0  0  0  0  0  0  0  0
    7.2435  -15.3631   26.9444 N   0  0  0  0  0  0  0  0  0  0  0  0
    7.1588  -15.0299   24.6176 C   0  0  0  0  0  0  0  0  0  0  0  0
    6.5768  -15.9923   23.9686 O   0  0  0  0  0  0  0  0  0  0  0  0
    7.2026  -13.7979   16.2554 N   0  0  0  0  0  0  0  0  0  0  0  0
    8.3035  -14.5558   16.7625 C   0  0  0  0  0  0  0  0  0  0  0  0
    8.5007  -15.7189   16.2633 N   0  0  0  0  0  0  0  0  0  0  0  0
    9.1495  -14.0407   17.7803 N   0  0  0  0  0  0  0  0  0  0  0  0
    8.5892  -13.5977   19.0400 C   0  0  0  0  0  0  0  0  0  0  0  0
    8.9181  -14.5383   20.1571 C   0  0  0  0  0  0  0  0  0  0  0  0
    8.3926  -14.1276   21.4951 C   0  0  0  0  0  0  0  0  0  0  0  0
    8.6660  -14.9896   22.6455 C   0  0  2  0  0  0  0  0  0  0  0  0
    8.3242  -14.5522   23.9672 N   0  0  0  0  0  0  0  0  0  0  0  0
   10.0650  -15.5654   22.6146 C   0  0  0  0  0  0  0  0  0  0  0  0
   10.9921  -14.7824   22.9692 O   0  0  0  0  0  0  0  0  0  0  0  0
    9.2669  -16.3714   16.4866 N   0  0  0  0  0  0  0  0  0  0  0  0
    9.1215  -19.0549   25.8973 C   0  0  0  0  0  0  0  0  0  0  0  0
    9.6709  -19.1932   24.5707 O   0  0  0  0  0  0  0  0  0  0  0  0
    8.8388  -19.5033   23.6889 C   0  0  0  0  0  0  0  0  0  0  0  0
   11.1068  -18.9741   24.3281 C   0  0  0  0  0  0  0  0  0  0  0  0
   11.4334  -18.8865   22.8702 C   0  0  2  0  0  0  0  0  0  0  0  0
   11.6098  -17.4890   22.3632 N   0  0  0  0  0  0  0  0  0  0  0  0
   10.2915  -16.8830   22.2159 C   0  0  0  0  0  0  0  0  0  0  0  0
   12.2329  -17.4989   21.0001 O   0  0  0  0  0  0  0  0  0  0  0  0
   13.5208  -17.9335   20.7904 O   0  0  0  0  0  0  0  0  0  0  0  0
  2  3  1  0
  2  1  1  0
  3  4  1  1
  5  6  1  1
  5  3  1  0
  7  5  1  0
  8  7  2  0
  9 10  1  0
 10 12  1  0
 11 10  2  0
 13 12  1  0
 13 14  1  0
 15 14  1  0
 16 15  1  6
 16 17  1  0
 17  7  1  0
 18 16  1  0
 18 26  1  0
 19 18  2  0
 20 21  1  0
 21 23  1  0
 22 21  2  0
 23 24  1  0
 25 26  1  0
 25 24  1  1
 25 27  1  0
 27 28  1  0
 29 27  2  0
M  END
$$$$
