IRQ.pdb
     RDKit          3D

 29 28  0  0  1  0  0  0  0  0999 V2000
    5.7234  -11.1308   26.2407 C   0  0  0  0  0  0  0  0  0  0  0  0
    6.3468  -11.8954   27.3720 C   0  0  0  0  0  0  0  0  0  0  0  0
    7.1764  -13.0499   26.7536 C   0  0  2  0  0  0  0  0  0  0  0  0
    8.2742  -12.3645   25.9614 C   0  0  0  0  0  0  0  0  0  0  0  0
    6.2745  -13.8705   25.9105 C   0  0  2  0  0  0  0  0  0  0  0  0
    5.2174  -14.4764   26.7679 N   0  0  0  0  0  0  0  0  0  0  0  0
    6.8429  -14.9857   25.1460 C   0  0  0  0  0  0  0  0  0  0  0  0
    7.0786  -16.1018   25.7666 O   0  0  0  0  0  0  0  0  0  0  0  0
    7.4824  -13.9232   17.3865 N   0  0  0  0  0  0  0  0  0  0  0  0
    8.6766  -13.4280   17.9967 C   0  0  0  0  0  0  0  0  0  0  0  0
    9.0490  -12.2413   17.6902 N   0  0  0  0  0  0  0  0  0  0  0  0
    9.4232  -14.2190   18.9099 N   0  0  0  0  0  0  0  0  0  0  0  0
    8.8095  -15.3582   19.5598 C   0  0  0  0  0  0  0  0  0  0  0  0
    8.6644  -15.1465   21.0346 C   0  0  0  0  0  0  0  0  0  0  0  0
    8.0394  -16.2875   21.7713 C   0  0  0  0  0  0  0  0  0  0  0  0
    7.8664  -16.1704   23.2195 C   0  0  2  0  0  0  0  0  0  0  0  0
    7.1847  -15.0364   23.7713 N   0  0  0  0  0  0  0  0  0  0  0  0
    9.1460  -16.4497   23.9773 C   0  0  0  0  0  0  0  0  0  0  0  0
    9.8740  -15.4451   24.2205 O   0  0  0  0  0  0  0  0  0  0  0  0
    9.8698  -11.7328   18.0514 N   0  0  0  0  0  0  0  0  0  0  0  0
   10.7149  -18.6917   28.3815 C   0  0  0  0  0  0  0  0  0  0  0  0
   11.8617  -19.3704   27.8295 O   0  0  0  0  0  0  0  0  0  0  0  0
   12.8058  -19.5419   28.6329 C   0  0  0  0  0  0  0  0  0  0  0  0
   11.8683  -19.8074   26.4231 C   0  0  0  0  0  0  0  0  0  0  0  0
   10.6367  -19.3824   25.6867 C   0  0  1  0  0  0  0  0  0  0  0  0
   10.7150  -18.0067   25.1015 N   0  0  0  0  0  0  0  0  0  0  0  0
    9.4792  -17.7455   24.3727 C   0  0  0  0  0  0  0  0  0  0  0  0
   11.8290  -17.9230   24.1022 O   0  0  0  0  0  0  0  0  0  0  0  0
   13.0409  -17.3489   24.4078 O   0  0  0  0  0  0  0  0  0  0  0  0
  2  3  1  0
  2  1  1  0
  3  4  1  6
  5  6  1  1
  5  3  1  0
  7  5  1  0
  8  7  2  0
  9 10  1  0
 10 12  1  0
 11 10  2  0
 13 12  1  0
 13 14  1  0
 15 14  1  0
 16 15  1  6
 16 17  1  0
 17  7  1  0
 18 16  1  0
 18 26  1  0
 19 18  2  0
 20 21  1  0
 21 23  1  0
 22 21  2  0
 23 24  1  0
 25 26  1  0
 25 24  1  1
 25 27  1  0
 27 28  1  0
 29 27  2  0
M  END
$$$$
