IRQ.pdb
     RDKit          3D

 29 28  0  0  1  0  0  0  0  0999 V2000
    6.3660  -11.6644   27.6311 C   0  0  0  0  0  0  0  0  0  0  0  0
    5.8419  -12.8400   26.8588 C   0  0  0  0  0  0  0  0  0  0  0  0
    7.0113  -13.3977   26.0075 C   0  0  2  0  0  0  0  0  0  0  0  0
    7.4517  -12.2363   25.1357 C   0  0  0  0  0  0  0  0  0  0  0  0
    6.5084  -14.5540   25.2279 C   0  0  2  0  0  0  0  0  0  0  0  0
    6.0198  -15.6033   26.1660 N   0  0  0  0  0  0  0  0  0  0  0  0
    7.4267  -15.2439   24.3158 C   0  0  0  0  0  0  0  0  0  0  0  0
    7.8701  -16.4157   24.6570 O   0  0  0  0  0  0  0  0  0  0  0  0
    9.2564  -14.9791   16.9607 N   0  0  0  0  0  0  0  0  0  0  0  0
    8.4483  -13.9388   17.5161 C   0  0  0  0  0  0  0  0  0  0  0  0
    8.7334  -12.7324   17.1932 N   0  0  0  0  0  0  0  0  0  0  0  0
    7.3686  -14.2288   18.3918 N   0  0  0  0  0  0  0  0  0  0  0  0
    7.0891  -15.5962   18.7778 C   0  0  0  0  0  0  0  0  0  0  0  0
    7.1907  -15.7887   20.2588 C   0  0  0  0  0  0  0  0  0  0  0  0
    8.5787  -15.6985   20.8070 C   0  0  0  0  0  0  0  0  0  0  0  0
    8.7530  -15.6616   22.2594 C   0  0  2  0  0  0  0  0  0  0  0  0
    7.9225  -14.8109   23.0604 N   0  0  0  0  0  0  0  0  0  0  0  0
   10.2056  -15.5290   22.6622 C   0  0  0  0  0  0  0  0  0  0  0  0
   11.0516  -15.6819   21.7353 O   0  0  0  0  0  0  0  0  0  0  0  0
    8.2269  -11.8774   17.4676 N   0  0  0  0  0  0  0  0  0  0  0  0
   10.4373  -17.2275   28.1895 C   0  0  0  0  0  0  0  0  0  0  0  0
   11.3531  -18.1585   27.5769 O   0  0  0  0  0  0  0  0  0  0  0  0
   11.9781  -18.8849   28.3819 C   0  0  0  0  0  0  0  0  0  0  0  0
   11.5019  -18.2094   26.1126 C   0  0  0  0  0  0  0  0  0  0  0  0
   10.6791  -17.1700   25.4181 C   0  0  1  0  0  0  0  0  0  0  0  0
   11.4817  -16.1285   24.7023 N   0  0  0  0  0  0  0  0  0  0  0  0
   10.5633  -15.2539   23.9824 C   0  0  0  0  0  0  0  0  0  0  0  0
   12.3672  -16.7627   23.6727 O   0  0  0  0  0  0  0  0  0  0  0  0
   11.8731  -17.2431   22.4824 O   0  0  0  0  0  0  0  0  0  0  0  0
  2  3  1  0
  2  1  1  0
  3  4  1  6
  5  6  1  1
  5  3  1  0
  7  5  1  0
  8  7  2  0
  9 10  1  0
 10 12  1  0
 11 10  2  0
 13 12  1  0
 13 14  1  0
 15 14  1  0
 16 15  1  6
 16 17  1  0
 17  7  1  0
 18 16  1  0
 18 26  1  0
 19 18  2  0
 20 21  1  0
 21 23  1  0
 22 21  2  0
 23 24  1  0
 25 26  1  0
 25 24  1  1
 25 27  1  0
 27 28  1  0
 29 27  2  0
M  END
$$$$
