VNG.pdb
     RDKit          3D

 20 19  0  0  1  0  0  0  0  0999 V2000
   20.9529  -14.3091  -17.9652 C   0  0  0  0  0  0  0  0  0  0  0  0
   20.2956  -12.9572  -17.7910 C   0  0  1  0  0  0  0  0  0  0  0  0
   19.1607  -13.0321  -16.7952 C   0  0  0  0  0  0  0  0  0  0  0  0
   21.3478  -11.9700  -17.3291 C   0  0  2  0  0  0  0  0  0  0  0  0
   22.0210  -12.4562  -16.1242 N   0  0  0  0  0  0  0  0  0  0  0  0
   20.7788  -10.6244  -17.1098 C   0  0  0  0  0  0  0  0  0  0  0  0
   20.3310   -9.9825  -18.0736 O   0  0  0  0  0  0  0  0  0  0  0  0
   17.7032   -8.8436  -17.0363 N   0  0  0  0  0  0  0  0  0  0  0  0
   17.6358   -8.8676  -15.6232 C   0  0  0  0  0  0  0  0  0  0  0  0
   16.5009   -8.9570  -15.0965 O   0  0  0  0  0  0  0  0  0  0  0  0
   18.8532   -8.7908  -14.7840 C   0  0  0  0  0  0  0  0  0  0  0  0
   20.1194   -8.7103  -15.6010 C   0  0  2  0  0  0  0  0  0  0  0  0
   20.7150  -10.0115  -15.8257 N   0  0  0  0  0  0  0  0  0  0  0  0
   21.0523   -7.8393  -14.8209 C   0  0  0  0  0  0  0  0  0  0  0  0
   21.4886   -8.2659  -13.7357 O   0  0  0  0  0  0  0  0  0  0  0  0
   21.4561   -6.5690  -15.2550 N   0  0  0  0  0  0  0  0  0  0  0  0
   22.4445   -5.8156  -14.5096 C   0  0  0  0  0  0  0  0  0  0  0  0
   21.7706   -4.9811  -13.4768 C   0  0  0  0  0  0  0  0  0  0  0  0
   22.5089   -4.1296  -12.6674 O   0  0  0  0  0  0  0  0  0  0  0  0
   20.5275   -5.0131  -13.2991 O   0  0  0  0  0  0  0  0  0  0  0  0
  2  1  1  1
  3  2  1  0
  4  2  1  0
  4  5  1  1
  6  4  1  0
  6  7  2  0
  8  9  1  0
  9 11  1  0
 10  9  2  0
 12 11  1  1
 12 13  1  0
 12 14  1  0
 13  6  1  0
 14 16  1  0
 15 14  2  0
 16 17  1  0
 17 18  1  0
 18 19  1  0
 20 18  2  0
M  END
$$$$
