VNG.pdb
     RDKit          3D

 20 19  0  0  1  0  0  0  0  0999 V2000
   27.4019  -11.3579  -15.5501 C   0  0  0  0  0  0  0  0  0  0  0  0
   26.2924  -10.3769  -15.8611 C   0  0  1  0  0  0  0  0  0  0  0  0
   26.4281   -9.8347  -17.2658 C   0  0  0  0  0  0  0  0  0  0  0  0
   24.9648  -11.0857  -15.6876 C   0  0  2  0  0  0  0  0  0  0  0  0
   24.9516  -12.3491  -16.4259 N   0  0  0  0  0  0  0  0  0  0  0  0
   23.8293  -10.2289  -16.0863 C   0  0  0  0  0  0  0  0  0  0  0  0
   23.0672  -10.6019  -16.9928 O   0  0  0  0  0  0  0  0  0  0  0  0
   18.6967   -8.0756  -15.6677 N   0  0  0  0  0  0  0  0  0  0  0  0
   19.9922   -7.9928  -16.2305 C   0  0  0  0  0  0  0  0  0  0  0  0
   20.1622   -7.1962  -17.1846 O   0  0  0  0  0  0  0  0  0  0  0  0
   21.1162   -8.8111  -15.7214 C   0  0  0  0  0  0  0  0  0  0  0  0
   22.4514   -8.1241  -15.8718 C   0  0  2  0  0  0  0  0  0  0  0  0
   23.5564   -8.9722  -15.4741 N   0  0  0  0  0  0  0  0  0  0  0  0
   22.3859   -6.9117  -14.9981 C   0  0  0  0  0  0  0  0  0  0  0  0
   22.2105   -7.0743  -13.7762 O   0  0  0  0  0  0  0  0  0  0  0  0
   22.5127   -5.6056  -15.4910 N   0  0  0  0  0  0  0  0  0  0  0  0
   22.4650   -4.4708  -14.5909 C   0  0  0  0  0  0  0  0  0  0  0  0
   21.0502   -4.0685  -14.3594 C   0  0  0  0  0  0  0  0  0  0  0  0
   20.7456   -3.0364  -13.4834 O   0  0  0  0  0  0  0  0  0  0  0  0
   20.0909   -4.6371  -14.9375 O   0  0  0  0  0  0  0  0  0  0  0  0
  2  1  1  6
  3  2  1  0
  4  2  1  0
  4  5  1  6
  6  4  1  0
  6  7  2  0
  8  9  1  0
  9 11  1  0
 10  9  2  0
 12 11  1  1
 12 13  1  0
 12 14  1  0
 13  6  1  0
 14 16  1  0
 15 14  2  0
 16 17  1  0
 17 18  1  0
 18 19  1  0
 20 18  2  0
M  END
$$$$
