VNG.pdb
     RDKit          3D

 20 19  0  0  1  0  0  0  0  0999 V2000
   21.5648  -11.9140  -20.7441 C   0  0  0  0  0  0  0  0  0  0  0  0
   20.4996  -12.2699  -19.7298 C   0  0  1  0  0  0  0  0  0  0  0  0
   20.2603  -13.7623  -19.6982 C   0  0  0  0  0  0  0  0  0  0  0  0
   20.9475  -11.7716  -18.3711 C   0  0  2  0  0  0  0  0  0  0  0  0
   20.1962  -12.4325  -17.3033 N   0  0  0  0  0  0  0  0  0  0  0  0
   20.8385  -10.3023  -18.2624 C   0  0  0  0  0  0  0  0  0  0  0  0
   21.5155   -9.5792  -19.0109 O   0  0  0  0  0  0  0  0  0  0  0  0
   19.6806   -5.4266  -16.9376 N   0  0  0  0  0  0  0  0  0  0  0  0
   18.5210   -6.1786  -17.2404 C   0  0  0  0  0  0  0  0  0  0  0  0
   17.4497   -5.5501  -17.4165 O   0  0  0  0  0  0  0  0  0  0  0  0
   18.5562   -7.6548  -17.3487 C   0  0  0  0  0  0  0  0  0  0  0  0
   19.9413   -8.2202  -17.1512 C   0  0  2  0  0  0  0  0  0  0  0  0
   19.9807   -9.6577  -17.3257 N   0  0  0  0  0  0  0  0  0  0  0  0
   20.3347   -7.8550  -15.7550 C   0  0  0  0  0  0  0  0  0  0  0  0
   19.9584   -8.5919  -14.8247 O   0  0  0  0  0  0  0  0  0  0  0  0
   21.1049   -6.7247  -15.4479 N   0  0  0  0  0  0  0  0  0  0  0  0
   21.5503   -6.4838  -14.0901 C   0  0  0  0  0  0  0  0  0  0  0  0
   22.3178   -5.2093  -14.0286 C   0  0  0  0  0  0  0  0  0  0  0  0
   22.7153   -4.6845  -12.8072 O   0  0  0  0  0  0  0  0  0  0  0  0
   22.6315   -4.5680  -15.0621 O   0  0  0  0  0  0  0  0  0  0  0  0
  2  1  1  6
  3  2  1  0
  4  2  1  0
  4  5  1  1
  6  4  1  0
  6  7  2  0
  8  9  1  0
  9 11  1  0
 10  9  2  0
 12 11  1  1
 12 13  1  0
 12 14  1  0
 13  6  1  0
 14 16  1  0
 15 14  2  0
 16 17  1  0
 17 18  1  0
 18 19  1  0
 20 18  2  0
M  END
$$$$
