VNG.pdb
     RDKit          3D

 20 19  0  0  1  0  0  0  0  0999 V2000
   26.1946  -33.3574  -10.0138 C   0  0  0  0  0  0  0  0  0  0  0  0
   26.5370  -33.1370   -8.5563 C   0  0  1  0  0  0  0  0  0  0  0  0
   25.3623  -32.5491   -7.8079 C   0  0  0  0  0  0  0  0  0  0  0  0
   26.9431  -34.4665   -7.9542 C   0  0  2  0  0  0  0  0  0  0  0  0
   25.8533  -35.4374   -8.0593 N   0  0  0  0  0  0  0  0  0  0  0  0
   27.3878  -34.3211   -6.5530 C   0  0  0  0  0  0  0  0  0  0  0  0
   28.4339  -33.7012   -6.3019 O   0  0  0  0  0  0  0  0  0  0  0  0
   25.1496  -32.0728   -3.4255 N   0  0  0  0  0  0  0  0  0  0  0  0
   26.1654  -32.9106   -2.9075 C   0  0  0  0  0  0  0  0  0  0  0  0
   27.1001  -32.3667   -2.2718 O   0  0  0  0  0  0  0  0  0  0  0  0
   26.1386  -34.3782   -3.1014 C   0  0  0  0  0  0  0  0  0  0  0  0
   27.1709  -34.8532   -4.0944 C   0  0  2  0  0  0  0  0  0  0  0  0
   26.6662  -34.8652   -5.4521 N   0  0  0  0  0  0  0  0  0  0  0  0
   27.5415  -36.2375   -3.6653 C   0  0  0  0  0  0  0  0  0  0  0  0
   26.9431  -37.1965   -4.1871 O   0  0  0  0  0  0  0  0  0  0  0  0
   28.5284  -36.5026   -2.7058 N   0  0  0  0  0  0  0  0  0  0  0  0
   28.8257  -37.8652   -2.3122 C   0  0  0  0  0  0  0  0  0  0  0  0
   29.9672  -37.8775   -1.3561 C   0  0  0  0  0  0  0  0  0  0  0  0
   30.4219  -39.0725   -0.8172 O   0  0  0  0  0  0  0  0  0  0  0  0
   30.5551  -36.8248   -1.0042 O   0  0  0  0  0  0  0  0  0  0  0  0
  2  1  1  6
  3  2  1  0
  4  2  1  0
  4  5  1  1
  6  4  1  0
  6  7  2  0
  8  9  1  0
  9 11  1  0
 10  9  2  0
 12 11  1  1
 12 13  1  0
 12 14  1  0
 13  6  1  0
 14 16  1  0
 15 14  2  0
 16 17  1  0
 17 18  1  0
 18 19  1  0
 20 18  2  0
M  END
$$$$
