VNG.pdb
     RDKit          3D

 20 19  0  0  1  0  0  0  0  0999 V2000
   15.0380  -16.7298    4.4156 C   0  0  0  0  0  0  0  0  0  0  0  0
   15.7905  -17.7044    3.5359 C   0  0  1  0  0  0  0  0  0  0  0  0
   14.8515  -18.4095    2.5838 C   0  0  0  0  0  0  0  0  0  0  0  0
   16.8508  -16.9385    2.7717 C   0  0  2  0  0  0  0  0  0  0  0  0
   17.5408  -17.8144    1.8240 N   0  0  0  0  0  0  0  0  0  0  0  0
   17.8128  -16.2799    3.6791 C   0  0  0  0  0  0  0  0  0  0  0  0
   18.8111  -16.9040    4.0734 O   0  0  0  0  0  0  0  0  0  0  0  0
   19.8323  -10.8755    5.9513 N   0  0  0  0  0  0  0  0  0  0  0  0
   19.8123  -12.2664    5.6923 C   0  0  0  0  0  0  0  0  0  0  0  0
   20.6705  -12.9777    6.2678 O   0  0  0  0  0  0  0  0  0  0  0  0
   18.8196  -12.8740    4.7771 C   0  0  0  0  0  0  0  0  0  0  0  0
   18.5429  -14.3226    5.0970 C   0  0  2  0  0  0  0  0  0  0  0  0
   17.6532  -14.9400    4.1350 N   0  0  0  0  0  0  0  0  0  0  0  0
   17.9215  -14.3273    6.4577 C   0  0  0  0  0  0  0  0  0  0  0  0
   16.7769  -13.8543    6.5847 O   0  0  0  0  0  0  0  0  0  0  0  0
   18.5674  -14.8384    7.5920 N   0  0  0  0  0  0  0  0  0  0  0  0
   17.8685  -14.9314    8.8581 C   0  0  0  0  0  0  0  0  0  0  0  0
   18.0754  -13.6828    9.6426 C   0  0  0  0  0  0  0  0  0  0  0  0
   17.2737  -13.3985   10.7388 O   0  0  0  0  0  0  0  0  0  0  0  0
   18.9688  -12.8500    9.3492 O   0  0  0  0  0  0  0  0  0  0  0  0
  2  1  1  6
  3  2  1  0
  4  2  1  0
  4  5  1  6
  6  4  1  0
  6  7  2  0
  8  9  1  0
  9 11  1  0
 10  9  2  0
 12 11  1  6
 12 13  1  0
 12 14  1  0
 13  6  1  0
 14 16  1  0
 15 14  2  0
 16 17  1  0
 17 18  1  0
 18 19  1  0
 20 18  2  0
M  END
$$$$
