VNG.pdb
     RDKit          3D

 20 19  0  0  1  0  0  0  0  0999 V2000
   22.2661   -9.3662  -19.4714 C   0  0  0  0  0  0  0  0  0  0  0  0
   21.7149  -10.7755  -19.4579 C   0  0  1  0  0  0  0  0  0  0  0  0
   22.5284  -11.6828  -20.3525 C   0  0  0  0  0  0  0  0  0  0  0  0
   21.7287  -11.2806  -18.0297 C   0  0  2  0  0  0  0  0  0  0  0  0
   21.3430  -12.6912  -17.9754 N   0  0  0  0  0  0  0  0  0  0  0  0
   20.8678  -10.4633  -17.1504 C   0  0  0  0  0  0  0  0  0  0  0  0
   19.6394  -10.4531  -17.3308 O   0  0  0  0  0  0  0  0  0  0  0  0
   18.8207   -7.5201  -13.4478 N   0  0  0  0  0  0  0  0  0  0  0  0
   19.7501   -8.4422  -12.9112 C   0  0  0  0  0  0  0  0  0  0  0  0
   19.7889   -8.5699  -11.6638 O   0  0  0  0  0  0  0  0  0  0  0  0
   20.6507   -9.2346  -13.7790 C   0  0  0  0  0  0  0  0  0  0  0  0
   20.5425   -8.8512  -15.2346 C   0  0  2  0  0  0  0  0  0  0  0  0
   21.3820   -9.6702  -16.0849 N   0  0  0  0  0  0  0  0  0  0  0  0
   20.9660   -7.4186  -15.3106 C   0  0  0  0  0  0  0  0  0  0  0  0
   20.3087   -6.5749  -14.6734 O   0  0  0  0  0  0  0  0  0  0  0  0
   22.0656   -6.9848  -16.0642 N   0  0  0  0  0  0  0  0  0  0  0  0
   22.4513   -5.5878  -16.0673 C   0  0  0  0  0  0  0  0  0  0  0  0
   21.4803   -4.7971  -16.8729 C   0  0  0  0  0  0  0  0  0  0  0  0
   21.6377   -3.4264  -17.0195 O   0  0  0  0  0  0  0  0  0  0  0  0
   20.4957   -5.3294  -17.4432 O   0  0  0  0  0  0  0  0  0  0  0  0
  2  1  1  1
  3  2  1  0
  4  2  1  0
  4  5  1  6
  6  4  1  0
  6  7  2  0
  8  9  1  0
  9 11  1  0
 10  9  2  0
 12 11  1  1
 12 13  1  0
 12 14  1  0
 13  6  1  0
 14 16  1  0
 15 14  2  0
 16 17  1  0
 17 18  1  0
 18 19  1  0
 20 18  2  0
M  END
$$$$
