VNG.pdb
     RDKit          3D

 20 19  0  0  1  0  0  0  0  0999 V2000
   27.1437   -9.2146  -17.0951 C   0  0  0  0  0  0  0  0  0  0  0  0
   27.7173  -10.4051  -17.8325 C   0  0  1  0  0  0  0  0  0  0  0  0
   29.1896  -10.5695  -17.5313 C   0  0  0  0  0  0  0  0  0  0  0  0
   26.9457  -11.6413  -17.4183 C   0  0  2  0  0  0  0  0  0  0  0  0
   27.5252  -12.8408  -18.0238 N   0  0  0  0  0  0  0  0  0  0  0  0
   25.5094  -11.5262  -17.7441 C   0  0  0  0  0  0  0  0  0  0  0  0
   25.1194  -11.7737  -18.8966 O   0  0  0  0  0  0  0  0  0  0  0  0
   20.3787  -11.1224  -17.7329 N   0  0  0  0  0  0  0  0  0  0  0  0
   20.8364  -11.8988  -16.6422 C   0  0  0  0  0  0  0  0  0  0  0  0
   19.9914  -12.5921  -16.0265 O   0  0  0  0  0  0  0  0  0  0  0  0
   22.2588  -11.9024  -16.2313 C   0  0  0  0  0  0  0  0  0  0  0  0
   23.1194  -11.0226  -17.1047 C   0  0  2  0  0  0  0  0  0  0  0  0
   24.5280  -11.1387  -16.7874 N   0  0  0  0  0  0  0  0  0  0  0  0
   22.6460   -9.6239  -16.8652 C   0  0  0  0  0  0  0  0  0  0  0  0
   21.5436   -9.2861  -17.3349 O   0  0  0  0  0  0  0  0  0  0  0  0
   23.3849   -8.6800  -16.1386 N   0  0  0  0  0  0  0  0  0  0  0  0
   22.9718   -7.2915  -16.1014 C   0  0  0  0  0  0  0  0  0  0  0  0
   21.9562   -7.0948  -15.0305 C   0  0  0  0  0  0  0  0  0  0  0  0
   21.5386   -5.8185  -14.6813 O   0  0  0  0  0  0  0  0  0  0  0  0
   21.4445   -8.0596  -14.4098 O   0  0  0  0  0  0  0  0  0  0  0  0
  2  1  1  1
  3  2  1  0
  4  2  1  0
  4  5  1  6
  6  4  1  0
  6  7  2  0
  8  9  1  0
  9 11  1  0
 10  9  2  0
 12 11  1  1
 12 13  1  0
 12 14  1  0
 13  6  1  0
 14 16  1  0
 15 14  2  0
 16 17  1  0
 17 18  1  0
 18 19  1  0
 20 18  2  0
M  END
$$$$
