VNG.pdb
     RDKit          3D

 20 19  0  0  1  0  0  0  0  0999 V2000
   25.4809  -32.5347   -5.4059 C   0  0  0  0  0  0  0  0  0  0  0  0
   25.5409  -32.8270   -6.8894 C   0  0  1  0  0  0  0  0  0  0  0  0
   24.9487  -31.6890   -7.6891 C   0  0  0  0  0  0  0  0  0  0  0  0
   26.9886  -33.0539   -7.2739 C   0  0  2  0  0  0  0  0  0  0  0  0
   27.1062  -33.3389   -8.7044 N   0  0  0  0  0  0  0  0  0  0  0  0
   27.6084  -34.1263   -6.4688 C   0  0  0  0  0  0  0  0  0  0  0  0
   27.5313  -35.3047   -6.8524 O   0  0  0  0  0  0  0  0  0  0  0  0
   30.6370  -36.7824   -3.1911 N   0  0  0  0  0  0  0  0  0  0  0  0
   31.0546  -35.4306   -3.1896 C   0  0  0  0  0  0  0  0  0  0  0  0
   32.1355  -35.1563   -2.6149 O   0  0  0  0  0  0  0  0  0  0  0  0
   30.2546  -34.3675   -3.8391 C   0  0  0  0  0  0  0  0  0  0  0  0
   29.0236  -34.9038   -4.5278 C   0  0  2  0  0  0  0  0  0  0  0  0
   28.3038  -33.8758   -5.2514 N   0  0  0  0  0  0  0  0  0  0  0  0
   28.1658  -35.4733   -3.4428 C   0  0  0  0  0  0  0  0  0  0  0  0
   28.6390  -36.3786   -2.7310 O   0  0  0  0  0  0  0  0  0  0  0  0
   26.8580  -35.0354   -3.1921 N   0  0  0  0  0  0  0  0  0  0  0  0
   26.1212  -35.5330   -2.0477 C   0  0  0  0  0  0  0  0  0  0  0  0
   24.8367  -34.7922   -1.9123 C   0  0  0  0  0  0  0  0  0  0  0  0
   23.6305  -35.4763   -1.8646 O   0  0  0  0  0  0  0  0  0  0  0  0
   24.7931  -33.5391   -1.8371 O   0  0  0  0  0  0  0  0  0  0  0  0
  2  1  1  1
  3  2  1  0
  4  2  1  0
  4  5  1  6
  6  4  1  0
  6  7  2  0
  8  9  1  0
  9 11  1  0
 10  9  2  0
 12 11  1  1
 12 13  1  0
 12 14  1  0
 13  6  1  0
 14 16  1  0
 15 14  2  0
 16 17  1  0
 17 18  1  0
 18 19  1  0
 20 18  2  0
M  END
$$$$
