VNG.pdb
     RDKit          3D

 20 19  0  0  1  0  0  0  0  0999 V2000
   15.5823   -8.4044  -16.6601 C   0  0  0  0  0  0  0  0  0  0  0  0
   15.5457   -9.9155  -16.5884 C   0  0  1  0  0  0  0  0  0  0  0  0
   14.5993  -10.4830  -17.6217 C   0  0  0  0  0  0  0  0  0  0  0  0
   16.9507  -10.4386  -16.8058 C   0  0  2  0  0  0  0  0  0  0  0  0
   16.9750  -11.9004  -16.7417 N   0  0  0  0  0  0  0  0  0  0  0  0
   17.9091   -9.8518  -15.8469 C   0  0  0  0  0  0  0  0  0  0  0  0
   18.4353  -10.5740  -14.9848 O   0  0  0  0  0  0  0  0  0  0  0  0
   21.5787   -8.2239  -12.8039 N   0  0  0  0  0  0  0  0  0  0  0  0
   21.6401   -8.0701  -14.2091 C   0  0  0  0  0  0  0  0  0  0  0  0
   22.6117   -7.4334  -14.6826 O   0  0  0  0  0  0  0  0  0  0  0  0
   20.6017   -8.6351  -15.1005 C   0  0  0  0  0  0  0  0  0  0  0  0
   19.2805   -7.9151  -14.9849 C   0  0  2  0  0  0  0  0  0  0  0  0
   18.2691   -8.4738  -15.8585 N   0  0  0  0  0  0  0  0  0  0  0  0
   19.5586   -6.4926  -15.3546 C   0  0  0  0  0  0  0  0  0  0  0  0
   19.8464   -6.2366  -16.5386 O   0  0  0  0  0  0  0  0  0  0  0  0
   19.5100   -5.4386  -14.4317 N   0  0  0  0  0  0  0  0  0  0  0  0
   19.7228   -4.0715  -14.8629 C   0  0  0  0  0  0  0  0  0  0  0  0
   21.1714   -3.7361  -14.7833 C   0  0  0  0  0  0  0  0  0  0  0  0
   21.6231   -2.4743  -15.1423 O   0  0  0  0  0  0  0  0  0  0  0  0
   22.0291   -4.5674  -14.3946 O   0  0  0  0  0  0  0  0  0  0  0  0
  2  1  1  6
  3  2  1  0
  4  2  1  0
  4  5  1  1
  6  4  1  0
  6  7  2  0
  8  9  1  0
  9 11  1  0
 10  9  2  0
 12 11  1  6
 12 13  1  0
 12 14  1  0
 13  6  1  0
 14 16  1  0
 15 14  2  0
 16 17  1  0
 17 18  1  0
 18 19  1  0
 20 18  2  0
M  END
$$$$
