VNG.pdb
     RDKit          3D

 20 19  0  0  1  0  0  0  0  0999 V2000
   26.4616  -18.6373  -16.5068 C   0  0  0  0  0  0  0  0  0  0  0  0
   27.1403  -19.7919  -17.2112 C   0  0  1  0  0  0  0  0  0  0  0  0
   28.0698  -19.2935  -18.2942 C   0  0  0  0  0  0  0  0  0  0  0  0
   27.9039  -20.5983  -16.1808 C   0  0  2  0  0  0  0  0  0  0  0  0
   28.5554  -21.7509  -16.8040 N   0  0  0  0  0  0  0  0  0  0  0  0
   27.0362  -21.0224  -15.0630 C   0  0  0  0  0  0  0  0  0  0  0  0
   26.1766  -21.8984  -15.2511 O   0  0  0  0  0  0  0  0  0  0  0  0
   24.7829  -21.6943  -10.4260 N   0  0  0  0  0  0  0  0  0  0  0  0
   25.9592  -20.9405  -10.2026 C   0  0  0  0  0  0  0  0  0  0  0  0
   26.2925  -20.7212   -9.0133 O   0  0  0  0  0  0  0  0  0  0  0  0
   26.7771  -20.4228  -11.3230 C   0  0  0  0  0  0  0  0  0  0  0  0
   26.2443  -20.8371  -12.6727 C   0  0  2  0  0  0  0  0  0  0  0  0
   27.1347  -20.4689  -13.7544 N   0  0  0  0  0  0  0  0  0  0  0  0
   24.9289  -20.1405  -12.8222 C   0  0  0  0  0  0  0  0  0  0  0  0
   24.9001  -18.9021  -12.6976 O   0  0  0  0  0  0  0  0  0  0  0  0
   23.7318  -20.8167  -13.0954 N   0  0  0  0  0  0  0  0  0  0  0  0
   22.4937  -20.0829  -13.2656 C   0  0  0  0  0  0  0  0  0  0  0  0
   21.3611  -20.8634  -12.6954 C   0  0  0  0  0  0  0  0  0  0  0  0
   21.5535  -22.1652  -12.2554 O   0  0  0  0  0  0  0  0  0  0  0  0
   20.2049  -20.3836  -12.5911 O   0  0  0  0  0  0  0  0  0  0  0  0
  2  1  1  1
  3  2  1  0
  4  2  1  0
  4  5  1  6
  6  4  1  0
  6  7  2  0
  8  9  1  0
  9 11  1  0
 10  9  2  0
 12 11  1  1
 12 13  1  0
 12 14  1  0
 13  6  1  0
 14 16  1  0
 15 14  2  0
 16 17  1  0
 17 18  1  0
 18 19  1  0
 20 18  2  0
M  END
$$$$
