VNG.pdb
     RDKit          3D

 20 19  0  0  1  0  0  0  0  0999 V2000
   15.7285  -10.1417  -16.9129 C   0  0  0  0  0  0  0  0  0  0  0  0
   16.3250  -11.2165  -16.0303 C   0  0  1  0  0  0  0  0  0  0  0  0
   16.2338  -12.5723  -16.6928 C   0  0  0  0  0  0  0  0  0  0  0  0
   17.7688  -10.8559  -15.7472 C   0  0  2  0  0  0  0  0  0  0  0  0
   18.4441  -11.9418  -15.0355 N   0  0  0  0  0  0  0  0  0  0  0  0
   17.8810   -9.5856  -15.0015 C   0  0  0  0  0  0  0  0  0  0  0  0
   17.4319   -8.5401  -15.4984 O   0  0  0  0  0  0  0  0  0  0  0  0
   16.5828   -9.8547  -10.4375 N   0  0  0  0  0  0  0  0  0  0  0  0
   16.9461   -8.7261  -11.2095 C   0  0  0  0  0  0  0  0  0  0  0  0
   16.0231   -7.9901  -11.6341 O   0  0  0  0  0  0  0  0  0  0  0  0
   18.3609   -8.4128  -11.5131 C   0  0  0  0  0  0  0  0  0  0  0  0
   18.6164   -8.2468  -12.9911 C   0  0  2  0  0  0  0  0  0  0  0  0
   18.4890   -9.4940  -13.7168 N   0  0  0  0  0  0  0  0  0  0  0  0
   20.0110   -7.7184  -13.1062 C   0  0  0  0  0  0  0  0  0  0  0  0
   20.9566   -8.5200  -12.9905 O   0  0  0  0  0  0  0  0  0  0  0  0
   20.3003   -6.3664  -13.3376 N   0  0  0  0  0  0  0  0  0  0  0  0
   21.6678   -5.9291  -13.5347 C   0  0  0  0  0  0  0  0  0  0  0  0
   21.6974   -4.4629  -13.7926 C   0  0  0  0  0  0  0  0  0  0  0  0
   22.9058   -3.7852  -13.8687 O   0  0  0  0  0  0  0  0  0  0  0  0
   20.6478   -3.7910  -13.9493 O   0  0  0  0  0  0  0  0  0  0  0  0
  2  1  1  6
  3  2  1  0
  4  2  1  0
  4  5  1  1
  6  4  1  0
  6  7  2  0
  8  9  1  0
  9 11  1  0
 10  9  2  0
 12 11  1  1
 12 13  1  0
 12 14  1  0
 13  6  1  0
 14 16  1  0
 15 14  2  0
 16 17  1  0
 17 18  1  0
 18 19  1  0
 20 18  2  0
M  END
$$$$
