VNG.pdb
     RDKit          3D

 20 19  0  0  1  0  0  0  0  0999 V2000
   27.5036  -23.4793  -15.5626 C   0  0  0  0  0  0  0  0  0  0  0  0
   26.1395  -22.8631  -15.7849 C   0  0  1  0  0  0  0  0  0  0  0  0
   25.8031  -22.8115  -17.2579 C   0  0  0  0  0  0  0  0  0  0  0  0
   25.1146  -23.6857  -15.0312 C   0  0  2  0  0  0  0  0  0  0  0  0
   25.0983  -25.0656  -15.5180 N   0  0  0  0  0  0  0  0  0  0  0  0
   23.7674  -23.0839  -15.1036 C   0  0  0  0  0  0  0  0  0  0  0  0
   23.0102  -23.3843  -16.0406 O   0  0  0  0  0  0  0  0  0  0  0  0
   20.8364  -24.1339  -13.9904 N   0  0  0  0  0  0  0  0  0  0  0  0
   20.6612  -23.2359  -12.9112 C   0  0  0  0  0  0  0  0  0  0  0  0
   20.0843  -23.6665  -11.8839 O   0  0  0  0  0  0  0  0  0  0  0  0
   21.1369  -21.8354  -12.9782 C   0  0  0  0  0  0  0  0  0  0  0  0
   21.9638  -21.5597  -14.2101 C   0  0  2  0  0  0  0  0  0  0  0  0
   23.2806  -22.1586  -14.1364 N   0  0  0  0  0  0  0  0  0  0  0  0
   22.0742  -20.0707  -14.3012 C   0  0  0  0  0  0  0  0  0  0  0  0
   22.7607  -19.4772  -13.4488 O   0  0  0  0  0  0  0  0  0  0  0  0
   21.4420  -19.3162  -15.2992 N   0  0  0  0  0  0  0  0  0  0  0  0
   21.6704  -17.8886  -15.3991 C   0  0  0  0  0  0  0  0  0  0  0  0
   20.4390  -17.1508  -15.0033 C   0  0  0  0  0  0  0  0  0  0  0  0
   20.4090  -15.7639  -15.0316 O   0  0  0  0  0  0  0  0  0  0  0  0
   19.3950  -17.7435  -14.6339 O   0  0  0  0  0  0  0  0  0  0  0  0
  2  1  1  6
  3  2  1  0
  4  2  1  0
  4  5  1  6
  6  4  1  0
  6  7  2  0
  8  9  1  0
  9 11  1  0
 10  9  2  0
 12 11  1  1
 12 13  1  0
 12 14  1  0
 13  6  1  0
 14 16  1  0
 15 14  2  0
 16 17  1  0
 17 18  1  0
 18 19  1  0
 20 18  2  0
M  END
$$$$
