VNG.pdb
     RDKit          3D

 20 19  0  0  1  0  0  0  0  0999 V2000
   17.8546  -12.0906  -20.4740 C   0  0  0  0  0  0  0  0  0  0  0  0
   17.8461  -11.1029  -19.3275 C   0  0  1  0  0  0  0  0  0  0  0  0
   16.4457  -10.9074  -18.7926 C   0  0  0  0  0  0  0  0  0  0  0  0
   18.7653  -11.6229  -18.2415 C   0  0  2  0  0  0  0  0  0  0  0  0
   18.3310  -12.9431  -17.7833 N   0  0  0  0  0  0  0  0  0  0  0  0
   18.8673  -10.6783  -17.1102 C   0  0  0  0  0  0  0  0  0  0  0  0
   18.1156  -10.8096  -16.1308 O   0  0  0  0  0  0  0  0  0  0  0  0
   20.4747  -10.3562  -13.9244 N   0  0  0  0  0  0  0  0  0  0  0  0
   21.4656   -9.4445  -14.3589 C   0  0  0  0  0  0  0  0  0  0  0  0
   22.5929   -9.5063  -13.8121 O   0  0  0  0  0  0  0  0  0  0  0  0
   21.1954   -8.4480  -15.4201 C   0  0  0  0  0  0  0  0  0  0  0  0
   19.8249   -8.6059  -16.0318 C   0  0  2  0  0  0  0  0  0  0  0  0
   19.8009   -9.6030  -17.0823 N   0  0  0  0  0  0  0  0  0  0  0  0
   19.4678   -7.2618  -16.5826 C   0  0  0  0  0  0  0  0  0  0  0  0
   19.9893   -6.9070  -17.6560 O   0  0  0  0  0  0  0  0  0  0  0  0
   18.5758   -6.3869  -15.9471 N   0  0  0  0  0  0  0  0  0  0  0  0
   18.2593   -5.1014  -16.5365 C   0  0  0  0  0  0  0  0  0  0  0  0
   17.3387   -4.3477  -15.6412 C   0  0  0  0  0  0  0  0  0  0  0  0
   17.0441   -3.0156  -15.8938 O   0  0  0  0  0  0  0  0  0  0  0  0
   16.8001   -4.8779  -14.6378 O   0  0  0  0  0  0  0  0  0  0  0  0
  2  1  1  6
  3  2  1  0
  4  2  1  0
  4  5  1  1
  6  4  1  0
  6  7  2  0
  8  9  1  0
  9 11  1  0
 10  9  2  0
 12 11  1  6
 12 13  1  0
 12 14  1  0
 13  6  1  0
 14 16  1  0
 15 14  2  0
 16 17  1  0
 17 18  1  0
 18 19  1  0
 20 18  2  0
M  END
$$$$
