WNH.pdb
     RDKit          3D

 33 35  0  0  1  0  0  0  0  0999 V2000
    6.9550  -17.2431   23.9227 N   0  0  0  0  0  0  0  0  0  0  0  0
    8.0984  -16.3782   23.9553 C   0  0  1  0  0  0  0  0  0  0  0  0
    8.2058  -15.5241   25.1657 C   0  0  0  0  0  0  0  0  0  0  0  0
    7.0313  -14.6731   25.4332 C   0  0  0  0  0  0  0  0  0  0  0  0
    5.7331  -15.1266   25.7009 C   0  0  0  0  0  0  0  0  0  0  0  0
    4.9345  -14.0683   25.8749 N   0  0  0  0  0  0  0  0  0  0  0  0
    5.6417  -12.9090   25.7358 C   0  0  0  0  0  0  0  0  0  0  0  0
    5.2701  -11.5790   25.8284 C   0  0  0  0  0  0  0  0  0  0  0  0
    6.2009  -10.5849   25.6478 C   0  0  0  0  0  0  0  0  0  0  0  0
    7.4990  -10.9553   25.3754 C   0  0  0  0  0  0  0  0  0  0  0  0
    7.8666  -12.2814   25.2837 C   0  0  0  0  0  0  0  0  0  0  0  0
    6.9322  -13.3018   25.4640 C   0  0  0  0  0  0  0  0  0  0  0  0
    9.3610  -17.0895   23.6337 C   0  0  0  0  0  0  0  0  0  0  0  0
    9.3466  -18.3448   23.6750 O   0  0  0  0  0  0  0  0  0  0  0  0
   14.7513  -16.1227   21.0322 N   0  0  0  0  0  0  0  0  0  0  0  0
   13.7621  -17.0713   21.5209 C   0  0  0  0  0  0  0  0  0  0  0  0
   14.1060  -18.2683   21.5663 O   0  0  0  0  0  0  0  0  0  0  0  0
   12.4749  -16.5296   21.9060 C   0  0  0  0  0  0  0  0  0  0  0  0
   11.8536  -17.1195   23.1289 C   0  0  2  0  0  0  0  0  0  0  0  0
   10.5241  -16.4213   23.2985 N   0  0  0  0  0  0  0  0  0  0  0  0
   12.5928  -16.8049   24.3731 C   0  0  0  0  0  0  0  0  0  0  0  0
   12.7064  -15.5739   24.7302 O   0  0  0  0  0  0  0  0  0  0  0  0
   13.2011  -17.7245   25.2442 N   0  0  0  0  0  0  0  0  0  0  0  0
   12.5098  -18.1574   26.4811 C   0  0  1  0  0  0  0  0  0  0  0  0
   11.0944  -17.6494   26.3345 C   0  0  0  0  0  0  0  0  0  0  0  0
   10.8938  -16.4931   27.2312 C   0  0  0  0  0  0  0  0  0  0  0  0
   11.7866  -15.9527   28.1363 C   0  0  0  0  0  0  0  0  0  0  0  0
   11.1556  -14.9245   28.7408 N   0  0  0  0  0  0  0  0  0  0  0  0
    9.9172  -14.8050   28.2528 C   0  0  0  0  0  0  0  0  0  0  0  0
    9.7504  -15.7592   27.3311 N   0  0  0  0  0  0  0  0  0  0  0  0
   12.5180  -19.6347   26.5345 C   0  0  0  0  0  0  0  0  0  0  0  0
   11.8090  -20.4259   25.6624 O   0  0  0  0  0  0  0  0  0  0  0  0
   13.2164  -20.2182   27.4368 O   0  0  0  0  0  0  0  0  0  0  0  0
  2  1  1  1
  3  2  1  0
  4  3  1  0
  4  5  2  0
  6  5  1  0
  7  6  1  0
  8  7  2  0
  9  8  1  0
 10  9  2  0
 10 11  1  0
 11 12  2  0
 12  7  1  0
 12  4  1  0
 13 14  2  0
 13  2  1  0
 16 18  1  0
 16 15  1  0
 17 16  2  0
 19 18  1  6
 19 20  1  0
 20 13  1  0
 21 19  1  0
 22 21  2  0
 23 21  1  0
 24 23  1  0
 25 26  1  0
 24 25  1  6
 26 27  2  0
 28 27  1  0
 29 28  1  0
 30 29  2  0
 30 26  1  0
 31 24  1  0
 31 32  1  0
 33 31  2  0
M  END
$$$$
