WNH.pdb
     RDKit          3D

 33 35  0  0  1  0  0  0  0  0999 V2000
    9.4982  -17.5168   22.1926 N   0  0  0  0  0  0  0  0  0  0  0  0
   10.5742  -16.5687   22.2002 C   0  0  1  0  0  0  0  0  0  0  0  0
   10.2236  -15.2246   22.7259 C   0  0  0  0  0  0  0  0  0  0  0  0
    9.0134  -14.6219   22.1363 C   0  0  0  0  0  0  0  0  0  0  0  0
    7.7208  -14.6844   22.6727 C   0  0  0  0  0  0  0  0  0  0  0  0
    6.8832  -14.0391   21.8543 N   0  0  0  0  0  0  0  0  0  0  0  0
    7.5583  -13.5383   20.7786 C   0  0  0  0  0  0  0  0  0  0  0  0
    7.1418  -12.8049   19.6813 C   0  0  0  0  0  0  0  0  0  0  0  0
    8.0471  -12.4123   18.7256 C   0  0  0  0  0  0  0  0  0  0  0  0
    9.3657  -12.7703   18.8973 C   0  0  0  0  0  0  0  0  0  0  0  0
    9.7781  -13.5012   19.9917 C   0  0  0  0  0  0  0  0  0  0  0  0
    8.8701  -13.9074   20.9700 C   0  0  0  0  0  0  0  0  0  0  0  0
   11.8157  -17.1198   22.7990 C   0  0  0  0  0  0  0  0  0  0  0  0
   11.7564  -17.5273   23.9856 O   0  0  0  0  0  0  0  0  0  0  0  0
   12.2966  -20.3956   21.4375 N   0  0  0  0  0  0  0  0  0  0  0  0
   13.6779  -20.1016   21.7878 C   0  0  0  0  0  0  0  0  0  0  0  0
   14.5599  -20.6007   21.0625 O   0  0  0  0  0  0  0  0  0  0  0  0
   13.8906  -19.2577   22.9459 C   0  0  0  0  0  0  0  0  0  0  0  0
   14.2523  -17.8365   22.6651 C   0  0  2  0  0  0  0  0  0  0  0  0
   13.0067  -17.1935   22.1006 N   0  0  0  0  0  0  0  0  0  0  0  0
   15.2595  -17.6884   21.5894 C   0  0  0  0  0  0  0  0  0  0  0  0
   14.8884  -17.8525   20.3683 O   0  0  0  0  0  0  0  0  0  0  0  0
   16.6193  -17.3729   21.7494 N   0  0  0  0  0  0  0  0  0  0  0  0
   17.1616  -16.0991   21.2214 C   0  0  1  0  0  0  0  0  0  0  0  0
   16.1247  -15.0583   21.5740 C   0  0  0  0  0  0  0  0  0  0  0  0
   15.4608  -14.5909   20.3402 C   0  0  0  0  0  0  0  0  0  0  0  0
   15.6576  -15.0349   19.0470 C   0  0  0  0  0  0  0  0  0  0  0  0
   14.8475  -14.3020   18.2550 N   0  0  0  0  0  0  0  0  0  0  0  0
   14.1612  -13.4275   18.9969 C   0  0  0  0  0  0  0  0  0  0  0  0
   14.5306  -13.5981   20.2706 N   0  0  0  0  0  0  0  0  0  0  0  0
   18.4347  -15.8049   21.9130 C   0  0  0  0  0  0  0  0  0  0  0  0
   19.4627  -15.0993   21.3348 O   0  0  0  0  0  0  0  0  0  0  0  0
   18.6000  -16.2260   23.1120 O   0  0  0  0  0  0  0  0  0  0  0  0
  2  1  1  1
  3  2  1  0
  4  3  1  0
  4  5  2  0
  6  5  1  0
  7  6  1  0
  8  7  2  0
  9  8  1  0
 10  9  2  0
 10 11  1  0
 11 12  2  0
 12  7  1  0
 12  4  1  0
 13 14  2  0
 13  2  1  0
 16 18  1  0
 16 15  1  0
 17 16  2  0
 19 18  1  6
 19 20  1  0
 20 13  1  0
 21 19  1  0
 22 21  2  0
 23 21  1  0
 24 23  1  0
 25 26  1  0
 24 25  1  1
 26 27  2  0
 28 27  1  0
 29 28  1  0
 30 29  2  0
 30 26  1  0
 31 24  1  0
 31 32  1  0
 33 31  2  0
M  END
$$$$
