WNH.pdb
     RDKit          3D

 33 35  0  0  1  0  0  0  0  0999 V2000
    7.5373  -17.1263   22.1478 N   0  0  0  0  0  0  0  0  0  0  0  0
    8.3193  -15.9252   22.0980 C   0  0  1  0  0  0  0  0  0  0  0  0
    7.5900  -14.6849   22.4664 C   0  0  0  0  0  0  0  0  0  0  0  0
    7.0183  -14.6796   23.8260 C   0  0  0  0  0  0  0  0  0  0  0  0
    6.3686  -15.7540   24.4473 C   0  0  0  0  0  0  0  0  0  0  0  0
    5.9729  -15.3715   25.6660 N   0  0  0  0  0  0  0  0  0  0  0  0
    6.3298  -14.0746   25.8984 C   0  0  0  0  0  0  0  0  0  0  0  0
    6.1526  -13.2454   26.9923 C   0  0  0  0  0  0  0  0  0  0  0  0
    6.6256  -11.9559   26.9687 C   0  0  0  0  0  0  0  0  0  0  0  0
    7.2736  -11.5248   25.8326 C   0  0  0  0  0  0  0  0  0  0  0  0
    7.4488  -12.3531   24.7439 C   0  0  0  0  0  0  0  0  0  0  0  0
    6.9734  -13.6648   24.7532 C   0  0  0  0  0  0  0  0  0  0  0  0
    9.6206  -16.0626   22.7988 C   0  0  0  0  0  0  0  0  0  0  0  0
   10.4311  -15.1071   22.7103 O   0  0  0  0  0  0  0  0  0  0  0  0
   14.1830  -15.5441   22.8157 N   0  0  0  0  0  0  0  0  0  0  0  0
   13.4887  -16.3092   23.8402 C   0  0  0  0  0  0  0  0  0  0  0  0
   14.1837  -17.0705   24.5407 O   0  0  0  0  0  0  0  0  0  0  0  0
   12.0575  -16.1100   23.9440 C   0  0  0  0  0  0  0  0  0  0  0  0
   11.2505  -17.3159   24.2959 C   0  0  2  0  0  0  0  0  0  0  0  0
    9.9551  -17.1885   23.5282 N   0  0  0  0  0  0  0  0  0  0  0  0
   10.8319  -17.3484   25.7162 C   0  0  0  0  0  0  0  0  0  0  0  0
   10.3982  -18.4557   26.2077 O   0  0  0  0  0  0  0  0  0  0  0  0
   10.8587  -16.2768   26.6246 N   0  0  0  0  0  0  0  0  0  0  0  0
   10.6093  -16.5086   28.0667 C   0  0  1  0  0  0  0  0  0  0  0  0
   11.0173  -17.9433   28.3069 C   0  0  0  0  0  0  0  0  0  0  0  0
    9.8202  -18.8073   28.2600 C   0  0  0  0  0  0  0  0  0  0  0  0
    8.5016  -18.4270   28.1022 C   0  0  0  0  0  0  0  0  0  0  0  0
    7.7625  -19.5551   28.1422 N   0  0  0  0  0  0  0  0  0  0  0  0
    8.5610  -20.6123   28.3175 C   0  0  0  0  0  0  0  0  0  0  0  0
    9.8184  -20.1633   28.3904 N   0  0  0  0  0  0  0  0  0  0  0  0
   11.4711  -15.5961   28.8478 C   0  0  0  0  0  0  0  0  0  0  0  0
   12.4382  -14.8008   28.2809 O   0  0  0  0  0  0  0  0  0  0  0  0
   11.3191  -15.5369   30.1189 O   0  0  0  0  0  0  0  0  0  0  0  0
  2  1  1  1
  3  2  1  0
  4  3  1  0
  4  5  2  0
  6  5  1  0
  7  6  1  0
  8  7  2  0
  9  8  1  0
 10  9  2  0
 10 11  1  0
 11 12  2  0
 12  7  1  0
 12  4  1  0
 13 14  2  0
 13  2  1  0
 16 18  1  0
 16 15  1  0
 17 16  2  0
 19 18  1  1
 19 20  1  0
 20 13  1  0
 21 19  1  0
 22 21  2  0
 23 21  1  0
 24 23  1  0
 25 26  1  0
 24 25  1  1
 26 27  2  0
 28 27  1  0
 29 28  1  0
 30 29  2  0
 30 26  1  0
 31 24  1  0
 31 32  1  0
 33 31  2  0
M  END
$$$$
