WNH.pdb
     RDKit          3D

 33 35  0  0  1  0  0  0  0  0999 V2000
   10.2473  -14.8348   22.6925 N   0  0  0  0  0  0  0  0  0  0  0  0
    9.8803  -15.4516   23.9341 C   0  0  1  0  0  0  0  0  0  0  0  0
    8.4372  -15.7741   24.0731 C   0  0  0  0  0  0  0  0  0  0  0  0
    7.5306  -14.6127   24.0056 C   0  0  0  0  0  0  0  0  0  0  0  0
    6.6268  -14.3361   22.9716 C   0  0  0  0  0  0  0  0  0  0  0  0
    5.9913  -13.1929   23.2495 N   0  0  0  0  0  0  0  0  0  0  0  0
    6.4290  -12.6800   24.4364 C   0  0  0  0  0  0  0  0  0  0  0  0
    6.0786  -11.5409   25.1403 C   0  0  0  0  0  0  0  0  0  0  0  0
    6.6812  -11.2553   26.3413 C   0  0  0  0  0  0  0  0  0  0  0  0
    7.6330  -12.1318   26.8125 C   0  0  0  0  0  0  0  0  0  0  0  0
    7.9804  -13.2661   26.1091 C   0  0  0  0  0  0  0  0  0  0  0  0
    7.3775  -13.5689   24.8878 C   0  0  0  0  0  0  0  0  0  0  0  0
   10.7655  -16.5890   24.2895 C   0  0  0  0  0  0  0  0  0  0  0  0
   11.9708  -16.5165   23.9435 O   0  0  0  0  0  0  0  0  0  0  0  0
   12.0808  -19.8902   28.1582 N   0  0  0  0  0  0  0  0  0  0  0  0
   10.6612  -20.0449   27.8794 C   0  0  0  0  0  0  0  0  0  0  0  0
   10.0304  -20.8414   28.6010 O   0  0  0  0  0  0  0  0  0  0  0  0
   10.1218  -19.2572   26.7898 C   0  0  0  0  0  0  0  0  0  0  0  0
   11.0847  -18.3526   26.0940 C   0  0  2  0  0  0  0  0  0  0  0  0
   10.3077  -17.6992   24.9747 N   0  0  0  0  0  0  0  0  0  0  0  0
   12.1781  -19.0767   25.4057 C   0  0  0  0  0  0  0  0  0  0  0  0
   12.9803  -19.7972   26.1078 O   0  0  0  0  0  0  0  0  0  0  0  0
   12.4492  -19.0750   24.0270 N   0  0  0  0  0  0  0  0  0  0  0  0
   13.4459  -20.0114   23.4567 C   0  0  1  0  0  0  0  0  0  0  0  0
   13.6012  -19.5847   22.0156 C   0  0  0  0  0  0  0  0  0  0  0  0
   12.2814  -19.6084   21.3529 C   0  0  0  0  0  0  0  0  0  0  0  0
   11.2541  -20.5141   21.5337 C   0  0  0  0  0  0  0  0  0  0  0  0
   10.2580  -20.1459   20.7013 N   0  0  0  0  0  0  0  0  0  0  0  0
   10.6213  -19.0578   20.0158 C   0  0  0  0  0  0  0  0  0  0  0  0
   11.8552  -18.7241   20.4083 N   0  0  0  0  0  0  0  0  0  0  0  0
   14.7238  -19.8391   24.1797 C   0  0  0  0  0  0  0  0  0  0  0  0
   15.6562  -20.8399   24.3143 O   0  0  0  0  0  0  0  0  0  0  0  0
   14.9852  -18.7039   24.7139 O   0  0  0  0  0  0  0  0  0  0  0  0
  2  1  1  6
  3  2  1  0
  4  3  1  0
  4  5  2  0
  6  5  1  0
  7  6  1  0
  8  7  2  0
  9  8  1  0
 10  9  2  0
 10 11  1  0
 11 12  2  0
 12  7  1  0
 12  4  1  0
 13 14  2  0
 13  2  1  0
 16 18  1  0
 16 15  1  0
 17 16  2  0
 19 18  1  6
 19 20  1  0
 20 13  1  0
 21 19  1  0
 22 21  2  0
 23 21  1  0
 24 23  1  0
 25 26  1  0
 24 25  1  6
 26 27  2  0
 28 27  1  0
 29 28  1  0
 30 29  2  0
 30 26  1  0
 31 24  1  0
 31 32  1  0
 33 31  2  0
M  END
$$$$
