WNH.pdb
     RDKit          3D

 33 35  0  0  1  0  0  0  0  0999 V2000
    7.0166  -17.4102   23.0874 N   0  0  0  0  0  0  0  0  0  0  0  0
    8.0877  -16.5044   23.3857 C   0  0  1  0  0  0  0  0  0  0  0  0
    8.2635  -16.1922   24.8271 C   0  0  0  0  0  0  0  0  0  0  0  0
    7.2076  -15.3461   25.4140 C   0  0  0  0  0  0  0  0  0  0  0  0
    6.1150  -15.7995   26.1645 C   0  0  0  0  0  0  0  0  0  0  0  0
    5.3653  -14.7483   26.5122 N   0  0  0  0  0  0  0  0  0  0  0  0
    5.9077  -13.5938   26.0259 C   0  0  0  0  0  0  0  0  0  0  0  0
    5.5122  -12.2709   26.1217 C   0  0  0  0  0  0  0  0  0  0  0  0
    6.2592  -11.2797   25.5328 C   0  0  0  0  0  0  0  0  0  0  0  0
    7.3998  -11.6456   24.8536 C   0  0  0  0  0  0  0  0  0  0  0  0
    7.7915  -12.9646   24.7596 C   0  0  0  0  0  0  0  0  0  0  0  0
    7.0428  -13.9821   25.3520 C   0  0  0  0  0  0  0  0  0  0  0  0
    9.3571  -16.8816   22.7151 C   0  0  0  0  0  0  0  0  0  0  0  0
    9.4697  -18.0650   22.3093 O   0  0  0  0  0  0  0  0  0  0  0  0
   13.9069  -16.6774   20.2253 N   0  0  0  0  0  0  0  0  0  0  0  0
   13.4862  -15.3157   20.5185 C   0  0  0  0  0  0  0  0  0  0  0  0
   14.2349  -14.3997   20.1266 O   0  0  0  0  0  0  0  0  0  0  0  0
   12.2382  -15.1601   21.2375 C   0  0  0  0  0  0  0  0  0  0  0  0
   11.7236  -16.3783   21.9308 C   0  0  2  0  0  0  0  0  0  0  0  0
   10.3935  -15.9852   22.5308 N   0  0  0  0  0  0  0  0  0  0  0  0
   12.5447  -16.7820   23.0954 C   0  0  0  0  0  0  0  0  0  0  0  0
   13.7997  -17.0050   22.9195 O   0  0  0  0  0  0  0  0  0  0  0  0
   12.1012  -16.9506   24.4180 N   0  0  0  0  0  0  0  0  0  0  0  0
   13.0271  -17.4468   25.4629 C   0  0  1  0  0  0  0  0  0  0  0  0
   12.1434  -17.7702   26.6449 C   0  0  0  0  0  0  0  0  0  0  0  0
   11.4249  -16.5508   27.0674 C   0  0  0  0  0  0  0  0  0  0  0  0
   11.6415  -15.2498   26.6566 C   0  0  0  0  0  0  0  0  0  0  0  0
   10.7607  -14.4773   27.3259 N   0  0  0  0  0  0  0  0  0  0  0  0
   10.0120  -15.2386   28.1296 C   0  0  0  0  0  0  0  0  0  0  0  0
   10.4120  -16.5053   27.9771 N   0  0  0  0  0  0  0  0  0  0  0  0
   13.6846  -18.6746   24.9671 C   0  0  0  0  0  0  0  0  0  0  0  0
   13.1732  -19.4480   23.9525 O   0  0  0  0  0  0  0  0  0  0  0  0
   14.7865  -19.0476   25.5046 O   0  0  0  0  0  0  0  0  0  0  0  0
  2  1  1  1
  3  2  1  0
  4  3  1  0
  4  5  2  0
  6  5  1  0
  7  6  1  0
  8  7  2  0
  9  8  1  0
 10  9  2  0
 10 11  1  0
 11 12  2  0
 12  7  1  0
 12  4  1  0
 13 14  2  0
 13  2  1  0
 16 18  1  0
 16 15  1  0
 17 16  2  0
 19 18  1  1
 19 20  1  0
 20 13  1  0
 21 19  1  0
 22 21  2  0
 23 21  1  0
 24 23  1  0
 25 26  1  0
 24 25  1  1
 26 27  2  0
 28 27  1  0
 29 28  1  0
 30 29  2  0
 30 26  1  0
 31 24  1  0
 31 32  1  0
 33 31  2  0
M  END
$$$$
