WNH.pdb
     RDKit          3D

 33 35  0  0  1  0  0  0  0  0999 V2000
    7.1654  -17.0106   26.2849 N   0  0  0  0  0  0  0  0  0  0  0  0
    6.9567  -17.2794   24.8918 C   0  0  1  0  0  0  0  0  0  0  0  0
    6.1758  -16.2474   24.1629 C   0  0  0  0  0  0  0  0  0  0  0  0
    6.8513  -14.9446   24.0155 C   0  0  0  0  0  0  0  0  0  0  0  0
    7.8559  -14.6414   23.0874 C   0  0  0  0  0  0  0  0  0  0  0  0
    8.2358  -13.3715   23.2634 N   0  0  0  0  0  0  0  0  0  0  0  0
    7.5260  -12.7974   24.2784 C   0  0  0  0  0  0  0  0  0  0  0  0
    7.5506  -11.5257   24.8239 C   0  0  0  0  0  0  0  0  0  0  0  0
    6.7076  -11.1985   25.8581 C   0  0  0  0  0  0  0  0  0  0  0  0
    5.8492  -12.1687   26.3251 C   0  0  0  0  0  0  0  0  0  0  0  0
    5.8268  -13.4353   25.7797 C   0  0  0  0  0  0  0  0  0  0  0  0
    6.6774  -13.7822   24.7296 C   0  0  0  0  0  0  0  0  0  0  0  0
    8.2081  -17.6619   24.1910 C   0  0  0  0  0  0  0  0  0  0  0  0
    8.1332  -17.9065   22.9613 O   0  0  0  0  0  0  0  0  0  0  0  0
   12.1157  -17.1738   21.1922 N   0  0  0  0  0  0  0  0  0  0  0  0
   12.0174  -16.4655   22.4594 C   0  0  0  0  0  0  0  0  0  0  0  0
   12.9940  -15.7648   22.7887 O   0  0  0  0  0  0  0  0  0  0  0  0
   10.7933  -16.6456   23.2129 C   0  0  0  0  0  0  0  0  0  0  0  0
   10.7442  -17.8376   24.1108 C   0  0  2  0  0  0  0  0  0  0  0  0
    9.4244  -17.7539   24.8421 N   0  0  0  0  0  0  0  0  0  0  0  0
   11.7611  -17.8043   25.1871 C   0  0  0  0  0  0  0  0  0  0  0  0
   12.9563  -18.1994   24.9207 O   0  0  0  0  0  0  0  0  0  0  0  0
   11.5702  -17.3713   26.5101 N   0  0  0  0  0  0  0  0  0  0  0  0
   12.3459  -17.9770   27.6177 C   0  0  1  0  0  0  0  0  0  0  0  0
   11.6772  -17.4811   28.8785 C   0  0  0  0  0  0  0  0  0  0  0  0
   11.2127  -16.0941   28.6734 C   0  0  0  0  0  0  0  0  0  0  0  0
   11.4721  -15.2589   27.6041 C   0  0  0  0  0  0  0  0  0  0  0  0
   10.8574  -14.0866   27.8663 N   0  0  0  0  0  0  0  0  0  0  0  0
   10.2322  -14.1583   29.0453 C   0  0  0  0  0  0  0  0  0  0  0  0
   10.4449  -15.3808   29.5436 N   0  0  0  0  0  0  0  0  0  0  0  0
   12.2317  -19.4481   27.5251 C   0  0  0  0  0  0  0  0  0  0  0  0
   11.4915  -20.0888   26.5603 O   0  0  0  0  0  0  0  0  0  0  0  0
   12.8481  -20.1726   28.3838 O   0  0  0  0  0  0  0  0  0  0  0  0
  2  1  1  1
  3  2  1  0
  4  3  1  0
  4  5  2  0
  6  5  1  0
  7  6  1  0
  8  7  2  0
  9  8  1  0
 10  9  2  0
 10 11  1  0
 11 12  2  0
 12  7  1  0
 12  4  1  0
 13 14  2  0
 13  2  1  0
 16 18  1  0
 16 15  1  0
 17 16  2  0
 19 18  1  6
 19 20  1  0
 20 13  1  0
 21 19  1  0
 22 21  2  0
 23 21  1  0
 24 23  1  0
 25 26  1  0
 24 25  1  1
 26 27  2  0
 28 27  1  0
 29 28  1  0
 30 29  2  0
 30 26  1  0
 31 24  1  0
 31 32  1  0
 33 31  2  0
M  END
$$$$
