WNH.pdb
     RDKit          3D

 33 35  0  0  1  0  0  0  0  0999 V2000
    6.7043  -17.2052   23.3470 N   0  0  0  0  0  0  0  0  0  0  0  0
    7.4756  -16.0369   23.0363 C   0  0  1  0  0  0  0  0  0  0  0  0
    8.2175  -15.4507   24.1818 C   0  0  0  0  0  0  0  0  0  0  0  0
    7.3721  -14.8275   25.2173 C   0  0  0  0  0  0  0  0  0  0  0  0
    6.5619  -15.5089   26.1348 C   0  0  0  0  0  0  0  0  0  0  0  0
    5.9338  -14.6128   26.9032 N   0  0  0  0  0  0  0  0  0  0  0  0
    6.2869  -13.3443   26.5428 C   0  0  0  0  0  0  0  0  0  0  0  0
    5.9168  -12.1039   27.0327 C   0  0  0  0  0  0  0  0  0  0  0  0
    6.4370  -10.9578   26.4821 C   0  0  0  0  0  0  0  0  0  0  0  0
    7.3277  -11.0869   25.4398 C   0  0  0  0  0  0  0  0  0  0  0  0
    7.6947  -12.3242   24.9536 C   0  0  0  0  0  0  0  0  0  0  0  0
    7.1743  -13.4967   25.5022 C   0  0  0  0  0  0  0  0  0  0  0  0
    8.3204  -16.2157   21.8289 C   0  0  0  0  0  0  0  0  0  0  0  0
    8.6360  -17.3890   21.5099 O   0  0  0  0  0  0  0  0  0  0  0  0
    7.5168  -12.5977   19.0215 N   0  0  0  0  0  0  0  0  0  0  0  0
    8.2246  -13.7583   18.5029 C   0  0  0  0  0  0  0  0  0  0  0  0
    7.6539  -14.4105   17.6073 O   0  0  0  0  0  0  0  0  0  0  0  0
    9.5231  -14.0408   19.0798 C   0  0  0  0  0  0  0  0  0  0  0  0
    9.6372  -15.3164   19.8474 C   0  0  2  0  0  0  0  0  0  0  0  0
    8.7584  -15.1494   21.0654 N   0  0  0  0  0  0  0  0  0  0  0  0
   10.9905  -15.5488   20.4023 C   0  0  0  0  0  0  0  0  0  0  0  0
   11.4866  -14.6763   21.2076 O   0  0  0  0  0  0  0  0  0  0  0  0
   11.8243  -16.6511   20.1495 N   0  0  0  0  0  0  0  0  0  0  0  0
   13.2333  -16.6475   20.6077 C   0  0  1  0  0  0  0  0  0  0  0  0
   13.6216  -15.1883   20.6619 C   0  0  0  0  0  0  0  0  0  0  0  0
   14.2555  -14.8025   19.3848 C   0  0  0  0  0  0  0  0  0  0  0  0
   14.2048  -15.4665   18.1745 C   0  0  0  0  0  0  0  0  0  0  0  0
   14.9487  -14.7512   17.3053 N   0  0  0  0  0  0  0  0  0  0  0  0
   15.4560  -13.6789   17.9209 C   0  0  0  0  0  0  0  0  0  0  0  0
   15.0371  -13.7038   19.1905 N   0  0  0  0  0  0  0  0  0  0  0  0
   13.2917  -17.2409   21.9605 C   0  0  0  0  0  0  0  0  0  0  0  0
   14.4691  -17.5167   22.6140 O   0  0  0  0  0  0  0  0  0  0  0  0
   12.1953  -17.5183   22.5632 O   0  0  0  0  0  0  0  0  0  0  0  0
  2  1  1  1
  3  2  1  0
  4  3  1  0
  4  5  2  0
  6  5  1  0
  7  6  1  0
  8  7  2  0
  9  8  1  0
 10  9  2  0
 10 11  1  0
 11 12  2  0
 12  7  1  0
 12  4  1  0
 13 14  2  0
 13  2  1  0
 16 18  1  0
 16 15  1  0
 17 16  2  0
 19 18  1  6
 19 20  1  0
 20 13  1  0
 21 19  1  0
 22 21  2  0
 23 21  1  0
 24 23  1  0
 25 26  1  0
 24 25  1  1
 26 27  2  0
 28 27  1  0
 29 28  1  0
 30 29  2  0
 30 26  1  0
 31 24  1  0
 31 32  1  0
 33 31  2  0
M  END
$$$$
