WNH.pdb
     RDKit          3D

 33 35  0  0  1  0  0  0  0  0999 V2000
    7.1265  -17.7931   21.7114 N   0  0  0  0  0  0  0  0  0  0  0  0
    7.7587  -17.0920   22.7909 C   0  0  1  0  0  0  0  0  0  0  0  0
    6.8305  -16.3859   23.7107 C   0  0  0  0  0  0  0  0  0  0  0  0
    7.0591  -14.9339   23.8317 C   0  0  0  0  0  0  0  0  0  0  0  0
    7.6830  -14.1190   22.8781 C   0  0  0  0  0  0  0  0  0  0  0  0
    7.7245  -12.8660   23.3432 N   0  0  0  0  0  0  0  0  0  0  0  0
    7.1509  -12.7970   24.5801 C   0  0  0  0  0  0  0  0  0  0  0  0
    6.9513  -11.7412   25.4524 C   0  0  0  0  0  0  0  0  0  0  0  0
    6.3275  -11.9471   26.6589 C   0  0  0  0  0  0  0  0  0  0  0  0
    5.9137  -13.2246   26.9639 C   0  0  0  0  0  0  0  0  0  0  0  0
    6.1139  -14.2750   26.0928 C   0  0  0  0  0  0  0  0  0  0  0  0
    6.7465  -14.0812   24.8644 C   0  0  0  0  0  0  0  0  0  0  0  0
    8.7591  -17.9253   23.5038 C   0  0  0  0  0  0  0  0  0  0  0  0
    8.3858  -19.0491   23.9226 O   0  0  0  0  0  0  0  0  0  0  0  0
   14.7419  -17.7785   24.7349 N   0  0  0  0  0  0  0  0  0  0  0  0
   13.5420  -18.5886   24.5901 C   0  0  0  0  0  0  0  0  0  0  0  0
   13.5955  -19.7550   25.0259 O   0  0  0  0  0  0  0  0  0  0  0  0
   12.4036  -17.9584   23.9532 C   0  0  0  0  0  0  0  0  0  0  0  0
   11.0631  -18.3059   24.5115 C   0  0  2  0  0  0  0  0  0  0  0  0
   10.0597  -17.5056   23.7138 N   0  0  0  0  0  0  0  0  0  0  0  0
   10.8710  -17.8464   25.9064 C   0  0  0  0  0  0  0  0  0  0  0  0
    9.7376  -17.3354   26.2383 O   0  0  0  0  0  0  0  0  0  0  0  0
   11.8108  -17.9101   26.9489 N   0  0  0  0  0  0  0  0  0  0  0  0
   11.3757  -17.7918   28.3603 C   0  0  1  0  0  0  0  0  0  0  0  0
   10.0580  -17.0550   28.3013 C   0  0  0  0  0  0  0  0  0  0  0  0
   10.3124  -15.6083   28.1466 C   0  0  0  0  0  0  0  0  0  0  0  0
   11.5195  -14.9422   28.2333 C   0  0  0  0  0  0  0  0  0  0  0  0
   11.2571  -13.6323   28.0437 N   0  0  0  0  0  0  0  0  0  0  0  0
    9.9470  -13.4584   27.8448 C   0  0  0  0  0  0  0  0  0  0  0  0
    9.3642  -14.6602   27.9064 N   0  0  0  0  0  0  0  0  0  0  0  0
   11.1759  -19.1502   28.9084 C   0  0  0  0  0  0  0  0  0  0  0  0
    9.9428  -19.7483   29.0134 O   0  0  0  0  0  0  0  0  0  0  0  0
   12.1967  -19.8122   29.3110 O   0  0  0  0  0  0  0  0  0  0  0  0
  2  1  1  6
  3  2  1  0
  4  3  1  0
  4  5  2  0
  6  5  1  0
  7  6  1  0
  8  7  2  0
  9  8  1  0
 10  9  2  0
 10 11  1  0
 11 12  2  0
 12  7  1  0
 12  4  1  0
 13 14  2  0
 13  2  1  0
 16 18  1  0
 16 15  1  0
 17 16  2  0
 19 18  1  6
 19 20  1  0
 20 13  1  0
 21 19  1  0
 22 21  2  0
 23 21  1  0
 24 23  1  0
 25 26  1  0
 24 25  1  6
 26 27  2  0
 28 27  1  0
 29 28  1  0
 30 29  2  0
 30 26  1  0
 31 24  1  0
 31 32  1  0
 33 31  2  0
M  END
$$$$
