WNH.pdb
     RDKit          3D

 33 35  0  0  1  0  0  0  0  0999 V2000
    7.2810  -16.1948   22.6223 N   0  0  0  0  0  0  0  0  0  0  0  0
    8.5312  -16.0768   23.3150 C   0  0  1  0  0  0  0  0  0  0  0  0
    8.4216  -15.9310   24.7890 C   0  0  0  0  0  0  0  0  0  0  0  0
    7.3525  -15.0239   25.2469 C   0  0  0  0  0  0  0  0  0  0  0  0
    6.0550  -15.4039   25.6137 C   0  0  0  0  0  0  0  0  0  0  0  0
    5.3663  -14.3099   25.9556 N   0  0  0  0  0  0  0  0  0  0  0  0
    6.1478  -13.1971   25.8353 C   0  0  0  0  0  0  0  0  0  0  0  0
    5.8965  -11.8570   26.0728 C   0  0  0  0  0  0  0  0  0  0  0  0
    6.8823  -10.9210   25.8745 C   0  0  0  0  0  0  0  0  0  0  0  0
    8.1123  -11.3591   25.4371 C   0  0  0  0  0  0  0  0  0  0  0  0
    8.3601  -12.6951   25.2012 C   0  0  0  0  0  0  0  0  0  0  0  0
    7.3686  -13.6570   25.3975 C   0  0  0  0  0  0  0  0  0  0  0  0
    9.5099  -17.1155   22.9063 C   0  0  0  0  0  0  0  0  0  0  0  0
    9.2484  -17.7864   21.8771 O   0  0  0  0  0  0  0  0  0  0  0  0
   13.2384  -19.6679   20.8117 N   0  0  0  0  0  0  0  0  0  0  0  0
   13.3738  -18.2660   21.1770 C   0  0  0  0  0  0  0  0  0  0  0  0
   14.4634  -17.7202   20.9164 O   0  0  0  0  0  0  0  0  0  0  0  0
   12.2278  -17.6438   21.8080 C   0  0  0  0  0  0  0  0  0  0  0  0
   11.7785  -18.2494   23.0967 C   0  0  2  0  0  0  0  0  0  0  0  0
   10.6734  -17.3574   23.6130 N   0  0  0  0  0  0  0  0  0  0  0  0
   12.8105  -18.2042   24.1581 C   0  0  0  0  0  0  0  0  0  0  0  0
   13.9326  -18.8003   23.9550 O   0  0  0  0  0  0  0  0  0  0  0  0
   12.7082  -17.5594   25.4023 N   0  0  0  0  0  0  0  0  0  0  0  0
   12.0216  -18.2209   26.5365 C   0  0  1  0  0  0  0  0  0  0  0  0
   10.6666  -18.6140   25.9959 C   0  0  0  0  0  0  0  0  0  0  0  0
    9.9056  -19.3191   27.0472 C   0  0  0  0  0  0  0  0  0  0  0  0
   10.2783  -19.5518   28.3568 C   0  0  0  0  0  0  0  0  0  0  0  0
    9.2751  -20.2486   28.9303 N   0  0  0  0  0  0  0  0  0  0  0  0
    8.3024  -20.4572   28.0379 C   0  0  0  0  0  0  0  0  0  0  0  0
    8.6805  -19.8927   26.8862 N   0  0  0  0  0  0  0  0  0  0  0  0
   12.7887  -19.4267   26.9148 C   0  0  0  0  0  0  0  0  0  0  0  0
   13.0932  -20.4356   26.0324 O   0  0  0  0  0  0  0  0  0  0  0  0
   13.1935  -19.5492   28.1245 O   0  0  0  0  0  0  0  0  0  0  0  0
  2  1  1  1
  3  2  1  0
  4  3  1  0
  4  5  2  0
  6  5  1  0
  7  6  1  0
  8  7  2  0
  9  8  1  0
 10  9  2  0
 10 11  1  0
 11 12  2  0
 12  7  1  0
 12  4  1  0
 13 14  2  0
 13  2  1  0
 16 18  1  0
 16 15  1  0
 17 16  2  0
 19 18  1  6
 19 20  1  0
 20 13  1  0
 21 19  1  0
 22 21  2  0
 23 21  1  0
 24 23  1  0
 25 26  1  0
 24 25  1  6
 26 27  2  0
 28 27  1  0
 29 28  1  0
 30 29  2  0
 30 26  1  0
 31 24  1  0
 31 32  1  0
 33 31  2  0
M  END
$$$$
