WNH.pdb
     RDKit          3D

 33 35  0  0  1  0  0  0  0  0999 V2000
    9.0459  -17.0378   23.8429 N   0  0  0  0  0  0  0  0  0  0  0  0
    8.0545  -16.8740   24.8661 C   0  0  1  0  0  0  0  0  0  0  0  0
    6.8208  -16.1663   24.4381 C   0  0  0  0  0  0  0  0  0  0  0  0
    6.9874  -14.7229   24.1847 C   0  0  0  0  0  0  0  0  0  0  0  0
    7.4254  -14.1453   22.9860 C   0  0  0  0  0  0  0  0  0  0  0  0
    7.4666  -12.8174   23.1375 N   0  0  0  0  0  0  0  0  0  0  0  0
    7.0719  -12.4685   24.3969 C   0  0  0  0  0  0  0  0  0  0  0  0
    6.9431  -11.2402   25.0217 C   0  0  0  0  0  0  0  0  0  0  0  0
    6.5089  -11.1665   26.3229 C   0  0  0  0  0  0  0  0  0  0  0  0
    6.2107  -12.3430   26.9734 C   0  0  0  0  0  0  0  0  0  0  0  0
    6.3400  -13.5656   26.3485 C   0  0  0  0  0  0  0  0  0  0  0  0
    6.7803  -13.6562   25.0276 C   0  0  0  0  0  0  0  0  0  0  0  0
    7.7754  -18.1355   25.5970 C   0  0  0  0  0  0  0  0  0  0  0  0
    6.8943  -18.1052   26.4916 O   0  0  0  0  0  0  0  0  0  0  0  0
    6.7949  -21.9501   23.1132 N   0  0  0  0  0  0  0  0  0  0  0  0
    6.7964  -21.7458   24.5539 C   0  0  0  0  0  0  0  0  0  0  0  0
    5.6849  -21.6412   25.1077 O   0  0  0  0  0  0  0  0  0  0  0  0
    8.0908  -21.6840   25.2015 C   0  0  0  0  0  0  0  0  0  0  0  0
    8.2900  -20.5607   26.1648 C   0  0  2  0  0  0  0  0  0  0  0  0
    8.4449  -19.3142   25.3247 N   0  0  0  0  0  0  0  0  0  0  0  0
    9.5610  -20.6529   26.9196 C   0  0  0  0  0  0  0  0  0  0  0  0
    9.7358  -21.6477   27.7168 O   0  0  0  0  0  0  0  0  0  0  0  0
   10.6395  -19.7541   26.8617 N   0  0  0  0  0  0  0  0  0  0  0  0
   11.8900  -20.0329   27.6060 C   0  0  1  0  0  0  0  0  0  0  0  0
   12.9338  -19.1545   26.9568 C   0  0  0  0  0  0  0  0  0  0  0  0
   13.1799  -19.6236   25.5780 C   0  0  0  0  0  0  0  0  0  0  0  0
   12.6615  -20.7417   24.9540 C   0  0  0  0  0  0  0  0  0  0  0  0
   13.1839  -20.7721   23.7103 N   0  0  0  0  0  0  0  0  0  0  0  0
   13.9994  -19.7275   23.5373 C   0  0  0  0  0  0  0  0  0  0  0  0
   14.0019  -19.0222   24.6733 N   0  0  0  0  0  0  0  0  0  0  0  0
   11.6977  -19.6378   29.0175 C   0  0  0  0  0  0  0  0  0  0  0  0
   12.6406  -19.8469   29.9954 O   0  0  0  0  0  0  0  0  0  0  0  0
   10.5992  -19.0728   29.3586 O   0  0  0  0  0  0  0  0  0  0  0  0
  2  1  1  6
  3  2  1  0
  4  3  1  0
  4  5  2  0
  6  5  1  0
  7  6  1  0
  8  7  2  0
  9  8  1  0
 10  9  2  0
 10 11  1  0
 11 12  2  0
 12  7  1  0
 12  4  1  0
 13 14  2  0
 13  2  1  0
 16 18  1  0
 16 15  1  0
 17 16  2  0
 19 18  1  6
 19 20  1  0
 20 13  1  0
 21 19  1  0
 22 21  2  0
 23 21  1  0
 24 23  1  0
 25 26  1  0
 24 25  1  6
 26 27  2  0
 28 27  1  0
 29 28  1  0
 30 29  2  0
 30 26  1  0
 31 24  1  0
 31 32  1  0
 33 31  2  0
M  END
$$$$
