WNH.pdb
     RDKit          3D

 33 35  0  0  1  0  0  0  0  0999 V2000
   10.0029  -17.4749   19.3834 N   0  0  0  0  0  0  0  0  0  0  0  0
   11.0402  -16.5093   19.6033 C   0  0  1  0  0  0  0  0  0  0  0  0
   10.8715  -15.6714   20.8180 C   0  0  0  0  0  0  0  0  0  0  0  0
    9.5349  -15.0686   20.9775 C   0  0  0  0  0  0  0  0  0  0  0  0
    8.5106  -15.5501   21.8029 C   0  0  0  0  0  0  0  0  0  0  0  0
    7.4435  -14.7548   21.6735 N   0  0  0  0  0  0  0  0  0  0  0  0
    7.7034  -13.7476   20.7895 C   0  0  0  0  0  0  0  0  0  0  0  0
    6.9340  -12.6908   20.3349 C   0  0  0  0  0  0  0  0  0  0  0  0
    7.4509  -11.7958   19.4298 C   0  0  0  0  0  0  0  0  0  0  0  0
    8.7445  -11.9863   18.9978 C   0  0  0  0  0  0  0  0  0  0  0  0
    9.5090  -13.0403   19.4524 C   0  0  0  0  0  0  0  0  0  0  0  0
    8.9974  -13.9574   20.3710 C   0  0  0  0  0  0  0  0  0  0  0  0
   12.3990  -17.0957   19.4875 C   0  0  0  0  0  0  0  0  0  0  0  0
   12.5636  -18.0187   18.6516 O   0  0  0  0  0  0  0  0  0  0  0  0
   16.2490  -15.0143   17.2154 N   0  0  0  0  0  0  0  0  0  0  0  0
   15.4370  -14.2623   18.1600 C   0  0  0  0  0  0  0  0  0  0  0  0
   15.7437  -13.0675   18.3379 O   0  0  0  0  0  0  0  0  0  0  0  0
   14.3523  -14.9778   18.8004 C   0  0  0  0  0  0  0  0  0  0  0  0
   14.7455  -16.1306   19.6639 C   0  0  2  0  0  0  0  0  0  0  0  0
   13.4620  -16.6624   20.2583 N   0  0  0  0  0  0  0  0  0  0  0  0
   15.5557  -15.7346   20.8389 C   0  0  0  0  0  0  0  0  0  0  0  0
   16.7096  -15.2003   20.6423 O   0  0  0  0  0  0  0  0  0  0  0  0
   15.1983  -15.8725   22.1907 N   0  0  0  0  0  0  0  0  0  0  0  0
   16.2072  -16.2812   23.1961 C   0  0  1  0  0  0  0  0  0  0  0  0
   16.5579  -17.7067   22.8388 C   0  0  0  0  0  0  0  0  0  0  0  0
   15.3548  -18.5538   22.9670 C   0  0  0  0  0  0  0  0  0  0  0  0
   14.0916  -18.1810   23.3837 C   0  0  0  0  0  0  0  0  0  0  0  0
   13.3282  -19.2934   23.3591 N   0  0  0  0  0  0  0  0  0  0  0  0
   14.0593  -20.3338   22.9481 C   0  0  0  0  0  0  0  0  0  0  0  0
   15.2973  -19.8899   22.7071 N   0  0  0  0  0  0  0  0  0  0  0  0
   17.3951  -15.4130   23.0530 C   0  0  0  0  0  0  0  0  0  0  0  0
   18.4960  -15.4985   23.8716 O   0  0  0  0  0  0  0  0  0  0  0  0
   17.4095  -14.5308   22.1235 O   0  0  0  0  0  0  0  0  0  0  0  0
  2  1  1  1
  3  2  1  0
  4  3  1  0
  4  5  2  0
  6  5  1  0
  7  6  1  0
  8  7  2  0
  9  8  1  0
 10  9  2  0
 10 11  1  0
 11 12  2  0
 12  7  1  0
 12  4  1  0
 13 14  2  0
 13  2  1  0
 16 18  1  0
 16 15  1  0
 17 16  2  0
 19 18  1  6
 19 20  1  0
 20 13  1  0
 21 19  1  0
 22 21  2  0
 23 21  1  0
 24 23  1  0
 25 26  1  0
 24 25  1  6
 26 27  2  0
 28 27  1  0
 29 28  1  0
 30 29  2  0
 30 26  1  0
 31 24  1  0
 31 32  1  0
 33 31  2  0
M  END
$$$$
