WNH.pdb
     RDKit          3D

 33 35  0  0  1  0  0  0  0  0999 V2000
    6.0190  -18.7453   24.3940 N   0  0  0  0  0  0  0  0  0  0  0  0
    6.9885  -17.9310   23.7206 C   0  0  1  0  0  0  0  0  0  0  0  0
    7.8095  -17.0682   24.6080 C   0  0  0  0  0  0  0  0  0  0  0  0
    7.0525  -16.0502   25.3604 C   0  0  0  0  0  0  0  0  0  0  0  0
    6.1442  -16.3025   26.3967 C   0  0  0  0  0  0  0  0  0  0  0  0
    5.6439  -15.1384   26.8238 N   0  0  0  0  0  0  0  0  0  0  0  0
    6.1786  -14.1008   26.1159 C   0  0  0  0  0  0  0  0  0  0  0  0
    5.9856  -12.7322   26.1874 C   0  0  0  0  0  0  0  0  0  0  0  0
    6.6700  -11.8906   25.3444 C   0  0  0  0  0  0  0  0  0  0  0  0
    7.5428  -12.4510   24.4386 C   0  0  0  0  0  0  0  0  0  0  0  0
    7.7332  -13.8152   24.3695 C   0  0  0  0  0  0  0  0  0  0  0  0
    7.0448  -14.6823   25.2186 C   0  0  0  0  0  0  0  0  0  0  0  0
    7.8017  -18.7007   22.7461 C   0  0  0  0  0  0  0  0  0  0  0  0
    7.9428  -19.9317   22.9521 O   0  0  0  0  0  0  0  0  0  0  0  0
   11.3633  -19.6921   19.0510 N   0  0  0  0  0  0  0  0  0  0  0  0
   10.6219  -18.5038   18.6568 C   0  0  0  0  0  0  0  0  0  0  0  0
   10.8751  -18.0310   17.5318 O   0  0  0  0  0  0  0  0  0  0  0  0
    9.6625  -17.9881   19.6119 C   0  0  0  0  0  0  0  0  0  0  0  0
    9.5494  -18.7370   20.8987 C   0  0  2  0  0  0  0  0  0  0  0  0
    8.3938  -18.1110   21.6446 N   0  0  0  0  0  0  0  0  0  0  0  0
   10.7118  -18.5420   21.7957 C   0  0  0  0  0  0  0  0  0  0  0  0
   11.8244  -19.1165   21.4995 O   0  0  0  0  0  0  0  0  0  0  0  0
   10.7465  -17.7717   22.9703 N   0  0  0  0  0  0  0  0  0  0  0  0
   11.9742  -17.7202   23.7983 C   0  0  1  0  0  0  0  0  0  0  0  0
   11.7583  -16.5615   24.7435 C   0  0  0  0  0  0  0  0  0  0  0  0
   11.3856  -15.3604   23.9688 C   0  0  0  0  0  0  0  0  0  0  0  0
   11.3292  -15.2165   22.5961 C   0  0  0  0  0  0  0  0  0  0  0  0
   10.9612  -13.9415   22.3520 N   0  0  0  0  0  0  0  0  0  0  0  0
   10.7884  -13.2923   23.5073 C   0  0  0  0  0  0  0  0  0  0  0  0
   11.0459  -14.1522   24.4984 N   0  0  0  0  0  0  0  0  0  0  0  0
   12.0850  -18.9836   24.5579 C   0  0  0  0  0  0  0  0  0  0  0  0
   13.1449  -19.2791   25.3816 O   0  0  0  0  0  0  0  0  0  0  0  0
   11.1526  -19.8560   24.4488 O   0  0  0  0  0  0  0  0  0  0  0  0
  2  1  1  1
  3  2  1  0
  4  3  1  0
  4  5  2  0
  6  5  1  0
  7  6  1  0
  8  7  2  0
  9  8  1  0
 10  9  2  0
 10 11  1  0
 11 12  2  0
 12  7  1  0
 12  4  1  0
 13 14  2  0
 13  2  1  0
 16 18  1  0
 16 15  1  0
 17 16  2  0
 19 18  1  6
 19 20  1  0
 20 13  1  0
 21 19  1  0
 22 21  2  0
 23 21  1  0
 24 23  1  0
 25 26  1  0
 24 25  1  1
 26 27  2  0
 28 27  1  0
 29 28  1  0
 30 29  2  0
 30 26  1  0
 31 24  1  0
 31 32  1  0
 33 31  2  0
M  END
$$$$
