WNH.pdb
     RDKit          3D

 33 35  0  0  1  0  0  0  0  0999 V2000
    6.3648  -17.4390   23.5572 N   0  0  0  0  0  0  0  0  0  0  0  0
    7.1540  -16.3047   23.1737 C   0  0  1  0  0  0  0  0  0  0  0  0
    7.9608  -15.7024   24.2657 C   0  0  0  0  0  0  0  0  0  0  0  0
    7.1849  -14.9570   25.2744 C   0  0  0  0  0  0  0  0  0  0  0  0
    6.3028  -15.5155   26.2086 C   0  0  0  0  0  0  0  0  0  0  0  0
    5.7732  -14.5314   26.9427 N   0  0  0  0  0  0  0  0  0  0  0  0
    6.2627  -13.3214   26.5429 C   0  0  0  0  0  0  0  0  0  0  0  0
    6.0277  -12.0324   26.9889 C   0  0  0  0  0  0  0  0  0  0  0  0
    6.6706  -10.9685   26.4042 C   0  0  0  0  0  0  0  0  0  0  0  0
    7.5452  -11.2281   25.3727 C   0  0  0  0  0  0  0  0  0  0  0  0
    7.7774  -12.5135   24.9301 C   0  0  0  0  0  0  0  0  0  0  0  0
    7.1314  -13.6038   25.5138 C   0  0  0  0  0  0  0  0  0  0  0  0
    7.9403  -16.5483   21.9385 C   0  0  0  0  0  0  0  0  0  0  0  0
    8.1922  -17.7413   21.6366 O   0  0  0  0  0  0  0  0  0  0  0  0
    7.4090  -12.7336   18.9913 N   0  0  0  0  0  0  0  0  0  0  0  0
    7.9126  -14.0325   18.5713 C   0  0  0  0  0  0  0  0  0  0  0  0
    7.2110  -14.6730   17.7647 O   0  0  0  0  0  0  0  0  0  0  0  0
    9.1802  -14.4522   19.1331 C   0  0  0  0  0  0  0  0  0  0  0  0
    9.1762  -15.7556   19.8616 C   0  0  2  0  0  0  0  0  0  0  0  0
    8.3919  -15.5202   21.1317 N   0  0  0  0  0  0  0  0  0  0  0  0
   10.5181  -16.1694   20.3323 C   0  0  0  0  0  0  0  0  0  0  0  0
   11.1623  -15.3889   21.1271 O   0  0  0  0  0  0  0  0  0  0  0  0
   11.1927  -17.3583   20.0072 N   0  0  0  0  0  0  0  0  0  0  0  0
   12.5672  -17.6016   20.5042 C   0  0  1  0  0  0  0  0  0  0  0  0
   12.5714  -19.0462   20.9466 C   0  0  0  0  0  0  0  0  0  0  0  0
   11.8489  -19.1677   22.2291 C   0  0  0  0  0  0  0  0  0  0  0  0
   12.1820  -18.6132   23.4497 C   0  0  0  0  0  0  0  0  0  0  0  0
   11.2417  -19.0144   24.3304 N   0  0  0  0  0  0  0  0  0  0  0  0
   10.3456  -19.7896   23.7124 C   0  0  0  0  0  0  0  0  0  0  0  0
   10.7099  -19.8877   22.4296 N   0  0  0  0  0  0  0  0  0  0  0  0
   13.5149  -17.4082   19.3862 C   0  0  0  0  0  0  0  0  0  0  0  0
   14.8723  -17.5874   19.5072 O   0  0  0  0  0  0  0  0  0  0  0  0
   13.0593  -17.0535   18.2421 O   0  0  0  0  0  0  0  0  0  0  0  0
  2  1  1  1
  3  2  1  0
  4  3  1  0
  4  5  2  0
  6  5  1  0
  7  6  1  0
  8  7  2  0
  9  8  1  0
 10  9  2  0
 10 11  1  0
 11 12  2  0
 12  7  1  0
 12  4  1  0
 13 14  2  0
 13  2  1  0
 16 18  1  0
 16 15  1  0
 17 16  2  0
 19 18  1  1
 19 20  1  0
 20 13  1  0
 21 19  1  0
 22 21  2  0
 23 21  1  0
 24 23  1  0
 25 26  1  0
 24 25  1  6
 26 27  2  0
 28 27  1  0
 29 28  1  0
 30 29  2  0
 30 26  1  0
 31 24  1  0
 31 32  1  0
 33 31  2  0
M  END
$$$$
