VAY.pdb
     RDKit          3D

 25 25  0  0  1  0  0  0  0  0999 V2000
    7.6107  -13.2135   21.5081 C   0  0  0  0  0  0  0  0  0  0  0  0
    8.5554  -13.3221   20.3114 C   0  0  2  0  0  0  0  0  0  0  0  0
    8.0995  -12.3356   19.2766 C   0  0  0  0  0  0  0  0  0  0  0  0
    8.4685  -14.7743   19.8448 C   0  0  2  0  0  0  0  0  0  0  0  0
    7.0517  -14.9658   19.4431 N   0  0  0  0  0  0  0  0  0  0  0  0
    8.7389  -15.7350   20.9383 C   0  0  0  0  0  0  0  0  0  0  0  0
    7.7962  -16.1259   21.7090 O   0  0  0  0  0  0  0  0  0  0  0  0
   11.5029  -17.9935   22.1649 C   0  0  0  0  0  0  0  0  0  0  0  0
   10.1803  -17.2287   22.3040 C   0  0  2  0  0  0  0  0  0  0  0  0
   10.0304  -16.2893   21.2136 N   0  0  0  0  0  0  0  0  0  0  0  0
   10.1611  -16.6010   23.6376 C   0  0  0  0  0  0  0  0  0  0  0  0
   10.7857  -15.5270   23.7891 O   0  0  0  0  0  0  0  0  0  0  0  0
    5.9593  -11.0816   26.1959 O   0  0  0  0  0  0  0  0  0  0  0  0
    6.4789  -12.3885   26.2800 C   0  0  0  0  0  0  0  0  0  0  0  0
    7.8333  -12.5726   26.3856 C   0  0  0  0  0  0  0  0  0  0  0  0
    8.3774  -13.8292   26.4696 C   0  0  0  0  0  0  0  0  0  0  0  0
    7.5929  -14.9676   26.4530 C   0  0  0  0  0  0  0  0  0  0  0  0
    8.1038  -16.3269   26.5247 C   0  0  0  0  0  0  0  0  0  0  0  0
    9.5069  -16.5491   26.0479 C   0  0  2  0  0  0  0  0  0  0  0  0
    9.4697  -17.1639   24.7333 N   0  0  0  0  0  0  0  0  0  0  0  0
   10.1868  -17.4935   26.9647 C   0  0  0  0  0  0  0  0  0  0  0  0
   10.3378  -18.7000   26.6291 O   0  0  0  0  0  0  0  0  0  0  0  0
    6.2331  -14.7780   26.3468 C   0  0  0  0  0  0  0  0  0  0  0  0
    5.6761  -13.5076   26.2609 C   0  0  0  0  0  0  0  0  0  0  0  0
   10.6862  -17.1304   28.2089 O   0  0  0  0  0  0  0  0  0  0  0  0
  2  1  1  1
  3  2  1  0
  4  2  1  0
  4  5  1  1
  6  7  2  0
  6  4  1  0
  9  8  1  6
  9 10  1  0
 10  6  1  0
 11 20  1  0
 11  9  1  0
 12 11  2  0
 13 14  1  0
 14 24  2  0
 14 15  1  0
 15 16  2  0
 16 17  1  0
 17 18  1  0
 19 18  1  1
 19 20  1  0
 19 21  1  0
 21 25  1  0
 22 21  2  0
 23 17  2  0
 24 23  1  0
M  END
$$$$
