VAY.pdb
     RDKit          3D

 25 25  0  0  1  0  0  0  0  0999 V2000
    7.5066  -13.0927   20.5955 C   0  0  0  0  0  0  0  0  0  0  0  0
    8.4421  -13.2319   19.3948 C   0  0  2  0  0  0  0  0  0  0  0  0
    8.0670  -12.1758   18.3967 C   0  0  0  0  0  0  0  0  0  0  0  0
    8.2423  -14.6549   18.8761 C   0  0  2  0  0  0  0  0  0  0  0  0
    6.8024  -14.7375   18.5224 N   0  0  0  0  0  0  0  0  0  0  0  0
    8.4878  -15.6753   19.9203 C   0  0  0  0  0  0  0  0  0  0  0  0
    7.6376  -15.8660   20.8563 O   0  0  0  0  0  0  0  0  0  0  0  0
   10.8838  -18.4582   20.7750 C   0  0  0  0  0  0  0  0  0  0  0  0
    9.8699  -17.3587   21.1161 C   0  0  2  0  0  0  0  0  0  0  0  0
    9.6533  -16.5061   19.9672 N   0  0  0  0  0  0  0  0  0  0  0  0
   10.3659  -16.6415   22.3047 C   0  0  0  0  0  0  0  0  0  0  0  0
   11.2002  -15.7249   22.1305 O   0  0  0  0  0  0  0  0  0  0  0  0
   10.9290  -14.2751   30.9512 O   0  0  0  0  0  0  0  0  0  0  0  0
   10.5560  -14.7696   29.6857 C   0  0  0  0  0  0  0  0  0  0  0  0
   10.1630  -13.8945   28.7063 C   0  0  0  0  0  0  0  0  0  0  0  0
    9.7924  -14.3372   27.4618 C   0  0  0  0  0  0  0  0  0  0  0  0
    9.7967  -15.6801   27.1329 C   0  0  0  0  0  0  0  0  0  0  0  0
    9.4040  -16.2178   25.8403 C   0  0  0  0  0  0  0  0  0  0  0  0
   10.4505  -16.2361   24.7682 C   0  0  2  0  0  0  0  0  0  0  0  0
    9.9352  -16.9504   23.6141 N   0  0  0  0  0  0  0  0  0  0  0  0
   11.6358  -16.9762   25.2601 C   0  0  0  0  0  0  0  0  0  0  0  0
   12.6540  -16.3452   25.6556 O   0  0  0  0  0  0  0  0  0  0  0  0
   10.1921  -16.5555   28.1197 C   0  0  0  0  0  0  0  0  0  0  0  0
   10.5683  -16.1131   29.3823 C   0  0  0  0  0  0  0  0  0  0  0  0
   11.7058  -18.3621   25.3183 O   0  0  0  0  0  0  0  0  0  0  0  0
  2  1  1  1
  3  2  1  0
  4  2  1  0
  4  5  1  1
  6  7  2  0
  6  4  1  0
  9  8  1  6
  9 10  1  0
 10  6  1  0
 11 20  1  0
 11  9  1  0
 12 11  2  0
 13 14  1  0
 14 24  2  0
 14 15  1  0
 15 16  2  0
 16 17  1  0
 17 18  1  0
 19 18  1  1
 19 20  1  0
 19 21  1  0
 21 25  1  0
 22 21  2  0
 23 17  2  0
 24 23  1  0
M  END
$$$$
