VAY.pdb
     RDKit          3D

 25 25  0  0  1  0  0  0  0  0999 V2000
    7.0553  -14.5673   19.1974 C   0  0  0  0  0  0  0  0  0  0  0  0
    7.5252  -13.2843   19.8827 C   0  0  2  0  0  0  0  0  0  0  0  0
    7.6935  -12.2344   18.8238 C   0  0  0  0  0  0  0  0  0  0  0  0
    8.8296  -13.6462   20.5909 C   0  0  2  0  0  0  0  0  0  0  0  0
    9.7127  -14.1799   19.5229 N   0  0  0  0  0  0  0  0  0  0  0  0
    8.6507  -14.7306   21.5827 C   0  0  0  0  0  0  0  0  0  0  0  0
    7.9058  -14.5584   22.6078 O   0  0  0  0  0  0  0  0  0  0  0  0
    9.6271  -18.3572   22.0931 C   0  0  0  0  0  0  0  0  0  0  0  0
    9.0122  -17.0117   22.4992 C   0  0  2  0  0  0  0  0  0  0  0  0
    9.2712  -16.0172   21.4805 N   0  0  0  0  0  0  0  0  0  0  0  0
    9.5439  -16.6560   23.8274 C   0  0  0  0  0  0  0  0  0  0  0  0
   10.6590  -16.0900   23.8801 O   0  0  0  0  0  0  0  0  0  0  0  0
    6.2572  -10.9000   26.0391 O   0  0  0  0  0  0  0  0  0  0  0  0
    6.7516  -12.1878   26.3263 C   0  0  0  0  0  0  0  0  0  0  0  0
    8.0151  -12.3286   26.8393 C   0  0  0  0  0  0  0  0  0  0  0  0
    8.5319  -13.5653   27.1317 C   0  0  0  0  0  0  0  0  0  0  0  0
    7.8097  -14.7262   26.9260 C   0  0  0  0  0  0  0  0  0  0  0  0
    8.3004  -16.0669   27.2006 C   0  0  0  0  0  0  0  0  0  0  0  0
    9.3990  -16.5796   26.3200 C   0  0  2  0  0  0  0  0  0  0  0  0
    8.8449  -16.9284   25.0243 N   0  0  0  0  0  0  0  0  0  0  0  0
    9.9602  -17.8151   26.9143 C   0  0  0  0  0  0  0  0  0  0  0  0
    9.7451  -18.9317   26.3682 O   0  0  0  0  0  0  0  0  0  0  0  0
    6.5411  -14.5801   26.4104 C   0  0  0  0  0  0  0  0  0  0  0  0
    6.0123  -13.3300   26.1120 C   0  0  0  0  0  0  0  0  0  0  0  0
   10.7325  -17.8297   28.0686 O   0  0  0  0  0  0  0  0  0  0  0  0
  2  1  1  6
  3  2  1  0
  4  2  1  0
  4  5  1  6
  6  7  2  0
  6  4  1  0
  9  8  1  6
  9 10  1  0
 10  6  1  0
 11 20  1  0
 11  9  1  0
 12 11  2  0
 13 14  1  0
 14 24  2  0
 14 15  1  0
 15 16  2  0
 16 17  1  0
 17 18  1  0
 19 18  1  1
 19 20  1  0
 19 21  1  0
 21 25  1  0
 22 21  2  0
 23 17  2  0
 24 23  1  0
M  END
$$$$
