VAY.pdb
     RDKit          3D

 25 25  0  0  1  0  0  0  0  0999 V2000
    7.1224  -13.1356   21.5811 C   0  0  0  0  0  0  0  0  0  0  0  0
    8.1904  -13.1625   20.4879 C   0  0  2  0  0  0  0  0  0  0  0  0
    7.8476  -12.0991   19.4861 C   0  0  0  0  0  0  0  0  0  0  0  0
    8.1553  -14.5757   19.9084 C   0  0  2  0  0  0  0  0  0  0  0  0
    6.7840  -14.7335   19.3605 N   0  0  0  0  0  0  0  0  0  0  0  0
    8.3252  -15.6158   20.9481 C   0  0  0  0  0  0  0  0  0  0  0  0
    7.3336  -15.9872   21.6651 O   0  0  0  0  0  0  0  0  0  0  0  0
   10.7671  -18.2499   22.0171 C   0  0  0  0  0  0  0  0  0  0  0  0
    9.6261  -17.2594   22.2824 C   0  0  2  0  0  0  0  0  0  0  0  0
    9.5675  -16.2715   21.2267 N   0  0  0  0  0  0  0  0  0  0  0  0
    9.8311  -16.6851   23.6245 C   0  0  0  0  0  0  0  0  0  0  0  0
   10.6752  -15.7691   23.7475 O   0  0  0  0  0  0  0  0  0  0  0  0
    6.5319  -10.7336   26.1755 O   0  0  0  0  0  0  0  0  0  0  0  0
    6.9040  -12.0862   26.3067 C   0  0  0  0  0  0  0  0  0  0  0  0
    8.1810  -12.4022   26.6925 C   0  0  0  0  0  0  0  0  0  0  0  0
    8.5813  -13.7071   26.8313 C   0  0  0  0  0  0  0  0  0  0  0  0
    7.7229  -14.7640   26.5913 C   0  0  0  0  0  0  0  0  0  0  0  0
    8.0847  -16.1676   26.7058 C   0  0  0  0  0  0  0  0  0  0  0  0
    9.3799  -16.5864   26.0795 C   0  0  2  0  0  0  0  0  0  0  0  0
    9.1152  -17.1281   24.7588 N   0  0  0  0  0  0  0  0  0  0  0  0
    9.9852  -17.6662   26.8932 C   0  0  0  0  0  0  0  0  0  0  0  0
   10.4279  -17.4139   28.0472 O   0  0  0  0  0  0  0  0  0  0  0  0
    6.4413  -14.4420   26.2038 C   0  0  0  0  0  0  0  0  0  0  0  0
    6.0301  -13.1221   26.0612 C   0  0  0  0  0  0  0  0  0  0  0  0
   10.1026  -18.9805   26.4594 O   0  0  0  0  0  0  0  0  0  0  0  0
  2  1  1  1
  3  2  1  0
  4  2  1  0
  4  5  1  1
  6  7  2  0
  6  4  1  0
  9  8  1  6
  9 10  1  0
 10  6  1  0
 11 20  1  0
 11  9  1  0
 12 11  2  0
 13 14  1  0
 14 24  2  0
 14 15  1  0
 15 16  2  0
 16 17  1  0
 17 18  1  0
 19 18  1  1
 19 20  1  0
 19 21  1  0
 21 25  1  0
 22 21  2  0
 23 17  2  0
 24 23  1  0
M  END
$$$$
