VAY.pdb
     RDKit          3D

 25 25  0  0  1  0  0  0  0  0999 V2000
    7.7309  -12.3586   19.0843 C   0  0  0  0  0  0  0  0  0  0  0  0
    7.8771  -13.2093   20.3457 C   0  0  2  0  0  0  0  0  0  0  0  0
    8.9471  -12.5888   21.1955 C   0  0  0  0  0  0  0  0  0  0  0  0
    8.2273  -14.6148   19.8600 C   0  0  2  0  0  0  0  0  0  0  0  0
    7.0520  -15.0514   19.0642 N   0  0  0  0  0  0  0  0  0  0  0  0
    8.3727  -15.5770   20.9757 C   0  0  0  0  0  0  0  0  0  0  0  0
    7.3478  -15.9772   21.6274 O   0  0  0  0  0  0  0  0  0  0  0  0
   10.6901  -18.1884   22.1628 C   0  0  0  0  0  0  0  0  0  0  0  0
    9.6468  -17.1049   22.4643 C   0  0  2  0  0  0  0  0  0  0  0  0
    9.6262  -16.1228   21.4018 N   0  0  0  0  0  0  0  0  0  0  0  0
    9.9542  -16.5404   23.7910 C   0  0  0  0  0  0  0  0  0  0  0  0
   10.8902  -15.7136   23.8737 O   0  0  0  0  0  0  0  0  0  0  0  0
    5.9779  -10.9696   25.9691 O   0  0  0  0  0  0  0  0  0  0  0  0
    6.5536  -12.2293   26.2278 C   0  0  0  0  0  0  0  0  0  0  0  0
    7.8786  -12.3101   26.5708 C   0  0  0  0  0  0  0  0  0  0  0  0
    8.4753  -13.5179   26.8301 C   0  0  0  0  0  0  0  0  0  0  0  0
    7.7757  -14.7084   26.7601 C   0  0  0  0  0  0  0  0  0  0  0  0
    8.3482  -16.0216   27.0086 C   0  0  0  0  0  0  0  0  0  0  0  0
    9.5973  -16.3690   26.2574 C   0  0  2  0  0  0  0  0  0  0  0  0
    9.2360  -16.8966   24.9540 N   0  0  0  0  0  0  0  0  0  0  0  0
   10.3211  -17.4358   26.9873 C   0  0  0  0  0  0  0  0  0  0  0  0
   10.3160  -18.6174   26.5456 O   0  0  0  0  0  0  0  0  0  0  0  0
    6.4453  -14.6225   26.4151 C   0  0  0  0  0  0  0  0  0  0  0  0
    5.8353  -13.4020   26.1510 C   0  0  0  0  0  0  0  0  0  0  0  0
   11.0286  -17.2178   28.1625 O   0  0  0  0  0  0  0  0  0  0  0  0
  2  1  1  6
  3  2  1  0
  4  2  1  0
  4  5  1  6
  6  7  2  0
  6  4  1  0
  9  8  1  6
  9 10  1  0
 10  6  1  0
 11 20  1  0
 11  9  1  0
 12 11  2  0
 13 14  1  0
 14 24  2  0
 14 15  1  0
 15 16  2  0
 16 17  1  0
 17 18  1  0
 19 18  1  1
 19 20  1  0
 19 21  1  0
 21 25  1  0
 22 21  2  0
 23 17  2  0
 24 23  1  0
M  END
$$$$
