VAY.pdb
     RDKit          3D

 25 25  0  0  1  0  0  0  0  0999 V2000
    7.5899  -14.5630   18.7856 C   0  0  0  0  0  0  0  0  0  0  0  0
    7.4232  -13.4072   19.7718 C   0  0  2  0  0  0  0  0  0  0  0  0
    7.7411  -12.1340   19.0438 C   0  0  0  0  0  0  0  0  0  0  0  0
    8.3824  -13.7030   20.9235 C   0  0  2  0  0  0  0  0  0  0  0  0
    9.6994  -13.9356   20.2779 N   0  0  0  0  0  0  0  0  0  0  0  0
    8.0311  -14.9475   21.6444 C   0  0  0  0  0  0  0  0  0  0  0  0
    6.9045  -15.0591   22.2390 O   0  0  0  0  0  0  0  0  0  0  0  0
    8.8621  -18.5341   21.6731 C   0  0  0  0  0  0  0  0  0  0  0  0
    8.4295  -17.2712   22.4289 C   0  0  2  0  0  0  0  0  0  0  0  0
    8.8900  -16.0901   21.7312 N   0  0  0  0  0  0  0  0  0  0  0  0
    8.9305  -17.3796   23.8111 C   0  0  0  0  0  0  0  0  0  0  0  0
    8.7099  -18.4433   24.4328 O   0  0  0  0  0  0  0  0  0  0  0  0
    5.9584  -10.8077   26.5754 O   0  0  0  0  0  0  0  0  0  0  0  0
    6.4997  -12.1074   26.5198 C   0  0  0  0  0  0  0  0  0  0  0  0
    7.8537  -12.2710   26.3806 C   0  0  0  0  0  0  0  0  0  0  0  0
    8.4184  -13.5199   26.3225 C   0  0  0  0  0  0  0  0  0  0  0  0
    7.6562  -14.6707   26.4014 C   0  0  0  0  0  0  0  0  0  0  0  0
    8.1873  -16.0225   26.3331 C   0  0  0  0  0  0  0  0  0  0  0  0
    9.6105  -16.1693   25.8879 C   0  0  2  0  0  0  0  0  0  0  0  0
    9.6418  -16.3374   24.4462 N   0  0  0  0  0  0  0  0  0  0  0  0
   10.1844  -17.3932   26.4939 C   0  0  0  0  0  0  0  0  0  0  0  0
   10.3484  -17.4613   27.7428 O   0  0  0  0  0  0  0  0  0  0  0  0
    6.2967  -14.5017   26.5410 C   0  0  0  0  0  0  0  0  0  0  0  0
    5.7188  -13.2391   26.6002 C   0  0  0  0  0  0  0  0  0  0  0  0
   10.5665  -18.5076   25.7582 O   0  0  0  0  0  0  0  0  0  0  0  0
  2  1  1  6
  3  2  1  0
  4  2  1  0
  4  5  1  6
  6  7  2  0
  6  4  1  0
  9  8  1  6
  9 10  1  0
 10  6  1  0
 11 20  1  0
 11  9  1  0
 12 11  2  0
 13 14  1  0
 14 24  2  0
 14 15  1  0
 15 16  2  0
 16 17  1  0
 17 18  1  0
 19 18  1  1
 19 20  1  0
 19 21  1  0
 21 25  1  0
 22 21  2  0
 23 17  2  0
 24 23  1  0
M  END
$$$$
