VAY.pdb
     RDKit          3D

 25 25  0  0  1  0  0  0  0  0999 V2000
    7.6273  -13.2900   20.6068 C   0  0  0  0  0  0  0  0  0  0  0  0
    8.6533  -13.4050   19.4797 C   0  0  2  0  0  0  0  0  0  0  0  0
    8.2243  -12.4858   18.3738 C   0  0  0  0  0  0  0  0  0  0  0  0
    8.6616  -14.8782   19.0751 C   0  0  2  0  0  0  0  0  0  0  0  0
    7.2825  -15.1546   18.5986 N   0  0  0  0  0  0  0  0  0  0  0  0
    8.9075  -15.7774   20.2251 C   0  0  0  0  0  0  0  0  0  0  0  0
    7.9399  -16.1676   20.9645 O   0  0  0  0  0  0  0  0  0  0  0  0
   11.6690  -17.8966   21.6771 C   0  0  0  0  0  0  0  0  0  0  0  0
   10.3256  -17.1576   21.7278 C   0  0  2  0  0  0  0  0  0  0  0  0
   10.2012  -16.2702   20.5916 N   0  0  0  0  0  0  0  0  0  0  0  0
   10.2370  -16.4730   23.0304 C   0  0  0  0  0  0  0  0  0  0  0  0
   10.8029  -15.3630   23.1489 O   0  0  0  0  0  0  0  0  0  0  0  0
    6.1886  -10.8560   26.8706 O   0  0  0  0  0  0  0  0  0  0  0  0
    6.6326  -12.1608   26.5777 C   0  0  0  0  0  0  0  0  0  0  0  0
    5.9130  -12.9416   25.7105 C   0  0  0  0  0  0  0  0  0  0  0  0
    6.3126  -14.2168   25.4003 C   0  0  0  0  0  0  0  0  0  0  0  0
    7.4547  -14.7767   25.9423 C   0  0  0  0  0  0  0  0  0  0  0  0
    7.9274  -16.1240   25.6679 C   0  0  0  0  0  0  0  0  0  0  0  0
    9.3877  -16.2821   25.3719 C   0  0  2  0  0  0  0  0  0  0  0  0
    9.5433  -17.0212   24.1320 N   0  0  0  0  0  0  0  0  0  0  0  0
   10.0177  -17.0790   26.4502 C   0  0  0  0  0  0  0  0  0  0  0  0
   10.1499  -18.3264   26.3176 O   0  0  0  0  0  0  0  0  0  0  0  0
    8.1743  -13.9889   26.8130 C   0  0  0  0  0  0  0  0  0  0  0  0
    7.7743  -12.6965   27.1313 C   0  0  0  0  0  0  0  0  0  0  0  0
   10.4886  -16.5296   27.6358 O   0  0  0  0  0  0  0  0  0  0  0  0
  2  1  1  1
  3  2  1  0
  4  2  1  0
  4  5  1  1
  6  7  2  0
  6  4  1  0
  9  8  1  6
  9 10  1  0
 10  6  1  0
 11 20  1  0
 11  9  1  0
 12 11  2  0
 13 14  1  0
 14 24  2  0
 14 15  1  0
 15 16  2  0
 16 17  1  0
 17 18  1  0
 19 18  1  1
 19 20  1  0
 19 21  1  0
 21 25  1  0
 22 21  2  0
 23 17  2  0
 24 23  1  0
M  END
$$$$
