VAY.pdb
     RDKit          3D

 25 25  0  0  1  0  0  0  0  0999 V2000
    8.0305  -20.1393   18.0577 C   0  0  0  0  0  0  0  0  0  0  0  0
    8.3908  -18.6687   18.2671 C   0  0  2  0  0  0  0  0  0  0  0  0
    9.6716  -18.4015   17.5321 C   0  0  0  0  0  0  0  0  0  0  0  0
    8.5085  -18.4816   19.7787 C   0  0  2  0  0  0  0  0  0  0  0  0
    7.1717  -18.8404   20.3167 N   0  0  0  0  0  0  0  0  0  0  0  0
    8.7590  -17.0716   20.1545 C   0  0  0  0  0  0  0  0  0  0  0  0
    9.9024  -16.5370   19.9496 O   0  0  0  0  0  0  0  0  0  0  0  0
    6.8632  -13.9738   21.0756 C   0  0  0  0  0  0  0  0  0  0  0  0
    8.1241  -14.8474   21.0620 C   0  0  2  0  0  0  0  0  0  0  0  0
    7.7778  -16.2183   20.7543 N   0  0  0  0  0  0  0  0  0  0  0  0
    8.8010  -14.6815   22.3610 C   0  0  0  0  0  0  0  0  0  0  0  0
    9.2685  -13.5542   22.6387 O   0  0  0  0  0  0  0  0  0  0  0  0
    6.0994  -10.7911   27.1288 O   0  0  0  0  0  0  0  0  0  0  0  0
    6.7501  -11.9874   26.7674 C   0  0  0  0  0  0  0  0  0  0  0  0
    6.0066  -13.0696   26.3730 C   0  0  0  0  0  0  0  0  0  0  0  0
    6.6033  -14.2515   26.0137 C   0  0  0  0  0  0  0  0  0  0  0  0
    7.9765  -14.4112   26.0300 C   0  0  0  0  0  0  0  0  0  0  0  0
    8.6723  -15.6377   25.6754 C   0  0  0  0  0  0  0  0  0  0  0  0
    9.6482  -15.5589   24.5411 C   0  0  2  0  0  0  0  0  0  0  0  0
    8.9358  -15.7381   23.2889 N   0  0  0  0  0  0  0  0  0  0  0  0
   10.6243  -16.6666   24.6634 C   0  0  0  0  0  0  0  0  0  0  0  0
   10.6103  -17.6143   23.8311 O   0  0  0  0  0  0  0  0  0  0  0  0
    8.7194  -13.3217   26.4269 C   0  0  0  0  0  0  0  0  0  0  0  0
    8.1207  -12.1219   26.7923 C   0  0  0  0  0  0  0  0  0  0  0  0
   11.5855  -16.7358   25.6636 O   0  0  0  0  0  0  0  0  0  0  0  0
  2  1  1  1
  3  2  1  0
  4  2  1  0
  4  5  1  1
  6  7  2  0
  6  4  1  0
  9  8  1  1
  9 10  1  0
 10  6  1  0
 11 20  1  0
 11  9  1  0
 12 11  2  0
 13 14  1  0
 14 24  2  0
 14 15  1  0
 15 16  2  0
 16 17  1  0
 17 18  1  0
 19 18  1  1
 19 20  1  0
 19 21  1  0
 21 25  1  0
 22 21  2  0
 23 17  2  0
 24 23  1  0
M  END
$$$$
