VAY.pdb
     RDKit          3D

 25 25  0  0  1  0  0  0  0  0999 V2000
    7.1669  -12.9852   21.8850 C   0  0  0  0  0  0  0  0  0  0  0  0
    8.2850  -13.2596   20.8796 C   0  0  2  0  0  0  0  0  0  0  0  0
    8.1615  -12.2551   19.7715 C   0  0  0  0  0  0  0  0  0  0  0  0
    8.0820  -14.7013   20.4167 C   0  0  2  0  0  0  0  0  0  0  0  0
    6.7894  -14.6929   19.6855 N   0  0  0  0  0  0  0  0  0  0  0  0
    7.9287  -15.6412   21.5503 C   0  0  0  0  0  0  0  0  0  0  0  0
    6.9140  -16.4163   21.6201 O   0  0  0  0  0  0  0  0  0  0  0  0
   10.0035  -17.7871   21.8611 C   0  0  0  0  0  0  0  0  0  0  0  0
    9.3163  -17.0735   23.0324 C   0  0  2  0  0  0  0  0  0  0  0  0
    8.8700  -15.7593   22.6230 N   0  0  0  0  0  0  0  0  0  0  0  0
   10.2596  -17.0559   24.1651 C   0  0  0  0  0  0  0  0  0  0  0  0
   10.9208  -18.0938   24.3935 O   0  0  0  0  0  0  0  0  0  0  0  0
    5.8892  -11.1643   25.8397 O   0  0  0  0  0  0  0  0  0  0  0  0
    6.5982  -12.3652   26.0404 C   0  0  0  0  0  0  0  0  0  0  0  0
    6.0143  -13.5597   25.7059 C   0  0  0  0  0  0  0  0  0  0  0  0
    6.6722  -14.7499   25.8864 C   0  0  0  0  0  0  0  0  0  0  0  0
    7.9502  -14.8060   26.4109 C   0  0  0  0  0  0  0  0  0  0  0  0
    8.6984  -16.0313   26.6408 C   0  0  0  0  0  0  0  0  0  0  0  0
   10.1785  -15.9735   26.4150 C   0  0  2  0  0  0  0  0  0  0  0  0
   10.4392  -15.9217   24.9877 N   0  0  0  0  0  0  0  0  0  0  0  0
   10.7977  -17.2133   26.9385 C   0  0  0  0  0  0  0  0  0  0  0  0
   10.8038  -18.2607   26.2355 O   0  0  0  0  0  0  0  0  0  0  0  0
    8.5329  -13.6039   26.7456 C   0  0  0  0  0  0  0  0  0  0  0  0
    7.8713  -12.3951   26.5654 C   0  0  0  0  0  0  0  0  0  0  0  0
   11.3920  -17.3053   28.1905 O   0  0  0  0  0  0  0  0  0  0  0  0
  2  1  1  1
  3  2  1  0
  4  2  1  0
  4  5  1  6
  6  7  2  0
  6  4  1  0
  9  8  1  6
  9 10  1  0
 10  6  1  0
 11 20  1  0
 11  9  1  0
 12 11  2  0
 13 14  1  0
 14 24  2  0
 14 15  1  0
 15 16  2  0
 16 17  1  0
 17 18  1  0
 19 18  1  6
 19 20  1  0
 19 21  1  0
 21 25  1  0
 22 21  2  0
 23 17  2  0
 24 23  1  0
M  END
$$$$
