VAY.pdb
     RDKit          3D

 25 25  0  0  1  0  0  0  0  0999 V2000
    7.4544  -12.2596   19.5487 C   0  0  0  0  0  0  0  0  0  0  0  0
    7.8526  -13.2989   20.5964 C   0  0  2  0  0  0  0  0  0  0  0  0
    9.1111  -12.8217   21.2600 C   0  0  0  0  0  0  0  0  0  0  0  0
    8.0291  -14.6106   19.8333 C   0  0  2  0  0  0  0  0  0  0  0  0
    6.7053  -14.8785   19.2161 N   0  0  0  0  0  0  0  0  0  0  0  0
    8.3233  -15.7502   20.7315 C   0  0  0  0  0  0  0  0  0  0  0  0
    7.3737  -16.4245   21.2595 O   0  0  0  0  0  0  0  0  0  0  0  0
   11.1135  -18.1061   21.4087 C   0  0  0  0  0  0  0  0  0  0  0  0
    9.8234  -17.3945   21.8360 C   0  0  2  0  0  0  0  0  0  0  0  0
    9.6469  -16.1795   21.0701 N   0  0  0  0  0  0  0  0  0  0  0  0
    9.8906  -17.1759   23.2923 C   0  0  0  0  0  0  0  0  0  0  0  0
    9.9394  -18.1825   24.0345 O   0  0  0  0  0  0  0  0  0  0  0  0
    5.8334  -10.7425   26.2951 O   0  0  0  0  0  0  0  0  0  0  0  0
    6.4954  -11.9797   26.1680 C   0  0  0  0  0  0  0  0  0  0  0  0
    5.8010  -13.0764   25.7268 C   0  0  0  0  0  0  0  0  0  0  0  0
    6.4102  -14.2981   25.5900 C   0  0  0  0  0  0  0  0  0  0  0  0
    7.7474  -14.4850   25.8875 C   0  0  0  0  0  0  0  0  0  0  0  0
    8.4511  -15.7527   25.7784 C   0  0  0  0  0  0  0  0  0  0  0  0
    9.8725  -15.6997   25.3075 C   0  0  2  0  0  0  0  0  0  0  0  0
    9.9029  -15.8860   23.8680 N   0  0  0  0  0  0  0  0  0  0  0  0
   10.6281  -16.8175   25.9195 C   0  0  0  0  0  0  0  0  0  0  0  0
   10.6727  -16.9361   27.1745 O   0  0  0  0  0  0  0  0  0  0  0  0
    8.4409  -13.3808   26.3305 C   0  0  0  0  0  0  0  0  0  0  0  0
    7.8292  -12.1408   26.4714 C   0  0  0  0  0  0  0  0  0  0  0  0
   11.3128  -17.7755   25.1829 O   0  0  0  0  0  0  0  0  0  0  0  0
  2  1  1  6
  3  2  1  0
  4  2  1  0
  4  5  1  1
  6  7  2  0
  6  4  1  0
  9  8  1  6
  9 10  1  0
 10  6  1  0
 11 20  1  0
 11  9  1  0
 12 11  2  0
 13 14  1  0
 14 24  2  0
 14 15  1  0
 15 16  2  0
 16 17  1  0
 17 18  1  0
 19 18  1  1
 19 20  1  0
 19 21  1  0
 21 25  1  0
 22 21  2  0
 23 17  2  0
 24 23  1  0
M  END
$$$$
