VAY.pdb
     RDKit          3D

 25 25  0  0  1  0  0  0  0  0999 V2000
    6.2707  -19.9317   19.0693 C   0  0  0  0  0  0  0  0  0  0  0  0
    7.2999  -18.8267   19.3055 C   0  0  2  0  0  0  0  0  0  0  0  0
    8.3170  -18.9049   18.2048 C   0  0  0  0  0  0  0  0  0  0  0  0
    7.8845  -19.0936   20.6915 C   0  0  2  0  0  0  0  0  0  0  0  0
    6.7121  -19.1386   21.6020 N   0  0  0  0  0  0  0  0  0  0  0  0
    8.7509  -17.9885   21.1604 C   0  0  0  0  0  0  0  0  0  0  0  0
    9.9582  -17.8896   20.7508 O   0  0  0  0  0  0  0  0  0  0  0  0
    8.7341  -14.5626   22.0833 C   0  0  0  0  0  0  0  0  0  0  0  0
    9.2616  -15.9471   22.4816 C   0  0  2  0  0  0  0  0  0  0  0  0
    8.3252  -16.9731   22.0762 N   0  0  0  0  0  0  0  0  0  0  0  0
    9.5317  -15.9264   23.9306 C   0  0  0  0  0  0  0  0  0  0  0  0
   10.4406  -15.1732   24.3468 O   0  0  0  0  0  0  0  0  0  0  0  0
    6.1964  -10.9751   26.0155 O   0  0  0  0  0  0  0  0  0  0  0  0
    6.6292  -12.2914   26.2705 C   0  0  0  0  0  0  0  0  0  0  0  0
    7.7275  -12.5007   27.0640 C   0  0  0  0  0  0  0  0  0  0  0  0
    8.1798  -13.7672   27.3354 C   0  0  0  0  0  0  0  0  0  0  0  0
    7.5550  -14.8907   26.8266 C   0  0  0  0  0  0  0  0  0  0  0  0
    7.9885  -16.2583   27.0628 C   0  0  0  0  0  0  0  0  0  0  0  0
    9.1554  -16.7470   26.2598 C   0  0  2  0  0  0  0  0  0  0  0  0
    8.8077  -16.7168   24.8506 N   0  0  0  0  0  0  0  0  0  0  0  0
    9.4368  -18.1558   26.6214 C   0  0  0  0  0  0  0  0  0  0  0  0
    9.2507  -19.0733   25.7759 O   0  0  0  0  0  0  0  0  0  0  0  0
    6.4524  -14.6758   26.0301 C   0  0  0  0  0  0  0  0  0  0  0  0
    5.9897  -13.3953   25.7513 C   0  0  0  0  0  0  0  0  0  0  0  0
    9.9074  -18.5493   27.8676 O   0  0  0  0  0  0  0  0  0  0  0  0
  2  1  1  6
  3  2  1  0
  4  2  1  0
  4  5  1  1
  6  7  2  0
  6  4  1  0
  9  8  1  1
  9 10  1  0
 10  6  1  0
 11 20  1  0
 11  9  1  0
 12 11  2  0
 13 14  1  0
 14 24  2  0
 14 15  1  0
 15 16  2  0
 16 17  1  0
 17 18  1  0
 19 18  1  1
 19 20  1  0
 19 21  1  0
 21 25  1  0
 22 21  2  0
 23 17  2  0
 24 23  1  0
M  END
$$$$
