VAY.pdb
     RDKit          3D

 25 25  0  0  1  0  0  0  0  0999 V2000
    6.8513  -17.6996   18.7065 C   0  0  0  0  0  0  0  0  0  0  0  0
    7.7778  -18.8902   18.9521 C   0  0  2  0  0  0  0  0  0  0  0  0
    6.9968  -20.1424   18.6801 C   0  0  0  0  0  0  0  0  0  0  0  0
    8.2376  -18.7655   20.4037 C   0  0  2  0  0  0  0  0  0  0  0  0
    7.0113  -18.9723   21.2154 N   0  0  0  0  0  0  0  0  0  0  0  0
    8.7400  -17.4096   20.7215 C   0  0  0  0  0  0  0  0  0  0  0  0
    9.9559  -17.0938   20.4827 O   0  0  0  0  0  0  0  0  0  0  0  0
    7.4794  -13.9850   21.5408 C   0  0  0  0  0  0  0  0  0  0  0  0
    8.5384  -15.0935   21.5983 C   0  0  2  0  0  0  0  0  0  0  0  0
    7.9361  -16.3747   21.2990 N   0  0  0  0  0  0  0  0  0  0  0  0
    9.1821  -15.0331   22.9231 C   0  0  0  0  0  0  0  0  0  0  0  0
    9.8889  -14.0343   23.1865 O   0  0  0  0  0  0  0  0  0  0  0  0
    5.7580  -10.9871   26.8376 O   0  0  0  0  0  0  0  0  0  0  0  0
    6.4603  -12.1999   26.6923 C   0  0  0  0  0  0  0  0  0  0  0  0
    5.8544  -13.2625   26.0731 C   0  0  0  0  0  0  0  0  0  0  0  0
    6.5052  -14.4596   25.9127 C   0  0  0  0  0  0  0  0  0  0  0  0
    7.7975  -14.6548   26.3637 C   0  0  0  0  0  0  0  0  0  0  0  0
    8.5395  -15.8989   26.2388 C   0  0  0  0  0  0  0  0  0  0  0  0
    9.6267  -15.9385   25.2085 C   0  0  2  0  0  0  0  0  0  0  0  0
    9.0279  -16.0507   23.8907 N   0  0  0  0  0  0  0  0  0  0  0  0
   10.4579  -17.1451   25.4267 C   0  0  0  0  0  0  0  0  0  0  0  0
   11.1221  -17.2694   26.4919 O   0  0  0  0  0  0  0  0  0  0  0  0
    8.4021  -13.5848   26.9850 C   0  0  0  0  0  0  0  0  0  0  0  0
    7.7479  -12.3699   27.1508 C   0  0  0  0  0  0  0  0  0  0  0  0
   10.5596  -18.1835   24.5098 O   0  0  0  0  0  0  0  0  0  0  0  0
  2  1  1  1
  3  2  1  0
  4  2  1  0
  4  5  1  1
  6  7  2  0
  6  4  1  0
  9  8  1  1
  9 10  1  0
 10  6  1  0
 11 20  1  0
 11  9  1  0
 12 11  2  0
 13 14  1  0
 14 24  2  0
 14 15  1  0
 15 16  2  0
 16 17  1  0
 17 18  1  0
 19 18  1  1
 19 20  1  0
 19 21  1  0
 21 25  1  0
 22 21  2  0
 23 17  2  0
 24 23  1  0
M  END
$$$$
