VAY.pdb
     RDKit          3D

 25 25  0  0  1  0  0  0  0  0999 V2000
    6.3590  -17.9935   19.0618 C   0  0  0  0  0  0  0  0  0  0  0  0
    7.4056  -19.1003   19.1878 C   0  0  2  0  0  0  0  0  0  0  0  0
    6.6983  -20.4172   19.0544 C   0  0  0  0  0  0  0  0  0  0  0  0
    8.0598  -18.8989   20.5536 C   0  0  2  0  0  0  0  0  0  0  0  0
    6.9981  -19.2208   21.5407 N   0  0  0  0  0  0  0  0  0  0  0  0
    8.4527  -17.4910   20.7885 C   0  0  0  0  0  0  0  0  0  0  0  0
    9.5564  -17.0380   20.3280 O   0  0  0  0  0  0  0  0  0  0  0  0
    7.0144  -14.2185   21.8680 C   0  0  0  0  0  0  0  0  0  0  0  0
    8.1720  -15.2188   21.7539 C   0  0  2  0  0  0  0  0  0  0  0  0
    7.6584  -16.5515   21.5215 N   0  0  0  0  0  0  0  0  0  0  0  0
    8.9912  -15.1007   22.9737 C   0  0  0  0  0  0  0  0  0  0  0  0
    9.6641  -14.0568   23.1292 O   0  0  0  0  0  0  0  0  0  0  0  0
    5.8490  -11.0835   26.8286 O   0  0  0  0  0  0  0  0  0  0  0  0
    6.6136  -12.2609   26.7089 C   0  0  0  0  0  0  0  0  0  0  0  0
    6.0091  -13.4216   26.3002 C   0  0  0  0  0  0  0  0  0  0  0  0
    6.7196  -14.5882   26.1716 C   0  0  0  0  0  0  0  0  0  0  0  0
    8.0732  -14.6531   26.4451 C   0  0  0  0  0  0  0  0  0  0  0  0
    8.8824  -15.8568   26.3429 C   0  0  0  0  0  0  0  0  0  0  0  0
    9.8157  -15.9482   25.1742 C   0  0  2  0  0  0  0  0  0  0  0  0
    9.0392  -16.1123   23.9585 N   0  0  0  0  0  0  0  0  0  0  0  0
   10.6676  -17.1505   25.3270 C   0  0  0  0  0  0  0  0  0  0  0  0
   10.5588  -18.1082   24.5133 O   0  0  0  0  0  0  0  0  0  0  0  0
    8.6763  -13.4850   26.8553 C   0  0  0  0  0  0  0  0  0  0  0  0
    7.9618  -12.3003   26.9878 C   0  0  0  0  0  0  0  0  0  0  0  0
   11.6092  -17.3009   26.3369 O   0  0  0  0  0  0  0  0  0  0  0  0
  2  1  1  1
  3  2  1  0
  4  2  1  0
  4  5  1  1
  6  7  2  0
  6  4  1  0
  9  8  1  1
  9 10  1  0
 10  6  1  0
 11 20  1  0
 11  9  1  0
 12 11  2  0
 13 14  1  0
 14 24  2  0
 14 15  1  0
 15 16  2  0
 16 17  1  0
 17 18  1  0
 19 18  1  1
 19 20  1  0
 19 21  1  0
 21 25  1  0
 22 21  2  0
 23 17  2  0
 24 23  1  0
M  END
$$$$
