EQD.pdb
     RDKit          3D

 27 26  0  0  1  0  0  0  0  0999 V2000
   14.5105  -13.7260   15.8973 N   0  0  0  0  0  0  0  0  0  0  0  0
   13.7096  -14.8595   16.3128 C   0  0  1  0  0  0  0  0  0  0  0  0
   14.3691  -16.1636   16.1366 C   0  0  0  0  0  0  0  0  0  0  0  0
   15.4996  -16.5206   17.0153 C   0  0  0  0  0  0  0  0  0  0  0  0
   16.1279  -17.8133   16.8539 C   0  0  0  0  0  0  0  0  0  0  0  0
   15.5204  -18.8706   17.1356 O   0  0  0  0  0  0  0  0  0  0  0  0
   13.0993  -14.6266   17.6276 C   0  0  0  0  0  0  0  0  0  0  0  0
   13.7650  -14.0276   18.5162 O   0  0  0  0  0  0  0  0  0  0  0  0
   17.4244  -17.9316   16.3832 O   0  0  0  0  0  0  0  0  0  0  0  0
    7.7205  -13.5679   20.3559 N   0  0  0  0  0  0  0  0  0  0  0  0
    7.9708  -13.3855   18.9769 C   0  0  0  0  0  0  0  0  0  0  0  0
    7.2944  -12.5750   18.3172 O   0  0  0  0  0  0  0  0  0  0  0  0
    9.0452  -14.1493   18.2650 C   0  0  0  0  0  0  0  0  0  0  0  0
    9.7507  -15.0237   19.2526 C   0  0  0  0  0  0  0  0  0  0  0  0
   11.2343  -14.7188   19.2527 C   0  0  2  0  0  0  0  0  0  0  0  0
   11.7960  -15.0373   17.9469 N   0  0  0  0  0  0  0  0  0  0  0  0
   11.9733  -15.4238   20.3013 C   0  0  0  0  0  0  0  0  0  0  0  0
   12.3577  -16.6350   20.1549 O   0  0  0  0  0  0  0  0  0  0  0  0
   12.3424  -14.8597   21.5722 N   0  0  0  0  0  0  0  0  0  0  0  0
   13.0508  -15.6339   22.5723 C   0  0  1  0  0  0  0  0  0  0  0  0
   14.2973  -14.9662   23.0676 C   0  0  0  0  0  0  0  0  0  0  0  0
   15.3699  -15.8887   23.4588 C   0  0  0  0  0  0  0  0  0  0  0  0
   15.1894  -17.1241   23.3622 O   0  0  0  0  0  0  0  0  0  0  0  0
   12.1362  -16.0821   23.6571 C   0  0  0  0  0  0  0  0  0  0  0  0
   12.5334  -16.7570   24.6452 O   0  0  0  0  0  0  0  0  0  0  0  0
   16.5864  -15.4357   23.9359 O   0  0  0  0  0  0  0  0  0  0  0  0
   10.7824  -15.7836   23.6502 O   0  0  0  0  0  0  0  0  0  0  0  0
  2  1  1  1
  2  7  1  0
  3  2  1  0
  3  4  1  0
  4  5  1  0
  5  6  2  0
  7  8  2  0
  9  5  1  0
 11 10  1  0
 11 13  1  0
 12 11  2  0
 14 13  1  0
 15 14  1  6
 16 15  1  0
 16  7  1  0
 17 15  1  0
 17 19  1  0
 18 17  2  0
 20 19  1  0
 20 21  1  1
 22 21  1  0
 22 26  1  0
 23 22  2  0
 24 20  1  0
 24 27  1  0
 25 24  2  0
M  END
$$$$
