EQD.pdb
     RDKit          3D

 27 26  0  0  1  0  0  0  0  0999 V2000
   12.7800  -19.1864   18.7905 N   0  0  0  0  0  0  0  0  0  0  0  0
   13.7038  -18.1991   19.3112 C   0  0  1  0  0  0  0  0  0  0  0  0
   14.6598  -17.6820   18.3185 C   0  0  0  0  0  0  0  0  0  0  0  0
   14.4094  -17.9280   16.8852 C   0  0  0  0  0  0  0  0  0  0  0  0
   15.3663  -17.4412   15.9159 C   0  0  0  0  0  0  0  0  0  0  0  0
   16.3470  -18.1355   15.5660 O   0  0  0  0  0  0  0  0  0  0  0  0
   13.0046  -17.1856   20.1108 C   0  0  0  0  0  0  0  0  0  0  0  0
   13.6703  -16.2518   20.6367 O   0  0  0  0  0  0  0  0  0  0  0  0
   15.2356  -16.1897   15.3388 O   0  0  0  0  0  0  0  0  0  0  0  0
    6.8845  -16.3766   21.0874 N   0  0  0  0  0  0  0  0  0  0  0  0
    7.4424  -15.1769   21.5847 C   0  0  0  0  0  0  0  0  0  0  0  0
    6.7185  -14.3300   22.1399 O   0  0  0  0  0  0  0  0  0  0  0  0
    8.9064  -14.8819   21.4652 C   0  0  0  0  0  0  0  0  0  0  0  0
    9.5550  -15.9718   20.6719 C   0  0  0  0  0  0  0  0  0  0  0  0
   10.9904  -16.1578   21.1179 C   0  0  2  0  0  0  0  0  0  0  0  0
   11.6167  -17.2013   20.3172 N   0  0  0  0  0  0  0  0  0  0  0  0
   11.1215  -16.4723   22.5415 C   0  0  0  0  0  0  0  0  0  0  0  0
   10.6808  -15.6843   23.4476 O   0  0  0  0  0  0  0  0  0  0  0  0
   11.7368  -17.6601   23.0709 N   0  0  0  0  0  0  0  0  0  0  0  0
   11.8332  -17.8967   24.4978 C   0  0  1  0  0  0  0  0  0  0  0  0
   10.8921  -18.9535   24.9899 C   0  0  0  0  0  0  0  0  0  0  0  0
   11.0495  -19.2991   26.4078 C   0  0  0  0  0  0  0  0  0  0  0  0
   11.8840  -18.6800   27.1066 O   0  0  0  0  0  0  0  0  0  0  0  0
   13.2457  -18.1059   24.9169 C   0  0  0  0  0  0  0  0  0  0  0  0
   13.5743  -18.3192   26.1153 O   0  0  0  0  0  0  0  0  0  0  0  0
   10.2998  -20.2959   27.0053 O   0  0  0  0  0  0  0  0  0  0  0  0
   14.2949  -18.0800   24.0112 O   0  0  0  0  0  0  0  0  0  0  0  0
  2  1  1  6
  2  7  1  0
  3  2  1  0
  3  4  1  0
  4  5  1  0
  5  6  2  0
  7  8  2  0
  9  5  1  0
 11 10  1  0
 11 13  1  0
 12 11  2  0
 14 13  1  0
 15 14  1  6
 16 15  1  0
 16  7  1  0
 17 15  1  0
 17 19  1  0
 18 17  2  0
 20 19  1  0
 20 21  1  6
 22 21  1  0
 22 26  1  0
 23 22  2  0
 24 20  1  0
 24 27  1  0
 25 24  2  0
M  END
$$$$
