EQD.pdb
     RDKit          3D

 27 26  0  0  1  0  0  0  0  0999 V2000
    9.4029  -16.5648   16.5424 N   0  0  0  0  0  0  0  0  0  0  0  0
   10.7609  -16.0707   16.4396 C   0  0  1  0  0  0  0  0  0  0  0  0
   11.2092  -15.8149   15.0610 C   0  0  0  0  0  0  0  0  0  0  0  0
   10.2091  -15.4604   14.0355 C   0  0  0  0  0  0  0  0  0  0  0  0
   10.2932  -16.0846   12.7334 C   0  0  0  0  0  0  0  0  0  0  0  0
    9.2632  -16.3773   12.0856 O   0  0  0  0  0  0  0  0  0  0  0  0
   11.0080  -14.9890   17.4010 C   0  0  0  0  0  0  0  0  0  0  0  0
   12.1472  -14.4482   17.4377 O   0  0  0  0  0  0  0  0  0  0  0  0
   11.5145  -16.3834   12.1540 O   0  0  0  0  0  0  0  0  0  0  0  0
    7.3098  -14.4605   18.6238 N   0  0  0  0  0  0  0  0  0  0  0  0
    7.2944  -14.0953   19.9892 C   0  0  0  0  0  0  0  0  0  0  0  0
    6.4364  -14.5690   20.7568 O   0  0  0  0  0  0  0  0  0  0  0  0
    8.2962  -13.1378   20.5584 C   0  0  0  0  0  0  0  0  0  0  0  0
    9.1234  -12.5844   19.4415 C   0  0  0  0  0  0  0  0  0  0  0  0
   10.3482  -13.4479   19.2223 C   0  0  2  0  0  0  0  0  0  0  0  0
   10.0274  -14.5182   18.2876 N   0  0  0  0  0  0  0  0  0  0  0  0
   10.8930  -14.0099   20.4593 C   0  0  0  0  0  0  0  0  0  0  0  0
   11.1154  -13.2824   21.4877 O   0  0  0  0  0  0  0  0  0  0  0  0
   11.2292  -15.3944   20.6587 N   0  0  0  0  0  0  0  0  0  0  0  0
   11.8356  -15.8614   21.8898 C   0  0  1  0  0  0  0  0  0  0  0  0
   11.2023  -17.1077   22.4287 C   0  0  0  0  0  0  0  0  0  0  0  0
    9.7601  -17.0001   22.6800 C   0  0  0  0  0  0  0  0  0  0  0  0
    9.3181  -16.0357   23.3452 O   0  0  0  0  0  0  0  0  0  0  0  0
   13.3162  -15.9435   21.7660 C   0  0  0  0  0  0  0  0  0  0  0  0
   13.9173  -15.7680   20.6717 O   0  0  0  0  0  0  0  0  0  0  0  0
    8.8625  -17.9375   22.2022 O   0  0  0  0  0  0  0  0  0  0  0  0
   14.1325  -16.2190   22.8521 O   0  0  0  0  0  0  0  0  0  0  0  0
  2  1  1  6
  2  7  1  0
  3  2  1  0
  3  4  1  0
  4  5  1  0
  5  6  2  0
  7  8  2  0
  9  5  1  0
 11 10  1  0
 11 13  1  0
 12 11  2  0
 14 13  1  0
 15 14  1  1
 16 15  1  0
 16  7  1  0
 17 15  1  0
 17 19  1  0
 18 17  2  0
 20 19  1  0
 20 21  1  6
 22 21  1  0
 22 26  1  0
 23 22  2  0
 24 20  1  0
 24 27  1  0
 25 24  2  0
M  END
$$$$
