EQD.pdb
     RDKit          3D

 27 26  0  0  1  0  0  0  0  0999 V2000
   13.5561  -16.3140   16.4924 N   0  0  0  0  0  0  0  0  0  0  0  0
   14.3184  -15.8488   17.6333 C   0  0  1  0  0  0  0  0  0  0  0  0
   15.5041  -15.0496   17.2837 C   0  0  0  0  0  0  0  0  0  0  0  0
   15.5147  -14.2995   16.0131 C   0  0  0  0  0  0  0  0  0  0  0  0
   16.7046  -13.5630   15.6473 C   0  0  0  0  0  0  0  0  0  0  0  0
   16.8125  -13.0187   14.5255 O   0  0  0  0  0  0  0  0  0  0  0  0
   13.4414  -15.2723   18.6600 C   0  0  0  0  0  0  0  0  0  0  0  0
   13.9555  -14.7889   19.7058 O   0  0  0  0  0  0  0  0  0  0  0  0
   17.7697  -13.4324   16.5219 O   0  0  0  0  0  0  0  0  0  0  0  0
    7.4825  -12.3189   18.6535 N   0  0  0  0  0  0  0  0  0  0  0  0
    7.6802  -13.3649   19.5832 C   0  0  0  0  0  0  0  0  0  0  0  0
    6.7186  -14.0582   19.9631 O   0  0  0  0  0  0  0  0  0  0  0  0
    9.0358  -13.6764   20.1399 C   0  0  0  0  0  0  0  0  0  0  0  0
    9.8840  -14.2524   19.0506 C   0  0  0  0  0  0  0  0  0  0  0  0
   11.2364  -14.6553   19.6006 C   0  0  2  0  0  0  0  0  0  0  0  0
   12.0447  -15.2275   18.5322 N   0  0  0  0  0  0  0  0  0  0  0  0
   11.1529  -15.5924   20.7221 C   0  0  0  0  0  0  0  0  0  0  0  0
   10.7543  -16.7974   20.5634 O   0  0  0  0  0  0  0  0  0  0  0  0
   11.4973  -15.2820   22.0840 N   0  0  0  0  0  0  0  0  0  0  0  0
   11.3868  -16.2677   23.1412 C   0  0  1  0  0  0  0  0  0  0  0  0
   12.5694  -16.2876   24.0609 C   0  0  0  0  0  0  0  0  0  0  0  0
   13.8174  -16.7486   23.4408 C   0  0  0  0  0  0  0  0  0  0  0  0
   13.8119  -17.1290   22.2478 O   0  0  0  0  0  0  0  0  0  0  0  0
   10.0793  -16.1628   23.8438 C   0  0  0  0  0  0  0  0  0  0  0  0
    9.7126  -16.9882   24.7235 O   0  0  0  0  0  0  0  0  0  0  0  0
   15.0124  -16.7777   24.1363 O   0  0  0  0  0  0  0  0  0  0  0  0
    9.1773  -15.1451   23.5745 O   0  0  0  0  0  0  0  0  0  0  0  0
  2  1  1  6
  2  7  1  0
  3  2  1  0
  3  4  1  0
  4  5  1  0
  5  6  2  0
  7  8  2  0
  9  5  1  0
 11 10  1  0
 11 13  1  0
 12 11  2  0
 14 13  1  0
 15 14  1  6
 16 15  1  0
 16  7  1  0
 17 15  1  0
 17 19  1  0
 18 17  2  0
 20 19  1  0
 20 21  1  1
 22 21  1  0
 22 26  1  0
 23 22  2  0
 24 20  1  0
 24 27  1  0
 25 24  2  0
M  END
$$$$
