EQD.pdb
     RDKit          3D

 27 26  0  0  1  0  0  0  0  0999 V2000
    8.3184  -18.3319   20.7993 N   0  0  0  0  0  0  0  0  0  0  0  0
    9.3992  -17.4275   20.4636 C   0  0  1  0  0  0  0  0  0  0  0  0
    9.4554  -17.0532   19.0410 C   0  0  0  0  0  0  0  0  0  0  0  0
    8.1980  -16.7648   18.3248 C   0  0  0  0  0  0  0  0  0  0  0  0
    8.2625  -16.3498   16.9407 C   0  0  0  0  0  0  0  0  0  0  0  0
    9.3601  -16.1796   16.3640 O   0  0  0  0  0  0  0  0  0  0  0  0
    9.4786  -16.3152   21.4186 C   0  0  0  0  0  0  0  0  0  0  0  0
   10.3985  -15.4612   21.2917 O   0  0  0  0  0  0  0  0  0  0  0  0
    7.1144  -16.1239   16.2009 O   0  0  0  0  0  0  0  0  0  0  0  0
    5.2385  -13.9142   25.4448 N   0  0  0  0  0  0  0  0  0  0  0  0
    6.4130  -13.1510   25.6336 C   0  0  0  0  0  0  0  0  0  0  0  0
    6.3729  -12.0837   26.2731 O   0  0  0  0  0  0  0  0  0  0  0  0
    7.7338  -13.5904   25.0798 C   0  0  0  0  0  0  0  0  0  0  0  0
    7.4999  -14.6789   24.0806 C   0  0  0  0  0  0  0  0  0  0  0  0
    8.8180  -15.1420   23.4958 C   0  0  2  0  0  0  0  0  0  0  0  0
    8.5690  -16.1504   22.4744 N   0  0  0  0  0  0  0  0  0  0  0  0
    9.7483  -15.6637   24.4984 C   0  0  0  0  0  0  0  0  0  0  0  0
   10.0199  -15.0142   25.5663 O   0  0  0  0  0  0  0  0  0  0  0  0
   10.4403  -16.9216   24.4064 N   0  0  0  0  0  0  0  0  0  0  0  0
   11.3182  -17.3870   25.4620 C   0  0  1  0  0  0  0  0  0  0  0  0
   10.8032  -18.6027   26.1703 C   0  0  0  0  0  0  0  0  0  0  0  0
   11.0500  -18.6165   27.6172 C   0  0  0  0  0  0  0  0  0  0  0  0
   11.6609  -17.6621   28.1499 O   0  0  0  0  0  0  0  0  0  0  0  0
   12.7199  -17.5194   24.9804 C   0  0  0  0  0  0  0  0  0  0  0  0
   13.6718  -17.8439   25.7409 O   0  0  0  0  0  0  0  0  0  0  0  0
   10.6265  -19.6589   28.4215 O   0  0  0  0  0  0  0  0  0  0  0  0
   13.0695  -17.2939   23.6580 O   0  0  0  0  0  0  0  0  0  0  0  0
  2  1  1  6
  2  7  1  0
  3  2  1  0
  3  4  1  0
  4  5  1  0
  5  6  2  0
  7  8  2  0
  9  5  1  0
 11 10  1  0
 11 13  1  0
 12 11  2  0
 14 13  1  0
 15 14  1  1
 16 15  1  0
 16  7  1  0
 17 15  1  0
 17 19  1  0
 18 17  2  0
 20 19  1  0
 20 21  1  6
 22 21  1  0
 22 26  1  0
 23 22  2  0
 24 20  1  0
 24 27  1  0
 25 24  2  0
M  END
$$$$
