EQD.pdb
     RDKit          3D

 27 26  0  0  1  0  0  0  0  0999 V2000
   10.3548  -15.2575   13.3565 N   0  0  0  0  0  0  0  0  0  0  0  0
    9.6813  -15.8596   14.4892 C   0  0  1  0  0  0  0  0  0  0  0  0
    9.7327  -17.3305   14.5120 C   0  0  0  0  0  0  0  0  0  0  0  0
   11.0340  -18.0001   14.7010 C   0  0  0  0  0  0  0  0  0  0  0  0
   11.0795  -19.4457   14.7156 C   0  0  0  0  0  0  0  0  0  0  0  0
   12.1580  -20.0602   14.8753 O   0  0  0  0  0  0  0  0  0  0  0  0
   10.0468  -15.1897   15.7434 C   0  0  0  0  0  0  0  0  0  0  0  0
   11.2183  -14.7426   15.8821 O   0  0  0  0  0  0  0  0  0  0  0  0
    9.9337  -20.2054   14.5527 O   0  0  0  0  0  0  0  0  0  0  0  0
    6.3249  -13.7483   20.6937 N   0  0  0  0  0  0  0  0  0  0  0  0
    7.5590  -13.1286   20.9949 C   0  0  0  0  0  0  0  0  0  0  0  0
    7.6781  -12.4298   22.0182 O   0  0  0  0  0  0  0  0  0  0  0  0
    8.7555  -13.2865   20.1072 C   0  0  0  0  0  0  0  0  0  0  0  0
    8.3572  -14.0677   18.8952 C   0  0  0  0  0  0  0  0  0  0  0  0
    9.5515  -14.2620   17.9843 C   0  0  2  0  0  0  0  0  0  0  0  0
    9.1462  -15.0157   16.8054 N   0  0  0  0  0  0  0  0  0  0  0  0
   10.6808  -14.9247   18.6387 C   0  0  0  0  0  0  0  0  0  0  0  0
   10.7442  -16.1979   18.7443 O   0  0  0  0  0  0  0  0  0  0  0  0
   11.8113  -14.2491   19.2177 N   0  0  0  0  0  0  0  0  0  0  0  0
   12.8820  -14.9773   19.8694 C   0  0  1  0  0  0  0  0  0  0  0  0
   14.1758  -14.2226   19.9089 C   0  0  0  0  0  0  0  0  0  0  0  0
   15.2924  -14.9566   20.5165 C   0  0  0  0  0  0  0  0  0  0  0  0
   15.4577  -16.1677   20.2445 O   0  0  0  0  0  0  0  0  0  0  0  0
   12.4510  -15.5028   21.1932 C   0  0  0  0  0  0  0  0  0  0  0  0
   11.4703  -15.0266   21.8266 O   0  0  0  0  0  0  0  0  0  0  0  0
   16.1779  -14.3501   21.3886 O   0  0  0  0  0  0  0  0  0  0  0  0
   13.1034  -16.5552   21.8165 O   0  0  0  0  0  0  0  0  0  0  0  0
  2  1  1  6
  2  7  1  0
  3  2  1  0
  3  4  1  0
  4  5  1  0
  5  6  2  0
  7  8  2  0
  9  5  1  0
 11 10  1  0
 11 13  1  0
 12 11  2  0
 14 13  1  0
 15 14  1  1
 16 15  1  0
 16  7  1  0
 17 15  1  0
 17 19  1  0
 18 17  2  0
 20 19  1  0
 20 21  1  1
 22 21  1  0
 22 26  1  0
 23 22  2  0
 24 20  1  0
 24 27  1  0
 25 24  2  0
M  END
$$$$
