EQD.pdb
     RDKit          3D

 27 26  0  0  1  0  0  0  0  0999 V2000
    8.4602  -16.3430   17.7970 N   0  0  0  0  0  0  0  0  0  0  0  0
    9.1861  -17.3258   18.5756 C   0  0  1  0  0  0  0  0  0  0  0  0
   10.0443  -18.2164   17.7773 C   0  0  0  0  0  0  0  0  0  0  0  0
   10.8429  -19.2492   18.4651 C   0  0  0  0  0  0  0  0  0  0  0  0
   11.6852  -20.1207   17.6757 C   0  0  0  0  0  0  0  0  0  0  0  0
   12.9331  -20.0483   17.7372 O   0  0  0  0  0  0  0  0  0  0  0  0
    9.8210  -16.7122   19.7486 C   0  0  0  0  0  0  0  0  0  0  0  0
   10.6275  -15.7567   19.5809 O   0  0  0  0  0  0  0  0  0  0  0  0
   11.1450  -21.0669   16.8218 O   0  0  0  0  0  0  0  0  0  0  0  0
    7.4646  -16.5138   25.5173 N   0  0  0  0  0  0  0  0  0  0  0  0
    8.6272  -15.7158   25.6141 C   0  0  0  0  0  0  0  0  0  0  0  0
    8.8611  -15.0693   26.6519 O   0  0  0  0  0  0  0  0  0  0  0  0
    9.6101  -15.6185   24.4876 C   0  0  0  0  0  0  0  0  0  0  0  0
    9.0917  -16.4053   23.3257 C   0  0  0  0  0  0  0  0  0  0  0  0
   10.0879  -16.3693   22.1855 C   0  0  2  0  0  0  0  0  0  0  0  0
    9.5686  -17.1373   21.0619 N   0  0  0  0  0  0  0  0  0  0  0  0
   11.4158  -16.8608   22.5570 C   0  0  0  0  0  0  0  0  0  0  0  0
   11.6665  -18.1111   22.6567 O   0  0  0  0  0  0  0  0  0  0  0  0
   12.5538  -16.0281   22.8420 N   0  0  0  0  0  0  0  0  0  0  0  0
   13.8469  -16.5930   23.1739 C   0  0  1  0  0  0  0  0  0  0  0  0
   14.9701  -15.6066   23.0723 C   0  0  0  0  0  0  0  0  0  0  0  0
   16.2451  -16.1776   22.6217 C   0  0  0  0  0  0  0  0  0  0  0  0
   16.2762  -17.3476   22.1765 O   0  0  0  0  0  0  0  0  0  0  0  0
   13.8017  -17.3224   24.4702 C   0  0  0  0  0  0  0  0  0  0  0  0
   13.1220  -16.9200   25.4529 O   0  0  0  0  0  0  0  0  0  0  0  0
   17.4264  -15.4601   22.6724 O   0  0  0  0  0  0  0  0  0  0  0  0
   14.5072  -18.4971   24.6800 O   0  0  0  0  0  0  0  0  0  0  0  0
  2  1  1  6
  2  7  1  0
  3  2  1  0
  3  4  1  0
  4  5  1  0
  5  6  2  0
  7  8  2  0
  9  5  1  0
 11 10  1  0
 11 13  1  0
 12 11  2  0
 14 13  1  0
 15 14  1  1
 16 15  1  0
 16  7  1  0
 17 15  1  0
 17 19  1  0
 18 17  2  0
 20 19  1  0
 20 21  1  1
 22 21  1  0
 22 26  1  0
 23 22  2  0
 24 20  1  0
 24 27  1  0
 25 24  2  0
M  END
$$$$
