EQD.pdb
     RDKit          3D

 27 26  0  0  1  0  0  0  0  0999 V2000
    7.9387  -16.1295   18.1482 N   0  0  0  0  0  0  0  0  0  0  0  0
    8.9080  -17.1499   17.8043 C   0  0  1  0  0  0  0  0  0  0  0  0
    8.9707  -17.4656   16.3679 C   0  0  0  0  0  0  0  0  0  0  0  0
    9.4473  -16.4339   15.4266 C   0  0  0  0  0  0  0  0  0  0  0  0
    9.4884  -16.7431   14.0143 C   0  0  0  0  0  0  0  0  0  0  0  0
    9.9248  -15.9176   13.1809 O   0  0  0  0  0  0  0  0  0  0  0  0
   10.1984  -16.9004   18.4587 C   0  0  0  0  0  0  0  0  0  0  0  0
   11.0344  -17.8411   18.5467 O   0  0  0  0  0  0  0  0  0  0  0  0
    9.0465  -17.9621   13.5294 O   0  0  0  0  0  0  0  0  0  0  0  0
   14.7452  -14.1817   17.8617 N   0  0  0  0  0  0  0  0  0  0  0  0
   14.7850  -14.3129   19.2685 C   0  0  0  0  0  0  0  0  0  0  0  0
   15.7824  -14.8073   19.8256 O   0  0  0  0  0  0  0  0  0  0  0  0
   13.6446  -13.8679   20.1322 C   0  0  0  0  0  0  0  0  0  0  0  0
   12.3639  -14.0861   19.3906 C   0  0  0  0  0  0  0  0  0  0  0  0
   11.8434  -15.4847   19.6491 C   0  0  2  0  0  0  0  0  0  0  0  0
   10.5537  -15.6524   18.9928 N   0  0  0  0  0  0  0  0  0  0  0  0
   11.7271  -15.8086   21.0719 C   0  0  0  0  0  0  0  0  0  0  0  0
   11.1476  -15.0205   21.8960 O   0  0  0  0  0  0  0  0  0  0  0  0
   12.2304  -17.0068   21.6891 N   0  0  0  0  0  0  0  0  0  0  0  0
   12.1225  -17.2311   23.1172 C   0  0  1  0  0  0  0  0  0  0  0  0
   10.9466  -18.0777   23.4986 C   0  0  0  0  0  0  0  0  0  0  0  0
   10.7902  -18.2903   24.9426 C   0  0  0  0  0  0  0  0  0  0  0  0
   11.6478  -17.8326   25.7319 O   0  0  0  0  0  0  0  0  0  0  0  0
   13.4133  -17.7003   23.6899 C   0  0  0  0  0  0  0  0  0  0  0  0
   13.8858  -18.8448   23.4525 O   0  0  0  0  0  0  0  0  0  0  0  0
    9.7164  -18.9863   25.4672 O   0  0  0  0  0  0  0  0  0  0  0  0
   14.1822  -16.9041   24.5246 O   0  0  0  0  0  0  0  0  0  0  0  0
  2  1  1  6
  2  7  1  0
  3  2  1  0
  3  4  1  0
  4  5  1  0
  5  6  2  0
  7  8  2  0
  9  5  1  0
 11 10  1  0
 11 13  1  0
 12 11  2  0
 14 13  1  0
 15 14  1  1
 16 15  1  0
 16  7  1  0
 17 15  1  0
 17 19  1  0
 18 17  2  0
 20 19  1  0
 20 21  1  6
 22 21  1  0
 22 26  1  0
 23 22  2  0
 24 20  1  0
 24 27  1  0
 25 24  2  0
M  END
$$$$
