EQD.pdb
     RDKit          3D

 27 26  0  0  1  0  0  0  0  0999 V2000
   11.2071  -16.4723   15.1822 N   0  0  0  0  0  0  0  0  0  0  0  0
   11.1044  -17.0778   16.4944 C   0  0  1  0  0  0  0  0  0  0  0  0
   11.8970  -18.3075   16.6571 C   0  0  0  0  0  0  0  0  0  0  0  0
   13.3653  -18.2371   16.5287 C   0  0  0  0  0  0  0  0  0  0  0  0
   14.1429  -19.4380   16.7412 C   0  0  0  0  0  0  0  0  0  0  0  0
   15.2332  -19.4059   17.3549 O   0  0  0  0  0  0  0  0  0  0  0  0
   11.2577  -16.0758   17.5564 C   0  0  0  0  0  0  0  0  0  0  0  0
   12.3294  -15.4139   17.6263 O   0  0  0  0  0  0  0  0  0  0  0  0
   13.7130  -20.6681   16.2738 O   0  0  0  0  0  0  0  0  0  0  0  0
    7.0583  -12.3258   19.7295 N   0  0  0  0  0  0  0  0  0  0  0  0
    7.3786  -12.9355   18.4952 C   0  0  0  0  0  0  0  0  0  0  0  0
    6.6539  -12.7566   17.4990 O   0  0  0  0  0  0  0  0  0  0  0  0
    8.5861  -13.8085   18.3394 C   0  0  0  0  0  0  0  0  0  0  0  0
    9.2765  -13.9176   19.6620 C   0  0  0  0  0  0  0  0  0  0  0  0
   10.4893  -14.8172   19.5446 C   0  0  2  0  0  0  0  0  0  0  0  0
   10.2582  -15.8113   18.5052 N   0  0  0  0  0  0  0  0  0  0  0  0
   10.8465  -15.4793   20.8004 C   0  0  0  0  0  0  0  0  0  0  0  0
   10.0831  -16.3512   21.3418 O   0  0  0  0  0  0  0  0  0  0  0  0
   12.0530  -15.2384   21.5460 N   0  0  0  0  0  0  0  0  0  0  0  0
   12.5132  -16.1578   22.5679 C   0  0  1  0  0  0  0  0  0  0  0  0
   12.4629  -17.5934   22.1420 C   0  0  0  0  0  0  0  0  0  0  0  0
   12.9597  -18.5449   23.1432 C   0  0  0  0  0  0  0  0  0  0  0  0
   13.9456  -18.2391   23.8520 O   0  0  0  0  0  0  0  0  0  0  0  0
   13.8307  -15.7389   23.1185 C   0  0  0  0  0  0  0  0  0  0  0  0
   14.6622  -15.0648   22.4523 O   0  0  0  0  0  0  0  0  0  0  0  0
   12.3699  -19.7814   23.3329 O   0  0  0  0  0  0  0  0  0  0  0  0
   14.2289  -16.0646   24.4058 O   0  0  0  0  0  0  0  0  0  0  0  0
  2  1  1  6
  2  7  1  0
  3  2  1  0
  3  4  1  0
  4  5  1  0
  5  6  2  0
  7  8  2  0
  9  5  1  0
 11 10  1  0
 11 13  1  0
 12 11  2  0
 14 13  1  0
 15 14  1  1
 16 15  1  0
 16  7  1  0
 17 15  1  0
 17 19  1  0
 18 17  2  0
 20 19  1  0
 20 21  1  6
 22 21  1  0
 22 26  1  0
 23 22  2  0
 24 20  1  0
 24 27  1  0
 25 24  2  0
M  END
$$$$
