EQD.pdb
     RDKit          3D

 27 26  0  0  1  0  0  0  0  0999 V2000
   10.4610  -13.0992   18.7122 N   0  0  0  0  0  0  0  0  0  0  0  0
    9.1826  -13.6082   19.1659 C   0  0  1  0  0  0  0  0  0  0  0  0
    8.1469  -13.6607   18.1212 C   0  0  0  0  0  0  0  0  0  0  0  0
    8.4991  -13.2735   16.7415 C   0  0  0  0  0  0  0  0  0  0  0  0
    7.4773  -13.3270   15.7192 C   0  0  0  0  0  0  0  0  0  0  0  0
    6.6965  -12.3673   15.5303 O   0  0  0  0  0  0  0  0  0  0  0  0
    9.3485  -14.8314   19.9607 C   0  0  0  0  0  0  0  0  0  0  0  0
    8.3455  -15.3240   20.5463 O   0  0  0  0  0  0  0  0  0  0  0  0
    7.3223  -14.4405   14.9114 O   0  0  0  0  0  0  0  0  0  0  0  0
    7.3915  -19.1338   19.6594 N   0  0  0  0  0  0  0  0  0  0  0  0
    8.8013  -19.1602   19.7558 C   0  0  0  0  0  0  0  0  0  0  0  0
    9.3713  -20.0700   20.3859 O   0  0  0  0  0  0  0  0  0  0  0  0
    9.6533  -18.1093   19.1121 C   0  0  0  0  0  0  0  0  0  0  0  0
   10.8717  -17.8943   19.9529 C   0  0  0  0  0  0  0  0  0  0  0  0
   10.6635  -16.7158   20.8811 C   0  0  2  0  0  0  0  0  0  0  0  0
   10.5800  -15.4898   20.0989 N   0  0  0  0  0  0  0  0  0  0  0  0
   11.7044  -16.5884   21.9025 C   0  0  0  0  0  0  0  0  0  0  0  0
   12.8935  -17.0177   21.7081 O   0  0  0  0  0  0  0  0  0  0  0  0
   11.5214  -15.9869   23.1965 N   0  0  0  0  0  0  0  0  0  0  0  0
   12.0585  -16.5908   24.3999 C   0  0  1  0  0  0  0  0  0  0  0  0
   11.0226  -17.2867   25.2289 C   0  0  0  0  0  0  0  0  0  0  0  0
   11.5486  -17.9670   26.4185 C   0  0  0  0  0  0  0  0  0  0  0  0
   12.7735  -17.9111   26.6724 O   0  0  0  0  0  0  0  0  0  0  0  0
   13.2510  -17.4284   24.0987 C   0  0  0  0  0  0  0  0  0  0  0  0
   14.4241  -17.0702   24.3902 O   0  0  0  0  0  0  0  0  0  0  0  0
   10.7290  -18.6755   27.2782 O   0  0  0  0  0  0  0  0  0  0  0  0
   13.1465  -18.6626   23.4759 O   0  0  0  0  0  0  0  0  0  0  0  0
  2  1  1  6
  2  7  1  0
  3  2  1  0
  3  4  1  0
  4  5  1  0
  5  6  2  0
  7  8  2  0
  9  5  1  0
 11 10  1  0
 11 13  1  0
 12 11  2  0
 14 13  1  0
 15 14  1  6
 16 15  1  0
 16  7  1  0
 17 15  1  0
 17 19  1  0
 18 17  2  0
 20 19  1  0
 20 21  1  6
 22 21  1  0
 22 26  1  0
 23 22  2  0
 24 20  1  0
 24 27  1  0
 25 24  2  0
M  END
$$$$
