EQD.pdb
     RDKit          3D

 27 26  0  0  1  0  0  0  0  0999 V2000
    7.8434  -18.1957   16.3442 N   0  0  0  0  0  0  0  0  0  0  0  0
    9.1087  -17.4900   16.3512 C   0  0  1  0  0  0  0  0  0  0  0  0
    9.4152  -16.7848   15.0959 C   0  0  0  0  0  0  0  0  0  0  0  0
    9.7758  -17.5714   13.9006 C   0  0  0  0  0  0  0  0  0  0  0  0
   10.0507  -16.8745   12.6633 C   0  0  0  0  0  0  0  0  0  0  0  0
    9.1340  -16.5918   11.8596 O   0  0  0  0  0  0  0  0  0  0  0  0
    9.2730  -16.7039   17.5801 C   0  0  0  0  0  0  0  0  0  0  0  0
   10.4039  -16.2137   17.8491 O   0  0  0  0  0  0  0  0  0  0  0  0
   11.3366  -16.4944   12.3196 O   0  0  0  0  0  0  0  0  0  0  0  0
    7.6331  -12.5814   19.8969 N   0  0  0  0  0  0  0  0  0  0  0  0
    7.5950  -13.0588   21.2267 C   0  0  0  0  0  0  0  0  0  0  0  0
    7.7876  -12.2810   22.1793 O   0  0  0  0  0  0  0  0  0  0  0  0
    7.3249  -14.4992   21.5376 C   0  0  0  0  0  0  0  0  0  0  0  0
    7.1123  -15.2380   20.2543 C   0  0  0  0  0  0  0  0  0  0  0  0
    8.4452  -15.6290   19.6506 C   0  0  2  0  0  0  0  0  0  0  0  0
    8.2215  -16.4638   18.4780 N   0  0  0  0  0  0  0  0  0  0  0  0
    9.3317  -16.3150   20.5921 C   0  0  0  0  0  0  0  0  0  0  0  0
    9.2103  -17.5636   20.8422 O   0  0  0  0  0  0  0  0  0  0  0  0
   10.4047  -15.6910   21.3194 N   0  0  0  0  0  0  0  0  0  0  0  0
   11.2426  -16.4415   22.2337 C   0  0  1  0  0  0  0  0  0  0  0  0
   12.6883  -16.0531   22.1698 C   0  0  0  0  0  0  0  0  0  0  0  0
   13.5603  -16.7925   23.0904 C   0  0  0  0  0  0  0  0  0  0  0  0
   14.3165  -16.1639   23.8657 O   0  0  0  0  0  0  0  0  0  0  0  0
   10.6786  -16.4380   23.6108 C   0  0  0  0  0  0  0  0  0  0  0  0
    9.7811  -15.6310   23.9753 O   0  0  0  0  0  0  0  0  0  0  0  0
   13.5760  -18.1749   23.1315 O   0  0  0  0  0  0  0  0  0  0  0  0
   11.1062  -17.3270   24.5848 O   0  0  0  0  0  0  0  0  0  0  0  0
  2  1  1  6
  2  7  1  0
  3  2  1  0
  3  4  1  0
  4  5  1  0
  5  6  2  0
  7  8  2  0
  9  5  1  0
 11 10  1  0
 11 13  1  0
 12 11  2  0
 14 13  1  0
 15 14  1  1
 16 15  1  0
 16  7  1  0
 17 15  1  0
 17 19  1  0
 18 17  2  0
 20 19  1  0
 20 21  1  1
 22 21  1  0
 22 26  1  0
 23 22  2  0
 24 20  1  0
 24 27  1  0
 25 24  2  0
M  END
$$$$
