EQD.pdb
     RDKit          3D

 27 26  0  0  1  0  0  0  0  0999 V2000
    7.4914  -17.1467   20.2581 N   0  0  0  0  0  0  0  0  0  0  0  0
    8.9296  -16.9789   20.2071 C   0  0  1  0  0  0  0  0  0  0  0  0
    9.4418  -16.5423   18.8980 C   0  0  0  0  0  0  0  0  0  0  0  0
    8.5181  -15.8977   17.9447 C   0  0  0  0  0  0  0  0  0  0  0  0
    8.5554  -16.3005   16.5560 C   0  0  0  0  0  0  0  0  0  0  0  0
    9.3794  -17.1493   16.1476 O   0  0  0  0  0  0  0  0  0  0  0  0
    9.4187  -16.2233   21.3670 C   0  0  0  0  0  0  0  0  0  0  0  0
   10.6399  -15.9121   21.4266 O   0  0  0  0  0  0  0  0  0  0  0  0
    7.6830  -15.7629   15.6252 O   0  0  0  0  0  0  0  0  0  0  0  0
    6.0950  -12.5692   25.1321 N   0  0  0  0  0  0  0  0  0  0  0  0
    6.8869  -13.3256   26.0256 C   0  0  0  0  0  0  0  0  0  0  0  0
    6.7579  -13.1821   27.2554 O   0  0  0  0  0  0  0  0  0  0  0  0
    7.8982  -14.3160   25.5348 C   0  0  0  0  0  0  0  0  0  0  0  0
    8.1088  -14.1043   24.0690 C   0  0  0  0  0  0  0  0  0  0  0  0
    9.1425  -15.0791   23.5446 C   0  0  2  0  0  0  0  0  0  0  0  0
    8.5852  -15.8213   22.4218 N   0  0  0  0  0  0  0  0  0  0  0  0
    9.6365  -16.0074   24.5629 C   0  0  0  0  0  0  0  0  0  0  0  0
    8.9491  -17.0170   24.9426 O   0  0  0  0  0  0  0  0  0  0  0  0
   10.9058  -15.8997   25.2315 N   0  0  0  0  0  0  0  0  0  0  0  0
   11.3801  -16.9286   26.1357 C   0  0  1  0  0  0  0  0  0  0  0  0
   12.8659  -17.1171   26.0945 C   0  0  0  0  0  0  0  0  0  0  0  0
   13.4276  -17.2472   24.7446 C   0  0  0  0  0  0  0  0  0  0  0  0
   12.8599  -17.9845   23.9066 O   0  0  0  0  0  0  0  0  0  0  0  0
   10.8355  -16.7362   27.5071 C   0  0  0  0  0  0  0  0  0  0  0  0
   10.1217  -15.7458   27.8220 O   0  0  0  0  0  0  0  0  0  0  0  0
   14.5747  -16.5762   24.3619 O   0  0  0  0  0  0  0  0  0  0  0  0
   11.0793  -17.6391   28.5304 O   0  0  0  0  0  0  0  0  0  0  0  0
  2  1  1  6
  2  7  1  0
  3  2  1  0
  3  4  1  0
  4  5  1  0
  5  6  2  0
  7  8  2  0
  9  5  1  0
 11 10  1  0
 11 13  1  0
 12 11  2  0
 14 13  1  0
 15 14  1  1
 16 15  1  0
 16  7  1  0
 17 15  1  0
 17 19  1  0
 18 17  2  0
 20 19  1  0
 20 21  1  1
 22 21  1  0
 22 26  1  0
 23 22  2  0
 24 20  1  0
 24 27  1  0
 25 24  2  0
M  END
$$$$
