KSA.pdb
     RDKit          3D

 21 20  0  0  1  0  0  0  0  0999 V2000
    9.3849  -16.3116   20.8612 N   0  0  0  0  0  0  0  0  0  0  0  0
    9.0917  -14.9666   21.2483 C   0  0  1  0  0  0  0  0  0  0  0  0
    8.1445  -14.2761   20.2878 C   0  0  0  0  0  0  0  0  0  0  0  0
    8.6904  -14.3066   18.8652 C   0  0  0  0  0  0  0  0  0  0  0  0
    7.6509  -13.6106   17.9969 C   0  0  0  0  0  0  0  0  0  0  0  0
    8.2003  -13.5403   16.5689 C   0  0  0  0  0  0  0  0  0  0  0  0
    7.1534  -12.9832   15.7473 N   0  0  0  0  0  0  0  0  0  0  0  0
    8.4438  -14.9093   22.5935 C   0  0  0  0  0  0  0  0  0  0  0  0
    8.0485  -13.8224   23.0465 O   0  0  0  0  0  0  0  0  0  0  0  0
    8.2899  -18.4116   24.9255 O   0  0  0  0  0  0  0  0  0  0  0  0
    7.2918  -17.4695   25.0441 C   0  0  0  0  0  0  0  0  0  0  0  0
    7.7649  -16.0652   24.7370 C   0  0  2  0  0  0  0  0  0  0  0  0
    8.2661  -16.0749   23.3752 N   0  0  0  0  0  0  0  0  0  0  0  0
    8.8699  -15.6479   25.6146 C   0  0  0  0  0  0  0  0  0  0  0  0
   10.0450  -15.8637   25.2409 O   0  0  0  0  0  0  0  0  0  0  0  0
    9.3801  -13.2945   28.3522 C   0  0  0  0  0  0  0  0  0  0  0  0
    9.8107  -14.5428   27.5978 C   0  0  2  0  0  0  0  0  0  0  0  0
    8.6595  -15.0135   26.8623 N   0  0  0  0  0  0  0  0  0  0  0  0
   10.3088  -15.5830   28.5232 C   0  0  0  0  0  0  0  0  0  0  0  0
   11.3167  -15.3353   29.2244 O   0  0  0  0  0  0  0  0  0  0  0  0
    9.6992  -16.8069   28.6341 O   0  0  0  0  0  0  0  0  0  0  0  0
  2  1  1  6
  2  8  1  0
  3  2  1  0
  4  3  1  0
  5  4  1  0
  6  5  1  0
  7  6  1  0
  8  9  2  0
 11 10  1  0
 12 11  1  1
 13 12  1  0
 13  8  1  0
 14 15  2  0
 14 12  1  0
 17 16  1  1
 17 19  1  0
 17 18  1  0
 18 14  1  0
 19 21  1  0
 20 19  2  0
M  END
$$$$
