KSA.pdb
     RDKit          3D

 21 20  0  0  1  0  0  0  0  0999 V2000
   11.0054  -19.8318   15.3074 N   0  0  0  0  0  0  0  0  0  0  0  0
   10.4503  -20.1815   16.5780 C   0  0  1  0  0  0  0  0  0  0  0  0
   10.3736  -21.6802   16.7889 C   0  0  0  0  0  0  0  0  0  0  0  0
   10.2195  -22.4118   15.4608 C   0  0  0  0  0  0  0  0  0  0  0  0
   10.1168  -23.8925   15.8015 C   0  0  0  0  0  0  0  0  0  0  0  0
    9.9676  -24.6687   14.4897 C   0  0  0  0  0  0  0  0  0  0  0  0
    9.8299  -26.0606   14.8432 N   0  0  0  0  0  0  0  0  0  0  0  0
   11.2681  -19.6386   17.7046 C   0  0  0  0  0  0  0  0  0  0  0  0
   12.4931  -19.4865   17.5656 O   0  0  0  0  0  0  0  0  0  0  0  0
    9.4044  -18.5483   21.3789 O   0  0  0  0  0  0  0  0  0  0  0  0
   10.4600  -17.8529   20.8310 C   0  0  0  0  0  0  0  0  0  0  0  0
   11.4164  -18.7389   20.0626 C   0  0  2  0  0  0  0  0  0  0  0  0
   10.6772  -19.2887   18.9413 N   0  0  0  0  0  0  0  0  0  0  0  0
   11.8993  -19.8680   20.8733 C   0  0  0  0  0  0  0  0  0  0  0  0
   11.2362  -20.9297   20.8757 O   0  0  0  0  0  0  0  0  0  0  0  0
   14.9624  -21.2173   22.0434 C   0  0  0  0  0  0  0  0  0  0  0  0
   13.4957  -20.9845   22.3713 C   0  0  2  0  0  0  0  0  0  0  0  0
   13.0810  -19.8033   21.6498 N   0  0  0  0  0  0  0  0  0  0  0  0
   13.2924  -20.8145   23.8260 C   0  0  0  0  0  0  0  0  0  0  0  0
   12.9215  -19.6988   24.2578 O   0  0  0  0  0  0  0  0  0  0  0  0
   13.4983  -21.8415   24.7118 O   0  0  0  0  0  0  0  0  0  0  0  0
  2  1  1  6
  2  8  1  0
  3  2  1  0
  4  3  1  0
  5  4  1  0
  6  5  1  0
  7  6  1  0
  8  9  2  0
 11 10  1  0
 12 11  1  1
 13 12  1  0
 13  8  1  0
 14 15  2  0
 14 12  1  0
 17 16  1  1
 17 19  1  0
 17 18  1  0
 18 14  1  0
 19 21  1  0
 20 19  2  0
M  END
$$$$
