KSA.pdb
     RDKit          3D

 21 20  0  0  1  0  0  0  0  0999 V2000
    9.7159  -16.9450   20.1442 N   0  0  0  0  0  0  0  0  0  0  0  0
   10.2231  -17.2388   21.4484 C   0  0  1  0  0  0  0  0  0  0  0  0
   11.7137  -16.9917   21.5644 C   0  0  0  0  0  0  0  0  0  0  0  0
   12.5007  -17.9964   20.7313 C   0  0  0  0  0  0  0  0  0  0  0  0
   13.9676  -17.6161   20.8824 C   0  0  0  0  0  0  0  0  0  0  0  0
   14.7931  -18.5666   20.0100 C   0  0  0  0  0  0  0  0  0  0  0  0
   15.0298  -17.8848   18.7608 N   0  0  0  0  0  0  0  0  0  0  0  0
    9.5730  -16.3939   22.4955 C   0  0  0  0  0  0  0  0  0  0  0  0
    9.2349  -15.2283   22.2310 O   0  0  0  0  0  0  0  0  0  0  0  0
    8.0597  -18.2933   25.8323 O   0  0  0  0  0  0  0  0  0  0  0  0
    7.5286  -17.1208   25.3413 C   0  0  0  0  0  0  0  0  0  0  0  0
    8.5810  -16.1718   24.8102 C   0  0  2  0  0  0  0  0  0  0  0  0
    9.3291  -16.8923   23.7967 N   0  0  0  0  0  0  0  0  0  0  0  0
    9.5318  -15.7576   25.8542 C   0  0  0  0  0  0  0  0  0  0  0  0
   10.6717  -16.2747   25.8646 O   0  0  0  0  0  0  0  0  0  0  0  0
    9.8068  -13.1932   28.5066 C   0  0  0  0  0  0  0  0  0  0  0  0
   10.1846  -14.5254   27.8778 C   0  0  2  0  0  0  0  0  0  0  0  0
    9.2111  -14.7999   26.8459 N   0  0  0  0  0  0  0  0  0  0  0  0
   10.2062  -15.6068   28.8860 C   0  0  0  0  0  0  0  0  0  0  0  0
    9.2985  -16.4696   28.8659 O   0  0  0  0  0  0  0  0  0  0  0  0
   11.1895  -15.6902   29.8389 O   0  0  0  0  0  0  0  0  0  0  0  0
  2  1  1  6
  2  8  1  0
  3  2  1  0
  4  3  1  0
  5  4  1  0
  6  5  1  0
  7  6  1  0
  8  9  2  0
 11 10  1  0
 12 11  1  1
 13 12  1  0
 13  8  1  0
 14 15  2  0
 14 12  1  0
 17 16  1  1
 17 19  1  0
 17 18  1  0
 18 14  1  0
 19 21  1  0
 20 19  2  0
M  END
$$$$
