KSA.pdb
     RDKit          3D

 21 20  0  0  1  0  0  0  0  0999 V2000
    8.7910  -16.1209   20.8553 N   0  0  0  0  0  0  0  0  0  0  0  0
    9.0578  -14.8596   21.4739 C   0  0  1  0  0  0  0  0  0  0  0  0
    8.3577  -13.7090   20.7792 C   0  0  0  0  0  0  0  0  0  0  0  0
    8.1371  -14.0151   19.3026 C   0  0  0  0  0  0  0  0  0  0  0  0
    7.4449  -12.7926   18.7147 C   0  0  0  0  0  0  0  0  0  0  0  0
    7.2473  -13.0382   17.2160 C   0  0  0  0  0  0  0  0  0  0  0  0
    8.5392  -13.3889   16.6779 N   0  0  0  0  0  0  0  0  0  0  0  0
    8.5989  -14.8355   22.8958 C   0  0  0  0  0  0  0  0  0  0  0  0
    8.4884  -13.7526   23.4943 O   0  0  0  0  0  0  0  0  0  0  0  0
    8.1165  -18.4540   25.0782 O   0  0  0  0  0  0  0  0  0  0  0  0
    7.1981  -17.4320   25.1789 C   0  0  0  0  0  0  0  0  0  0  0  0
    7.8085  -16.0649   24.9586 C   0  0  2  0  0  0  0  0  0  0  0  0
    8.2827  -16.0282   23.5876 N   0  0  0  0  0  0  0  0  0  0  0  0
    8.9655  -15.8263   25.8359 C   0  0  0  0  0  0  0  0  0  0  0  0
   10.1050  -16.1375   25.4214 O   0  0  0  0  0  0  0  0  0  0  0  0
    9.7547  -13.6748   28.6606 C   0  0  0  0  0  0  0  0  0  0  0  0
   10.0501  -14.9267   27.8493 C   0  0  2  0  0  0  0  0  0  0  0  0
    8.8436  -15.2602   27.1274 N   0  0  0  0  0  0  0  0  0  0  0  0
   10.4704  -16.0439   28.7220 C   0  0  0  0  0  0  0  0  0  0  0  0
    9.7212  -17.0419   28.8287 O   0  0  0  0  0  0  0  0  0  0  0  0
   11.6539  -16.0169   29.4151 O   0  0  0  0  0  0  0  0  0  0  0  0
  2  1  1  6
  2  8  1  0
  3  2  1  0
  4  3  1  0
  5  4  1  0
  6  5  1  0
  7  6  1  0
  8  9  2  0
 11 10  1  0
 12 11  1  1
 13 12  1  0
 13  8  1  0
 14 15  2  0
 14 12  1  0
 17 16  1  1
 17 19  1  0
 17 18  1  0
 18 14  1  0
 19 21  1  0
 20 19  2  0
M  END
$$$$
