KSA.pdb
     RDKit          3D

 21 20  0  0  1  0  0  0  0  0999 V2000
   10.6741  -16.6465   20.1488 N   0  0  0  0  0  0  0  0  0  0  0  0
   10.4772  -17.2111   21.4477 C   0  0  1  0  0  0  0  0  0  0  0  0
   11.6973  -17.9554   21.9518 C   0  0  0  0  0  0  0  0  0  0  0  0
   11.6991  -19.3980   21.4603 C   0  0  0  0  0  0  0  0  0  0  0  0
   12.9666  -20.0338   22.0156 C   0  0  0  0  0  0  0  0  0  0  0  0
   12.9553  -21.5173   21.6353 C   0  0  0  0  0  0  0  0  0  0  0  0
   14.2292  -22.0603   22.0400 N   0  0  0  0  0  0  0  0  0  0  0  0
   10.1747  -16.1595   22.4653 C   0  0  0  0  0  0  0  0  0  0  0  0
   10.7788  -15.0746   22.4354 O   0  0  0  0  0  0  0  0  0  0  0  0
    6.9974  -16.8269   25.0540 O   0  0  0  0  0  0  0  0  0  0  0  0
    7.3200  -15.5425   24.6742 C   0  0  0  0  0  0  0  0  0  0  0  0
    8.8012  -15.3530   24.4286 C   0  0  2  0  0  0  0  0  0  0  0  0
    9.2063  -16.3691   23.4749 N   0  0  0  0  0  0  0  0  0  0  0  0
    9.5957  -15.5491   25.6516 C   0  0  0  0  0  0  0  0  0  0  0  0
   10.3299  -16.5597   25.7325 O   0  0  0  0  0  0  0  0  0  0  0  0
   10.2675  -13.7357   28.8306 C   0  0  0  0  0  0  0  0  0  0  0  0
   10.3728  -14.9343   27.9005 C   0  0  2  0  0  0  0  0  0  0  0  0
    9.5641  -14.6434   26.7389 N   0  0  0  0  0  0  0  0  0  0  0  0
    9.9149  -16.1719   28.5675 C   0  0  0  0  0  0  0  0  0  0  0  0
    8.7716  -16.6116   28.3059 O   0  0  0  0  0  0  0  0  0  0  0  0
   10.7051  -16.8488   29.4614 O   0  0  0  0  0  0  0  0  0  0  0  0
  2  1  1  6
  2  8  1  0
  3  2  1  0
  4  3  1  0
  5  4  1  0
  6  5  1  0
  7  6  1  0
  8  9  2  0
 11 10  1  0
 12 11  1  1
 13 12  1  0
 13  8  1  0
 14 15  2  0
 14 12  1  0
 17 16  1  1
 17 19  1  0
 17 18  1  0
 18 14  1  0
 19 21  1  0
 20 19  2  0
M  END
$$$$
