KSA.pdb
     RDKit          3D

 21 20  0  0  1  0  0  0  0  0999 V2000
    6.6682  -16.2800   20.3055 N   0  0  0  0  0  0  0  0  0  0  0  0
    7.4761  -15.4093   21.1016 C   0  0  1  0  0  0  0  0  0  0  0  0
    7.3208  -13.9524   20.7142 C   0  0  0  0  0  0  0  0  0  0  0  0
    8.3988  -13.5327   19.7221 C   0  0  0  0  0  0  0  0  0  0  0  0
    7.8152  -13.7703   18.3357 C   0  0  0  0  0  0  0  0  0  0  0  0
    8.9037  -13.4541   17.3057 C   0  0  0  0  0  0  0  0  0  0  0  0
    8.3249  -13.6853   16.0044 N   0  0  0  0  0  0  0  0  0  0  0  0
    7.1216  -15.5004   22.5503 C   0  0  0  0  0  0  0  0  0  0  0  0
    6.0118  -15.1052   22.9440 O   0  0  0  0  0  0  0  0  0  0  0  0
    8.7924  -18.3219   24.9794 O   0  0  0  0  0  0  0  0  0  0  0  0
    7.6222  -17.6339   25.2147 C   0  0  0  0  0  0  0  0  0  0  0  0
    7.7352  -16.1550   24.9139 C   0  0  2  0  0  0  0  0  0  0  0  0
    8.0278  -16.0315   23.4979 N   0  0  0  0  0  0  0  0  0  0  0  0
    8.8387  -15.5215   25.6529 C   0  0  0  0  0  0  0  0  0  0  0  0
    9.9990  -15.6160   25.1927 O   0  0  0  0  0  0  0  0  0  0  0  0
    9.4344  -13.1165   28.3435 C   0  0  0  0  0  0  0  0  0  0  0  0
    9.8057  -14.3975   27.6127 C   0  0  2  0  0  0  0  0  0  0  0  0
    8.6428  -14.8107   26.8611 N   0  0  0  0  0  0  0  0  0  0  0  0
   10.2255  -15.4523   28.5601 C   0  0  0  0  0  0  0  0  0  0  0  0
    9.4907  -16.4552   28.7120 O   0  0  0  0  0  0  0  0  0  0  0  0
   11.3933  -15.3625   29.2743 O   0  0  0  0  0  0  0  0  0  0  0  0
  2  1  1  6
  2  8  1  0
  3  2  1  0
  4  3  1  0
  5  4  1  0
  6  5  1  0
  7  6  1  0
  8  9  2  0
 11 10  1  0
 12 11  1  1
 13 12  1  0
 13  8  1  0
 14 15  2  0
 14 12  1  0
 17 16  1  1
 17 19  1  0
 17 18  1  0
 18 14  1  0
 19 21  1  0
 20 19  2  0
M  END
$$$$
