KSA.pdb
     RDKit          3D

 21 20  0  0  1  0  0  0  0  0999 V2000
   12.2087  -16.6526   14.5376 N   0  0  0  0  0  0  0  0  0  0  0  0
   12.2650  -17.2004   15.8573 C   0  0  1  0  0  0  0  0  0  0  0  0
   13.1321  -18.4406   15.9379 C   0  0  0  0  0  0  0  0  0  0  0  0
   13.1423  -19.1876   14.6095 C   0  0  0  0  0  0  0  0  0  0  0  0
   13.9662  -20.4478   14.8377 C   0  0  0  0  0  0  0  0  0  0  0  0
   14.0754  -21.1879   13.5013 C   0  0  0  0  0  0  0  0  0  0  0  0
   14.8562  -22.3762   13.7464 N   0  0  0  0  0  0  0  0  0  0  0  0
   12.8338  -16.2241   16.8351 C   0  0  0  0  0  0  0  0  0  0  0  0
   13.9081  -15.6517   16.5875 O   0  0  0  0  0  0  0  0  0  0  0  0
   10.6889  -15.2318   20.3930 O   0  0  0  0  0  0  0  0  0  0  0  0
   11.4115  -14.3294   19.6436 C   0  0  0  0  0  0  0  0  0  0  0  0
   12.6395  -14.9409   19.0047 C   0  0  2  0  0  0  0  0  0  0  0  0
   12.1732  -15.9303   18.0510 N   0  0  0  0  0  0  0  0  0  0  0  0
   13.4881  -15.6349   19.9864 C   0  0  0  0  0  0  0  0  0  0  0  0
   13.2978  -16.8562   20.1844 O   0  0  0  0  0  0  0  0  0  0  0  0
   16.6749  -15.0851   21.7116 C   0  0  0  0  0  0  0  0  0  0  0  0
   15.3152  -15.7608   21.6250 C   0  0  2  0  0  0  0  0  0  0  0  0
   14.5092  -14.9795   20.7151 N   0  0  0  0  0  0  0  0  0  0  0  0
   14.6756  -15.8501   22.9551 C   0  0  0  0  0  0  0  0  0  0  0  0
   13.6666  -15.1458   23.1887 O   0  0  0  0  0  0  0  0  0  0  0  0
   15.1556  -16.6801   23.9362 O   0  0  0  0  0  0  0  0  0  0  0  0
  2  1  1  6
  2  8  1  0
  3  2  1  0
  4  3  1  0
  5  4  1  0
  6  5  1  0
  7  6  1  0
  8  9  2  0
 11 10  1  0
 12 11  1  1
 13 12  1  0
 13  8  1  0
 14 15  2  0
 14 12  1  0
 17 16  1  1
 17 19  1  0
 17 18  1  0
 18 14  1  0
 19 21  1  0
 20 19  2  0
M  END
$$$$
