KSA.pdb
     RDKit          3D

 21 20  0  0  1  0  0  0  0  0999 V2000
    7.9983  -22.0827   14.3404 N   0  0  0  0  0  0  0  0  0  0  0  0
    8.1017  -21.6168   15.6883 C   0  0  1  0  0  0  0  0  0  0  0  0
    6.8057  -21.7674   16.4591 C   0  0  0  0  0  0  0  0  0  0  0  0
    6.3383  -23.2180   16.4643 C   0  0  0  0  0  0  0  0  0  0  0  0
    5.0068  -23.2321   17.2033 C   0  0  0  0  0  0  0  0  0  0  0  0
    4.5182  -24.6823   17.2664 C   0  0  0  0  0  0  0  0  0  0  0  0
    3.2319  -24.6598   17.9194 N   0  0  0  0  0  0  0  0  0  0  0  0
    9.1381  -22.3730   16.4544 C   0  0  0  0  0  0  0  0  0  0  0  0
    9.1029  -23.6142   16.4879 O   0  0  0  0  0  0  0  0  0  0  0  0
   12.4525  -20.3146   18.0750 O   0  0  0  0  0  0  0  0  0  0  0  0
   12.5084  -21.6103   17.6103 C   0  0  0  0  0  0  0  0  0  0  0  0
   11.2346  -22.3859   17.8673 C   0  0  2  0  0  0  0  0  0  0  0  0
   10.1716  -21.7047   17.1517 N   0  0  0  0  0  0  0  0  0  0  0  0
   10.8723  -22.4004   19.2934 C   0  0  0  0  0  0  0  0  0  0  0  0
   10.1810  -21.4595   19.7448 O   0  0  0  0  0  0  0  0  0  0  0  0
   10.5193  -24.8156   21.9681 C   0  0  0  0  0  0  0  0  0  0  0  0
   10.8141  -23.3850   21.5443 C   0  0  2  0  0  0  0  0  0  0  0  0
   11.2725  -23.4331   20.1749 N   0  0  0  0  0  0  0  0  0  0  0  0
   11.8306  -22.7652   22.4211 C   0  0  0  0  0  0  0  0  0  0  0  0
   12.8607  -22.2780   21.9012 O   0  0  0  0  0  0  0  0  0  0  0  0
   11.6766  -22.7096   23.7831 O   0  0  0  0  0  0  0  0  0  0  0  0
  2  1  1  6
  2  8  1  0
  3  2  1  0
  4  3  1  0
  5  4  1  0
  6  5  1  0
  7  6  1  0
  8  9  2  0
 11 10  1  0
 12 11  1  1
 13 12  1  0
 13  8  1  0
 14 15  2  0
 14 12  1  0
 17 16  1  1
 17 19  1  0
 17 18  1  0
 18 14  1  0
 19 21  1  0
 20 19  2  0
M  END
$$$$
