KSA.pdb
     RDKit          3D

 21 20  0  0  1  0  0  0  0  0999 V2000
   10.9283  -16.4758   20.3760 N   0  0  0  0  0  0  0  0  0  0  0  0
   10.0782  -16.9803   21.4091 C   0  0  1  0  0  0  0  0  0  0  0  0
   10.5826  -18.2833   21.9958 C   0  0  0  0  0  0  0  0  0  0  0  0
   11.9391  -18.0930   22.6640 C   0  0  0  0  0  0  0  0  0  0  0  0
   12.3195  -19.4481   23.2455 C   0  0  0  0  0  0  0  0  0  0  0  0
   13.6362  -19.2802   24.0095 C   0  0  0  0  0  0  0  0  0  0  0  0
   13.9152  -20.5471   24.6410 N   0  0  0  0  0  0  0  0  0  0  0  0
    9.9668  -16.0202   22.5487 C   0  0  0  0  0  0  0  0  0  0  0  0
   10.8206  -15.1302   22.6964 O   0  0  0  0  0  0  0  0  0  0  0  0
    6.8428  -16.5067   25.2676 O   0  0  0  0  0  0  0  0  0  0  0  0
    7.1906  -15.2286   24.8888 C   0  0  0  0  0  0  0  0  0  0  0  0
    8.6480  -15.1030   24.5009 C   0  0  2  0  0  0  0  0  0  0  0  0
    8.9013  -16.0985   23.4758 N   0  0  0  0  0  0  0  0  0  0  0  0
    9.5487  -15.3875   25.6292 C   0  0  0  0  0  0  0  0  0  0  0  0
   10.2526  -16.4218   25.5870 O   0  0  0  0  0  0  0  0  0  0  0  0
   10.6199  -13.7485   28.7911 C   0  0  0  0  0  0  0  0  0  0  0  0
   10.5570  -14.9178   27.8206 C   0  0  2  0  0  0  0  0  0  0  0  0
    9.6520  -14.5411   26.7590 N   0  0  0  0  0  0  0  0  0  0  0  0
   10.0968  -16.1502   28.4957 C   0  0  0  0  0  0  0  0  0  0  0  0
    8.9466  -16.5804   28.2493 O   0  0  0  0  0  0  0  0  0  0  0  0
   10.8923  -16.8322   29.3811 O   0  0  0  0  0  0  0  0  0  0  0  0
  2  1  1  6
  2  8  1  0
  3  2  1  0
  4  3  1  0
  5  4  1  0
  6  5  1  0
  7  6  1  0
  8  9  2  0
 11 10  1  0
 12 11  1  1
 13 12  1  0
 13  8  1  0
 14 15  2  0
 14 12  1  0
 17 16  1  1
 17 19  1  0
 17 18  1  0
 18 14  1  0
 19 21  1  0
 20 19  2  0
M  END
$$$$
