RFK.pdb
     RDKit          3D

 32 32  0  0  1  0  0  0  0  0999 V2000
   23.4921  -23.6519  -16.7277 N   0  0  0  0  0  0  0  0  0  0  0  0
   23.0696  -24.1432  -15.4420 C   0  0  0  0  0  0  0  0  0  0  0  0
   22.8623  -25.4008  -15.2845 N   0  0  0  0  0  0  0  0  0  0  0  0
   22.8945  -23.2096  -14.3779 N   0  0  0  0  0  0  0  0  0  0  0  0
   23.2183  -21.7950  -14.6512 C   0  0  0  0  0  0  0  0  0  0  0  0
   24.6464  -21.5116  -14.2961 C   0  0  0  0  0  0  0  0  0  0  0  0
   24.8567  -21.1897  -12.8552 C   0  0  0  0  0  0  0  0  0  0  0  0
   26.2763  -21.0664  -12.4485 C   0  0  2  0  0  0  0  0  0  0  0  0
   27.2176  -21.8664  -13.1816 N   0  0  0  0  0  0  0  0  0  0  0  0
   26.4488  -21.2798  -10.9641 C   0  0  0  0  0  0  0  0  0  0  0  0
   26.3295  -22.4369  -10.4901 O   0  0  0  0  0  0  0  0  0  0  0  0
   22.6460  -25.8895  -14.4084 N   0  0  0  0  0  0  0  0  0  0  0  0
   26.7430  -20.2055  -10.0839 C   0  0  2  0  0  0  0  0  0  0  0  0
   26.9014  -20.4280   -8.6402 C   0  0  0  0  0  0  0  0  0  0  0  0
   27.8298  -19.4046   -8.0412 C   0  0  0  0  0  0  0  0  0  0  0  0
   28.0343  -19.6186   -6.5884 C   0  0  0  0  0  0  0  0  0  0  0  0
   28.7518  -20.6647   -6.0504 C   0  0  0  0  0  0  0  0  0  0  0  0
   28.9148  -20.8234   -4.6851 C   0  0  0  0  0  0  0  0  0  0  0  0
   28.3595  -19.9303   -3.7915 C   0  0  0  0  0  0  0  0  0  0  0  0
   27.6388  -18.8794   -4.3320 C   0  0  0  0  0  0  0  0  0  0  0  0
   27.4766  -18.7219   -5.6951 C   0  0  0  0  0  0  0  0  0  0  0  0
   25.5318  -20.3233   -8.0486 O   0  0  0  0  0  0  0  0  0  0  0  0
   24.7249  -19.4081   -8.3533 N   0  0  0  0  0  0  0  0  0  0  0  0
   25.0768  -21.2836   -7.0909 C   0  0  1  0  0  0  0  0  0  0  0  0
   23.7442  -21.2567   -6.5238 C   0  0  0  0  0  0  0  0  0  0  0  0
   22.9790  -22.5430   -6.8523 C   0  0  0  0  0  0  0  0  0  0  0  0
   21.6219  -22.4103   -6.1959 C   0  0  0  0  0  0  0  0  0  0  0  0
   20.7548  -23.6224   -6.4565 C   0  0  0  0  0  0  0  0  0  0  0  0
   19.4200  -23.4199   -5.7719 N   0  0  0  0  0  0  0  0  0  0  0  0
   18.6307  -24.6264   -5.9946 C   0  0  0  0  0  0  0  0  0  0  0  0
   23.9016  -21.1209   -5.0335 O   0  0  0  0  0  0  0  0  0  0  0  0
   24.8796  -21.6330   -4.4221 O   0  0  0  0  0  0  0  0  0  0  0  0
  2  1  1  0
  3  2  2  0
  4  2  1  0
  5  4  1  0
  6  5  1  0
  7  8  1  0
  7  6  1  0
  8  9  1  6
 10  8  1  0
 11 10  2  0
 12 10  1  0
 13 21  1  0
 13 12  1  0
 13 14  1  6
 15 14  1  0
 16 15  2  0
 17 16  1  0
 18 19  1  0
 18 17  2  0
 19 20  2  0
 20 15  1  0
 21 23  1  0
 22 21  2  0
 23 24  1  0
 24 30  1  0
 24 25  1  1
 25 26  1  0
 26 27  1  0
 28 27  1  0
 28 29  1  0
 30 32  1  0
 31 30  2  0
M  END
$$$$
