RFK.pdb
     RDKit          3D

 32 32  0  0  1  0  0  0  0  0999 V2000
   20.0569  -24.2241  -12.7462 N   0  0  0  0  0  0  0  0  0  0  0  0
   19.4739  -25.1521  -13.6799 C   0  0  0  0  0  0  0  0  0  0  0  0
   18.3351  -25.6826  -13.4140 N   0  0  0  0  0  0  0  0  0  0  0  0
   20.1861  -25.4531  -14.8785 N   0  0  0  0  0  0  0  0  0  0  0  0
   21.5609  -24.9290  -15.0052 C   0  0  0  0  0  0  0  0  0  0  0  0
   21.5788  -23.7320  -15.9067 C   0  0  0  0  0  0  0  0  0  0  0  0
   22.7237  -22.8086  -15.6599 C   0  0  0  0  0  0  0  0  0  0  0  0
   22.4522  -21.7339  -14.6765 C   0  0  2  0  0  0  0  0  0  0  0  0
   21.0899  -21.6040  -14.2393 N   0  0  0  0  0  0  0  0  0  0  0  0
   22.9815  -20.4019  -15.1500 C   0  0  0  0  0  0  0  0  0  0  0  0
   22.2176  -19.6202  -15.7689 O   0  0  0  0  0  0  0  0  0  0  0  0
   17.8632  -26.4324  -13.9320 N   0  0  0  0  0  0  0  0  0  0  0  0
   24.3243  -20.0053  -14.9154 C   0  0  1  0  0  0  0  0  0  0  0  0
   24.8389  -18.7271  -15.4254 C   0  0  0  0  0  0  0  0  0  0  0  0
   26.0677  -18.3045  -14.6640 C   0  0  0  0  0  0  0  0  0  0  0  0
   26.7400  -17.1409  -15.2902 C   0  0  0  0  0  0  0  0  0  0  0  0
   27.8130  -17.2332  -16.1499 C   0  0  0  0  0  0  0  0  0  0  0  0
   28.4088  -16.1164  -16.7099 C   0  0  0  0  0  0  0  0  0  0  0  0
   27.9493  -14.8459  -16.4290 C   0  0  0  0  0  0  0  0  0  0  0  0
   26.8714  -14.7531  -15.5655 C   0  0  0  0  0  0  0  0  0  0  0  0
   26.2773  -15.8685  -15.0069 C   0  0  0  0  0  0  0  0  0  0  0  0
   25.1520  -18.9497  -16.8709 O   0  0  0  0  0  0  0  0  0  0  0  0
   25.6096  -20.0354  -17.3107 N   0  0  0  0  0  0  0  0  0  0  0  0
   24.9372  -17.9111  -17.8309 C   0  0  1  0  0  0  0  0  0  0  0  0
   25.1665  -18.0931  -19.2495 C   0  0  0  0  0  0  0  0  0  0  0  0
   23.8423  -18.1765  -20.0160 C   0  0  0  0  0  0  0  0  0  0  0  0
   24.2039  -18.4209  -21.4650 C   0  0  0  0  0  0  0  0  0  0  0  0
   22.9727  -18.6114  -22.3232 C   0  0  0  0  0  0  0  0  0  0  0  0
   23.4110  -18.8892  -23.7452 N   0  0  0  0  0  0  0  0  0  0  0  0
   22.2159  -19.2316  -24.5086 C   0  0  0  0  0  0  0  0  0  0  0  0
   25.9591  -16.9054  -19.7242 O   0  0  0  0  0  0  0  0  0  0  0  0
   25.4320  -15.7657  -19.8501 O   0  0  0  0  0  0  0  0  0  0  0  0
  2  1  1  0
  3  2  2  0
  4  2  1  0
  5  4  1  0
  6  5  1  0
  7  8  1  0
  7  6  1  0
  8  9  1  6
 10  8  1  0
 11 10  2  0
 12 10  1  0
 13 21  1  0
 13 12  1  0
 13 14  1  6
 15 14  1  0
 16 15  2  0
 17 16  1  0
 18 19  1  0
 18 17  2  0
 19 20  2  0
 20 15  1  0
 21 23  1  0
 22 21  2  0
 23 24  1  0
 24 30  1  0
 24 25  1  6
 25 26  1  0
 26 27  1  0
 28 27  1  0
 28 29  1  0
 30 32  1  0
 31 30  2  0
M  END
$$$$
