RFK.pdb
     RDKit          3D

 32 32  0  0  1  0  0  0  0  0999 V2000
   26.0660  -25.8545  -15.5052 N   0  0  0  0  0  0  0  0  0  0  0  0
   26.2434  -25.2039  -16.7772 C   0  0  0  0  0  0  0  0  0  0  0  0
   27.0379  -25.7200  -17.6442 N   0  0  0  0  0  0  0  0  0  0  0  0
   25.5249  -23.9988  -17.0341 N   0  0  0  0  0  0  0  0  0  0  0  0
   24.6475  -23.4860  -15.9626 C   0  0  0  0  0  0  0  0  0  0  0  0
   25.4497  -22.7124  -14.9607 C   0  0  0  0  0  0  0  0  0  0  0  0
   24.6231  -22.0341  -13.9211 C   0  0  0  0  0  0  0  0  0  0  0  0
   23.7134  -20.9855  -14.4395 C   0  0  2  0  0  0  0  0  0  0  0  0
   24.3344  -19.7636  -14.8698 N   0  0  0  0  0  0  0  0  0  0  0  0
   22.5940  -20.6932  -13.4699 C   0  0  0  0  0  0  0  0  0  0  0  0
   22.8466  -20.0767  -12.4051 O   0  0  0  0  0  0  0  0  0  0  0  0
   27.3022  -25.3281  -18.5550 N   0  0  0  0  0  0  0  0  0  0  0  0
   21.2576  -21.0970  -13.7276 C   0  0  2  0  0  0  0  0  0  0  0  0
   20.1707  -20.7645  -12.7966 C   0  0  0  0  0  0  0  0  0  0  0  0
   19.0632  -20.0332  -13.5085 C   0  0  0  0  0  0  0  0  0  0  0  0
   19.3920  -18.6053  -13.7347 C   0  0  0  0  0  0  0  0  0  0  0  0
   19.8303  -18.0894  -14.9349 C   0  0  0  0  0  0  0  0  0  0  0  0
   20.1260  -16.7471  -15.0977 C   0  0  0  0  0  0  0  0  0  0  0  0
   19.9934  -15.8552  -14.0530 C   0  0  0  0  0  0  0  0  0  0  0  0
   19.5531  -16.3735  -12.8474 C   0  0  0  0  0  0  0  0  0  0  0  0
   19.2582  -17.7136  -12.6858 C   0  0  0  0  0  0  0  0  0  0  0  0
   19.6853  -22.0648  -12.2396 O   0  0  0  0  0  0  0  0  0  0  0  0
   19.6059  -23.1148  -12.9273 N   0  0  0  0  0  0  0  0  0  0  0  0
   19.2836  -22.1659  -10.8704 C   0  0  1  0  0  0  0  0  0  0  0  0
   18.8099  -23.4009  -10.2799 C   0  0  0  0  0  0  0  0  0  0  0  0
   18.5806  -23.2395   -8.7734 C   0  0  0  0  0  0  0  0  0  0  0  0
   18.0505  -24.5678   -8.2789 C   0  0  0  0  0  0  0  0  0  0  0  0
   17.7235  -24.5237   -6.8024 C   0  0  0  0  0  0  0  0  0  0  0  0
   17.8832  -25.9153   -6.2286 N   0  0  0  0  0  0  0  0  0  0  0  0
   17.5550  -25.8397   -4.8091 C   0  0  0  0  0  0  0  0  0  0  0  0
   17.5136  -23.7469  -10.9610 O   0  0  0  0  0  0  0  0  0  0  0  0
   16.5934  -22.8952  -11.1040 O   0  0  0  0  0  0  0  0  0  0  0  0
  2  1  1  0
  3  2  2  0
  4  2  1  0
  5  4  1  0
  6  5  1  0
  7  8  1  0
  7  6  1  0
  8  9  1  1
 10  8  1  0
 11 10  2  0
 12 10  1  0
 13 21  1  0
 13 12  1  0
 13 14  1  1
 15 14  1  0
 16 15  2  0
 17 16  1  0
 18 19  1  0
 18 17  2  0
 19 20  2  0
 20 15  1  0
 21 23  1  0
 22 21  2  0
 23 24  1  0
 24 30  1  0
 24 25  1  6
 25 26  1  0
 26 27  1  0
 28 27  1  0
 28 29  1  0
 30 32  1  0
 31 30  2  0
M  END
$$$$
