RFK.pdb
     RDKit          3D

 32 32  0  0  1  0  0  0  0  0999 V2000
   29.1784  -23.1181  -16.1515 N   0  0  0  0  0  0  0  0  0  0  0  0
   28.9658  -21.7142  -16.3895 C   0  0  0  0  0  0  0  0  0  0  0  0
   28.0204  -21.3439  -17.1758 N   0  0  0  0  0  0  0  0  0  0  0  0
   29.8188  -20.7743  -15.7386 N   0  0  0  0  0  0  0  0  0  0  0  0
   30.5815  -21.2440  -14.5646 C   0  0  0  0  0  0  0  0  0  0  0  0
   30.3943  -20.3027  -13.4137 C   0  0  0  0  0  0  0  0  0  0  0  0
   29.2524  -20.6592  -12.5230 C   0  0  0  0  0  0  0  0  0  0  0  0
   29.6281  -20.9474  -11.1189 C   0  0  2  0  0  0  0  0  0  0  0  0
   30.5997  -21.9873  -10.9233 N   0  0  0  0  0  0  0  0  0  0  0  0
   28.4124  -21.1952  -10.2590 C   0  0  0  0  0  0  0  0  0  0  0  0
   28.0404  -22.3754  -10.0437 O   0  0  0  0  0  0  0  0  0  0  0  0
   27.7673  -20.3832  -17.4332 N   0  0  0  0  0  0  0  0  0  0  0  0
   27.6737  -20.1280   -9.6839 C   0  0  1  0  0  0  0  0  0  0  0  0
   26.3847  -20.3672   -9.0206 C   0  0  0  0  0  0  0  0  0  0  0  0
   26.1743  -19.3895   -7.8946 C   0  0  0  0  0  0  0  0  0  0  0  0
   27.0384  -19.6876   -6.7273 C   0  0  0  0  0  0  0  0  0  0  0  0
   28.1131  -18.9175   -6.3391 C   0  0  0  0  0  0  0  0  0  0  0  0
   28.8922  -19.2372   -5.2407 C   0  0  0  0  0  0  0  0  0  0  0  0
   28.6241  -20.3544   -4.4763 C   0  0  0  0  0  0  0  0  0  0  0  0
   27.5445  -21.1280   -4.8662 C   0  0  0  0  0  0  0  0  0  0  0  0
   26.7673  -20.8081   -5.9630 C   0  0  0  0  0  0  0  0  0  0  0  0
   25.3362  -20.2070  -10.0750 O   0  0  0  0  0  0  0  0  0  0  0  0
   25.2117  -19.1597  -10.7601 N   0  0  0  0  0  0  0  0  0  0  0  0
   24.4133  -21.2646  -10.3510 C   0  0  1  0  0  0  0  0  0  0  0  0
   23.4909  -21.2308  -11.4673 C   0  0  0  0  0  0  0  0  0  0  0  0
   23.2165  -22.6415  -11.9990 C   0  0  0  0  0  0  0  0  0  0  0  0
   22.2891  -22.4770  -13.1834 C   0  0  0  0  0  0  0  0  0  0  0  0
   21.8470  -23.8141  -13.7362 C   0  0  0  0  0  0  0  0  0  0  0  0
   23.0004  -24.4282  -14.5003 N   0  0  0  0  0  0  0  0  0  0  0  0
   22.5165  -25.6711  -15.0915 C   0  0  0  0  0  0  0  0  0  0  0  0
   22.2129  -20.6152  -10.9651 O   0  0  0  0  0  0  0  0  0  0  0  0
   21.8639  -20.7087   -9.7560 O   0  0  0  0  0  0  0  0  0  0  0  0
  2  1  1  0
  3  2  2  0
  4  2  1  0
  5  4  1  0
  6  5  1  0
  7  8  1  0
  7  6  1  0
  8  9  1  6
 10  8  1  0
 11 10  2  0
 12 10  1  0
 13 21  1  0
 13 12  1  0
 13 14  1  6
 15 14  1  0
 16 15  2  0
 17 16  1  0
 18 19  1  0
 18 17  2  0
 19 20  2  0
 20 15  1  0
 21 23  1  0
 22 21  2  0
 23 24  1  0
 24 30  1  0
 24 25  1  1
 25 26  1  0
 26 27  1  0
 28 27  1  0
 28 29  1  0
 30 32  1  0
 31 30  2  0
M  END
$$$$
