RFK.pdb
     RDKit          3D

 32 32  0  0  1  0  0  0  0  0999 V2000
   27.6962  -19.8879  -16.2833 N   0  0  0  0  0  0  0  0  0  0  0  0
   27.0723  -18.6281  -16.5937 C   0  0  0  0  0  0  0  0  0  0  0  0
   26.6121  -18.4266  -17.7756 N   0  0  0  0  0  0  0  0  0  0  0  0
   26.9853  -17.6384  -15.5703 N   0  0  0  0  0  0  0  0  0  0  0  0
   26.8171  -18.1075  -14.1801 C   0  0  0  0  0  0  0  0  0  0  0  0
   25.7573  -19.1649  -14.1139 C   0  0  0  0  0  0  0  0  0  0  0  0
   25.5532  -19.7290  -12.7485 C   0  0  0  0  0  0  0  0  0  0  0  0
   26.5582  -20.7377  -12.3381 C   0  0  2  0  0  0  0  0  0  0  0  0
   26.5307  -21.9857  -13.0489 N   0  0  0  0  0  0  0  0  0  0  0  0
   26.5245  -20.9803  -10.8486 C   0  0  0  0  0  0  0  0  0  0  0  0
   25.9379  -21.9977  -10.4032 O   0  0  0  0  0  0  0  0  0  0  0  0
   26.1754  -17.5699  -18.1342 N   0  0  0  0  0  0  0  0  0  0  0  0
   27.1393  -20.0874   -9.9319 C   0  0  2  0  0  0  0  0  0  0  0  0
   27.1828  -20.3859   -8.4939 C   0  0  0  0  0  0  0  0  0  0  0  0
   28.0818  -19.4153   -7.7743 C   0  0  0  0  0  0  0  0  0  0  0  0
   28.1136  -19.6619   -6.3127 C   0  0  0  0  0  0  0  0  0  0  0  0
   27.5715  -18.8157   -5.3699 C   0  0  0  0  0  0  0  0  0  0  0  0
   27.6266  -19.0886   -4.0141 C   0  0  0  0  0  0  0  0  0  0  0  0
   28.2341  -20.2337   -3.5407 C   0  0  0  0  0  0  0  0  0  0  0  0
   28.7787  -21.0836   -4.4877 C   0  0  0  0  0  0  0  0  0  0  0  0
   28.7232  -20.8104   -5.8411 C   0  0  0  0  0  0  0  0  0  0  0  0
   25.7742  -20.2800   -8.0025 O   0  0  0  0  0  0  0  0  0  0  0  0
   25.0336  -19.2967   -8.2599 N   0  0  0  0  0  0  0  0  0  0  0  0
   25.2022  -21.3185   -7.2021 C   0  0  1  0  0  0  0  0  0  0  0  0
   23.8368  -21.2770   -6.7201 C   0  0  0  0  0  0  0  0  0  0  0  0
   23.0980  -22.5800   -7.0433 C   0  0  0  0  0  0  0  0  0  0  0  0
   21.6881  -22.4108   -6.5204 C   0  0  0  0  0  0  0  0  0  0  0  0
   20.8492  -23.6454   -6.7670 C   0  0  0  0  0  0  0  0  0  0  0  0
   19.4195  -23.3478   -6.3686 N   0  0  0  0  0  0  0  0  0  0  0  0
   18.6362  -24.5497   -6.6332 C   0  0  0  0  0  0  0  0  0  0  0  0
   23.9008  -21.0806   -5.2297 O   0  0  0  0  0  0  0  0  0  0  0  0
   23.0998  -20.3129   -4.6284 O   0  0  0  0  0  0  0  0  0  0  0  0
  2  1  1  0
  3  2  2  0
  4  2  1  0
  5  4  1  0
  6  5  1  0
  7  8  1  0
  7  6  1  0
  8  9  1  6
 10  8  1  0
 11 10  2  0
 12 10  1  0
 13 21  1  0
 13 12  1  0
 13 14  1  6
 15 14  1  0
 16 15  2  0
 17 16  1  0
 18 19  1  0
 18 17  2  0
 19 20  2  0
 20 15  1  0
 21 23  1  0
 22 21  2  0
 23 24  1  0
 24 30  1  0
 24 25  1  1
 25 26  1  0
 26 27  1  0
 28 27  1  0
 28 29  1  0
 30 32  1  0
 31 30  2  0
M  END
$$$$
