RFK.pdb
     RDKit          3D

 32 32  0  0  1  0  0  0  0  0999 V2000
   16.1050  -15.4947  -15.4930 N   0  0  0  0  0  0  0  0  0  0  0  0
   15.2281  -14.7182  -14.6558 C   0  0  0  0  0  0  0  0  0  0  0  0
   14.1668  -15.2618  -14.1788 N   0  0  0  0  0  0  0  0  0  0  0  0
   15.5701  -13.3609  -14.3819 N   0  0  0  0  0  0  0  0  0  0  0  0
   15.8842  -12.4908  -15.5331 C   0  0  0  0  0  0  0  0  0  0  0  0
   17.1297  -12.9658  -16.2178 C   0  0  0  0  0  0  0  0  0  0  0  0
   18.1281  -11.8868  -16.4693 C   0  0  0  0  0  0  0  0  0  0  0  0
   17.8284  -11.0248  -17.6368 C   0  0  2  0  0  0  0  0  0  0  0  0
   17.8980  -11.6561  -18.9253 N   0  0  0  0  0  0  0  0  0  0  0  0
   18.6588   -9.7643  -17.6234 C   0  0  0  0  0  0  0  0  0  0  0  0
   19.7330   -9.7273  -18.2733 O   0  0  0  0  0  0  0  0  0  0  0  0
   13.4510  -14.8172  -13.5930 N   0  0  0  0  0  0  0  0  0  0  0  0
   18.2590   -8.6138  -16.8940 C   0  0  2  0  0  0  0  0  0  0  0  0
   19.0447   -7.3732  -16.9418 C   0  0  0  0  0  0  0  0  0  0  0  0
   18.1954   -6.1887  -16.5627 C   0  0  0  0  0  0  0  0  0  0  0  0
   18.9769   -4.9292  -16.5288 C   0  0  0  0  0  0  0  0  0  0  0  0
   19.5246   -4.3849  -15.3875 C   0  0  0  0  0  0  0  0  0  0  0  0
   20.2469   -3.2043  -15.4056 C   0  0  0  0  0  0  0  0  0  0  0  0
   20.4530   -2.5117  -16.5813 C   0  0  0  0  0  0  0  0  0  0  0  0
   19.9029   -3.0585  -17.7277 C   0  0  0  0  0  0  0  0  0  0  0  0
   19.1820   -4.2371  -17.7087 C   0  0  0  0  0  0  0  0  0  0  0  0
   20.1735   -7.5562  -15.9779 O   0  0  0  0  0  0  0  0  0  0  0  0
   20.0068   -7.9714  -14.8026 N   0  0  0  0  0  0  0  0  0  0  0  0
   21.5179   -7.2588  -16.3659 C   0  0  1  0  0  0  0  0  0  0  0  0
   22.6583   -7.5229  -15.5127 C   0  0  0  0  0  0  0  0  0  0  0  0
   23.7919   -8.1909  -16.2982 C   0  0  0  0  0  0  0  0  0  0  0  0
   24.9413   -8.3576  -15.3282 C   0  0  0  0  0  0  0  0  0  0  0  0
   26.1360   -9.0130  -15.9854 C   0  0  0  0  0  0  0  0  0  0  0  0
   27.2142   -9.2132  -14.9420 N   0  0  0  0  0  0  0  0  0  0  0  0
   28.3179   -9.9153  -15.5878 C   0  0  0  0  0  0  0  0  0  0  0  0
   23.1216   -6.1972  -14.9725 O   0  0  0  0  0  0  0  0  0  0  0  0
   23.3394   -5.2130  -15.7317 O   0  0  0  0  0  0  0  0  0  0  0  0
  2  1  1  0
  3  2  2  0
  4  2  1  0
  5  4  1  0
  6  5  1  0
  7  8  1  0
  7  6  1  0
  8  9  1  6
 10  8  1  0
 11 10  2  0
 12 10  1  0
 13 21  1  0
 13 12  1  0
 13 14  1  6
 15 14  1  0
 16 15  2  0
 17 16  1  0
 18 19  1  0
 18 17  2  0
 19 20  2  0
 20 15  1  0
 21 23  1  0
 22 21  2  0
 23 24  1  0
 24 30  1  0
 24 25  1  1
 25 26  1  0
 26 27  1  0
 28 27  1  0
 28 29  1  0
 30 32  1  0
 31 30  2  0
M  END
$$$$
