RFK.pdb
     RDKit          3D

 32 32  0  0  1  0  0  0  0  0999 V2000
   12.7453   -9.2780  -17.5878 N   0  0  0  0  0  0  0  0  0  0  0  0
   12.5847  -10.7055  -17.4912 C   0  0  0  0  0  0  0  0  0  0  0  0
   11.7296  -11.2964  -18.2454 N   0  0  0  0  0  0  0  0  0  0  0  0
   13.3872  -11.4212  -16.5540 N   0  0  0  0  0  0  0  0  0  0  0  0
   14.4108  -10.6596  -15.8104 C   0  0  0  0  0  0  0  0  0  0  0  0
   15.6404  -10.4870  -16.6494 C   0  0  0  0  0  0  0  0  0  0  0  0
   16.7409   -9.7518  -15.9618 C   0  0  0  0  0  0  0  0  0  0  0  0
   17.8714  -10.6012  -15.5187 C   0  0  2  0  0  0  0  0  0  0  0  0
   17.6599  -12.0207  -15.5801 N   0  0  0  0  0  0  0  0  0  0  0  0
   18.3618  -10.2015  -14.1481 C   0  0  0  0  0  0  0  0  0  0  0  0
   17.9911  -10.8602  -13.1450 O   0  0  0  0  0  0  0  0  0  0  0  0
   11.5548  -12.3053  -18.3141 N   0  0  0  0  0  0  0  0  0  0  0  0
   19.2337   -9.0972  -13.9591 C   0  0  1  0  0  0  0  0  0  0  0  0
   19.6481   -8.6784  -12.6131 C   0  0  0  0  0  0  0  0  0  0  0  0
   21.0916   -8.2490  -12.6085 C   0  0  0  0  0  0  0  0  0  0  0  0
   21.5531   -7.8561  -11.2555 C   0  0  0  0  0  0  0  0  0  0  0  0
   21.6238   -6.5555  -10.8056 C   0  0  0  0  0  0  0  0  0  0  0  0
   22.0627   -6.2375   -9.5321 C   0  0  0  0  0  0  0  0  0  0  0  0
   22.4535   -7.2203   -8.6457 C   0  0  0  0  0  0  0  0  0  0  0  0
   22.3824   -8.5268   -9.0975 C   0  0  0  0  0  0  0  0  0  0  0  0
   21.9442   -8.8433  -10.3691 C   0  0  0  0  0  0  0  0  0  0  0  0
   18.7488   -7.5455  -12.2329 O   0  0  0  0  0  0  0  0  0  0  0  0
   18.4576   -6.6107  -13.0221 N   0  0  0  0  0  0  0  0  0  0  0  0
   18.1716   -7.4811  -10.9255 C   0  0  1  0  0  0  0  0  0  0  0  0
   17.1863   -6.4880  -10.5499 C   0  0  0  0  0  0  0  0  0  0  0  0
   16.4946   -6.8667   -9.2361 C   0  0  0  0  0  0  0  0  0  0  0  0
   15.4335   -5.8150   -8.9951 C   0  0  0  0  0  0  0  0  0  0  0  0
   14.6199   -6.1164   -7.7557 C   0  0  0  0  0  0  0  0  0  0  0  0
   13.6818   -4.9568   -7.4976 N   0  0  0  0  0  0  0  0  0  0  0  0
   12.7929   -5.3515   -6.4103 C   0  0  0  0  0  0  0  0  0  0  0  0
   17.9160   -5.1822  -10.3866 O   0  0  0  0  0  0  0  0  0  0  0  0
   19.1465   -5.1421  -10.1092 O   0  0  0  0  0  0  0  0  0  0  0  0
  2  1  1  0
  3  2  2  0
  4  2  1  0
  5  4  1  0
  6  5  1  0
  7  8  1  0
  7  6  1  0
  8  9  1  1
 10  8  1  0
 11 10  2  0
 12 10  1  0
 13 21  1  0
 13 12  1  0
 13 14  1  1
 15 14  1  0
 16 15  2  0
 17 16  1  0
 18 19  1  0
 18 17  2  0
 19 20  2  0
 20 15  1  0
 21 23  1  0
 22 21  2  0
 23 24  1  0
 24 30  1  0
 24 25  1  1
 25 26  1  0
 26 27  1  0
 28 27  1  0
 28 29  1  0
 30 32  1  0
 31 30  2  0
M  END
$$$$
