RFK.pdb
     RDKit          3D

 32 32  0  0  1  0  0  0  0  0999 V2000
   30.5478  -23.7393  -17.9358 N   0  0  0  0  0  0  0  0  0  0  0  0
   30.5032  -23.0105  -19.1766 C   0  0  0  0  0  0  0  0  0  0  0  0
   30.8539  -23.5956  -20.2647 N   0  0  0  0  0  0  0  0  0  0  0  0
   30.0673  -21.6525  -19.1558 N   0  0  0  0  0  0  0  0  0  0  0  0
   29.2698  -21.2097  -17.9945 C   0  0  0  0  0  0  0  0  0  0  0  0
   27.8152  -21.1623  -18.3516 C   0  0  0  0  0  0  0  0  0  0  0  0
   26.9022  -21.3106  -17.1817 C   0  0  0  0  0  0  0  0  0  0  0  0
   27.2809  -22.3832  -16.2320 C   0  0  2  0  0  0  0  0  0  0  0  0
   27.2070  -23.7278  -16.7321 N   0  0  0  0  0  0  0  0  0  0  0  0
   26.5254  -22.2641  -14.9306 C   0  0  0  0  0  0  0  0  0  0  0  0
   25.4043  -22.8188  -14.8161 O   0  0  0  0  0  0  0  0  0  0  0  0
   30.9323  -23.1761  -21.1979 N   0  0  0  0  0  0  0  0  0  0  0  0
   27.0476  -21.5396  -13.8270 C   0  0  1  0  0  0  0  0  0  0  0  0
   26.2902  -21.4136  -12.5743 C   0  0  0  0  0  0  0  0  0  0  0  0
   27.1737  -20.9061  -11.4652 C   0  0  0  0  0  0  0  0  0  0  0  0
   26.4116  -20.6396  -10.2217 C   0  0  0  0  0  0  0  0  0  0  0  0
   25.6375  -21.5744   -9.5692 C   0  0  0  0  0  0  0  0  0  0  0  0
   24.9425  -21.2779   -8.4096 C   0  0  0  0  0  0  0  0  0  0  0  0
   24.9946  -20.0182   -7.8486 C   0  0  0  0  0  0  0  0  0  0  0  0
   25.7723  -19.0792   -8.5040 C   0  0  0  0  0  0  0  0  0  0  0  0
   26.4657  -19.3761   -9.6616 C   0  0  0  0  0  0  0  0  0  0  0  0
   25.1756  -20.4566  -12.8546 O   0  0  0  0  0  0  0  0  0  0  0  0
   25.3618  -19.3230  -13.3663 N   0  0  0  0  0  0  0  0  0  0  0  0
   23.8229  -20.8031  -12.5439 C   0  0  1  0  0  0  0  0  0  0  0  0
   22.6968  -19.9607  -12.8909 C   0  0  0  0  0  0  0  0  0  0  0  0
   22.3949  -20.0338  -14.3914 C   0  0  0  0  0  0  0  0  0  0  0  0
   21.2180  -19.1140  -14.6342 C   0  0  0  0  0  0  0  0  0  0  0  0
   20.7873  -19.1292  -16.0844 C   0  0  0  0  0  0  0  0  0  0  0  0
   20.2760  -17.7529  -16.4528 N   0  0  0  0  0  0  0  0  0  0  0  0
   19.8258  -17.8140  -17.8391 C   0  0  0  0  0  0  0  0  0  0  0  0
   21.5141  -20.4596  -12.1057 O   0  0  0  0  0  0  0  0  0  0  0  0
   20.8913  -19.7129  -11.3013 O   0  0  0  0  0  0  0  0  0  0  0  0
  2  1  1  0
  3  2  2  0
  4  2  1  0
  5  4  1  0
  6  5  1  0
  7  8  1  0
  7  6  1  0
  8  9  1  6
 10  8  1  0
 11 10  2  0
 12 10  1  0
 13 21  1  0
 13 12  1  0
 13 14  1  1
 15 14  1  0
 16 15  2  0
 17 16  1  0
 18 19  1  0
 18 17  2  0
 19 20  2  0
 20 15  1  0
 21 23  1  0
 22 21  2  0
 23 24  1  0
 24 30  1  0
 24 25  1  1
 25 26  1  0
 26 27  1  0
 28 27  1  0
 28 29  1  0
 30 32  1  0
 31 30  2  0
M  END
$$$$
