RFK.pdb
     RDKit          3D

 32 32  0  0  1  0  0  0  0  0999 V2000
   26.7926  -19.7769  -19.4095 N   0  0  0  0  0  0  0  0  0  0  0  0
   28.2260  -19.8968  -19.4703 C   0  0  0  0  0  0  0  0  0  0  0  0
   28.8500  -19.4811  -20.5129 N   0  0  0  0  0  0  0  0  0  0  0  0
   28.9105  -20.4775  -18.3618 N   0  0  0  0  0  0  0  0  0  0  0  0
   28.1171  -20.7840  -17.1546 C   0  0  0  0  0  0  0  0  0  0  0  0
   29.0011  -21.3407  -16.0802 C   0  0  0  0  0  0  0  0  0  0  0  0
   28.2724  -21.7152  -14.8339 C   0  0  0  0  0  0  0  0  0  0  0  0
   27.7058  -20.5721  -14.0801 C   0  0  2  0  0  0  0  0  0  0  0  0
   28.6525  -19.7139  -13.4237 N   0  0  0  0  0  0  0  0  0  0  0  0
   26.6416  -21.0213  -13.1083 C   0  0  0  0  0  0  0  0  0  0  0  0
   25.9496  -22.0345  -13.3775 O   0  0  0  0  0  0  0  0  0  0  0  0
   29.8632  -19.4917  -20.6756 N   0  0  0  0  0  0  0  0  0  0  0  0
   26.3987  -20.3285  -11.8933 C   0  0  2  0  0  0  0  0  0  0  0  0
   25.3505  -20.7704  -10.9634 C   0  0  0  0  0  0  0  0  0  0  0  0
   25.4367  -20.0145   -9.6636 C   0  0  0  0  0  0  0  0  0  0  0  0
   26.6903  -20.3086   -8.9287 C   0  0  0  0  0  0  0  0  0  0  0  0
   27.5475  -21.3425   -9.2367 C   0  0  0  0  0  0  0  0  0  0  0  0
   28.7077  -21.5783   -8.5198 C   0  0  0  0  0  0  0  0  0  0  0  0
   29.0619  -20.7790   -7.4521 C   0  0  0  0  0  0  0  0  0  0  0  0
   28.2008  -19.7403   -7.1427 C   0  0  0  0  0  0  0  0  0  0  0  0
   27.0427  -19.5057   -7.8589 C   0  0  0  0  0  0  0  0  0  0  0  0
   24.0471  -20.5125  -11.6500 O   0  0  0  0  0  0  0  0  0  0  0  0
   23.7173  -19.3797  -12.0852 N   0  0  0  0  0  0  0  0  0  0  0  0
   23.1036  -21.5705  -11.8426 C   0  0  1  0  0  0  0  0  0  0  0  0
   21.8538  -21.3889  -12.5520 C   0  0  0  0  0  0  0  0  0  0  0  0
   21.3003  -22.7296  -13.0462 C   0  0  0  0  0  0  0  0  0  0  0  0
   20.0409  -22.4101  -13.8221 C   0  0  0  0  0  0  0  0  0  0  0  0
   19.3408  -23.6663  -14.2919 C   0  0  0  0  0  0  0  0  0  0  0  0
   18.1372  -23.2698  -15.1199 N   0  0  0  0  0  0  0  0  0  0  0  0
   17.4594  -24.4992  -15.5165 C   0  0  0  0  0  0  0  0  0  0  0  0
   20.8860  -20.7599  -11.5867 O   0  0  0  0  0  0  0  0  0  0  0  0
   19.8338  -20.1872  -11.9834 O   0  0  0  0  0  0  0  0  0  0  0  0
  2  1  1  0
  3  2  2  0
  4  2  1  0
  5  4  1  0
  6  5  1  0
  7  8  1  0
  7  6  1  0
  8  9  1  1
 10  8  1  0
 11 10  2  0
 12 10  1  0
 13 21  1  0
 13 12  1  0
 13 14  1  1
 15 14  1  0
 16 15  2  0
 17 16  1  0
 18 19  1  0
 18 17  2  0
 19 20  2  0
 20 15  1  0
 21 23  1  0
 22 21  2  0
 23 24  1  0
 24 30  1  0
 24 25  1  1
 25 26  1  0
 26 27  1  0
 28 27  1  0
 28 29  1  0
 30 32  1  0
 31 30  2  0
M  END
$$$$
