RFK.pdb
     RDKit          3D

 32 32  0  0  1  0  0  0  0  0999 V2000
   27.7449  -24.6938  -22.0735 N   0  0  0  0  0  0  0  0  0  0  0  0
   26.3604  -24.3910  -21.8200 C   0  0  0  0  0  0  0  0  0  0  0  0
   25.4512  -24.9550  -22.5303 N   0  0  0  0  0  0  0  0  0  0  0  0
   26.0423  -23.4681  -20.7800 N   0  0  0  0  0  0  0  0  0  0  0  0
   27.1064  -22.5439  -20.3390 C   0  0  0  0  0  0  0  0  0  0  0  0
   28.0480  -23.2438  -19.4067 C   0  0  0  0  0  0  0  0  0  0  0  0
   27.5421  -23.3518  -18.0079 C   0  0  0  0  0  0  0  0  0  0  0  0
   27.3749  -22.0566  -17.3076 C   0  0  2  0  0  0  0  0  0  0  0  0
   28.5683  -21.2796  -17.1184 N   0  0  0  0  0  0  0  0  0  0  0  0
   26.6437  -22.2244  -15.9977 C   0  0  0  0  0  0  0  0  0  0  0  0
   26.2397  -23.3646  -15.6594 O   0  0  0  0  0  0  0  0  0  0  0  0
   24.4402  -24.7824  -22.4959 N   0  0  0  0  0  0  0  0  0  0  0  0
   26.3980  -21.1257  -15.1329 C   0  0  1  0  0  0  0  0  0  0  0  0
   25.7296  -21.3129  -13.8380 C   0  0  0  0  0  0  0  0  0  0  0  0
   26.2194  -20.3033  -12.8336 C   0  0  0  0  0  0  0  0  0  0  0  0
   25.5154  -20.4213  -11.5342 C   0  0  0  0  0  0  0  0  0  0  0  0
   24.3009  -19.8346  -11.2521 C   0  0  0  0  0  0  0  0  0  0  0  0
   23.6820  -19.9728  -10.0219 C   0  0  0  0  0  0  0  0  0  0  0  0
   24.2604  -20.7132   -9.0112 C   0  0  0  0  0  0  0  0  0  0  0  0
   25.4803  -21.3026   -9.2944 C   0  0  0  0  0  0  0  0  0  0  0  0
   26.0975  -21.1640  -10.5229 C   0  0  0  0  0  0  0  0  0  0  0  0
   24.2656  -21.1484  -14.0959 O   0  0  0  0  0  0  0  0  0  0  0  0
   23.7935  -20.1938  -14.7647 N   0  0  0  0  0  0  0  0  0  0  0  0
   23.3244  -22.0937  -13.5792 C   0  0  1  0  0  0  0  0  0  0  0  0
   21.8960  -21.9744  -13.7881 C   0  0  0  0  0  0  0  0  0  0  0  0
   21.1957  -23.3235  -13.5949 C   0  0  0  0  0  0  0  0  0  0  0  0
   19.7401  -23.1013  -13.9437 C   0  0  0  0  0  0  0  0  0  0  0  0
   18.9306  -24.3710  -13.7969 C   0  0  0  0  0  0  0  0  0  0  0  0
   17.5321  -24.1174  -14.3176 N   0  0  0  0  0  0  0  0  0  0  0  0
   16.7936  -25.3705  -14.2058 C   0  0  0  0  0  0  0  0  0  0  0  0
   21.3840  -20.9824  -12.7792 O   0  0  0  0  0  0  0  0  0  0  0  0
   21.6567  -21.0867  -11.5514 O   0  0  0  0  0  0  0  0  0  0  0  0
  2  1  1  0
  3  2  2  0
  4  2  1  0
  5  4  1  0
  6  5  1  0
  7  8  1  0
  7  6  1  0
  8  9  1  1
 10  8  1  0
 11 10  2  0
 12 10  1  0
 13 21  1  0
 13 12  1  0
 13 14  1  6
 15 14  1  0
 16 15  2  0
 17 16  1  0
 18 19  1  0
 18 17  2  0
 19 20  2  0
 20 15  1  0
 21 23  1  0
 22 21  2  0
 23 24  1  0
 24 30  1  0
 24 25  1  1
 25 26  1  0
 26 27  1  0
 28 27  1  0
 28 29  1  0
 30 32  1  0
 31 30  2  0
M  END
$$$$
