RFK.pdb
     RDKit          3D

 32 32  0  0  1  0  0  0  0  0999 V2000
   29.5834  -27.6877  -16.6081 N   0  0  0  0  0  0  0  0  0  0  0  0
   28.3146  -27.8034  -17.2785 C   0  0  0  0  0  0  0  0  0  0  0  0
   27.6484  -28.8971  -17.1832 N   0  0  0  0  0  0  0  0  0  0  0  0
   27.8362  -26.6906  -18.0317 N   0  0  0  0  0  0  0  0  0  0  0  0
   28.6859  -25.4838  -18.0806 C   0  0  0  0  0  0  0  0  0  0  0  0
   28.3824  -24.5881  -16.9181 C   0  0  0  0  0  0  0  0  0  0  0  0
   26.9267  -24.4581  -16.6213 C   0  0  0  0  0  0  0  0  0  0  0  0
   26.4290  -23.0638  -16.5587 C   0  0  2  0  0  0  0  0  0  0  0  0
   27.3850  -22.0352  -16.8615 N   0  0  0  0  0  0  0  0  0  0  0  0
   25.7471  -22.7767  -15.2429 C   0  0  0  0  0  0  0  0  0  0  0  0
   24.7455  -23.4561  -14.9070 O   0  0  0  0  0  0  0  0  0  0  0  0
   26.7833  -29.1423  -17.6778 N   0  0  0  0  0  0  0  0  0  0  0  0
   26.2069  -21.7559  -14.3700 C   0  0  1  0  0  0  0  0  0  0  0  0
   25.5550  -21.5124  -13.0760 C   0  0  0  0  0  0  0  0  0  0  0  0
   26.4941  -20.8137  -12.1283 C   0  0  0  0  0  0  0  0  0  0  0  0
   25.9075  -20.6559  -10.7759 C   0  0  0  0  0  0  0  0  0  0  0  0
   26.0302  -21.5818   -9.7627 C   0  0  0  0  0  0  0  0  0  0  0  0
   25.4633  -21.3903   -8.5147 C   0  0  0  0  0  0  0  0  0  0  0  0
   24.7415  -20.2500   -8.2261 C   0  0  0  0  0  0  0  0  0  0  0  0
   24.6182  -19.3200   -9.2438 C   0  0  0  0  0  0  0  0  0  0  0  0
   25.1846  -19.5121  -10.4894 C   0  0  0  0  0  0  0  0  0  0  0  0
   24.3554  -20.6672  -13.3651 O   0  0  0  0  0  0  0  0  0  0  0  0
   24.4103  -19.6178  -14.0559 N   0  0  0  0  0  0  0  0  0  0  0  0
   23.0692  -21.0295  -12.8545 C   0  0  1  0  0  0  0  0  0  0  0  0
   21.8399  -20.4188  -13.3172 C   0  0  0  0  0  0  0  0  0  0  0  0
   21.6569  -20.6213  -14.8251 C   0  0  0  0  0  0  0  0  0  0  0  0
   20.4078  -19.8581  -15.2086 C   0  0  0  0  0  0  0  0  0  0  0  0
   20.1115  -19.9790  -16.6872 C   0  0  0  0  0  0  0  0  0  0  0  0
   20.4610  -18.6691  -17.3606 N   0  0  0  0  0  0  0  0  0  0  0  0
   20.0912  -18.7917  -18.7664 C   0  0  0  0  0  0  0  0  0  0  0  0
   20.7117  -21.0781  -12.5713 O   0  0  0  0  0  0  0  0  0  0  0  0
   20.5519  -22.3299  -12.5847 O   0  0  0  0  0  0  0  0  0  0  0  0
  2  1  1  0
  3  2  2  0
  4  2  1  0
  5  4  1  0
  6  5  1  0
  7  8  1  0
  7  6  1  0
  8  9  1  1
 10  8  1  0
 11 10  2  0
 12 10  1  0
 13 21  1  0
 13 12  1  0
 13 14  1  6
 15 14  1  0
 16 15  2  0
 17 16  1  0
 18 19  1  0
 18 17  2  0
 19 20  2  0
 20 15  1  0
 21 23  1  0
 22 21  2  0
 23 24  1  0
 24 30  1  0
 24 25  1  1
 25 26  1  0
 26 27  1  0
 28 27  1  0
 28 29  1  0
 30 32  1  0
 31 30  2  0
M  END
$$$$
