RFK.pdb
     RDKit          3D

 32 32  0  0  1  0  0  0  0  0999 V2000
   19.1476  -23.8944   -9.7869 N   0  0  0  0  0  0  0  0  0  0  0  0
   17.7697  -23.6201  -10.1013 C   0  0  0  0  0  0  0  0  0  0  0  0
   16.8815  -23.7145   -9.1786 N   0  0  0  0  0  0  0  0  0  0  0  0
   17.4347  -23.2495  -11.4373 N   0  0  0  0  0  0  0  0  0  0  0  0
   18.5396  -23.1302  -12.4097 C   0  0  0  0  0  0  0  0  0  0  0  0
   19.5532  -22.1389  -11.9244 C   0  0  0  0  0  0  0  0  0  0  0  0
   20.0412  -21.2085  -12.9829 C   0  0  0  0  0  0  0  0  0  0  0  0
   21.2084  -21.7015  -13.7514 C   0  0  2  0  0  0  0  0  0  0  0  0
   22.0383  -22.6707  -13.0915 N   0  0  0  0  0  0  0  0  0  0  0  0
   22.0473  -20.5623  -14.2778 C   0  0  0  0  0  0  0  0  0  0  0  0
   21.4823  -19.5811  -14.8215 O   0  0  0  0  0  0  0  0  0  0  0  0
   15.8705  -23.5647   -9.2722 N   0  0  0  0  0  0  0  0  0  0  0  0
   23.4633  -20.5679  -14.1759 C   0  0  1  0  0  0  0  0  0  0  0  0
   24.2707  -19.4851  -14.7542 C   0  0  0  0  0  0  0  0  0  0  0  0
   25.5406  -19.2882  -13.9688 C   0  0  0  0  0  0  0  0  0  0  0  0
   26.3763  -18.1961  -14.5229 C   0  0  0  0  0  0  0  0  0  0  0  0
   27.4148  -18.3851  -15.4086 C   0  0  0  0  0  0  0  0  0  0  0  0
   28.1684  -17.3325  -15.8984 C   0  0  0  0  0  0  0  0  0  0  0  0
   27.9100  -16.0317  -15.5171 C   0  0  0  0  0  0  0  0  0  0  0  0
   26.8668  -15.8418  -14.6274 C   0  0  0  0  0  0  0  0  0  0  0  0
   26.1151  -16.8932  -14.1389 C   0  0  0  0  0  0  0  0  0  0  0  0
   24.5670  -19.8914  -16.1627 O   0  0  0  0  0  0  0  0  0  0  0  0
   24.9258  -21.0553  -16.4762 N   0  0  0  0  0  0  0  0  0  0  0  0
   24.4504  -18.9488  -17.2325 C   0  0  1  0  0  0  0  0  0  0  0  0
   24.6479  -19.3087  -18.6216 C   0  0  0  0  0  0  0  0  0  0  0  0
   23.4772  -18.8308  -19.4870 C   0  0  0  0  0  0  0  0  0  0  0  0
   22.2971  -19.7076  -19.1285 C   0  0  0  0  0  0  0  0  0  0  0  0
   21.0410  -19.2770  -19.8535 C   0  0  0  0  0  0  0  0  0  0  0  0
   19.9101  -20.2008  -19.4546 N   0  0  0  0  0  0  0  0  0  0  0  0
   18.7035  -19.7221  -20.1204 C   0  0  0  0  0  0  0  0  0  0  0  0
   25.9217  -18.6464  -19.0721 O   0  0  0  0  0  0  0  0  0  0  0  0
   26.0032  -17.3948  -19.2116 O   0  0  0  0  0  0  0  0  0  0  0  0
  2  1  1  0
  3  2  2  0
  4  2  1  0
  5  4  1  0
  6  5  1  0
  7  8  1  0
  7  6  1  0
  8  9  1  1
 10  8  1  0
 11 10  2  0
 12 10  1  0
 13 21  1  0
 13 12  1  0
 13 14  1  6
 15 14  1  0
 16 15  2  0
 17 16  1  0
 18 19  1  0
 18 17  2  0
 19 20  2  0
 20 15  1  0
 21 23  1  0
 22 21  2  0
 23 24  1  0
 24 30  1  0
 24 25  1  6
 25 26  1  0
 26 27  1  0
 28 27  1  0
 28 29  1  0
 30 32  1  0
 31 30  2  0
M  END
$$$$
