RFK.pdb
     RDKit          3D

 32 32  0  0  1  0  0  0  0  0999 V2000
   28.2686  -21.1803  -18.3805 N   0  0  0  0  0  0  0  0  0  0  0  0
   29.4276  -20.3522  -18.5898 C   0  0  0  0  0  0  0  0  0  0  0  0
   30.4390  -20.8306  -19.2202 N   0  0  0  0  0  0  0  0  0  0  0  0
   29.4134  -19.0177  -18.0864 N   0  0  0  0  0  0  0  0  0  0  0  0
   28.1888  -18.5606  -17.3992 C   0  0  0  0  0  0  0  0  0  0  0  0
   28.3927  -18.5700  -15.9146 C   0  0  0  0  0  0  0  0  0  0  0  0
   27.3835  -19.3795  -15.1727 C   0  0  0  0  0  0  0  0  0  0  0  0
   27.9549  -20.4062  -14.2699 C   0  0  2  0  0  0  0  0  0  0  0  0
   28.5967  -21.5231  -14.9057 N   0  0  0  0  0  0  0  0  0  0  0  0
   26.9383  -20.8875  -13.2631 C   0  0  0  0  0  0  0  0  0  0  0  0
   26.3782  -21.9984  -13.4360 O   0  0  0  0  0  0  0  0  0  0  0  0
   31.2967  -20.3338  -19.4860 N   0  0  0  0  0  0  0  0  0  0  0  0
   26.5949  -20.1171  -12.1211 C   0  0  1  0  0  0  0  0  0  0  0  0
   25.5525  -20.5655  -11.1878 C   0  0  0  0  0  0  0  0  0  0  0  0
   25.6535  -19.8261   -9.8797 C   0  0  0  0  0  0  0  0  0  0  0  0
   26.8734  -20.1951   -9.1223 C   0  0  0  0  0  0  0  0  0  0  0  0
   28.0168  -20.7102   -9.6934 C   0  0  0  0  0  0  0  0  0  0  0  0
   29.1322  -21.0409   -8.9438 C   0  0  0  0  0  0  0  0  0  0  0  0
   29.1492  -20.8674   -7.5748 C   0  0  0  0  0  0  0  0  0  0  0  0
   28.0007  -20.3500   -7.0011 C   0  0  0  0  0  0  0  0  0  0  0  0
   26.8876  -20.0202   -7.7503 C   0  0  0  0  0  0  0  0  0  0  0  0
   24.2446  -20.2930  -11.8601 O   0  0  0  0  0  0  0  0  0  0  0  0
   23.8079  -19.1304  -12.0576 N   0  0  0  0  0  0  0  0  0  0  0  0
   23.4213  -21.3708  -12.3151 C   0  0  1  0  0  0  0  0  0  0  0  0
   22.2007  -21.1634  -13.0670 C   0  0  0  0  0  0  0  0  0  0  0  0
   22.2145  -21.9650  -14.3729 C   0  0  0  0  0  0  0  0  0  0  0  0
   22.8274  -23.3082  -14.0414 C   0  0  0  0  0  0  0  0  0  0  0  0
   22.8409  -24.2276  -15.2428 C   0  0  0  0  0  0  0  0  0  0  0  0
   23.3879  -25.5734  -14.8174 N   0  0  0  0  0  0  0  0  0  0  0  0
   23.3255  -26.4539  -15.9789 C   0  0  0  0  0  0  0  0  0  0  0  0
   21.0627  -21.6226  -12.1962 O   0  0  0  0  0  0  0  0  0  0  0  0
   19.8613  -21.5195  -12.5686 O   0  0  0  0  0  0  0  0  0  0  0  0
  2  1  1  0
  3  2  2  0
  4  2  1  0
  5  4  1  0
  6  5  1  0
  7  8  1  0
  7  6  1  0
  8  9  1  6
 10  8  1  0
 11 10  2  0
 12 10  1  0
 13 21  1  0
 13 12  1  0
 13 14  1  1
 15 14  1  0
 16 15  2  0
 17 16  1  0
 18 19  1  0
 18 17  2  0
 19 20  2  0
 20 15  1  0
 21 23  1  0
 22 21  2  0
 23 24  1  0
 24 30  1  0
 24 25  1  6
 25 26  1  0
 26 27  1  0
 28 27  1  0
 28 29  1  0
 30 32  1  0
 31 30  2  0
M  END
$$$$
