ELE.pdb
     RDKit          3D

 27 26  0  0  1  0  0  0  0  0999 V2000
   20.1241  -13.6812  -17.5322 N   0  0  0  0  0  0  0  0  0  0  0  0
   20.3589  -12.3801  -18.1359 C   0  0  1  0  0  0  0  0  0  0  0  0
   19.0392  -11.7209  -18.3537 C   0  0  0  0  0  0  0  0  0  0  0  0
   18.0989  -12.4872  -19.2269 C   0  0  0  0  0  0  0  0  0  0  0  0
   17.0165  -13.0411  -18.3515 C   0  0  0  0  0  0  0  0  0  0  0  0
   16.0528  -12.3364  -17.9597 O   0  0  0  0  0  0  0  0  0  0  0  0
   21.2534  -11.6380  -17.2118 C   0  0  0  0  0  0  0  0  0  0  0  0
   20.8370  -11.2266  -16.0848 O   0  0  0  0  0  0  0  0  0  0  0  0
   17.0460  -14.3630  -17.9428 O   0  0  0  0  0  0  0  0  0  0  0  0
   27.2065   -9.9905  -16.3265 C   0  0  0  0  0  0  0  0  0  0  0  0
   25.7198   -9.8570  -15.9801 C   0  0  2  0  0  0  0  0  0  0  0  0
   25.5825  -10.3737  -14.5426 C   0  0  0  0  0  0  0  0  0  0  0  0
   24.8886  -10.7216  -16.8813 C   0  0  0  0  0  0  0  0  0  0  0  0
   23.4473  -10.5087  -16.6674 C   0  0  2  0  0  0  0  0  0  0  0  0
   22.6062  -11.3397  -17.5097 N   0  0  0  0  0  0  0  0  0  0  0  0
   23.0557   -9.1081  -16.8464 C   0  0  0  0  0  0  0  0  0  0  0  0
   23.2136   -8.4249  -17.8807 O   0  0  0  0  0  0  0  0  0  0  0  0
   22.4318   -8.4263  -15.7578 N   0  0  0  0  0  0  0  0  0  0  0  0
   22.0535   -7.0061  -15.8384 C   0  0  1  0  0  0  0  0  0  0  0  0
   20.5782   -6.9430  -16.0264 C   0  0  0  0  0  0  0  0  0  0  0  0
   19.9575   -5.5966  -16.0054 C   0  0  0  0  0  0  0  0  0  0  0  0
   18.6204   -5.5627  -16.6200 C   0  0  0  0  0  0  0  0  0  0  0  0
   18.0771   -6.5665  -17.0911 O   0  0  0  0  0  0  0  0  0  0  0  0
   22.5006   -6.3655  -14.5904 C   0  0  0  0  0  0  0  0  0  0  0  0
   22.4473   -5.1267  -14.4634 O   0  0  0  0  0  0  0  0  0  0  0  0
   17.9080   -4.3592  -16.6898 O   0  0  0  0  0  0  0  0  0  0  0  0
   22.9790   -7.1364  -13.5592 O   0  0  0  0  0  0  0  0  0  0  0  0
  2  1  1  1
  2  3  1  0
  2  7  1  0
  4  3  1  0
  4  5  1  0
  5  6  2  0
  7  8  2  0
  9  5  1  0
 11 10  1  6
 11 12  1  0
 13 11  1  0
 14 16  1  0
 14 13  1  6
 15  7  1  0
 15 14  1  0
 16 17  2  0
 18 16  1  0
 19 18  1  0
 19 24  1  0
 20 21  1  0
 19 20  1  1
 22 26  1  0
 22 21  1  0
 23 22  2  0
 24 25  2  0
 24 27  1  0
M  END
$$$$
