ELE.pdb
     RDKit          3D

 27 26  0  0  1  0  0  0  0  0999 V2000
   19.2680  -12.5249  -16.2542 N   0  0  0  0  0  0  0  0  0  0  0  0
   19.7197  -11.4240  -17.0888 C   0  0  1  0  0  0  0  0  0  0  0  0
   18.5193  -10.7073  -17.6070 C   0  0  0  0  0  0  0  0  0  0  0  0
   17.6923  -11.4967  -18.5699 C   0  0  0  0  0  0  0  0  0  0  0  0
   16.5924  -10.6053  -19.0599 C   0  0  0  0  0  0  0  0  0  0  0  0
   15.9460  -10.8613  -20.1067 O   0  0  0  0  0  0  0  0  0  0  0  0
   20.6003  -10.5813  -16.2406 C   0  0  0  0  0  0  0  0  0  0  0  0
   20.2454  -10.2296  -15.0730 O   0  0  0  0  0  0  0  0  0  0  0  0
   16.2506   -9.4582  -18.3653 O   0  0  0  0  0  0  0  0  0  0  0  0
   24.3910  -10.9762  -14.1540 C   0  0  0  0  0  0  0  0  0  0  0  0
   24.5593  -10.7742  -15.6636 C   0  0  2  0  0  0  0  0  0  0  0  0
   26.0619  -10.9186  -15.9349 C   0  0  0  0  0  0  0  0  0  0  0  0
   24.1313   -9.3926  -16.0618 C   0  0  0  0  0  0  0  0  0  0  0  0
   22.6828   -9.1956  -15.8838 C   0  0  2  0  0  0  0  0  0  0  0  0
   21.8718  -10.1169  -16.6590 N   0  0  0  0  0  0  0  0  0  0  0  0
   22.2624   -7.8257  -16.1900 C   0  0  0  0  0  0  0  0  0  0  0  0
   22.1943   -7.3123  -17.3272 O   0  0  0  0  0  0  0  0  0  0  0  0
   21.8877   -6.9667  -15.1125 N   0  0  0  0  0  0  0  0  0  0  0  0
   21.5238   -5.5567  -15.3270 C   0  0  1  0  0  0  0  0  0  0  0  0
   20.0431   -5.4893  -15.4628 C   0  0  0  0  0  0  0  0  0  0  0  0
   19.4453   -4.1410  -15.6152 C   0  0  0  0  0  0  0  0  0  0  0  0
   17.9858   -4.1695  -15.8044 C   0  0  0  0  0  0  0  0  0  0  0  0
   17.3387   -5.2204  -15.8442 O   0  0  0  0  0  0  0  0  0  0  0  0
   22.0290   -4.7967  -14.1715 C   0  0  0  0  0  0  0  0  0  0  0  0
   22.1986   -5.3594  -13.0723 O   0  0  0  0  0  0  0  0  0  0  0  0
   17.2711   -2.9741  -15.9484 O   0  0  0  0  0  0  0  0  0  0  0  0
   22.3159   -3.4601  -14.3044 O   0  0  0  0  0  0  0  0  0  0  0  0
  2  1  1  1
  2  3  1  0
  2  7  1  0
  4  3  1  0
  4  5  1  0
  5  6  2  0
  7  8  2  0
  9  5  1  0
 11 10  1  1
 11 12  1  0
 13 11  1  0
 14 16  1  0
 14 13  1  6
 15  7  1  0
 15 14  1  0
 16 17  2  0
 18 16  1  0
 19 18  1  0
 19 24  1  0
 20 21  1  0
 19 20  1  1
 22 26  1  0
 22 21  1  0
 23 22  2  0
 24 25  2  0
 24 27  1  0
M  END
$$$$
