ELE.pdb
     RDKit          3D

 27 26  0  0  1  0  0  0  0  0999 V2000
   26.8807  -21.8215  -13.8952 N   0  0  0  0  0  0  0  0  0  0  0  0
   26.6844  -20.5568  -13.2064 C   0  0  1  0  0  0  0  0  0  0  0  0
   25.5974  -19.8097  -13.9018 C   0  0  0  0  0  0  0  0  0  0  0  0
   25.9430  -19.3521  -15.2821 C   0  0  0  0  0  0  0  0  0  0  0  0
   24.8426  -19.7969  -16.1963 C   0  0  0  0  0  0  0  0  0  0  0  0
   24.9773  -20.7774  -16.9705 O   0  0  0  0  0  0  0  0  0  0  0  0
   26.3741  -20.8867  -11.7923 C   0  0  0  0  0  0  0  0  0  0  0  0
   25.9260  -22.0300  -11.4684 O   0  0  0  0  0  0  0  0  0  0  0  0
   23.6288  -19.1325  -16.2158 O   0  0  0  0  0  0  0  0  0  0  0  0
   27.3277  -18.7784   -6.0591 C   0  0  0  0  0  0  0  0  0  0  0  0
   26.8353  -19.9126   -6.9643 C   0  0  2  0  0  0  0  0  0  0  0  0
   27.5665  -21.1721   -6.4834 C   0  0  0  0  0  0  0  0  0  0  0  0
   27.2178  -19.6522   -8.3913 C   0  0  0  0  0  0  0  0  0  0  0  0
   26.2963  -20.3090   -9.3336 C   0  0  2  0  0  0  0  0  0  0  0  0
   26.5499  -19.9736  -10.7231 N   0  0  0  0  0  0  0  0  0  0  0  0
   24.8907  -20.0272   -9.0302 C   0  0  0  0  0  0  0  0  0  0  0  0
   24.2573  -19.0009   -9.3571 O   0  0  0  0  0  0  0  0  0  0  0  0
   24.1416  -20.9938   -8.2928 N   0  0  0  0  0  0  0  0  0  0  0  0
   22.6730  -21.0648   -8.3636 C   0  0  1  0  0  0  0  0  0  0  0  0
   22.3052  -21.3909   -9.7686 C   0  0  0  0  0  0  0  0  0  0  0  0
   20.8641  -21.5916  -10.0542 C   0  0  0  0  0  0  0  0  0  0  0  0
   20.4144  -20.9149  -11.2816 C   0  0  0  0  0  0  0  0  0  0  0  0
   20.9293  -21.1222  -12.3846 O   0  0  0  0  0  0  0  0  0  0  0  0
   22.2408  -22.0944   -7.4039 C   0  0  0  0  0  0  0  0  0  0  0  0
   23.0195  -23.0064   -7.0643 O   0  0  0  0  0  0  0  0  0  0  0  0
   19.3622  -19.9925  -11.2317 O   0  0  0  0  0  0  0  0  0  0  0  0
   20.9724  -22.0504   -6.8786 O   0  0  0  0  0  0  0  0  0  0  0  0
  2  1  1  6
  2  3  1  0
  2  7  1  0
  4  3  1  0
  4  5  1  0
  5  6  2  0
  7  8  2  0
  9  5  1  0
 11 10  1  1
 11 12  1  0
 13 11  1  0
 14 16  1  0
 14 13  1  1
 15  7  1  0
 15 14  1  0
 16 17  2  0
 18 16  1  0
 19 18  1  0
 19 24  1  0
 20 21  1  0
 19 20  1  6
 22 26  1  0
 22 21  1  0
 23 22  2  0
 24 25  2  0
 24 27  1  0
M  END
$$$$
