ELE.pdb
     RDKit          3D

 27 26  0  0  1  0  0  0  0  0999 V2000
   28.1034  -20.9492  -13.9569 N   0  0  0  0  0  0  0  0  0  0  0  0
   27.0164  -20.0912  -13.5158 C   0  0  1  0  0  0  0  0  0  0  0  0
   26.1257  -19.8281  -14.6823 C   0  0  0  0  0  0  0  0  0  0  0  0
   26.5949  -18.7354  -15.5879 C   0  0  0  0  0  0  0  0  0  0  0  0
   27.6070  -19.3241  -16.5225 C   0  0  0  0  0  0  0  0  0  0  0  0
   27.6203  -20.5491  -16.8019 O   0  0  0  0  0  0  0  0  0  0  0  0
   26.3439  -20.7986  -12.3968 C   0  0  0  0  0  0  0  0  0  0  0  0
   26.2641  -22.0659  -12.3753 O   0  0  0  0  0  0  0  0  0  0  0  0
   28.5705  -18.5259  -17.1140 O   0  0  0  0  0  0  0  0  0  0  0  0
   27.5614  -21.2887   -8.2661 C   0  0  0  0  0  0  0  0  0  0  0  0
   26.9084  -19.9423   -8.5962 C   0  0  2  0  0  0  0  0  0  0  0  0
   27.0722  -19.0836   -7.3360 C   0  0  0  0  0  0  0  0  0  0  0  0
   25.4437  -20.1191   -8.8683 C   0  0  0  0  0  0  0  0  0  0  0  0
   25.2041  -20.8187  -10.1417 C   0  0  2  0  0  0  0  0  0  0  0  0
   25.7545  -20.1301  -11.2952 N   0  0  0  0  0  0  0  0  0  0  0  0
   23.7812  -21.0745  -10.3807 C   0  0  0  0  0  0  0  0  0  0  0  0
   22.8844  -21.1206   -9.5118 O   0  0  0  0  0  0  0  0  0  0  0  0
   23.3403  -21.2967  -11.7206 N   0  0  0  0  0  0  0  0  0  0  0  0
   21.9175  -21.2454  -12.0942 C   0  0  1  0  0  0  0  0  0  0  0  0
   21.4389  -19.8563  -11.8554 C   0  0  0  0  0  0  0  0  0  0  0  0
   21.3498  -18.9663  -13.0380 C   0  0  0  0  0  0  0  0  0  0  0  0
   19.9765  -18.5256  -13.3324 C   0  0  0  0  0  0  0  0  0  0  0  0
   19.2322  -18.0428  -12.4736 O   0  0  0  0  0  0  0  0  0  0  0  0
   21.8242  -21.6493  -13.5070 C   0  0  0  0  0  0  0  0  0  0  0  0
   22.8307  -21.6121  -14.2412 O   0  0  0  0  0  0  0  0  0  0  0  0
   19.4618  -18.6447  -14.6292 O   0  0  0  0  0  0  0  0  0  0  0  0
   20.6216  -22.0701  -14.0202 O   0  0  0  0  0  0  0  0  0  0  0  0
  2  1  1  6
  2  3  1  0
  2  7  1  0
  4  3  1  0
  4  5  1  0
  5  6  2  0
  7  8  2  0
  9  5  1  0
 11 10  1  1
 11 12  1  0
 13 11  1  0
 14 16  1  0
 14 13  1  1
 15  7  1  0
 15 14  1  0
 16 17  2  0
 18 16  1  0
 19 18  1  0
 19 24  1  0
 20 21  1  0
 19 20  1  6
 22 26  1  0
 22 21  1  0
 23 22  2  0
 24 25  2  0
 24 27  1  0
M  END
$$$$
