ELE.pdb
     RDKit          3D

 27 26  0  0  1  0  0  0  0  0999 V2000
   20.8464  -11.9021  -17.9529 N   0  0  0  0  0  0  0  0  0  0  0  0
   20.2399  -11.4981  -16.6953 C   0  0  1  0  0  0  0  0  0  0  0  0
   19.8794  -12.7283  -15.9338 C   0  0  0  0  0  0  0  0  0  0  0  0
   18.9303  -13.6408  -16.6414 C   0  0  0  0  0  0  0  0  0  0  0  0
   18.6217  -14.7791  -15.7175 C   0  0  0  0  0  0  0  0  0  0  0  0
   17.7985  -14.6656  -14.7749 O   0  0  0  0  0  0  0  0  0  0  0  0
   21.2306  -10.6348  -16.0038 C   0  0  0  0  0  0  0  0  0  0  0  0
   21.0002  -10.1708  -14.8443 O   0  0  0  0  0  0  0  0  0  0  0  0
   19.2421  -16.0059  -15.8764 O   0  0  0  0  0  0  0  0  0  0  0  0
   25.5953  -10.9170  -14.6204 C   0  0  0  0  0  0  0  0  0  0  0  0
   25.3468  -10.7742  -16.1258 C   0  0  2  0  0  0  0  0  0  0  0  0
   26.7277  -10.8808  -16.7845 C   0  0  0  0  0  0  0  0  0  0  0  0
   24.7693   -9.4256  -16.4393 C   0  0  0  0  0  0  0  0  0  0  0  0
   23.3781   -9.3037  -15.9721 C   0  0  2  0  0  0  0  0  0  0  0  0
   22.4774  -10.2720  -16.5709 N   0  0  0  0  0  0  0  0  0  0  0  0
   22.8327   -7.9601  -16.1824 C   0  0  0  0  0  0  0  0  0  0  0  0
   22.4922   -7.4660  -17.2785 O   0  0  0  0  0  0  0  0  0  0  0  0
   22.6595   -7.1058  -15.0514 N   0  0  0  0  0  0  0  0  0  0  0  0
   22.0737   -5.7606  -15.1699 C   0  0  1  0  0  0  0  0  0  0  0  0
   20.6880   -5.9171  -15.6903 C   0  0  0  0  0  0  0  0  0  0  0  0
   19.8528   -4.6934  -15.7494 C   0  0  0  0  0  0  0  0  0  0  0  0
   18.4923   -4.9413  -16.2540 C   0  0  0  0  0  0  0  0  0  0  0  0
   18.1108   -6.0559  -16.6240 O   0  0  0  0  0  0  0  0  0  0  0  0
   22.1182   -5.1476  -13.8320 C   0  0  0  0  0  0  0  0  0  0  0  0
   22.1194   -5.8623  -12.8108 O   0  0  0  0  0  0  0  0  0  0  0  0
   17.5680   -3.8923  -16.3308 O   0  0  0  0  0  0  0  0  0  0  0  0
   22.1591   -3.7804  -13.7070 O   0  0  0  0  0  0  0  0  0  0  0  0
  2  1  1  6
  2  3  1  0
  2  7  1  0
  4  3  1  0
  4  5  1  0
  5  6  2  0
  7  8  2  0
  9  5  1  0
 11 10  1  1
 11 12  1  0
 13 11  1  0
 14 16  1  0
 14 13  1  6
 15  7  1  0
 15 14  1  0
 16 17  2  0
 18 16  1  0
 19 18  1  0
 19 24  1  0
 20 21  1  0
 19 20  1  1
 22 26  1  0
 22 21  1  0
 23 22  2  0
 24 25  2  0
 24 27  1  0
M  END
$$$$
