ELE.pdb
     RDKit          3D

 27 26  0  0  1  0  0  0  0  0999 V2000
   28.1121  -21.3425  -15.5127 N   0  0  0  0  0  0  0  0  0  0  0  0
   26.8948  -20.5534  -15.6029 C   0  0  1  0  0  0  0  0  0  0  0  0
   26.2654  -20.8150  -16.9290 C   0  0  0  0  0  0  0  0  0  0  0  0
   27.0632  -20.3388  -18.0999 C   0  0  0  0  0  0  0  0  0  0  0  0
   27.3730  -18.8899  -17.8784 C   0  0  0  0  0  0  0  0  0  0  0  0
   28.5449  -18.4842  -17.6760 O   0  0  0  0  0  0  0  0  0  0  0  0
   26.0466  -20.9473  -14.4495 C   0  0  0  0  0  0  0  0  0  0  0  0
   25.0473  -21.7160  -14.6023 O   0  0  0  0  0  0  0  0  0  0  0  0
   26.3645  -17.9422  -17.8903 O   0  0  0  0  0  0  0  0  0  0  0  0
   25.4411  -19.9613   -8.3009 C   0  0  0  0  0  0  0  0  0  0  0  0
   24.9388  -20.5963   -9.6019 C   0  0  2  0  0  0  0  0  0  0  0  0
   24.8153  -22.0966   -9.3086 C   0  0  0  0  0  0  0  0  0  0  0  0
   25.9393  -20.4043  -10.7031 C   0  0  0  0  0  0  0  0  0  0  0  0
   25.3949  -20.8010  -12.0126 C   0  0  2  0  0  0  0  0  0  0  0  0
   26.2816  -20.5063  -13.1236 N   0  0  0  0  0  0  0  0  0  0  0  0
   24.0869  -20.1975  -12.2811 C   0  0  0  0  0  0  0  0  0  0  0  0
   23.8835  -19.0788  -12.7994 O   0  0  0  0  0  0  0  0  0  0  0  0
   22.9104  -20.9272  -11.9309 N   0  0  0  0  0  0  0  0  0  0  0  0
   21.5623  -20.4530  -12.2834 C   0  0  1  0  0  0  0  0  0  0  0  0
   21.2948  -20.8608  -13.6897 C   0  0  0  0  0  0  0  0  0  0  0  0
   19.9319  -20.6033  -14.2138 C   0  0  0  0  0  0  0  0  0  0  0  0
   19.7481  -21.0536  -15.6032 C   0  0  0  0  0  0  0  0  0  0  0  0
   20.5782  -21.7513  -16.1937 O   0  0  0  0  0  0  0  0  0  0  0  0
   20.6240  -21.0568  -11.3227 C   0  0  0  0  0  0  0  0  0  0  0  0
   20.9852  -22.0063  -10.6005 O   0  0  0  0  0  0  0  0  0  0  0  0
   18.5961  -20.6939  -16.3132 O   0  0  0  0  0  0  0  0  0  0  0  0
   19.3431  -20.5716  -11.2204 O   0  0  0  0  0  0  0  0  0  0  0  0
  2  1  1  6
  2  3  1  0
  2  7  1  0
  4  3  1  0
  4  5  1  0
  5  6  2  0
  7  8  2  0
  9  5  1  0
 11 10  1  1
 11 12  1  0
 13 11  1  0
 14 16  1  0
 14 13  1  1
 15  7  1  0
 15 14  1  0
 16 17  2  0
 18 16  1  0
 19 18  1  0
 19 24  1  0
 20 21  1  0
 19 20  1  6
 22 26  1  0
 22 21  1  0
 23 22  2  0
 24 25  2  0
 24 27  1  0
M  END
$$$$
