ELE.pdb
     RDKit          3D

 27 26  0  0  1  0  0  0  0  0999 V2000
   19.7900   -7.8216  -13.5725 N   0  0  0  0  0  0  0  0  0  0  0  0
   18.9641   -6.7525  -13.0363 C   0  0  1  0  0  0  0  0  0  0  0  0
   18.3430   -6.0237  -14.1792 C   0  0  0  0  0  0  0  0  0  0  0  0
   19.3034   -5.2310  -15.0058 C   0  0  0  0  0  0  0  0  0  0  0  0
   18.5433   -4.6651  -16.1662 C   0  0  0  0  0  0  0  0  0  0  0  0
   17.3125   -4.8678  -16.3170 O   0  0  0  0  0  0  0  0  0  0  0  0
   17.9790   -7.3916  -12.1275 C   0  0  0  0  0  0  0  0  0  0  0  0
   17.7588   -8.6416  -12.1732 O   0  0  0  0  0  0  0  0  0  0  0  0
   19.1825   -3.8919  -17.1196 O   0  0  0  0  0  0  0  0  0  0  0  0
   14.1512   -6.0623   -7.3567 C   0  0  0  0  0  0  0  0  0  0  0  0
   14.6232   -7.0125   -8.4624 C   0  0  2  0  0  0  0  0  0  0  0  0
   15.0912   -8.2836   -7.7429 C   0  0  0  0  0  0  0  0  0  0  0  0
   15.7884   -6.4240   -9.2016 C   0  0  0  0  0  0  0  0  0  0  0  0
   16.2210   -7.2843  -10.3156 C   0  0  2  0  0  0  0  0  0  0  0  0
   17.2282   -6.6734  -11.1641 N   0  0  0  0  0  0  0  0  0  0  0  0
   15.1009   -7.7206  -11.1536 C   0  0  0  0  0  0  0  0  0  0  0  0
   14.4546   -7.0071  -11.9503 O   0  0  0  0  0  0  0  0  0  0  0  0
   14.6797   -9.0830  -11.0799 N   0  0  0  0  0  0  0  0  0  0  0  0
   13.5921   -9.6117  -11.9192 C   0  0  1  0  0  0  0  0  0  0  0  0
   13.8774  -11.0505  -12.1724 C   0  0  0  0  0  0  0  0  0  0  0  0
   12.8428  -11.8194  -12.9050 C   0  0  0  0  0  0  0  0  0  0  0  0
   13.2092  -13.2287  -13.1210 C   0  0  0  0  0  0  0  0  0  0  0  0
   12.3781  -14.0994  -13.3965 O   0  0  0  0  0  0  0  0  0  0  0  0
   12.3335   -9.3970  -11.1859 C   0  0  0  0  0  0  0  0  0  0  0  0
   11.2949   -9.0773  -11.7964 O   0  0  0  0  0  0  0  0  0  0  0  0
   14.5459  -13.6323  -13.0172 O   0  0  0  0  0  0  0  0  0  0  0  0
   12.3022   -9.5499   -9.8213 O   0  0  0  0  0  0  0  0  0  0  0  0
  2  1  1  6
  2  3  1  0
  2  7  1  0
  4  3  1  0
  4  5  1  0
  5  6  2  0
  7  8  2  0
  9  5  1  0
 11 10  1  1
 11 12  1  0
 13 11  1  0
 14 16  1  0
 14 13  1  1
 15  7  1  0
 15 14  1  0
 16 17  2  0
 18 16  1  0
 19 18  1  0
 19 24  1  0
 20 21  1  0
 19 20  1  1
 22 26  1  0
 22 21  1  0
 23 22  2  0
 24 25  2  0
 24 27  1  0
M  END
$$$$
