ELE.pdb
     RDKit          3D

 27 26  0  0  1  0  0  0  0  0999 V2000
   25.7892  -17.8518  -17.1445 N   0  0  0  0  0  0  0  0  0  0  0  0
   25.6381  -19.2768  -17.3875 C   0  0  1  0  0  0  0  0  0  0  0  0
   26.3648  -19.6162  -18.6445 C   0  0  0  0  0  0  0  0  0  0  0  0
   27.0969  -18.4714  -19.2670 C   0  0  0  0  0  0  0  0  0  0  0  0
   26.9083  -18.5652  -20.7503 C   0  0  0  0  0  0  0  0  0  0  0  0
   26.0786  -17.8462  -21.3616 O   0  0  0  0  0  0  0  0  0  0  0  0
   26.1648  -19.9712  -16.1854 C   0  0  0  0  0  0  0  0  0  0  0  0
   26.1660  -21.2388  -16.1077 O   0  0  0  0  0  0  0  0  0  0  0  0
   27.6520  -19.4582  -21.5017 O   0  0  0  0  0  0  0  0  0  0  0  0
   30.2165  -19.9937  -11.6771 C   0  0  0  0  0  0  0  0  0  0  0  0
   28.8408  -20.4419  -12.1819 C   0  0  2  0  0  0  0  0  0  0  0  0
   28.9862  -21.9333  -12.5084 C   0  0  0  0  0  0  0  0  0  0  0  0
   28.4762  -19.7096  -13.4394 C   0  0  0  0  0  0  0  0  0  0  0  0
   27.0773  -19.9540  -13.8291 C   0  0  2  0  0  0  0  0  0  0  0  0
   26.6930  -19.2893  -15.0612 N   0  0  0  0  0  0  0  0  0  0  0  0
   26.1293  -19.5794  -12.7765 C   0  0  0  0  0  0  0  0  0  0  0  0
   25.7868  -18.4168  -12.4724 O   0  0  0  0  0  0  0  0  0  0  0  0
   25.5188  -20.6138  -12.0041 N   0  0  0  0  0  0  0  0  0  0  0  0
   24.5003  -20.3277  -10.9806 C   0  0  1  0  0  0  0  0  0  0  0  0
   23.1700  -20.3607  -11.6475 C   0  0  0  0  0  0  0  0  0  0  0  0
   21.9824  -20.1588  -10.7829 C   0  0  0  0  0  0  0  0  0  0  0  0
   20.7094  -20.2187  -11.5196 C   0  0  0  0  0  0  0  0  0  0  0  0
   20.0241  -21.2437  -11.5852 O   0  0  0  0  0  0  0  0  0  0  0  0
   24.6407  -21.3497   -9.9300 C   0  0  0  0  0  0  0  0  0  0  0  0
   24.2201  -21.1309   -8.7773 O   0  0  0  0  0  0  0  0  0  0  0  0
   20.2270  -19.0847  -12.1846 O   0  0  0  0  0  0  0  0  0  0  0  0
   25.2382  -22.5519  -10.2207 O   0  0  0  0  0  0  0  0  0  0  0  0
  2  1  1  1
  2  3  1  0
  2  7  1  0
  4  3  1  0
  4  5  1  0
  5  6  2  0
  7  8  2  0
  9  5  1  0
 11 10  1  6
 11 12  1  0
 13 11  1  0
 14 16  1  0
 14 13  1  1
 15  7  1  0
 15 14  1  0
 16 17  2  0
 18 16  1  0
 19 18  1  0
 19 24  1  0
 20 21  1  0
 19 20  1  6
 22 26  1  0
 22 21  1  0
 23 22  2  0
 24 25  2  0
 24 27  1  0
M  END
$$$$
