ELE.pdb
     RDKit          3D

 27 26  0  0  1  0  0  0  0  0999 V2000
   18.0127  -11.4376  -17.5170 N   0  0  0  0  0  0  0  0  0  0  0  0
   17.6569  -11.0579  -16.1599 C   0  0  1  0  0  0  0  0  0  0  0  0
   17.1463  -12.2683  -15.4546 C   0  0  0  0  0  0  0  0  0  0  0  0
   15.8755  -12.8227  -16.0129 C   0  0  0  0  0  0  0  0  0  0  0  0
   15.4706  -13.9819  -15.1546 C   0  0  0  0  0  0  0  0  0  0  0  0
   16.1479  -14.3399  -14.1586 O   0  0  0  0  0  0  0  0  0  0  0  0
   18.8787  -10.4784  -15.5466 C   0  0  0  0  0  0  0  0  0  0  0  0
   18.8587  -10.0001  -14.3703 O   0  0  0  0  0  0  0  0  0  0  0  0
   14.3235  -14.7028  -15.4366 O   0  0  0  0  0  0  0  0  0  0  0  0
   25.0529  -10.6462  -15.8988 C   0  0  0  0  0  0  0  0  0  0  0  0
   23.7776   -9.9998  -15.3476 C   0  0  2  0  0  0  0  0  0  0  0  0
   23.7241  -10.3897  -13.8653 C   0  0  0  0  0  0  0  0  0  0  0  0
   22.5652  -10.5569  -16.0335 C   0  0  0  0  0  0  0  0  0  0  0  0
   21.3321   -9.8763  -15.6037 C   0  0  2  0  0  0  0  0  0  0  0  0
   20.1289  -10.4165  -16.2105 N   0  0  0  0  0  0  0  0  0  0  0  0
   21.3753   -8.4322  -15.8484 C   0  0  0  0  0  0  0  0  0  0  0  0
   21.5084   -7.8765  -16.9597 O   0  0  0  0  0  0  0  0  0  0  0  0
   21.2574   -7.5447  -14.7360 N   0  0  0  0  0  0  0  0  0  0  0  0
   21.3043   -6.0820  -14.8943 C   0  0  1  0  0  0  0  0  0  0  0  0
   19.9026   -5.5815  -14.8723 C   0  0  0  0  0  0  0  0  0  0  0  0
   19.5137   -4.6324  -15.9430 C   0  0  0  0  0  0  0  0  0  0  0  0
   18.1200   -4.1712  -15.8337 C   0  0  0  0  0  0  0  0  0  0  0  0
   17.3766   -4.5081  -14.9071 O   0  0  0  0  0  0  0  0  0  0  0  0
   22.1204   -5.5512  -13.7898 C   0  0  0  0  0  0  0  0  0  0  0  0
   22.3624   -6.2549  -12.7899 O   0  0  0  0  0  0  0  0  0  0  0  0
   17.5838   -3.3149  -16.8032 O   0  0  0  0  0  0  0  0  0  0  0  0
   22.6189   -4.2732  -13.8605 O   0  0  0  0  0  0  0  0  0  0  0  0
  2  1  1  6
  2  3  1  0
  2  7  1  0
  4  3  1  0
  4  5  1  0
  5  6  2  0
  7  8  2  0
  9  5  1  0
 11 10  1  6
 11 12  1  0
 13 11  1  0
 14 16  1  0
 14 13  1  6
 15  7  1  0
 15 14  1  0
 16 17  2  0
 18 16  1  0
 19 18  1  0
 19 24  1  0
 20 21  1  0
 19 20  1  1
 22 26  1  0
 22 21  1  0
 23 22  2  0
 24 25  2  0
 24 27  1  0
M  END
$$$$
