ELE.pdb
     RDKit          3D

 27 26  0  0  1  0  0  0  0  0999 V2000
   18.7271  -10.5662  -19.2088 N   0  0  0  0  0  0  0  0  0  0  0  0
   17.8265  -10.0441  -18.1945 C   0  0  1  0  0  0  0  0  0  0  0  0
   16.9105  -11.1425  -17.7728 C   0  0  0  0  0  0  0  0  0  0  0  0
   15.9232  -10.7575  -16.7187 C   0  0  0  0  0  0  0  0  0  0  0  0
   15.5834  -11.9930  -15.9425 C   0  0  0  0  0  0  0  0  0  0  0  0
   15.8648  -12.1106  -14.7235 O   0  0  0  0  0  0  0  0  0  0  0  0
   18.6795   -9.5215  -17.0971 C   0  0  0  0  0  0  0  0  0  0  0  0
   18.1763   -8.8782  -16.1246 O   0  0  0  0  0  0  0  0  0  0  0  0
   14.9410  -13.0561  -16.5528 O   0  0  0  0  0  0  0  0  0  0  0  0
   24.2857  -10.3651  -14.5498 C   0  0  0  0  0  0  0  0  0  0  0  0
   22.9853   -9.5601  -14.6456 C   0  0  2  0  0  0  0  0  0  0  0  0
   22.2655   -9.7770  -13.3088 C   0  0  0  0  0  0  0  0  0  0  0  0
   22.1172  -10.0900  -15.7485 C   0  0  0  0  0  0  0  0  0  0  0  0
   20.9104   -9.2677  -15.9382 C   0  0  2  0  0  0  0  0  0  0  0  0
   20.0849   -9.6963  -17.0528 N   0  0  0  0  0  0  0  0  0  0  0  0
   21.2223   -7.8454  -16.1028 C   0  0  0  0  0  0  0  0  0  0  0  0
   21.8616   -7.3355  -17.0476 O   0  0  0  0  0  0  0  0  0  0  0  0
   20.7694   -6.9249  -15.1095 N   0  0  0  0  0  0  0  0  0  0  0  0
   21.0987   -5.4913  -15.1638 C   0  0  1  0  0  0  0  0  0  0  0  0
   19.8168   -4.7363  -15.2136 C   0  0  0  0  0  0  0  0  0  0  0  0
   19.9105   -3.2566  -15.2055 C   0  0  0  0  0  0  0  0  0  0  0  0
   18.6016   -2.5902  -15.3021 C   0  0  0  0  0  0  0  0  0  0  0  0
   17.5385   -3.2146  -15.3711 O   0  0  0  0  0  0  0  0  0  0  0  0
   21.8996   -5.1836  -13.9673 C   0  0  0  0  0  0  0  0  0  0  0  0
   21.7018   -5.7982  -12.9011 O   0  0  0  0  0  0  0  0  0  0  0  0
   18.5230   -1.1922  -15.3191 O   0  0  0  0  0  0  0  0  0  0  0  0
   22.8708   -4.2140  -14.0250 O   0  0  0  0  0  0  0  0  0  0  0  0
  2  1  1  6
  2  3  1  0
  2  7  1  0
  4  3  1  0
  4  5  1  0
  5  6  2  0
  7  8  2  0
  9  5  1  0
 11 10  1  1
 11 12  1  0
 13 11  1  0
 14 16  1  0
 14 13  1  6
 15  7  1  0
 15 14  1  0
 16 17  2  0
 18 16  1  0
 19 18  1  0
 19 24  1  0
 20 21  1  0
 19 20  1  1
 22 26  1  0
 22 21  1  0
 23 22  2  0
 24 25  2  0
 24 27  1  0
M  END
$$$$
