ELE.pdb
     RDKit          3D

 27 26  0  0  1  0  0  0  0  0999 V2000
   20.5666  -13.1415  -16.6594 N   0  0  0  0  0  0  0  0  0  0  0  0
   21.3340  -12.3106  -17.5723 C   0  0  1  0  0  0  0  0  0  0  0  0
   20.4368  -11.8876  -18.6856 C   0  0  0  0  0  0  0  0  0  0  0  0
   19.2017  -11.1682  -18.2486 C   0  0  0  0  0  0  0  0  0  0  0  0
   19.1521   -9.8641  -18.9843 C   0  0  0  0  0  0  0  0  0  0  0  0
   19.4020   -8.7710  -18.4170 O   0  0  0  0  0  0  0  0  0  0  0  0
   21.8678  -11.1801  -16.7712 C   0  0  0  0  0  0  0  0  0  0  0  0
   21.2212  -10.7134  -15.7828 O   0  0  0  0  0  0  0  0  0  0  0  0
   18.8253   -9.8234  -20.3284 O   0  0  0  0  0  0  0  0  0  0  0  0
   25.6992  -11.0027  -14.6054 C   0  0  0  0  0  0  0  0  0  0  0  0
   25.8474  -10.6161  -16.0808 C   0  0  2  0  0  0  0  0  0  0  0  0
   27.3481  -10.3870  -16.2992 C   0  0  0  0  0  0  0  0  0  0  0  0
   25.1209   -9.3349  -16.3658 C   0  0  0  0  0  0  0  0  0  0  0  0
   23.6633   -9.4887  -16.2231 C   0  0  2  0  0  0  0  0  0  0  0  0
   23.1085  -10.5515  -17.0418 N   0  0  0  0  0  0  0  0  0  0  0  0
   22.9388   -8.2474  -16.5084 C   0  0  0  0  0  0  0  0  0  0  0  0
   22.3902   -7.9459  -17.5899 O   0  0  0  0  0  0  0  0  0  0  0  0
   22.8285   -7.2657  -15.4773 N   0  0  0  0  0  0  0  0  0  0  0  0
   22.0620   -6.0224  -15.6602 C   0  0  1  0  0  0  0  0  0  0  0  0
   20.6389   -6.3989  -15.8805 C   0  0  0  0  0  0  0  0  0  0  0  0
   19.6441   -5.2997  -15.8566 C   0  0  0  0  0  0  0  0  0  0  0  0
   18.2649   -5.7579  -16.0902 C   0  0  0  0  0  0  0  0  0  0  0  0
   17.6308   -5.4723  -17.1105 O   0  0  0  0  0  0  0  0  0  0  0  0
   22.2592   -5.2080  -14.4495 C   0  0  0  0  0  0  0  0  0  0  0  0
   22.6582   -5.7355  -13.3930 O   0  0  0  0  0  0  0  0  0  0  0  0
   17.6158   -6.5518  -15.1367 O   0  0  0  0  0  0  0  0  0  0  0  0
   22.0025   -3.8591  -14.4832 O   0  0  0  0  0  0  0  0  0  0  0  0
  2  1  1  1
  2  3  1  0
  2  7  1  0
  4  3  1  0
  4  5  1  0
  5  6  2  0
  7  8  2  0
  9  5  1  0
 11 10  1  1
 11 12  1  0
 13 11  1  0
 14 16  1  0
 14 13  1  6
 15  7  1  0
 15 14  1  0
 16 17  2  0
 18 16  1  0
 19 18  1  0
 19 24  1  0
 20 21  1  0
 19 20  1  1
 22 26  1  0
 22 21  1  0
 23 22  2  0
 24 25  2  0
 24 27  1  0
M  END
$$$$
