ELE.pdb
     RDKit          3D

 27 26  0  0  1  0  0  0  0  0999 V2000
   27.4586  -21.1743  -15.8872 N   0  0  0  0  0  0  0  0  0  0  0  0
   27.7469  -20.3819  -14.7034 C   0  0  1  0  0  0  0  0  0  0  0  0
   27.5702  -18.9425  -15.0500 C   0  0  0  0  0  0  0  0  0  0  0  0
   26.4551  -18.6664  -16.0062 C   0  0  0  0  0  0  0  0  0  0  0  0
   27.0671  -18.2514  -17.3091 C   0  0  0  0  0  0  0  0  0  0  0  0
   28.3007  -18.0436  -17.4277 O   0  0  0  0  0  0  0  0  0  0  0  0
   26.8280  -20.8585  -13.6388 C   0  0  0  0  0  0  0  0  0  0  0  0
   25.8757  -21.6562  -13.9028 O   0  0  0  0  0  0  0  0  0  0  0  0
   26.2819  -18.0823  -18.4361 O   0  0  0  0  0  0  0  0  0  0  0  0
   25.6075  -20.0035   -7.5589 C   0  0  0  0  0  0  0  0  0  0  0  0
   25.2311  -20.5830   -8.9267 C   0  0  2  0  0  0  0  0  0  0  0  0
   25.0404  -22.0878   -8.6996 C   0  0  0  0  0  0  0  0  0  0  0  0
   26.3476  -20.3845   -9.9088 C   0  0  0  0  0  0  0  0  0  0  0  0
   25.9726  -20.8301  -11.2614 C   0  0  2  0  0  0  0  0  0  0  0  0
   26.9407  -20.4691  -12.2811 N   0  0  0  0  0  0  0  0  0  0  0  0
   24.6542  -20.3364  -11.6679 C   0  0  0  0  0  0  0  0  0  0  0  0
   24.3365  -19.1406  -11.8429 O   0  0  0  0  0  0  0  0  0  0  0  0
   23.6082  -21.2818  -11.8945 N   0  0  0  0  0  0  0  0  0  0  0  0
   22.2663  -20.8716  -12.3392 C   0  0  1  0  0  0  0  0  0  0  0  0
   21.8546  -21.7906  -13.4354 C   0  0  0  0  0  0  0  0  0  0  0  0
   20.4477  -21.6976  -13.8941 C   0  0  0  0  0  0  0  0  0  0  0  0
   20.3095  -21.0898  -15.2276 C   0  0  0  0  0  0  0  0  0  0  0  0
   20.8412  -21.5649  -16.2357 O   0  0  0  0  0  0  0  0  0  0  0  0
   21.3789  -20.9438  -11.1665 C   0  0  0  0  0  0  0  0  0  0  0  0
   21.7163  -21.5965  -10.1597 O   0  0  0  0  0  0  0  0  0  0  0  0
   19.5511  -19.9247  -15.3951 O   0  0  0  0  0  0  0  0  0  0  0  0
   20.1720  -20.2881  -11.1806 O   0  0  0  0  0  0  0  0  0  0  0  0
  2  1  1  6
  2  3  1  0
  2  7  1  0
  4  3  1  0
  4  5  1  0
  5  6  2  0
  7  8  2  0
  9  5  1  0
 11 10  1  1
 11 12  1  0
 13 11  1  0
 14 16  1  0
 14 13  1  1
 15  7  1  0
 15 14  1  0
 16 17  2  0
 18 16  1  0
 19 18  1  0
 19 24  1  0
 20 21  1  0
 19 20  1  6
 22 26  1  0
 22 21  1  0
 23 22  2  0
 24 25  2  0
 24 27  1  0
M  END
$$$$
