ELE.pdb
     RDKit          3D

 27 26  0  0  1  0  0  0  0  0999 V2000
   19.7024  -12.6925  -17.0266 N   0  0  0  0  0  0  0  0  0  0  0  0
   18.4683  -12.1000  -17.5149 C   0  0  1  0  0  0  0  0  0  0  0  0
   17.3455  -12.5934  -16.6669 C   0  0  0  0  0  0  0  0  0  0  0  0
   17.7690  -13.2093  -15.3726 C   0  0  0  0  0  0  0  0  0  0  0  0
   16.5344  -13.6920  -14.6746 C   0  0  0  0  0  0  0  0  0  0  0  0
   15.3930  -13.5776  -15.1876 O   0  0  0  0  0  0  0  0  0  0  0  0
   18.6545  -10.6277  -17.4643 C   0  0  0  0  0  0  0  0  0  0  0  0
   19.7732  -10.1186  -17.1447 O   0  0  0  0  0  0  0  0  0  0  0  0
   16.6148  -14.2863  -13.4273 O   0  0  0  0  0  0  0  0  0  0  0  0
   18.7303   -7.1187  -20.4740 C   0  0  0  0  0  0  0  0  0  0  0  0
   17.3936   -7.8184  -20.2056 C   0  0  2  0  0  0  0  0  0  0  0  0
   16.3830   -7.1547  -21.1493 C   0  0  0  0  0  0  0  0  0  0  0  0
   16.9517   -7.5866  -18.7909 C   0  0  0  0  0  0  0  0  0  0  0  0
   17.8307   -8.2663  -17.8245 C   0  0  2  0  0  0  0  0  0  0  0  0
   17.6239   -9.7019  -17.7612 N   0  0  0  0  0  0  0  0  0  0  0  0
   17.7104   -7.7132  -16.4730 C   0  0  0  0  0  0  0  0  0  0  0  0
   16.9396   -8.1180  -15.5766 O   0  0  0  0  0  0  0  0  0  0  0  0
   18.5359   -6.6061  -16.1094 N   0  0  0  0  0  0  0  0  0  0  0  0
   18.3722   -5.8953  -14.8309 C   0  0  1  0  0  0  0  0  0  0  0  0
   19.6579   -5.2084  -14.5297 C   0  0  0  0  0  0  0  0  0  0  0  0
   20.8063   -6.0698  -14.1588 C   0  0  0  0  0  0  0  0  0  0  0  0
   22.0524   -5.3167  -13.9423 C   0  0  0  0  0  0  0  0  0  0  0  0
   22.6424   -4.7272  -14.8528 O   0  0  0  0  0  0  0  0  0  0  0  0
   17.2468   -4.9600  -14.9946 C   0  0  0  0  0  0  0  0  0  0  0  0
   16.7415   -4.7721  -16.1184 O   0  0  0  0  0  0  0  0  0  0  0  0
   22.6190   -5.2458  -12.6637 O   0  0  0  0  0  0  0  0  0  0  0  0
   16.7497   -4.2904  -13.9032 O   0  0  0  0  0  0  0  0  0  0  0  0
  2  1  1  1
  2  3  1  0
  2  7  1  0
  4  3  1  0
  4  5  1  0
  5  6  2  0
  7  8  2  0
  9  5  1  0
 11 10  1  1
 11 12  1  0
 13 11  1  0
 14 16  1  0
 14 13  1  6
 15  7  1  0
 15 14  1  0
 16 17  2  0
 18 16  1  0
 19 18  1  0
 19 24  1  0
 20 21  1  0
 19 20  1  6
 22 26  1  0
 22 21  1  0
 23 22  2  0
 24 25  2  0
 24 27  1  0
M  END
$$$$
