TPP.pdb
     RDKit          3D

 22 23  0  0  1  0  0  0  0  0999 V2000
   24.2681  -20.2614  -18.7203 C   0  0  0  0  0  0  0  0  0  0  0  0
   25.3533  -21.1475  -19.2740 C   0  0  1  0  0  0  0  0  0  0  0  0
   25.2802  -20.9494  -20.6775 O   0  0  0  0  0  0  0  0  0  0  0  0
   26.7534  -20.7237  -18.8752 C   0  0  2  0  0  0  0  0  0  0  0  0
   27.5988  -21.7211  -19.5851 N   0  0  0  0  0  0  0  0  0  0  0  0
   27.0309  -20.8452  -17.4443 C   0  0  0  0  0  0  0  0  0  0  0  0
   27.3570  -22.0092  -17.0162 O   0  0  0  0  0  0  0  0  0  0  0  0
   26.9824  -19.8194  -16.4714 N   0  0  0  0  0  0  0  0  0  0  0  0
   26.6768  -18.4090  -16.5703 C   0  0  0  0  0  0  0  0  0  0  0  0
   27.8698  -17.8094  -15.8058 C   0  0  0  0  0  0  0  0  0  0  0  0
   27.8900  -18.7150  -14.5877 C   0  0  0  0  0  0  0  0  0  0  0  0
   27.2452  -19.9836  -15.0311 C   0  0  1  0  0  0  0  0  0  0  0  0
   25.9325  -20.1093  -14.3470 C   0  0  0  0  0  0  0  0  0  0  0  0
   24.8505  -19.8947  -14.9764 O   0  0  0  0  0  0  0  0  0  0  0  0
   25.8320  -20.4708  -12.9764 N   0  0  0  0  0  0  0  0  0  0  0  0
   26.8897  -20.4415  -11.9811 C   0  0  0  0  0  0  0  0  0  0  0  0
   26.3781  -21.2567  -10.8298 C   0  0  0  0  0  0  0  0  0  0  0  0
   25.1429  -21.9858  -11.3573 C   0  0  0  0  0  0  0  0  0  0  0  0
   24.6291  -20.9377  -12.3425 C   0  0  1  0  0  0  0  0  0  0  0  0
   23.9715  -19.8447  -11.5547 C   0  0  0  0  0  0  0  0  0  0  0  0
   24.5756  -18.7841  -11.2676 O   0  0  0  0  0  0  0  0  0  0  0  0
   22.6644  -19.9849  -11.1211 O   0  0  0  0  0  0  0  0  0  0  0  0
  2  1  1  1
  2  3  1  0
  4  2  1  0
  4  5  1  6
  6  4  1  0
  6  7  2  0
  8  6  1  0
  9  8  1  0
 10 11  1  0
 10  9  1  0
 11 12  1  0
 12  8  1  0
 12 13  1  1
 13 15  1  0
 14 13  2  0
 15 19  1  0
 15 16  1  0
 16 17  1  0
 18 17  1  0
 19 20  1  1
 19 18  1  0
 20 22  1  0
 21 20  2  0
M  END
$$$$
