TPP.pdb
     RDKit          3D

 22 23  0  0  1  0  0  0  0  0999 V2000
   25.1730  -15.7058  -14.9686 C   0  0  0  0  0  0  0  0  0  0  0  0
   24.3021  -16.5107  -15.8976 C   0  0  1  0  0  0  0  0  0  0  0  0
   24.1376  -15.6730  -17.0313 O   0  0  0  0  0  0  0  0  0  0  0  0
   24.9625  -17.7732  -16.4164 C   0  0  2  0  0  0  0  0  0  0  0  0
   23.9596  -18.2743  -17.3945 N   0  0  0  0  0  0  0  0  0  0  0  0
   25.1503  -18.8105  -15.4026 C   0  0  0  0  0  0  0  0  0  0  0  0
   24.1447  -19.5682  -15.1586 O   0  0  0  0  0  0  0  0  0  0  0  0
   26.3218  -19.0778  -14.6561 N   0  0  0  0  0  0  0  0  0  0  0  0
   27.6123  -18.4254  -14.6188 C   0  0  0  0  0  0  0  0  0  0  0  0
   28.5447  -19.6394  -14.7738 C   0  0  0  0  0  0  0  0  0  0  0  0
   27.9103  -20.5935  -13.7780 C   0  0  0  0  0  0  0  0  0  0  0  0
   26.4882  -20.1600  -13.6704 C   0  0  1  0  0  0  0  0  0  0  0  0
   26.2746  -19.5751  -12.3216 C   0  0  0  0  0  0  0  0  0  0  0  0
   26.3346  -18.3191  -12.1429 O   0  0  0  0  0  0  0  0  0  0  0  0
   25.9971  -20.3852  -11.1876 N   0  0  0  0  0  0  0  0  0  0  0  0
   26.0143  -21.8362  -11.1201 C   0  0  0  0  0  0  0  0  0  0  0  0
   25.2987  -22.1858   -9.8483 C   0  0  0  0  0  0  0  0  0  0  0  0
   24.6215  -20.8955   -9.3879 C   0  0  0  0  0  0  0  0  0  0  0  0
   25.6438  -19.8775   -9.8899 C   0  0  1  0  0  0  0  0  0  0  0  0
   26.8186  -19.9034   -8.9587 C   0  0  0  0  0  0  0  0  0  0  0  0
   27.8660  -20.5342   -9.2367 O   0  0  0  0  0  0  0  0  0  0  0  0
   26.7715  -19.2215   -7.7550 O   0  0  0  0  0  0  0  0  0  0  0  0
  2  1  1  1
  2  3  1  0
  4  2  1  0
  4  5  1  6
  6  4  1  0
  6  7  2  0
  8  6  1  0
  9  8  1  0
 10 11  1  0
 10  9  1  0
 11 12  1  0
 12  8  1  0
 12 13  1  1
 13 15  1  0
 14 13  2  0
 15 19  1  0
 15 16  1  0
 16 17  1  0
 18 17  1  0
 19 20  1  1
 19 18  1  0
 20 22  1  0
 21 20  2  0
M  END
$$$$
