TPP.pdb
     RDKit          3D

 22 23  0  0  1  0  0  0  0  0999 V2000
   22.3141   -9.8551  -20.3030 C   0  0  0  0  0  0  0  0  0  0  0  0
   21.4685  -11.0772  -20.0564 C   0  0  1  0  0  0  0  0  0  0  0  0
   21.8588  -11.9810  -21.0787 O   0  0  0  0  0  0  0  0  0  0  0  0
   21.7769  -11.7822  -18.7499 C   0  0  2  0  0  0  0  0  0  0  0  0
   20.8684  -12.9592  -18.8048 N   0  0  0  0  0  0  0  0  0  0  0  0
   21.4311  -11.0101  -17.5569 C   0  0  0  0  0  0  0  0  0  0  0  0
   20.1821  -10.8366  -17.3232 O   0  0  0  0  0  0  0  0  0  0  0  0
   22.3215  -10.4299  -16.6232 N   0  0  0  0  0  0  0  0  0  0  0  0
   23.7622  -10.4802  -16.5034 C   0  0  0  0  0  0  0  0  0  0  0  0
   23.9071  -10.8515  -15.0174 C   0  0  0  0  0  0  0  0  0  0  0  0
   22.9153   -9.8818  -14.4009 C   0  0  0  0  0  0  0  0  0  0  0  0
   21.9415   -9.5732  -15.4864 C   0  0  1  0  0  0  0  0  0  0  0  0
   22.1342   -8.1609  -15.9049 C   0  0  0  0  0  0  0  0  0  0  0  0
   22.8877   -7.8725  -16.8857 O   0  0  0  0  0  0  0  0  0  0  0  0
   21.4915   -7.0852  -15.2347 N   0  0  0  0  0  0  0  0  0  0  0  0
   20.6381   -7.1663  -14.0619 C   0  0  0  0  0  0  0  0  0  0  0  0
   19.9302   -5.8451  -13.9904 C   0  0  0  0  0  0  0  0  0  0  0  0
   20.1909   -5.1642  -15.3335 C   0  0  0  0  0  0  0  0  0  0  0  0
   21.5887   -5.7056  -15.6272 C   0  0  1  0  0  0  0  0  0  0  0  0
   22.5637   -4.9631  -14.7636 C   0  0  0  0  0  0  0  0  0  0  0  0
   22.8927   -5.3839  -13.6292 O   0  0  0  0  0  0  0  0  0  0  0  0
   23.1299   -3.7802  -15.2066 O   0  0  0  0  0  0  0  0  0  0  0  0
  2  1  1  6
  2  3  1  0
  4  2  1  0
  4  5  1  6
  6  4  1  0
  6  7  2  0
  8  6  1  0
  9  8  1  0
 10 11  1  0
 10  9  1  0
 11 12  1  0
 12  8  1  0
 12 13  1  6
 13 15  1  0
 14 13  2  0
 15 19  1  0
 15 16  1  0
 16 17  1  0
 18 17  1  0
 19 20  1  1
 19 18  1  0
 20 22  1  0
 21 20  2  0
M  END
$$$$
