TPP.pdb
     RDKit          3D

 22 23  0  0  1  0  0  0  0  0999 V2000
   22.4390  -18.2252  -16.2054 C   0  0  0  0  0  0  0  0  0  0  0  0
   23.0387  -18.8778  -14.9872 C   0  0  1  0  0  0  0  0  0  0  0  0
   21.9357  -19.5054  -14.3518 O   0  0  0  0  0  0  0  0  0  0  0  0
   24.0136  -19.9941  -15.3074 C   0  0  2  0  0  0  0  0  0  0  0  0
   23.1343  -21.0041  -15.9558 N   0  0  0  0  0  0  0  0  0  0  0  0
   24.6148  -20.6198  -14.1301 C   0  0  0  0  0  0  0  0  0  0  0  0
   23.9436  -21.5570  -13.5680 O   0  0  0  0  0  0  0  0  0  0  0  0
   25.8608  -20.3098  -13.5363 N   0  0  0  0  0  0  0  0  0  0  0  0
   26.8774  -19.3389  -13.8773 C   0  0  0  0  0  0  0  0  0  0  0  0
   28.1327  -20.2282  -13.8560 C   0  0  0  0  0  0  0  0  0  0  0  0
   27.9060  -20.9807  -12.5573 C   0  0  0  0  0  0  0  0  0  0  0  0
   26.4314  -20.9556  -12.3414 C   0  0  1  0  0  0  0  0  0  0  0  0
   26.1404  -20.0808  -11.1765 C   0  0  0  0  0  0  0  0  0  0  0  0
   25.8382  -18.8586  -11.3433 O   0  0  0  0  0  0  0  0  0  0  0  0
   26.1866  -20.5676   -9.8423 N   0  0  0  0  0  0  0  0  0  0  0  0
   26.5443  -21.9072   -9.4086 C   0  0  0  0  0  0  0  0  0  0  0  0
   26.0768  -22.0051   -7.9861 C   0  0  0  0  0  0  0  0  0  0  0  0
   25.1778  -20.7896   -7.7627 C   0  0  0  0  0  0  0  0  0  0  0  0
   25.8753  -19.7846   -8.6775 C   0  0  1  0  0  0  0  0  0  0  0  0
   27.1222  -19.3184   -7.9879 C   0  0  0  0  0  0  0  0  0  0  0  0
   27.0817  -18.5201   -7.0218 O   0  0  0  0  0  0  0  0  0  0  0  0
   28.3627  -19.7659   -8.4087 O   0  0  0  0  0  0  0  0  0  0  0  0
  2  1  1  6
  2  3  1  0
  4  2  1  0
  4  5  1  1
  6  4  1  0
  6  7  2  0
  8  6  1  0
  9  8  1  0
 10 11  1  0
 10  9  1  0
 11 12  1  0
 12  8  1  0
 12 13  1  1
 13 15  1  0
 14 13  2  0
 15 19  1  0
 15 16  1  0
 16 17  1  0
 18 17  1  0
 19 20  1  1
 19 18  1  0
 20 22  1  0
 21 20  2  0
M  END
$$$$
