TPP.pdb
     RDKit          3D

 22 23  0  0  1  0  0  0  0  0999 V2000
   16.1609  -10.0915  -15.2221 C   0  0  0  0  0  0  0  0  0  0  0  0
   17.0890  -11.2758  -15.1480 C   0  0  1  0  0  0  0  0  0  0  0  0
   16.2311  -12.3978  -15.2875 O   0  0  0  0  0  0  0  0  0  0  0  0
   18.0649  -11.3629  -16.3051 C   0  0  2  0  0  0  0  0  0  0  0  0
   18.7131  -12.6817  -16.0722 N   0  0  0  0  0  0  0  0  0  0  0  0
   19.1132  -10.3432  -16.2822 C   0  0  0  0  0  0  0  0  0  0  0  0
   20.1557  -10.6024  -15.5817 O   0  0  0  0  0  0  0  0  0  0  0  0
   19.1107   -9.0958  -16.9494 N   0  0  0  0  0  0  0  0  0  0  0  0
   18.1295   -8.4579  -17.7995 C   0  0  0  0  0  0  0  0  0  0  0  0
   19.0134   -8.0505  -18.9911 C   0  0  0  0  0  0  0  0  0  0  0  0
   20.1964   -7.4493  -18.2541 C   0  0  0  0  0  0  0  0  0  0  0  0
   20.1908   -8.0946  -16.9105 C   0  0  1  0  0  0  0  0  0  0  0  0
   19.8191   -7.0727  -15.8983 C   0  0  0  0  0  0  0  0  0  0  0  0
   18.6146   -6.9477  -15.5157 O   0  0  0  0  0  0  0  0  0  0  0  0
   20.7829   -6.2023  -15.3216 N   0  0  0  0  0  0  0  0  0  0  0  0
   22.1684   -6.0358  -15.7255 C   0  0  0  0  0  0  0  0  0  0  0  0
   22.8314   -5.3114  -14.5910 C   0  0  0  0  0  0  0  0  0  0  0  0
   21.8392   -5.3671  -13.4300 C   0  0  0  0  0  0  0  0  0  0  0  0
   20.5280   -5.3241  -14.2124 C   0  0  1  0  0  0  0  0  0  0  0  0
   20.3109   -3.9146  -14.6748 C   0  0  0  0  0  0  0  0  0  0  0  0
   20.0375   -2.9920  -13.8709 O   0  0  0  0  0  0  0  0  0  0  0  0
   20.4091   -3.5969  -16.0186 O   0  0  0  0  0  0  0  0  0  0  0  0
  2  1  1  6
  2  3  1  0
  4  2  1  0
  4  5  1  1
  6  4  1  0
  6  7  2  0
  8  6  1  0
  9  8  1  0
 10 11  1  0
 10  9  1  0
 11 12  1  0
 12  8  1  0
 12 13  1  1
 13 15  1  0
 14 13  2  0
 15 19  1  0
 15 16  1  0
 16 17  1  0
 18 17  1  0
 19 20  1  6
 19 18  1  0
 20 22  1  0
 21 20  2  0
M  END
$$$$
