TPP.pdb
     RDKit          3D

 22 23  0  0  1  0  0  0  0  0999 V2000
   25.2867  -18.9017  -11.0453 C   0  0  0  0  0  0  0  0  0  0  0  0
   24.8817  -20.2711  -11.5250 C   0  0  1  0  0  0  0  0  0  0  0  0
   24.3451  -20.0407  -12.8185 O   0  0  0  0  0  0  0  0  0  0  0  0
   26.0479  -21.2181  -11.7305 C   0  0  2  0  0  0  0  0  0  0  0  0
   25.3716  -22.4491  -12.2212 N   0  0  0  0  0  0  0  0  0  0  0  0
   26.7620  -21.5639  -10.5019 C   0  0  0  0  0  0  0  0  0  0  0  0
   26.2110  -22.4358   -9.7397 O   0  0  0  0  0  0  0  0  0  0  0  0
   27.9999  -21.0455  -10.0547 N   0  0  0  0  0  0  0  0  0  0  0  0
   28.9368  -20.1255  -10.6616 C   0  0  0  0  0  0  0  0  0  0  0  0
   30.2508  -20.9061  -10.4845 C   0  0  0  0  0  0  0  0  0  0  0  0
   30.1136  -21.3364   -9.0353 C   0  0  0  0  0  0  0  0  0  0  0  0
   28.6475  -21.3492   -8.7668 C   0  0  1  0  0  0  0  0  0  0  0  0
   28.3298  -20.2391   -7.8320 C   0  0  0  0  0  0  0  0  0  0  0  0
   27.7667  -19.1805   -8.2505 O   0  0  0  0  0  0  0  0  0  0  0  0
   28.6380  -20.3130   -6.4468 N   0  0  0  0  0  0  0  0  0  0  0  0
   29.4219  -21.3352   -5.7752 C   0  0  0  0  0  0  0  0  0  0  0  0
   29.1323  -21.1648   -4.3128 C   0  0  0  0  0  0  0  0  0  0  0  0
   27.9299  -20.2246   -4.2372 C   0  0  0  0  0  0  0  0  0  0  0  0
   28.2066  -19.3570   -5.4635 C   0  0  1  0  0  0  0  0  0  0  0  0
   29.3084  -18.4016   -5.1157 C   0  0  0  0  0  0  0  0  0  0  0  0
   29.1119  -17.4120   -4.3711 O   0  0  0  0  0  0  0  0  0  0  0  0
   30.5846  -18.5942   -5.6161 O   0  0  0  0  0  0  0  0  0  0  0  0
  2  1  1  6
  2  3  1  0
  4  2  1  0
  4  5  1  1
  6  4  1  0
  6  7  2  0
  8  6  1  0
  9  8  1  0
 10 11  1  0
 10  9  1  0
 11 12  1  0
 12  8  1  0
 12 13  1  1
 13 15  1  0
 14 13  2  0
 15 19  1  0
 15 16  1  0
 16 17  1  0
 18 17  1  0
 19 20  1  1
 19 18  1  0
 20 22  1  0
 21 20  2  0
M  END
$$$$
