TPP.pdb
     RDKit          3D

 22 23  0  0  1  0  0  0  0  0999 V2000
   25.8062  -18.9679  -11.7876 C   0  0  0  0  0  0  0  0  0  0  0  0
   25.1495  -20.2993  -12.0431 C   0  0  1  0  0  0  0  0  0  0  0  0
   24.6708  -20.1999  -13.3755 O   0  0  0  0  0  0  0  0  0  0  0  0
   26.1148  -21.4686  -12.0434 C   0  0  2  0  0  0  0  0  0  0  0  0
   25.2268  -22.6103  -12.3922 N   0  0  0  0  0  0  0  0  0  0  0  0
   26.7112  -21.7530  -10.7385 C   0  0  0  0  0  0  0  0  0  0  0  0
   26.0520  -22.5294   -9.9592 O   0  0  0  0  0  0  0  0  0  0  0  0
   27.9406  -21.2684  -10.2338 N   0  0  0  0  0  0  0  0  0  0  0  0
   28.9462  -20.4024  -10.8094 C   0  0  0  0  0  0  0  0  0  0  0  0
   30.2162  -21.2262  -10.5346 C   0  0  0  0  0  0  0  0  0  0  0  0
   29.9792  -21.6085   -9.0848 C   0  0  0  0  0  0  0  0  0  0  0  0
   28.5007  -21.5584   -8.9024 C   0  0  1  0  0  0  0  0  0  0  0  0
   28.1735  -20.4103   -8.0182 C   0  0  0  0  0  0  0  0  0  0  0  0
   27.5982  -19.3778   -8.4828 O   0  0  0  0  0  0  0  0  0  0  0  0
   28.4857  -20.4179   -6.6319 N   0  0  0  0  0  0  0  0  0  0  0  0
   29.2941  -21.3922   -5.9195 C   0  0  0  0  0  0  0  0  0  0  0  0
   29.0031  -21.1662   -4.4649 C   0  0  0  0  0  0  0  0  0  0  0  0
   27.7795  -20.2515   -4.4262 C   0  0  0  0  0  0  0  0  0  0  0  0
   28.0341  -19.4310   -5.6892 C   0  0  1  0  0  0  0  0  0  0  0  0
   29.1141  -18.4365   -5.3854 C   0  0  0  0  0  0  0  0  0  0  0  0
   30.2866  -18.5887   -5.8029 O   0  0  0  0  0  0  0  0  0  0  0  0
   28.8360  -17.3126   -4.6266 O   0  0  0  0  0  0  0  0  0  0  0  0
  2  1  1  6
  2  3  1  0
  4  2  1  0
  4  5  1  1
  6  4  1  0
  6  7  2  0
  8  6  1  0
  9  8  1  0
 10 11  1  0
 10  9  1  0
 11 12  1  0
 12  8  1  0
 12 13  1  1
 13 15  1  0
 14 13  2  0
 15 19  1  0
 15 16  1  0
 16 17  1  0
 18 17  1  0
 19 20  1  1
 19 18  1  0
 20 22  1  0
 21 20  2  0
M  END
$$$$
