TPP.pdb
     RDKit          3D

 22 23  0  0  1  0  0  0  0  0999 V2000
   19.8954  -11.0837  -19.1217 C   0  0  0  0  0  0  0  0  0  0  0  0
   19.4073  -12.2213  -18.2631 C   0  0  1  0  0  0  0  0  0  0  0  0
   19.1199  -13.2568  -19.1902 O   0  0  0  0  0  0  0  0  0  0  0  0
   20.4654  -12.7868  -17.3359 C   0  0  2  0  0  0  0  0  0  0  0  0
   19.7440  -13.9133  -16.6845 N   0  0  0  0  0  0  0  0  0  0  0  0
   20.8930  -11.8659  -16.2832 C   0  0  0  0  0  0  0  0  0  0  0  0
   20.0549  -11.6383  -15.3396 O   0  0  0  0  0  0  0  0  0  0  0  0
   22.1338  -11.1938  -16.1839 N   0  0  0  0  0  0  0  0  0  0  0  0
   23.3417  -11.2753  -16.9757 C   0  0  0  0  0  0  0  0  0  0  0  0
   24.3935  -11.4451  -15.8657 C   0  0  0  0  0  0  0  0  0  0  0  0
   23.9382  -10.3679  -14.8980 C   0  0  0  0  0  0  0  0  0  0  0  0
   22.4863  -10.1780  -15.1768 C   0  0  1  0  0  0  0  0  0  0  0  0
   22.2969   -8.8431  -15.8006 C   0  0  0  0  0  0  0  0  0  0  0  0
   22.1688   -8.7280  -17.0589 O   0  0  0  0  0  0  0  0  0  0  0  0
   22.2510   -7.6525  -15.0262 N   0  0  0  0  0  0  0  0  0  0  0  0
   22.4682   -7.5272  -13.5953 C   0  0  0  0  0  0  0  0  0  0  0  0
   21.9438   -6.1699  -13.2286 C   0  0  0  0  0  0  0  0  0  0  0  0
   21.1534   -5.6904  -14.4455 C   0  0  0  0  0  0  0  0  0  0  0  0
   21.9723   -6.3455  -15.5561 C   0  0  1  0  0  0  0  0  0  0  0  0
   23.2318   -5.5516  -15.7326 C   0  0  0  0  0  0  0  0  0  0  0  0
   23.2432   -4.4639  -16.3563 O   0  0  0  0  0  0  0  0  0  0  0  0
   24.4262   -6.0088  -15.2029 O   0  0  0  0  0  0  0  0  0  0  0  0
  2  1  1  6
  2  3  1  0
  4  2  1  0
  4  5  1  1
  6  4  1  0
  6  7  2  0
  8  6  1  0
  9  8  1  0
 10 11  1  0
 10  9  1  0
 11 12  1  0
 12  8  1  0
 12 13  1  6
 13 15  1  0
 14 13  2  0
 15 19  1  0
 15 16  1  0
 16 17  1  0
 18 17  1  0
 19 20  1  1
 19 18  1  0
 20 22  1  0
 21 20  2  0
M  END
$$$$
