TPP.pdb
     RDKit          3D

 22 23  0  0  1  0  0  0  0  0999 V2000
   24.8555  -17.0111  -14.8722 C   0  0  0  0  0  0  0  0  0  0  0  0
   24.0171  -18.0538  -15.5644 C   0  0  1  0  0  0  0  0  0  0  0  0
   23.7904  -17.5142  -16.8574 O   0  0  0  0  0  0  0  0  0  0  0  0
   24.7387  -19.3678  -15.7923 C   0  0  2  0  0  0  0  0  0  0  0  0
   23.7413  -20.1428  -16.5786 N   0  0  0  0  0  0  0  0  0  0  0  0
   25.0178  -20.1177  -14.5680 C   0  0  0  0  0  0  0  0  0  0  0  0
   24.0555  -20.8149  -14.0858 O   0  0  0  0  0  0  0  0  0  0  0  0
   26.2358  -20.1645  -13.8500 N   0  0  0  0  0  0  0  0  0  0  0  0
   27.5066  -19.5065  -14.0613 C   0  0  0  0  0  0  0  0  0  0  0  0
   28.4646  -20.7055  -13.9524 C   0  0  0  0  0  0  0  0  0  0  0  0
   27.9141  -21.3761  -12.7068 C   0  0  0  0  0  0  0  0  0  0  0  0
   26.4879  -20.9498  -12.6293 C   0  0  1  0  0  0  0  0  0  0  0  0
   26.3312  -20.0368  -11.4680 C   0  0  0  0  0  0  0  0  0  0  0  0
   26.4195  -18.7786  -11.6163 O   0  0  0  0  0  0  0  0  0  0  0  0
   26.0786  -20.5255  -10.1578 N   0  0  0  0  0  0  0  0  0  0  0  0
   26.0189  -21.9141   -9.7353 C   0  0  0  0  0  0  0  0  0  0  0  0
   25.3637  -21.8936   -8.3855 C   0  0  0  0  0  0  0  0  0  0  0  0
   24.7890  -20.4864   -8.2273 C   0  0  0  0  0  0  0  0  0  0  0  0
   25.8339  -19.6942   -9.0107 C   0  0  1  0  0  0  0  0  0  0  0  0
   27.0600  -19.5738   -8.1563 C   0  0  0  0  0  0  0  0  0  0  0  0
   27.1126  -18.7799   -7.1872 O   0  0  0  0  0  0  0  0  0  0  0  0
   28.1763  -20.3478   -8.4227 O   0  0  0  0  0  0  0  0  0  0  0  0
  2  1  1  1
  2  3  1  0
  4  2  1  0
  4  5  1  6
  6  4  1  0
  6  7  2  0
  8  6  1  0
  9  8  1  0
 10 11  1  0
 10  9  1  0
 11 12  1  0
 12  8  1  0
 12 13  1  1
 13 15  1  0
 14 13  2  0
 15 19  1  0
 15 16  1  0
 16 17  1  0
 18 17  1  0
 19 20  1  1
 19 18  1  0
 20 22  1  0
 21 20  2  0
M  END
$$$$
