TPP.pdb
     RDKit          3D

 22 23  0  0  1  0  0  0  0  0999 V2000
   24.7328  -18.9261  -11.2719 C   0  0  0  0  0  0  0  0  0  0  0  0
   24.2878  -20.3082  -11.6734 C   0  0  1  0  0  0  0  0  0  0  0  0
   23.7504  -20.1348  -12.9756 O   0  0  0  0  0  0  0  0  0  0  0  0
   25.4266  -21.2969  -11.8311 C   0  0  2  0  0  0  0  0  0  0  0  0
   24.7162  -22.5285  -12.2693 N   0  0  0  0  0  0  0  0  0  0  0  0
   26.1263  -21.6078  -10.5850 C   0  0  0  0  0  0  0  0  0  0  0  0
   25.5313  -22.4003   -9.7709 O   0  0  0  0  0  0  0  0  0  0  0  0
   27.3933  -21.1335  -10.1717 N   0  0  0  0  0  0  0  0  0  0  0  0
   28.3488  -20.2533  -10.8078 C   0  0  0  0  0  0  0  0  0  0  0  0
   29.6366  -21.0816  -10.6570 C   0  0  0  0  0  0  0  0  0  0  0  0
   29.5190  -21.4972   -9.2018 C   0  0  0  0  0  0  0  0  0  0  0  0
   28.0604  -21.4532   -8.8977 C   0  0  1  0  0  0  0  0  0  0  0  0
   27.8076  -20.3261   -7.9636 C   0  0  0  0  0  0  0  0  0  0  0  0
   27.2395  -19.2645   -8.3676 O   0  0  0  0  0  0  0  0  0  0  0  0
   28.1851  -20.3865   -6.5950 N   0  0  0  0  0  0  0  0  0  0  0  0
   28.9301  -21.4452   -5.9358 C   0  0  0  0  0  0  0  0  0  0  0  0
   28.7339  -21.2167   -4.4658 C   0  0  0  0  0  0  0  0  0  0  0  0
   27.6071  -20.1903   -4.3546 C   0  0  0  0  0  0  0  0  0  0  0  0
   27.8771  -19.3769   -5.6190 C   0  0  1  0  0  0  0  0  0  0  0  0
   29.0612  -18.4950   -5.3581 C   0  0  0  0  0  0  0  0  0  0  0  0
   30.1147  -18.5901   -6.0314 O   0  0  0  0  0  0  0  0  0  0  0  0
   29.0161  -17.5432   -4.3541 O   0  0  0  0  0  0  0  0  0  0  0  0
  2  1  1  6
  2  3  1  0
  4  2  1  0
  4  5  1  1
  6  4  1  0
  6  7  2  0
  8  6  1  0
  9  8  1  0
 10 11  1  0
 10  9  1  0
 11 12  1  0
 12  8  1  0
 12 13  1  1
 13 15  1  0
 14 13  2  0
 15 19  1  0
 15 16  1  0
 16 17  1  0
 18 17  1  0
 19 20  1  1
 19 18  1  0
 20 22  1  0
 21 20  2  0
M  END
$$$$
