TPP.pdb
     RDKit          3D

 22 23  0  0  1  0  0  0  0  0999 V2000
   25.7659  -21.7573  -18.7104 C   0  0  0  0  0  0  0  0  0  0  0  0
   27.2396  -21.9975  -18.9100 C   0  0  1  0  0  0  0  0  0  0  0  0
   27.4105  -21.9530  -20.3183 O   0  0  0  0  0  0  0  0  0  0  0  0
   28.1206  -20.8940  -18.3578 C   0  0  2  0  0  0  0  0  0  0  0  0
   29.4855  -21.3843  -18.6902 N   0  0  0  0  0  0  0  0  0  0  0  0
   28.0464  -20.7390  -16.9053 C   0  0  0  0  0  0  0  0  0  0  0  0
   28.7066  -21.5826  -16.2001 O   0  0  0  0  0  0  0  0  0  0  0  0
   27.3268  -19.7583  -16.1833 N   0  0  0  0  0  0  0  0  0  0  0  0
   26.4368  -18.7023  -16.6138 C   0  0  0  0  0  0  0  0  0  0  0  0
   27.0280  -17.5071  -15.8461 C   0  0  0  0  0  0  0  0  0  0  0  0
   27.2019  -18.1302  -14.4729 C   0  0  0  0  0  0  0  0  0  0  0  0
   27.3223  -19.5954  -14.7191 C   0  0  1  0  0  0  0  0  0  0  0  0
   26.1021  -20.2629  -14.1971 C   0  0  0  0  0  0  0  0  0  0  0  0
   25.2209  -20.7156  -14.9916 O   0  0  0  0  0  0  0  0  0  0  0  0
   25.8715  -20.4221  -12.8040 N   0  0  0  0  0  0  0  0  0  0  0  0
   26.6235  -19.8219  -11.7155 C   0  0  0  0  0  0  0  0  0  0  0  0
   26.2301  -20.5888  -10.4872 C   0  0  0  0  0  0  0  0  0  0  0  0
   25.4816  -21.8216  -10.9927 C   0  0  0  0  0  0  0  0  0  0  0  0
   24.8249  -21.2288  -12.2379 C   0  0  1  0  0  0  0  0  0  0  0  0
   23.6685  -20.3841  -11.7939 C   0  0  0  0  0  0  0  0  0  0  0  0
   23.7710  -19.1409  -11.6667 O   0  0  0  0  0  0  0  0  0  0  0  0
   22.4452  -20.9669  -11.5109 O   0  0  0  0  0  0  0  0  0  0  0  0
  2  1  1  6
  2  3  1  0
  4  2  1  0
  4  5  1  1
  6  4  1  0
  6  7  2  0
  8  6  1  0
  9  8  1  0
 10 11  1  0
 10  9  1  0
 11 12  1  0
 12  8  1  0
 12 13  1  1
 13 15  1  0
 14 13  2  0
 15 19  1  0
 15 16  1  0
 16 17  1  0
 18 17  1  0
 19 20  1  1
 19 18  1  0
 20 22  1  0
 21 20  2  0
M  END
$$$$
