TPP.pdb
     RDKit          3D

 22 23  0  0  1  0  0  0  0  0999 V2000
   22.2476  -22.5499  -15.0914 C   0  0  0  0  0  0  0  0  0  0  0  0
   21.3600  -21.7924  -14.1386 C   0  0  1  0  0  0  0  0  0  0  0  0
   20.2828  -22.6815  -13.8872 O   0  0  0  0  0  0  0  0  0  0  0  0
   21.9952  -21.5296  -12.7871 C   0  0  2  0  0  0  0  0  0  0  0  0
   20.8666  -20.9394  -12.0179 N   0  0  0  0  0  0  0  0  0  0  0  0
   23.0761  -20.5448  -12.8149 C   0  0  0  0  0  0  0  0  0  0  0  0
   22.7392  -19.3138  -12.6887 O   0  0  0  0  0  0  0  0  0  0  0  0
   24.4604  -20.7950  -12.9644 N   0  0  0  0  0  0  0  0  0  0  0  0
   25.2174  -22.0260  -13.0273 C   0  0  0  0  0  0  0  0  0  0  0  0
   26.3221  -21.7286  -11.9985 C   0  0  0  0  0  0  0  0  0  0  0  0
   26.7142  -20.3253  -12.4244 C   0  0  0  0  0  0  0  0  0  0  0  0
   25.5110  -19.7724  -13.1090 C   0  0  1  0  0  0  0  0  0  0  0  0
   25.8122  -19.6402  -14.5577 C   0  0  0  0  0  0  0  0  0  0  0  0
   25.4741  -20.5510  -15.3757 O   0  0  0  0  0  0  0  0  0  0  0  0
   26.4825  -18.5032  -15.0842 N   0  0  0  0  0  0  0  0  0  0  0  0
   27.2301  -17.5031  -14.3417 C   0  0  0  0  0  0  0  0  0  0  0  0
   27.4025  -16.3500  -15.2863 C   0  0  0  0  0  0  0  0  0  0  0  0
   26.4579  -16.6291  -16.4548 C   0  0  0  0  0  0  0  0  0  0  0  0
   26.5248  -18.1549  -16.4783 C   0  0  1  0  0  0  0  0  0  0  0  0
   27.8315  -18.5516  -17.0973 C   0  0  0  0  0  0  0  0  0  0  0  0
   28.7586  -19.0509  -16.4166 O   0  0  0  0  0  0  0  0  0  0  0  0
   28.0454  -18.3726  -18.4532 O   0  0  0  0  0  0  0  0  0  0  0  0
  2  1  1  6
  2  3  1  0
  4  2  1  0
  4  5  1  1
  6  4  1  0
  6  7  2  0
  8  6  1  0
  9  8  1  0
 10 11  1  0
 10  9  1  0
 11 12  1  0
 12  8  1  0
 12 13  1  6
 13 15  1  0
 14 13  2  0
 15 19  1  0
 15 16  1  0
 16 17  1  0
 18 17  1  0
 19 20  1  1
 19 18  1  0
 20 22  1  0
 21 20  2  0
M  END
$$$$
