TPP.pdb
     RDKit          3D

 22 23  0  0  1  0  0  0  0  0999 V2000
   22.0528  -19.4833  -14.7826 C   0  0  0  0  0  0  0  0  0  0  0  0
   22.3330  -20.7941  -15.4701 C   0  0  1  0  0  0  0  0  0  0  0  0
   21.4412  -20.8041  -16.5742 O   0  0  0  0  0  0  0  0  0  0  0  0
   23.7231  -20.8872  -16.0685 C   0  0  2  0  0  0  0  0  0  0  0  0
   23.6233  -22.1114  -16.9083 N   0  0  0  0  0  0  0  0  0  0  0  0
   24.7841  -21.1083  -15.0863 C   0  0  0  0  0  0  0  0  0  0  0  0
   25.0027  -22.3224  -14.7358 O   0  0  0  0  0  0  0  0  0  0  0  0
   25.6040  -20.1308  -14.4753 N   0  0  0  0  0  0  0  0  0  0  0  0
   25.6885  -18.6971  -14.6476 C   0  0  0  0  0  0  0  0  0  0  0  0
   27.2066  -18.5256  -14.8298 C   0  0  0  0  0  0  0  0  0  0  0  0
   27.7128  -19.3983  -13.6956 C   0  0  0  0  0  0  0  0  0  0  0  0
   26.6235  -20.3836  -13.4422 C   0  0  1  0  0  0  0  0  0  0  0  0
   26.0107  -20.0799  -12.1233 C   0  0  0  0  0  0  0  0  0  0  0  0
   24.8795  -19.5072  -12.0508 O   0  0  0  0  0  0  0  0  0  0  0  0
   26.6553  -20.4132  -10.9017 N   0  0  0  0  0  0  0  0  0  0  0  0
   28.0271  -20.8579  -10.7258 C   0  0  0  0  0  0  0  0  0  0  0  0
   28.0885  -21.4264   -9.3385 C   0  0  0  0  0  0  0  0  0  0  0  0
   26.6359  -21.5605   -8.8830 C   0  0  0  0  0  0  0  0  0  0  0  0
   26.0290  -20.3612   -9.6087 C   0  0  1  0  0  0  0  0  0  0  0  0
   26.4235  -19.1212   -8.8640 C   0  0  0  0  0  0  0  0  0  0  0  0
   27.3121  -18.3485   -9.2947 O   0  0  0  0  0  0  0  0  0  0  0  0
   25.8061  -18.7981   -7.6679 O   0  0  0  0  0  0  0  0  0  0  0  0
  2  1  1  6
  2  3  1  0
  4  2  1  0
  4  5  1  6
  6  4  1  0
  6  7  2  0
  8  6  1  0
  9  8  1  0
 10 11  1  0
 10  9  1  0
 11 12  1  0
 12  8  1  0
 12 13  1  1
 13 15  1  0
 14 13  2  0
 15 19  1  0
 15 16  1  0
 16 17  1  0
 18 17  1  0
 19 20  1  1
 19 18  1  0
 20 22  1  0
 21 20  2  0
M  END
$$$$
