TPP.pdb
     RDKit          3D

 22 23  0  0  1  0  0  0  0  0999 V2000
   26.8137  -18.6820  -11.7768 C   0  0  0  0  0  0  0  0  0  0  0  0
   25.7937  -19.7892  -11.8327 C   0  0  1  0  0  0  0  0  0  0  0  0
   25.2719  -19.7137  -13.1504 O   0  0  0  0  0  0  0  0  0  0  0  0
   26.3897  -21.1781  -11.7097 C   0  0  2  0  0  0  0  0  0  0  0  0
   25.2132  -22.0502  -11.9726 N   0  0  0  0  0  0  0  0  0  0  0  0
   26.8898  -21.4987  -10.3732 C   0  0  0  0  0  0  0  0  0  0  0  0
   26.0776  -22.0961   -9.5806 O   0  0  0  0  0  0  0  0  0  0  0  0
   28.1756  -21.2256   -9.8505 N   0  0  0  0  0  0  0  0  0  0  0  0
   29.3367  -20.5855  -10.4291 C   0  0  0  0  0  0  0  0  0  0  0  0
   30.4263  -21.6150  -10.0824 C   0  0  0  0  0  0  0  0  0  0  0  0
   30.0896  -21.8816   -8.6265 C   0  0  0  0  0  0  0  0  0  0  0  0
   28.6419  -21.5531   -8.4919 C   0  0  1  0  0  0  0  0  0  0  0  0
   28.5120  -20.3258   -7.6650 C   0  0  0  0  0  0  0  0  0  0  0  0
   28.2860  -19.1999   -8.2072 O   0  0  0  0  0  0  0  0  0  0  0  0
   28.6328  -20.3584   -6.2495 N   0  0  0  0  0  0  0  0  0  0  0  0
   29.0042  -21.4962   -5.4261 C   0  0  0  0  0  0  0  0  0  0  0  0
   28.6208  -21.1183   -4.0255 C   0  0  0  0  0  0  0  0  0  0  0  0
   27.7470  -19.8717   -4.1590 C   0  0  0  0  0  0  0  0  0  0  0  0
   28.3976  -19.2340   -5.3851 C   0  0  1  0  0  0  0  0  0  0  0  0
   29.6870  -18.6046   -4.9504 C   0  0  0  0  0  0  0  0  0  0  0  0
   30.7975  -19.1103   -5.2392 O   0  0  0  0  0  0  0  0  0  0  0  0
   29.6792  -17.4348   -4.2103 O   0  0  0  0  0  0  0  0  0  0  0  0
  2  1  1  6
  2  3  1  0
  4  2  1  0
  4  5  1  1
  6  4  1  0
  6  7  2  0
  8  6  1  0
  9  8  1  0
 10 11  1  0
 10  9  1  0
 11 12  1  0
 12  8  1  0
 12 13  1  1
 13 15  1  0
 14 13  2  0
 15 19  1  0
 15 16  1  0
 16 17  1  0
 18 17  1  0
 19 20  1  1
 19 18  1  0
 20 22  1  0
 21 20  2  0
M  END
$$$$
