TPP.pdb
     RDKit          3D

 22 23  0  0  1  0  0  0  0  0999 V2000
   16.5083  -10.8479  -17.1916 C   0  0  0  0  0  0  0  0  0  0  0  0
   16.7635  -12.1557  -16.4887 C   0  0  1  0  0  0  0  0  0  0  0  0
   15.9108  -13.0772  -17.1507 O   0  0  0  0  0  0  0  0  0  0  0  0
   18.1691  -12.6907  -16.6813 C   0  0  2  0  0  0  0  0  0  0  0  0
   18.1216  -13.9770  -15.9351 N   0  0  0  0  0  0  0  0  0  0  0  0
   19.2124  -11.8643  -16.0749 C   0  0  0  0  0  0  0  0  0  0  0  0
   19.2920  -11.8819  -14.7950 O   0  0  0  0  0  0  0  0  0  0  0  0
   20.1517  -11.0433  -16.7418 N   0  0  0  0  0  0  0  0  0  0  0  0
   20.4102  -10.8176  -18.1471 C   0  0  0  0  0  0  0  0  0  0  0  0
   21.9362  -11.0102  -18.1858 C   0  0  0  0  0  0  0  0  0  0  0  0
   22.3415  -10.1830  -16.9794 C   0  0  0  0  0  0  0  0  0  0  0  0
   21.1416  -10.1644  -16.0952 C   0  0  1  0  0  0  0  0  0  0  0  0
   20.5827   -8.7880  -16.0882 C   0  0  0  0  0  0  0  0  0  0  0  0
   19.5530   -8.5031  -16.7749 O   0  0  0  0  0  0  0  0  0  0  0  0
   21.1682   -7.7441  -15.3223 N   0  0  0  0  0  0  0  0  0  0  0  0
   22.3806   -7.8142  -14.5251 C   0  0  0  0  0  0  0  0  0  0  0  0
   22.3491   -6.6015  -13.6419 C   0  0  0  0  0  0  0  0  0  0  0  0
   20.9333   -6.0393  -13.7634 C   0  0  0  0  0  0  0  0  0  0  0  0
   20.6333   -6.4141  -15.2135 C   0  0  1  0  0  0  0  0  0  0  0  0
   21.3717   -5.4578  -16.1011 C   0  0  0  0  0  0  0  0  0  0  0  0
   20.9675   -4.2856  -16.2876 O   0  0  0  0  0  0  0  0  0  0  0  0
   22.5324   -5.8541  -16.7430 O   0  0  0  0  0  0  0  0  0  0  0  0
  2  1  1  6
  2  3  1  0
  4  2  1  0
  4  5  1  1
  6  4  1  0
  6  7  2  0
  8  6  1  0
  9  8  1  0
 10 11  1  0
 10  9  1  0
 11 12  1  0
 12  8  1  0
 12 13  1  6
 13 15  1  0
 14 13  2  0
 15 19  1  0
 15 16  1  0
 16 17  1  0
 18 17  1  0
 19 20  1  6
 19 18  1  0
 20 22  1  0
 21 20  2  0
M  END
$$$$
