LRQ.pdb
     RDKit          3D

 29 28  0  0  1  0  0  0  0  0999 V2000
   16.8719  -27.0563   -5.6725 C   0  0  0  0  0  0  0  0  0  0  0  0
   16.7273  -27.2762   -7.1671 C   0  0  2  0  0  0  0  0  0  0  0  0
   17.6813  -28.3361   -7.6558 C   0  0  0  0  0  0  0  0  0  0  0  0
   16.9041  -25.9770   -7.9268 C   0  0  0  0  0  0  0  0  0  0  0  0
   18.3482  -25.5980   -8.0300 C   0  0  2  0  0  0  0  0  0  0  0  0
   18.8257  -24.7948   -6.9319 N   0  0  0  0  0  0  0  0  0  0  0  0
   18.6041  -24.9476   -9.3482 C   0  0  0  0  0  0  0  0  0  0  0  0
   18.4735  -23.7022   -9.4612 O   0  0  0  0  0  0  0  0  0  0  0  0
   22.9187  -24.1732  -15.9282 N   0  0  0  0  0  0  0  0  0  0  0  0
   23.4984  -24.9642  -14.8770 C   0  0  0  0  0  0  0  0  0  0  0  0
   24.6997  -24.7472  -14.4714 N   0  0  0  0  0  0  0  0  0  0  0  0
   22.7080  -25.9912  -14.3004 N   0  0  0  0  0  0  0  0  0  0  0  0
   21.3699  -26.2884  -14.7250 C   0  0  0  0  0  0  0  0  0  0  0  0
   20.4087  -25.3823  -13.9801 C   0  0  0  0  0  0  0  0  0  0  0  0
   20.1472  -25.8333  -12.5761 C   0  0  0  0  0  0  0  0  0  0  0  0
   19.2353  -24.9458  -11.7683 C   0  0  2  0  0  0  0  0  0  0  0  0
   18.9902  -25.6654  -10.4907 N   0  0  0  0  0  0  0  0  0  0  0  0
   17.9025  -24.7816  -12.3867 C   0  0  0  0  0  0  0  0  0  0  0  0
   17.0515  -25.7276  -12.3225 O   0  0  0  0  0  0  0  0  0  0  0  0
   25.0993  -25.2848  -13.6797 N   0  0  0  0  0  0  0  0  0  0  0  0
   16.8437  -19.5060  -13.1361 C   0  0  0  0  0  0  0  0  0  0  0  0
   15.9547  -20.0845  -12.2084 O   0  0  0  0  0  0  0  0  0  0  0  0
   15.6823  -19.4471  -11.1559 C   0  0  0  0  0  0  0  0  0  0  0  0
   15.3517  -21.4028  -12.4659 C   0  0  0  0  0  0  0  0  0  0  0  0
   15.7730  -22.0603  -13.7362 C   0  0  2  0  0  0  0  0  0  0  0  0
   16.1579  -23.4935  -13.6420 N   0  0  0  0  0  0  0  0  0  0  0  0
   17.5258  -23.5890  -13.0573 C   0  0  0  0  0  0  0  0  0  0  0  0
   16.0364  -24.3740  -14.7725 O   0  0  0  0  0  0  0  0  0  0  0  0
   14.8171  -25.0354  -14.9956 O   0  0  0  0  0  0  0  0  0  0  0  0
  2  1  1  1
  2  3  1  0
  2  4  1  0
  5  4  1  0
  5  6  1  1
  7  8  2  0
  7  5  1  0
 10  9  1  0
 10 12  1  0
 11 10  2  0
 12 13  1  0
 13 14  1  0
 14 15  1  0
 16 15  1  6
 16 17  1  0
 17  7  1  0
 18 16  1  0
 18 19  2  0
 20 21  1  0
 21 23  1  0
 21 22  2  0
 23 24  1  0
 25 24  1  1
 25 26  1  0
 25 27  1  0
 26 18  1  0
 27 29  2  0
 27 28  1  0
M  END
$$$$
