LRQ.pdb
     RDKit          3D

 29 28  0  0  1  0  0  0  0  0999 V2000
   29.3001  -21.1318  -17.9271 C   0  0  0  0  0  0  0  0  0  0  0  0
   27.9085  -21.3882  -18.4757 C   0  0  2  0  0  0  0  0  0  0  0  0
   27.5582  -20.3964  -19.5556 C   0  0  0  0  0  0  0  0  0  0  0  0
   26.8780  -21.3867  -17.3647 C   0  0  0  0  0  0  0  0  0  0  0  0
   27.2286  -22.3725  -16.2947 C   0  0  2  0  0  0  0  0  0  0  0  0
   27.3154  -23.7358  -16.7561 N   0  0  0  0  0  0  0  0  0  0  0  0
   26.2810  -22.2310  -15.1509 C   0  0  0  0  0  0  0  0  0  0  0  0
   25.2348  -22.9278  -15.1223 O   0  0  0  0  0  0  0  0  0  0  0  0
   27.3977  -19.6497   -6.7815 N   0  0  0  0  0  0  0  0  0  0  0  0
   26.1675  -20.3863   -6.8849 C   0  0  0  0  0  0  0  0  0  0  0  0
   25.5688  -20.8252   -5.8344 N   0  0  0  0  0  0  0  0  0  0  0  0
   25.6332  -20.6159   -8.1787 N   0  0  0  0  0  0  0  0  0  0  0  0
   26.1914  -20.0507   -9.3738 C   0  0  0  0  0  0  0  0  0  0  0  0
   25.3864  -20.5341  -10.5646 C   0  0  0  0  0  0  0  0  0  0  0  0
   26.2310  -20.8076  -11.7708 C   0  0  0  0  0  0  0  0  0  0  0  0
   25.4783  -21.2132  -13.0120 C   0  0  2  0  0  0  0  0  0  0  0  0
   26.4990  -21.3447  -14.0849 N   0  0  0  0  0  0  0  0  0  0  0  0
   24.5476  -20.1659  -13.4839 C   0  0  0  0  0  0  0  0  0  0  0  0
   24.9703  -19.2373  -14.2471 O   0  0  0  0  0  0  0  0  0  0  0  0
   24.6729  -21.3421   -5.9093 N   0  0  0  0  0  0  0  0  0  0  0  0
   23.5845  -19.9965  -18.1296 C   0  0  0  0  0  0  0  0  0  0  0  0
   22.2831  -19.5011  -17.9137 O   0  0  0  0  0  0  0  0  0  0  0  0
   21.5796  -19.1977  -18.9143 C   0  0  0  0  0  0  0  0  0  0  0  0
   21.7538  -19.3471  -16.5484 C   0  0  0  0  0  0  0  0  0  0  0  0
   22.6812  -19.7555  -15.4545 C   0  0  1  0  0  0  0  0  0  0  0  0
   22.1820  -19.5787  -14.0650 N   0  0  0  0  0  0  0  0  0  0  0  0
   23.1769  -20.1563  -13.1169 C   0  0  0  0  0  0  0  0  0  0  0  0
   20.8508  -19.9772  -13.6947 O   0  0  0  0  0  0  0  0  0  0  0  0
   19.7808  -19.1017  -13.9450 O   0  0  0  0  0  0  0  0  0  0  0  0
  2  1  1  1
  2  3  1  0
  2  4  1  0
  5  4  1  0
  5  6  1  6
  7  8  2  0
  7  5  1  0
 10  9  1  0
 10 12  1  0
 11 10  2  0
 12 13  1  0
 13 14  1  0
 14 15  1  0
 16 15  1  1
 16 17  1  0
 17  7  1  0
 18 16  1  0
 18 19  2  0
 20 21  1  0
 21 23  1  0
 21 22  2  0
 23 24  1  0
 25 24  1  1
 25 26  1  0
 25 27  1  0
 26 18  1  0
 27 29  2  0
 27 28  1  0
M  END
$$$$
