LRQ.pdb
     RDKit          3D

 29 28  0  0  1  0  0  0  0  0999 V2000
   21.0847  -18.4544  -11.0024 C   0  0  0  0  0  0  0  0  0  0  0  0
   19.7775  -18.6247  -11.7541 C   0  0  2  0  0  0  0  0  0  0  0  0
   18.8613  -19.5864  -11.0412 C   0  0  0  0  0  0  0  0  0  0  0  0
   20.0264  -19.0529  -13.1863 C   0  0  0  0  0  0  0  0  0  0  0  0
   20.9291  -18.0915  -13.8937 C   0  0  2  0  0  0  0  0  0  0  0  0
   20.4262  -16.7411  -13.9449 N   0  0  0  0  0  0  0  0  0  0  0  0
   21.2565  -18.6157  -15.2517 C   0  0  0  0  0  0  0  0  0  0  0  0
   20.6195  -18.1931  -16.2499 O   0  0  0  0  0  0  0  0  0  0  0  0
   24.8561  -23.0879  -13.5077 N   0  0  0  0  0  0  0  0  0  0  0  0
   25.3539  -23.6542  -14.7318 C   0  0  0  0  0  0  0  0  0  0  0  0
   25.2699  -24.9176  -14.9585 N   0  0  0  0  0  0  0  0  0  0  0  0
   25.9410  -22.7799  -15.6819 N   0  0  0  0  0  0  0  0  0  0  0  0
   25.9295  -21.3509  -15.5510 C   0  0  0  0  0  0  0  0  0  0  0  0
   24.4899  -20.8775  -15.4937 C   0  0  0  0  0  0  0  0  0  0  0  0
   23.8930  -20.6514  -16.8485 C   0  0  0  0  0  0  0  0  0  0  0  0
   22.4998  -20.0764  -16.8565 C   0  0  2  0  0  0  0  0  0  0  0  0
   22.2566  -19.5737  -15.4788 N   0  0  0  0  0  0  0  0  0  0  0  0
   21.4598  -21.1012  -17.0883 C   0  0  0  0  0  0  0  0  0  0  0  0
   21.1010  -21.8688  -16.1368 O   0  0  0  0  0  0  0  0  0  0  0  0
   25.5930  -25.3194  -15.8583 N   0  0  0  0  0  0  0  0  0  0  0  0
   16.9303  -18.8521  -16.0238 C   0  0  0  0  0  0  0  0  0  0  0  0
   16.8657  -20.2352  -15.7621 O   0  0  0  0  0  0  0  0  0  0  0  0
   16.0220  -20.6516  -14.9237 C   0  0  0  0  0  0  0  0  0  0  0  0
   17.7603  -21.1750  -16.4581 C   0  0  0  0  0  0  0  0  0  0  0  0
   18.7043  -20.5553  -17.4318 C   0  0  2  0  0  0  0  0  0  0  0  0
   19.3570  -21.4783  -18.3979 N   0  0  0  0  0  0  0  0  0  0  0  0
   20.8315  -21.2638  -18.3503 C   0  0  0  0  0  0  0  0  0  0  0  0
   18.9100  -21.5681  -19.7617 O   0  0  0  0  0  0  0  0  0  0  0  0
   19.5188  -20.7582  -20.7351 O   0  0  0  0  0  0  0  0  0  0  0  0
  2  1  1  1
  2  3  1  0
  2  4  1  0
  5  4  1  0
  5  6  1  6
  7  8  2  0
  7  5  1  0
 10  9  1  0
 10 12  1  0
 11 10  2  0
 12 13  1  0
 13 14  1  0
 14 15  1  0
 16 15  1  1
 16 17  1  0
 17  7  1  0
 18 16  1  0
 18 19  2  0
 20 21  1  0
 21 23  1  0
 21 22  2  0
 23 24  1  0
 25 24  1  1
 25 26  1  0
 25 27  1  0
 26 18  1  0
 27 29  2  0
 27 28  1  0
M  END
$$$$
