LRQ.pdb
     RDKit          3D

 29 28  0  0  1  0  0  0  0  0999 V2000
   23.5026  -16.0460  -19.4477 C   0  0  0  0  0  0  0  0  0  0  0  0
   23.9151  -17.5013  -19.5706 C   0  0  2  0  0  0  0  0  0  0  0  0
   23.7769  -17.9878  -20.9907 C   0  0  0  0  0  0  0  0  0  0  0  0
   23.1327  -18.3707  -18.6071 C   0  0  0  0  0  0  0  0  0  0  0  0
   23.1647  -17.8116  -17.2193 C   0  0  2  0  0  0  0  0  0  0  0  0
   24.4892  -17.5065  -16.7382 N   0  0  0  0  0  0  0  0  0  0  0  0
   22.4321  -18.7236  -16.2931 C   0  0  0  0  0  0  0  0  0  0  0  0
   21.2659  -19.0945  -16.5815 O   0  0  0  0  0  0  0  0  0  0  0  0
   24.1438  -24.7417  -15.1127 N   0  0  0  0  0  0  0  0  0  0  0  0
   25.5167  -24.3279  -15.2151 C   0  0  0  0  0  0  0  0  0  0  0  0
   26.2871  -24.8106  -16.1251 N   0  0  0  0  0  0  0  0  0  0  0  0
   25.9976  -23.3726  -14.2834 N   0  0  0  0  0  0  0  0  0  0  0  0
   25.1399  -22.6142  -13.4182 C   0  0  0  0  0  0  0  0  0  0  0  0
   24.0962  -21.9081  -14.2620 C   0  0  0  0  0  0  0  0  0  0  0  0
   23.2676  -20.9377  -13.4781 C   0  0  0  0  0  0  0  0  0  0  0  0
   22.2326  -20.1799  -14.2697 C   0  0  2  0  0  0  0  0  0  0  0  0
   22.9857  -19.1985  -15.0941 N   0  0  0  0  0  0  0  0  0  0  0  0
   21.3399  -19.3691  -13.4145 C   0  0  0  0  0  0  0  0  0  0  0  0
   21.6593  -18.1719  -13.1179 O   0  0  0  0  0  0  0  0  0  0  0  0
   27.2795  -24.5171  -16.1928 N   0  0  0  0  0  0  0  0  0  0  0  0
   17.0525  -18.1282  -15.8430 C   0  0  0  0  0  0  0  0  0  0  0  0
   16.9178  -17.0902  -14.8996 O   0  0  0  0  0  0  0  0  0  0  0  0
   15.9333  -16.3096  -14.9982 C   0  0  0  0  0  0  0  0  0  0  0  0
   17.9025  -16.9248  -13.8175 C   0  0  0  0  0  0  0  0  0  0  0  0
   19.0120  -17.9210  -13.8064 C   0  0  1  0  0  0  0  0  0  0  0  0
   18.9651  -18.9498  -12.7337 N   0  0  0  0  0  0  0  0  0  0  0  0
   20.1176  -19.8797  -12.9054 C   0  0  0  0  0  0  0  0  0  0  0  0
   17.7627  -19.6908  -12.4634 O   0  0  0  0  0  0  0  0  0  0  0  0
   16.8281  -19.1686  -11.5535 O   0  0  0  0  0  0  0  0  0  0  0  0
  2  1  1  6
  2  3  1  0
  2  4  1  0
  5  4  1  0
  5  6  1  1
  7  8  2  0
  7  5  1  0
 10  9  1  0
 10 12  1  0
 11 10  2  0
 12 13  1  0
 13 14  1  0
 14 15  1  0
 16 15  1  1
 16 17  1  0
 17  7  1  0
 18 16  1  0
 18 19  2  0
 20 21  1  0
 21 23  1  0
 21 22  2  0
 23 24  1  0
 25 24  1  1
 25 26  1  0
 25 27  1  0
 26 18  1  0
 27 29  2  0
 27 28  1  0
M  END
$$$$
