LRQ.pdb
     RDKit          3D

 29 28  0  0  1  0  0  0  0  0999 V2000
   26.4395  -11.9182  -15.4982 C   0  0  0  0  0  0  0  0  0  0  0  0
   25.3599  -12.2040  -16.5257 C   0  0  2  0  0  0  0  0  0  0  0  0
   24.1097  -11.4133  -16.2355 C   0  0  0  0  0  0  0  0  0  0  0  0
   25.0705  -13.6891  -16.6106 C   0  0  0  0  0  0  0  0  0  0  0  0
   26.3222  -14.4760  -16.8427 C   0  0  2  0  0  0  0  0  0  0  0  0
   26.9719  -14.1914  -18.0980 N   0  0  0  0  0  0  0  0  0  0  0  0
   26.0381  -15.9317  -16.6800 C   0  0  0  0  0  0  0  0  0  0  0  0
   25.6100  -16.5934  -17.6596 O   0  0  0  0  0  0  0  0  0  0  0  0
   25.6705  -21.4095  -10.5655 N   0  0  0  0  0  0  0  0  0  0  0  0
   25.9546  -22.1907  -11.7384 C   0  0  0  0  0  0  0  0  0  0  0  0
   25.1760  -23.1487  -12.0998 N   0  0  0  0  0  0  0  0  0  0  0  0
   27.1184  -21.8751  -12.4853 N   0  0  0  0  0  0  0  0  0  0  0  0
   27.4927  -20.5339  -12.8323 C   0  0  0  0  0  0  0  0  0  0  0  0
   26.4675  -19.9758  -13.8004 C   0  0  0  0  0  0  0  0  0  0  0  0
   26.8436  -18.6309  -14.3413 C   0  0  0  0  0  0  0  0  0  0  0  0
   25.9102  -18.0648  -15.3805 C   0  0  2  0  0  0  0  0  0  0  0  0
   26.2269  -16.6149  -15.4688 N   0  0  0  0  0  0  0  0  0  0  0  0
   24.4912  -18.1310  -14.9710 C   0  0  0  0  0  0  0  0  0  0  0  0
   24.0870  -17.4558  -13.9690 O   0  0  0  0  0  0  0  0  0  0  0  0
   25.3457  -23.6687  -12.9809 N   0  0  0  0  0  0  0  0  0  0  0  0
   19.4359  -19.0323  -18.5744 C   0  0  0  0  0  0  0  0  0  0  0  0
   18.9012  -19.1866  -17.2798 O   0  0  0  0  0  0  0  0  0  0  0  0
   17.6643  -19.3955  -17.1591 C   0  0  0  0  0  0  0  0  0  0  0  0
   19.7700  -19.1121  -16.0934 C   0  0  0  0  0  0  0  0  0  0  0  0
   21.2291  -18.9933  -16.3771 C   0  0  1  0  0  0  0  0  0  0  0  0
   22.1294  -18.9375  -15.1950 N   0  0  0  0  0  0  0  0  0  0  0  0
   23.5440  -18.9279  -15.6650 C   0  0  0  0  0  0  0  0  0  0  0  0
   21.9752  -19.8528  -14.0965 O   0  0  0  0  0  0  0  0  0  0  0  0
   21.0127  -19.5804  -13.1099 O   0  0  0  0  0  0  0  0  0  0  0  0
  2  1  1  1
  2  3  1  0
  2  4  1  0
  5  4  1  0
  5  6  1  6
  7  8  2  0
  7  5  1  0
 10  9  1  0
 10 12  1  0
 11 10  2  0
 12 13  1  0
 13 14  1  0
 14 15  1  0
 16 15  1  1
 16 17  1  0
 17  7  1  0
 18 16  1  0
 18 19  2  0
 20 21  1  0
 21 23  1  0
 21 22  2  0
 23 24  1  0
 25 24  1  6
 25 26  1  0
 25 27  1  0
 26 18  1  0
 27 29  2  0
 27 28  1  0
M  END
$$$$
