LRQ.pdb
     RDKit          3D

 29 28  0  0  1  0  0  0  0  0999 V2000
   29.7416  -21.3749  -17.8886 C   0  0  0  0  0  0  0  0  0  0  0  0
   28.3020  -21.0859  -18.2724 C   0  0  2  0  0  0  0  0  0  0  0  0
   28.2251  -20.3732  -19.5985 C   0  0  0  0  0  0  0  0  0  0  0  0
   27.5951  -20.3071  -17.1815 C   0  0  0  0  0  0  0  0  0  0  0  0
   27.8302  -20.9181  -15.8357 C   0  0  2  0  0  0  0  0  0  0  0  0
   27.6654  -22.3501  -15.8028 N   0  0  0  0  0  0  0  0  0  0  0  0
   26.9783  -20.2360  -14.8183 C   0  0  0  0  0  0  0  0  0  0  0  0
   26.9676  -18.9801  -14.7596 O   0  0  0  0  0  0  0  0  0  0  0  0
   19.6698  -22.0821  -15.0229 N   0  0  0  0  0  0  0  0  0  0  0  0
   20.8354  -21.6274  -15.7310 C   0  0  0  0  0  0  0  0  0  0  0  0
   21.1400  -22.1109  -16.8834 N   0  0  0  0  0  0  0  0  0  0  0  0
   21.6403  -20.6308  -15.1220 N   0  0  0  0  0  0  0  0  0  0  0  0
   21.3539  -20.0638  -13.8353 C   0  0  0  0  0  0  0  0  0  0  0  0
   22.6633  -19.7590  -13.1337 C   0  0  0  0  0  0  0  0  0  0  0  0
   23.8436  -20.4091  -13.7874 C   0  0  0  0  0  0  0  0  0  0  0  0
   25.1660  -20.2003  -13.0951 C   0  0  2  0  0  0  0  0  0  0  0  0
   26.1728  -20.9346  -13.9057 N   0  0  0  0  0  0  0  0  0  0  0  0
   25.2140  -20.8223  -11.7548 C   0  0  0  0  0  0  0  0  0  0  0  0
   25.3101  -22.0880  -11.6449 O   0  0  0  0  0  0  0  0  0  0  0  0
   22.0065  -21.8172  -17.3716 N   0  0  0  0  0  0  0  0  0  0  0  0
   27.7964  -18.2672   -6.9739 C   0  0  0  0  0  0  0  0  0  0  0  0
   28.1311  -19.6269   -7.1315 O   0  0  0  0  0  0  0  0  0  0  0  0
   29.2452  -20.0276   -6.6999 C   0  0  0  0  0  0  0  0  0  0  0  0
   27.1965  -20.5612   -7.7806 C   0  0  0  0  0  0  0  0  0  0  0  0
   25.9237  -19.9558   -8.2673 C   0  0  2  0  0  0  0  0  0  0  0  0
   25.1459  -20.7551   -9.2509 N   0  0  0  0  0  0  0  0  0  0  0  0
   25.1602  -20.0510  -10.5648 C   0  0  0  0  0  0  0  0  0  0  0  0
   23.8194  -21.2218   -8.9498 O   0  0  0  0  0  0  0  0  0  0  0  0
   23.6560  -22.2664   -8.0247 O   0  0  0  0  0  0  0  0  0  0  0  0
  2  1  1  1
  2  3  1  0
  2  4  1  0
  5  4  1  0
  5  6  1  6
  7  8  2  0
  7  5  1  0
 10  9  1  0
 10 12  1  0
 11 10  2  0
 12 13  1  0
 13 14  1  0
 14 15  1  0
 16 15  1  6
 16 17  1  0
 17  7  1  0
 18 16  1  0
 18 19  2  0
 20 21  1  0
 21 23  1  0
 21 22  2  0
 23 24  1  0
 25 24  1  6
 25 26  1  0
 25 27  1  0
 26 18  1  0
 27 29  2  0
 27 28  1  0
M  END
$$$$
