LRQ.pdb
     RDKit          3D

 29 28  0  0  1  0  0  0  0  0999 V2000
   28.1075  -16.1512  -16.1901 C   0  0  0  0  0  0  0  0  0  0  0  0
   26.8570  -16.4517  -16.9956 C   0  0  2  0  0  0  0  0  0  0  0  0
   26.0373  -15.2053  -17.2129 C   0  0  0  0  0  0  0  0  0  0  0  0
   26.0394  -17.5469  -16.3410 C   0  0  0  0  0  0  0  0  0  0  0  0
   26.8800  -18.7472  -16.0375 C   0  0  2  0  0  0  0  0  0  0  0  0
   27.3562  -19.4431  -17.2071 N   0  0  0  0  0  0  0  0  0  0  0  0
   26.1435  -19.6553  -15.1106 C   0  0  0  0  0  0  0  0  0  0  0  0
   25.3877  -20.5427  -15.5820 O   0  0  0  0  0  0  0  0  0  0  0  0
   22.9087  -20.2411   -8.9079 N   0  0  0  0  0  0  0  0  0  0  0  0
   23.5185  -21.1256   -7.9526 C   0  0  0  0  0  0  0  0  0  0  0  0
   22.8096  -21.7372   -7.0706 N   0  0  0  0  0  0  0  0  0  0  0  0
   24.9245  -21.3040   -8.0103 N   0  0  0  0  0  0  0  0  0  0  0  0
   25.7610  -20.6644   -8.9852 C   0  0  0  0  0  0  0  0  0  0  0  0
   25.2052  -20.9489  -10.3673 C   0  0  0  0  0  0  0  0  0  0  0  0
   26.0298  -20.3506  -11.4650 C   0  0  0  0  0  0  0  0  0  0  0  0
   25.4618  -20.4909  -12.8540 C   0  0  2  0  0  0  0  0  0  0  0  0
   26.2512  -19.5702  -13.7139 N   0  0  0  0  0  0  0  0  0  0  0  0
   24.0652  -20.0156  -12.9511 C   0  0  0  0  0  0  0  0  0  0  0  0
   23.8093  -18.7713  -12.8529 O   0  0  0  0  0  0  0  0  0  0  0  0
   23.2536  -22.3559   -6.3667 N   0  0  0  0  0  0  0  0  0  0  0  0
   19.5592  -18.2673  -16.0115 C   0  0  0  0  0  0  0  0  0  0  0  0
   20.4277  -19.2139  -16.5905 O   0  0  0  0  0  0  0  0  0  0  0  0
   20.2536  -19.5334  -17.7971 C   0  0  0  0  0  0  0  0  0  0  0  0
   21.5197  -19.8123  -15.8048 C   0  0  0  0  0  0  0  0  0  0  0  0
   21.6458  -19.3145  -14.4049 C   0  0  1  0  0  0  0  0  0  0  0  0
   21.6104  -20.3437  -13.3322 N   0  0  0  0  0  0  0  0  0  0  0  0
   22.9798  -20.9063  -13.1570 C   0  0  0  0  0  0  0  0  0  0  0  0
   20.6351  -21.4004  -13.3447 O   0  0  0  0  0  0  0  0  0  0  0  0
   19.2702  -21.0714  -13.2916 O   0  0  0  0  0  0  0  0  0  0  0  0
  2  1  1  1
  2  3  1  0
  2  4  1  0
  5  4  1  0
  5  6  1  6
  7  8  2  0
  7  5  1  0
 10  9  1  0
 10 12  1  0
 11 10  2  0
 12 13  1  0
 13 14  1  0
 14 15  1  0
 16 15  1  1
 16 17  1  0
 17  7  1  0
 18 16  1  0
 18 19  2  0
 20 21  1  0
 21 23  1  0
 21 22  2  0
 23 24  1  0
 25 24  1  1
 25 26  1  0
 25 27  1  0
 26 18  1  0
 27 29  2  0
 27 28  1  0
M  END
$$$$
