LRQ.pdb
     RDKit          3D

 29 28  0  0  1  0  0  0  0  0999 V2000
   27.5342  -11.6846  -15.7372 C   0  0  0  0  0  0  0  0  0  0  0  0
   26.4894  -12.5932  -16.3585 C   0  0  2  0  0  0  0  0  0  0  0  0
   27.0667  -13.3802  -17.5073 C   0  0  0  0  0  0  0  0  0  0  0  0
   25.2676  -11.8043  -16.7842 C   0  0  0  0  0  0  0  0  0  0  0  0
   24.7064  -11.0119  -15.6454 C   0  0  2  0  0  0  0  0  0  0  0  0
   24.3508  -11.8053  -14.4952 N   0  0  0  0  0  0  0  0  0  0  0  0
   23.5624  -10.1830  -16.1255 C   0  0  0  0  0  0  0  0  0  0  0  0
   23.6926   -9.4895  -17.1661 O   0  0  0  0  0  0  0  0  0  0  0  0
   16.1449  -12.2986  -17.8144 N   0  0  0  0  0  0  0  0  0  0  0  0
   17.1149  -13.3530  -17.6951 C   0  0  0  0  0  0  0  0  0  0  0  0
   17.0051  -14.4339  -18.3838 N   0  0  0  0  0  0  0  0  0  0  0  0
   18.1960  -13.1673  -16.7959 N   0  0  0  0  0  0  0  0  0  0  0  0
   18.3720  -11.9803  -16.0091 C   0  0  0  0  0  0  0  0  0  0  0  0
   19.6493  -11.2895  -16.4464 C   0  0  0  0  0  0  0  0  0  0  0  0
   19.9439  -10.0498  -15.6596 C   0  0  0  0  0  0  0  0  0  0  0  0
   21.2135   -9.3291  -16.0346 C   0  0  2  0  0  0  0  0  0  0  0  0
   22.3252  -10.1351  -15.4648 N   0  0  0  0  0  0  0  0  0  0  0  0
   21.3264   -8.0005  -15.3962 C   0  0  0  0  0  0  0  0  0  0  0  0
   21.7624   -7.9040  -14.2029 O   0  0  0  0  0  0  0  0  0  0  0  0
   17.7168  -15.1849  -18.3124 N   0  0  0  0  0  0  0  0  0  0  0  0
   21.9817   -2.5983  -18.5020 C   0  0  0  0  0  0  0  0  0  0  0  0
   23.0744   -3.1468  -17.8015 O   0  0  0  0  0  0  0  0  0  0  0  0
   24.2385   -2.7845  -18.1205 C   0  0  0  0  0  0  0  0  0  0  0  0
   22.8608   -4.1178  -16.7155 C   0  0  0  0  0  0  0  0  0  0  0  0
   21.4364   -4.4576  -16.4341 C   0  0  2  0  0  0  0  0  0  0  0  0
   21.1977   -5.4980  -15.3989 N   0  0  0  0  0  0  0  0  0  0  0  0
   20.9657   -6.8069  -16.0737 C   0  0  0  0  0  0  0  0  0  0  0  0
   20.2332   -5.2995  -14.3509 O   0  0  0  0  0  0  0  0  0  0  0  0
   20.6353   -4.6664  -13.1629 O   0  0  0  0  0  0  0  0  0  0  0  0
  2  1  1  6
  2  3  1  0
  2  4  1  0
  5  4  1  0
  5  6  1  1
  7  8  2  0
  7  5  1  0
 10  9  1  0
 10 12  1  0
 11 10  2  0
 12 13  1  0
 13 14  1  0
 14 15  1  0
 16 15  1  1
 16 17  1  0
 17  7  1  0
 18 16  1  0
 18 19  2  0
 20 21  1  0
 21 23  1  0
 21 22  2  0
 23 24  1  0
 25 24  1  1
 25 26  1  0
 25 27  1  0
 26 18  1  0
 27 29  2  0
 27 28  1  0
M  END
$$$$
