LRQ.pdb
     RDKit          3D

 29 28  0  0  1  0  0  0  0  0999 V2000
   25.8412  -19.4266   -7.7414 C   0  0  0  0  0  0  0  0  0  0  0  0
   26.9130  -20.4813   -7.9461 C   0  0  2  0  0  0  0  0  0  0  0  0
   27.9204  -20.4581   -6.8249 C   0  0  0  0  0  0  0  0  0  0  0  0
   27.5815  -20.3213   -9.2966 C   0  0  0  0  0  0  0  0  0  0  0  0
   26.5796  -20.3532  -10.4079 C   0  0  2  0  0  0  0  0  0  0  0  0
   25.6473  -21.4502  -10.3283 N   0  0  0  0  0  0  0  0  0  0  0  0
   27.2853  -20.3163  -11.7220 C   0  0  0  0  0  0  0  0  0  0  0  0
   28.3818  -19.7091  -11.8204 O   0  0  0  0  0  0  0  0  0  0  0  0
   33.1475  -24.9092  -14.2230 N   0  0  0  0  0  0  0  0  0  0  0  0
   32.7673  -24.3719  -15.5010 C   0  0  0  0  0  0  0  0  0  0  0  0
   33.4421  -24.6459  -16.5613 N   0  0  0  0  0  0  0  0  0  0  0  0
   31.6270  -23.5303  -15.5592 N   0  0  0  0  0  0  0  0  0  0  0  0
   30.8308  -23.2011  -14.4116 C   0  0  0  0  0  0  0  0  0  0  0  0
   29.7030  -22.2852  -14.8462 C   0  0  0  0  0  0  0  0  0  0  0  0
   28.8158  -21.8697  -13.7134 C   0  0  0  0  0  0  0  0  0  0  0  0
   27.6263  -21.0267  -14.0956 C   0  0  2  0  0  0  0  0  0  0  0  0
   26.7809  -20.9350  -12.8762 N   0  0  0  0  0  0  0  0  0  0  0  0
   26.7727  -21.6718  -15.1159 C   0  0  0  0  0  0  0  0  0  0  0  0
   26.3768  -22.8710  -14.9469 O   0  0  0  0  0  0  0  0  0  0  0  0
   33.2327  -24.1759  -17.4617 N   0  0  0  0  0  0  0  0  0  0  0  0
   22.5895  -22.9322  -14.3566 C   0  0  0  0  0  0  0  0  0  0  0  0
   21.9022  -21.9605  -15.1110 O   0  0  0  0  0  0  0  0  0  0  0  0
   20.6614  -22.0976  -15.2836 C   0  0  0  0  0  0  0  0  0  0  0  0
   22.6171  -20.8060  -15.6801 C   0  0  0  0  0  0  0  0  0  0  0  0
   24.0941  -20.8057  -15.4757 C   0  0  1  0  0  0  0  0  0  0  0  0
   24.9285  -21.0298  -16.6860 N   0  0  0  0  0  0  0  0  0  0  0  0
   26.3666  -20.9944  -16.2948 C   0  0  0  0  0  0  0  0  0  0  0  0
   24.7197  -20.2671  -17.8871 O   0  0  0  0  0  0  0  0  0  0  0  0
   23.7876  -20.7245  -18.8338 O   0  0  0  0  0  0  0  0  0  0  0  0
  2  1  1  1
  2  3  1  0
  2  4  1  0
  5  4  1  0
  5  6  1  6
  7  8  2  0
  7  5  1  0
 10  9  1  0
 10 12  1  0
 11 10  2  0
 12 13  1  0
 13 14  1  0
 14 15  1  0
 16 15  1  1
 16 17  1  0
 17  7  1  0
 18 16  1  0
 18 19  2  0
 20 21  1  0
 21 23  1  0
 21 22  2  0
 23 24  1  0
 25 24  1  1
 25 26  1  0
 25 27  1  0
 26 18  1  0
 27 29  2  0
 27 28  1  0
M  END
$$$$
