LRQ.pdb
     RDKit          3D

 29 28  0  0  1  0  0  0  0  0999 V2000
   19.1350  -26.4761  -12.8213 C   0  0  0  0  0  0  0  0  0  0  0  0
   17.9355  -25.6124  -13.1654 C   0  0  2  0  0  0  0  0  0  0  0  0
   17.1121  -26.2371  -14.2627 C   0  0  0  0  0  0  0  0  0  0  0  0
   18.3655  -24.2049  -13.5265 C   0  0  0  0  0  0  0  0  0  0  0  0
   19.2210  -23.6045  -12.4554 C   0  0  2  0  0  0  0  0  0  0  0  0
   18.5052  -23.2691  -11.2495 N   0  0  0  0  0  0  0  0  0  0  0  0
   19.9663  -22.4343  -13.0043 C   0  0  0  0  0  0  0  0  0  0  0  0
   19.4615  -21.2854  -12.9265 O   0  0  0  0  0  0  0  0  0  0  0  0
   28.3087  -22.3526  -14.9830 N   0  0  0  0  0  0  0  0  0  0  0  0
   27.2182  -22.6921  -15.8562 C   0  0  0  0  0  0  0  0  0  0  0  0
   27.3670  -23.5599  -16.7939 N   0  0  0  0  0  0  0  0  0  0  0  0
   25.9737  -22.0421  -15.6543 N   0  0  0  0  0  0  0  0  0  0  0  0
   25.7643  -21.0329  -14.6559 C   0  0  0  0  0  0  0  0  0  0  0  0
   24.3031  -20.6270  -14.6709 C   0  0  0  0  0  0  0  0  0  0  0  0
   23.3935  -21.6923  -14.1411 C   0  0  0  0  0  0  0  0  0  0  0  0
   21.9314  -21.3304  -14.0883 C   0  0  2  0  0  0  0  0  0  0  0  0
   21.2248  -22.5496  -13.6146 N   0  0  0  0  0  0  0  0  0  0  0  0
   21.3649  -21.0439  -15.4235 C   0  0  0  0  0  0  0  0  0  0  0  0
   20.7206  -21.9487  -16.0477 O   0  0  0  0  0  0  0  0  0  0  0  0
   26.5788  -23.8056  -17.4215 N   0  0  0  0  0  0  0  0  0  0  0  0
   17.3857  -20.9983  -14.9503 C   0  0  0  0  0  0  0  0  0  0  0  0
   17.5182  -21.4492  -16.2788 O   0  0  0  0  0  0  0  0  0  0  0  0
   16.8166  -22.4253  -16.6572 C   0  0  0  0  0  0  0  0  0  0  0  0
   18.4516  -20.7901  -17.2072 C   0  0  0  0  0  0  0  0  0  0  0  0
   19.1710  -19.6060  -16.6557 C   0  0  2  0  0  0  0  0  0  0  0  0
   20.5634  -19.3975  -17.1339 N   0  0  0  0  0  0  0  0  0  0  0  0
   21.5098  -19.7771  -16.0464 C   0  0  0  0  0  0  0  0  0  0  0  0
   20.9671  -18.1549  -17.7348 O   0  0  0  0  0  0  0  0  0  0  0  0
   20.2454  -17.6613  -18.8346 O   0  0  0  0  0  0  0  0  0  0  0  0
  2  1  1  6
  2  3  1  0
  2  4  1  0
  5  4  1  0
  5  6  1  1
  7  8  2  0
  7  5  1  0
 10  9  1  0
 10 12  1  0
 11 10  2  0
 12 13  1  0
 13 14  1  0
 14 15  1  0
 16 15  1  6
 16 17  1  0
 17  7  1  0
 18 16  1  0
 18 19  2  0
 20 21  1  0
 21 23  1  0
 21 22  2  0
 23 24  1  0
 25 24  1  6
 25 26  1  0
 25 27  1  0
 26 18  1  0
 27 29  2  0
 27 28  1  0
M  END
$$$$
