LRQ.pdb
     RDKit          3D

 29 28  0  0  1  0  0  0  0  0999 V2000
   29.3500  -17.9473  -17.1555 C   0  0  0  0  0  0  0  0  0  0  0  0
   28.4961  -18.7337  -18.1330 C   0  0  2  0  0  0  0  0  0  0  0  0
   27.9598  -17.8437  -19.2251 C   0  0  0  0  0  0  0  0  0  0  0  0
   27.3802  -19.4642  -17.4136 C   0  0  0  0  0  0  0  0  0  0  0  0
   27.9167  -20.3546  -16.3371 C   0  0  2  0  0  0  0  0  0  0  0  0
   28.6959  -21.4650  -16.8259 N   0  0  0  0  0  0  0  0  0  0  0  0
   26.8013  -20.8031  -15.4534 C   0  0  0  0  0  0  0  0  0  0  0  0
   26.1953  -21.8733  -15.7143 O   0  0  0  0  0  0  0  0  0  0  0  0
   24.2683  -21.0337   -7.7304 N   0  0  0  0  0  0  0  0  0  0  0  0
   23.4734  -20.9308   -8.9238 C   0  0  0  0  0  0  0  0  0  0  0  0
   22.2104  -20.6959   -8.8592 N   0  0  0  0  0  0  0  0  0  0  0  0
   24.1217  -21.0965  -10.1745 N   0  0  0  0  0  0  0  0  0  0  0  0
   25.4942  -21.4947  -10.3043 C   0  0  0  0  0  0  0  0  0  0  0  0
   26.2137  -20.4882  -11.1812 C   0  0  0  0  0  0  0  0  0  0  0  0
   25.3178  -19.8505  -12.1978 C   0  0  0  0  0  0  0  0  0  0  0  0
   25.2292  -20.5628  -13.5232 C   0  0  2  0  0  0  0  0  0  0  0  0
   26.3844  -20.0802  -14.3251 N   0  0  0  0  0  0  0  0  0  0  0  0
   24.0290  -20.1817  -14.2977 C   0  0  0  0  0  0  0  0  0  0  0  0
   23.9927  -19.0611  -14.9028 O   0  0  0  0  0  0  0  0  0  0  0  0
   21.6301  -20.6660   -9.7182 N   0  0  0  0  0  0  0  0  0  0  0  0
   20.9019  -23.3776  -18.3809 C   0  0  0  0  0  0  0  0  0  0  0  0
   19.9897  -22.3277  -18.1541 O   0  0  0  0  0  0  0  0  0  0  0  0
   18.9508  -22.2674  -18.8648 C   0  0  0  0  0  0  0  0  0  0  0  0
   20.2416  -21.3261  -17.1048 C   0  0  0  0  0  0  0  0  0  0  0  0
   21.4481  -21.5722  -16.2638 C   0  0  1  0  0  0  0  0  0  0  0  0
   21.7228  -20.5753  -15.1952 N   0  0  0  0  0  0  0  0  0  0  0  0
   22.8973  -21.0320  -14.3988 C   0  0  0  0  0  0  0  0  0  0  0  0
   20.6786  -20.1112  -14.3222 O   0  0  0  0  0  0  0  0  0  0  0  0
   19.6346  -19.3375  -14.8566 O   0  0  0  0  0  0  0  0  0  0  0  0
  2  1  1  1
  2  3  1  0
  2  4  1  0
  5  4  1  0
  5  6  1  6
  7  8  2  0
  7  5  1  0
 10  9  1  0
 10 12  1  0
 11 10  2  0
 12 13  1  0
 13 14  1  0
 14 15  1  0
 16 15  1  1
 16 17  1  0
 17  7  1  0
 18 16  1  0
 18 19  2  0
 20 21  1  0
 21 23  1  0
 21 22  2  0
 23 24  1  0
 25 24  1  6
 25 26  1  0
 25 27  1  0
 26 18  1  0
 27 29  2  0
 27 28  1  0
M  END
$$$$
