LRQ.pdb
     RDKit          3D

 29 28  0  0  1  0  0  0  0  0999 V2000
   26.0299  -20.8693   -6.9121 C   0  0  0  0  0  0  0  0  0  0  0  0
   27.1107  -20.3617   -7.8488 C   0  0  2  0  0  0  0  0  0  0  0  0
   28.0299  -19.3956   -7.1459 C   0  0  0  0  0  0  0  0  0  0  0  0
   26.5050  -19.7460   -9.0939 C   0  0  0  0  0  0  0  0  0  0  0  0
   25.6624  -20.7351   -9.8365 C   0  0  2  0  0  0  0  0  0  0  0  0
   26.3608  -21.9401  -10.2099 N   0  0  0  0  0  0  0  0  0  0  0  0
   25.0280  -20.0719  -11.0129 C   0  0  0  0  0  0  0  0  0  0  0  0
   24.2733  -19.0822  -10.8347 O   0  0  0  0  0  0  0  0  0  0  0  0
   28.5548  -21.6798  -14.6723 N   0  0  0  0  0  0  0  0  0  0  0  0
   28.6473  -21.0401  -15.9564 C   0  0  0  0  0  0  0  0  0  0  0  0
   29.5816  -21.3504  -16.7843 N   0  0  0  0  0  0  0  0  0  0  0  0
   27.6792  -20.0565  -16.2839 N   0  0  0  0  0  0  0  0  0  0  0  0
   27.6438  -18.7542  -15.6823 C   0  0  0  0  0  0  0  0  0  0  0  0
   26.7674  -18.8112  -14.4460 C   0  0  0  0  0  0  0  0  0  0  0  0
   25.6321  -19.7792  -14.5765 C   0  0  0  0  0  0  0  0  0  0  0  0
   24.6209  -19.7485  -13.4593 C   0  0  2  0  0  0  0  0  0  0  0  0
   25.2324  -20.5020  -12.3330 N   0  0  0  0  0  0  0  0  0  0  0  0
   23.3800  -20.4803  -13.7913 C   0  0  0  0  0  0  0  0  0  0  0  0
   23.3035  -21.7332  -13.5728 O   0  0  0  0  0  0  0  0  0  0  0  0
   29.6106  -20.9348  -17.7341 N   0  0  0  0  0  0  0  0  0  0  0  0
   20.0131  -21.6418  -10.0784 C   0  0  0  0  0  0  0  0  0  0  0  0
   19.4209  -21.7087  -11.3553 O   0  0  0  0  0  0  0  0  0  0  0  0
   18.4925  -22.5391  -11.5467 C   0  0  0  0  0  0  0  0  0  0  0  0
   19.8726  -20.8230  -12.4412 C   0  0  0  0  0  0  0  0  0  0  0  0
   20.6901  -21.4790  -13.5018 C   0  0  1  0  0  0  0  0  0  0  0  0
   21.0418  -20.6401  -14.6781 N   0  0  0  0  0  0  0  0  0  0  0  0
   22.2493  -19.8297  -14.3500 C   0  0  0  0  0  0  0  0  0  0  0  0
   20.0560  -19.8232  -15.3328 O   0  0  0  0  0  0  0  0  0  0  0  0
   20.3036  -18.4494  -15.4926 O   0  0  0  0  0  0  0  0  0  0  0  0
  2  1  1  1
  2  3  1  0
  2  4  1  0
  5  4  1  0
  5  6  1  6
  7  8  2  0
  7  5  1  0
 10  9  1  0
 10 12  1  0
 11 10  2  0
 12 13  1  0
 13 14  1  0
 14 15  1  0
 16 15  1  6
 16 17  1  0
 17  7  1  0
 18 16  1  0
 18 19  2  0
 20 21  1  0
 21 23  1  0
 21 22  2  0
 23 24  1  0
 25 24  1  6
 25 26  1  0
 25 27  1  0
 26 18  1  0
 27 29  2  0
 27 28  1  0
M  END
$$$$
