LRQ.pdb
     RDKit          3D

 29 28  0  0  1  0  0  0  0  0999 V2000
   18.7411  -28.2621  -11.2707 C   0  0  0  0  0  0  0  0  0  0  0  0
   19.7402  -27.1661  -10.9487 C   0  0  2  0  0  0  0  0  0  0  0  0
   21.1566  -27.6592  -11.1009 C   0  0  0  0  0  0  0  0  0  0  0  0
   19.4957  -26.5976   -9.5655 C   0  0  0  0  0  0  0  0  0  0  0  0
   18.1465  -25.9572   -9.4700 C   0  0  2  0  0  0  0  0  0  0  0  0
   17.8930  -24.9648  -10.4848 N   0  0  0  0  0  0  0  0  0  0  0  0
   17.9449  -25.4124   -8.0956 C   0  0  0  0  0  0  0  0  0  0  0  0
   17.9784  -24.1694   -7.9100 O   0  0  0  0  0  0  0  0  0  0  0  0
   12.1220  -21.9219   -7.0417 N   0  0  0  0  0  0  0  0  0  0  0  0
   13.2227  -22.0339   -7.9596 C   0  0  0  0  0  0  0  0  0  0  0  0
   13.0886  -21.7072   -9.1965 N   0  0  0  0  0  0  0  0  0  0  0  0
   14.4606  -22.5157   -7.4623 N   0  0  0  0  0  0  0  0  0  0  0  0
   14.7044  -22.7755   -6.0722 C   0  0  0  0  0  0  0  0  0  0  0  0
   16.0696  -23.4198   -5.9280 C   0  0  0  0  0  0  0  0  0  0  0  0
   16.0143  -24.9165   -5.9292 C   0  0  0  0  0  0  0  0  0  0  0  0
   17.3266  -25.6149   -5.6807 C   0  0  2  0  0  0  0  0  0  0  0  0
   17.7154  -26.2290   -6.9776 N   0  0  0  0  0  0  0  0  0  0  0  0
   17.2029  -26.7442   -4.7347 C   0  0  0  0  0  0  0  0  0  0  0  0
   16.9442  -27.9130   -5.1709 O   0  0  0  0  0  0  0  0  0  0  0  0
   13.8540  -21.8722   -9.8764 N   0  0  0  0  0  0  0  0  0  0  0  0
   19.6448  -30.9580   -4.8295 C   0  0  0  0  0  0  0  0  0  0  0  0
   19.0808  -30.8248   -3.5450 O   0  0  0  0  0  0  0  0  0  0  0  0
   18.2704  -31.7043   -3.1479 C   0  0  0  0  0  0  0  0  0  0  0  0
   19.4358  -29.6857   -2.6822 C   0  0  0  0  0  0  0  0  0  0  0  0
   19.0132  -28.3473   -3.1861 C   0  0  2  0  0  0  0  0  0  0  0  0
   17.8338  -27.7333   -2.5205 N   0  0  0  0  0  0  0  0  0  0  0  0
   17.3677  -26.5752   -3.3353 C   0  0  0  0  0  0  0  0  0  0  0  0
   17.8634  -27.3821   -1.1263 O   0  0  0  0  0  0  0  0  0  0  0  0
   17.4604  -28.3327   -0.1734 O   0  0  0  0  0  0  0  0  0  0  0  0
  2  1  1  1
  2  3  1  0
  2  4  1  0
  5  4  1  0
  5  6  1  6
  7  8  2  0
  7  5  1  0
 10  9  1  0
 10 12  1  0
 11 10  2  0
 12 13  1  0
 13 14  1  0
 14 15  1  0
 16 15  1  6
 16 17  1  0
 17  7  1  0
 18 16  1  0
 18 19  2  0
 20 21  1  0
 21 23  1  0
 21 22  2  0
 23 24  1  0
 25 24  1  6
 25 26  1  0
 25 27  1  0
 26 18  1  0
 27 29  2  0
 27 28  1  0
M  END
$$$$
