LRQ.pdb
     RDKit          3D

 29 28  0  0  1  0  0  0  0  0999 V2000
   27.3379  -16.5787  -21.5872 C   0  0  0  0  0  0  0  0  0  0  0  0
   28.3366  -17.5264  -20.9489 C   0  0  2  0  0  0  0  0  0  0  0  0
   29.1875  -18.2039  -21.9926 C   0  0  0  0  0  0  0  0  0  0  0  0
   27.6367  -18.5362  -20.0619 C   0  0  0  0  0  0  0  0  0  0  0  0
   26.7648  -17.8612  -19.0500 C   0  0  2  0  0  0  0  0  0  0  0  0
   27.3693  -16.7100  -18.4269 N   0  0  0  0  0  0  0  0  0  0  0  0
   26.2983  -18.8587  -18.0433 C   0  0  0  0  0  0  0  0  0  0  0  0
   25.7150  -19.9035  -18.4294 O   0  0  0  0  0  0  0  0  0  0  0  0
   24.3486  -20.5974  -10.7181 N   0  0  0  0  0  0  0  0  0  0  0  0
   25.6938  -20.8116  -10.2585 C   0  0  0  0  0  0  0  0  0  0  0  0
   26.0427  -20.4933   -9.0620 N   0  0  0  0  0  0  0  0  0  0  0  0
   26.6254  -21.3835  -11.1624 N   0  0  0  0  0  0  0  0  0  0  0  0
   27.2320  -20.6515  -12.2373 C   0  0  0  0  0  0  0  0  0  0  0  0
   26.2182  -20.4940  -13.3540 C   0  0  0  0  0  0  0  0  0  0  0  0
   26.7507  -19.7272  -14.5251 C   0  0  0  0  0  0  0  0  0  0  0  0
   25.8254  -19.6269  -15.7106 C   0  0  2  0  0  0  0  0  0  0  0  0
   26.4790  -18.6899  -16.6618 N   0  0  0  0  0  0  0  0  0  0  0  0
   24.5295  -19.0006  -15.3728 C   0  0  0  0  0  0  0  0  0  0  0  0
   24.3749  -17.7440  -15.5155 O   0  0  0  0  0  0  0  0  0  0  0  0
   27.0064  -20.6722   -8.7233 N   0  0  0  0  0  0  0  0  0  0  0  0
   20.6243  -19.5124  -18.8052 C   0  0  0  0  0  0  0  0  0  0  0  0
   19.9529  -18.5711  -17.9999 O   0  0  0  0  0  0  0  0  0  0  0  0
   18.8287  -18.1459  -18.3788 C   0  0  0  0  0  0  0  0  0  0  0  0
   20.5489  -18.0989  -16.7390 C   0  0  0  0  0  0  0  0  0  0  0  0
   21.8846  -18.6739  -16.4096 C   0  0  1  0  0  0  0  0  0  0  0  0
   22.0554  -19.1988  -15.0288 N   0  0  0  0  0  0  0  0  0  0  0  0
   23.4304  -19.7581  -14.8912 C   0  0  0  0  0  0  0  0  0  0  0  0
   21.0924  -20.0945  -14.4473 O   0  0  0  0  0  0  0  0  0  0  0  0
   19.8639  -19.5803  -13.9997 O   0  0  0  0  0  0  0  0  0  0  0  0
  2  1  1  6
  2  3  1  0
  2  4  1  0
  5  4  1  0
  5  6  1  1
  7  8  2  0
  7  5  1  0
 10  9  1  0
 10 12  1  0
 11 10  2  0
 12 13  1  0
 13 14  1  0
 14 15  1  0
 16 15  1  1
 16 17  1  0
 17  7  1  0
 18 16  1  0
 18 19  2  0
 20 21  1  0
 21 23  1  0
 21 22  2  0
 23 24  1  0
 25 24  1  1
 25 26  1  0
 25 27  1  0
 26 18  1  0
 27 29  2  0
 27 28  1  0
M  END
$$$$
