KDW.pdb
     RDKit          3D

 32 33  0  0  1  0  0  0  0  0999 V2000
    9.2259  -14.4770   21.8045 N   0  0  0  0  0  0  0  0  0  0  0  0
    8.8996  -15.8929   21.6502 C   0  0  1  0  0  0  0  0  0  0  0  0
    8.8535  -16.2462   20.2240 C   0  0  0  0  0  0  0  0  0  0  0  0
    8.5189  -15.1499   19.3036 C   0  0  0  0  0  0  0  0  0  0  0  0
    7.8882  -15.3399   18.0048 C   0  0  0  0  0  0  0  0  0  0  0  0
    7.7486  -14.2446   17.0239 C   0  0  0  0  0  0  0  0  0  0  0  0
    7.1243  -14.7837   15.7645 N   0  0  0  0  0  0  0  0  0  0  0  0
    9.9482  -16.7106   22.3838 C   0  0  0  0  0  0  0  0  0  0  0  0
    9.8346  -17.9519   22.5107 O   0  0  0  0  0  0  0  0  0  0  0  0
   11.0845  -16.0963   22.9474 N   0  0  0  0  0  0  0  0  0  0  0  0
   12.1752  -16.8573   23.6062 C   0  0  1  0  0  0  0  0  0  0  0  0
   13.4597  -16.1261   23.4404 C   0  0  0  0  0  0  0  0  0  0  0  0
   13.9400  -16.1600   22.0545 C   0  0  0  0  0  0  0  0  0  0  0  0
   14.3856  -15.1537   21.4419 O   0  0  0  0  0  0  0  0  0  0  0  0
   11.8298  -17.0668   25.0208 C   0  0  0  0  0  0  0  0  0  0  0  0
   12.6686  -17.6824   25.7625 O   0  0  0  0  0  0  0  0  0  0  0  0
   13.8859  -17.4067   21.3984 O   0  0  0  0  0  0  0  0  0  0  0  0
   10.6301  -16.6285   25.6301 N   0  0  0  0  0  0  0  0  0  0  0  0
   10.3266  -16.9347   27.0222 C   0  0  1  0  0  0  0  0  0  0  0  0
    9.6516  -15.7310   27.6894 C   0  0  0  0  0  0  0  0  0  0  0  0
    8.3737  -15.4330   27.0103 C   0  0  0  0  0  0  0  0  0  0  0  0
    7.3815  -16.2717   26.5594 C   0  0  0  0  0  0  0  0  0  0  0  0
    6.3883  -15.5580   26.0005 N   0  0  0  0  0  0  0  0  0  0  0  0
    6.6995  -14.2284   26.0682 C   0  0  0  0  0  0  0  0  0  0  0  0
    6.0405  -13.0884   25.6522 C   0  0  0  0  0  0  0  0  0  0  0  0
    6.5858  -11.8384   25.8463 C   0  0  0  0  0  0  0  0  0  0  0  0
    7.8141  -11.7399   26.4691 C   0  0  0  0  0  0  0  0  0  0  0  0
    8.4577  -12.8884   26.8777 C   0  0  0  0  0  0  0  0  0  0  0  0
    7.9247  -14.1506   26.6911 C   0  0  0  0  0  0  0  0  0  0  0  0
    9.5692  -18.1665   27.2223 C   0  0  0  0  0  0  0  0  0  0  0  0
    8.9911  -18.7762   26.2998 O   0  0  0  0  0  0  0  0  0  0  0  0
    9.4386  -18.7603   28.4935 O   0  0  0  0  0  0  0  0  0  0  0  0
  2  3  1  0
  2  1  1  6
  3  4  1  0
  5  4  1  0
  6  5  1  0
  7  6  1  0
  8  2  1  0
  8  9  2  0
 10  8  1  0
 11 10  1  0
 12 13  1  0
 11 12  1  1
 13 14  2  0
 15 18  1  0
 15 11  1  0
 16 15  2  0
 17 13  1  0
 19 18  1  0
 19 30  1  0
 19 20  1  6
 21 20  1  0
 21 29  1  0
 22 23  1  0
 22 21  2  0
 23 24  1  0
 24 25  1  0
 24 29  2  0
 25 26  2  0
 26 27  1  0
 28 27  2  0
 29 28  1  0
 30 31  2  0
 30 32  1  0
M  END
$$$$
