KDW.pdb
     RDKit          3D

 32 33  0  0  1  0  0  0  0  0999 V2000
    6.2906  -18.7050   22.2744 N   0  0  0  0  0  0  0  0  0  0  0  0
    7.2672  -19.7915   22.2401 C   0  0  1  0  0  0  0  0  0  0  0  0
    6.9325  -20.7351   21.1637 C   0  0  0  0  0  0  0  0  0  0  0  0
    6.2491  -20.1587   19.9967 C   0  0  0  0  0  0  0  0  0  0  0  0
    5.9232  -20.9075   18.7910 C   0  0  0  0  0  0  0  0  0  0  0  0
    5.4606  -20.2511   17.5515 C   0  0  0  0  0  0  0  0  0  0  0  0
    5.2356  -21.2963   16.4916 N   0  0  0  0  0  0  0  0  0  0  0  0
    8.6469  -19.1914   22.0335 C   0  0  0  0  0  0  0  0  0  0  0  0
    9.6802  -19.8971   22.0977 O   0  0  0  0  0  0  0  0  0  0  0  0
    8.8082  -17.8175   21.7636 N   0  0  0  0  0  0  0  0  0  0  0  0
   10.1356  -17.1622   21.6573 C   0  0  1  0  0  0  0  0  0  0  0  0
   10.0747  -16.0823   20.6364 C   0  0  0  0  0  0  0  0  0  0  0  0
   10.1270  -16.6111   19.2688 C   0  0  0  0  0  0  0  0  0  0  0  0
   10.6581  -17.7112   18.9623 O   0  0  0  0  0  0  0  0  0  0  0  0
   10.5309  -16.6578   22.9816 C   0  0  0  0  0  0  0  0  0  0  0  0
   11.6499  -16.0499   23.0870 O   0  0  0  0  0  0  0  0  0  0  0  0
    9.5398  -15.8172   18.2626 O   0  0  0  0  0  0  0  0  0  0  0  0
    9.7557  -16.7906   24.1581 N   0  0  0  0  0  0  0  0  0  0  0  0
   10.2822  -16.4145   25.4638 C   0  0  1  0  0  0  0  0  0  0  0  0
    9.9005  -14.9653   25.7863 C   0  0  0  0  0  0  0  0  0  0  0  0
    8.4299  -14.8360   25.8467 C   0  0  0  0  0  0  0  0  0  0  0  0
    7.4396  -15.7729   25.6654 C   0  0  0  0  0  0  0  0  0  0  0  0
    6.2300  -15.2058   25.8179 N   0  0  0  0  0  0  0  0  0  0  0  0
    6.3906  -13.8786   26.1041 C   0  0  0  0  0  0  0  0  0  0  0  0
    5.4948  -12.8566   26.3494 C   0  0  0  0  0  0  0  0  0  0  0  0
    5.9285  -11.5774   26.6194 C   0  0  0  0  0  0  0  0  0  0  0  0
    7.2863  -11.3281   26.6413 C   0  0  0  0  0  0  0  0  0  0  0  0
    8.1661  -12.3601   26.3940 C   0  0  0  0  0  0  0  0  0  0  0  0
    7.7480  -13.6497   26.1218 C   0  0  0  0  0  0  0  0  0  0  0  0
    9.9290  -17.3269   26.5473 C   0  0  0  0  0  0  0  0  0  0  0  0
    9.1047  -18.2554   26.4235 O   0  0  0  0  0  0  0  0  0  0  0  0
   10.5062  -17.2182   27.8281 O   0  0  0  0  0  0  0  0  0  0  0  0
  2  3  1  0
  2  1  1  6
  3  4  1  0
  5  4  1  0
  6  5  1  0
  7  6  1  0
  8  2  1  0
  8  9  2  0
 10  8  1  0
 11 10  1  0
 12 13  1  0
 11 12  1  6
 13 14  2  0
 15 18  1  0
 15 11  1  0
 16 15  2  0
 17 13  1  0
 19 18  1  0
 19 30  1  0
 19 20  1  1
 21 20  1  0
 21 29  1  0
 22 23  1  0
 22 21  2  0
 23 24  1  0
 24 25  1  0
 24 29  2  0
 25 26  2  0
 26 27  1  0
 28 27  2  0
 29 28  1  0
 30 31  2  0
 30 32  1  0
M  END
$$$$
