KDW.pdb
     RDKit          3D

 32 33  0  0  1  0  0  0  0  0999 V2000
    9.6696  -15.3095   19.1862 N   0  0  0  0  0  0  0  0  0  0  0  0
    8.8428  -14.8437   20.2974 C   0  0  1  0  0  0  0  0  0  0  0  0
    7.4229  -14.8816   19.9185 C   0  0  0  0  0  0  0  0  0  0  0  0
    7.1422  -14.7933   18.4782 C   0  0  0  0  0  0  0  0  0  0  0  0
    7.7830  -13.8431   17.5797 C   0  0  0  0  0  0  0  0  0  0  0  0
    7.4803  -13.7906   16.1351 C   0  0  0  0  0  0  0  0  0  0  0  0
    8.2880  -12.6908   15.4992 N   0  0  0  0  0  0  0  0  0  0  0  0
    9.1126  -15.7290   21.5014 C   0  0  0  0  0  0  0  0  0  0  0  0
    8.3469  -15.7307   22.4932 O   0  0  0  0  0  0  0  0  0  0  0  0
   10.2369  -16.5779   21.5411 N   0  0  0  0  0  0  0  0  0  0  0  0
   10.4689  -17.5667   22.6234 C   0  0  1  0  0  0  0  0  0  0  0  0
   11.6179  -18.4384   22.2601 C   0  0  0  0  0  0  0  0  0  0  0  0
   11.4229  -19.0983   20.9643 C   0  0  0  0  0  0  0  0  0  0  0  0
   10.4143  -19.7960   20.6774 O   0  0  0  0  0  0  0  0  0  0  0  0
   10.6884  -16.8515   23.8901 C   0  0  0  0  0  0  0  0  0  0  0  0
   11.6450  -16.0064   23.9486 O   0  0  0  0  0  0  0  0  0  0  0  0
   12.4424  -18.9217   20.0066 O   0  0  0  0  0  0  0  0  0  0  0  0
    9.9089  -17.0254   25.0584 N   0  0  0  0  0  0  0  0  0  0  0  0
   10.3560  -16.5284   26.3534 C   0  0  1  0  0  0  0  0  0  0  0  0
   10.0405  -15.0336   26.4794 C   0  0  0  0  0  0  0  0  0  0  0  0
    8.5907  -14.8107   26.3025 C   0  0  0  0  0  0  0  0  0  0  0  0
    7.5843  -15.6846   25.9637 C   0  0  0  0  0  0  0  0  0  0  0  0
    6.4048  -15.0405   25.9199 N   0  0  0  0  0  0  0  0  0  0  0  0
    6.6022  -13.7234   26.2290 C   0  0  0  0  0  0  0  0  0  0  0  0
    5.7461  -12.6444   26.3277 C   0  0  0  0  0  0  0  0  0  0  0  0
    6.2119  -11.3927   26.6647 C   0  0  0  0  0  0  0  0  0  0  0  0
    7.5618  -11.2298   26.9050 C   0  0  0  0  0  0  0  0  0  0  0  0
    8.4018  -12.3178   26.8019 C   0  0  0  0  0  0  0  0  0  0  0  0
    7.9510  -13.5809   26.4651 C   0  0  0  0  0  0  0  0  0  0  0  0
    9.8653  -17.2892   27.4986 C   0  0  0  0  0  0  0  0  0  0  0  0
   10.1683  -17.0262   28.6800 O   0  0  0  0  0  0  0  0  0  0  0  0
    9.0006  -18.3910   27.3433 O   0  0  0  0  0  0  0  0  0  0  0  0
  2  3  1  0
  2  1  1  6
  3  4  1  0
  5  4  1  0
  6  5  1  0
  7  6  1  0
  8  2  1  0
  8  9  2  0
 10  8  1  0
 11 10  1  0
 12 13  1  0
 11 12  1  6
 13 14  2  0
 15 18  1  0
 15 11  1  0
 16 15  2  0
 17 13  1  0
 19 18  1  0
 19 30  1  0
 19 20  1  1
 21 20  1  0
 21 29  1  0
 22 23  1  0
 22 21  2  0
 23 24  1  0
 24 25  1  0
 24 29  2  0
 25 26  2  0
 26 27  1  0
 28 27  2  0
 29 28  1  0
 30 31  2  0
 30 32  1  0
M  END
$$$$
