KDW.pdb
     RDKit          3D

 32 33  0  0  1  0  0  0  0  0999 V2000
    6.4747  -16.4322   20.0785 N   0  0  0  0  0  0  0  0  0  0  0  0
    7.7461  -15.7659   20.3523 C   0  0  1  0  0  0  0  0  0  0  0  0
    7.5037  -14.4021   20.8445 C   0  0  0  0  0  0  0  0  0  0  0  0
    7.4773  -13.3474   19.8208 C   0  0  0  0  0  0  0  0  0  0  0  0
    7.9507  -13.5251   18.4552 C   0  0  0  0  0  0  0  0  0  0  0  0
    7.9693  -12.4221   17.4732 C   0  0  0  0  0  0  0  0  0  0  0  0
    8.5303  -12.9275   16.1708 N   0  0  0  0  0  0  0  0  0  0  0  0
    8.5102  -16.5896   21.3740 C   0  0  0  0  0  0  0  0  0  0  0  0
    7.9175  -17.1966   22.2960 O   0  0  0  0  0  0  0  0  0  0  0  0
    9.9144  -16.6961   21.3172 N   0  0  0  0  0  0  0  0  0  0  0  0
   10.7118  -17.4496   22.3168 C   0  0  1  0  0  0  0  0  0  0  0  0
   12.0598  -17.7392   21.7589 C   0  0  0  0  0  0  0  0  0  0  0  0
   12.9165  -18.4421   22.7205 C   0  0  0  0  0  0  0  0  0  0  0  0
   12.5181  -19.3817   23.4585 O   0  0  0  0  0  0  0  0  0  0  0  0
   10.7783  -16.6727   23.5643 C   0  0  0  0  0  0  0  0  0  0  0  0
   11.2946  -15.5047   23.5216 O   0  0  0  0  0  0  0  0  0  0  0  0
   14.2583  -18.0165   22.7986 O   0  0  0  0  0  0  0  0  0  0  0  0
   10.3034  -17.1226   24.8193 N   0  0  0  0  0  0  0  0  0  0  0  0
   10.5131  -16.3476   26.0355 C   0  0  1  0  0  0  0  0  0  0  0  0
   10.0345  -14.9061   25.8285 C   0  0  0  0  0  0  0  0  0  0  0  0
    8.5576  -14.8630   25.8319 C   0  0  0  0  0  0  0  0  0  0  0  0
    7.6313  -15.8717   25.7068 C   0  0  0  0  0  0  0  0  0  0  0  0
    6.3857  -15.3692   25.7697 N   0  0  0  0  0  0  0  0  0  0  0  0
    6.4576  -14.0143   25.9382 C   0  0  0  0  0  0  0  0  0  0  0  0
    5.4950  -13.0318   26.0617 C   0  0  0  0  0  0  0  0  0  0  0  0
    5.8428  -11.7092   26.2268 C   0  0  0  0  0  0  0  0  0  0  0  0
    7.1820  -11.3756   26.2673 C   0  0  0  0  0  0  0  0  0  0  0  0
    8.1292  -12.3691   26.1424 C   0  0  0  0  0  0  0  0  0  0  0  0
    7.7977  -13.7013   25.9765 C   0  0  0  0  0  0  0  0  0  0  0  0
    9.9464  -16.9440   27.2413 C   0  0  0  0  0  0  0  0  0  0  0  0
    9.9287  -16.3707   28.3494 O   0  0  0  0  0  0  0  0  0  0  0  0
    9.3704  -18.2301   27.2341 O   0  0  0  0  0  0  0  0  0  0  0  0
  2  3  1  0
  2  1  1  1
  3  4  1  0
  5  4  1  0
  6  5  1  0
  7  6  1  0
  8  2  1  0
  8  9  2  0
 10  8  1  0
 11 10  1  0
 12 13  1  0
 11 12  1  6
 13 14  2  0
 15 18  1  0
 15 11  1  0
 16 15  2  0
 17 13  1  0
 19 18  1  0
 19 30  1  0
 19 20  1  6
 21 20  1  0
 21 29  1  0
 22 23  1  0
 22 21  2  0
 23 24  1  0
 24 25  1  0
 24 29  2  0
 25 26  2  0
 26 27  1  0
 28 27  2  0
 29 28  1  0
 30 31  2  0
 30 32  1  0
M  END
$$$$
