KDW.pdb
     RDKit          3D

 32 33  0  0  1  0  0  0  0  0999 V2000
    7.6926  -15.7960   22.6865 N   0  0  0  0  0  0  0  0  0  0  0  0
    7.6178  -16.8410   21.6679 C   0  0  1  0  0  0  0  0  0  0  0  0
    7.3911  -16.2397   20.3458 C   0  0  0  0  0  0  0  0  0  0  0  0
    7.7380  -14.8165   20.2219 C   0  0  0  0  0  0  0  0  0  0  0  0
    7.5788  -14.0423   18.9989 C   0  0  0  0  0  0  0  0  0  0  0  0
    7.9600  -12.6183   18.9073 C   0  0  0  0  0  0  0  0  0  0  0  0
    7.8691  -12.1723   17.4723 N   0  0  0  0  0  0  0  0  0  0  0  0
    8.9135  -17.6326   21.6952 C   0  0  0  0  0  0  0  0  0  0  0  0
    9.3874  -18.1422   20.6533 O   0  0  0  0  0  0  0  0  0  0  0  0
    9.6247  -17.8202   22.8975 N   0  0  0  0  0  0  0  0  0  0  0  0
   10.8060  -17.0057   23.2767 C   0  0  1  0  0  0  0  0  0  0  0  0
   10.8434  -15.7712   22.4480 C   0  0  0  0  0  0  0  0  0  0  0  0
   11.9838  -15.7596   21.5249 C   0  0  0  0  0  0  0  0  0  0  0  0
   11.8944  -15.4655   20.3035 O   0  0  0  0  0  0  0  0  0  0  0  0
   10.7453  -16.7107   24.7167 C   0  0  0  0  0  0  0  0  0  0  0  0
   11.5944  -15.8877   25.2009 O   0  0  0  0  0  0  0  0  0  0  0  0
   13.2387  -16.1025   22.0683 O   0  0  0  0  0  0  0  0  0  0  0  0
    9.8047  -17.2698   25.6141 N   0  0  0  0  0  0  0  0  0  0  0  0
    9.8242  -16.9491   27.0355 C   0  0  1  0  0  0  0  0  0  0  0  0
    8.3911  -16.8188   27.5640 C   0  0  0  0  0  0  0  0  0  0  0  0
    7.6086  -15.9328   26.6776 C   0  0  0  0  0  0  0  0  0  0  0  0
    6.6431  -16.2258   25.7432 C   0  0  0  0  0  0  0  0  0  0  0  0
    6.1950  -15.0959   25.1682 N   0  0  0  0  0  0  0  0  0  0  0  0
    6.8538  -14.0268   25.7087 C   0  0  0  0  0  0  0  0  0  0  0  0
    6.7786  -12.6665   25.4827 C   0  0  0  0  0  0  0  0  0  0  0  0
    7.5723  -11.7826   26.1801 C   0  0  0  0  0  0  0  0  0  0  0  0
    8.4541  -12.2810   27.1184 C   0  0  0  0  0  0  0  0  0  0  0  0
    8.5159  -13.6416   27.3309 C   0  0  0  0  0  0  0  0  0  0  0  0
    7.7265  -14.5426   26.6402 C   0  0  0  0  0  0  0  0  0  0  0  0
   10.6277  -17.8541   27.8518 C   0  0  0  0  0  0  0  0  0  0  0  0
   11.1865  -18.8744   27.4007 O   0  0  0  0  0  0  0  0  0  0  0  0
   10.8300  -17.6315   29.2285 O   0  0  0  0  0  0  0  0  0  0  0  0
  2  3  1  0
  2  1  1  1
  3  4  1  0
  5  4  1  0
  6  5  1  0
  7  6  1  0
  8  2  1  0
  8  9  2  0
 10  8  1  0
 11 10  1  0
 12 13  1  0
 11 12  1  6
 13 14  2  0
 15 18  1  0
 15 11  1  0
 16 15  2  0
 17 13  1  0
 19 18  1  0
 19 30  1  0
 19 20  1  1
 21 20  1  0
 21 29  1  0
 22 23  1  0
 22 21  2  0
 23 24  1  0
 24 25  1  0
 24 29  2  0
 25 26  2  0
 26 27  1  0
 28 27  2  0
 29 28  1  0
 30 31  2  0
 30 32  1  0
M  END
$$$$
