KDW.pdb
     RDKit          3D

 32 33  0  0  1  0  0  0  0  0999 V2000
    8.3131  -17.3251   18.5159 N   0  0  0  0  0  0  0  0  0  0  0  0
    9.1246  -16.2357   19.0545 C   0  0  1  0  0  0  0  0  0  0  0  0
    8.2772  -15.0672   19.3330 C   0  0  0  0  0  0  0  0  0  0  0  0
    8.3301  -13.9865   18.3379 C   0  0  0  0  0  0  0  0  0  0  0  0
    8.3663  -14.2049   16.8986 C   0  0  0  0  0  0  0  0  0  0  0  0
    8.4553  -13.0930   15.9305 C   0  0  0  0  0  0  0  0  0  0  0  0
    8.3759  -13.6458   14.5324 N   0  0  0  0  0  0  0  0  0  0  0  0
    9.8126  -16.7271   20.3160 C   0  0  0  0  0  0  0  0  0  0  0  0
    9.2176  -17.4618   21.1383 O   0  0  0  0  0  0  0  0  0  0  0  0
   11.1455  -16.3697   20.6024 N   0  0  0  0  0  0  0  0  0  0  0  0
   11.8193  -16.7084   21.8807 C   0  0  1  0  0  0  0  0  0  0  0  0
   13.2547  -16.3273   21.8003 C   0  0  0  0  0  0  0  0  0  0  0  0
   13.9960  -17.1632   20.8494 C   0  0  0  0  0  0  0  0  0  0  0  0
   13.7763  -18.3912   20.6757 O   0  0  0  0  0  0  0  0  0  0  0  0
   11.1225  -16.0325   22.9861 C   0  0  0  0  0  0  0  0  0  0  0  0
   10.8951  -14.7796   22.8804 O   0  0  0  0  0  0  0  0  0  0  0  0
   15.0067  -16.5244   20.1024 O   0  0  0  0  0  0  0  0  0  0  0  0
   10.6750  -16.6720   24.1666 N   0  0  0  0  0  0  0  0  0  0  0  0
    9.6858  -16.0535   25.0399 C   0  0  1  0  0  0  0  0  0  0  0  0
    8.4747  -15.5951   24.2195 C   0  0  0  0  0  0  0  0  0  0  0  0
    7.4518  -15.0176   25.1157 C   0  0  0  0  0  0  0  0  0  0  0  0
    6.3234  -15.5782   25.6666 C   0  0  0  0  0  0  0  0  0  0  0  0
    5.6815  -14.6762   26.4298 N   0  0  0  0  0  0  0  0  0  0  0  0
    6.3704  -13.4956   26.4024 C   0  0  0  0  0  0  0  0  0  0  0  0
    6.1547  -12.2695   27.0001 C   0  0  0  0  0  0  0  0  0  0  0  0
    7.0234  -11.2183   26.8053 C   0  0  0  0  0  0  0  0  0  0  0  0
    8.1249  -11.4095   25.9950 C   0  0  0  0  0  0  0  0  0  0  0  0
    8.3244  -12.6399   25.4064 C   0  0  0  0  0  0  0  0  0  0  0  0
    7.4630  -13.7056   25.5915 C   0  0  0  0  0  0  0  0  0  0  0  0
    9.2932  -16.8679   26.1860 C   0  0  0  0  0  0  0  0  0  0  0  0
    9.1636  -18.1079   26.1367 O   0  0  0  0  0  0  0  0  0  0  0  0
    9.0300  -16.2977   27.4475 O   0  0  0  0  0  0  0  0  0  0  0  0
  2  3  1  0
  2  1  1  1
  3  4  1  0
  5  4  1  0
  6  5  1  0
  7  6  1  0
  8  2  1  0
  8  9  2  0
 10  8  1  0
 11 10  1  0
 12 13  1  0
 11 12  1  6
 13 14  2  0
 15 18  1  0
 15 11  1  0
 16 15  2  0
 17 13  1  0
 19 18  1  0
 19 30  1  0
 19 20  1  6
 21 20  1  0
 21 29  1  0
 22 23  1  0
 22 21  2  0
 23 24  1  0
 24 25  1  0
 24 29  2  0
 25 26  2  0
 26 27  1  0
 28 27  2  0
 29 28  1  0
 30 31  2  0
 30 32  1  0
M  END
$$$$
