KDW.pdb
     RDKit          3D

 32 33  0  0  1  0  0  0  0  0999 V2000
    9.8048  -13.5581   19.5546 N   0  0  0  0  0  0  0  0  0  0  0  0
    8.6819  -13.5624   20.4897 C   0  0  1  0  0  0  0  0  0  0  0  0
    7.4113  -13.5626   19.7503 C   0  0  0  0  0  0  0  0  0  0  0  0
    7.4412  -14.2015   18.4266 C   0  0  0  0  0  0  0  0  0  0  0  0
    7.9583  -13.5624   17.2246 C   0  0  0  0  0  0  0  0  0  0  0  0
    8.0552  -14.2685   15.9310 C   0  0  0  0  0  0  0  0  0  0  0  0
    6.7314  -14.9137   15.6183 N   0  0  0  0  0  0  0  0  0  0  0  0
    8.7999  -14.7892   21.3769 C   0  0  0  0  0  0  0  0  0  0  0  0
    7.9048  -15.0844   22.2025 O   0  0  0  0  0  0  0  0  0  0  0  0
    9.9241  -15.6357   21.2999 N   0  0  0  0  0  0  0  0  0  0  0  0
   10.0824  -16.8520   22.1354 C   0  0  1  0  0  0  0  0  0  0  0  0
   11.0541  -17.7741   21.4891 C   0  0  0  0  0  0  0  0  0  0  0  0
   11.2012  -19.0309   22.2317 C   0  0  0  0  0  0  0  0  0  0  0  0
   10.3608  -19.4528   23.0697 O   0  0  0  0  0  0  0  0  0  0  0  0
   10.5031  -16.4554   23.4883 C   0  0  0  0  0  0  0  0  0  0  0  0
   11.6787  -15.9781   23.6396 O   0  0  0  0  0  0  0  0  0  0  0  0
   12.3620  -19.7866   21.9692 O   0  0  0  0  0  0  0  0  0  0  0  0
    9.6945  -16.5574   24.6452 N   0  0  0  0  0  0  0  0  0  0  0  0
   10.2661  -16.4791   25.9834 C   0  0  1  0  0  0  0  0  0  0  0  0
    9.7417  -15.2332   26.7062 C   0  0  0  0  0  0  0  0  0  0  0  0
    8.3497  -14.9619   26.2917 C   0  0  0  0  0  0  0  0  0  0  0  0
    7.3510  -15.8179   25.8906 C   0  0  0  0  0  0  0  0  0  0  0  0
    6.2328  -15.1270   25.6072 N   0  0  0  0  0  0  0  0  0  0  0  0
    6.4648  -13.7956   25.8141 C   0  0  0  0  0  0  0  0  0  0  0  0
    5.6722  -12.6730   25.6777 C   0  0  0  0  0  0  0  0  0  0  0  0
    6.1610  -11.4162   25.9589 C   0  0  0  0  0  0  0  0  0  0  0  0
    7.4691  -11.2930   26.3835 C   0  0  0  0  0  0  0  0  0  0  0  0
    8.2458  -12.4243   26.5139 C   0  0  0  0  0  0  0  0  0  0  0  0
    7.7711  -13.6930   26.2364 C   0  0  0  0  0  0  0  0  0  0  0  0
   10.1009  -17.6871   26.7863 C   0  0  0  0  0  0  0  0  0  0  0  0
   10.6116  -17.8383   27.9146 O   0  0  0  0  0  0  0  0  0  0  0  0
    9.3394  -18.7825   26.3326 O   0  0  0  0  0  0  0  0  0  0  0  0
  2  3  1  0
  2  1  1  6
  3  4  1  0
  5  4  1  0
  6  5  1  0
  7  6  1  0
  8  2  1  0
  8  9  2  0
 10  8  1  0
 11 10  1  0
 12 13  1  0
 11 12  1  6
 13 14  2  0
 15 18  1  0
 15 11  1  0
 16 15  2  0
 17 13  1  0
 19 18  1  0
 19 30  1  0
 19 20  1  1
 21 20  1  0
 21 29  1  0
 22 23  1  0
 22 21  2  0
 23 24  1  0
 24 25  1  0
 24 29  2  0
 25 26  2  0
 26 27  1  0
 28 27  2  0
 29 28  1  0
 30 31  2  0
 30 32  1  0
M  END
$$$$
