KDW.pdb
     RDKit          3D

 32 33  0  0  1  0  0  0  0  0999 V2000
    9.8040  -14.2054   18.7574 N   0  0  0  0  0  0  0  0  0  0  0  0
    8.7848  -13.8918   19.7565 C   0  0  1  0  0  0  0  0  0  0  0  0
    7.4769  -13.7261   19.1063 C   0  0  0  0  0  0  0  0  0  0  0  0
    7.5106  -13.4333   17.6661 C   0  0  0  0  0  0  0  0  0  0  0  0
    7.7547  -14.4337   16.6364 C   0  0  0  0  0  0  0  0  0  0  0  0
    7.6473  -14.1299   15.1951 C   0  0  0  0  0  0  0  0  0  0  0  0
    7.8452  -15.3963   14.4055 N   0  0  0  0  0  0  0  0  0  0  0  0
    8.7509  -15.0153   20.7776 C   0  0  0  0  0  0  0  0  0  0  0  0
    7.8239  -15.1060   21.6157 O   0  0  0  0  0  0  0  0  0  0  0  0
    9.7651  -15.9933   20.8151 N   0  0  0  0  0  0  0  0  0  0  0  0
    9.7771  -17.1125   21.7898 C   0  0  1  0  0  0  0  0  0  0  0  0
   10.6937  -18.1798   21.3075 C   0  0  0  0  0  0  0  0  0  0  0  0
   12.0238  -17.6573   20.9751 C   0  0  0  0  0  0  0  0  0  0  0  0
   12.7501  -17.0219   21.7845 O   0  0  0  0  0  0  0  0  0  0  0  0
   10.1667  -16.5960   23.1111 C   0  0  0  0  0  0  0  0  0  0  0  0
   10.9773  -15.6094   23.1589 O   0  0  0  0  0  0  0  0  0  0  0  0
   12.4865  -17.8971   19.6651 O   0  0  0  0  0  0  0  0  0  0  0  0
    9.7026  -17.1099   24.3453 N   0  0  0  0  0  0  0  0  0  0  0  0
   10.1075  -16.5220   25.6158 C   0  0  1  0  0  0  0  0  0  0  0  0
    9.8240  -15.0156   25.6113 C   0  0  0  0  0  0  0  0  0  0  0  0
    8.3673  -14.7795   25.6838 C   0  0  0  0  0  0  0  0  0  0  0  0
    7.3094  -15.6183   25.4226 C   0  0  0  0  0  0  0  0  0  0  0  0
    6.1458  -14.9754   25.6246 N   0  0  0  0  0  0  0  0  0  0  0  0
    6.4058  -13.6942   26.0249 C   0  0  0  0  0  0  0  0  0  0  0  0
    5.5894  -12.6316   26.3586 C   0  0  0  0  0  0  0  0  0  0  0  0
    6.1181  -11.4177   26.7383 C   0  0  0  0  0  0  0  0  0  0  0  0
    7.4909  -11.2762   26.7808 C   0  0  0  0  0  0  0  0  0  0  0  0
    8.2906  -12.3473   26.4443 C   0  0  0  0  0  0  0  0  0  0  0  0
    7.7766  -13.5726   26.0614 C   0  0  0  0  0  0  0  0  0  0  0  0
    9.5510  -17.1795   26.7944 C   0  0  0  0  0  0  0  0  0  0  0  0
    8.6718  -18.0630   26.7384 O   0  0  0  0  0  0  0  0  0  0  0  0
    9.9778  -16.8547   28.0975 O   0  0  0  0  0  0  0  0  0  0  0  0
  2  3  1  0
  2  1  1  6
  3  4  1  0
  5  4  1  0
  6  5  1  0
  7  6  1  0
  8  2  1  0
  8  9  2  0
 10  8  1  0
 11 10  1  0
 12 13  1  0
 11 12  1  6
 13 14  2  0
 15 18  1  0
 15 11  1  0
 16 15  2  0
 17 13  1  0
 19 18  1  0
 19 30  1  0
 19 20  1  6
 21 20  1  0
 21 29  1  0
 22 23  1  0
 22 21  2  0
 23 24  1  0
 24 25  1  0
 24 29  2  0
 25 26  2  0
 26 27  1  0
 28 27  2  0
 29 28  1  0
 30 31  2  0
 30 32  1  0
M  END
$$$$
