KDW.pdb
     RDKit          3D

 32 33  0  0  1  0  0  0  0  0999 V2000
    6.6684  -18.5494   19.3718 N   0  0  0  0  0  0  0  0  0  0  0  0
    7.7319  -17.5504   19.4515 C   0  0  1  0  0  0  0  0  0  0  0  0
    7.1511  -16.2068   19.5860 C   0  0  0  0  0  0  0  0  0  0  0  0
    8.1032  -15.0886   19.5217 C   0  0  0  0  0  0  0  0  0  0  0  0
    7.7246  -13.6877   19.6434 C   0  0  0  0  0  0  0  0  0  0  0  0
    8.7021  -12.5884   19.5116 C   0  0  0  0  0  0  0  0  0  0  0  0
    7.9755  -11.2707   19.5600 N   0  0  0  0  0  0  0  0  0  0  0  0
    8.6183  -17.8857   20.6381 C   0  0  0  0  0  0  0  0  0  0  0  0
    8.1676  -18.4937   21.6366 O   0  0  0  0  0  0  0  0  0  0  0  0
    9.9796  -17.5209   20.6535 N   0  0  0  0  0  0  0  0  0  0  0  0
   10.8907  -17.8346   21.7824 C   0  0  1  0  0  0  0  0  0  0  0  0
   12.3019  -17.7021   21.3318 C   0  0  0  0  0  0  0  0  0  0  0  0
   13.2540  -18.1217   22.3662 C   0  0  0  0  0  0  0  0  0  0  0  0
   14.2996  -17.4828   22.6575 O   0  0  0  0  0  0  0  0  0  0  0  0
   10.5794  -16.9467   22.9134 C   0  0  0  0  0  0  0  0  0  0  0  0
   10.6980  -15.6860   22.7419 O   0  0  0  0  0  0  0  0  0  0  0  0
   12.9520  -19.3138   23.0554 O   0  0  0  0  0  0  0  0  0  0  0  0
   10.1481  -17.3866   24.1874 N   0  0  0  0  0  0  0  0  0  0  0  0
    9.9554  -16.4539   25.2904 C   0  0  1  0  0  0  0  0  0  0  0  0
    8.6825  -16.8131   26.0653 C   0  0  0  0  0  0  0  0  0  0  0  0
    7.6188  -15.8329   25.7639 C   0  0  0  0  0  0  0  0  0  0  0  0
    6.4582  -15.9646   25.0381 C   0  0  0  0  0  0  0  0  0  0  0  0
    5.7821  -14.8023   25.0281 N   0  0  0  0  0  0  0  0  0  0  0  0
    6.4796  -13.8724   25.7478 C   0  0  0  0  0  0  0  0  0  0  0  0
    6.2393  -12.5464   26.0495 C   0  0  0  0  0  0  0  0  0  0  0  0
    7.1238  -11.8170   26.8131 C   0  0  0  0  0  0  0  0  0  0  0  0
    8.2668  -12.4368   27.2777 C   0  0  0  0  0  0  0  0  0  0  0  0
    8.4906  -13.7610   26.9667 C   0  0  0  0  0  0  0  0  0  0  0  0
    7.6133  -14.5077   26.2020 C   0  0  0  0  0  0  0  0  0  0  0  0
   11.1096  -16.3089   26.1722 C   0  0  0  0  0  0  0  0  0  0  0  0
   11.6523  -15.2132   26.4204 O   0  0  0  0  0  0  0  0  0  0  0  0
   11.6982  -17.4167   26.8141 O   0  0  0  0  0  0  0  0  0  0  0  0
  2  3  1  0
  2  1  1  1
  3  4  1  0
  5  4  1  0
  6  5  1  0
  7  6  1  0
  8  2  1  0
  8  9  2  0
 10  8  1  0
 11 10  1  0
 12 13  1  0
 11 12  1  6
 13 14  2  0
 15 18  1  0
 15 11  1  0
 16 15  2  0
 17 13  1  0
 19 18  1  0
 19 30  1  0
 19 20  1  1
 21 20  1  0
 21 29  1  0
 22 23  1  0
 22 21  2  0
 23 24  1  0
 24 25  1  0
 24 29  2  0
 25 26  2  0
 26 27  1  0
 28 27  2  0
 29 28  1  0
 30 31  2  0
 30 32  1  0
M  END
$$$$
