KDW.pdb
     RDKit          3D

 32 33  0  0  1  0  0  0  0  0999 V2000
    6.8897  -16.6562   20.6888 N   0  0  0  0  0  0  0  0  0  0  0  0
    8.1544  -15.9641   20.9274 C   0  0  1  0  0  0  0  0  0  0  0  0
    7.9025  -14.5514   21.2464 C   0  0  0  0  0  0  0  0  0  0  0  0
    7.4116  -13.7222   20.1361 C   0  0  0  0  0  0  0  0  0  0  0  0
    8.1619  -13.4698   18.9138 C   0  0  0  0  0  0  0  0  0  0  0  0
    7.6347  -12.6291   17.8199 C   0  0  0  0  0  0  0  0  0  0  0  0
    8.5316  -12.7603   16.6178 N   0  0  0  0  0  0  0  0  0  0  0  0
    8.8773  -16.6626   22.0657 C   0  0  0  0  0  0  0  0  0  0  0  0
    8.2683  -17.4196   22.8569 O   0  0  0  0  0  0  0  0  0  0  0  0
   10.2599  -16.4795   22.2687 N   0  0  0  0  0  0  0  0  0  0  0  0
   11.0253  -17.1866   23.3256 C   0  0  1  0  0  0  0  0  0  0  0  0
   12.4806  -17.0819   23.0375 C   0  0  0  0  0  0  0  0  0  0  0  0
   13.2187  -18.2696   23.4819 C   0  0  0  0  0  0  0  0  0  0  0  0
   12.6786  -19.2660   24.0311 O   0  0  0  0  0  0  0  0  0  0  0  0
   10.6727  -16.6195   24.6365 C   0  0  0  0  0  0  0  0  0  0  0  0
   11.0315  -15.4200   24.8919 O   0  0  0  0  0  0  0  0  0  0  0  0
   14.6121  -18.2632   23.2674 O   0  0  0  0  0  0  0  0  0  0  0  0
    9.9536  -17.3060   25.6437 N   0  0  0  0  0  0  0  0  0  0  0  0
    9.9241  -16.8268   27.0196 C   0  0  1  0  0  0  0  0  0  0  0  0
    8.4801  -16.7927   27.5328 C   0  0  0  0  0  0  0  0  0  0  0  0
    7.6665  -15.9001   26.6815 C   0  0  0  0  0  0  0  0  0  0  0  0
    6.7414  -16.1900   25.7063 C   0  0  0  0  0  0  0  0  0  0  0  0
    6.2401  -15.0544   25.1892 N   0  0  0  0  0  0  0  0  0  0  0  0
    6.8221  -13.9846   25.8104 C   0  0  0  0  0  0  0  0  0  0  0  0
    6.6715  -12.6195   25.6653 C   0  0  0  0  0  0  0  0  0  0  0  0
    7.3955  -11.7362   26.4354 C   0  0  0  0  0  0  0  0  0  0  0  0
    8.2839  -12.2400   27.3645 C   0  0  0  0  0  0  0  0  0  0  0  0
    8.4215  -13.6052   27.4957 C   0  0  0  0  0  0  0  0  0  0  0  0
    7.7026  -14.5058   26.7314 C   0  0  0  0  0  0  0  0  0  0  0  0
   10.8116  -17.5422   27.9314 C   0  0  0  0  0  0  0  0  0  0  0  0
   11.4943  -18.5303   27.5931 O   0  0  0  0  0  0  0  0  0  0  0  0
   10.9597  -17.1573   29.2789 O   0  0  0  0  0  0  0  0  0  0  0  0
  2  3  1  0
  2  1  1  1
  3  4  1  0
  5  4  1  0
  6  5  1  0
  7  6  1  0
  8  2  1  0
  8  9  2  0
 10  8  1  0
 11 10  1  0
 12 13  1  0
 11 12  1  6
 13 14  2  0
 15 18  1  0
 15 11  1  0
 16 15  2  0
 17 13  1  0
 19 18  1  0
 19 30  1  0
 19 20  1  1
 21 20  1  0
 21 29  1  0
 22 23  1  0
 22 21  2  0
 23 24  1  0
 24 25  1  0
 24 29  2  0
 25 26  2  0
 26 27  1  0
 28 27  2  0
 29 28  1  0
 30 31  2  0
 30 32  1  0
M  END
$$$$
