CLC.pdb
     RDKit          3D

 21 20  0  0  1  0  0  0  0  0999 V2000
   16.8407  -13.0749  -17.0357 N   0  0  0  0  0  0  0  0  0  0  0  0
   17.6167  -12.0776  -17.7219 C   0  0  1  0  0  0  0  0  0  0  0  0
   16.7447  -11.2004  -18.5986 C   0  0  0  0  0  0  0  0  0  0  0  0
   16.0166  -12.2491  -19.8875 S   0  0  0  0  0  0  0  0  0  0  0  0
   18.2582  -11.1976  -16.7234 C   0  0  0  0  0  0  0  0  0  0  0  0
   17.6292  -10.9035  -15.6548 O   0  0  0  0  0  0  0  0  0  0  0  0
   21.6366   -9.5471  -13.2958 C   0  0  0  0  0  0  0  0  0  0  0  0
   22.3121   -9.3975  -14.6807 C   0  0  1  0  0  0  0  0  0  0  0  0
   23.7361   -9.8512  -14.4540 C   0  0  0  0  0  0  0  0  0  0  0  0
   21.5449  -10.2622  -15.6045 C   0  0  0  0  0  0  0  0  0  0  0  0
   20.2030   -9.8062  -16.0501 C   0  0  2  0  0  0  0  0  0  0  0  0
   19.5512  -10.7012  -16.9715 N   0  0  0  0  0  0  0  0  0  0  0  0
   20.1821   -8.4468  -16.6088 C   0  0  0  0  0  0  0  0  0  0  0  0
   20.7750   -8.1847  -17.6665 O   0  0  0  0  0  0  0  0  0  0  0  0
   19.4787   -7.4304  -15.9317 N   0  0  0  0  0  0  0  0  0  0  0  0
   19.4109   -6.0632  -16.3380 C   0  0  1  0  0  0  0  0  0  0  0  0
   17.9385   -5.7228  -16.5604 C   0  0  0  0  0  0  0  0  0  0  0  0
   17.2117   -6.7014  -17.8809 S   0  0  0  0  0  0  0  0  0  0  0  0
   19.8932   -5.2036  -15.2408 C   0  0  0  0  0  0  0  0  0  0  0  0
   20.2346   -5.7126  -13.9938 O   0  0  0  0  0  0  0  0  0  0  0  0
   20.0073   -3.9676  -15.4161 O   0  0  0  0  0  0  0  0  0  0  0  0
  2  1  1  1
  2  3  1  0
  2  5  1  0
  3  4  1  0
  5  6  2  0
  8  7  1  1
  8 10  1  0
  9  8  1  0
 11 10  1  6
 12 11  1  0
 12  5  1  0
 13 11  1  0
 13 14  2  0
 15 13  1  0
 16 15  1  0
 16 19  1  0
 16 17  1  1
 18 17  1  0
 19 21  2  0
 19 20  1  0
M  END
$$$$
