CLC.pdb
     RDKit          3D

 21 20  0  0  1  0  0  0  0  0999 V2000
   27.5125  -21.6602  -16.9416 N   0  0  0  0  0  0  0  0  0  0  0  0
   27.2651  -20.5470  -16.0657 C   0  0  1  0  0  0  0  0  0  0  0  0
   26.6524  -19.3778  -16.8115 C   0  0  0  0  0  0  0  0  0  0  0  0
   27.8995  -18.7353  -17.9617 S   0  0  0  0  0  0  0  0  0  0  0  0
   26.2977  -20.9587  -15.0276 C   0  0  0  0  0  0  0  0  0  0  0  0
   25.4409  -21.8629  -15.2964 O   0  0  0  0  0  0  0  0  0  0  0  0
   25.0151  -22.0899   -9.9540 C   0  0  0  0  0  0  0  0  0  0  0  0
   24.9176  -20.5693  -10.2280 C   0  0  1  0  0  0  0  0  0  0  0  0
   25.3415  -19.9263   -8.9272 C   0  0  0  0  0  0  0  0  0  0  0  0
   25.8325  -20.2989  -11.3591 C   0  0  0  0  0  0  0  0  0  0  0  0
   25.4014  -20.6889  -12.7264 C   0  0  2  0  0  0  0  0  0  0  0  0
   26.3411  -20.3446  -13.7624 N   0  0  0  0  0  0  0  0  0  0  0  0
   24.0704  -20.1928  -13.1043 C   0  0  0  0  0  0  0  0  0  0  0  0
   23.9437  -19.1436  -13.7540 O   0  0  0  0  0  0  0  0  0  0  0  0
   22.9257  -20.9207  -12.7222 N   0  0  0  0  0  0  0  0  0  0  0  0
   21.6117  -20.7255  -13.2458 C   0  0  1  0  0  0  0  0  0  0  0  0
   21.5844  -21.3219  -14.6518 C   0  0  0  0  0  0  0  0  0  0  0  0
   19.9324  -21.3066  -15.3592 S   0  0  0  0  0  0  0  0  0  0  0  0
   20.6447  -21.4873  -12.4334 C   0  0  0  0  0  0  0  0  0  0  0  0
   19.4127  -20.9638  -12.0607 O   0  0  0  0  0  0  0  0  0  0  0  0
   20.9219  -22.6496  -12.0542 O   0  0  0  0  0  0  0  0  0  0  0  0
  2  1  1  6
  2  3  1  0
  2  5  1  0
  3  4  1  0
  5  6  2  0
  8  7  1  1
  8 10  1  0
  9  8  1  0
 11 10  1  1
 12 11  1  0
 12  5  1  0
 13 11  1  0
 13 14  2  0
 15 13  1  0
 16 15  1  0
 16 19  1  0
 16 17  1  6
 18 17  1  0
 19 21  2  0
 19 20  1  0
M  END
$$$$
