CLC.pdb
     RDKit          3D

 21 20  0  0  1  0  0  0  0  0999 V2000
   24.7629  -16.7456  -18.2577 N   0  0  0  0  0  0  0  0  0  0  0  0
   25.6925  -16.4385  -19.3109 C   0  0  1  0  0  0  0  0  0  0  0  0
   24.9769  -16.1165  -20.6081 C   0  0  0  0  0  0  0  0  0  0  0  0
   24.0688  -17.5989  -21.1264 S   0  0  0  0  0  0  0  0  0  0  0  0
   26.4695  -15.2405  -18.9312 C   0  0  0  0  0  0  0  0  0  0  0  0
   25.9018  -14.3132  -18.2666 O   0  0  0  0  0  0  0  0  0  0  0  0
   32.3170  -13.9481  -17.9042 C   0  0  0  0  0  0  0  0  0  0  0  0
   30.9599  -13.2714  -18.2159 C   0  0  1  0  0  0  0  0  0  0  0  0
   31.2622  -12.3376  -19.3656 C   0  0  0  0  0  0  0  0  0  0  0  0
   30.0269  -14.3672  -18.5601 C   0  0  0  0  0  0  0  0  0  0  0  0
   28.6319  -14.0176  -18.9330 C   0  0  2  0  0  0  0  0  0  0  0  0
   27.8211  -15.1466  -19.3107 N   0  0  0  0  0  0  0  0  0  0  0  0
   28.5259  -12.9839  -19.9725 C   0  0  0  0  0  0  0  0  0  0  0  0
   28.8788  -13.2164  -21.1389 O   0  0  0  0  0  0  0  0  0  0  0  0
   28.0164  -11.7135  -19.6368 N   0  0  0  0  0  0  0  0  0  0  0  0
   27.8045  -10.6409  -20.5552 C   0  0  1  0  0  0  0  0  0  0  0  0
   26.3057  -10.5706  -20.8411 C   0  0  0  0  0  0  0  0  0  0  0  0
   25.3353  -10.4643  -19.3322 S   0  0  0  0  0  0  0  0  0  0  0  0
   28.1834   -9.3677  -19.9144 C   0  0  0  0  0  0  0  0  0  0  0  0
   28.0984   -8.1490  -20.5762 O   0  0  0  0  0  0  0  0  0  0  0  0
   28.5995   -9.3601  -18.7319 O   0  0  0  0  0  0  0  0  0  0  0  0
  2  1  1  1
  2  3  1  0
  2  5  1  0
  3  4  1  0
  5  6  2  0
  8  7  1  6
  8 10  1  0
  9  8  1  0
 11 10  1  6
 12 11  1  0
 12  5  1  0
 13 11  1  0
 13 14  2  0
 15 13  1  0
 16 15  1  0
 16 19  1  0
 16 17  1  1
 18 17  1  0
 19 21  2  0
 19 20  1  0
M  END
$$$$
