CLC.pdb
     RDKit          3D

 21 20  0  0  1  0  0  0  0  0999 V2000
   16.5046  -19.8947    2.1014 N   0  0  0  0  0  0  0  0  0  0  0  0
   15.7026  -18.8109    2.6013 C   0  0  1  0  0  0  0  0  0  0  0  0
   14.5299  -19.3174    3.4179 C   0  0  0  0  0  0  0  0  0  0  0  0
   13.6419  -20.5426    2.4173 S   0  0  0  0  0  0  0  0  0  0  0  0
   16.5295  -17.9747    3.4958 C   0  0  0  0  0  0  0  0  0  0  0  0
   17.4657  -18.5175    4.1688 O   0  0  0  0  0  0  0  0  0  0  0  0
   19.4783  -13.7189    4.2633 C   0  0  0  0  0  0  0  0  0  0  0  0
   18.0102  -13.3497    4.5872 C   0  0  1  0  0  0  0  0  0  0  0  0
   17.8643  -11.9276    4.0958 C   0  0  0  0  0  0  0  0  0  0  0  0
   17.1729  -14.3274    3.8572 C   0  0  0  0  0  0  0  0  0  0  0  0
   17.1041  -15.7207    4.3682 C   0  0  2  0  0  0  0  0  0  0  0  0
   16.2674  -16.5954    3.5874 N   0  0  0  0  0  0  0  0  0  0  0  0
   16.7179  -15.8268    5.7824 C   0  0  0  0  0  0  0  0  0  0  0  0
   15.5262  -15.9350    6.1098 O   0  0  0  0  0  0  0  0  0  0  0  0
   17.7164  -15.8049    6.7768 N   0  0  0  0  0  0  0  0  0  0  0  0
   17.4795  -15.8424    8.1843 C   0  0  1  0  0  0  0  0  0  0  0  0
   18.0156  -17.1748    8.7047 C   0  0  0  0  0  0  0  0  0  0  0  0
   17.7401  -17.3697   10.4699 S   0  0  0  0  0  0  0  0  0  0  0  0
   18.2602  -14.7761    8.8391 C   0  0  0  0  0  0  0  0  0  0  0  0
   18.0713  -14.4285   10.1711 O   0  0  0  0  0  0  0  0  0  0  0  0
   19.1302  -14.1475    8.1914 O   0  0  0  0  0  0  0  0  0  0  0  0
  2  1  1  1
  2  3  1  0
  2  5  1  0
  3  4  1  0
  5  6  2  0
  8  7  1  6
  8 10  1  0
  9  8  1  0
 11 10  1  6
 12 11  1  0
 12  5  1  0
 13 11  1  0
 13 14  2  0
 15 13  1  0
 16 15  1  0
 16 19  1  0
 16 17  1  1
 18 17  1  0
 19 21  2  0
 19 20  1  0
M  END
$$$$
