CLC.pdb
     RDKit          3D

 21 20  0  0  1  0  0  0  0  0999 V2000
   16.6042  -10.3142  -17.0471 N   0  0  0  0  0  0  0  0  0  0  0  0
   17.6369   -9.4343  -17.5232 C   0  0  1  0  0  0  0  0  0  0  0  0
   17.0609   -8.1348  -18.0509 C   0  0  0  0  0  0  0  0  0  0  0  0
   16.1191   -8.5128  -19.5546 S   0  0  0  0  0  0  0  0  0  0  0  0
   18.5315   -9.0911  -16.3985 C   0  0  0  0  0  0  0  0  0  0  0  0
   18.0265   -8.6897  -15.2994 O   0  0  0  0  0  0  0  0  0  0  0  0
   21.9878   -9.4810  -12.7574 C   0  0  0  0  0  0  0  0  0  0  0  0
   22.7921   -9.6044  -14.0745 C   0  0  1  0  0  0  0  0  0  0  0  0
   23.7664  -10.7305  -13.8145 C   0  0  0  0  0  0  0  0  0  0  0  0
   21.8002   -9.8991  -15.1323 C   0  0  0  0  0  0  0  0  0  0  0  0
   20.8405   -8.8329  -15.5190 C   0  0  2  0  0  0  0  0  0  0  0  0
   19.9235   -9.2140  -16.5624 N   0  0  0  0  0  0  0  0  0  0  0  0
   21.4708   -7.5551  -15.8800 C   0  0  0  0  0  0  0  0  0  0  0  0
   22.0709   -7.4241  -16.9579 O   0  0  0  0  0  0  0  0  0  0  0  0
   21.3907   -6.4668  -14.9882 N   0  0  0  0  0  0  0  0  0  0  0  0
   21.9537   -5.1739  -15.2122 C   0  0  1  0  0  0  0  0  0  0  0  0
   21.1752   -4.5260  -16.3557 C   0  0  0  0  0  0  0  0  0  0  0  0
   19.4057   -4.5084  -16.0422 S   0  0  0  0  0  0  0  0  0  0  0  0
   21.7440   -4.3365  -14.0164 C   0  0  0  0  0  0  0  0  0  0  0  0
   22.2309   -3.0384  -13.9241 O   0  0  0  0  0  0  0  0  0  0  0  0
   21.1072   -4.7902  -13.0366 O   0  0  0  0  0  0  0  0  0  0  0  0
  2  1  1  1
  2  3  1  0
  2  5  1  0
  3  4  1  0
  5  6  2  0
  8  7  1  1
  8 10  1  0
  9  8  1  0
 11 10  1  6
 12 11  1  0
 12  5  1  0
 13 11  1  0
 13 14  2  0
 15 13  1  0
 16 15  1  0
 16 19  1  0
 16 17  1  6
 18 17  1  0
 19 21  2  0
 19 20  1  0
M  END
$$$$
