CLC.pdb
     RDKit          3D

 21 20  0  0  1  0  0  0  0  0999 V2000
   19.3154  -13.4802  -18.6028 N   0  0  0  0  0  0  0  0  0  0  0  0
   20.4483  -12.7485  -19.1015 C   0  0  1  0  0  0  0  0  0  0  0  0
   20.0816  -11.9127  -20.3120 C   0  0  0  0  0  0  0  0  0  0  0  0
   19.5451  -13.0416  -21.6269 S   0  0  0  0  0  0  0  0  0  0  0  0
   20.9180  -11.8184  -18.0540 C   0  0  0  0  0  0  0  0  0  0  0  0
   20.0675  -11.2681  -17.2809 O   0  0  0  0  0  0  0  0  0  0  0  0
   24.0932  -10.2317  -14.1978 C   0  0  0  0  0  0  0  0  0  0  0  0
   24.8372  -10.0147  -15.5380 C   0  0  1  0  0  0  0  0  0  0  0  0
   26.2768  -10.3550  -15.2267 C   0  0  0  0  0  0  0  0  0  0  0  0
   24.1998  -10.9290  -16.5114 C   0  0  0  0  0  0  0  0  0  0  0  0
   22.8027  -10.6507  -16.9333 C   0  0  2  0  0  0  0  0  0  0  0  0
   22.2952  -11.5581  -17.9303 N   0  0  0  0  0  0  0  0  0  0  0  0
   22.5711   -9.2702  -17.3815 C   0  0  0  0  0  0  0  0  0  0  0  0
   23.0677   -8.8530  -18.4390 O   0  0  0  0  0  0  0  0  0  0  0  0
   21.7740   -8.4119  -16.5976 N   0  0  0  0  0  0  0  0  0  0  0  0
   21.4432   -7.0629  -16.9284 C   0  0  1  0  0  0  0  0  0  0  0  0
   19.9523   -7.0235  -17.2585 C   0  0  0  0  0  0  0  0  0  0  0  0
   19.5743   -5.8096  -18.5286 S   0  0  0  0  0  0  0  0  0  0  0  0
   21.6477   -6.2062  -15.7454 C   0  0  0  0  0  0  0  0  0  0  0  0
   22.0226   -4.8724  -15.8501 O   0  0  0  0  0  0  0  0  0  0  0  0
   21.4833   -6.6759  -14.5948 O   0  0  0  0  0  0  0  0  0  0  0  0
  2  1  1  1
  2  3  1  0
  2  5  1  0
  3  4  1  0
  5  6  2  0
  8  7  1  1
  8 10  1  0
  9  8  1  0
 11 10  1  6
 12 11  1  0
 12  5  1  0
 13 11  1  0
 13 14  2  0
 15 13  1  0
 16 15  1  0
 16 19  1  0
 16 17  1  1
 18 17  1  0
 19 21  2  0
 19 20  1  0
M  END
$$$$
