CLC.pdb
     RDKit          3D

 21 20  0  0  1  0  0  0  0  0999 V2000
   16.1270  -10.2967  -17.5272 N   0  0  0  0  0  0  0  0  0  0  0  0
   17.4356   -9.9467  -18.0096 C   0  0  1  0  0  0  0  0  0  0  0  0
   17.3779   -8.7835  -18.9803 C   0  0  0  0  0  0  0  0  0  0  0  0
   16.7589   -9.4111  -20.5659 S   0  0  0  0  0  0  0  0  0  0  0  0
   18.2706   -9.5217  -16.8672 C   0  0  0  0  0  0  0  0  0  0  0  0
   17.7326   -8.8840  -15.9039 O   0  0  0  0  0  0  0  0  0  0  0  0
   21.8350   -9.9332  -13.0920 C   0  0  0  0  0  0  0  0  0  0  0  0
   22.5922   -9.8868  -14.4415 C   0  0  1  0  0  0  0  0  0  0  0  0
   23.7382  -10.8561  -14.2616 C   0  0  0  0  0  0  0  0  0  0  0  0
   21.6136  -10.2969  -15.4729 C   0  0  0  0  0  0  0  0  0  0  0  0
   20.5188   -9.3556  -15.8233 C   0  0  2  0  0  0  0  0  0  0  0  0
   19.6436   -9.8292  -16.8647 N   0  0  0  0  0  0  0  0  0  0  0  0
   20.9737   -7.9994  -16.1613 C   0  0  0  0  0  0  0  0  0  0  0  0
   21.3923   -7.7341  -17.2986 O   0  0  0  0  0  0  0  0  0  0  0  0
   20.9326   -6.9899  -15.1788 N   0  0  0  0  0  0  0  0  0  0  0  0
   21.3019   -5.6257  -15.3821 C   0  0  1  0  0  0  0  0  0  0  0  0
   20.0153   -4.8263  -15.5796 C   0  0  0  0  0  0  0  0  0  0  0  0
   20.3079   -3.0539  -15.5306 S   0  0  0  0  0  0  0  0  0  0  0  0
   21.9500   -5.1086  -14.1623 C   0  0  0  0  0  0  0  0  0  0  0  0
   22.9563   -4.1515  -14.2048 O   0  0  0  0  0  0  0  0  0  0  0  0
   21.5973   -5.5327  -13.0366 O   0  0  0  0  0  0  0  0  0  0  0  0
  2  1  1  1
  2  3  1  0
  2  5  1  0
  3  4  1  0
  5  6  2  0
  8  7  1  1
  8 10  1  0
  9  8  1  0
 11 10  1  6
 12 11  1  0
 12  5  1  0
 13 11  1  0
 13 14  2  0
 15 13  1  0
 16 15  1  0
 16 19  1  0
 16 17  1  1
 18 17  1  0
 19 21  2  0
 19 20  1  0
M  END
$$$$
