CLC.pdb
     RDKit          3D

 21 20  0  0  1  0  0  0  0  0999 V2000
   22.5671  -13.5999  -19.7680 N   0  0  0  0  0  0  0  0  0  0  0  0
   21.4780  -13.0596  -19.0000 C   0  0  1  0  0  0  0  0  0  0  0  0
   20.8214  -14.1229  -18.1416 C   0  0  0  0  0  0  0  0  0  0  0  0
   20.3989  -15.5231  -19.2150 S   0  0  0  0  0  0  0  0  0  0  0  0
   22.0022  -12.0229  -18.0870 C   0  0  0  0  0  0  0  0  0  0  0  0
   21.1961  -11.4000  -17.3214 O   0  0  0  0  0  0  0  0  0  0  0  0
   25.3402   -9.9170  -14.6083 C   0  0  0  0  0  0  0  0  0  0  0  0
   26.0212   -9.9392  -15.9984 C   0  0  1  0  0  0  0  0  0  0  0  0
   27.4684  -10.2593  -15.7016 C   0  0  0  0  0  0  0  0  0  0  0  0
   25.3217  -10.9838  -16.7790 C   0  0  0  0  0  0  0  0  0  0  0  0
   23.9359  -10.7127  -17.2410 C   0  0  2  0  0  0  0  0  0  0  0  0
   23.3812  -11.7435  -18.0805 N   0  0  0  0  0  0  0  0  0  0  0  0
   23.7642   -9.4123  -17.9042 C   0  0  0  0  0  0  0  0  0  0  0  0
   24.4319   -9.1168  -18.9071 O   0  0  0  0  0  0  0  0  0  0  0  0
   22.8282   -8.4916  -17.3918 N   0  0  0  0  0  0  0  0  0  0  0  0
   22.5885   -7.1836  -17.9117 C   0  0  1  0  0  0  0  0  0  0  0  0
   21.2275   -7.2071  -18.6048 C   0  0  0  0  0  0  0  0  0  0  0  0
   20.6681   -5.5582  -19.0493 S   0  0  0  0  0  0  0  0  0  0  0  0
   22.4893   -6.2253  -16.7950 C   0  0  0  0  0  0  0  0  0  0  0  0
   23.0092   -4.9390  -16.8717 O   0  0  0  0  0  0  0  0  0  0  0  0
   21.9205   -6.5605  -15.7293 O   0  0  0  0  0  0  0  0  0  0  0  0
  2  1  1  1
  2  3  1  0
  2  5  1  0
  3  4  1  0
  5  6  2  0
  8  7  1  1
  8 10  1  0
  9  8  1  0
 11 10  1  6
 12 11  1  0
 12  5  1  0
 13 11  1  0
 13 14  2  0
 15 13  1  0
 16 15  1  0
 16 19  1  0
 16 17  1  1
 18 17  1  0
 19 21  2  0
 19 20  1  0
M  END
$$$$
