CLC.pdb
     RDKit          3D

 21 20  0  0  1  0  0  0  0  0999 V2000
   20.8514  -34.1358  -12.5465 N   0  0  0  0  0  0  0  0  0  0  0  0
   21.1889  -33.0575  -11.6570 C   0  0  1  0  0  0  0  0  0  0  0  0
   19.9510  -32.4405  -11.0361 C   0  0  0  0  0  0  0  0  0  0  0  0
   19.2576  -31.2623  -12.2287 S   0  0  0  0  0  0  0  0  0  0  0  0
   22.0145  -33.5871  -10.5521 C   0  0  0  0  0  0  0  0  0  0  0  0
   21.7108  -34.7082  -10.0279 O   0  0  0  0  0  0  0  0  0  0  0  0
   26.8866  -34.5840   -9.0438 C   0  0  0  0  0  0  0  0  0  0  0  0
   26.4159  -33.3366   -8.2570 C   0  0  1  0  0  0  0  0  0  0  0  0
   27.6590  -32.4871   -8.1228 C   0  0  0  0  0  0  0  0  0  0  0  0
   25.3490  -32.7172   -9.0742 C   0  0  0  0  0  0  0  0  0  0  0  0
   24.0073  -33.3550   -9.0870 C   0  0  2  0  0  0  0  0  0  0  0  0
   23.1201  -32.8435  -10.1000 N   0  0  0  0  0  0  0  0  0  0  0  0
   23.3157  -33.3324   -7.7903 C   0  0  0  0  0  0  0  0  0  0  0  0
   22.6554  -32.3427   -7.4388 O   0  0  0  0  0  0  0  0  0  0  0  0
   23.4057  -34.4509   -6.9376 N   0  0  0  0  0  0  0  0  0  0  0  0
   22.8009  -34.5559   -5.6484 C   0  0  1  0  0  0  0  0  0  0  0  0
   22.1261  -35.9239   -5.5678 C   0  0  0  0  0  0  0  0  0  0  0  0
   21.5485  -36.2945   -3.9069 S   0  0  0  0  0  0  0  0  0  0  0  0
   23.8511  -34.5294   -4.6132 C   0  0  0  0  0  0  0  0  0  0  0  0
   25.2044  -34.5249   -4.9281 O   0  0  0  0  0  0  0  0  0  0  0  0
   23.5358  -34.5099   -3.4000 O   0  0  0  0  0  0  0  0  0  0  0  0
  2  1  1  6
  2  3  1  0
  2  5  1  0
  3  4  1  0
  5  6  2  0
  8  7  1  6
  8 10  1  0
  9  8  1  0
 11 10  1  1
 12 11  1  0
 12  5  1  0
 13 11  1  0
 13 14  2  0
 15 13  1  0
 16 15  1  0
 16 19  1  0
 16 17  1  6
 18 17  1  0
 19 21  2  0
 19 20  1  0
M  END
$$$$
