CLC.pdb
     RDKit          3D

 21 20  0  0  1  0  0  0  0  0999 V2000
   27.1675  -20.9652   -9.7229 N   0  0  0  0  0  0  0  0  0  0  0  0
   25.8051  -20.8756  -10.1739 C   0  0  1  0  0  0  0  0  0  0  0  0
   24.9273  -20.1739   -9.1562 C   0  0  0  0  0  0  0  0  0  0  0  0
   24.8278  -21.2295   -7.6841 S   0  0  0  0  0  0  0  0  0  0  0  0
   25.7618  -20.0746  -11.4147 C   0  0  0  0  0  0  0  0  0  0  0  0
   25.7624  -18.8026  -11.3368 O   0  0  0  0  0  0  0  0  0  0  0  0
   27.2226  -17.8322  -15.5159 C   0  0  0  0  0  0  0  0  0  0  0  0
   27.0889  -19.3181  -15.9291 C   0  0  1  0  0  0  0  0  0  0  0  0
   28.3497  -19.6041  -16.7124 C   0  0  0  0  0  0  0  0  0  0  0  0
   26.9772  -20.0840  -14.6679 C   0  0  0  0  0  0  0  0  0  0  0  0
   25.7100  -19.9969  -13.8972 C   0  0  2  0  0  0  0  0  0  0  0  0
   25.7208  -20.7315  -12.6582 N   0  0  0  0  0  0  0  0  0  0  0  0
   24.5112  -20.3680  -14.6624 C   0  0  0  0  0  0  0  0  0  0  0  0
   24.4430  -21.4598  -15.2475 O   0  0  0  0  0  0  0  0  0  0  0  0
   23.4272  -19.4700  -14.7303 N   0  0  0  0  0  0  0  0  0  0  0  0
   22.1942  -19.7154  -15.4073 C   0  0  1  0  0  0  0  0  0  0  0  0
   21.0648  -19.4616  -14.4106 C   0  0  0  0  0  0  0  0  0  0  0  0
   21.0302  -20.6931  -13.1022 S   0  0  0  0  0  0  0  0  0  0  0  0
   22.0348  -18.7381  -16.5004 C   0  0  0  0  0  0  0  0  0  0  0  0
   20.9544  -18.7701  -17.3735 O   0  0  0  0  0  0  0  0  0  0  0  0
   22.8914  -17.8381  -16.6671 O   0  0  0  0  0  0  0  0  0  0  0  0
  2  1  1  1
  2  3  1  0
  2  5  1  0
  3  4  1  0
  5  6  2  0
  8  7  1  1
  8 10  1  0
  9  8  1  0
 11 10  1  6
 12 11  1  0
 12  5  1  0
 13 11  1  0
 13 14  2  0
 15 13  1  0
 16 15  1  0
 16 19  1  0
 16 17  1  1
 18 17  1  0
 19 21  2  0
 19 20  1  0
M  END
$$$$
