CLC.pdb
     RDKit          3D

 21 20  0  0  1  0  0  0  0  0999 V2000
   18.8147  -11.9008  -17.5742 N   0  0  0  0  0  0  0  0  0  0  0  0
   19.7746  -10.9878  -18.1332 C   0  0  1  0  0  0  0  0  0  0  0  0
   19.1251  -10.0267  -19.1095 C   0  0  0  0  0  0  0  0  0  0  0  0
   18.5370  -10.9887  -20.5306 S   0  0  0  0  0  0  0  0  0  0  0  0
   20.3571  -10.1772  -17.0438 C   0  0  0  0  0  0  0  0  0  0  0  0
   19.6047   -9.7655  -16.1013 O   0  0  0  0  0  0  0  0  0  0  0  0
   25.6875  -10.8968  -15.4151 C   0  0  0  0  0  0  0  0  0  0  0  0
   24.1406  -10.8360  -15.4136 C   0  0  1  0  0  0  0  0  0  0  0  0
   23.7524  -11.2069  -14.0005 C   0  0  0  0  0  0  0  0  0  0  0  0
   23.7863   -9.4496  -15.7907 C   0  0  0  0  0  0  0  0  0  0  0  0
   22.3544   -9.1206  -16.0113 C   0  0  2  0  0  0  0  0  0  0  0  0
   21.7311   -9.8754  -17.0681 N   0  0  0  0  0  0  0  0  0  0  0  0
   22.0895   -7.6907  -16.2250 C   0  0  0  0  0  0  0  0  0  0  0  0
   22.1901   -7.1871  -17.3543 O   0  0  0  0  0  0  0  0  0  0  0  0
   21.7165   -6.8842  -15.1311 N   0  0  0  0  0  0  0  0  0  0  0  0
   21.4422   -5.4844  -15.1942 C   0  0  1  0  0  0  0  0  0  0  0  0
   19.9356   -5.3034  -15.0195 C   0  0  0  0  0  0  0  0  0  0  0  0
   19.4773   -3.5725  -14.8655 S   0  0  0  0  0  0  0  0  0  0  0  0
   22.0943   -4.8077  -14.0574 C   0  0  0  0  0  0  0  0  0  0  0  0
   22.6113   -3.5217  -14.1560 O   0  0  0  0  0  0  0  0  0  0  0  0
   22.1974   -5.3934  -12.9539 O   0  0  0  0  0  0  0  0  0  0  0  0
  2  1  1  1
  2  3  1  0
  2  5  1  0
  3  4  1  0
  5  6  2  0
  8  7  1  1
  8 10  1  0
  9  8  1  0
 11 10  1  6
 12 11  1  0
 12  5  1  0
 13 11  1  0
 13 14  2  0
 15 13  1  0
 16 15  1  0
 16 19  1  0
 16 17  1  1
 18 17  1  0
 19 21  2  0
 19 20  1  0
M  END
$$$$
