TTC.pdb
     RDKit          3D

 21 20  0  0  1  0  0  0  0  0999 V2000
    7.8520  -11.7484   19.3315 C   0  0  0  0  0  0  0  0  0  0  0  0
    8.7991  -12.8730   19.7110 C   0  0  1  0  0  0  0  0  0  0  0  0
    8.1273  -13.6793   20.6282 O   0  0  0  0  0  0  0  0  0  0  0  0
    9.1429  -13.7033   18.4928 C   0  0  2  0  0  0  0  0  0  0  0  0
    7.8883  -14.1382   17.9134 N   0  0  0  0  0  0  0  0  0  0  0  0
    9.9347  -14.9034   18.8454 C   0  0  0  0  0  0  0  0  0  0  0  0
    9.4224  -16.0474   18.9393 O   0  0  0  0  0  0  0  0  0  0  0  0
   14.4396  -16.8396   19.2975 C   0  0  0  0  0  0  0  0  0  0  0  0
   13.5045  -15.7293   18.8722 C   0  0  1  0  0  0  0  0  0  0  0  0
   13.2091  -15.9158   17.5222 O   0  0  0  0  0  0  0  0  0  0  0  0
   12.1645  -15.8264   19.6138 C   0  0  2  0  0  0  0  0  0  0  0  0
   11.3267  -14.7936   19.0929 N   0  0  0  0  0  0  0  0  0  0  0  0
   12.3411  -15.8044   21.0633 C   0  0  0  0  0  0  0  0  0  0  0  0
   12.1936  -14.7144   21.6693 O   0  0  0  0  0  0  0  0  0  0  0  0
   12.6715  -16.9338   21.8561 N   0  0  0  0  0  0  0  0  0  0  0  0
   12.4391  -16.9014   23.2853 C   0  0  1  0  0  0  0  0  0  0  0  0
   10.9976  -16.6419   23.6361 C   0  0  0  0  0  0  0  0  0  0  0  0
   10.8819  -16.5812   25.4481 S   0  0  0  0  0  0  0  0  0  0  0  0
   12.8121  -18.2154   23.9031 C   0  0  0  0  0  0  0  0  0  0  0  0
   13.3232  -18.2141   25.1882 O   0  0  0  0  0  0  0  0  0  0  0  0
   12.6634  -19.2733   23.2715 O   0  0  0  0  0  0  0  0  0  0  0  0
  2  1  1  6
  3  2  1  0
  4  2  1  0
  4  5  1  1
  4  6  1  0
  6  7  2  0
  9  8  1  1
  9 10  1  0
  9 11  1  0
 11 13  1  0
 12  6  1  0
 11 12  1  6
 13 15  1  0
 13 14  2  0
 15 16  1  0
 16 19  1  0
 16 17  1  6
 18 17  1  0
 19 20  1  0
 21 19  2  0
M  END
$$$$
