TTC.pdb
     RDKit          3D

 21 20  0  0  1  0  0  0  0  0999 V2000
    8.5187  -12.4812   20.0468 C   0  0  0  0  0  0  0  0  0  0  0  0
    7.7153  -13.5048   19.2642 C   0  0  1  0  0  0  0  0  0  0  0  0
    7.8594  -13.1900   17.9140 O   0  0  0  0  0  0  0  0  0  0  0  0
    8.2642  -14.8955   19.5013 C   0  0  2  0  0  0  0  0  0  0  0  0
    7.5263  -15.7916   18.6345 N   0  0  0  0  0  0  0  0  0  0  0  0
    8.0711  -15.3366   20.9012 C   0  0  0  0  0  0  0  0  0  0  0  0
    6.9511  -15.6889   21.3503 O   0  0  0  0  0  0  0  0  0  0  0  0
   10.4195  -16.9209   24.9543 C   0  0  0  0  0  0  0  0  0  0  0  0
   10.3815  -16.5191   23.4965 C   0  0  1  0  0  0  0  0  0  0  0  0
   10.3053  -17.6854   22.7358 O   0  0  0  0  0  0  0  0  0  0  0  0
    9.1068  -15.7256   23.1794 C   0  0  2  0  0  0  0  0  0  0  0  0
    9.1703  -15.3750   21.7962 N   0  0  0  0  0  0  0  0  0  0  0  0
    8.9240  -14.6007   24.0926 C   0  0  0  0  0  0  0  0  0  0  0  0
    9.4863  -13.5108   23.8222 O   0  0  0  0  0  0  0  0  0  0  0  0
    8.1495  -14.6398   25.2807 N   0  0  0  0  0  0  0  0  0  0  0  0
    8.1498  -13.5018   26.1766 C   0  0  1  0  0  0  0  0  0  0  0  0
    6.9166  -12.6486   26.0363 C   0  0  0  0  0  0  0  0  0  0  0  0
    5.4812  -13.7076   26.3807 S   0  0  0  0  0  0  0  0  0  0  0  0
    8.2061  -13.9618   27.6023 C   0  0  0  0  0  0  0  0  0  0  0  0
    8.1918  -15.3217   27.8535 O   0  0  0  0  0  0  0  0  0  0  0  0
    8.2639  -13.1375   28.5283 O   0  0  0  0  0  0  0  0  0  0  0  0
  2  1  1  1
  3  2  1  0
  4  2  1  0
  4  5  1  6
  4  6  1  0
  6  7  2  0
  9  8  1  1
  9 10  1  0
  9 11  1  0
 11 13  1  0
 12  6  1  0
 11 12  1  6
 13 15  1  0
 13 14  2  0
 15 16  1  0
 16 19  1  0
 16 17  1  1
 18 17  1  0
 19 20  1  0
 21 19  2  0
M  END
$$$$
