TTC.pdb
     RDKit          3D

 21 20  0  0  1  0  0  0  0  0999 V2000
    9.6734  -18.5901   16.9983 C   0  0  0  0  0  0  0  0  0  0  0  0
   10.1775  -17.6125   15.9515 C   0  0  1  0  0  0  0  0  0  0  0  0
    9.8922  -18.1674   14.7050 O   0  0  0  0  0  0  0  0  0  0  0  0
    9.4501  -16.2907   16.0742 C   0  0  2  0  0  0  0  0  0  0  0  0
    9.8059  -15.5059   14.9095 N   0  0  0  0  0  0  0  0  0  0  0  0
    9.8602  -15.5423   17.2838 C   0  0  0  0  0  0  0  0  0  0  0  0
   10.9813  -14.9826   17.3845 O   0  0  0  0  0  0  0  0  0  0  0  0
    7.7450  -12.8453   19.0367 C   0  0  0  0  0  0  0  0  0  0  0  0
    7.9947  -13.9836   20.0010 C   0  0  1  0  0  0  0  0  0  0  0  0
    6.9396  -14.8868   19.8751 O   0  0  0  0  0  0  0  0  0  0  0  0
    9.2616  -14.7599   19.6170 C   0  0  2  0  0  0  0  0  0  0  0  0
    8.9790  -15.4331   18.3894 N   0  0  0  0  0  0  0  0  0  0  0  0
    9.7215  -15.6230   20.7016 C   0  0  0  0  0  0  0  0  0  0  0  0
    9.3955  -16.8357   20.6827 O   0  0  0  0  0  0  0  0  0  0  0  0
   10.5202  -15.1955   21.7935 N   0  0  0  0  0  0  0  0  0  0  0  0
   10.9007  -16.1435   22.8202 C   0  0  1  0  0  0  0  0  0  0  0  0
   11.8168  -15.5458   23.8555 C   0  0  0  0  0  0  0  0  0  0  0  0
   12.3595  -16.8948   24.9446 S   0  0  0  0  0  0  0  0  0  0  0  0
    9.6863  -16.6427   23.5435 C   0  0  0  0  0  0  0  0  0  0  0  0
    9.6796  -17.9526   23.9871 O   0  0  0  0  0  0  0  0  0  0  0  0
    8.7154  -15.8939   23.7358 O   0  0  0  0  0  0  0  0  0  0  0  0
  2  1  1  1
  3  2  1  0
  4  2  1  0
  4  5  1  6
  4  6  1  0
  6  7  2  0
  9  8  1  6
  9 10  1  0
  9 11  1  0
 11 13  1  0
 12  6  1  0
 11 12  1  6
 13 15  1  0
 13 14  2  0
 15 16  1  0
 16 19  1  0
 16 17  1  1
 18 17  1  0
 19 20  1  0
 21 19  2  0
M  END
$$$$
