TTC.pdb
     RDKit          3D

 21 20  0  0  1  0  0  0  0  0999 V2000
    9.1798  -20.1341   19.6060 C   0  0  0  0  0  0  0  0  0  0  0  0
    9.7747  -19.3437   18.4540 C   0  0  1  0  0  0  0  0  0  0  0  0
    9.5172  -20.0649   17.2893 O   0  0  0  0  0  0  0  0  0  0  0  0
    9.1065  -17.9897   18.3461 C   0  0  2  0  0  0  0  0  0  0  0  0
    9.5119  -17.4214   17.0766 N   0  0  0  0  0  0  0  0  0  0  0  0
    9.5353  -17.0722   19.4259 C   0  0  0  0  0  0  0  0  0  0  0  0
   10.7359  -16.7391   19.5926 O   0  0  0  0  0  0  0  0  0  0  0  0
    7.2681  -14.0004   20.6988 C   0  0  0  0  0  0  0  0  0  0  0  0
    7.6140  -14.9529   21.8218 C   0  0  1  0  0  0  0  0  0  0  0  0
    6.5814  -15.8847   21.9223 O   0  0  0  0  0  0  0  0  0  0  0  0
    8.8770  -15.7583   21.4886 C   0  0  2  0  0  0  0  0  0  0  0  0
    8.5809  -16.5304   20.3240 N   0  0  0  0  0  0  0  0  0  0  0  0
    9.3500  -16.5292   22.6353 C   0  0  0  0  0  0  0  0  0  0  0  0
    9.3655  -17.7821   22.5508 O   0  0  0  0  0  0  0  0  0  0  0  0
    9.8010  -15.9679   23.8578 N   0  0  0  0  0  0  0  0  0  0  0  0
   10.4798  -16.8048   24.8256 C   0  0  1  0  0  0  0  0  0  0  0  0
   11.8665  -17.1964   24.3872 C   0  0  0  0  0  0  0  0  0  0  0  0
   12.5717  -18.2476   25.6904 S   0  0  0  0  0  0  0  0  0  0  0  0
   10.6194  -16.0821   26.1315 C   0  0  0  0  0  0  0  0  0  0  0  0
   11.1131  -16.7809   27.2181 O   0  0  0  0  0  0  0  0  0  0  0  0
   10.2982  -14.8872   26.2277 O   0  0  0  0  0  0  0  0  0  0  0  0
  2  1  1  1
  3  2  1  0
  4  2  1  0
  4  5  1  6
  4  6  1  0
  6  7  2  0
  9  8  1  6
  9 10  1  0
  9 11  1  0
 11 13  1  0
 12  6  1  0
 11 12  1  6
 13 15  1  0
 13 14  2  0
 15 16  1  0
 16 19  1  0
 16 17  1  6
 18 17  1  0
 19 20  1  0
 21 19  2  0
M  END
$$$$
