TTC.pdb
     RDKit          3D

 21 20  0  0  1  0  0  0  0  0999 V2000
    8.5231  -12.2510   20.2779 C   0  0  0  0  0  0  0  0  0  0  0  0
    8.0958  -13.1501   19.1313 C   0  0  1  0  0  0  0  0  0  0  0  0
    8.6539  -12.6208   17.9688 O   0  0  0  0  0  0  0  0  0  0  0  0
    8.6319  -14.5510   19.3348 C   0  0  2  0  0  0  0  0  0  0  0  0
    8.2393  -15.3236   18.1738 N   0  0  0  0  0  0  0  0  0  0  0  0
    8.0590  -15.1944   20.5387 C   0  0  0  0  0  0  0  0  0  0  0  0
    6.8702  -15.6000   20.5872 O   0  0  0  0  0  0  0  0  0  0  0  0
    8.6293  -17.8645   24.4696 C   0  0  0  0  0  0  0  0  0  0  0  0
    9.0210  -17.2652   23.1371 C   0  0  1  0  0  0  0  0  0  0  0  0
    8.4758  -18.0659   22.1339 O   0  0  0  0  0  0  0  0  0  0  0  0
    8.3939  -15.8764   22.9547 C   0  0  2  0  0  0  0  0  0  0  0  0
    8.8542  -15.3756   21.6988 N   0  0  0  0  0  0  0  0  0  0  0  0
    8.6548  -15.0064   24.0982 C   0  0  0  0  0  0  0  0  0  0  0  0
    9.8099  -14.5349   24.2422 O   0  0  0  0  0  0  0  0  0  0  0  0
    7.6930  -14.6443   25.0764 N   0  0  0  0  0  0  0  0  0  0  0  0
    8.0912  -13.8388   26.2122 C   0  0  1  0  0  0  0  0  0  0  0  0
    6.9269  -13.1543   26.8788 C   0  0  0  0  0  0  0  0  0  0  0  0
    5.9743  -12.3142   25.5799 S   0  0  0  0  0  0  0  0  0  0  0  0
    8.7515  -14.6943   27.2511 C   0  0  0  0  0  0  0  0  0  0  0  0
    9.3058  -14.0738   28.3560 O   0  0  0  0  0  0  0  0  0  0  0  0
    8.7959  -15.9273   27.1166 O   0  0  0  0  0  0  0  0  0  0  0  0
  2  1  1  1
  3  2  1  0
  4  2  1  0
  4  5  1  6
  4  6  1  0
  6  7  2  0
  9  8  1  1
  9 10  1  0
  9 11  1  0
 11 13  1  0
 12  6  1  0
 11 12  1  6
 13 15  1  0
 13 14  2  0
 15 16  1  0
 16 19  1  0
 16 17  1  1
 18 17  1  0
 19 20  1  0
 21 19  2  0
M  END
$$$$
