TTC.pdb
     RDKit          3D

 21 20  0  0  1  0  0  0  0  0999 V2000
   11.0051  -14.5264   20.5816 C   0  0  0  0  0  0  0  0  0  0  0  0
   10.2567  -13.5776   19.6621 C   0  0  1  0  0  0  0  0  0  0  0  0
   10.9277  -13.5805   18.4403 O   0  0  0  0  0  0  0  0  0  0  0  0
    8.8415  -14.0674   19.4416 C   0  0  2  0  0  0  0  0  0  0  0  0
    8.2022  -13.1180   18.5534 N   0  0  0  0  0  0  0  0  0  0  0  0
    8.0694  -14.1182   20.7037 C   0  0  0  0  0  0  0  0  0  0  0  0
    7.5125  -13.1048   21.1965 O   0  0  0  0  0  0  0  0  0  0  0  0
    6.2709  -17.2693   24.1370 C   0  0  0  0  0  0  0  0  0  0  0  0
    6.9281  -16.9873   22.8042 C   0  0  1  0  0  0  0  0  0  0  0  0
    5.9856  -17.2300   21.8054 O   0  0  0  0  0  0  0  0  0  0  0  0
    7.3012  -15.5039   22.6796 C   0  0  2  0  0  0  0  0  0  0  0  0
    7.9332  -15.3409   21.4091 N   0  0  0  0  0  0  0  0  0  0  0  0
    8.0851  -15.0415   23.8217 C   0  0  0  0  0  0  0  0  0  0  0  0
    9.3287  -15.2160   23.8062 O   0  0  0  0  0  0  0  0  0  0  0  0
    7.5466  -14.4002   24.9671 N   0  0  0  0  0  0  0  0  0  0  0  0
    8.4250  -14.0031   26.0480 C   0  0  1  0  0  0  0  0  0  0  0  0
    7.9123  -12.8074   26.8069 C   0  0  0  0  0  0  0  0  0  0  0  0
    6.1116  -12.9924   26.9602 S   0  0  0  0  0  0  0  0  0  0  0  0
    8.5723  -15.1208   27.0362 C   0  0  0  0  0  0  0  0  0  0  0  0
    9.5150  -14.9888   28.0396 O   0  0  0  0  0  0  0  0  0  0  0  0
    7.8631  -16.1355   26.9498 O   0  0  0  0  0  0  0  0  0  0  0  0
  2  1  1  1
  3  2  1  0
  4  2  1  0
  4  5  1  6
  4  6  1  0
  6  7  2  0
  9  8  1  1
  9 10  1  0
  9 11  1  0
 11 13  1  0
 12  6  1  0
 11 12  1  6
 13 15  1  0
 13 14  2  0
 15 16  1  0
 16 19  1  0
 16 17  1  1
 18 17  1  0
 19 20  1  0
 21 19  2  0
M  END
$$$$
