TTC.pdb
     RDKit          3D

 21 20  0  0  1  0  0  0  0  0999 V2000
   12.7599  -17.8602   19.7657 C   0  0  0  0  0  0  0  0  0  0  0  0
   13.6549  -16.6701   19.4685 C   0  0  1  0  0  0  0  0  0  0  0  0
   14.6187  -17.1022   18.5590 O   0  0  0  0  0  0  0  0  0  0  0  0
   12.8518  -15.5549   18.8338 C   0  0  2  0  0  0  0  0  0  0  0  0
   13.7955  -14.5269   18.4446 N   0  0  0  0  0  0  0  0  0  0  0  0
   11.8809  -14.9622   19.7813 C   0  0  0  0  0  0  0  0  0  0  0  0
   12.2239  -14.1617   20.6878 O   0  0  0  0  0  0  0  0  0  0  0  0
    7.0231  -14.3740   20.6646 C   0  0  0  0  0  0  0  0  0  0  0  0
    8.1520  -14.9525   19.8407 C   0  0  1  0  0  0  0  0  0  0  0  0
    8.3002  -14.1574   18.7047 O   0  0  0  0  0  0  0  0  0  0  0  0
    9.4850  -14.8608   20.5957 C   0  0  2  0  0  0  0  0  0  0  0  0
   10.5039  -15.2886   19.6909 N   0  0  0  0  0  0  0  0  0  0  0  0
    9.4436  -15.5838   21.8639 C   0  0  0  0  0  0  0  0  0  0  0  0
    9.9952  -16.7101   21.9308 O   0  0  0  0  0  0  0  0  0  0  0  0
    8.8203  -15.1090   23.0468 N   0  0  0  0  0  0  0  0  0  0  0  0
    8.8507  -15.9162   24.2488 C   0  0  1  0  0  0  0  0  0  0  0  0
    8.2610  -15.2097   25.4410 C   0  0  0  0  0  0  0  0  0  0  0  0
    9.0535  -13.5788   25.5529 S   0  0  0  0  0  0  0  0  0  0  0  0
    8.0623  -17.1757   24.0500 C   0  0  0  0  0  0  0  0  0  0  0  0
    8.1228  -18.1488   25.0309 O   0  0  0  0  0  0  0  0  0  0  0  0
    7.3751  -17.3341   23.0288 O   0  0  0  0  0  0  0  0  0  0  0  0
  2  1  1  6
  3  2  1  0
  4  2  1  0
  4  5  1  1
  4  6  1  0
  6  7  2  0
  9  8  1  1
  9 10  1  0
  9 11  1  0
 11 13  1  0
 12  6  1  0
 11 12  1  6
 13 15  1  0
 13 14  2  0
 15 16  1  0
 16 19  1  0
 16 17  1  1
 18 17  1  0
 19 20  1  0
 21 19  2  0
M  END
$$$$
