TTC.pdb
     RDKit          3D

 21 20  0  0  1  0  0  0  0  0999 V2000
   11.5083  -14.7720   19.1785 C   0  0  0  0  0  0  0  0  0  0  0  0
   10.7590  -13.8152   18.2680 C   0  0  1  0  0  0  0  0  0  0  0  0
   11.3882  -13.8587   17.0250 O   0  0  0  0  0  0  0  0  0  0  0  0
    9.3228  -14.2641   18.1028 C   0  0  2  0  0  0  0  0  0  0  0  0
    8.6944  -13.3327   17.1882 N   0  0  0  0  0  0  0  0  0  0  0  0
    8.5811  -14.2321   19.3837 C   0  0  0  0  0  0  0  0  0  0  0  0
    8.0185  -13.1933   19.8131 O   0  0  0  0  0  0  0  0  0  0  0  0
    5.8217  -16.5368   20.4498 C   0  0  0  0  0  0  0  0  0  0  0  0
    6.9502  -16.7174   21.4406 C   0  0  1  0  0  0  0  0  0  0  0  0
    7.7456  -17.7713   20.9919 O   0  0  0  0  0  0  0  0  0  0  0  0
    7.8616  -15.4829   21.4650 C   0  0  2  0  0  0  0  0  0  0  0  0
    8.4821  -15.4005   20.1812 N   0  0  0  0  0  0  0  0  0  0  0  0
    8.7856  -15.5101   22.5956 C   0  0  0  0  0  0  0  0  0  0  0  0
    9.9705  -15.8739   22.3935 O   0  0  0  0  0  0  0  0  0  0  0  0
    8.4476  -15.1528   23.9265 N   0  0  0  0  0  0  0  0  0  0  0  0
    9.4382  -15.2723   24.9762 C   0  0  1  0  0  0  0  0  0  0  0  0
    9.2131  -14.2998   26.1041 C   0  0  0  0  0  0  0  0  0  0  0  0
    7.4190  -14.1672   26.3573 S   0  0  0  0  0  0  0  0  0  0  0  0
    9.4045  -16.6486   25.5694 C   0  0  0  0  0  0  0  0  0  0  0  0
   10.4196  -17.0148   26.4345 O   0  0  0  0  0  0  0  0  0  0  0  0
    8.4862  -17.4341   25.2868 O   0  0  0  0  0  0  0  0  0  0  0  0
  2  1  1  1
  3  2  1  0
  4  2  1  0
  4  5  1  6
  4  6  1  0
  6  7  2  0
  9  8  1  6
  9 10  1  0
  9 11  1  0
 11 13  1  0
 12  6  1  0
 11 12  1  6
 13 15  1  0
 13 14  2  0
 15 16  1  0
 16 19  1  0
 16 17  1  1
 18 17  1  0
 19 20  1  0
 21 19  2  0
M  END
$$$$
