TTC.pdb
     RDKit          3D

 21 20  0  0  1  0  0  0  0  0999 V2000
   -5.5110  -26.3155   25.5974 C   0  0  0  0  0  0  0  0  0  0  0  0
   -5.1712  -25.4758   24.3788 C   0  0  1  0  0  0  0  0  0  0  0  0
   -4.9158  -26.3608   23.3326 O   0  0  0  0  0  0  0  0  0  0  0  0
   -6.3467  -24.6004   24.0001 C   0  0  2  0  0  0  0  0  0  0  0  0
   -5.9982  -23.9445   22.7563 N   0  0  0  0  0  0  0  0  0  0  0  0
   -6.6130  -23.5590   25.0180 C   0  0  0  0  0  0  0  0  0  0  0  0
   -5.9063  -22.5253   25.1280 O   0  0  0  0  0  0  0  0  0  0  0  0
  -10.2744  -22.4430   25.6846 C   0  0  0  0  0  0  0  0  0  0  0  0
   -9.6281  -22.8198   26.9992 C   0  0  1  0  0  0  0  0  0  0  0  0
   -9.9292  -24.1576   27.2531 O   0  0  0  0  0  0  0  0  0  0  0  0
   -8.0986  -22.7438   26.9002 C   0  0  2  0  0  0  0  0  0  0  0  0
   -7.6988  -23.7016   25.9189 N   0  0  0  0  0  0  0  0  0  0  0  0
   -7.4600  -22.8948   28.2049 C   0  0  0  0  0  0  0  0  0  0  0  0
   -7.1099  -24.0437   28.5722 O   0  0  0  0  0  0  0  0  0  0  0  0
   -7.1984  -21.8310   29.1065 N   0  0  0  0  0  0  0  0  0  0  0  0
   -6.6147  -22.1135   30.4014 C   0  0  1  0  0  0  0  0  0  0  0  0
   -5.6317  -21.0602   30.8405 C   0  0  0  0  0  0  0  0  0  0  0  0
   -5.0613  -21.5098   32.5057 S   0  0  0  0  0  0  0  0  0  0  0  0
   -7.6835  -22.1817   31.4504 C   0  0  0  0  0  0  0  0  0  0  0  0
   -7.5106  -23.0575   32.5067 O   0  0  0  0  0  0  0  0  0  0  0  0
   -8.6950  -21.4675   31.3665 O   0  0  0  0  0  0  0  0  0  0  0  0
  2  1  1  1
  3  2  1  0
  4  2  1  0
  4  5  1  6
  4  6  1  0
  6  7  2  0
  9  8  1  6
  9 10  1  0
  9 11  1  0
 11 13  1  0
 12  6  1  0
 11 12  1  6
 13 15  1  0
 13 14  2  0
 15 16  1  0
 16 19  1  0
 16 17  1  1
 18 17  1  0
 19 20  1  0
 21 19  2  0
M  END
$$$$
