TTC.pdb
     RDKit          3D

 21 20  0  0  1  0  0  0  0  0999 V2000
   13.7959  -19.0866   20.9964 C   0  0  0  0  0  0  0  0  0  0  0  0
   13.0463  -18.2414   22.0109 C   0  0  1  0  0  0  0  0  0  0  0  0
   14.0004  -17.5102   22.7164 O   0  0  0  0  0  0  0  0  0  0  0  0
   12.1168  -17.2766   21.3059 C   0  0  2  0  0  0  0  0  0  0  0  0
   12.9468  -16.4165   20.4872 N   0  0  0  0  0  0  0  0  0  0  0  0
   11.3679  -16.4298   22.2617 C   0  0  0  0  0  0  0  0  0  0  0  0
   11.6482  -15.2199   22.4561 O   0  0  0  0  0  0  0  0  0  0  0  0
    7.2900  -16.1549   25.0683 C   0  0  0  0  0  0  0  0  0  0  0  0
    8.1424  -16.8459   24.0272 C   0  0  1  0  0  0  0  0  0  0  0  0
    7.6321  -16.5153   22.7721 O   0  0  0  0  0  0  0  0  0  0  0  0
    9.5802  -16.3098   24.0516 C   0  0  2  0  0  0  0  0  0  0  0  0
   10.2875  -16.9726   23.0026 N   0  0  0  0  0  0  0  0  0  0  0  0
   10.1846  -16.4318   25.3755 C   0  0  0  0  0  0  0  0  0  0  0  0
   10.9011  -17.4344   25.6179 O   0  0  0  0  0  0  0  0  0  0  0  0
   10.0255  -15.4937   26.4279 N   0  0  0  0  0  0  0  0  0  0  0  0
   10.7007  -15.7092   27.6910 C   0  0  1  0  0  0  0  0  0  0  0  0
   10.4796  -14.5860   28.6697 C   0  0  0  0  0  0  0  0  0  0  0  0
   10.7007  -13.0259   27.7654 S   0  0  0  0  0  0  0  0  0  0  0  0
   10.2000  -16.9637   28.3413 C   0  0  0  0  0  0  0  0  0  0  0  0
   10.8494  -17.4191   29.4743 O   0  0  0  0  0  0  0  0  0  0  0  0
    9.2270  -17.5728   27.8694 O   0  0  0  0  0  0  0  0  0  0  0  0
  2  1  1  6
  3  2  1  0
  4  2  1  0
  4  5  1  6
  4  6  1  0
  6  7  2  0
  9  8  1  1
  9 10  1  0
  9 11  1  0
 11 13  1  0
 12  6  1  0
 11 12  1  6
 13 15  1  0
 13 14  2  0
 15 16  1  0
 16 19  1  0
 16 17  1  1
 18 17  1  0
 19 20  1  0
 21 19  2  0
M  END
$$$$
