TTC.pdb
     RDKit          3D

 21 20  0  0  1  0  0  0  0  0999 V2000
    8.7745  -12.1976   19.9536 C   0  0  0  0  0  0  0  0  0  0  0  0
    8.2788  -12.9843   18.7532 C   0  0  1  0  0  0  0  0  0  0  0  0
    8.8520  -12.4057   17.6220 O   0  0  0  0  0  0  0  0  0  0  0  0
    8.7328  -14.4254   18.8462 C   0  0  2  0  0  0  0  0  0  0  0  0
    8.2741  -15.0886   17.6426 N   0  0  0  0  0  0  0  0  0  0  0  0
    8.1431  -15.1182   20.0141 C   0  0  0  0  0  0  0  0  0  0  0  0
    6.9168  -15.3828   20.0945 O   0  0  0  0  0  0  0  0  0  0  0  0
    8.6463  -18.3365   21.2347 C   0  0  0  0  0  0  0  0  0  0  0  0
    9.0942  -17.4962   22.4099 C   0  0  1  0  0  0  0  0  0  0  0  0
   10.4773  -17.3417   22.3197 O   0  0  0  0  0  0  0  0  0  0  0  0
    8.5063  -16.0810   22.3282 C   0  0  2  0  0  0  0  0  0  0  0  0
    8.9645  -15.5121   21.1008 N   0  0  0  0  0  0  0  0  0  0  0  0
    8.8082  -15.2958   23.5220 C   0  0  0  0  0  0  0  0  0  0  0  0
    9.9035  -14.6838   23.5765 O   0  0  0  0  0  0  0  0  0  0  0  0
    7.9500  -15.1661   24.6444 N   0  0  0  0  0  0  0  0  0  0  0  0
    8.3963  -14.4299   25.8090 C   0  0  1  0  0  0  0  0  0  0  0  0
    7.3756  -13.4356   26.2970 C   0  0  0  0  0  0  0  0  0  0  0  0
    5.7331  -14.1100   25.9126 S   0  0  0  0  0  0  0  0  0  0  0  0
    8.6724  -15.3692   26.9442 C   0  0  0  0  0  0  0  0  0  0  0  0
    8.4436  -16.7191   26.7488 O   0  0  0  0  0  0  0  0  0  0  0  0
    9.0954  -14.9394   28.0289 O   0  0  0  0  0  0  0  0  0  0  0  0
  2  1  1  1
  3  2  1  0
  4  2  1  0
  4  5  1  6
  4  6  1  0
  6  7  2  0
  9  8  1  6
  9 10  1  0
  9 11  1  0
 11 13  1  0
 12  6  1  0
 11 12  1  6
 13 15  1  0
 13 14  2  0
 15 16  1  0
 16 19  1  0
 16 17  1  1
 18 17  1  0
 19 20  1  0
 21 19  2  0
M  END
$$$$
