TTC.pdb
     RDKit          3D

 21 20  0  0  1  0  0  0  0  0999 V2000
   13.7166  -16.9299   19.3223 C   0  0  0  0  0  0  0  0  0  0  0  0
   12.9787  -16.1916   20.4252 C   0  0  1  0  0  0  0  0  0  0  0  0
   13.7837  -15.1197   20.8071 O   0  0  0  0  0  0  0  0  0  0  0  0
   11.6630  -15.6519   19.9064 C   0  0  2  0  0  0  0  0  0  0  0  0
   11.9798  -14.7424   18.8241 N   0  0  0  0  0  0  0  0  0  0  0  0
   10.9235  -14.9005   20.9457 C   0  0  0  0  0  0  0  0  0  0  0  0
   11.0965  -13.6711   21.1425 O   0  0  0  0  0  0  0  0  0  0  0  0
    7.1395  -14.8151   21.4653 C   0  0  0  0  0  0  0  0  0  0  0  0
    7.7841  -15.4331   22.6862 C   0  0  1  0  0  0  0  0  0  0  0  0
    7.8444  -16.8115   22.4836 O   0  0  0  0  0  0  0  0  0  0  0  0
    9.2381  -14.9653   22.8350 C   0  0  2  0  0  0  0  0  0  0  0  0
    9.9766  -15.5623   21.7681 N   0  0  0  0  0  0  0  0  0  0  0  0
    9.7621  -15.2317   24.1719 C   0  0  0  0  0  0  0  0  0  0  0  0
   10.6951  -16.0631   24.2960 O   0  0  0  0  0  0  0  0  0  0  0  0
    9.2947  -14.6170   25.3621 N   0  0  0  0  0  0  0  0  0  0  0  0
   10.0175  -14.8099   26.6022 C   0  0  1  0  0  0  0  0  0  0  0  0
    9.7121  -13.7487   27.6265 C   0  0  0  0  0  0  0  0  0  0  0  0
   10.6593  -14.1503   29.1239 S   0  0  0  0  0  0  0  0  0  0  0  0
    9.6564  -16.1294   27.2153 C   0  0  0  0  0  0  0  0  0  0  0  0
    8.5501  -16.7993   26.7252 O   0  0  0  0  0  0  0  0  0  0  0  0
   10.3373  -16.6023   28.1388 O   0  0  0  0  0  0  0  0  0  0  0  0
  2  1  1  6
  3  2  1  0
  4  2  1  0
  4  5  1  6
  4  6  1  0
  6  7  2  0
  9  8  1  6
  9 10  1  0
  9 11  1  0
 11 13  1  0
 12  6  1  0
 11 12  1  6
 13 15  1  0
 13 14  2  0
 15 16  1  0
 16 19  1  0
 16 17  1  1
 18 17  1  0
 19 20  1  0
 21 19  2  0
M  END
$$$$
