YSC.pdb
     RDKit          3D

 25 25  0  0  1  0  0  0  0  0999 V2000
    5.2668  -10.6085   27.7554 O   0  0  0  0  0  0  0  0  0  0  0  0
    6.0205  -11.6015   27.1265 C   0  0  0  0  0  0  0  0  0  0  0  0
    5.5437  -12.2290   25.9952 C   0  0  0  0  0  0  0  0  0  0  0  0
    6.2734  -13.2123   25.3597 C   0  0  0  0  0  0  0  0  0  0  0  0
    7.5127  -13.6128   25.8261 C   0  0  0  0  0  0  0  0  0  0  0  0
    8.2905  -14.6742   25.1321 C   0  0  0  0  0  0  0  0  0  0  0  0
    7.3322  -15.6786   24.5899 C   0  0  2  0  0  0  0  0  0  0  0  0
    6.6916  -16.3692   25.6689 N   0  0  0  0  0  0  0  0  0  0  0  0
    7.9276  -16.5908   23.5934 C   0  0  0  0  0  0  0  0  0  0  0  0
    8.2857  -17.7349   24.0149 O   0  0  0  0  0  0  0  0  0  0  0  0
    7.9809  -12.9785   26.9590 C   0  0  0  0  0  0  0  0  0  0  0  0
    7.2550  -11.9935   27.5997 C   0  0  0  0  0  0  0  0  0  0  0  0
    9.4488  -15.5094   19.7765 O   0  0  0  0  0  0  0  0  0  0  0  0
    8.8626  -16.7519   19.9599 C   0  0  0  0  0  0  0  0  0  0  0  0
    8.9054  -17.1894   21.4214 C   0  0  2  0  0  0  0  0  0  0  0  0
    8.1192  -16.2806   22.2389 N   0  0  0  0  0  0  0  0  0  0  0  0
   10.3211  -17.2278   21.8821 C   0  0  0  0  0  0  0  0  0  0  0  0
   10.9332  -16.1465   22.1908 O   0  0  0  0  0  0  0  0  0  0  0  0
   11.0889  -18.4106   22.0172 N   0  0  0  0  0  0  0  0  0  0  0  0
   12.4356  -18.3956   22.5983 C   0  0  1  0  0  0  0  0  0  0  0  0
   12.3694  -17.9906   24.0621 C   0  0  0  0  0  0  0  0  0  0  0  0
   11.2809  -19.0491   25.0110 S   0  0  0  0  0  0  0  0  0  0  0  0
   13.1083  -19.6875   22.4281 C   0  0  0  0  0  0  0  0  0  0  0  0
   12.5244  -20.6405   21.8649 O   0  0  0  0  0  0  0  0  0  0  0  0
   14.3894  -19.8630   22.8870 O   0  0  0  0  0  0  0  0  0  0  0  0
  2  1  1  0
  3  2  2  0
  4  5  2  0
  4  3  1  0
  5 11  1  0
  6  5  1  0
  6  7  1  0
  7  9  1  0
  7  8  1  1
  9 10  2  0
 11 12  2  0
 12  2  1  0
 13 14  1  0
 15 14  1  6
 16 15  1  0
 16  9  1  0
 17 19  1  0
 17 15  1  0
 18 17  2  0
 20 19  1  0
 20 21  1  1
 21 22  1  0
 23 25  1  0
 23 20  1  0
 24 23  2  0
M  END
$$$$
