YSC.pdb
     RDKit          3D

 25 25  0  0  1  0  0  0  0  0999 V2000
    8.0340  -12.5993   16.9222 O   0  0  0  0  0  0  0  0  0  0  0  0
    7.9829  -13.0693   18.2361 C   0  0  0  0  0  0  0  0  0  0  0  0
    9.1409  -13.4151   18.8997 C   0  0  0  0  0  0  0  0  0  0  0  0
    9.1109  -13.8814   20.1977 C   0  0  0  0  0  0  0  0  0  0  0  0
    7.9223  -14.0230   20.8912 C   0  0  0  0  0  0  0  0  0  0  0  0
    7.9026  -14.5267   22.2909 C   0  0  0  0  0  0  0  0  0  0  0  0
    8.0135  -16.0126   22.2557 C   0  0  2  0  0  0  0  0  0  0  0  0
    6.7462  -16.5852   21.9130 N   0  0  0  0  0  0  0  0  0  0  0  0
    8.5975  -16.5941   23.4806 C   0  0  0  0  0  0  0  0  0  0  0  0
    7.8326  -16.6696   24.4926 O   0  0  0  0  0  0  0  0  0  0  0  0
    6.7690  -13.6741   20.2180 C   0  0  0  0  0  0  0  0  0  0  0  0
    6.7925  -13.2067   18.9184 C   0  0  0  0  0  0  0  0  0  0  0  0
   12.5529  -17.9918   23.9550 O   0  0  0  0  0  0  0  0  0  0  0  0
   11.5180  -18.5376   24.6978 C   0  0  0  0  0  0  0  0  0  0  0  0
   10.3713  -17.5482   24.8860 C   0  0  2  0  0  0  0  0  0  0  0  0
    9.9160  -17.0588   23.5955 N   0  0  0  0  0  0  0  0  0  0  0  0
   10.8284  -16.4237   25.7489 C   0  0  0  0  0  0  0  0  0  0  0  0
   11.7117  -15.5987   25.3266 O   0  0  0  0  0  0  0  0  0  0  0  0
   10.3502  -16.1716   27.0583 N   0  0  0  0  0  0  0  0  0  0  0  0
   11.0066  -15.2083   27.9486 C   0  0  1  0  0  0  0  0  0  0  0  0
   10.4418  -13.8155   27.7201 C   0  0  0  0  0  0  0  0  0  0  0  0
    8.6518  -13.8064   27.6819 S   0  0  0  0  0  0  0  0  0  0  0  0
   10.8913  -15.6110   29.3539 C   0  0  0  0  0  0  0  0  0  0  0  0
   10.2455  -16.6347   29.6724 O   0  0  0  0  0  0  0  0  0  0  0  0
   11.4932  -14.8653   30.3359 O   0  0  0  0  0  0  0  0  0  0  0  0
  2  1  1  0
  3  2  2  0
  4  5  2  0
  4  3  1  0
  5 11  1  0
  6  5  1  0
  6  7  1  0
  7  9  1  0
  7  8  1  1
  9 10  2  0
 11 12  2  0
 12  2  1  0
 13 14  1  0
 15 14  1  6
 16 15  1  0
 16  9  1  0
 17 19  1  0
 17 15  1  0
 18 17  2  0
 20 19  1  0
 20 21  1  1
 21 22  1  0
 23 25  1  0
 23 20  1  0
 24 23  2  0
M  END
$$$$
