YSC.pdb
     RDKit          3D

 25 25  0  0  1  0  0  0  0  0999 V2000
    7.6240  -12.5045   16.8188 O   0  0  0  0  0  0  0  0  0  0  0  0
    7.8049  -13.0543   18.0895 C   0  0  0  0  0  0  0  0  0  0  0  0
    6.7167  -13.3910   18.8663 C   0  0  0  0  0  0  0  0  0  0  0  0
    6.8751  -13.9352   20.1240 C   0  0  0  0  0  0  0  0  0  0  0  0
    8.1281  -14.1676   20.6622 C   0  0  0  0  0  0  0  0  0  0  0  0
    8.2862  -14.7553   22.0197 C   0  0  0  0  0  0  0  0  0  0  0  0
    8.6116  -16.2019   21.8690 C   0  0  2  0  0  0  0  0  0  0  0  0
    7.5066  -16.8872   21.2682 N   0  0  0  0  0  0  0  0  0  0  0  0
    9.0770  -16.8396   23.1165 C   0  0  0  0  0  0  0  0  0  0  0  0
    8.1843  -17.1236   23.9752 O   0  0  0  0  0  0  0  0  0  0  0  0
    9.2107  -13.8272   19.8767 C   0  0  0  0  0  0  0  0  0  0  0  0
    9.0587  -13.2820   18.6167 C   0  0  0  0  0  0  0  0  0  0  0  0
   13.0815  -17.7915   24.1654 O   0  0  0  0  0  0  0  0  0  0  0  0
   12.0104  -18.5485   24.6132 C   0  0  0  0  0  0  0  0  0  0  0  0
   10.7302  -17.7226   24.7037 C   0  0  2  0  0  0  0  0  0  0  0  0
   10.4147  -17.1452   23.4078 N   0  0  0  0  0  0  0  0  0  0  0  0
   10.9030  -16.6583   25.7311 C   0  0  0  0  0  0  0  0  0  0  0  0
   11.4109  -15.5266   25.4145 O   0  0  0  0  0  0  0  0  0  0  0  0
   10.5374  -16.7913   27.0932 N   0  0  0  0  0  0  0  0  0  0  0  0
   10.8554  -15.7567   28.0832 C   0  0  1  0  0  0  0  0  0  0  0  0
    9.7395  -14.7258   28.1395 C   0  0  0  0  0  0  0  0  0  0  0  0
   10.0194  -13.4906   29.4051 S   0  0  0  0  0  0  0  0  0  0  0  0
   11.1161  -16.3391   29.4035 C   0  0  0  0  0  0  0  0  0  0  0  0
   10.7508  -17.5064   29.6684 O   0  0  0  0  0  0  0  0  0  0  0  0
   11.7659  -15.6055   30.3640 O   0  0  0  0  0  0  0  0  0  0  0  0
  2  1  1  0
  3  2  2  0
  4  5  2  0
  4  3  1  0
  5 11  1  0
  6  5  1  0
  6  7  1  0
  7  9  1  0
  7  8  1  1
  9 10  2  0
 11 12  2  0
 12  2  1  0
 13 14  1  0
 15 14  1  6
 16 15  1  0
 16  9  1  0
 17 19  1  0
 17 15  1  0
 18 17  2  0
 20 19  1  0
 20 21  1  1
 21 22  1  0
 23 25  1  0
 23 20  1  0
 24 23  2  0
M  END
$$$$
