YSC.pdb
     RDKit          3D

 25 25  0  0  1  0  0  0  0  0999 V2000
    7.1398  -14.1355   15.5681 O   0  0  0  0  0  0  0  0  0  0  0  0
    7.4822  -14.5681   16.8508 C   0  0  0  0  0  0  0  0  0  0  0  0
    7.9464  -13.6715   17.7896 C   0  0  0  0  0  0  0  0  0  0  0  0
    8.2898  -14.0796   19.0619 C   0  0  0  0  0  0  0  0  0  0  0  0
    8.1846  -15.4022   19.4535 C   0  0  0  0  0  0  0  0  0  0  0  0
    8.5577  -15.8303   20.8285 C   0  0  0  0  0  0  0  0  0  0  0  0
    9.6696  -14.9596   21.3048 C   0  0  2  0  0  0  0  0  0  0  0  0
   10.9278  -15.5286   20.9245 N   0  0  0  0  0  0  0  0  0  0  0  0
    9.5948  -14.6331   22.7427 C   0  0  0  0  0  0  0  0  0  0  0  0
   10.6908  -14.6496   23.3855 O   0  0  0  0  0  0  0  0  0  0  0  0
    7.7189  -16.2916   18.5064 C   0  0  0  0  0  0  0  0  0  0  0  0
    7.3736  -15.8892   17.2310 C   0  0  0  0  0  0  0  0  0  0  0  0
    6.2530  -14.3607   25.2099 O   0  0  0  0  0  0  0  0  0  0  0  0
    7.1329  -13.2903   25.2410 C   0  0  0  0  0  0  0  0  0  0  0  0
    8.5187  -13.6799   24.7340 C   0  0  2  0  0  0  0  0  0  0  0  0
    8.4145  -14.3128   23.4298 N   0  0  0  0  0  0  0  0  0  0  0  0
    9.1633  -14.5939   25.7175 C   0  0  0  0  0  0  0  0  0  0  0  0
    9.2787  -15.8435   25.4639 O   0  0  0  0  0  0  0  0  0  0  0  0
    9.6867  -14.1855   26.9688 N   0  0  0  0  0  0  0  0  0  0  0  0
   10.1573  -15.1555   27.9634 C   0  0  1  0  0  0  0  0  0  0  0  0
   10.1588  -14.5269   29.3475 C   0  0  0  0  0  0  0  0  0  0  0  0
   10.8810  -15.6042   30.5818 S   0  0  0  0  0  0  0  0  0  0  0  0
    9.3598  -16.3858   27.9327 C   0  0  0  0  0  0  0  0  0  0  0  0
    8.1109  -16.3340   27.8698 O   0  0  0  0  0  0  0  0  0  0  0  0
    9.9791  -17.6095   27.9731 O   0  0  0  0  0  0  0  0  0  0  0  0
  2  1  1  0
  3  2  2  0
  4  5  2  0
  4  3  1  0
  5 11  1  0
  6  5  1  0
  6  7  1  0
  7  9  1  0
  7  8  1  1
  9 10  2  0
 11 12  2  0
 12  2  1  0
 13 14  1  0
 15 14  1  1
 16 15  1  0
 16  9  1  0
 17 19  1  0
 17 15  1  0
 18 17  2  0
 20 19  1  0
 20 21  1  1
 21 22  1  0
 23 25  1  0
 23 20  1  0
 24 23  2  0
M  END
$$$$
