YSC.pdb
     RDKit          3D

 25 25  0  0  1  0  0  0  0  0999 V2000
   -0.6384  -20.3157   20.4378 O   0  0  0  0  0  0  0  0  0  0  0  0
    0.5732  -19.7507   20.8407 C   0  0  0  0  0  0  0  0  0  0  0  0
    1.2159  -18.8312   20.0392 C   0  0  0  0  0  0  0  0  0  0  0  0
    2.4135  -18.2620   20.4198 C   0  0  0  0  0  0  0  0  0  0  0  0
    3.0229  -18.5860   21.6187 C   0  0  0  0  0  0  0  0  0  0  0  0
    4.3144  -17.9653   22.0185 C   0  0  0  0  0  0  0  0  0  0  0  0
    5.3198  -18.2496   20.9557 C   0  0  2  0  0  0  0  0  0  0  0  0
    5.5515  -19.6607   20.8727 N   0  0  0  0  0  0  0  0  0  0  0  0
    6.5645  -17.4673   21.0903 C   0  0  0  0  0  0  0  0  0  0  0  0
    7.4707  -17.9664   21.8282 O   0  0  0  0  0  0  0  0  0  0  0  0
    2.3715  -19.5073   22.4137 C   0  0  0  0  0  0  0  0  0  0  0  0
    1.1724  -20.0807   22.0381 C   0  0  0  0  0  0  0  0  0  0  0  0
    6.9316  -13.6756   19.7412 O   0  0  0  0  0  0  0  0  0  0  0  0
    8.1654  -14.2922   19.8767 C   0  0  0  0  0  0  0  0  0  0  0  0
    8.0740  -15.5677   20.7099 C   0  0  2  0  0  0  0  0  0  0  0  0
    6.8049  -16.2333   20.4681 N   0  0  0  0  0  0  0  0  0  0  0  0
    8.2278  -15.2257   22.1513 C   0  0  0  0  0  0  0  0  0  0  0  0
    7.6820  -14.1714   22.6304 O   0  0  0  0  0  0  0  0  0  0  0  0
    8.9584  -16.0000   23.0859 N   0  0  0  0  0  0  0  0  0  0  0  0
    9.2926  -15.4887   24.4195 C   0  0  1  0  0  0  0  0  0  0  0  0
    8.4858  -16.2224   25.4786 C   0  0  0  0  0  0  0  0  0  0  0  0
    6.7238  -15.9691   25.2865 S   0  0  0  0  0  0  0  0  0  0  0  0
   10.7324  -15.5777   24.6833 C   0  0  0  0  0  0  0  0  0  0  0  0
   11.5061  -16.0742   23.8341 O   0  0  0  0  0  0  0  0  0  0  0  0
   11.2454  -15.1153   25.8689 O   0  0  0  0  0  0  0  0  0  0  0  0
  2  1  1  0
  3  2  2  0
  4  5  2  0
  4  3  1  0
  5 11  1  0
  6  5  1  0
  6  7  1  0
  7  9  1  0
  7  8  1  1
  9 10  2  0
 11 12  2  0
 12  2  1  0
 13 14  1  0
 15 14  1  6
 16 15  1  0
 16  9  1  0
 17 19  1  0
 17 15  1  0
 18 17  2  0
 20 19  1  0
 20 21  1  1
 21 22  1  0
 23 25  1  0
 23 20  1  0
 24 23  2  0
M  END
$$$$
