YSC.pdb
     RDKit          3D

 25 25  0  0  1  0  0  0  0  0999 V2000
    5.2832  -10.4963   27.1096 O   0  0  0  0  0  0  0  0  0  0  0  0
    6.0271  -11.6111   26.7176 C   0  0  0  0  0  0  0  0  0  0  0  0
    6.6758  -11.6253   25.5010 C   0  0  0  0  0  0  0  0  0  0  0  0
    7.4154  -12.7171   25.0961 C   0  0  0  0  0  0  0  0  0  0  0  0
    7.5403  -13.8440   25.8887 C   0  0  0  0  0  0  0  0  0  0  0  0
    8.3410  -15.0153   25.4413 C   0  0  0  0  0  0  0  0  0  0  0  0
    7.4688  -15.8869   24.6042 C   0  0  2  0  0  0  0  0  0  0  0  0
    6.6950  -16.7497   25.4459 N   0  0  0  0  0  0  0  0  0  0  0  0
    8.1962  -16.6142   23.5452 C   0  0  0  0  0  0  0  0  0  0  0  0
    8.7351  -17.7149   23.8811 O   0  0  0  0  0  0  0  0  0  0  0  0
    6.8873  -13.8197   27.1044 C   0  0  0  0  0  0  0  0  0  0  0  0
    6.1452  -12.7296   27.5154 C   0  0  0  0  0  0  0  0  0  0  0  0
    9.6139  -14.9380   19.8411 O   0  0  0  0  0  0  0  0  0  0  0  0
    9.2365  -16.2669   19.9534 C   0  0  0  0  0  0  0  0  0  0  0  0
    9.3597  -16.7725   21.3881 C   0  0  2  0  0  0  0  0  0  0  0  0
    8.3275  -16.1758   22.2192 N   0  0  0  0  0  0  0  0  0  0  0  0
   10.7159  -16.4461   21.9099 C   0  0  0  0  0  0  0  0  0  0  0  0
   10.8575  -15.6237   22.8808 O   0  0  0  0  0  0  0  0  0  0  0  0
   11.9222  -16.9907   21.4050 N   0  0  0  0  0  0  0  0  0  0  0  0
   13.1209  -17.1199   22.2404 C   0  0  1  0  0  0  0  0  0  0  0  0
   12.8415  -18.0397   23.4181 C   0  0  0  0  0  0  0  0  0  0  0  0
   14.1521  -17.9994   24.6372 S   0  0  0  0  0  0  0  0  0  0  0  0
   14.2726  -17.5822   21.4590 C   0  0  0  0  0  0  0  0  0  0  0  0
   14.1302  -18.4460   20.5646 O   0  0  0  0  0  0  0  0  0  0  0  0
   15.5215  -17.0691   21.7032 O   0  0  0  0  0  0  0  0  0  0  0  0
  2  1  1  0
  3  2  2  0
  4  5  2  0
  4  3  1  0
  5 11  1  0
  6  5  1  0
  6  7  1  0
  7  9  1  0
  7  8  1  1
  9 10  2  0
 11 12  2  0
 12  2  1  0
 13 14  1  0
 15 14  1  6
 16 15  1  0
 16  9  1  0
 17 19  1  0
 17 15  1  0
 18 17  2  0
 20 19  1  0
 20 21  1  1
 21 22  1  0
 23 25  1  0
 23 20  1  0
 24 23  2  0
M  END
$$$$
