YSC.pdb
     RDKit          3D

 25 25  0  0  1  0  0  0  0  0999 V2000
    8.5435  -16.9172    9.0732 O   0  0  0  0  0  0  0  0  0  0  0  0
    8.8190  -16.9282   10.4420 C   0  0  0  0  0  0  0  0  0  0  0  0
   10.1084  -16.7501   10.8963 C   0  0  0  0  0  0  0  0  0  0  0  0
   10.4006  -16.7578   12.2446 C   0  0  0  0  0  0  0  0  0  0  0  0
    9.4172  -16.9438   13.1997 C   0  0  0  0  0  0  0  0  0  0  0  0
    9.7445  -16.9498   14.6509 C   0  0  0  0  0  0  0  0  0  0  0  0
    8.5866  -16.3776   15.3947 C   0  0  2  0  0  0  0  0  0  0  0  0
    8.4867  -14.9735   15.1303 N   0  0  0  0  0  0  0  0  0  0  0  0
    8.5911  -16.6946   16.8366 C   0  0  0  0  0  0  0  0  0  0  0  0
    9.2646  -15.9195   17.5852 O   0  0  0  0  0  0  0  0  0  0  0  0
    8.1299  -17.1210   12.7345 C   0  0  0  0  0  0  0  0  0  0  0  0
    7.8311  -17.1144   11.3860 C   0  0  0  0  0  0  0  0  0  0  0  0
    6.7328  -19.9981   18.5899 O   0  0  0  0  0  0  0  0  0  0  0  0
    6.9176  -18.8652   19.3667 C   0  0  0  0  0  0  0  0  0  0  0  0
    8.0643  -18.0022   18.8476 C   0  0  2  0  0  0  0  0  0  0  0  0
    7.9131  -17.7751   17.4202 N   0  0  0  0  0  0  0  0  0  0  0  0
    9.3595  -18.6752   19.1438 C   0  0  0  0  0  0  0  0  0  0  0  0
    9.9931  -19.2984   18.2222 O   0  0  0  0  0  0  0  0  0  0  0  0
    9.9848  -18.6879   20.4148 N   0  0  0  0  0  0  0  0  0  0  0  0
   11.1848  -19.4893   20.6777 C   0  0  1  0  0  0  0  0  0  0  0  0
   12.4324  -18.6423   20.4846 C   0  0  0  0  0  0  0  0  0  0  0  0
   13.9274  -19.5264   20.9195 S   0  0  0  0  0  0  0  0  0  0  0  0
   11.1459  -20.0919   22.0141 C   0  0  0  0  0  0  0  0  0  0  0  0
   10.5338  -19.5287   22.9492 O   0  0  0  0  0  0  0  0  0  0  0  0
   11.7832  -21.2836   22.2513 O   0  0  0  0  0  0  0  0  0  0  0  0
  2  1  1  0
  3  2  2  0
  4  5  2  0
  4  3  1  0
  5 11  1  0
  6  5  1  0
  6  7  1  0
  7  9  1  0
  7  8  1  1
  9 10  2  0
 11 12  2  0
 12  2  1  0
 13 14  1  0
 15 14  1  6
 16 15  1  0
 16  9  1  0
 17 19  1  0
 17 15  1  0
 18 17  2  0
 20 19  1  0
 20 21  1  1
 21 22  1  0
 23 25  1  0
 23 20  1  0
 24 23  2  0
M  END
$$$$
