YSC.pdb
     RDKit          3D

 25 25  0  0  1  0  0  0  0  0999 V2000
    6.8335  -20.7445   28.9251 O   0  0  0  0  0  0  0  0  0  0  0  0
    7.2317  -20.4695   27.6154 C   0  0  0  0  0  0  0  0  0  0  0  0
    6.4839  -20.9210   26.5487 C   0  0  0  0  0  0  0  0  0  0  0  0
    6.8608  -20.6595   25.2476 C   0  0  0  0  0  0  0  0  0  0  0  0
    8.0021  -19.9350   24.9539 C   0  0  0  0  0  0  0  0  0  0  0  0
    8.3983  -19.6591   23.5467 C   0  0  0  0  0  0  0  0  0  0  0  0
    7.5576  -18.5403   23.0340 C   0  0  2  0  0  0  0  0  0  0  0  0
    7.4194  -18.6499   21.6125 N   0  0  0  0  0  0  0  0  0  0  0  0
    8.0152  -17.2056   23.4683 C   0  0  0  0  0  0  0  0  0  0  0  0
    9.1840  -16.8619   23.1072 O   0  0  0  0  0  0  0  0  0  0  0  0
    8.7435  -19.4876   26.0286 C   0  0  0  0  0  0  0  0  0  0  0  0
    8.3714  -19.7462   27.3334 C   0  0  0  0  0  0  0  0  0  0  0  0
    6.0256  -14.5483   26.1259 O   0  0  0  0  0  0  0  0  0  0  0  0
    6.7890  -14.0644   25.0751 C   0  0  0  0  0  0  0  0  0  0  0  0
    7.8666  -15.0587   24.6516 C   0  0  2  0  0  0  0  0  0  0  0  0
    7.2569  -16.3116   24.2386 N   0  0  0  0  0  0  0  0  0  0  0  0
    8.8088  -15.2751   25.7846 C   0  0  0  0  0  0  0  0  0  0  0  0
    8.5476  -16.1420   26.6898 O   0  0  0  0  0  0  0  0  0  0  0  0
   10.0278  -14.5749   25.9592 N   0  0  0  0  0  0  0  0  0  0  0  0
   10.7740  -14.6252   27.2210 C   0  0  1  0  0  0  0  0  0  0  0  0
    9.9201  -14.0831   28.3559 C   0  0  0  0  0  0  0  0  0  0  0  0
   10.7775  -14.1179   29.9273 S   0  0  0  0  0  0  0  0  0  0  0  0
   11.2517  -15.9816   27.5085 C   0  0  0  0  0  0  0  0  0  0  0  0
   10.4484  -16.9388   27.5767 O   0  0  0  0  0  0  0  0  0  0  0  0
   12.5896  -16.2134   27.7061 O   0  0  0  0  0  0  0  0  0  0  0  0
  2  1  1  0
  3  2  2  0
  4  5  2  0
  4  3  1  0
  5 11  1  0
  6  5  1  0
  6  7  1  0
  7  9  1  0
  7  8  1  6
  9 10  2  0
 11 12  2  0
 12  2  1  0
 13 14  1  0
 15 14  1  1
 16 15  1  0
 16  9  1  0
 17 19  1  0
 17 15  1  0
 18 17  2  0
 20 19  1  0
 20 21  1  1
 21 22  1  0
 23 25  1  0
 23 20  1  0
 24 23  2  0
M  END
$$$$
