YSC.pdb
     RDKit          3D

 25 25  0  0  1  0  0  0  0  0999 V2000
   11.3919  -21.5491   22.7633 O   0  0  0  0  0  0  0  0  0  0  0  0
   11.6813  -21.0346   21.4979 C   0  0  0  0  0  0  0  0  0  0  0  0
   12.9883  -20.9058   21.0784 C   0  0  0  0  0  0  0  0  0  0  0  0
   13.2942  -20.3997   19.8320 C   0  0  0  0  0  0  0  0  0  0  0  0
   12.3078  -19.9995   18.9486 C   0  0  0  0  0  0  0  0  0  0  0  0
   12.6501  -19.4554   17.6069 C   0  0  0  0  0  0  0  0  0  0  0  0
   12.3257  -20.4906   16.5849 C   0  0  2  0  0  0  0  0  0  0  0  0
   13.1767  -21.6291   16.7611 N   0  0  0  0  0  0  0  0  0  0  0  0
   12.3255  -19.9790   15.2000 C   0  0  0  0  0  0  0  0  0  0  0  0
   13.4451  -19.9692   14.5992 O   0  0  0  0  0  0  0  0  0  0  0  0
   11.0029  -20.1325   19.3781 C   0  0  0  0  0  0  0  0  0  0  0  0
   10.6901  -20.6385   20.6247 C   0  0  0  0  0  0  0  0  0  0  0  0
    8.9767  -18.5758   13.0843 O   0  0  0  0  0  0  0  0  0  0  0  0
   10.0290  -19.1628   12.3994 C   0  0  0  0  0  0  0  0  0  0  0  0
   11.3460  -19.0276   13.1587 C   0  0  2  0  0  0  0  0  0  0  0  0
   11.1908  -19.5125   14.5199 N   0  0  0  0  0  0  0  0  0  0  0  0
   11.7752  -17.6015   13.1489 C   0  0  0  0  0  0  0  0  0  0  0  0
   11.3258  -16.7821   14.0241 O   0  0  0  0  0  0  0  0  0  0  0  0
   12.6806  -17.0425   12.2138 N   0  0  0  0  0  0  0  0  0  0  0  0
   13.0312  -15.6184   12.2338 C   0  0  1  0  0  0  0  0  0  0  0  0
   14.5403  -15.4520   12.3096 C   0  0  0  0  0  0  0  0  0  0  0  0
   15.2171  -16.0841   13.8420 S   0  0  0  0  0  0  0  0  0  0  0  0
   12.4699  -14.9110   11.0783 C   0  0  0  0  0  0  0  0  0  0  0  0
   11.7454  -15.5120   10.2537 O   0  0  0  0  0  0  0  0  0  0  0  0
   12.7359  -13.5780   10.8909 O   0  0  0  0  0  0  0  0  0  0  0  0
  2  1  1  0
  3  2  2  0
  4  5  2  0
  4  3  1  0
  5 11  1  0
  6  5  1  0
  6  7  1  0
  7  9  1  0
  7  8  1  6
  9 10  2  0
 11 12  2  0
 12  2  1  0
 13 14  1  0
 15 14  1  6
 16 15  1  0
 16  9  1  0
 17 19  1  0
 17 15  1  0
 18 17  2  0
 20 19  1  0
 20 21  1  6
 21 22  1  0
 23 25  1  0
 23 20  1  0
 24 23  2  0
M  END
$$$$
