YSC.pdb
     RDKit          3D

 25 25  0  0  1  0  0  0  0  0999 V2000
    8.2905  -12.5954   16.6711 O   0  0  0  0  0  0  0  0  0  0  0  0
    8.1144  -13.0834   17.9675 C   0  0  0  0  0  0  0  0  0  0  0  0
    6.8539  -13.3940   18.4316 C   0  0  0  0  0  0  0  0  0  0  0  0
    6.6596  -13.8772   19.7090 C   0  0  0  0  0  0  0  0  0  0  0  0
    7.7163  -14.0718   20.5804 C   0  0  0  0  0  0  0  0  0  0  0  0
    7.4943  -14.5937   21.9557 C   0  0  0  0  0  0  0  0  0  0  0  0
    7.7994  -16.0525   21.9582 C   0  0  2  0  0  0  0  0  0  0  0  0
    6.7150  -16.7755   21.3640 N   0  0  0  0  0  0  0  0  0  0  0  0
    8.1854  -16.5768   23.2832 C   0  0  0  0  0  0  0  0  0  0  0  0
    7.2360  -16.8996   24.0636 O   0  0  0  0  0  0  0  0  0  0  0  0
    8.9738  -13.7578   20.1061 C   0  0  0  0  0  0  0  0  0  0  0  0
    9.1748  -13.2737   18.8282 C   0  0  0  0  0  0  0  0  0  0  0  0
   11.9355  -17.9014   24.3816 O   0  0  0  0  0  0  0  0  0  0  0  0
   10.8100  -18.2876   25.0924 C   0  0  0  0  0  0  0  0  0  0  0  0
    9.7339  -17.2055   25.0829 C   0  0  2  0  0  0  0  0  0  0  0  0
    9.5068  -16.7376   23.7258 N   0  0  0  0  0  0  0  0  0  0  0  0
   10.1561  -16.0840   25.9672 C   0  0  0  0  0  0  0  0  0  0  0  0
   11.1338  -15.3273   25.6344 O   0  0  0  0  0  0  0  0  0  0  0  0
    9.5433  -15.7625   27.2032 N   0  0  0  0  0  0  0  0  0  0  0  0
   10.0872  -14.7280   28.0895 C   0  0  1  0  0  0  0  0  0  0  0  0
    9.0766  -13.6061   28.2662 C   0  0  0  0  0  0  0  0  0  0  0  0
    8.4729  -12.9830   26.7000 S   0  0  0  0  0  0  0  0  0  0  0  0
   10.4985  -15.2890   29.3805 C   0  0  0  0  0  0  0  0  0  0  0  0
   10.3446  -16.5069   29.6239 O   0  0  0  0  0  0  0  0  0  0  0  0
   11.0580  -14.4794   30.3366 O   0  0  0  0  0  0  0  0  0  0  0  0
  2  1  1  0
  3  2  2  0
  4  5  2  0
  4  3  1  0
  5 11  1  0
  6  5  1  0
  6  7  1  0
  7  9  1  0
  7  8  1  1
  9 10  2  0
 11 12  2  0
 12  2  1  0
 13 14  1  0
 15 14  1  6
 16 15  1  0
 16  9  1  0
 17 19  1  0
 17 15  1  0
 18 17  2  0
 20 19  1  0
 20 21  1  1
 21 22  1  0
 23 25  1  0
 23 20  1  0
 24 23  2  0
M  END
$$$$
