YSC.pdb
     RDKit          3D

 25 25  0  0  1  0  0  0  0  0999 V2000
    8.2882  -12.7655   16.8283 O   0  0  0  0  0  0  0  0  0  0  0  0
    8.1756  -13.1615   18.1626 C   0  0  0  0  0  0  0  0  0  0  0  0
    6.9916  -12.9841   18.8463 C   0  0  0  0  0  0  0  0  0  0  0  0
    6.8609  -13.3687   20.1646 C   0  0  0  0  0  0  0  0  0  0  0  0
    7.9076  -13.9481   20.8593 C   0  0  0  0  0  0  0  0  0  0  0  0
    7.7545  -14.3591   22.2808 C   0  0  0  0  0  0  0  0  0  0  0  0
    7.6485  -15.8449   22.3302 C   0  0  2  0  0  0  0  0  0  0  0  0
    6.3610  -16.2551   21.8551 N   0  0  0  0  0  0  0  0  0  0  0  0
    7.9889  -16.4218   23.6458 C   0  0  0  0  0  0  0  0  0  0  0  0
    7.1045  -16.3248   24.5532 O   0  0  0  0  0  0  0  0  0  0  0  0
    9.0883  -14.1213   20.1659 C   0  0  0  0  0  0  0  0  0  0  0  0
    9.2254  -13.7383   18.8459 C   0  0  0  0  0  0  0  0  0  0  0  0
   11.5237  -18.5064   24.6531 O   0  0  0  0  0  0  0  0  0  0  0  0
   10.3255  -18.7514   25.3054 C   0  0  0  0  0  0  0  0  0  0  0  0
    9.4205  -17.5225   25.3103 C   0  0  2  0  0  0  0  0  0  0  0  0
    9.2019  -17.0567   23.9511 N   0  0  0  0  0  0  0  0  0  0  0  0
   10.0434  -16.4562   26.1430 C   0  0  0  0  0  0  0  0  0  0  0  0
   10.9878  -15.7322   25.6709 O   0  0  0  0  0  0  0  0  0  0  0  0
    9.6662  -16.1556   27.4750 N   0  0  0  0  0  0  0  0  0  0  0  0
   10.4466  -15.2365   28.3103 C   0  0  1  0  0  0  0  0  0  0  0  0
    9.6199  -14.0062   28.6479 C   0  0  0  0  0  0  0  0  0  0  0  0
    8.9196  -13.2378   27.1902 S   0  0  0  0  0  0  0  0  0  0  0  0
   10.9414  -15.9001   29.5209 C   0  0  0  0  0  0  0  0  0  0  0  0
   10.6518  -17.0947   29.7562 O   0  0  0  0  0  0  0  0  0  0  0  0
   11.7297  -15.2135   30.4096 O   0  0  0  0  0  0  0  0  0  0  0  0
  2  1  1  0
  3  2  2  0
  4  5  2  0
  4  3  1  0
  5 11  1  0
  6  5  1  0
  6  7  1  0
  7  9  1  0
  7  8  1  1
  9 10  2  0
 11 12  2  0
 12  2  1  0
 13 14  1  0
 15 14  1  6
 16 15  1  0
 16  9  1  0
 17 19  1  0
 17 15  1  0
 18 17  2  0
 20 19  1  0
 20 21  1  1
 21 22  1  0
 23 25  1  0
 23 20  1  0
 24 23  2  0
M  END
$$$$
