YSC.pdb
     RDKit          3D

 25 25  0  0  1  0  0  0  0  0999 V2000
    7.0405  -29.4587   37.3148 O   0  0  0  0  0  0  0  0  0  0  0  0
    7.5141  -28.5867   36.3324 C   0  0  0  0  0  0  0  0  0  0  0  0
    6.6347  -27.8310   35.5864 C   0  0  0  0  0  0  0  0  0  0  0  0
    7.0832  -26.9641   34.6115 C   0  0  0  0  0  0  0  0  0  0  0  0
    8.4309  -26.8133   34.3381 C   0  0  0  0  0  0  0  0  0  0  0  0
    8.9026  -25.8750   33.2844 C   0  0  0  0  0  0  0  0  0  0  0  0
    9.6448  -24.7638   33.9446 C   0  0  2  0  0  0  0  0  0  0  0  0
    8.7532  -24.0124   34.7764 N   0  0  0  0  0  0  0  0  0  0  0  0
   10.4083  -23.9185   33.0055 C   0  0  0  0  0  0  0  0  0  0  0  0
    9.7491  -23.3835   32.0600 O   0  0  0  0  0  0  0  0  0  0  0  0
    9.3028  -27.5741   35.0903 C   0  0  0  0  0  0  0  0  0  0  0  0
    8.8599  -28.4438   36.0677 C   0  0  0  0  0  0  0  0  0  0  0  0
   13.8444  -22.0265   33.8577 O   0  0  0  0  0  0  0  0  0  0  0  0
   13.0875  -21.6312   32.7660 C   0  0  0  0  0  0  0  0  0  0  0  0
   12.4034  -22.8166   32.0906 C   0  0  2  0  0  0  0  0  0  0  0  0
   11.7871  -23.6740   33.0891 N   0  0  0  0  0  0  0  0  0  0  0  0
   13.4060  -23.5715   31.2887 C   0  0  0  0  0  0  0  0  0  0  0  0
   13.9206  -24.6521   31.7434 O   0  0  0  0  0  0  0  0  0  0  0  0
   13.8634  -23.1836   30.0053 N   0  0  0  0  0  0  0  0  0  0  0  0
   14.8458  -23.9796   29.2619 C   0  0  1  0  0  0  0  0  0  0  0  0
   14.8413  -23.5795   27.7953 C   0  0  0  0  0  0  0  0  0  0  0  0
   13.1836  -23.4539   27.1307 S   0  0  0  0  0  0  0  0  0  0  0  0
   16.1854  -23.8620   29.8469 C   0  0  0  0  0  0  0  0  0  0  0  0
   16.3815  -23.1390   30.8494 O   0  0  0  0  0  0  0  0  0  0  0  0
   17.2397  -24.5468   29.2973 O   0  0  0  0  0  0  0  0  0  0  0  0
  2  1  1  0
  3  2  2  0
  4  5  2  0
  4  3  1  0
  5 11  1  0
  6  5  1  0
  6  7  1  0
  7  9  1  0
  7  8  1  6
  9 10  2  0
 11 12  2  0
 12  2  1  0
 13 14  1  0
 15 14  1  1
 16 15  1  0
 16  9  1  0
 17 19  1  0
 17 15  1  0
 18 17  2  0
 20 19  1  0
 20 21  1  6
 21 22  1  0
 23 25  1  0
 23 20  1  0
 24 23  2  0
M  END
$$$$
