QCG.pdb
     RDKit          3D

 20 19  0  0  1  0  0  0  0  0999 V2000
    8.4977  -12.8194   16.8366 N   0  0  0  0  0  0  0  0  0  0  0  0
    7.8923  -14.0980   16.5659 C   0  0  0  0  0  0  0  0  0  0  0  0
    7.4713  -14.2645   15.4125 O   0  0  0  0  0  0  0  0  0  0  0  0
    7.7915  -15.1256   17.6101 C   0  0  0  0  0  0  0  0  0  0  0  0
    8.2467  -14.6918   18.9597 C   0  0  0  0  0  0  0  0  0  0  0  0
    8.4026  -15.7943   19.9733 C   0  0  2  0  0  0  0  0  0  0  0  0
    7.0641  -16.3660   20.1449 N   0  0  0  0  0  0  0  0  0  0  0  0
    8.9222  -15.2654   21.2459 C   0  0  0  0  0  0  0  0  0  0  0  0
   10.0615  -14.7425   21.2891 O   0  0  0  0  0  0  0  0  0  0  0  0
    8.1858  -15.3133   22.4694 N   0  0  0  0  0  0  0  0  0  0  0  0
    8.8257  -14.9366   23.7140 C   0  0  1  0  0  0  0  0  0  0  0  0
    7.7270  -14.5130   24.6656 C   0  0  0  0  0  0  0  0  0  0  0  0
    6.8530  -13.1193   23.8996 S   0  0  0  0  0  0  0  0  0  0  0  0
    9.6483  -16.0356   24.2706 C   0  0  0  0  0  0  0  0  0  0  0  0
    9.0456  -16.9212   24.9297 O   0  0  0  0  0  0  0  0  0  0  0  0
   11.0409  -16.1549   24.1141 N   0  0  0  0  0  0  0  0  0  0  0  0
   11.8454  -17.1890   24.6943 C   0  0  0  0  0  0  0  0  0  0  0  0
   13.2891  -17.0276   24.4211 C   0  0  0  0  0  0  0  0  0  0  0  0
   13.6547  -15.9735   23.8461 O   0  0  0  0  0  0  0  0  0  0  0  0
   14.2508  -17.9497   24.7531 O   0  0  0  0  0  0  0  0  0  0  0  0
  2  1  1  0
  3  2  2  0
  4  2  1  0
  5  4  1  0
  6  5  1  0
  6  7  1  1
  8  6  1  0
  8 10  1  0
  9  8  2  0
 11 10  1  0
 11 14  1  0
 11 12  1  1
 13 12  1  0
 14 15  2  0
 14 16  1  0
 16 17  1  0
 18 17  1  0
 18 20  1  0
 19 18  2  0
M  END
$$$$
