QCG.pdb
     RDKit          3D

 20 19  0  0  1  0  0  0  0  0999 V2000
    8.4822  -15.4394   14.3826 N   0  0  0  0  0  0  0  0  0  0  0  0
    9.5549  -16.3979   14.4566 C   0  0  0  0  0  0  0  0  0  0  0  0
    9.7615  -17.0597   13.4298 O   0  0  0  0  0  0  0  0  0  0  0  0
   10.3411  -16.5626   15.6859 C   0  0  0  0  0  0  0  0  0  0  0  0
    9.8887  -15.7286   16.8335 C   0  0  0  0  0  0  0  0  0  0  0  0
   10.0085  -16.3755   18.1879 C   0  0  2  0  0  0  0  0  0  0  0  0
    8.9335  -17.3697   18.2477 N   0  0  0  0  0  0  0  0  0  0  0  0
    9.8679  -15.3751   19.2597 C   0  0  0  0  0  0  0  0  0  0  0  0
   10.8549  -14.6816   19.6034 O   0  0  0  0  0  0  0  0  0  0  0  0
    8.6401  -15.1402   19.9516 N   0  0  0  0  0  0  0  0  0  0  0  0
    8.5946  -14.1845   21.0401 C   0  0  1  0  0  0  0  0  0  0  0  0
    7.1617  -13.7086   21.1511 C   0  0  0  0  0  0  0  0  0  0  0  0
    6.6711  -13.0788   19.5215 S   0  0  0  0  0  0  0  0  0  0  0  0
    9.0859  -14.7660   22.3108 C   0  0  0  0  0  0  0  0  0  0  0  0
    9.0939  -14.0118   23.3174 O   0  0  0  0  0  0  0  0  0  0  0  0
    9.5387  -16.0883   22.4667 N   0  0  0  0  0  0  0  0  0  0  0  0
   10.0168  -16.6518   23.6945 C   0  0  0  0  0  0  0  0  0  0  0  0
   11.4828  -16.5473   23.8525 C   0  0  0  0  0  0  0  0  0  0  0  0
   11.9814  -16.9757   24.9217 O   0  0  0  0  0  0  0  0  0  0  0  0
   12.3299  -16.0153   22.9118 O   0  0  0  0  0  0  0  0  0  0  0  0
  2  1  1  0
  3  2  2  0
  4  2  1  0
  5  4  1  0
  6  5  1  0
  6  7  1  1
  8  6  1  0
  8 10  1  0
  9  8  2  0
 11 10  1  0
 11 14  1  0
 11 12  1  1
 13 12  1  0
 14 15  2  0
 14 16  1  0
 16 17  1  0
 18 17  1  0
 18 20  1  0
 19 18  2  0
M  END
$$$$
