QCG.pdb
     RDKit          3D

 20 19  0  0  1  0  0  0  0  0999 V2000
    7.1609  -18.5987   23.3488 N   0  0  0  0  0  0  0  0  0  0  0  0
    7.4557  -18.4726   21.9445 C   0  0  0  0  0  0  0  0  0  0  0  0
    7.9473  -19.4725   21.4025 O   0  0  0  0  0  0  0  0  0  0  0  0
    7.1818  -17.2242   21.2213 C   0  0  0  0  0  0  0  0  0  0  0  0
    6.5080  -16.1696   22.0280 C   0  0  0  0  0  0  0  0  0  0  0  0
    7.0647  -14.7799   21.8671 C   0  0  2  0  0  0  0  0  0  0  0  0
    7.9238  -14.8330   20.6809 N   0  0  0  0  0  0  0  0  0  0  0  0
    7.8303  -14.3816   23.0606 C   0  0  0  0  0  0  0  0  0  0  0  0
    9.0784  -14.5049   23.0749 O   0  0  0  0  0  0  0  0  0  0  0  0
    7.2197  -13.8478   24.2370 N   0  0  0  0  0  0  0  0  0  0  0  0
    8.0446  -13.4132   25.3466 C   0  0  1  0  0  0  0  0  0  0  0  0
    7.3368  -12.2402   25.9908 C   0  0  0  0  0  0  0  0  0  0  0  0
    5.7229  -12.8325   26.5718 S   0  0  0  0  0  0  0  0  0  0  0  0
    8.2974  -14.5072   26.3127 C   0  0  0  0  0  0  0  0  0  0  0  0
    7.4103  -15.3929   26.4159 O   0  0  0  0  0  0  0  0  0  0  0  0
    9.4481  -14.6219   27.1132 N   0  0  0  0  0  0  0  0  0  0  0  0
    9.6788  -15.6602   28.0734 C   0  0  0  0  0  0  0  0  0  0  0  0
   10.4838  -16.7795   27.5402 C   0  0  0  0  0  0  0  0  0  0  0  0
   10.7801  -16.7497   26.3209 O   0  0  0  0  0  0  0  0  0  0  0  0
   10.9261  -17.8434   28.2871 O   0  0  0  0  0  0  0  0  0  0  0  0
  2  1  1  0
  3  2  2  0
  4  2  1  0
  5  4  1  0
  6  5  1  0
  6  7  1  6
  8  6  1  0
  8 10  1  0
  9  8  2  0
 11 10  1  0
 11 14  1  0
 11 12  1  1
 13 12  1  0
 14 15  2  0
 14 16  1  0
 16 17  1  0
 18 17  1  0
 18 20  1  0
 19 18  2  0
M  END
$$$$
