QCG.pdb
     RDKit          3D

 20 19  0  0  1  0  0  0  0  0999 V2000
    9.1670  -16.9820   16.2413 N   0  0  0  0  0  0  0  0  0  0  0  0
    8.1454  -16.0537   15.8297 C   0  0  0  0  0  0  0  0  0  0  0  0
    7.6447  -16.2587   14.7150 O   0  0  0  0  0  0  0  0  0  0  0  0
    7.7396  -14.9396   16.6960 C   0  0  0  0  0  0  0  0  0  0  0  0
    8.4812  -14.8472   17.9839 C   0  0  0  0  0  0  0  0  0  0  0  0
    7.9500  -13.8343   18.9630 C   0  0  2  0  0  0  0  0  0  0  0  0
    8.2310  -12.5245   18.3686 N   0  0  0  0  0  0  0  0  0  0  0  0
    8.6093  -13.9765   20.2724 C   0  0  0  0  0  0  0  0  0  0  0  0
    9.8095  -13.6389   20.4100 O   0  0  0  0  0  0  0  0  0  0  0  0
    7.9455  -14.4904   21.4285 N   0  0  0  0  0  0  0  0  0  0  0  0
    8.6947  -14.7313   22.6455 C   0  0  1  0  0  0  0  0  0  0  0  0
    7.6953  -14.7555   23.7825 C   0  0  0  0  0  0  0  0  0  0  0  0
    7.1115  -13.0550   24.0283 S   0  0  0  0  0  0  0  0  0  0  0  0
    9.4835  -15.9830   22.5737 C   0  0  0  0  0  0  0  0  0  0  0  0
    8.8759  -17.0191   22.2004 O   0  0  0  0  0  0  0  0  0  0  0  0
   10.8495  -16.0908   22.8906 N   0  0  0  0  0  0  0  0  0  0  0  0
   11.5931  -17.3156   22.9074 C   0  0  0  0  0  0  0  0  0  0  0  0
   13.0169  -17.1289   23.2580 C   0  0  0  0  0  0  0  0  0  0  0  0
   13.4366  -15.9509   23.3656 O   0  0  0  0  0  0  0  0  0  0  0  0
   13.9052  -18.1537   23.4725 O   0  0  0  0  0  0  0  0  0  0  0  0
  2  1  1  0
  3  2  2  0
  4  2  1  0
  5  4  1  0
  6  5  1  0
  6  7  1  6
  8  6  1  0
  8 10  1  0
  9  8  2  0
 11 10  1  0
 11 14  1  0
 11 12  1  1
 13 12  1  0
 14 15  2  0
 14 16  1  0
 16 17  1  0
 18 17  1  0
 18 20  1  0
 19 18  2  0
M  END
$$$$
