QCG.pdb
     RDKit          3D

 20 19  0  0  1  0  0  0  0  0999 V2000
    7.9534  -11.9864   18.4275 N   0  0  0  0  0  0  0  0  0  0  0  0
    7.7758  -13.3458   17.9858 C   0  0  0  0  0  0  0  0  0  0  0  0
    7.6436  -13.5054   16.7642 O   0  0  0  0  0  0  0  0  0  0  0  0
    7.7557  -14.4581   18.9443 C   0  0  0  0  0  0  0  0  0  0  0  0
    7.9384  -14.0601   20.3674 C   0  0  0  0  0  0  0  0  0  0  0  0
    7.9457  -15.1935   21.3586 C   0  0  2  0  0  0  0  0  0  0  0  0
    6.6475  -15.8571   21.2098 N   0  0  0  0  0  0  0  0  0  0  0  0
    8.1306  -14.6883   22.7297 C   0  0  0  0  0  0  0  0  0  0  0  0
    8.5813  -13.5328   22.9167 O   0  0  0  0  0  0  0  0  0  0  0  0
    7.8188  -15.4570   23.8931 N   0  0  0  0  0  0  0  0  0  0  0  0
    8.0464  -14.8989   25.2111 C   0  0  1  0  0  0  0  0  0  0  0  0
    7.1582  -13.6790   25.3341 C   0  0  0  0  0  0  0  0  0  0  0  0
    7.3816  -13.0112   27.0065 S   0  0  0  0  0  0  0  0  0  0  0  0
    7.7855  -15.8854   26.2848 C   0  0  0  0  0  0  0  0  0  0  0  0
    6.5853  -16.2013   26.4894 O   0  0  0  0  0  0  0  0  0  0  0  0
    8.7765  -16.4860   27.0817 N   0  0  0  0  0  0  0  0  0  0  0  0
    8.5553  -17.5825   27.9773 C   0  0  0  0  0  0  0  0  0  0  0  0
    9.7617  -17.9642   28.7414 C   0  0  0  0  0  0  0  0  0  0  0  0
   10.8367  -17.3837   28.4534 O   0  0  0  0  0  0  0  0  0  0  0  0
    9.7834  -18.9068   29.7397 O   0  0  0  0  0  0  0  0  0  0  0  0
  2  1  1  0
  3  2  2  0
  4  2  1  0
  5  4  1  0
  6  5  1  0
  6  7  1  1
  8  6  1  0
  8 10  1  0
  9  8  2  0
 11 10  1  0
 11 14  1  0
 11 12  1  1
 13 12  1  0
 14 15  2  0
 14 16  1  0
 16 17  1  0
 18 17  1  0
 18 20  1  0
 19 18  2  0
M  END
$$$$
