QCG.pdb
     RDKit          3D

 20 19  0  0  1  0  0  0  0  0999 V2000
    9.8579  -17.2194   15.6115 N   0  0  0  0  0  0  0  0  0  0  0  0
    8.6475  -16.6393   15.0887 C   0  0  0  0  0  0  0  0  0  0  0  0
    8.2607  -17.0841   13.9989 O   0  0  0  0  0  0  0  0  0  0  0  0
    7.9337  -15.5856   15.8212 C   0  0  0  0  0  0  0  0  0  0  0  0
    8.5534  -15.1962   17.1178 C   0  0  0  0  0  0  0  0  0  0  0  0
    7.7541  -14.2292   17.9503 C   0  0  2  0  0  0  0  0  0  0  0  0
    7.5974  -13.0302   17.1223 N   0  0  0  0  0  0  0  0  0  0  0  0
    8.4543  -13.9188   19.2083 C   0  0  0  0  0  0  0  0  0  0  0  0
    8.8091  -12.7412   19.4544 O   0  0  0  0  0  0  0  0  0  0  0  0
    8.7628  -14.9064   20.1938 N   0  0  0  0  0  0  0  0  0  0  0  0
    9.3708  -14.5109   21.4485 C   0  0  1  0  0  0  0  0  0  0  0  0
    8.4322  -13.5183   22.1011 C   0  0  0  0  0  0  0  0  0  0  0  0
    6.9259  -14.4186   22.5631 S   0  0  0  0  0  0  0  0  0  0  0  0
    9.6444  -15.6739   22.3242 C   0  0  0  0  0  0  0  0  0  0  0  0
    8.7447  -16.5488   22.4076 O   0  0  0  0  0  0  0  0  0  0  0  0
   10.8277  -15.8643   23.0600 N   0  0  0  0  0  0  0  0  0  0  0  0
   11.5130  -17.1148   23.2014 C   0  0  0  0  0  0  0  0  0  0  0  0
   12.7692  -17.0077   23.9732 C   0  0  0  0  0  0  0  0  0  0  0  0
   13.2956  -15.8722   24.0669 O   0  0  0  0  0  0  0  0  0  0  0  0
   13.3941  -18.0629   24.5908 O   0  0  0  0  0  0  0  0  0  0  0  0
  2  1  1  0
  3  2  2  0
  4  2  1  0
  5  4  1  0
  6  5  1  0
  6  7  1  6
  8  6  1  0
  8 10  1  0
  9  8  2  0
 11 10  1  0
 11 14  1  0
 11 12  1  1
 13 12  1  0
 14 15  2  0
 14 16  1  0
 16 17  1  0
 18 17  1  0
 18 20  1  0
 19 18  2  0
M  END
$$$$
