QCG.pdb
     RDKit          3D

 20 19  0  0  1  0  0  0  0  0999 V2000
    7.1699  -18.6993   15.6050 N   0  0  0  0  0  0  0  0  0  0  0  0
    6.9620  -19.2607   16.9151 C   0  0  0  0  0  0  0  0  0  0  0  0
    5.8174  -19.6713   17.1528 O   0  0  0  0  0  0  0  0  0  0  0  0
    8.0557  -19.3307   17.8924 C   0  0  0  0  0  0  0  0  0  0  0  0
    7.8770  -18.4688   19.0932 C   0  0  0  0  0  0  0  0  0  0  0  0
    8.0490  -16.9915   18.8584 C   0  0  2  0  0  0  0  0  0  0  0  0
    9.0109  -16.8752   17.7588 N   0  0  0  0  0  0  0  0  0  0  0  0
    8.5464  -16.3230   20.0729 C   0  0  0  0  0  0  0  0  0  0  0  0
    9.7549  -16.4229   20.3933 O   0  0  0  0  0  0  0  0  0  0  0  0
    7.7115  -15.5454   20.9331 N   0  0  0  0  0  0  0  0  0  0  0  0
    8.2778  -14.8996   22.1004 C   0  0  1  0  0  0  0  0  0  0  0  0
    7.1936  -14.0229   22.6903 C   0  0  0  0  0  0  0  0  0  0  0  0
    7.8743  -13.2485   24.1836 S   0  0  0  0  0  0  0  0  0  0  0  0
    8.7933  -15.8810   23.0829 C   0  0  0  0  0  0  0  0  0  0  0  0
    8.1132  -16.9246   23.2568 O   0  0  0  0  0  0  0  0  0  0  0  0
    9.9775  -15.7273   23.8259 N   0  0  0  0  0  0  0  0  0  0  0  0
   10.4771  -16.6750   24.7775 C   0  0  0  0  0  0  0  0  0  0  0  0
   11.8758  -17.0783   24.5200 C   0  0  0  0  0  0  0  0  0  0  0  0
   12.4467  -17.7762   25.3931 O   0  0  0  0  0  0  0  0  0  0  0  0
   12.5872  -16.7413   23.3950 O   0  0  0  0  0  0  0  0  0  0  0  0
  2  1  1  0
  3  2  2  0
  4  2  1  0
  5  4  1  0
  6  5  1  0
  6  7  1  6
  8  6  1  0
  8 10  1  0
  9  8  2  0
 11 10  1  0
 11 14  1  0
 11 12  1  1
 13 12  1  0
 14 15  2  0
 14 16  1  0
 16 17  1  0
 18 17  1  0
 18 20  1  0
 19 18  2  0
M  END
$$$$
