QCG.pdb
     RDKit          3D

 20 19  0  0  1  0  0  0  0  0999 V2000
    4.1872  -18.3657   21.4971 N   0  0  0  0  0  0  0  0  0  0  0  0
    5.5163  -18.6841   21.9520 C   0  0  0  0  0  0  0  0  0  0  0  0
    5.6993  -19.8554   22.3121 O   0  0  0  0  0  0  0  0  0  0  0  0
    6.5731  -17.6649   21.9784 C   0  0  0  0  0  0  0  0  0  0  0  0
    6.1454  -16.3094   21.5347 C   0  0  0  0  0  0  0  0  0  0  0  0
    7.2022  -15.2401   21.6175 C   0  0  2  0  0  0  0  0  0  0  0  0
    8.3224  -15.7276   20.8080 N   0  0  0  0  0  0  0  0  0  0  0  0
    7.6128  -15.0174   23.0143 C   0  0  0  0  0  0  0  0  0  0  0  0
    8.6056  -15.6260   23.4806 O   0  0  0  0  0  0  0  0  0  0  0  0
    6.9292  -14.1245   23.8957 N   0  0  0  0  0  0  0  0  0  0  0  0
    7.3913  -13.9595   25.2594 C   0  0  1  0  0  0  0  0  0  0  0  0
    6.6559  -12.7674   25.8341 C   0  0  0  0  0  0  0  0  0  0  0  0
    7.2461  -12.5335   27.5341 S   0  0  0  0  0  0  0  0  0  0  0  0
    7.1828  -15.1826   26.0685 C   0  0  0  0  0  0  0  0  0  0  0  0
    5.9982  -15.5849   26.1987 O   0  0  0  0  0  0  0  0  0  0  0  0
    8.2069  -15.9162   26.6938 N   0  0  0  0  0  0  0  0  0  0  0  0
    8.0091  -17.1096   27.4618 C   0  0  0  0  0  0  0  0  0  0  0  0
    9.2481  -17.6074   28.0959 C   0  0  0  0  0  0  0  0  0  0  0  0
   10.3114  -16.9856   27.8550 O   0  0  0  0  0  0  0  0  0  0  0  0
    9.3116  -18.6991   28.9264 O   0  0  0  0  0  0  0  0  0  0  0  0
  2  1  1  0
  3  2  2  0
  4  2  1  0
  5  4  1  0
  6  5  1  0
  6  7  1  6
  8  6  1  0
  8 10  1  0
  9  8  2  0
 11 10  1  0
 11 14  1  0
 11 12  1  1
 13 12  1  0
 14 15  2  0
 14 16  1  0
 16 17  1  0
 18 17  1  0
 18 20  1  0
 19 18  2  0
M  END
$$$$
