QCG.pdb
     RDKit          3D

 20 19  0  0  1  0  0  0  0  0999 V2000
    6.4957  -18.3805   19.8486 N   0  0  0  0  0  0  0  0  0  0  0  0
    7.0996  -18.8146   18.6150 C   0  0  0  0  0  0  0  0  0  0  0  0
    6.3337  -18.9279   17.6477 O   0  0  0  0  0  0  0  0  0  0  0  0
    8.5378  -19.0999   18.5340 C   0  0  0  0  0  0  0  0  0  0  0  0
    9.3256  -18.6841   19.7271 C   0  0  0  0  0  0  0  0  0  0  0  0
    9.8302  -17.2656   19.7048 C   0  0  2  0  0  0  0  0  0  0  0  0
   11.1858  -17.3369   19.1523 N   0  0  0  0  0  0  0  0  0  0  0  0
    9.8382  -16.6917   21.0612 C   0  0  0  0  0  0  0  0  0  0  0  0
   10.8641  -16.7877   21.7765 O   0  0  0  0  0  0  0  0  0  0  0  0
    8.7160  -16.0128   21.6278 N   0  0  0  0  0  0  0  0  0  0  0  0
    8.7962  -15.4814   22.9738 C   0  0  1  0  0  0  0  0  0  0  0  0
    7.8259  -14.3217   23.0498 C   0  0  0  0  0  0  0  0  0  0  0  0
    7.7296  -13.8075   24.7874 S   0  0  0  0  0  0  0  0  0  0  0  0
    8.5082  -16.5134   23.9966 C   0  0  0  0  0  0  0  0  0  0  0  0
    7.3597  -17.0262   23.9814 O   0  0  0  0  0  0  0  0  0  0  0  0
    9.4205  -16.9540   24.9721 N   0  0  0  0  0  0  0  0  0  0  0  0
    9.1631  -17.9915   25.9263 C   0  0  0  0  0  0  0  0  0  0  0  0
   10.2743  -18.1964   26.8794 C   0  0  0  0  0  0  0  0  0  0  0  0
   11.3401  -17.5677   26.6692 O   0  0  0  0  0  0  0  0  0  0  0  0
   10.2172  -19.0245   27.9732 O   0  0  0  0  0  0  0  0  0  0  0  0
  2  1  1  0
  3  2  2  0
  4  2  1  0
  5  4  1  0
  6  5  1  0
  6  7  1  1
  8  6  1  0
  8 10  1  0
  9  8  2  0
 11 10  1  0
 11 14  1  0
 11 12  1  6
 13 12  1  0
 14 15  2  0
 14 16  1  0
 16 17  1  0
 18 17  1  0
 18 20  1  0
 19 18  2  0
M  END
$$$$
