QCG.pdb
     RDKit          3D

 20 19  0  0  1  0  0  0  0  0999 V2000
    6.8636  -18.1428   23.3918 N   0  0  0  0  0  0  0  0  0  0  0  0
    5.7825  -17.7349   22.5318 C   0  0  0  0  0  0  0  0  0  0  0  0
    4.6615  -18.1729   22.8265 O   0  0  0  0  0  0  0  0  0  0  0  0
    6.0197  -16.8535   21.3816 C   0  0  0  0  0  0  0  0  0  0  0  0
    7.4109  -16.3354   21.2677 C   0  0  0  0  0  0  0  0  0  0  0  0
    7.5519  -14.8392   21.3608 C   0  0  2  0  0  0  0  0  0  0  0  0
    8.5505  -14.4726   20.3527 N   0  0  0  0  0  0  0  0  0  0  0  0
    7.9857  -14.4375   22.7097 C   0  0  0  0  0  0  0  0  0  0  0  0
    9.2052  -14.4415   23.0033 O   0  0  0  0  0  0  0  0  0  0  0  0
    7.0754  -14.0318   23.7336 N   0  0  0  0  0  0  0  0  0  0  0  0
    7.5555  -13.8143   25.0837 C   0  0  1  0  0  0  0  0  0  0  0  0
    6.7546  -12.6650   25.6580 C   0  0  0  0  0  0  0  0  0  0  0  0
    7.1852  -12.5281   27.4155 S   0  0  0  0  0  0  0  0  0  0  0  0
    7.4477  -15.0355   25.9150 C   0  0  0  0  0  0  0  0  0  0  0  0
    6.2889  -15.4622   26.1537 O   0  0  0  0  0  0  0  0  0  0  0  0
    8.5400  -15.7422   26.4495 N   0  0  0  0  0  0  0  0  0  0  0  0
    8.4370  -16.9123   27.2702 C   0  0  0  0  0  0  0  0  0  0  0  0
    9.7497  -17.4628   27.6687 C   0  0  0  0  0  0  0  0  0  0  0  0
   10.7745  -16.9217   27.1864 O   0  0  0  0  0  0  0  0  0  0  0  0
    9.9205  -18.5210   28.5268 O   0  0  0  0  0  0  0  0  0  0  0  0
  2  1  1  0
  3  2  2  0
  4  2  1  0
  5  4  1  0
  6  5  1  0
  6  7  1  6
  8  6  1  0
  8 10  1  0
  9  8  2  0
 11 10  1  0
 11 14  1  0
 11 12  1  1
 13 12  1  0
 14 15  2  0
 14 16  1  0
 16 17  1  0
 18 17  1  0
 18 20  1  0
 19 18  2  0
M  END
$$$$
