QCG.pdb
     RDKit          3D

 20 19  0  0  1  0  0  0  0  0999 V2000
    6.6075  -17.8107   20.6114 N   0  0  0  0  0  0  0  0  0  0  0  0
    7.4100  -17.0179   19.7157 C   0  0  0  0  0  0  0  0  0  0  0  0
    7.9081  -17.6227   18.7559 O   0  0  0  0  0  0  0  0  0  0  0  0
    7.6111  -15.5819   19.9476 C   0  0  0  0  0  0  0  0  0  0  0  0
    6.8671  -15.0265   21.1116 C   0  0  0  0  0  0  0  0  0  0  0  0
    7.0815  -13.5594   21.3739 C   0  0  2  0  0  0  0  0  0  0  0  0
    7.8807  -13.0689   20.2476 N   0  0  0  0  0  0  0  0  0  0  0  0
    7.7824  -13.3536   22.6528 C   0  0  0  0  0  0  0  0  0  0  0  0
    9.0294  -13.2189   22.6697 O   0  0  0  0  0  0  0  0  0  0  0  0
    7.1087  -13.2964   23.9115 N   0  0  0  0  0  0  0  0  0  0  0  0
    7.8670  -13.0891   25.1291 C   0  0  1  0  0  0  0  0  0  0  0  0
    7.0389  -12.1847   26.0170 C   0  0  0  0  0  0  0  0  0  0  0  0
    5.3454  -12.8366   26.0271 S   0  0  0  0  0  0  0  0  0  0  0  0
    8.2033  -14.3669   25.7985 C   0  0  0  0  0  0  0  0  0  0  0  0
    7.4600  -14.7263   26.7473 O   0  0  0  0  0  0  0  0  0  0  0  0
    9.2844  -15.1961   25.4496 N   0  0  0  0  0  0  0  0  0  0  0  0
    9.6188  -16.4261   26.1042 C   0  0  0  0  0  0  0  0  0  0  0  0
   10.7365  -17.1459   25.4579 C   0  0  0  0  0  0  0  0  0  0  0  0
   11.2152  -16.6491   24.4093 O   0  0  0  0  0  0  0  0  0  0  0  0
   11.2822  -18.3155   25.9266 O   0  0  0  0  0  0  0  0  0  0  0  0
  2  1  1  0
  3  2  2  0
  4  2  1  0
  5  4  1  0
  6  5  1  0
  6  7  1  6
  8  6  1  0
  8 10  1  0
  9  8  2  0
 11 10  1  0
 11 14  1  0
 11 12  1  1
 13 12  1  0
 14 15  2  0
 14 16  1  0
 16 17  1  0
 18 17  1  0
 18 20  1  0
 19 18  2  0
M  END
$$$$
