QCG.pdb
     RDKit          3D

 20 19  0  0  1  0  0  0  0  0999 V2000
    8.8578  -20.3123   29.0458 N   0  0  0  0  0  0  0  0  0  0  0  0
    9.0616  -18.8865   29.0312 C   0  0  0  0  0  0  0  0  0  0  0  0
    9.9197  -18.4540   29.8134 O   0  0  0  0  0  0  0  0  0  0  0  0
    8.2866  -18.0189   28.1350 C   0  0  0  0  0  0  0  0  0  0  0  0
    7.3550  -18.7366   27.2218 C   0  0  0  0  0  0  0  0  0  0  0  0
    7.1296  -18.0816   25.8849 C   0  0  2  0  0  0  0  0  0  0  0  0
    8.4577  -17.9536   25.2784 N   0  0  0  0  0  0  0  0  0  0  0  0
    6.4906  -16.7647   26.0486 C   0  0  0  0  0  0  0  0  0  0  0  0
    5.2513  -16.6869   26.2258 O   0  0  0  0  0  0  0  0  0  0  0  0
    7.2178  -15.5352   26.0168 N   0  0  0  0  0  0  0  0  0  0  0  0
    6.7113  -14.4149   25.2495 C   0  0  1  0  0  0  0  0  0  0  0  0
    6.5597  -13.2541   26.2094 C   0  0  0  0  0  0  0  0  0  0  0  0
    8.2236  -12.7849   26.7610 S   0  0  0  0  0  0  0  0  0  0  0  0
    7.5937  -14.0792   24.1081 C   0  0  0  0  0  0  0  0  0  0  0  0
    7.2784  -13.0745   23.4201 O   0  0  0  0  0  0  0  0  0  0  0  0
    8.7464  -14.7986   23.7453 N   0  0  0  0  0  0  0  0  0  0  0  0
    9.4336  -14.6696   22.4945 C   0  0  0  0  0  0  0  0  0  0  0  0
   10.7075  -15.4181   22.4489 C   0  0  0  0  0  0  0  0  0  0  0  0
   10.9366  -16.2275   23.3804 O   0  0  0  0  0  0  0  0  0  0  0  0
   11.6510  -15.2866   21.4600 O   0  0  0  0  0  0  0  0  0  0  0  0
  2  1  1  0
  3  2  2  0
  4  2  1  0
  5  4  1  0
  6  5  1  0
  6  7  1  1
  8  6  1  0
  8 10  1  0
  9  8  2  0
 11 10  1  0
 11 14  1  0
 11 12  1  1
 13 12  1  0
 14 15  2  0
 14 16  1  0
 16 17  1  0
 18 17  1  0
 18 20  1  0
 19 18  2  0
M  END
$$$$
