EHD.pdb
     RDKit          3D

 28 28  0  0  1  0  0  0  0  0999 V2000
    8.5076  -19.3985   18.2598 N   0  0  0  0  0  0  0  0  0  0  0  0
    9.8362  -18.9695   17.7943 C   0  0  1  0  0  0  0  0  0  0  0  0
    9.6634  -18.4682   16.4013 C   0  0  0  0  0  0  0  0  0  0  0  0
    8.4121  -17.7012   16.1507 C   0  0  0  0  0  0  0  0  0  0  0  0
    8.2787  -17.1522   14.8031 C   0  0  0  0  0  0  0  0  0  0  0  0
    8.2822  -15.9145   14.5981 O   0  0  0  0  0  0  0  0  0  0  0  0
   10.3437  -17.9304   18.7259 C   0  0  0  0  0  0  0  0  0  0  0  0
   11.4772  -17.4247   18.5585 O   0  0  0  0  0  0  0  0  0  0  0  0
    8.1441  -17.9945   13.7128 O   0  0  0  0  0  0  0  0  0  0  0  0
    9.5691  -17.4652   19.8445 N   0  0  0  0  0  0  0  0  0  0  0  0
   10.0632  -16.4028   20.6526 C   0  0  1  0  0  0  0  0  0  0  0  0
    9.0309  -15.4955   21.2078 C   0  0  0  0  0  0  0  0  0  0  0  0
    8.3396  -14.6093   20.2826 C   0  0  0  0  0  0  0  0  0  0  0  0
    8.4706  -14.4446   18.9335 C   0  0  0  0  0  0  0  0  0  0  0  0
    7.5851  -13.5117   18.4626 N   0  0  0  0  0  0  0  0  0  0  0  0
    6.9174  -13.1177   19.5530 C   0  0  0  0  0  0  0  0  0  0  0  0
    7.3366  -13.7439   20.6399 N   0  0  0  0  0  0  0  0  0  0  0  0
   10.9807  -16.8824   21.7220 C   0  0  0  0  0  0  0  0  0  0  0  0
   10.8267  -18.0400   22.1487 O   0  0  0  0  0  0  0  0  0  0  0  0
   11.9969  -16.0613   22.2443 N   0  0  0  0  0  0  0  0  0  0  0  0
   13.0545  -16.6469   23.0827 C   0  0  1  0  0  0  0  0  0  0  0  0
   14.3439  -15.9191   22.8747 C   0  0  0  0  0  0  0  0  0  0  0  0
   15.4690  -16.4485   23.6738 C   0  0  0  0  0  0  0  0  0  0  0  0
   15.5625  -17.6474   24.0276 O   0  0  0  0  0  0  0  0  0  0  0  0
   12.6457  -16.5904   24.5003 C   0  0  0  0  0  0  0  0  0  0  0  0
   13.1102  -17.4448   25.4683 O   0  0  0  0  0  0  0  0  0  0  0  0
   16.4933  -15.5973   24.0696 O   0  0  0  0  0  0  0  0  0  0  0  0
   11.8150  -15.7015   24.8506 O   0  0  0  0  0  0  0  0  0  0  0  0
  2  1  1  1
  2  3  1  0
  4  3  1  0
  5  4  1  0
  6  5  2  0
  7  2  1  0
  7  8  2  0
  9  5  1  0
 10  7  1  0
 11 10  1  0
 11 12  1  1
 12 13  1  0
 13 17  1  0
 14 13  2  0
 14 15  1  0
 15 16  1  0
 17 16  2  0
 18 11  1  0
 19 18  2  0
 20 18  1  0
 21 20  1  0
 21 22  1  1
 23 22  1  0
 24 23  2  0
 25 21  1  0
 26 25  1  0
 27 23  1  0
 28 25  2  0
M  END
$$$$
