EHD.pdb
     RDKit          3D

 28 28  0  0  1  0  0  0  0  0999 V2000
   12.4511  -17.4550   15.5357 N   0  0  0  0  0  0  0  0  0  0  0  0
   13.4905  -18.0102   16.4175 C   0  0  1  0  0  0  0  0  0  0  0  0
   14.7999  -17.5178   15.9031 C   0  0  0  0  0  0  0  0  0  0  0  0
   15.1708  -17.9964   14.5430 C   0  0  0  0  0  0  0  0  0  0  0  0
   16.4984  -17.5946   14.0830 C   0  0  0  0  0  0  0  0  0  0  0  0
   17.5398  -18.0470   14.6167 O   0  0  0  0  0  0  0  0  0  0  0  0
   13.2091  -17.5667   17.8065 C   0  0  0  0  0  0  0  0  0  0  0  0
   12.8106  -16.4013   18.0338 O   0  0  0  0  0  0  0  0  0  0  0  0
   16.6367  -16.6972   13.0381 O   0  0  0  0  0  0  0  0  0  0  0  0
   13.3787  -18.4410   18.9354 N   0  0  0  0  0  0  0  0  0  0  0  0
   13.0749  -17.9715   20.2443 C   0  0  1  0  0  0  0  0  0  0  0  0
   11.7833  -18.4389   20.8016 C   0  0  0  0  0  0  0  0  0  0  0  0
   11.4412  -18.0274   22.1554 C   0  0  0  0  0  0  0  0  0  0  0  0
   11.1361  -16.7992   22.6679 C   0  0  0  0  0  0  0  0  0  0  0  0
   10.8446  -16.8811   24.0038 N   0  0  0  0  0  0  0  0  0  0  0  0
   10.9791  -18.1818   24.2868 C   0  0  0  0  0  0  0  0  0  0  0  0
   11.3290  -18.8836   23.2217 N   0  0  0  0  0  0  0  0  0  0  0  0
   14.1864  -18.2097   21.2052 C   0  0  0  0  0  0  0  0  0  0  0  0
   14.6981  -19.3424   21.2380 O   0  0  0  0  0  0  0  0  0  0  0  0
   14.6547  -17.1928   22.0573 N   0  0  0  0  0  0  0  0  0  0  0  0
   15.7115  -17.4865   23.0377 C   0  0  1  0  0  0  0  0  0  0  0  0
   16.3962  -16.2249   23.4559 C   0  0  0  0  0  0  0  0  0  0  0  0
   17.0855  -15.5210   22.3540 C   0  0  0  0  0  0  0  0  0  0  0  0
   17.5102  -16.0961   21.3243 O   0  0  0  0  0  0  0  0  0  0  0  0
   15.1222  -18.1725   24.2049 C   0  0  0  0  0  0  0  0  0  0  0  0
   15.8578  -18.7371   25.2162 O   0  0  0  0  0  0  0  0  0  0  0  0
   17.2889  -14.1489   22.4338 O   0  0  0  0  0  0  0  0  0  0  0  0
   13.8608  -18.2483   24.2828 O   0  0  0  0  0  0  0  0  0  0  0  0
  2  1  1  6
  2  3  1  0
  4  3  1  0
  5  4  1  0
  6  5  2  0
  7  2  1  0
  7  8  2  0
  9  5  1  0
 10  7  1  0
 11 10  1  0
 11 12  1  1
 12 13  1  0
 13 17  1  0
 14 13  2  0
 14 15  1  0
 15 16  1  0
 17 16  2  0
 18 11  1  0
 19 18  2  0
 20 18  1  0
 21 20  1  0
 21 22  1  1
 23 22  1  0
 24 23  2  0
 25 21  1  0
 26 25  1  0
 27 23  1  0
 28 25  2  0
M  END
$$$$
