EHD.pdb
     RDKit          3D

 28 28  0  0  1  0  0  0  0  0999 V2000
   10.5196  -17.4167   15.6019 N   0  0  0  0  0  0  0  0  0  0  0  0
   10.2605  -18.1423   16.8558 C   0  0  1  0  0  0  0  0  0  0  0  0
   11.0365  -19.4130   16.7864 C   0  0  0  0  0  0  0  0  0  0  0  0
   12.5095  -19.2529   16.6404 C   0  0  0  0  0  0  0  0  0  0  0  0
   13.2656  -20.5008   16.5599 C   0  0  0  0  0  0  0  0  0  0  0  0
   13.8398  -20.8501   15.5005 O   0  0  0  0  0  0  0  0  0  0  0  0
   10.6688  -17.2745   17.9896 C   0  0  0  0  0  0  0  0  0  0  0  0
   11.6264  -16.4766   17.8673 O   0  0  0  0  0  0  0  0  0  0  0  0
   13.3654  -21.3326   17.6619 O   0  0  0  0  0  0  0  0  0  0  0  0
    9.9940  -17.3103   19.2588 N   0  0  0  0  0  0  0  0  0  0  0  0
   10.3028  -16.3370   20.2505 C   0  0  1  0  0  0  0  0  0  0  0  0
    9.1325  -15.6953   20.8952 C   0  0  0  0  0  0  0  0  0  0  0  0
    8.4015  -14.6955   20.1303 C   0  0  0  0  0  0  0  0  0  0  0  0
    8.6202  -14.1866   18.8823 C   0  0  0  0  0  0  0  0  0  0  0  0
    7.6528  -13.2777   18.5441 N   0  0  0  0  0  0  0  0  0  0  0  0
    6.8465  -13.2488   19.6114 C   0  0  0  0  0  0  0  0  0  0  0  0
    7.2585  -14.0711   20.5619 N   0  0  0  0  0  0  0  0  0  0  0  0
   11.2577  -16.8494   21.2709 C   0  0  0  0  0  0  0  0  0  0  0  0
   11.2752  -18.0727   21.4931 O   0  0  0  0  0  0  0  0  0  0  0  0
   12.1212  -15.9871   21.9711 N   0  0  0  0  0  0  0  0  0  0  0  0
   13.0807  -16.5384   22.9405 C   0  0  1  0  0  0  0  0  0  0  0  0
   14.2160  -15.5873   23.1450 C   0  0  0  0  0  0  0  0  0  0  0  0
   15.2836  -16.1057   24.0261 C   0  0  0  0  0  0  0  0  0  0  0  0
   15.6030  -17.3163   24.0874 O   0  0  0  0  0  0  0  0  0  0  0  0
   12.3894  -16.8087   24.2168 C   0  0  0  0  0  0  0  0  0  0  0  0
   12.8411  -17.6943   25.1626 O   0  0  0  0  0  0  0  0  0  0  0  0
   15.9891  -15.2300   24.8419 O   0  0  0  0  0  0  0  0  0  0  0  0
   11.3124  -16.1887   24.4592 O   0  0  0  0  0  0  0  0  0  0  0  0
  2  1  1  6
  2  3  1  0
  4  3  1  0
  5  4  1  0
  6  5  2  0
  7  2  1  0
  7  8  2  0
  9  5  1  0
 10  7  1  0
 11 10  1  0
 11 12  1  1
 12 13  1  0
 13 17  1  0
 14 13  2  0
 14 15  1  0
 15 16  1  0
 17 16  2  0
 18 11  1  0
 19 18  2  0
 20 18  1  0
 21 20  1  0
 21 22  1  1
 23 22  1  0
 24 23  2  0
 25 21  1  0
 26 25  1  0
 27 23  1  0
 28 25  2  0
M  END
$$$$
