EHD.pdb
     RDKit          3D

 28 28  0  0  1  0  0  0  0  0999 V2000
   10.0137  -17.9450   14.9049 N   0  0  0  0  0  0  0  0  0  0  0  0
    9.0782  -18.2490   15.9996 C   0  0  1  0  0  0  0  0  0  0  0  0
    9.3566  -19.6492   16.4279 C   0  0  0  0  0  0  0  0  0  0  0  0
   10.7781  -20.0782   16.3189 C   0  0  0  0  0  0  0  0  0  0  0  0
   11.0450  -21.4556   16.7273 C   0  0  0  0  0  0  0  0  0  0  0  0
   12.1769  -21.8082   17.1378 O   0  0  0  0  0  0  0  0  0  0  0  0
    9.2916  -17.2573   17.0842 C   0  0  0  0  0  0  0  0  0  0  0  0
   10.4377  -16.8119   17.3225 O   0  0  0  0  0  0  0  0  0  0  0  0
   10.0444  -22.4106   16.6695 O   0  0  0  0  0  0  0  0  0  0  0  0
    8.2096  -16.7712   17.8968 N   0  0  0  0  0  0  0  0  0  0  0  0
    8.4667  -15.8074   18.9122 C   0  0  1  0  0  0  0  0  0  0  0  0
    7.2695  -15.1183   19.4500 C   0  0  0  0  0  0  0  0  0  0  0  0
    7.4789  -14.0634   20.4311 C   0  0  0  0  0  0  0  0  0  0  0  0
    7.7610  -12.7368   20.2733 C   0  0  0  0  0  0  0  0  0  0  0  0
    7.8448  -12.1033   21.4848 N   0  0  0  0  0  0  0  0  0  0  0  0
    7.6073  -13.0727   22.3758 C   0  0  0  0  0  0  0  0  0  0  0  0
    7.3880  -14.2376   21.7891 N   0  0  0  0  0  0  0  0  0  0  0  0
    9.3060  -16.3532   20.0136 C   0  0  0  0  0  0  0  0  0  0  0  0
    9.1376  -17.5400   20.3439 O   0  0  0  0  0  0  0  0  0  0  0  0
   10.2657  -15.5614   20.6707 N   0  0  0  0  0  0  0  0  0  0  0  0
   11.0526  -16.1297   21.7762 C   0  0  1  0  0  0  0  0  0  0  0  0
   12.3194  -15.3575   21.9617 C   0  0  0  0  0  0  0  0  0  0  0  0
   13.2334  -15.9345   22.9698 C   0  0  0  0  0  0  0  0  0  0  0  0
   12.9953  -16.9961   23.5924 O   0  0  0  0  0  0  0  0  0  0  0  0
   10.2458  -16.1142   23.0126 C   0  0  0  0  0  0  0  0  0  0  0  0
    8.9770  -15.5984   23.0955 O   0  0  0  0  0  0  0  0  0  0  0  0
   14.4280  -15.2898   23.2656 O   0  0  0  0  0  0  0  0  0  0  0  0
   10.7504  -16.6052   24.0649 O   0  0  0  0  0  0  0  0  0  0  0  0
  2  1  1  6
  2  3  1  0
  4  3  1  0
  5  4  1  0
  6  5  2  0
  7  2  1  0
  7  8  2  0
  9  5  1  0
 10  7  1  0
 11 10  1  0
 11 12  1  1
 12 13  1  0
 13 17  1  0
 14 13  2  0
 14 15  1  0
 15 16  1  0
 17 16  2  0
 18 11  1  0
 19 18  2  0
 20 18  1  0
 21 20  1  0
 21 22  1  1
 23 22  1  0
 24 23  2  0
 25 21  1  0
 26 25  1  0
 27 23  1  0
 28 25  2  0
M  END
$$$$
