EHD.pdb
     RDKit          3D

 28 28  0  0  1  0  0  0  0  0999 V2000
   14.5690  -14.2360   18.0684 N   0  0  0  0  0  0  0  0  0  0  0  0
   13.4100  -15.1336   17.9379 C   0  0  1  0  0  0  0  0  0  0  0  0
   13.9422  -16.4709   17.5506 C   0  0  0  0  0  0  0  0  0  0  0  0
   14.9807  -17.0308   18.4586 C   0  0  0  0  0  0  0  0  0  0  0  0
   15.5587  -18.3035   18.0324 C   0  0  0  0  0  0  0  0  0  0  0  0
   14.8428  -19.3167   17.8456 O   0  0  0  0  0  0  0  0  0  0  0  0
   12.6853  -15.1508   19.2340 C   0  0  0  0  0  0  0  0  0  0  0  0
   13.2785  -14.8613   20.2983 O   0  0  0  0  0  0  0  0  0  0  0  0
   16.9222  -18.4195   17.8236 O   0  0  0  0  0  0  0  0  0  0  0  0
   11.2922  -15.4951   19.3242 N   0  0  0  0  0  0  0  0  0  0  0  0
   10.6058  -15.3426   20.5619 C   0  0  1  0  0  0  0  0  0  0  0  0
    9.1353  -15.1887   20.4565 C   0  0  0  0  0  0  0  0  0  0  0  0
    8.6249  -14.1335   19.5933 C   0  0  0  0  0  0  0  0  0  0  0  0
    8.2511  -12.8503   19.8726 C   0  0  0  0  0  0  0  0  0  0  0  0
    7.8572  -12.1934   18.7370 N   0  0  0  0  0  0  0  0  0  0  0  0
    8.0012  -13.1044   17.7679 C   0  0  0  0  0  0  0  0  0  0  0  0
    8.4510  -14.2560   18.2377 N   0  0  0  0  0  0  0  0  0  0  0  0
   10.9607  -16.4046   21.5425 C   0  0  0  0  0  0  0  0  0  0  0  0
   11.0922  -17.5676   21.1227 O   0  0  0  0  0  0  0  0  0  0  0  0
   11.1451  -16.1160   22.9072 N   0  0  0  0  0  0  0  0  0  0  0  0
   11.5692  -17.1796   23.8308 C   0  0  1  0  0  0  0  0  0  0  0  0
   12.9646  -16.9285   24.3054 C   0  0  0  0  0  0  0  0  0  0  0  0
   13.4705  -17.9459   25.2508 C   0  0  0  0  0  0  0  0  0  0  0  0
   13.1712  -19.1613   25.1847 O   0  0  0  0  0  0  0  0  0  0  0  0
   10.6331  -17.2425   24.9710 C   0  0  0  0  0  0  0  0  0  0  0  0
   10.5254  -18.3165   25.8181 O   0  0  0  0  0  0  0  0  0  0  0  0
   14.3250  -17.5666   26.2785 O   0  0  0  0  0  0  0  0  0  0  0  0
    9.8802  -16.2473   25.1851 O   0  0  0  0  0  0  0  0  0  0  0  0
  2  1  1  1
  2  3  1  0
  4  3  1  0
  5  4  1  0
  6  5  2  0
  7  2  1  0
  7  8  2  0
  9  5  1  0
 10  7  1  0
 11 10  1  0
 11 12  1  6
 12 13  1  0
 13 17  1  0
 14 13  2  0
 14 15  1  0
 15 16  1  0
 17 16  2  0
 18 11  1  0
 19 18  2  0
 20 18  1  0
 21 20  1  0
 21 22  1  1
 23 22  1  0
 24 23  2  0
 25 21  1  0
 26 25  1  0
 27 23  1  0
 28 25  2  0
M  END
$$$$
