EHD.pdb
     RDKit          3D

 28 28  0  0  1  0  0  0  0  0999 V2000
   13.6202  -14.8411   15.5464 N   0  0  0  0  0  0  0  0  0  0  0  0
   12.7694  -15.7662   16.3121 C   0  0  1  0  0  0  0  0  0  0  0  0
   13.4277  -17.1023   16.2572 C   0  0  0  0  0  0  0  0  0  0  0  0
   13.6176  -17.6634   14.8914 C   0  0  0  0  0  0  0  0  0  0  0  0
   14.2646  -18.9728   14.8414 C   0  0  0  0  0  0  0  0  0  0  0  0
   15.2588  -19.2385   15.5591 O   0  0  0  0  0  0  0  0  0  0  0  0
   12.6367  -15.2413   17.6950 C   0  0  0  0  0  0  0  0  0  0  0  0
   13.4797  -14.4365   18.1535 O   0  0  0  0  0  0  0  0  0  0  0  0
   13.7896  -19.9578   13.9927 O   0  0  0  0  0  0  0  0  0  0  0  0
   11.5519  -15.6271   18.5562 N   0  0  0  0  0  0  0  0  0  0  0  0
   11.4830  -15.1094   19.8804 C   0  0  1  0  0  0  0  0  0  0  0  0
   10.1151  -14.9520   20.4292 C   0  0  0  0  0  0  0  0  0  0  0  0
    9.1767  -14.1265   19.6828 C   0  0  0  0  0  0  0  0  0  0  0  0
    9.3252  -13.4338   18.5156 C   0  0  0  0  0  0  0  0  0  0  0  0
    8.1573  -12.8136   18.1585 N   0  0  0  0  0  0  0  0  0  0  0  0
    7.3018  -13.1460   19.1320 C   0  0  0  0  0  0  0  0  0  0  0  0
    7.8695  -13.9176   20.0439 N   0  0  0  0  0  0  0  0  0  0  0  0
   12.3538  -15.8570   20.8281 C   0  0  0  0  0  0  0  0  0  0  0  0
   12.4080  -17.0945   20.7204 O   0  0  0  0  0  0  0  0  0  0  0  0
   13.0994  -15.1963   21.8217 N   0  0  0  0  0  0  0  0  0  0  0  0
   13.9603  -15.9708   22.7291 C   0  0  1  0  0  0  0  0  0  0  0  0
   15.1795  -15.1824   23.0863 C   0  0  0  0  0  0  0  0  0  0  0  0
   16.1934  -15.1232   22.0124 C   0  0  0  0  0  0  0  0  0  0  0  0
   15.9085  -15.1131   20.7917 O   0  0  0  0  0  0  0  0  0  0  0  0
   13.1982  -16.3318   23.9410 C   0  0  0  0  0  0  0  0  0  0  0  0
   11.9092  -15.9301   24.1859 O   0  0  0  0  0  0  0  0  0  0  0  0
   17.5425  -15.0752   22.3408 O   0  0  0  0  0  0  0  0  0  0  0  0
   13.7636  -17.0560   24.8121 O   0  0  0  0  0  0  0  0  0  0  0  0
  2  1  1  6
  2  3  1  0
  4  3  1  0
  5  4  1  0
  6  5  2  0
  7  2  1  0
  7  8  2  0
  9  5  1  0
 10  7  1  0
 11 10  1  0
 11 12  1  1
 12 13  1  0
 13 17  1  0
 14 13  2  0
 14 15  1  0
 15 16  1  0
 17 16  2  0
 18 11  1  0
 19 18  2  0
 20 18  1  0
 21 20  1  0
 21 22  1  1
 23 22  1  0
 24 23  2  0
 25 21  1  0
 26 25  1  0
 27 23  1  0
 28 25  2  0
M  END
$$$$
