EHD.pdb
     RDKit          3D

 28 28  0  0  1  0  0  0  0  0999 V2000
   12.7678  -17.7339   15.2156 N   0  0  0  0  0  0  0  0  0  0  0  0
   11.6696  -18.1752   16.0904 C   0  0  1  0  0  0  0  0  0  0  0  0
   12.1024  -19.4596   16.7105 C   0  0  0  0  0  0  0  0  0  0  0  0
   13.5573  -19.7583   16.6080 C   0  0  0  0  0  0  0  0  0  0  0  0
   14.1435  -20.4048   17.7801 C   0  0  0  0  0  0  0  0  0  0  0  0
   13.5170  -21.2788   18.4263 O   0  0  0  0  0  0  0  0  0  0  0  0
   11.4111  -17.1070   17.0891 C   0  0  0  0  0  0  0  0  0  0  0  0
   12.3390  -16.3608   17.4773 O   0  0  0  0  0  0  0  0  0  0  0  0
   15.4153  -20.0633   18.2067 O   0  0  0  0  0  0  0  0  0  0  0  0
   10.1045  -16.8844   17.6468 N   0  0  0  0  0  0  0  0  0  0  0  0
    9.9064  -15.8308   18.5831 C   0  0  1  0  0  0  0  0  0  0  0  0
    8.5807  -15.1704   18.5234 C   0  0  0  0  0  0  0  0  0  0  0  0
    8.3304  -14.0694   19.4423 C   0  0  0  0  0  0  0  0  0  0  0  0
    8.8535  -12.8093   19.4935 C   0  0  0  0  0  0  0  0  0  0  0  0
    8.3021  -12.0881   20.5192 N   0  0  0  0  0  0  0  0  0  0  0  0
    7.4363  -12.9369   21.0848 C   0  0  0  0  0  0  0  0  0  0  0  0
    7.4284  -14.1107   20.4754 N   0  0  0  0  0  0  0  0  0  0  0  0
   10.2347  -16.2400   19.9761 C   0  0  0  0  0  0  0  0  0  0  0  0
   10.0186  -17.4194   20.3052 O   0  0  0  0  0  0  0  0  0  0  0  0
   10.7739  -15.3301   20.9040 N   0  0  0  0  0  0  0  0  0  0  0  0
   11.1187  -15.7837   22.2603 C   0  0  1  0  0  0  0  0  0  0  0  0
   12.3439  -15.0786   22.7472 C   0  0  0  0  0  0  0  0  0  0  0  0
   13.5907  -15.5094   22.0804 C   0  0  0  0  0  0  0  0  0  0  0  0
   13.8740  -16.7089   21.8514 O   0  0  0  0  0  0  0  0  0  0  0  0
    9.9791  -15.5362   23.1658 C   0  0  0  0  0  0  0  0  0  0  0  0
    9.9163  -15.9833   24.4616 O   0  0  0  0  0  0  0  0  0  0  0  0
   14.5184  -14.5584   21.6737 O   0  0  0  0  0  0  0  0  0  0  0  0
    8.9957  -14.8715   22.7253 O   0  0  0  0  0  0  0  0  0  0  0  0
  2  1  1  6
  2  3  1  0
  4  3  1  0
  5  4  1  0
  6  5  2  0
  7  2  1  0
  7  8  2  0
  9  5  1  0
 10  7  1  0
 11 10  1  0
 11 12  1  1
 12 13  1  0
 13 17  1  0
 14 13  2  0
 14 15  1  0
 15 16  1  0
 17 16  2  0
 18 11  1  0
 19 18  2  0
 20 18  1  0
 21 20  1  0
 21 22  1  1
 23 22  1  0
 24 23  2  0
 25 21  1  0
 26 25  1  0
 27 23  1  0
 28 25  2  0
M  END
$$$$
