EHD.pdb
     RDKit          3D

 28 28  0  0  1  0  0  0  0  0999 V2000
    9.9696  -16.0435   19.1455 N   0  0  0  0  0  0  0  0  0  0  0  0
    8.6870  -16.2295   19.8429 C   0  0  1  0  0  0  0  0  0  0  0  0
    8.3250  -17.6685   19.7024 C   0  0  0  0  0  0  0  0  0  0  0  0
    9.4248  -18.6324   19.9814 C   0  0  0  0  0  0  0  0  0  0  0  0
    9.0866  -20.0388   19.7736 C   0  0  0  0  0  0  0  0  0  0  0  0
    9.0863  -20.5487   18.6273 O   0  0  0  0  0  0  0  0  0  0  0  0
    8.8601  -15.8102   21.2570 C   0  0  0  0  0  0  0  0  0  0  0  0
    9.9936  -15.8208   21.7895 O   0  0  0  0  0  0  0  0  0  0  0  0
    8.7559  -20.8466   20.8480 O   0  0  0  0  0  0  0  0  0  0  0  0
    7.7519  -15.3800   22.0659 N   0  0  0  0  0  0  0  0  0  0  0  0
    7.9771  -14.9634   23.4082 C   0  0  1  0  0  0  0  0  0  0  0  0
    6.7841  -14.4472   24.1205 C   0  0  0  0  0  0  0  0  0  0  0  0
    7.0005  -13.6994   25.3506 C   0  0  0  0  0  0  0  0  0  0  0  0
    8.1528  -13.3049   25.9678 C   0  0  0  0  0  0  0  0  0  0  0  0
    7.8831  -12.5857   27.1019 N   0  0  0  0  0  0  0  0  0  0  0  0
    6.5467  -12.5534   27.1563 C   0  0  0  0  0  0  0  0  0  0  0  0
    5.9970  -13.1988   26.1411 N   0  0  0  0  0  0  0  0  0  0  0  0
    8.6710  -16.0029   24.2164 C   0  0  0  0  0  0  0  0  0  0  0  0
    8.3354  -17.1893   24.0553 O   0  0  0  0  0  0  0  0  0  0  0  0
    9.6789  -15.6681   25.1394 N   0  0  0  0  0  0  0  0  0  0  0  0
   10.3610  -16.7286   25.8972 C   0  0  1  0  0  0  0  0  0  0  0  0
   11.8439  -16.5739   25.7857 C   0  0  0  0  0  0  0  0  0  0  0  0
   12.3810  -16.8778   24.4426 C   0  0  0  0  0  0  0  0  0  0  0  0
   12.0166  -17.8628   23.7584 O   0  0  0  0  0  0  0  0  0  0  0  0
    9.9350  -16.6750   27.3098 C   0  0  0  0  0  0  0  0  0  0  0  0
   10.3229  -17.5814   28.2641 O   0  0  0  0  0  0  0  0  0  0  0  0
   13.3421  -16.0465   23.8809 O   0  0  0  0  0  0  0  0  0  0  0  0
    9.1636  -15.7374   27.6690 O   0  0  0  0  0  0  0  0  0  0  0  0
  2  1  1  6
  2  3  1  0
  4  3  1  0
  5  4  1  0
  6  5  2  0
  7  2  1  0
  7  8  2  0
  9  5  1  0
 10  7  1  0
 11 10  1  0
 11 12  1  1
 12 13  1  0
 13 17  1  0
 14 13  2  0
 14 15  1  0
 15 16  1  0
 17 16  2  0
 18 11  1  0
 19 18  2  0
 20 18  1  0
 21 20  1  0
 21 22  1  1
 23 22  1  0
 24 23  2  0
 25 21  1  0
 26 25  1  0
 27 23  1  0
 28 25  2  0
M  END
$$$$
