EHD.pdb
     RDKit          3D

 28 28  0  0  1  0  0  0  0  0999 V2000
   11.6876  -16.1763   14.4740 N   0  0  0  0  0  0  0  0  0  0  0  0
   10.9819  -16.5892   15.6978 C   0  0  1  0  0  0  0  0  0  0  0  0
   11.2747  -18.0371   15.8962 C   0  0  0  0  0  0  0  0  0  0  0  0
   12.6615  -18.4591   15.5568 C   0  0  0  0  0  0  0  0  0  0  0  0
   12.9887  -19.8442   15.8882 C   0  0  0  0  0  0  0  0  0  0  0  0
   12.6632  -20.7916   15.1328 O   0  0  0  0  0  0  0  0  0  0  0  0
   11.4594  -15.7417   16.8198 C   0  0  0  0  0  0  0  0  0  0  0  0
   12.5226  -15.0880   16.7156 O   0  0  0  0  0  0  0  0  0  0  0  0
   13.6715  -20.1437   17.0545 O   0  0  0  0  0  0  0  0  0  0  0  0
   10.7344  -15.6350   18.0570 N   0  0  0  0  0  0  0  0  0  0  0  0
   11.2399  -14.8125   19.1030 C   0  0  1  0  0  0  0  0  0  0  0  0
   10.2294  -14.3286   20.0736 C   0  0  0  0  0  0  0  0  0  0  0  0
    9.0192  -13.7174   19.5434 C   0  0  0  0  0  0  0  0  0  0  0  0
    8.7915  -12.4660   19.0472 C   0  0  0  0  0  0  0  0  0  0  0  0
    7.4953  -12.3315   18.6250 N   0  0  0  0  0  0  0  0  0  0  0  0
    6.9463  -13.5256   18.8755 C   0  0  0  0  0  0  0  0  0  0  0  0
    7.8156  -14.3636   19.4154 N   0  0  0  0  0  0  0  0  0  0  0  0
   12.3969  -15.4329   19.8043 C   0  0  0  0  0  0  0  0  0  0  0  0
   12.4560  -16.6740   19.8496 O   0  0  0  0  0  0  0  0  0  0  0  0
   13.4017  -14.6508   20.4030 N   0  0  0  0  0  0  0  0  0  0  0  0
   14.5757  -15.3011   21.0054 C   0  0  1  0  0  0  0  0  0  0  0  0
   15.7337  -14.3558   21.0356 C   0  0  0  0  0  0  0  0  0  0  0  0
   16.9605  -14.9264   21.6307 C   0  0  0  0  0  0  0  0  0  0  0  0
   17.3068  -16.1227   21.4882 O   0  0  0  0  0  0  0  0  0  0  0  0
   14.2391  -15.7582   22.3684 C   0  0  0  0  0  0  0  0  0  0  0  0
   14.9310  -16.7307   23.0453 O   0  0  0  0  0  0  0  0  0  0  0  0
   17.7953  -14.1197   22.3940 O   0  0  0  0  0  0  0  0  0  0  0  0
   13.2515  -15.2242   22.9538 O   0  0  0  0  0  0  0  0  0  0  0  0
  2  1  1  6
  2  3  1  0
  4  3  1  0
  5  4  1  0
  6  5  2  0
  7  2  1  0
  7  8  2  0
  9  5  1  0
 10  7  1  0
 11 10  1  0
 11 12  1  1
 12 13  1  0
 13 17  1  0
 14 13  2  0
 14 15  1  0
 15 16  1  0
 17 16  2  0
 18 11  1  0
 19 18  2  0
 20 18  1  0
 21 20  1  0
 21 22  1  1
 23 22  1  0
 24 23  2  0
 25 21  1  0
 26 25  1  0
 27 23  1  0
 28 25  2  0
M  END
$$$$
