EHD.pdb
     RDKit          3D

 28 28  0  0  1  0  0  0  0  0999 V2000
   13.6242  -13.9306   17.5628 N   0  0  0  0  0  0  0  0  0  0  0  0
   13.3811  -15.2734   18.1141 C   0  0  1  0  0  0  0  0  0  0  0  0
   14.7171  -15.8950   18.3390 C   0  0  0  0  0  0  0  0  0  0  0  0
   15.8753  -15.1265   17.8057 C   0  0  0  0  0  0  0  0  0  0  0  0
   17.0731  -15.1464   18.6426 C   0  0  0  0  0  0  0  0  0  0  0  0
   17.4313  -14.1368   19.2954 O   0  0  0  0  0  0  0  0  0  0  0  0
   12.5911  -15.1286   19.3632 C   0  0  0  0  0  0  0  0  0  0  0  0
   12.9697  -14.3507   20.2688 O   0  0  0  0  0  0  0  0  0  0  0  0
   17.8459  -16.2913   18.7337 O   0  0  0  0  0  0  0  0  0  0  0  0
   11.3751  -15.8630   19.5858 N   0  0  0  0  0  0  0  0  0  0  0  0
   10.6069  -15.6181   20.7588 C   0  0  1  0  0  0  0  0  0  0  0  0
    9.1462  -15.4868   20.5441 C   0  0  0  0  0  0  0  0  0  0  0  0
    8.6813  -14.3982   19.6968 C   0  0  0  0  0  0  0  0  0  0  0  0
    8.2775  -14.3883   18.3926 C   0  0  0  0  0  0  0  0  0  0  0  0
    7.8887  -13.1329   18.0064 N   0  0  0  0  0  0  0  0  0  0  0  0
    8.0651  -12.3864   19.1026 C   0  0  0  0  0  0  0  0  0  0  0  0
    8.5299  -13.1000   20.1146 N   0  0  0  0  0  0  0  0  0  0  0  0
   10.8996  -16.5947   21.8433 C   0  0  0  0  0  0  0  0  0  0  0  0
   11.1105  -17.7776   21.5236 O   0  0  0  0  0  0  0  0  0  0  0  0
   10.9397  -16.2053   23.1948 N   0  0  0  0  0  0  0  0  0  0  0  0
   11.2672  -17.1944   24.2334 C   0  0  1  0  0  0  0  0  0  0  0  0
   12.0538  -16.5527   25.3311 C   0  0  0  0  0  0  0  0  0  0  0  0
   12.4144  -17.4732   26.4299 C   0  0  0  0  0  0  0  0  0  0  0  0
   11.5787  -17.9580   27.2286 O   0  0  0  0  0  0  0  0  0  0  0  0
   10.0207  -17.7846   24.7605 C   0  0  0  0  0  0  0  0  0  0  0  0
    9.9682  -18.9493   25.4841 O   0  0  0  0  0  0  0  0  0  0  0  0
   13.7418  -17.8399   26.6137 O   0  0  0  0  0  0  0  0  0  0  0  0
    8.9293  -17.1842   24.5335 O   0  0  0  0  0  0  0  0  0  0  0  0
  2  1  1  1
  2  3  1  0
  4  3  1  0
  5  4  1  0
  6  5  2  0
  7  2  1  0
  7  8  2  0
  9  5  1  0
 10  7  1  0
 11 10  1  0
 11 12  1  6
 12 13  1  0
 13 17  1  0
 14 13  2  0
 14 15  1  0
 15 16  1  0
 17 16  2  0
 18 11  1  0
 19 18  2  0
 20 18  1  0
 21 20  1  0
 21 22  1  1
 23 22  1  0
 24 23  2  0
 25 21  1  0
 26 25  1  0
 27 23  1  0
 28 25  2  0
M  END
$$$$
