EHD.pdb
     RDKit          3D

 28 28  0  0  1  0  0  0  0  0999 V2000
    8.9464  -15.9216   18.5059 N   0  0  0  0  0  0  0  0  0  0  0  0
    7.8079  -16.1037   19.4207 C   0  0  1  0  0  0  0  0  0  0  0  0
    7.4672  -17.5546   19.4008 C   0  0  0  0  0  0  0  0  0  0  0  0
    8.6246  -18.4827   19.5267 C   0  0  0  0  0  0  0  0  0  0  0  0
    8.2934  -19.9038   19.4484 C   0  0  0  0  0  0  0  0  0  0  0  0
    8.1815  -20.6069   20.4814 O   0  0  0  0  0  0  0  0  0  0  0  0
    8.2091  -15.6204   20.7663 C   0  0  0  0  0  0  0  0  0  0  0  0
    9.4173  -15.5796   21.0935 O   0  0  0  0  0  0  0  0  0  0  0  0
    8.0940  -20.5108   18.2203 O   0  0  0  0  0  0  0  0  0  0  0  0
    7.2440  -15.1843   21.7389 N   0  0  0  0  0  0  0  0  0  0  0  0
    7.6791  -14.7727   23.0302 C   0  0  1  0  0  0  0  0  0  0  0  0
    6.6336  -14.1659   23.8880 C   0  0  0  0  0  0  0  0  0  0  0  0
    7.0506  -13.5863   25.1566 C   0  0  0  0  0  0  0  0  0  0  0  0
    8.2686  -13.5632   25.7733 C   0  0  0  0  0  0  0  0  0  0  0  0
    8.2101  -12.8717   26.9542 N   0  0  0  0  0  0  0  0  0  0  0  0
    6.9341  -12.4779   27.0375 C   0  0  0  0  0  0  0  0  0  0  0  0
    6.2255  -12.8815   25.9963 N   0  0  0  0  0  0  0  0  0  0  0  0
    8.4026  -15.8521   23.7562 C   0  0  0  0  0  0  0  0  0  0  0  0
    7.9617  -17.0115   23.6704 O   0  0  0  0  0  0  0  0  0  0  0  0
    9.5526  -15.5833   24.5209 N   0  0  0  0  0  0  0  0  0  0  0  0
   10.2991  -16.6913   25.1369 C   0  0  1  0  0  0  0  0  0  0  0  0
   11.7642  -16.5335   24.8842 C   0  0  0  0  0  0  0  0  0  0  0  0
   12.5892  -17.6368   25.4199 C   0  0  0  0  0  0  0  0  0  0  0  0
   13.1857  -17.5829   26.5211 O   0  0  0  0  0  0  0  0  0  0  0  0
   10.0199  -16.7262   26.5864 C   0  0  0  0  0  0  0  0  0  0  0  0
   10.1836  -17.8379   27.3737 O   0  0  0  0  0  0  0  0  0  0  0  0
   12.7308  -18.8091   24.6879 O   0  0  0  0  0  0  0  0  0  0  0  0
    9.6028  -15.6682   27.1429 O   0  0  0  0  0  0  0  0  0  0  0  0
  2  1  1  6
  2  3  1  0
  4  3  1  0
  5  4  1  0
  6  5  2  0
  7  2  1  0
  7  8  2  0
  9  5  1  0
 10  7  1  0
 11 10  1  0
 11 12  1  1
 12 13  1  0
 13 17  1  0
 14 13  2  0
 14 15  1  0
 15 16  1  0
 17 16  2  0
 18 11  1  0
 19 18  2  0
 20 18  1  0
 21 20  1  0
 21 22  1  1
 23 22  1  0
 24 23  2  0
 25 21  1  0
 26 25  1  0
 27 23  1  0
 28 25  2  0
M  END
$$$$
