EHD.pdb
     RDKit          3D

 28 28  0  0  1  0  0  0  0  0999 V2000
    8.2373  -13.2425   16.6011 N   0  0  0  0  0  0  0  0  0  0  0  0
    7.7646  -14.4955   17.2115 C   0  0  1  0  0  0  0  0  0  0  0  0
    8.3453  -15.6106   16.4110 C   0  0  0  0  0  0  0  0  0  0  0  0
    9.6717  -15.3299   15.7959 C   0  0  0  0  0  0  0  0  0  0  0  0
   10.1979  -16.3918   14.9409 C   0  0  0  0  0  0  0  0  0  0  0  0
   10.2941  -17.5736   15.3507 O   0  0  0  0  0  0  0  0  0  0  0  0
    8.1974  -14.5144   18.6320 C   0  0  0  0  0  0  0  0  0  0  0  0
    9.3573  -14.1633   18.9483 O   0  0  0  0  0  0  0  0  0  0  0  0
   10.6057  -16.1135   13.6476 O   0  0  0  0  0  0  0  0  0  0  0  0
    7.3186  -14.9299   19.6915 N   0  0  0  0  0  0  0  0  0  0  0  0
    7.7351  -14.7997   21.0464 C   0  0  1  0  0  0  0  0  0  0  0  0
    6.6507  -14.8810   22.0536 C   0  0  0  0  0  0  0  0  0  0  0  0
    7.0074  -14.6803   23.4506 C   0  0  0  0  0  0  0  0  0  0  0  0
    8.1780  -14.2782   24.0271 C   0  0  0  0  0  0  0  0  0  0  0  0
    8.0539  -14.1955   25.3887 N   0  0  0  0  0  0  0  0  0  0  0  0
    6.7864  -14.5545   25.6221 C   0  0  0  0  0  0  0  0  0  0  0  0
    6.1434  -14.8458   24.5036 N   0  0  0  0  0  0  0  0  0  0  0  0
    8.8499  -15.7246   21.3890 C   0  0  0  0  0  0  0  0  0  0  0  0
    8.8742  -16.8397   20.8395 O   0  0  0  0  0  0  0  0  0  0  0  0
    9.8535  -15.3616   22.3058 N   0  0  0  0  0  0  0  0  0  0  0  0
   10.9136  -16.3214   22.6508 C   0  0  1  0  0  0  0  0  0  0  0  0
   12.2470  -15.6451   22.6471 C   0  0  0  0  0  0  0  0  0  0  0  0
   13.3836  -16.5550   22.9021 C   0  0  0  0  0  0  0  0  0  0  0  0
   13.6535  -17.0250   24.0323 O   0  0  0  0  0  0  0  0  0  0  0  0
   10.6309  -16.9113   23.9745 C   0  0  0  0  0  0  0  0  0  0  0  0
    9.6200  -16.4921   24.8023 O   0  0  0  0  0  0  0  0  0  0  0  0
   14.2158  -16.9281   21.8539 O   0  0  0  0  0  0  0  0  0  0  0  0
   11.3632  -17.8626   24.3765 O   0  0  0  0  0  0  0  0  0  0  0  0
  2  1  1  6
  2  3  1  0
  4  3  1  0
  5  4  1  0
  6  5  2  0
  7  2  1  0
  7  8  2  0
  9  5  1  0
 10  7  1  0
 11 10  1  0
 11 12  1  1
 12 13  1  0
 13 17  1  0
 14 13  2  0
 14 15  1  0
 15 16  1  0
 17 16  2  0
 18 11  1  0
 19 18  2  0
 20 18  1  0
 21 20  1  0
 21 22  1  1
 23 22  1  0
 24 23  2  0
 25 21  1  0
 26 25  1  0
 27 23  1  0
 28 25  2  0
M  END
$$$$
