MCI.pdb
     RDKit          3D

 23 22  0  0  1  0  0  0  0  0999 V2000
    7.8246  -12.3857   19.5733 C   0  0  0  0  0  0  0  0  0  0  0  0
    8.3512  -13.2552   18.0642 S   0  0  0  0  0  0  0  0  0  0  0  0
    8.1277  -15.0417   18.2987 C   0  0  0  0  0  0  0  0  0  0  0  0
    7.4713  -15.3130   19.6145 C   0  0  0  0  0  0  0  0  0  0  0  0
    7.2333  -16.7732   19.9034 C   0  0  2  0  0  0  0  0  0  0  0  0
    6.3393  -17.3416   18.9110 N   0  0  0  0  0  0  0  0  0  0  0  0
    6.7184  -16.9206   21.2697 C   0  0  0  0  0  0  0  0  0  0  0  0
    5.5258  -16.6942   21.5320 O   0  0  0  0  0  0  0  0  0  0  0  0
    7.5456  -17.3293   22.3730 N   0  0  0  0  0  0  0  0  0  0  0  0
    7.1425  -17.1353   23.7516 C   0  0  1  0  0  0  0  0  0  0  0  0
    6.9182  -18.4586   24.4055 C   0  0  0  0  0  0  0  0  0  0  0  0
    8.4511  -19.3411   24.7572 S   0  0  0  0  0  0  0  0  0  0  0  0
    8.0871  -16.2636   24.4852 C   0  0  0  0  0  0  0  0  0  0  0  0
    9.2858  -16.1162   24.1605 O   0  0  0  0  0  0  0  0  0  0  0  0
    5.6793  -12.0602   26.9994 C   0  0  0  0  0  0  0  0  0  0  0  0
    6.6183  -12.9651   26.2521 C   0  0  0  0  0  0  0  0  0  0  0  0
    7.6038  -13.6652   27.1198 C   0  0  2  0  0  0  0  0  0  0  0  0
    8.4392  -12.5934   27.8096 C   0  0  0  0  0  0  0  0  0  0  0  0
    8.4860  -14.6338   26.3639 C   0  0  2  0  0  0  0  0  0  0  0  0
    7.6218  -15.5501   25.6206 N   0  0  0  0  0  0  0  0  0  0  0  0
    9.3226  -15.4475   27.2809 C   0  0  0  0  0  0  0  0  0  0  0  0
   10.5882  -15.0386   27.6944 O   0  0  0  0  0  0  0  0  0  0  0  0
    8.9206  -16.5395   27.7207 O   0  0  0  0  0  0  0  0  0  0  0  0
  2  1  1  0
  3  2  1  0
  4  3  1  0
  5  4  1  0
  5  7  1  0
  5  6  1  6
  7  8  2  0
  9 10  1  0
  9  7  1  0
 11 12  1  0
 10 11  1  1
 13 10  1  0
 13 14  2  0
 16 15  1  0
 17 16  1  0
 17 18  1  6
 19 20  1  1
 19 17  1  0
 20 13  1  0
 21 19  1  0
 22 21  1  0
 23 21  2  0
M  END
$$$$
