MCI.pdb
     RDKit          3D

 23 22  0  0  1  0  0  0  0  0999 V2000
    8.7594  -11.9478   19.7892 C   0  0  0  0  0  0  0  0  0  0  0  0
    8.2751  -12.7926   18.2521 S   0  0  0  0  0  0  0  0  0  0  0  0
    7.6722  -14.4575   18.6535 C   0  0  0  0  0  0  0  0  0  0  0  0
    8.8233  -15.3886   18.8624 C   0  0  0  0  0  0  0  0  0  0  0  0
    8.4281  -16.7965   19.2285 C   0  0  2  0  0  0  0  0  0  0  0  0
    7.5928  -17.3695   18.1887 N   0  0  0  0  0  0  0  0  0  0  0  0
    7.7655  -16.7903   20.5379 C   0  0  0  0  0  0  0  0  0  0  0  0
    6.5743  -16.4576   20.6508 O   0  0  0  0  0  0  0  0  0  0  0  0
    8.4396  -17.1620   21.7528 N   0  0  0  0  0  0  0  0  0  0  0  0
    7.8005  -17.0637   23.0499 C   0  0  1  0  0  0  0  0  0  0  0  0
    7.7137  -18.4161   23.6764 C   0  0  0  0  0  0  0  0  0  0  0  0
    8.8542  -18.6291   25.0570 S   0  0  0  0  0  0  0  0  0  0  0  0
    8.4522  -16.0518   23.9109 C   0  0  0  0  0  0  0  0  0  0  0  0
    9.6801  -15.8153   23.8911 O   0  0  0  0  0  0  0  0  0  0  0  0
    6.5384  -11.1409   27.1780 C   0  0  0  0  0  0  0  0  0  0  0  0
    7.6123  -12.1351   26.8350 C   0  0  0  0  0  0  0  0  0  0  0  0
    7.1279  -13.3041   26.0520 C   0  0  2  0  0  0  0  0  0  0  0  0
    6.0538  -13.9920   26.8860 C   0  0  0  0  0  0  0  0  0  0  0  0
    8.2275  -14.2743   25.6816 C   0  0  2  0  0  0  0  0  0  0  0  0
    7.6534  -15.3014   24.8128 N   0  0  0  0  0  0  0  0  0  0  0  0
    8.7864  -14.9554   26.8760 C   0  0  0  0  0  0  0  0  0  0  0  0
    9.8128  -14.4012   27.6371 O   0  0  0  0  0  0  0  0  0  0  0  0
    8.3544  -16.0612   27.2477 O   0  0  0  0  0  0  0  0  0  0  0  0
  2  1  1  0
  3  2  1  0
  4  3  1  0
  5  4  1  0
  5  7  1  0
  5  6  1  6
  7  8  2  0
  9 10  1  0
  9  7  1  0
 11 12  1  0
 10 11  1  1
 13 10  1  0
 13 14  2  0
 16 15  1  0
 17 16  1  0
 17 18  1  1
 19 20  1  6
 19 17  1  0
 20 13  1  0
 21 19  1  0
 22 21  1  0
 23 21  2  0
M  END
$$$$
