MCI.pdb
     RDKit          3D

 23 22  0  0  1  0  0  0  0  0999 V2000
    7.8466  -11.6778   19.3980 C   0  0  0  0  0  0  0  0  0  0  0  0
    7.4309  -12.8203   18.0442 S   0  0  0  0  0  0  0  0  0  0  0  0
    7.9231  -14.5035   18.5145 C   0  0  0  0  0  0  0  0  0  0  0  0
    7.4319  -14.8211   19.8906 C   0  0  0  0  0  0  0  0  0  0  0  0
    8.1486  -15.9661   20.5597 C   0  0  2  0  0  0  0  0  0  0  0  0
    7.9086  -17.2004   19.8343 N   0  0  0  0  0  0  0  0  0  0  0  0
    7.7259  -16.0506   21.9625 C   0  0  0  0  0  0  0  0  0  0  0  0
    7.6225  -15.0299   22.6623 O   0  0  0  0  0  0  0  0  0  0  0  0
    7.4096  -17.2974   22.6060 N   0  0  0  0  0  0  0  0  0  0  0  0
    7.0445  -17.3708   24.0068 C   0  0  1  0  0  0  0  0  0  0  0  0
    6.7351  -18.7836   24.3769 C   0  0  0  0  0  0  0  0  0  0  0  0
    6.8818  -19.0982   26.1466 S   0  0  0  0  0  0  0  0  0  0  0  0
    8.0620  -16.7389   24.8760 C   0  0  0  0  0  0  0  0  0  0  0  0
    9.2906  -16.9427   24.7623 O   0  0  0  0  0  0  0  0  0  0  0  0
    6.2240  -11.9277   26.5026 C   0  0  0  0  0  0  0  0  0  0  0  0
    7.2164  -12.9503   26.0243 C   0  0  0  0  0  0  0  0  0  0  0  0
    7.8052  -13.7780   27.1117 C   0  0  2  0  0  0  0  0  0  0  0  0
    8.7056  -12.8657   27.9360 C   0  0  0  0  0  0  0  0  0  0  0  0
    8.5730  -14.9776   26.6028 C   0  0  2  0  0  0  0  0  0  0  0  0
    7.6354  -15.8516   25.8984 N   0  0  0  0  0  0  0  0  0  0  0  0
    9.1711  -15.7602   27.7130 C   0  0  0  0  0  0  0  0  0  0  0  0
    8.5802  -16.9195   28.2096 O   0  0  0  0  0  0  0  0  0  0  0  0
   10.2363  -15.4063   28.2494 O   0  0  0  0  0  0  0  0  0  0  0  0
  2  1  1  0
  3  2  1  0
  4  3  1  0
  5  4  1  0
  5  7  1  0
  5  6  1  6
  7  8  2  0
  9 10  1  0
  9  7  1  0
 11 12  1  0
 10 11  1  1
 13 10  1  0
 13 14  2  0
 16 15  1  0
 17 16  1  0
 17 18  1  6
 19 20  1  1
 19 17  1  0
 20 13  1  0
 21 19  1  0
 22 21  1  0
 23 21  2  0
M  END
$$$$
