MCI.pdb
     RDKit          3D

 23 22  0  0  1  0  0  0  0  0999 V2000
    7.4763  -12.0395   19.6939 C   0  0  0  0  0  0  0  0  0  0  0  0
    8.6478  -13.1737   18.8865 S   0  0  0  0  0  0  0  0  0  0  0  0
    7.7193  -14.4892   18.0475 C   0  0  0  0  0  0  0  0  0  0  0  0
    6.8108  -15.1790   19.0142 C   0  0  0  0  0  0  0  0  0  0  0  0
    7.3832  -16.4346   19.6208 C   0  0  2  0  0  0  0  0  0  0  0  0
    7.0201  -17.5894   18.8195 N   0  0  0  0  0  0  0  0  0  0  0  0
    6.9288  -16.5535   21.0111 C   0  0  0  0  0  0  0  0  0  0  0  0
    5.7216  -16.6588   21.2830 O   0  0  0  0  0  0  0  0  0  0  0  0
    7.8346  -16.5559   22.1282 N   0  0  0  0  0  0  0  0  0  0  0  0
    7.3675  -16.6121   23.4991 C   0  0  1  0  0  0  0  0  0  0  0  0
    7.1940  -18.0346   23.9178 C   0  0  0  0  0  0  0  0  0  0  0  0
    6.8351  -18.2143   25.6760 S   0  0  0  0  0  0  0  0  0  0  0  0
    8.2310  -15.8269   24.4090 C   0  0  0  0  0  0  0  0  0  0  0  0
    9.4661  -15.9970   24.5073 O   0  0  0  0  0  0  0  0  0  0  0  0
    5.6795  -11.5232   27.2111 C   0  0  0  0  0  0  0  0  0  0  0  0
    6.3526  -12.8294   26.8949 C   0  0  0  0  0  0  0  0  0  0  0  0
    7.7191  -12.6842   26.3240 C   0  0  2  0  0  0  0  0  0  0  0  0
    7.5778  -11.9482   24.9970 C   0  0  0  0  0  0  0  0  0  0  0  0
    8.4332  -14.0042   26.1357 C   0  0  2  0  0  0  0  0  0  0  0  0
    7.6398  -14.8233   25.2199 N   0  0  0  0  0  0  0  0  0  0  0  0
    8.5588  -14.7495   27.4131 C   0  0  0  0  0  0  0  0  0  0  0  0
    7.9591  -15.9905   27.6132 O   0  0  0  0  0  0  0  0  0  0  0  0
    9.2124  -14.2886   28.3659 O   0  0  0  0  0  0  0  0  0  0  0  0
  2  1  1  0
  3  2  1  0
  4  3  1  0
  5  4  1  0
  5  7  1  0
  5  6  1  6
  7  8  2  0
  9 10  1  0
  9  7  1  0
 11 12  1  0
 10 11  1  1
 13 10  1  0
 13 14  2  0
 16 15  1  0
 17 16  1  0
 17 18  1  6
 19 20  1  6
 19 17  1  0
 20 13  1  0
 21 19  1  0
 22 21  1  0
 23 21  2  0
M  END
$$$$
