MCI.pdb
     RDKit          3D

 23 22  0  0  1  0  0  0  0  0999 V2000
    8.0818  -11.7043   20.3923 C   0  0  0  0  0  0  0  0  0  0  0  0
    8.2317  -12.4344   18.7323 S   0  0  0  0  0  0  0  0  0  0  0  0
    8.7516  -14.1668   18.8896 C   0  0  0  0  0  0  0  0  0  0  0  0
    7.6700  -14.9758   19.5310 C   0  0  0  0  0  0  0  0  0  0  0  0
    8.0544  -16.4013   19.8351 C   0  0  2  0  0  0  0  0  0  0  0  0
    7.3585  -17.3099   18.9420 N   0  0  0  0  0  0  0  0  0  0  0  0
    7.7810  -16.6874   21.2482 C   0  0  0  0  0  0  0  0  0  0  0  0
    6.6163  -16.7964   21.6654 O   0  0  0  0  0  0  0  0  0  0  0  0
    8.8241  -16.8572   22.2237 N   0  0  0  0  0  0  0  0  0  0  0  0
    8.5381  -17.0881   23.6257 C   0  0  1  0  0  0  0  0  0  0  0  0
    8.8746  -18.4971   23.9867 C   0  0  0  0  0  0  0  0  0  0  0  0
    7.9207  -19.7116   23.0553 S   0  0  0  0  0  0  0  0  0  0  0  0
    9.1881  -16.0816   24.4944 C   0  0  0  0  0  0  0  0  0  0  0  0
   10.3903  -15.7531   24.3913 O   0  0  0  0  0  0  0  0  0  0  0  0
    6.0558  -11.9742   26.1499 C   0  0  0  0  0  0  0  0  0  0  0  0
    7.1614  -12.8993   25.7248 C   0  0  0  0  0  0  0  0  0  0  0  0
    7.8982  -13.5234   26.8570 C   0  0  2  0  0  0  0  0  0  0  0  0
    8.4576  -12.3912   27.7100 C   0  0  0  0  0  0  0  0  0  0  0  0
    9.0001  -14.4589   26.4119 C   0  0  2  0  0  0  0  0  0  0  0  0
    8.4181  -15.4466   25.5036 N   0  0  0  0  0  0  0  0  0  0  0  0
    9.5942  -15.1941   27.5562 C   0  0  0  0  0  0  0  0  0  0  0  0
   10.7049  -14.7200   28.2500 O   0  0  0  0  0  0  0  0  0  0  0  0
    9.1170  -16.2753   27.9443 O   0  0  0  0  0  0  0  0  0  0  0  0
  2  1  1  0
  3  2  1  0
  4  3  1  0
  5  4  1  0
  5  7  1  0
  5  6  1  6
  7  8  2  0
  9 10  1  0
  9  7  1  0
 11 12  1  0
 10 11  1  1
 13 10  1  0
 13 14  2  0
 16 15  1  0
 17 16  1  0
 17 18  1  6
 19 20  1  6
 19 17  1  0
 20 13  1  0
 21 19  1  0
 22 21  1  0
 23 21  2  0
M  END
$$$$
