MCI.pdb
     RDKit          3D

 23 22  0  0  1  0  0  0  0  0999 V2000
    7.9495  -11.9121   20.0098 C   0  0  0  0  0  0  0  0  0  0  0  0
    8.3564  -12.6764   18.4095 S   0  0  0  0  0  0  0  0  0  0  0  0
    7.7250  -14.3786   18.3861 C   0  0  0  0  0  0  0  0  0  0  0  0
    7.3606  -14.8147   19.7691 C   0  0  0  0  0  0  0  0  0  0  0  0
    7.7317  -16.2396   20.0917 C   0  0  2  0  0  0  0  0  0  0  0  0
    6.9833  -17.1557   19.2503 N   0  0  0  0  0  0  0  0  0  0  0  0
    7.5120  -16.4872   21.5215 C   0  0  0  0  0  0  0  0  0  0  0  0
    6.4563  -16.1406   22.0761 O   0  0  0  0  0  0  0  0  0  0  0  0
    8.4865  -17.1350   22.3577 N   0  0  0  0  0  0  0  0  0  0  0  0
    8.3276  -17.2294   23.7952 C   0  0  1  0  0  0  0  0  0  0  0  0
    8.8130  -18.5580   24.2730 C   0  0  0  0  0  0  0  0  0  0  0  0
   10.6113  -18.6631   24.3598 S   0  0  0  0  0  0  0  0  0  0  0  0
    8.9496  -16.0836   24.4955 C   0  0  0  0  0  0  0  0  0  0  0  0
    9.9685  -15.4899   24.0792 O   0  0  0  0  0  0  0  0  0  0  0  0
    6.1033  -12.0539   26.2291 C   0  0  0  0  0  0  0  0  0  0  0  0
    7.2673  -12.9136   25.8228 C   0  0  0  0  0  0  0  0  0  0  0  0
    7.9297  -13.6122   26.9575 C   0  0  2  0  0  0  0  0  0  0  0  0
    8.5088  -12.5393   27.8718 C   0  0  0  0  0  0  0  0  0  0  0  0
    9.0024  -14.5841   26.5188 C   0  0  2  0  0  0  0  0  0  0  0  0
    8.3697  -15.6226   25.7061 N   0  0  0  0  0  0  0  0  0  0  0  0
    9.6493  -15.2499   27.6768 C   0  0  0  0  0  0  0  0  0  0  0  0
    9.3023  -16.5353   28.0860 O   0  0  0  0  0  0  0  0  0  0  0  0
   10.5371  -14.6785   28.3346 O   0  0  0  0  0  0  0  0  0  0  0  0
  2  1  1  0
  3  2  1  0
  4  3  1  0
  5  4  1  0
  5  7  1  0
  5  6  1  6
  7  8  2  0
  9 10  1  0
  9  7  1  0
 11 12  1  0
 10 11  1  1
 13 10  1  0
 13 14  2  0
 16 15  1  0
 17 16  1  0
 17 18  1  1
 19 20  1  6
 19 17  1  0
 20 13  1  0
 21 19  1  0
 22 21  1  0
 23 21  2  0
M  END
$$$$
