MCI.pdb
     RDKit          3D

 23 22  0  0  1  0  0  0  0  0999 V2000
    8.3345  -12.0580   19.6482 C   0  0  0  0  0  0  0  0  0  0  0  0
    8.6421  -12.8322   18.0306 S   0  0  0  0  0  0  0  0  0  0  0  0
    8.3634  -14.6213   18.1652 C   0  0  0  0  0  0  0  0  0  0  0  0
    8.1137  -15.0006   19.5898 C   0  0  0  0  0  0  0  0  0  0  0  0
    8.0529  -16.4862   19.8381 C   0  0  2  0  0  0  0  0  0  0  0  0
    7.0764  -17.1023   18.9583 N   0  0  0  0  0  0  0  0  0  0  0  0
    7.7613  -16.7304   21.2555 C   0  0  0  0  0  0  0  0  0  0  0  0
    6.5933  -16.8714   21.6534 O   0  0  0  0  0  0  0  0  0  0  0  0
    8.7894  -16.8208   22.2571 N   0  0  0  0  0  0  0  0  0  0  0  0
    8.4828  -17.0013   23.6621 C   0  0  1  0  0  0  0  0  0  0  0  0
    8.8402  -18.3877   24.0852 C   0  0  0  0  0  0  0  0  0  0  0  0
   10.6201  -18.6740   24.1348 S   0  0  0  0  0  0  0  0  0  0  0  0
    9.0975  -15.9481   24.5007 C   0  0  0  0  0  0  0  0  0  0  0  0
   10.1851  -15.3945   24.2276 O   0  0  0  0  0  0  0  0  0  0  0  0
    5.8272  -12.3402   26.7247 C   0  0  0  0  0  0  0  0  0  0  0  0
    7.0129  -13.0674   26.1552 C   0  0  0  0  0  0  0  0  0  0  0  0
    7.8641  -13.7329   27.1784 C   0  0  2  0  0  0  0  0  0  0  0  0
    8.3931  -12.6434   28.1033 C   0  0  0  0  0  0  0  0  0  0  0  0
    9.0004  -14.5344   26.5833 C   0  0  2  0  0  0  0  0  0  0  0  0
    8.4280  -15.5337   25.6817 N   0  0  0  0  0  0  0  0  0  0  0  0
    9.7702  -15.2570   27.6264 C   0  0  0  0  0  0  0  0  0  0  0  0
   10.9304  -14.7337   28.1922 O   0  0  0  0  0  0  0  0  0  0  0  0
    9.4043  -16.3714   28.0405 O   0  0  0  0  0  0  0  0  0  0  0  0
  2  1  1  0
  3  2  1  0
  4  3  1  0
  5  4  1  0
  5  7  1  0
  5  6  1  6
  7  8  2  0
  9 10  1  0
  9  7  1  0
 11 12  1  0
 10 11  1  1
 13 10  1  0
 13 14  2  0
 16 15  1  0
 17 16  1  0
 17 18  1  1
 19 20  1  6
 19 17  1  0
 20 13  1  0
 21 19  1  0
 22 21  1  0
 23 21  2  0
M  END
$$$$
