MCI.pdb
     RDKit          3D

 23 22  0  0  1  0  0  0  0  0999 V2000
    8.2986  -12.3291   19.6778 C   0  0  0  0  0  0  0  0  0  0  0  0
    7.9383  -13.2583   18.1555 S   0  0  0  0  0  0  0  0  0  0  0  0
    8.0527  -15.0366   18.5033 C   0  0  0  0  0  0  0  0  0  0  0  0
    7.0920  -15.4155   19.5848 C   0  0  0  0  0  0  0  0  0  0  0  0
    7.1111  -16.8774   19.9518 C   0  0  2  0  0  0  0  0  0  0  0  0
    6.2021  -17.6207   19.0983 N   0  0  0  0  0  0  0  0  0  0  0  0
    6.7880  -17.0251   21.3757 C   0  0  0  0  0  0  0  0  0  0  0  0
    5.6092  -17.0373   21.7665 O   0  0  0  0  0  0  0  0  0  0  0  0
    7.7962  -17.1629   22.3921 N   0  0  0  0  0  0  0  0  0  0  0  0
    7.4691  -17.1857   23.8039 C   0  0  1  0  0  0  0  0  0  0  0  0
    7.4249  -18.5960   24.2916 C   0  0  0  0  0  0  0  0  0  0  0  0
    7.2989  -18.7188   26.0865 S   0  0  0  0  0  0  0  0  0  0  0  0
    8.3675  -16.3131   24.5925 C   0  0  0  0  0  0  0  0  0  0  0  0
    9.6114  -16.3064   24.4646 O   0  0  0  0  0  0  0  0  0  0  0  0
    5.7942  -12.0371   27.0722 C   0  0  0  0  0  0  0  0  0  0  0  0
    6.8084  -12.8414   26.3082 C   0  0  0  0  0  0  0  0  0  0  0  0
    7.7129  -13.6507   27.1691 C   0  0  2  0  0  0  0  0  0  0  0  0
    8.5153  -12.6758   28.0225 C   0  0  0  0  0  0  0  0  0  0  0  0
    8.6299  -14.5623   26.3844 C   0  0  2  0  0  0  0  0  0  0  0  0
    7.8009  -15.4311   25.5494 N   0  0  0  0  0  0  0  0  0  0  0  0
    9.4374  -15.4315   27.2762 C   0  0  0  0  0  0  0  0  0  0  0  0
    8.9221  -16.5897   27.8533 O   0  0  0  0  0  0  0  0  0  0  0  0
   10.6200  -15.1555   27.5460 O   0  0  0  0  0  0  0  0  0  0  0  0
  2  1  1  0
  3  2  1  0
  4  3  1  0
  5  4  1  0
  5  7  1  0
  5  6  1  6
  7  8  2  0
  9 10  1  0
  9  7  1  0
 11 12  1  0
 10 11  1  1
 13 10  1  0
 13 14  2  0
 16 15  1  0
 17 16  1  0
 17 18  1  6
 19 20  1  6
 19 17  1  0
 20 13  1  0
 21 19  1  0
 22 21  1  0
 23 21  2  0
M  END
$$$$
