MCI.pdb
     RDKit          3D

 23 22  0  0  1  0  0  0  0  0999 V2000
    9.0052  -11.4764   19.4996 C   0  0  0  0  0  0  0  0  0  0  0  0
    8.6660  -13.2488   19.7327 S   0  0  0  0  0  0  0  0  0  0  0  0
    7.5219  -13.8102   18.4394 C   0  0  0  0  0  0  0  0  0  0  0  0
    7.1832  -15.2529   18.6384 C   0  0  0  0  0  0  0  0  0  0  0  0
    8.3360  -16.1057   19.1032 C   0  0  2  0  0  0  0  0  0  0  0  0
    8.5398  -17.2149   18.1892 N   0  0  0  0  0  0  0  0  0  0  0  0
    8.0861  -16.5530   20.4784 C   0  0  0  0  0  0  0  0  0  0  0  0
    7.1145  -17.2776   20.7490 O   0  0  0  0  0  0  0  0  0  0  0  0
    8.9340  -16.1883   21.5814 N   0  0  0  0  0  0  0  0  0  0  0  0
    8.7218  -16.7030   22.9196 C   0  0  1  0  0  0  0  0  0  0  0  0
    9.2908  -18.0789   23.0299 C   0  0  0  0  0  0  0  0  0  0  0  0
    9.3250  -18.6949   24.7245 S   0  0  0  0  0  0  0  0  0  0  0  0
    9.2198  -15.7702   23.9549 C   0  0  0  0  0  0  0  0  0  0  0  0
   10.3796  -15.3024   23.9631 O   0  0  0  0  0  0  0  0  0  0  0  0
    5.3138  -13.0815   27.0974 C   0  0  0  0  0  0  0  0  0  0  0  0
    6.3692  -14.0690   26.6851 C   0  0  0  0  0  0  0  0  0  0  0  0
    7.6507  -13.4438   26.2596 C   0  0  2  0  0  0  0  0  0  0  0  0
    7.3698  -12.6645   24.9804 C   0  0  0  0  0  0  0  0  0  0  0  0
    8.7647  -14.4448   26.0481 C   0  0  2  0  0  0  0  0  0  0  0  0
    8.3455  -15.3765   25.0014 N   0  0  0  0  0  0  0  0  0  0  0  0
    9.0339  -15.2365   27.2743 C   0  0  0  0  0  0  0  0  0  0  0  0
    9.6273  -14.6797   28.4047 O   0  0  0  0  0  0  0  0  0  0  0  0
    8.7363  -16.4425   27.3404 O   0  0  0  0  0  0  0  0  0  0  0  0
  2  1  1  0
  3  2  1  0
  4  3  1  0
  5  4  1  0
  5  7  1  0
  5  6  1  6
  7  8  2  0
  9 10  1  0
  9  7  1  0
 11 12  1  0
 10 11  1  6
 13 10  1  0
 13 14  2  0
 16 15  1  0
 17 16  1  0
 17 18  1  6
 19 20  1  6
 19 17  1  0
 20 13  1  0
 21 19  1  0
 22 21  1  0
 23 21  2  0
M  END
$$$$
