MCI.pdb
     RDKit          3D

 23 22  0  0  1  0  0  0  0  0999 V2000
    7.5725  -12.2859   19.6878 C   0  0  0  0  0  0  0  0  0  0  0  0
    8.2997  -13.1240   18.2457 S   0  0  0  0  0  0  0  0  0  0  0  0
    8.0413  -14.9140   18.4056 C   0  0  0  0  0  0  0  0  0  0  0  0
    7.4302  -15.2324   19.7327 C   0  0  0  0  0  0  0  0  0  0  0  0
    7.2678  -16.7057   20.0070 C   0  0  2  0  0  0  0  0  0  0  0  0
    6.3756  -17.3026   19.0297 N   0  0  0  0  0  0  0  0  0  0  0  0
    6.7958  -16.8944   21.3837 C   0  0  0  0  0  0  0  0  0  0  0  0
    5.6623  -16.5218   21.7284 O   0  0  0  0  0  0  0  0  0  0  0  0
    7.5999  -17.5115   22.4042 N   0  0  0  0  0  0  0  0  0  0  0  0
    7.2570  -17.4297   23.8100 C   0  0  1  0  0  0  0  0  0  0  0  0
    7.1136  -18.8029   24.3779 C   0  0  0  0  0  0  0  0  0  0  0  0
    6.9999  -18.8143   26.1777 S   0  0  0  0  0  0  0  0  0  0  0  0
    8.2031  -16.5734   24.5597 C   0  0  0  0  0  0  0  0  0  0  0  0
    9.4399  -16.5842   24.3751 O   0  0  0  0  0  0  0  0  0  0  0  0
    5.8865  -12.0580   26.6499 C   0  0  0  0  0  0  0  0  0  0  0  0
    6.8907  -12.9724   26.0060 C   0  0  0  0  0  0  0  0  0  0  0  0
    7.7111  -13.7491   26.9744 C   0  0  2  0  0  0  0  0  0  0  0  0
    8.5701  -12.7507   27.7409 C   0  0  0  0  0  0  0  0  0  0  0  0
    8.5695  -14.8079   26.3186 C   0  0  2  0  0  0  0  0  0  0  0  0
    7.6938  -15.6873   25.5446 N   0  0  0  0  0  0  0  0  0  0  0  0
    9.2749  -15.6440   27.3217 C   0  0  0  0  0  0  0  0  0  0  0  0
   10.5961  -15.4058   27.6928 O   0  0  0  0  0  0  0  0  0  0  0  0
    8.7064  -16.6014   27.8762 O   0  0  0  0  0  0  0  0  0  0  0  0
  2  1  1  0
  3  2  1  0
  4  3  1  0
  5  4  1  0
  5  7  1  0
  5  6  1  6
  7  8  2  0
  9 10  1  0
  9  7  1  0
 11 12  1  0
 10 11  1  1
 13 10  1  0
 13 14  2  0
 16 15  1  0
 17 16  1  0
 17 18  1  6
 19 20  1  1
 19 17  1  0
 20 13  1  0
 21 19  1  0
 22 21  1  0
 23 21  2  0
M  END
$$$$
