MCI.pdb
     RDKit          3D

 23 22  0  0  1  0  0  0  0  0999 V2000
   12.3708  -19.8616   29.0302 C   0  0  0  0  0  0  0  0  0  0  0  0
   13.5479  -18.8287   28.1037 S   0  0  0  0  0  0  0  0  0  0  0  0
   13.1226  -18.8794   26.3393 C   0  0  0  0  0  0  0  0  0  0  0  0
   11.9154  -19.7347   26.1221 C   0  0  0  0  0  0  0  0  0  0  0  0
   11.4510  -19.8057   24.6898 C   0  0  2  0  0  0  0  0  0  0  0  0
   12.5887  -19.7471   23.7901 N   0  0  0  0  0  0  0  0  0  0  0  0
   10.4837  -18.7310   24.4388 C   0  0  0  0  0  0  0  0  0  0  0  0
   10.7924  -17.7378   23.7601 O   0  0  0  0  0  0  0  0  0  0  0  0
    9.1406  -18.7574   24.9526 N   0  0  0  0  0  0  0  0  0  0  0  0
    8.2581  -17.6113   24.8618 C   0  0  1  0  0  0  0  0  0  0  0  0
    6.8408  -18.0474   25.0356 C   0  0  0  0  0  0  0  0  0  0  0  0
    5.6532  -16.7226   24.7410 S   0  0  0  0  0  0  0  0  0  0  0  0
    8.6631  -16.5284   25.7856 C   0  0  0  0  0  0  0  0  0  0  0  0
    9.0656  -16.7301   26.9524 O   0  0  0  0  0  0  0  0  0  0  0  0
    5.6690  -12.1157   25.6032 C   0  0  0  0  0  0  0  0  0  0  0  0
    6.9688  -12.8116   25.3107 C   0  0  0  0  0  0  0  0  0  0  0  0
    7.6825  -13.2966   26.5230 C   0  0  2  0  0  0  0  0  0  0  0  0
    7.9845  -12.0779   27.3867 C   0  0  0  0  0  0  0  0  0  0  0  0
    8.9486  -14.0614   26.2070 C   0  0  2  0  0  0  0  0  0  0  0  0
    8.5965  -15.1834   25.3373 N   0  0  0  0  0  0  0  0  0  0  0  0
    9.5748  -14.6197   27.4314 C   0  0  0  0  0  0  0  0  0  0  0  0
    9.1091  -15.7814   28.0425 O   0  0  0  0  0  0  0  0  0  0  0  0
   10.5516  -14.0647   27.9654 O   0  0  0  0  0  0  0  0  0  0  0  0
  2  1  1  0
  3  2  1  0
  4  3  1  0
  5  4  1  0
  5  7  1  0
  5  6  1  6
  7  8  2  0
  9 10  1  0
  9  7  1  0
 11 12  1  0
 10 11  1  1
 13 10  1  0
 13 14  2  0
 16 15  1  0
 17 16  1  0
 17 18  1  1
 19 20  1  6
 19 17  1  0
 20 13  1  0
 21 19  1  0
 22 21  1  0
 23 21  2  0
M  END
$$$$
