VSN.pdb
     RDKit          3D

 22 21  0  0  1  0  0  0  0  0999 V2000
   17.2560  -12.1864  -17.4418 C   0  0  0  0  0  0  0  0  0  0  0  0
   17.5089  -11.2601  -16.2888 C   0  0  1  0  0  0  0  0  0  0  0  0
   18.2392  -12.0303  -15.2141 C   0  0  0  0  0  0  0  0  0  0  0  0
   18.3432  -10.0621  -16.6878 C   0  0  2  0  0  0  0  0  0  0  0  0
   19.5499  -10.5062  -17.3564 N   0  0  0  0  0  0  0  0  0  0  0  0
   18.6513   -9.1880  -15.5273 C   0  0  0  0  0  0  0  0  0  0  0  0
   17.7015   -8.6686  -14.8859 O   0  0  0  0  0  0  0  0  0  0  0  0
   21.2071   -7.6291  -12.0053 O   0  0  0  0  0  0  0  0  0  0  0  0
   21.2543   -8.4470  -13.1437 C   0  0  0  0  0  0  0  0  0  0  0  0
   20.1874   -7.9392  -14.0892 C   0  0  2  0  0  0  0  0  0  0  0  0
   19.9742   -8.9064  -15.1015 N   0  0  0  0  0  0  0  0  0  0  0  0
   20.6529   -6.6181  -14.6019 C   0  0  0  0  0  0  0  0  0  0  0  0
   21.5180   -6.5107  -15.5103 O   0  0  0  0  0  0  0  0  0  0  0  0
   19.2429   -1.1797  -15.6534 N   0  0  0  0  0  0  0  0  0  0  0  0
   19.9945   -1.7368  -14.5964 C   0  0  0  0  0  0  0  0  0  0  0  0
   20.9859   -1.1219  -14.1658 O   0  0  0  0  0  0  0  0  0  0  0  0
   19.6011   -3.0266  -14.0204 C   0  0  0  0  0  0  0  0  0  0  0  0
   20.5172   -4.0964  -14.4987 C   0  0  2  0  0  0  0  0  0  0  0  0
   20.1117   -5.4217  -14.0576 N   0  0  0  0  0  0  0  0  0  0  0  0
   21.9444   -3.8366  -14.2238 C   0  0  0  0  0  0  0  0  0  0  0  0
   22.6910   -3.3046  -15.0714 O   0  0  0  0  0  0  0  0  0  0  0  0
   22.5057   -4.1793  -13.0020 O   0  0  0  0  0  0  0  0  0  0  0  0
  2  1  1  6
  2  3  1  0
  4  6  1  0
  4  2  1  0
  4  5  1  1
  6 11  1  0
  7  6  2  0
 10  9  1  1
  9  8  1  0
 10 12  1  0
 11 10  1  0
 12 13  2  0
 12 19  1  0
 14 15  1  0
 15 16  2  0
 15 17  1  0
 18 17  1  1
 18 20  1  0
 19 18  1  0
 20 22  1  0
 21 20  2  0
M  END
$$$$
