VSN.pdb
     RDKit          3D

 22 21  0  0  1  0  0  0  0  0999 V2000
   18.4452  -11.9677  -19.6062 C   0  0  0  0  0  0  0  0  0  0  0  0
   18.8923  -11.1155  -18.4549 C   0  0  1  0  0  0  0  0  0  0  0  0
   17.6642  -10.5756  -17.7607 C   0  0  0  0  0  0  0  0  0  0  0  0
   19.7208  -11.8920  -17.4543 C   0  0  2  0  0  0  0  0  0  0  0  0
   18.9782  -13.0491  -16.9962 N   0  0  0  0  0  0  0  0  0  0  0  0
   20.1627  -11.0417  -16.3197 C   0  0  0  0  0  0  0  0  0  0  0  0
   19.3154  -10.6801  -15.4625 O   0  0  0  0  0  0  0  0  0  0  0  0
   24.0334   -9.9098  -15.8409 O   0  0  0  0  0  0  0  0  0  0  0  0
   23.2581   -9.9653  -14.6734 C   0  0  0  0  0  0  0  0  0  0  0  0
   21.8232   -9.7290  -15.0920 C   0  0  2  0  0  0  0  0  0  0  0  0
   21.5037  -10.6125  -16.1518 N   0  0  0  0  0  0  0  0  0  0  0  0
   21.7060   -8.2859  -15.4501 C   0  0  0  0  0  0  0  0  0  0  0  0
   21.8097   -7.8713  -16.6344 O   0  0  0  0  0  0  0  0  0  0  0  0
   18.8099   -3.2693  -15.3073 N   0  0  0  0  0  0  0  0  0  0  0  0
   20.0133   -4.0069  -15.2937 C   0  0  0  0  0  0  0  0  0  0  0  0
   21.0710   -3.4505  -15.6371 O   0  0  0  0  0  0  0  0  0  0  0  0
   20.0041   -5.4128  -14.8771 C   0  0  0  0  0  0  0  0  0  0  0  0
   21.3986   -5.8954  -14.6892 C   0  0  2  0  0  0  0  0  0  0  0  0
   21.4681   -7.3248  -14.4301 N   0  0  0  0  0  0  0  0  0  0  0  0
   22.1790   -5.1183  -13.7059 C   0  0  0  0  0  0  0  0  0  0  0  0
   22.5063   -3.9319  -13.9159 O   0  0  0  0  0  0  0  0  0  0  0  0
   22.5769   -5.6888  -12.5052 O   0  0  0  0  0  0  0  0  0  0  0  0
  2  1  1  6
  2  3  1  0
  4  6  1  0
  4  2  1  0
  4  5  1  1
  6 11  1  0
  7  6  2  0
 10  9  1  6
  9  8  1  0
 10 12  1  0
 11 10  1  0
 12 13  2  0
 12 19  1  0
 14 15  1  0
 15 16  2  0
 15 17  1  0
 18 17  1  1
 18 20  1  0
 19 18  1  0
 20 22  1  0
 21 20  2  0
M  END
$$$$
