VSN.pdb
     RDKit          3D

 22 21  0  0  1  0  0  0  0  0999 V2000
   15.5239  -11.7352  -17.5827 C   0  0  0  0  0  0  0  0  0  0  0  0
   15.7155  -12.8521  -16.5991 C   0  0  1  0  0  0  0  0  0  0  0  0
   15.1413  -14.1142  -17.1982 C   0  0  0  0  0  0  0  0  0  0  0  0
   17.1747  -13.0836  -16.2711 C   0  0  2  0  0  0  0  0  0  0  0  0
   17.2997  -14.1969  -15.3518 N   0  0  0  0  0  0  0  0  0  0  0  0
   17.8257  -11.8594  -15.7387 C   0  0  0  0  0  0  0  0  0  0  0  0
   17.4663  -11.4162  -14.6172 O   0  0  0  0  0  0  0  0  0  0  0  0
   21.2658   -8.7080  -15.4792 O   0  0  0  0  0  0  0  0  0  0  0  0
   20.8053   -9.8316  -16.1813 C   0  0  0  0  0  0  0  0  0  0  0  0
   19.3179   -9.9287  -15.9201 C   0  0  2  0  0  0  0  0  0  0  0  0
   18.8412  -11.1581  -16.4369 N   0  0  0  0  0  0  0  0  0  0  0  0
   18.6878   -8.7264  -16.5385 C   0  0  0  0  0  0  0  0  0  0  0  0
   18.4131   -8.6612  -17.7654 O   0  0  0  0  0  0  0  0  0  0  0  0
   16.3857   -4.3360  -17.3032 N   0  0  0  0  0  0  0  0  0  0  0  0
   15.7521   -5.0045  -16.2336 C   0  0  0  0  0  0  0  0  0  0  0  0
   14.6329   -4.6182  -15.8532 O   0  0  0  0  0  0  0  0  0  0  0  0
   16.4155   -6.1405  -15.5860 C   0  0  0  0  0  0  0  0  0  0  0  0
   17.7208   -6.4096  -16.2466 C   0  0  2  0  0  0  0  0  0  0  0  0
   18.3773   -7.5999  -15.7292 N   0  0  0  0  0  0  0  0  0  0  0  0
   18.6316   -5.2481  -16.2795 C   0  0  0  0  0  0  0  0  0  0  0  0
   18.3026   -4.1694  -16.8155 O   0  0  0  0  0  0  0  0  0  0  0  0
   19.8948   -5.3202  -15.7098 O   0  0  0  0  0  0  0  0  0  0  0  0
  2  1  1  6
  2  3  1  0
  4  6  1  0
  4  2  1  0
  4  5  1  1
  6 11  1  0
  7  6  2  0
 10  9  1  6
  9  8  1  0
 10 12  1  0
 11 10  1  0
 12 13  2  0
 12 19  1  0
 14 15  1  0
 15 16  2  0
 15 17  1  0
 18 17  1  1
 18 20  1  0
 19 18  1  0
 20 22  1  0
 21 20  2  0
M  END
$$$$
