VSN.pdb
     RDKit          3D

 22 21  0  0  1  0  0  0  0  0999 V2000
   17.0848  -12.4924  -19.1046 C   0  0  0  0  0  0  0  0  0  0  0  0
   17.1960  -11.2867  -18.2184 C   0  0  1  0  0  0  0  0  0  0  0  0
   16.2427  -11.4612  -17.0599 C   0  0  0  0  0  0  0  0  0  0  0  0
   18.5971  -11.0994  -17.6779 C   0  0  2  0  0  0  0  0  0  0  0  0
   19.0465  -12.3240  -17.0464 N   0  0  0  0  0  0  0  0  0  0  0  0
   18.6853   -9.9422  -16.7511 C   0  0  0  0  0  0  0  0  0  0  0  0
   18.5149   -8.7817  -17.2067 O   0  0  0  0  0  0  0  0  0  0  0  0
   18.9791   -8.1585  -12.3549 O   0  0  0  0  0  0  0  0  0  0  0  0
   19.1310   -9.3310  -13.1096 C   0  0  0  0  0  0  0  0  0  0  0  0
   19.0913   -8.9198  -14.5654 C   0  0  2  0  0  0  0  0  0  0  0  0
   18.9543  -10.0802  -15.3658 N   0  0  0  0  0  0  0  0  0  0  0  0
   20.3364   -8.1431  -14.8326 C   0  0  0  0  0  0  0  0  0  0  0  0
   21.4331   -8.6957  -15.1100 O   0  0  0  0  0  0  0  0  0  0  0  0
   23.1972   -4.2560  -17.6442 N   0  0  0  0  0  0  0  0  0  0  0  0
   22.4692   -4.1821  -16.4372 C   0  0  0  0  0  0  0  0  0  0  0  0
   22.8449   -3.3983  -15.5478 O   0  0  0  0  0  0  0  0  0  0  0  0
   21.2846   -5.0248  -16.2452 C   0  0  0  0  0  0  0  0  0  0  0  0
   21.4682   -5.8939  -15.0521 C   0  0  2  0  0  0  0  0  0  0  0  0
   20.3054   -6.7230  -14.7770 N   0  0  0  0  0  0  0  0  0  0  0  0
   21.9308   -5.1762  -13.8477 C   0  0  0  0  0  0  0  0  0  0  0  0
   23.0475   -4.6193  -13.8024 O   0  0  0  0  0  0  0  0  0  0  0  0
   21.1303   -5.0974  -12.7171 O   0  0  0  0  0  0  0  0  0  0  0  0
  2  1  1  6
  2  3  1  0
  4  6  1  0
  4  2  1  0
  4  5  1  1
  6 11  1  0
  7  6  2  0
 10  9  1  1
  9  8  1  0
 10 12  1  0
 11 10  1  0
 12 13  2  0
 12 19  1  0
 14 15  1  0
 15 16  2  0
 15 17  1  0
 18 17  1  6
 18 20  1  0
 19 18  1  0
 20 22  1  0
 21 20  2  0
M  END
$$$$
