VSN.pdb
     RDKit          3D

 22 21  0  0  1  0  0  0  0  0999 V2000
   17.8213  -14.3702  -16.9018 C   0  0  0  0  0  0  0  0  0  0  0  0
   17.8576  -12.8852  -17.1139 C   0  0  1  0  0  0  0  0  0  0  0  0
   16.4799  -12.4338  -17.5377 C   0  0  0  0  0  0  0  0  0  0  0  0
   18.2561  -12.1364  -15.8605 C   0  0  2  0  0  0  0  0  0  0  0  0
   17.4001  -12.5322  -14.7602 N   0  0  0  0  0  0  0  0  0  0  0  0
   18.2405  -10.6652  -16.0634 C   0  0  0  0  0  0  0  0  0  0  0  0
   19.0769  -10.1491  -16.8492 O   0  0  0  0  0  0  0  0  0  0  0  0
   15.5129   -8.3660  -14.2369 O   0  0  0  0  0  0  0  0  0  0  0  0
   15.9264   -7.8735  -15.4834 C   0  0  0  0  0  0  0  0  0  0  0  0
   17.3137   -8.4252  -15.7309 C   0  0  2  0  0  0  0  0  0  0  0  0
   17.3223   -9.8046  -15.4101 N   0  0  0  0  0  0  0  0  0  0  0  0
   18.2590   -7.6079  -14.9165 C   0  0  0  0  0  0  0  0  0  0  0  0
   18.6213   -7.9445  -13.7587 O   0  0  0  0  0  0  0  0  0  0  0  0
   22.3895   -4.8844  -13.1321 N   0  0  0  0  0  0  0  0  0  0  0  0
   21.8838   -4.6083  -14.4207 C   0  0  0  0  0  0  0  0  0  0  0  0
   22.1288   -3.5084  -14.9468 O   0  0  0  0  0  0  0  0  0  0  0  0
   21.0800   -5.6146  -15.1216 C   0  0  0  0  0  0  0  0  0  0  0  0
   19.6582   -5.5147  -14.6959 C   0  0  2  0  0  0  0  0  0  0  0  0
   18.7829   -6.3987  -15.4494 N   0  0  0  0  0  0  0  0  0  0  0  0
   19.1380   -4.1338  -14.6477 C   0  0  0  0  0  0  0  0  0  0  0  0
   19.2804   -3.4123  -13.6387 O   0  0  0  0  0  0  0  0  0  0  0  0
   18.4679   -3.5895  -15.7340 O   0  0  0  0  0  0  0  0  0  0  0  0
  2  1  1  1
  2  3  1  0
  4  6  1  0
  4  2  1  0
  4  5  1  1
  6 11  1  0
  7  6  2  0
 10  9  1  1
  9  8  1  0
 10 12  1  0
 11 10  1  0
 12 13  2  0
 12 19  1  0
 14 15  1  0
 15 16  2  0
 15 17  1  0
 18 17  1  6
 18 20  1  0
 19 18  1  0
 20 22  1  0
 21 20  2  0
M  END
$$$$
