VSN.pdb
     RDKit          3D

 22 21  0  0  1  0  0  0  0  0999 V2000
   11.7700  -12.2397  -12.1634 C   0  0  0  0  0  0  0  0  0  0  0  0
   12.6249  -11.3336  -11.3270 C   0  0  1  0  0  0  0  0  0  0  0  0
   12.2128  -11.4942   -9.8827 C   0  0  0  0  0  0  0  0  0  0  0  0
   14.0982  -11.6546  -11.4562 C   0  0  2  0  0  0  0  0  0  0  0  0
   14.3405  -13.0209  -11.0382 N   0  0  0  0  0  0  0  0  0  0  0  0
   14.9444  -10.6943  -10.7029 C   0  0  0  0  0  0  0  0  0  0  0  0
   15.1775  -10.9114   -9.4855 O   0  0  0  0  0  0  0  0  0  0  0  0
   16.9567   -7.6324  -12.4728 O   0  0  0  0  0  0  0  0  0  0  0  0
   17.4356   -8.1315  -11.2526 C   0  0  0  0  0  0  0  0  0  0  0  0
   16.2306   -8.6245  -10.4810 C   0  0  2  0  0  0  0  0  0  0  0  0
   15.5083   -9.5340  -11.2915 N   0  0  0  0  0  0  0  0  0  0  0  0
   15.4491   -7.4198  -10.0777 C   0  0  0  0  0  0  0  0  0  0  0  0
   14.3078   -7.1653  -10.5444 O   0  0  0  0  0  0  0  0  0  0  0  0
   14.0662   -3.0559   -7.9243 N   0  0  0  0  0  0  0  0  0  0  0  0
   13.9165   -4.1849   -7.0904 C   0  0  0  0  0  0  0  0  0  0  0  0
   13.2278   -4.0918   -6.0592 O   0  0  0  0  0  0  0  0  0  0  0  0
   14.5704   -5.4483   -7.4463 C   0  0  0  0  0  0  0  0  0  0  0  0
   15.3184   -5.2906   -8.7223 C   0  0  2  0  0  0  0  0  0  0  0  0
   15.9955   -6.5111   -9.1309 N   0  0  0  0  0  0  0  0  0  0  0  0
   16.2213   -4.1227   -8.7526 C   0  0  0  0  0  0  0  0  0  0  0  0
   17.3662   -4.1637   -8.2561 O   0  0  0  0  0  0  0  0  0  0  0  0
   15.8209   -2.9311   -9.3400 O   0  0  0  0  0  0  0  0  0  0  0  0
  2  1  1  6
  2  3  1  0
  4  6  1  0
  4  2  1  0
  4  5  1  1
  6 11  1  0
  7  6  2  0
 10  9  1  6
  9  8  1  0
 10 12  1  0
 11 10  1  0
 12 13  2  0
 12 19  1  0
 14 15  1  0
 15 16  2  0
 15 17  1  0
 18 17  1  1
 18 20  1  0
 19 18  1  0
 20 22  1  0
 21 20  2  0
M  END
$$$$
