VSN.pdb
     RDKit          3D

 22 21  0  0  1  0  0  0  0  0999 V2000
   24.2501  -12.6082  -15.2006 C   0  0  0  0  0  0  0  0  0  0  0  0
   23.8497  -13.4368  -16.3858 C   0  0  1  0  0  0  0  0  0  0  0  0
   24.2813  -14.8623  -16.1342 C   0  0  0  0  0  0  0  0  0  0  0  0
   22.3557  -13.4108  -16.6255 C   0  0  2  0  0  0  0  0  0  0  0  0
   22.0064  -14.3776  -17.6471 N   0  0  0  0  0  0  0  0  0  0  0  0
   21.8720  -12.0501  -16.9723 C   0  0  0  0  0  0  0  0  0  0  0  0
   22.1715  -11.5638  -18.0936 O   0  0  0  0  0  0  0  0  0  0  0  0
   18.7223  -10.4464  -15.2732 O   0  0  0  0  0  0  0  0  0  0  0  0
   19.1409   -9.9455  -16.5147 C   0  0  0  0  0  0  0  0  0  0  0  0
   20.6539   -9.9790  -16.5099 C   0  0  2  0  0  0  0  0  0  0  0  0
   21.0824  -11.2637  -16.0956 N   0  0  0  0  0  0  0  0  0  0  0  0
   21.1111   -8.8719  -15.6210 C   0  0  0  0  0  0  0  0  0  0  0  0
   21.2749   -9.0220  -14.3818 O   0  0  0  0  0  0  0  0  0  0  0  0
   22.5881   -2.8234  -15.8431 N   0  0  0  0  0  0  0  0  0  0  0  0
   22.4632   -4.1301  -15.3241 C   0  0  0  0  0  0  0  0  0  0  0  0
   22.7890   -4.3491  -14.1441 O   0  0  0  0  0  0  0  0  0  0  0  0
   21.9536   -5.2093  -16.1760 C   0  0  0  0  0  0  0  0  0  0  0  0
   21.7327   -6.4357  -15.3636 C   0  0  2  0  0  0  0  0  0  0  0  0
   21.3780   -7.5899  -16.1742 N   0  0  0  0  0  0  0  0  0  0  0  0
   20.8034   -6.2506  -14.2314 C   0  0  0  0  0  0  0  0  0  0  0  0
   21.2007   -6.2514  -13.0477 O   0  0  0  0  0  0  0  0  0  0  0  0
   19.4455   -6.0679  -14.4504 O   0  0  0  0  0  0  0  0  0  0  0  0
  2  1  1  1
  2  3  1  0
  4  6  1  0
  4  2  1  0
  4  5  1  6
  6 11  1  0
  7  6  2  0
 10  9  1  1
  9  8  1  0
 10 12  1  0
 11 10  1  0
 12 13  2  0
 12 19  1  0
 14 15  1  0
 15 16  2  0
 15 17  1  0
 18 17  1  6
 18 20  1  0
 19 18  1  0
 20 22  1  0
 21 20  2  0
M  END
$$$$
