VSN.pdb
     RDKit          3D

 22 21  0  0  1  0  0  0  0  0999 V2000
   25.7738  -18.5632  -19.2116 C   0  0  0  0  0  0  0  0  0  0  0  0
   25.1940  -18.9215  -17.8748 C   0  0  1  0  0  0  0  0  0  0  0  0
   24.7875  -17.6448  -17.1776 C   0  0  0  0  0  0  0  0  0  0  0  0
   23.9834  -19.8214  -17.9973 C   0  0  2  0  0  0  0  0  0  0  0  0
   23.0179  -19.2239  -18.8979 N   0  0  0  0  0  0  0  0  0  0  0  0
   23.3813  -20.1262  -16.6743 C   0  0  0  0  0  0  0  0  0  0  0  0
   24.0613  -20.7600  -15.8262 O   0  0  0  0  0  0  0  0  0  0  0  0
   20.6736  -17.9569  -15.2197 O   0  0  0  0  0  0  0  0  0  0  0  0
   21.1597  -18.8806  -14.2828 C   0  0  0  0  0  0  0  0  0  0  0  0
   21.5458  -20.1228  -15.0562 C   0  0  2  0  0  0  0  0  0  0  0  0
   22.0664  -19.7355  -16.3151 N   0  0  0  0  0  0  0  0  0  0  0  0
   20.3272  -20.9786  -15.1418 C   0  0  0  0  0  0  0  0  0  0  0  0
   19.4646  -20.8402  -16.0483 O   0  0  0  0  0  0  0  0  0  0  0  0
   17.3438  -25.6367  -12.4942 N   0  0  0  0  0  0  0  0  0  0  0  0
   18.0708  -25.0302  -13.5410 C   0  0  0  0  0  0  0  0  0  0  0  0
   17.8465  -25.3732  -14.7151 O   0  0  0  0  0  0  0  0  0  0  0  0
   19.0769  -24.0081  -13.2355 C   0  0  0  0  0  0  0  0  0  0  0  0
   18.9517  -22.8723  -14.1879 C   0  0  2  0  0  0  0  0  0  0  0  0
   20.1123  -21.9959  -14.1725 N   0  0  0  0  0  0  0  0  0  0  0  0
   17.6891  -22.1171  -14.0642 C   0  0  0  0  0  0  0  0  0  0  0  0
   16.6474  -22.4771  -14.6511 O   0  0  0  0  0  0  0  0  0  0  0  0
   17.6204  -20.9720  -13.2836 O   0  0  0  0  0  0  0  0  0  0  0  0
  2  1  1  6
  2  3  1  0
  4  6  1  0
  4  2  1  0
  4  5  1  6
  6 11  1  0
  7  6  2  0
 10  9  1  1
  9  8  1  0
 10 12  1  0
 11 10  1  0
 12 13  2  0
 12 19  1  0
 14 15  1  0
 15 16  2  0
 15 17  1  0
 18 17  1  1
 18 20  1  0
 19 18  1  0
 20 22  1  0
 21 20  2  0
M  END
$$$$
