VSN.pdb
     RDKit          3D

 22 21  0  0  1  0  0  0  0  0999 V2000
   16.6989  -12.4084  -17.5922 C   0  0  0  0  0  0  0  0  0  0  0  0
   17.5036  -11.7277  -16.5242 C   0  0  1  0  0  0  0  0  0  0  0  0
   18.4916  -12.7254  -15.9676 C   0  0  0  0  0  0  0  0  0  0  0  0
   18.2609  -10.5289  -17.0530 C   0  0  2  0  0  0  0  0  0  0  0  0
   19.0798  -10.9253  -18.1811 N   0  0  0  0  0  0  0  0  0  0  0  0
   19.0694   -9.8712  -15.9950 C   0  0  0  0  0  0  0  0  0  0  0  0
   18.4905   -9.4420  -14.9634 O   0  0  0  0  0  0  0  0  0  0  0  0
   22.4872  -10.4123  -13.8758 O   0  0  0  0  0  0  0  0  0  0  0  0
   22.5468   -9.4903  -14.9311 C   0  0  0  0  0  0  0  0  0  0  0  0
   21.1489   -8.9374  -15.1055 C   0  0  2  0  0  0  0  0  0  0  0  0
   20.4739   -9.7005  -16.0893 N   0  0  0  0  0  0  0  0  0  0  0  0
   21.2917   -7.4935  -15.4514 C   0  0  0  0  0  0  0  0  0  0  0  0
   21.5536   -7.0991  -16.6180 O   0  0  0  0  0  0  0  0  0  0  0  0
   19.4987   -1.9617  -14.3513 N   0  0  0  0  0  0  0  0  0  0  0  0
   20.2140   -2.9490  -15.0626 C   0  0  0  0  0  0  0  0  0  0  0  0
   21.0325   -2.5993  -15.9310 O   0  0  0  0  0  0  0  0  0  0  0  0
   19.9862   -4.3682  -14.7722 C   0  0  0  0  0  0  0  0  0  0  0  0
   21.2874   -5.0841  -14.6883 C   0  0  2  0  0  0  0  0  0  0  0  0
   21.1298   -6.5083  -14.4396 N   0  0  0  0  0  0  0  0  0  0  0  0
   22.2575   -4.4668  -13.7622 C   0  0  0  0  0  0  0  0  0  0  0  0
   22.7913   -3.3650  -14.0074 O   0  0  0  0  0  0  0  0  0  0  0  0
   22.6093   -5.0987  -12.5780 O   0  0  0  0  0  0  0  0  0  0  0  0
  2  1  1  6
  2  3  1  0
  4  6  1  0
  4  2  1  0
  4  5  1  6
  6 11  1  0
  7  6  2  0
 10  9  1  6
  9  8  1  0
 10 12  1  0
 11 10  1  0
 12 13  2  0
 12 19  1  0
 14 15  1  0
 15 16  2  0
 15 17  1  0
 18 17  1  1
 18 20  1  0
 19 18  1  0
 20 22  1  0
 21 20  2  0
M  END
$$$$
