VSN.pdb
     RDKit          3D

 22 21  0  0  1  0  0  0  0  0999 V2000
   18.4197  -13.0878  -17.3716 C   0  0  0  0  0  0  0  0  0  0  0  0
   17.2772  -12.9248  -16.4127 C   0  0  1  0  0  0  0  0  0  0  0  0
   16.9581  -14.2779  -15.8221 C   0  0  0  0  0  0  0  0  0  0  0  0
   17.6030  -11.9633  -15.2903 C   0  0  2  0  0  0  0  0  0  0  0  0
   16.6396  -12.1165  -14.2185 N   0  0  0  0  0  0  0  0  0  0  0  0
   17.6734  -10.5579  -15.7652 C   0  0  0  0  0  0  0  0  0  0  0  0
   18.5629  -10.2388  -16.5962 O   0  0  0  0  0  0  0  0  0  0  0  0
   15.9222   -6.1688  -16.1528 O   0  0  0  0  0  0  0  0  0  0  0  0
   15.6707   -7.4710  -15.6964 C   0  0  0  0  0  0  0  0  0  0  0  0
   16.9919   -8.2080  -15.7333 C   0  0  2  0  0  0  0  0  0  0  0  0
   16.7808   -9.5477  -15.3254 N   0  0  0  0  0  0  0  0  0  0  0  0
   17.9372   -7.4513  -14.8623 C   0  0  0  0  0  0  0  0  0  0  0  0
   18.3036   -7.8727  -13.7339 O   0  0  0  0  0  0  0  0  0  0  0  0
   21.6224   -4.3311  -13.4113 N   0  0  0  0  0  0  0  0  0  0  0  0
   21.8060   -5.6886  -13.7517 C   0  0  0  0  0  0  0  0  0  0  0  0
   22.8807   -6.2463  -13.4684 O   0  0  0  0  0  0  0  0  0  0  0  0
   20.7342   -6.4230  -14.4316 C   0  0  0  0  0  0  0  0  0  0  0  0
   19.5646   -5.5295  -14.6471 C   0  0  2  0  0  0  0  0  0  0  0  0
   18.4562   -6.2040  -15.3044 N   0  0  0  0  0  0  0  0  0  0  0  0
   19.8961   -4.2481  -15.3013 C   0  0  0  0  0  0  0  0  0  0  0  0
   19.9511   -4.1390  -16.5439 O   0  0  0  0  0  0  0  0  0  0  0  0
   20.1595   -3.1135  -14.5471 O   0  0  0  0  0  0  0  0  0  0  0  0
  2  1  1  6
  2  3  1  0
  4  6  1  0
  4  2  1  0
  4  5  1  1
  6 11  1  0
  7  6  2  0
 10  9  1  1
  9  8  1  0
 10 12  1  0
 11 10  1  0
 12 13  2  0
 12 19  1  0
 14 15  1  0
 15 16  2  0
 15 17  1  0
 18 17  1  6
 18 20  1  0
 19 18  1  0
 20 22  1  0
 21 20  2  0
M  END
$$$$
