VSN.pdb
     RDKit          3D

 22 21  0  0  1  0  0  0  0  0999 V2000
   22.2363  -11.2168  -18.2254 C   0  0  0  0  0  0  0  0  0  0  0  0
   20.9105  -11.8355  -18.5587 C   0  0  1  0  0  0  0  0  0  0  0  0
   21.1610  -13.2065  -19.1410 C   0  0  0  0  0  0  0  0  0  0  0  0
   20.0200  -11.9732  -17.3428 C   0  0  2  0  0  0  0  0  0  0  0  0
   18.8073  -12.6811  -17.7013 N   0  0  0  0  0  0  0  0  0  0  0  0
   19.7217  -10.6582  -16.7205 C   0  0  0  0  0  0  0  0  0  0  0  0
   19.1925   -9.7575  -17.4220 O   0  0  0  0  0  0  0  0  0  0  0  0
   18.1317   -9.7759  -13.2655 O   0  0  0  0  0  0  0  0  0  0  0  0
   19.4035   -9.1945  -13.3745 C   0  0  0  0  0  0  0  0  0  0  0  0
   19.7033   -9.0770  -14.8532 C   0  0  2  0  0  0  0  0  0  0  0  0
   20.0059  -10.3632  -15.3630 N   0  0  0  0  0  0  0  0  0  0  0  0
   20.8144   -8.0921  -14.9952 C   0  0  0  0  0  0  0  0  0  0  0  0
   22.0268   -8.4238  -14.9240 O   0  0  0  0  0  0  0  0  0  0  0  0
   23.6779   -4.0975  -17.2555 N   0  0  0  0  0  0  0  0  0  0  0  0
   22.4197   -3.8602  -16.6614 C   0  0  0  0  0  0  0  0  0  0  0  0
   22.1788   -2.7416  -16.1743 O   0  0  0  0  0  0  0  0  0  0  0  0
   21.4155   -4.9281  -16.6250 C   0  0  0  0  0  0  0  0  0  0  0  0
   21.5397   -5.6984  -15.3586 C   0  0  2  0  0  0  0  0  0  0  0  0
   20.5147   -6.7209  -15.2203 N   0  0  0  0  0  0  0  0  0  0  0  0
   21.6472   -4.8585  -14.1491 C   0  0  0  0  0  0  0  0  0  0  0  0
   22.6774   -4.2003  -13.8950 O   0  0  0  0  0  0  0  0  0  0  0  0
   20.5954   -4.7737  -13.2481 O   0  0  0  0  0  0  0  0  0  0  0  0
  2  1  1  1
  2  3  1  0
  4  6  1  0
  4  2  1  0
  4  5  1  6
  6 11  1  0
  7  6  2  0
 10  9  1  1
  9  8  1  0
 10 12  1  0
 11 10  1  0
 12 13  2  0
 12 19  1  0
 14 15  1  0
 15 16  2  0
 15 17  1  0
 18 17  1  6
 18 20  1  0
 19 18  1  0
 20 22  1  0
 21 20  2  0
M  END
$$$$
