VSN.pdb
     RDKit          3D

 22 21  0  0  1  0  0  0  0  0999 V2000
   23.0672  -14.7104  -14.5152 C   0  0  0  0  0  0  0  0  0  0  0  0
   22.9356  -13.3324  -15.0943 C   0  0  1  0  0  0  0  0  0  0  0  0
   24.1781  -13.0373  -15.9009 C   0  0  0  0  0  0  0  0  0  0  0  0
   21.7243  -13.2007  -15.9919 C   0  0  2  0  0  0  0  0  0  0  0  0
   21.8085  -14.1623  -17.0728 N   0  0  0  0  0  0  0  0  0  0  0  0
   21.5596  -11.8162  -16.5036 C   0  0  0  0  0  0  0  0  0  0  0  0
   22.2795  -11.4301  -17.4608 O   0  0  0  0  0  0  0  0  0  0  0  0
   18.2501   -9.7585  -16.0223 O   0  0  0  0  0  0  0  0  0  0  0  0
   19.1343   -9.3835  -17.0445 C   0  0  0  0  0  0  0  0  0  0  0  0
   20.5338   -9.5947  -16.5086 C   0  0  2  0  0  0  0  0  0  0  0  0
   20.6235  -10.8986  -15.9630 N   0  0  0  0  0  0  0  0  0  0  0  0
   20.7912   -8.5060  -15.5221 C   0  0  0  0  0  0  0  0  0  0  0  0
   20.7377   -8.6927  -14.2781 O   0  0  0  0  0  0  0  0  0  0  0  0
   21.9187   -4.0301  -13.4501 N   0  0  0  0  0  0  0  0  0  0  0  0
   22.4792   -3.9613  -14.7437 C   0  0  0  0  0  0  0  0  0  0  0  0
   23.1729   -2.9769  -15.0539 O   0  0  0  0  0  0  0  0  0  0  0  0
   22.2397   -5.0444  -15.7026 C   0  0  0  0  0  0  0  0  0  0  0  0
   21.3750   -6.0859  -15.0860 C   0  0  2  0  0  0  0  0  0  0  0  0
   21.1111   -7.2000  -15.9830 N   0  0  0  0  0  0  0  0  0  0  0  0
   20.1354   -5.5604  -14.4802 C   0  0  0  0  0  0  0  0  0  0  0  0
   19.9860   -5.4924  -13.2425 O   0  0  0  0  0  0  0  0  0  0  0  0
   19.0873   -5.1210  -15.2763 O   0  0  0  0  0  0  0  0  0  0  0  0
  2  1  1  6
  2  3  1  0
  4  6  1  0
  4  2  1  0
  4  5  1  6
  6 11  1  0
  7  6  2  0
 10  9  1  1
  9  8  1  0
 10 12  1  0
 11 10  1  0
 12 13  2  0
 12 19  1  0
 14 15  1  0
 15 16  2  0
 15 17  1  0
 18 17  1  6
 18 20  1  0
 19 18  1  0
 20 22  1  0
 21 20  2  0
M  END
$$$$
