VSN.pdb
     RDKit          3D

 22 21  0  0  1  0  0  0  0  0999 V2000
   16.4600  -10.7734  -17.6198 C   0  0  0  0  0  0  0  0  0  0  0  0
   16.7877  -11.9018  -16.6865 C   0  0  1  0  0  0  0  0  0  0  0  0
   16.6656  -13.1989  -17.4508 C   0  0  0  0  0  0  0  0  0  0  0  0
   18.1886  -11.7927  -16.1243 C   0  0  2  0  0  0  0  0  0  0  0  0
   18.4942  -12.9713  -15.3383 N   0  0  0  0  0  0  0  0  0  0  0  0
   18.3764  -10.5471  -15.3376 C   0  0  0  0  0  0  0  0  0  0  0  0
   17.6829  -10.3690  -14.3028 O   0  0  0  0  0  0  0  0  0  0  0  0
   21.6057   -8.3973  -15.5600 O   0  0  0  0  0  0  0  0  0  0  0  0
   20.7628   -8.0966  -14.4799 C   0  0  0  0  0  0  0  0  0  0  0  0
   19.3455   -8.3332  -14.9547 C   0  0  2  0  0  0  0  0  0  0  0  0
   19.3062   -9.5388  -15.6970 N   0  0  0  0  0  0  0  0  0  0  0  0
   18.9407   -7.1280  -15.7348 C   0  0  0  0  0  0  0  0  0  0  0  0
   19.0109   -7.0791  -16.9908 O   0  0  0  0  0  0  0  0  0  0  0  0
   17.1676   -2.5966  -17.0557 N   0  0  0  0  0  0  0  0  0  0  0  0
   16.3965   -3.0025  -15.9453 C   0  0  0  0  0  0  0  0  0  0  0  0
   15.3768   -2.3572  -15.6450 O   0  0  0  0  0  0  0  0  0  0  0  0
   16.8029   -4.1737  -15.1621 C   0  0  0  0  0  0  0  0  0  0  0  0
   18.0380   -4.7673  -15.7407 C   0  0  2  0  0  0  0  0  0  0  0  0
   18.4538   -5.9796  -15.0531 N   0  0  0  0  0  0  0  0  0  0  0  0
   19.1524   -3.8111  -15.8950 C   0  0  0  0  0  0  0  0  0  0  0  0
   19.8594   -3.4635  -14.9263 O   0  0  0  0  0  0  0  0  0  0  0  0
   19.4514   -3.2637  -17.1344 O   0  0  0  0  0  0  0  0  0  0  0  0
  2  1  1  6
  2  3  1  0
  4  6  1  0
  4  2  1  0
  4  5  1  1
  6 11  1  0
  7  6  2  0
 10  9  1  6
  9  8  1  0
 10 12  1  0
 11 10  1  0
 12 13  2  0
 12 19  1  0
 14 15  1  0
 15 16  2  0
 15 17  1  0
 18 17  1  1
 18 20  1  0
 19 18  1  0
 20 22  1  0
 21 20  2  0
M  END
$$$$
