VSN.pdb
     RDKit          3D

 22 21  0  0  1  0  0  0  0  0999 V2000
   25.0252  -20.6449   -9.0600 C   0  0  0  0  0  0  0  0  0  0  0  0
   26.4672  -20.3147   -9.3113 C   0  0  1  0  0  0  0  0  0  0  0  0
   27.2427  -20.5858   -8.0438 C   0  0  0  0  0  0  0  0  0  0  0  0
   27.0573  -21.1398  -10.4344 C   0  0  2  0  0  0  0  0  0  0  0  0
   28.4950  -20.9610  -10.4706 N   0  0  0  0  0  0  0  0  0  0  0  0
   26.4338  -20.8221  -11.7444 C   0  0  0  0  0  0  0  0  0  0  0  0
   26.4265  -19.6285  -12.1428 O   0  0  0  0  0  0  0  0  0  0  0  0
   26.7746  -21.7874  -15.5105 O   0  0  0  0  0  0  0  0  0  0  0  0
   25.6581  -22.3635  -14.8870 C   0  0  0  0  0  0  0  0  0  0  0  0
   25.2306  -21.4100  -13.7923 C   0  0  2  0  0  0  0  0  0  0  0  0
   25.8405  -21.8049  -12.5766 N   0  0  0  0  0  0  0  0  0  0  0  0
   23.7396  -21.4288  -13.7562 C   0  0  0  0  0  0  0  0  0  0  0  0
   23.0888  -22.2794  -13.0943 O   0  0  0  0  0  0  0  0  0  0  0  0
   18.8751  -20.3840  -14.7261 N   0  0  0  0  0  0  0  0  0  0  0  0
   19.5385  -19.1490  -14.8906 C   0  0  0  0  0  0  0  0  0  0  0  0
   18.8707  -18.1276  -15.1299 O   0  0  0  0  0  0  0  0  0  0  0  0
   20.9990  -19.0832  -14.7783 C   0  0  0  0  0  0  0  0  0  0  0  0
   21.5527  -20.4457  -14.5556 C   0  0  2  0  0  0  0  0  0  0  0  0
   23.0056  -20.4578  -14.4904 N   0  0  0  0  0  0  0  0  0  0  0  0
   21.0342  -21.4676  -15.4866 C   0  0  0  0  0  0  0  0  0  0  0  0
   21.4552  -21.5640  -16.6581 O   0  0  0  0  0  0  0  0  0  0  0  0
   20.0528  -22.3620  -15.0838 O   0  0  0  0  0  0  0  0  0  0  0  0
  2  1  1  1
  2  3  1  0
  4  6  1  0
  4  2  1  0
  4  5  1  6
  6 11  1  0
  7  6  2  0
 10  9  1  6
  9  8  1  0
 10 12  1  0
 11 10  1  0
 12 13  2  0
 12 19  1  0
 14 15  1  0
 15 16  2  0
 15 17  1  0
 18 17  1  6
 18 20  1  0
 19 18  1  0
 20 22  1  0
 21 20  2  0
M  END
$$$$
