VSN.pdb
     RDKit          3D

 22 21  0  0  1  0  0  0  0  0999 V2000
   15.0690   -8.3827  -13.1451 C   0  0  0  0  0  0  0  0  0  0  0  0
   15.0137   -8.4191  -11.6460 C   0  0  1  0  0  0  0  0  0  0  0  0
   13.8382   -9.2745  -11.2363 C   0  0  0  0  0  0  0  0  0  0  0  0
   16.2752   -8.9944  -11.0394 C   0  0  2  0  0  0  0  0  0  0  0  0
   16.1887   -8.9485   -9.5934 N   0  0  0  0  0  0  0  0  0  0  0  0
   17.4944   -8.3069  -11.5361 C   0  0  0  0  0  0  0  0  0  0  0  0
   17.7344   -7.1344  -11.1476 O   0  0  0  0  0  0  0  0  0  0  0  0
   21.5275   -8.2677  -14.0734 O   0  0  0  0  0  0  0  0  0  0  0  0
   20.4320   -9.0549  -13.6895 C   0  0  0  0  0  0  0  0  0  0  0  0
   19.4617   -8.1348  -12.9809 C   0  0  2  0  0  0  0  0  0  0  0  0
   18.4103   -8.9106  -12.4346 N   0  0  0  0  0  0  0  0  0  0  0  0
   19.0120   -7.1232  -13.9805 C   0  0  0  0  0  0  0  0  0  0  0  0
   18.1645   -7.3843  -14.8742 O   0  0  0  0  0  0  0  0  0  0  0  0
   16.9080   -2.7863  -16.2328 N   0  0  0  0  0  0  0  0  0  0  0  0
   18.0597   -2.7269  -15.4190 C   0  0  0  0  0  0  0  0  0  0  0  0
   18.8683   -1.7954  -15.5772 O   0  0  0  0  0  0  0  0  0  0  0  0
   18.2898   -3.7576  -14.4016 C   0  0  0  0  0  0  0  0  0  0  0  0
   19.2240   -4.7892  -14.9266 C   0  0  2  0  0  0  0  0  0  0  0  0
   19.5483   -5.8074  -13.9401 N   0  0  0  0  0  0  0  0  0  0  0  0
   20.4342   -4.2375  -15.5677 C   0  0  0  0  0  0  0  0  0  0  0  0
   21.5572   -4.3134  -15.0274 O   0  0  0  0  0  0  0  0  0  0  0  0
   20.3598   -3.6110  -16.8036 O   0  0  0  0  0  0  0  0  0  0  0  0
  2  1  1  6
  2  3  1  0
  4  6  1  0
  4  2  1  0
  4  5  1  1
  6 11  1  0
  7  6  2  0
 10  9  1  6
  9  8  1  0
 10 12  1  0
 11 10  1  0
 12 13  2  0
 12 19  1  0
 14 15  1  0
 15 16  2  0
 15 17  1  0
 18 17  1  1
 18 20  1  0
 19 18  1  0
 20 22  1  0
 21 20  2  0
M  END
$$$$
