VSN.pdb
     RDKit          3D

 22 21  0  0  1  0  0  0  0  0999 V2000
   15.9353  -11.6762  -14.8575 C   0  0  0  0  0  0  0  0  0  0  0  0
   16.4007  -13.1002  -14.7733 C   0  0  1  0  0  0  0  0  0  0  0  0
   15.1843  -13.9956  -14.7582 C   0  0  0  0  0  0  0  0  0  0  0  0
   17.2805  -13.4862  -15.9427 C   0  0  2  0  0  0  0  0  0  0  0  0
   17.6578  -14.8812  -15.8325 N   0  0  0  0  0  0  0  0  0  0  0  0
   18.4708  -12.6054  -16.0572 C   0  0  0  0  0  0  0  0  0  0  0  0
   19.5425  -12.9525  -15.4965 O   0  0  0  0  0  0  0  0  0  0  0  0
   21.2038   -9.7514  -18.3936 O   0  0  0  0  0  0  0  0  0  0  0  0
   19.9324  -10.3405  -18.3329 C   0  0  0  0  0  0  0  0  0  0  0  0
   19.6536  -10.6248  -16.8729 C   0  0  2  0  0  0  0  0  0  0  0  0
   18.4606  -11.3815  -16.7731 N   0  0  0  0  0  0  0  0  0  0  0  0
   19.5953   -9.3072  -16.1762 C   0  0  0  0  0  0  0  0  0  0  0  0
   18.5495   -8.6073  -16.1371 O   0  0  0  0  0  0  0  0  0  0  0  0
   22.6649   -4.8539  -13.7936 N   0  0  0  0  0  0  0  0  0  0  0  0
   21.9862   -6.0216  -13.3835 C   0  0  0  0  0  0  0  0  0  0  0  0
   21.3083   -5.9962  -12.3413 O   0  0  0  0  0  0  0  0  0  0  0  0
   22.0866   -7.2451  -14.1855 C   0  0  0  0  0  0  0  0  0  0  0  0
   20.8021   -7.4948  -14.8929 C   0  0  2  0  0  0  0  0  0  0  0  0
   20.7541   -8.8039  -15.5246 N   0  0  0  0  0  0  0  0  0  0  0  0
   20.4062   -6.4189  -15.8233 C   0  0  0  0  0  0  0  0  0  0  0  0
   19.6058   -5.5212  -15.4882 O   0  0  0  0  0  0  0  0  0  0  0  0
   20.9171   -6.3719  -17.1126 O   0  0  0  0  0  0  0  0  0  0  0  0
  2  1  1  6
  2  3  1  0
  4  6  1  0
  4  2  1  0
  4  5  1  1
  6 11  1  0
  7  6  2  0
 10  9  1  6
  9  8  1  0
 10 12  1  0
 11 10  1  0
 12 13  2  0
 12 19  1  0
 14 15  1  0
 15 16  2  0
 15 17  1  0
 18 17  1  6
 18 20  1  0
 19 18  1  0
 20 22  1  0
 21 20  2  0
M  END
$$$$
