TTT.pdb
     RDKit          3D

 22 21  0  0  1  0  0  0  0  0999 V2000
   10.5715  -14.3678   17.7561 C   0  0  0  0  0  0  0  0  0  0  0  0
   10.0692  -14.5228   19.1760 C   0  0  1  0  0  0  0  0  0  0  0  0
   10.8419  -13.7172   19.9959 O   0  0  0  0  0  0  0  0  0  0  0  0
    8.6119  -14.1648   19.1846 C   0  0  2  0  0  0  0  0  0  0  0  0
    8.4067  -12.8974   18.5572 N   0  0  0  0  0  0  0  0  0  0  0  0
    7.9726  -14.2975   20.5082 C   0  0  0  0  0  0  0  0  0  0  0  0
    7.6832  -13.2734   21.1452 O   0  0  0  0  0  0  0  0  0  0  0  0
    5.2309  -16.9501   21.6339 C   0  0  0  0  0  0  0  0  0  0  0  0
    6.3528  -16.9571   22.6463 C   0  0  1  0  0  0  0  0  0  0  0  0
    7.0705  -18.1084   22.5542 O   0  0  0  0  0  0  0  0  0  0  0  0
    7.1430  -15.6919   22.4549 C   0  0  2  0  0  0  0  0  0  0  0  0
    7.6628  -15.5542   21.1086 N   0  0  0  0  0  0  0  0  0  0  0  0
    8.1585  -15.4602   23.4875 C   0  0  0  0  0  0  0  0  0  0  0  0
    9.4026  -15.4528   23.2726 O   0  0  0  0  0  0  0  0  0  0  0  0
    9.1841  -13.3732   27.7946 C   0  0  0  0  0  0  0  0  0  0  0  0
    8.1396  -13.8223   26.7969 C   0  0  1  0  0  0  0  0  0  0  0  0
    7.6974  -12.7327   26.0552 O   0  0  0  0  0  0  0  0  0  0  0  0
    8.6584  -14.9205   25.8975 C   0  0  2  0  0  0  0  0  0  0  0  0
    7.7525  -15.2255   24.8255 N   0  0  0  0  0  0  0  0  0  0  0  0
    9.0959  -16.1064   26.6444 C   0  0  0  0  0  0  0  0  0  0  0  0
   10.2215  -16.0606   27.4360 O   0  0  0  0  0  0  0  0  0  0  0  0
    8.4471  -17.1683   26.5661 O   0  0  0  0  0  0  0  0  0  0  0  0
  2  3  1  0
  2  1  1  6
  4  6  1  0
  4  2  1  0
  4  5  1  1
  6  7  2  0
  6 12  1  0
  9  8  1  6
  9 10  1  0
  9 11  1  0
 11 13  1  0
 11 12  1  6
 13 14  2  0
 13 19  1  0
 16 15  1  1
 16 17  1  0
 18 16  1  0
 18 20  1  0
 18 19  1  6
 20 21  1  0
 22 20  2  0
M  END
$$$$
