TTT.pdb
     RDKit          3D

 22 21  0  0  1  0  0  0  0  0999 V2000
   13.0332  -18.2410   22.4134 C   0  0  0  0  0  0  0  0  0  0  0  0
   12.6525  -17.3815   21.2264 C   0  0  1  0  0  0  0  0  0  0  0  0
   13.3187  -17.8664   20.1132 O   0  0  0  0  0  0  0  0  0  0  0  0
   11.1581  -17.4223   21.0959 C   0  0  2  0  0  0  0  0  0  0  0  0
   10.7499  -16.8348   19.8589 N   0  0  0  0  0  0  0  0  0  0  0  0
   10.4415  -16.9065   22.2786 C   0  0  0  0  0  0  0  0  0  0  0  0
   10.3267  -15.6806   22.4288 O   0  0  0  0  0  0  0  0  0  0  0  0
    7.2198  -17.4266   25.9157 C   0  0  0  0  0  0  0  0  0  0  0  0
    7.9061  -18.0650   24.7303 C   0  0  1  0  0  0  0  0  0  0  0  0
    7.0325  -18.2184   23.6996 O   0  0  0  0  0  0  0  0  0  0  0  0
    9.1276  -17.2446   24.4189 C   0  0  2  0  0  0  0  0  0  0  0  0
    9.8638  -17.7475   23.2758 N   0  0  0  0  0  0  0  0  0  0  0  0
    9.9830  -16.9827   25.5811 C   0  0  0  0  0  0  0  0  0  0  0  0
   10.9795  -17.6874   25.9041 O   0  0  0  0  0  0  0  0  0  0  0  0
    8.7466  -13.8987   28.3633 C   0  0  0  0  0  0  0  0  0  0  0  0
   10.2098  -14.1113   28.0439 C   0  0  1  0  0  0  0  0  0  0  0  0
   10.9851  -13.7947   29.1537 O   0  0  0  0  0  0  0  0  0  0  0  0
   10.4819  -15.5212   27.5722 C   0  0  2  0  0  0  0  0  0  0  0  0
    9.7021  -15.8738   26.4188 N   0  0  0  0  0  0  0  0  0  0  0  0
   10.3971  -16.5083   28.6556 C   0  0  0  0  0  0  0  0  0  0  0  0
   11.4215  -16.6397   29.5662 O   0  0  0  0  0  0  0  0  0  0  0  0
    9.3912  -17.2379   28.7585 O   0  0  0  0  0  0  0  0  0  0  0  0
  2  3  1  0
  2  1  1  1
  4  6  1  0
  4  2  1  0
  4  5  1  6
  6  7  2  0
  6 12  1  0
  9  8  1  1
  9 10  1  0
  9 11  1  0
 11 13  1  0
 11 12  1  6
 13 14  2  0
 13 19  1  0
 16 15  1  1
 16 17  1  0
 18 16  1  0
 18 20  1  0
 18 19  1  6
 20 21  1  0
 22 20  2  0
M  END
$$$$
