TTT.pdb
     RDKit          3D

 22 21  0  0  1  0  0  0  0  0999 V2000
   10.4424  -18.9395   16.9806 C   0  0  0  0  0  0  0  0  0  0  0  0
    9.2691  -18.1925   16.3823 C   0  0  1  0  0  0  0  0  0  0  0  0
    8.1312  -18.5405   17.0909 O   0  0  0  0  0  0  0  0  0  0  0  0
    9.5863  -16.7268   16.4393 C   0  0  2  0  0  0  0  0  0  0  0  0
   10.6801  -16.4198   15.5725 N   0  0  0  0  0  0  0  0  0  0  0  0
    9.7323  -16.2008   17.8105 C   0  0  0  0  0  0  0  0  0  0  0  0
   10.8466  -16.2317   18.3544 O   0  0  0  0  0  0  0  0  0  0  0  0
    7.8167  -12.9445   19.1407 C   0  0  0  0  0  0  0  0  0  0  0  0
    7.7307  -14.0411   20.1769 C   0  0  1  0  0  0  0  0  0  0  0  0
    6.4693  -14.5461   20.2327 O   0  0  0  0  0  0  0  0  0  0  0  0
    8.8090  -15.0425   19.8666 C   0  0  2  0  0  0  0  0  0  0  0  0
    8.6504  -15.6500   18.5600 N   0  0  0  0  0  0  0  0  0  0  0  0
    9.0356  -16.0252   20.9316 C   0  0  0  0  0  0  0  0  0  0  0  0
    8.5984  -17.2095   20.9114 O   0  0  0  0  0  0  0  0  0  0  0  0
   11.2871  -16.9086   25.3172 C   0  0  0  0  0  0  0  0  0  0  0  0
   11.1263  -16.0355   24.0925 C   0  0  1  0  0  0  0  0  0  0  0  0
   12.3227  -15.9902   23.3859 O   0  0  0  0  0  0  0  0  0  0  0  0
    9.9905  -16.5061   23.2133 C   0  0  2  0  0  0  0  0  0  0  0  0
    9.7906  -15.6556   22.0733 N   0  0  0  0  0  0  0  0  0  0  0  0
    8.7585  -16.7658   23.9684 C   0  0  0  0  0  0  0  0  0  0  0  0
    8.6206  -17.9173   24.7105 O   0  0  0  0  0  0  0  0  0  0  0  0
    7.8242  -15.9405   23.9422 O   0  0  0  0  0  0  0  0  0  0  0  0
  2  3  1  0
  2  1  1  1
  4  6  1  0
  4  2  1  0
  4  5  1  6
  6  7  2  0
  6 12  1  0
  9  8  1  6
  9 10  1  0
  9 11  1  0
 11 13  1  0
 11 12  1  6
 13 14  2  0
 13 19  1  0
 16 15  1  1
 16 17  1  0
 18 16  1  0
 18 20  1  0
 18 19  1  6
 20 21  1  0
 22 20  2  0
M  END
$$$$
