TTT.pdb
     RDKit          3D

 22 21  0  0  1  0  0  0  0  0999 V2000
    9.3579  -18.1685   14.7805 C   0  0  0  0  0  0  0  0  0  0  0  0
    9.4032  -17.7335   16.2300 C   0  0  1  0  0  0  0  0  0  0  0  0
   10.1668  -18.6520   16.9310 O   0  0  0  0  0  0  0  0  0  0  0  0
    9.9566  -16.3391   16.2693 C   0  0  2  0  0  0  0  0  0  0  0  0
   11.1786  -16.2672   15.5321 N   0  0  0  0  0  0  0  0  0  0  0  0
   10.0320  -15.7651   17.6270 C   0  0  0  0  0  0  0  0  0  0  0  0
   11.1347  -15.6853   18.1891 O   0  0  0  0  0  0  0  0  0  0  0  0
    7.9129  -12.6885   19.1725 C   0  0  0  0  0  0  0  0  0  0  0  0
    7.8067  -13.9058   20.0618 C   0  0  1  0  0  0  0  0  0  0  0  0
    6.5688  -14.4601   19.9648 O   0  0  0  0  0  0  0  0  0  0  0  0
    8.9481  -14.8212   19.7140 C   0  0  2  0  0  0  0  0  0  0  0  0
    8.8936  -15.2890   18.3430 N   0  0  0  0  0  0  0  0  0  0  0  0
    9.1612  -15.9035   20.6806 C   0  0  0  0  0  0  0  0  0  0  0  0
    8.7087  -17.0747   20.5481 O   0  0  0  0  0  0  0  0  0  0  0  0
   12.1177  -17.5812   21.6164 C   0  0  0  0  0  0  0  0  0  0  0  0
   11.6230  -17.0406   22.9396 C   0  0  1  0  0  0  0  0  0  0  0  0
   12.4228  -15.9772   23.3427 O   0  0  0  0  0  0  0  0  0  0  0  0
   10.1687  -16.6347   22.8714 C   0  0  2  0  0  0  0  0  0  0  0  0
    9.9202  -15.6540   21.8518 N   0  0  0  0  0  0  0  0  0  0  0  0
    9.6214  -16.2627   24.1819 C   0  0  0  0  0  0  0  0  0  0  0  0
    9.5333  -17.1917   25.1943 O   0  0  0  0  0  0  0  0  0  0  0  0
    9.2308  -15.0965   24.3875 O   0  0  0  0  0  0  0  0  0  0  0  0
  2  3  1  0
  2  1  1  6
  4  6  1  0
  4  2  1  0
  4  5  1  1
  6  7  2  0
  6 12  1  0
  9  8  1  6
  9 10  1  0
  9 11  1  0
 11 13  1  0
 11 12  1  6
 13 14  2  0
 13 19  1  0
 16 15  1  6
 16 17  1  0
 18 16  1  0
 18 20  1  0
 18 19  1  6
 20 21  1  0
 22 20  2  0
M  END
$$$$
