TTT.pdb
     RDKit          3D

 22 21  0  0  1  0  0  0  0  0999 V2000
    7.9363  -19.2095   17.8579 C   0  0  0  0  0  0  0  0  0  0  0  0
    8.5547  -18.5674   16.6341 C   0  0  1  0  0  0  0  0  0  0  0  0
    8.0050  -19.1637   15.5114 O   0  0  0  0  0  0  0  0  0  0  0  0
    8.2974  -17.0912   16.7158 C   0  0  2  0  0  0  0  0  0  0  0  0
    8.5864  -16.4651   15.4642 N   0  0  0  0  0  0  0  0  0  0  0  0
    8.9274  -16.4392   17.8805 C   0  0  0  0  0  0  0  0  0  0  0  0
   10.1490  -16.2249   17.8657 O   0  0  0  0  0  0  0  0  0  0  0  0
    7.5451  -13.2921   19.7201 C   0  0  0  0  0  0  0  0  0  0  0  0
    7.8739  -14.3223   20.7757 C   0  0  1  0  0  0  0  0  0  0  0  0
    6.7346  -14.8401   21.3074 O   0  0  0  0  0  0  0  0  0  0  0  0
    8.8051  -15.3261   20.1537 C   0  0  2  0  0  0  0  0  0  0  0  0
    8.2034  -16.0345   19.0413 N   0  0  0  0  0  0  0  0  0  0  0  0
    9.4509  -16.2204   21.1204 C   0  0  0  0  0  0  0  0  0  0  0  0
    9.0848  -17.4075   21.3459 O   0  0  0  0  0  0  0  0  0  0  0  0
   13.5763  -17.0410   23.7616 C   0  0  0  0  0  0  0  0  0  0  0  0
   12.7598  -16.1112   22.8916 C   0  0  1  0  0  0  0  0  0  0  0  0
   13.3597  -15.9857   21.6437 O   0  0  0  0  0  0  0  0  0  0  0  0
   11.3272  -16.5757   22.7643 C   0  0  2  0  0  0  0  0  0  0  0  0
   10.5619  -15.7548   21.8680 N   0  0  0  0  0  0  0  0  0  0  0  0
   10.6783  -16.7772   24.0658 C   0  0  0  0  0  0  0  0  0  0  0  0
   10.8883  -17.9341   24.7823 O   0  0  0  0  0  0  0  0  0  0  0  0
    9.9290  -15.8969   24.5331 O   0  0  0  0  0  0  0  0  0  0  0  0
  2  3  1  0
  2  1  1  1
  4  6  1  0
  4  2  1  0
  4  5  1  6
  6  7  2  0
  6 12  1  0
  9  8  1  6
  9 10  1  0
  9 11  1  0
 11 13  1  0
 11 12  1  6
 13 14  2  0
 13 19  1  0
 16 15  1  1
 16 17  1  0
 18 16  1  0
 18 20  1  0
 18 19  1  6
 20 21  1  0
 22 20  2  0
M  END
$$$$
