TTT.pdb
     RDKit          3D

 22 21  0  0  1  0  0  0  0  0999 V2000
   10.4073  -12.9479   20.2965 C   0  0  0  0  0  0  0  0  0  0  0  0
    9.5321  -12.9543   19.0609 C   0  0  1  0  0  0  0  0  0  0  0  0
   10.3368  -12.7007   17.9626 O   0  0  0  0  0  0  0  0  0  0  0  0
    8.8383  -14.2836   19.0020 C   0  0  2  0  0  0  0  0  0  0  0  0
    8.1214  -14.4172   17.7730 N   0  0  0  0  0  0  0  0  0  0  0  0
    8.0430  -14.5956   20.2055 C   0  0  0  0  0  0  0  0  0  0  0  0
    6.9403  -14.0491   20.3599 O   0  0  0  0  0  0  0  0  0  0  0  0
    6.5193  -17.6236   21.4738 C   0  0  0  0  0  0  0  0  0  0  0  0
    7.3967  -17.2041   22.6306 C   0  0  1  0  0  0  0  0  0  0  0  0
    8.4658  -18.0366   22.7440 O   0  0  0  0  0  0  0  0  0  0  0  0
    7.7330  -15.7508   22.4396 C   0  0  2  0  0  0  0  0  0  0  0  0
    8.4741  -15.5029   21.2187 N   0  0  0  0  0  0  0  0  0  0  0  0
    8.3392  -15.1187   23.6161 C   0  0  0  0  0  0  0  0  0  0  0  0
    9.5536  -14.7826   23.6965 O   0  0  0  0  0  0  0  0  0  0  0  0
    6.8414  -12.0531   25.7610 C   0  0  0  0  0  0  0  0  0  0  0  0
    7.0296  -13.3061   26.5872 C   0  0  1  0  0  0  0  0  0  0  0  0
    5.8037  -13.9340   26.7765 O   0  0  0  0  0  0  0  0  0  0  0  0
    8.0333  -14.2461   25.9601 C   0  0  2  0  0  0  0  0  0  0  0  0
    7.5388  -14.8527   24.7558 N   0  0  0  0  0  0  0  0  0  0  0  0
    8.5783  -15.2157   26.9184 C   0  0  0  0  0  0  0  0  0  0  0  0
    9.1605  -14.7908   28.0915 O   0  0  0  0  0  0  0  0  0  0  0  0
    8.5169  -16.4370   26.6745 O   0  0  0  0  0  0  0  0  0  0  0  0
  2  3  1  0
  2  1  1  1
  4  6  1  0
  4  2  1  0
  4  5  1  6
  6  7  2  0
  6 12  1  0
  9  8  1  6
  9 10  1  0
  9 11  1  0
 11 13  1  0
 11 12  1  6
 13 14  2  0
 13 19  1  0
 16 15  1  6
 16 17  1  0
 18 16  1  0
 18 20  1  0
 18 19  1  6
 20 21  1  0
 22 20  2  0
M  END
$$$$
