TTT.pdb
     RDKit          3D

 22 21  0  0  1  0  0  0  0  0999 V2000
    6.4260  -19.8874   16.4148 C   0  0  0  0  0  0  0  0  0  0  0  0
    7.2735  -19.3179   17.5328 C   0  0  1  0  0  0  0  0  0  0  0  0
    8.2146  -20.2703   17.8870 O   0  0  0  0  0  0  0  0  0  0  0  0
    7.8752  -18.0348   17.0390 C   0  0  2  0  0  0  0  0  0  0  0  0
    8.6364  -18.2661   15.8520 N   0  0  0  0  0  0  0  0  0  0  0  0
    8.5911  -17.2720   18.0802 C   0  0  0  0  0  0  0  0  0  0  0  0
    9.8310  -17.2934   18.1003 O   0  0  0  0  0  0  0  0  0  0  0  0
    6.5363  -15.1750   21.2056 C   0  0  0  0  0  0  0  0  0  0  0  0
    7.8342  -14.6203   20.6656 C   0  0  1  0  0  0  0  0  0  0  0  0
    8.4642  -13.8745   21.6122 O   0  0  0  0  0  0  0  0  0  0  0  0
    8.6303  -15.7762   20.1254 C   0  0  2  0  0  0  0  0  0  0  0  0
    7.9310  -16.4989   19.0813 N   0  0  0  0  0  0  0  0  0  0  0  0
    9.1822  -16.6566   21.1605 C   0  0  0  0  0  0  0  0  0  0  0  0
    8.5941  -17.6781   21.6130 O   0  0  0  0  0  0  0  0  0  0  0  0
   13.3337  -18.1022   23.4600 C   0  0  0  0  0  0  0  0  0  0  0  0
   12.6375  -17.1222   22.5418 C   0  0  1  0  0  0  0  0  0  0  0  0
   13.0604  -17.3215   21.2325 O   0  0  0  0  0  0  0  0  0  0  0  0
   11.1334  -17.2226   22.6510 C   0  0  2  0  0  0  0  0  0  0  0  0
   10.4572  -16.3723   21.7115 N   0  0  0  0  0  0  0  0  0  0  0  0
   10.6527  -17.0645   24.0292 C   0  0  0  0  0  0  0  0  0  0  0  0
   10.6333  -18.1371   24.8924 O   0  0  0  0  0  0  0  0  0  0  0  0
   10.2570  -15.9517   24.4289 O   0  0  0  0  0  0  0  0  0  0  0  0
  2  3  1  0
  2  1  1  6
  4  6  1  0
  4  2  1  0
  4  5  1  6
  6  7  2  0
  6 12  1  0
  9  8  1  1
  9 10  1  0
  9 11  1  0
 11 13  1  0
 11 12  1  6
 13 14  2  0
 13 19  1  0
 16 15  1  1
 16 17  1  0
 18 16  1  0
 18 20  1  0
 18 19  1  6
 20 21  1  0
 22 20  2  0
M  END
$$$$
