TTT.pdb
     RDKit          3D

 22 21  0  0  1  0  0  0  0  0999 V2000
    8.8030  -12.2161   20.1302 C   0  0  0  0  0  0  0  0  0  0  0  0
    8.0482  -13.0037   19.0803 C   0  0  1  0  0  0  0  0  0  0  0  0
    8.4041  -12.5120   17.8354 O   0  0  0  0  0  0  0  0  0  0  0  0
    8.3841  -14.4539   19.2707 C   0  0  2  0  0  0  0  0  0  0  0  0
    7.8675  -15.2311   18.1885 N   0  0  0  0  0  0  0  0  0  0  0  0
    8.0432  -14.9746   20.6090 C   0  0  0  0  0  0  0  0  0  0  0  0
    6.8528  -15.1730   20.8953 O   0  0  0  0  0  0  0  0  0  0  0  0
    8.7642  -17.7493   24.4063 C   0  0  0  0  0  0  0  0  0  0  0  0
    9.2920  -17.2059   23.0986 C   0  0  1  0  0  0  0  0  0  0  0  0
    9.0679  -18.0901   22.0901 O   0  0  0  0  0  0  0  0  0  0  0  0
    8.6914  -15.8414   22.9003 C   0  0  2  0  0  0  0  0  0  0  0  0
    9.0172  -15.2680   21.6094 N   0  0  0  0  0  0  0  0  0  0  0  0
    8.9287  -14.9171   24.0141 C   0  0  0  0  0  0  0  0  0  0  0  0
   10.0100  -14.2930   24.2024 O   0  0  0  0  0  0  0  0  0  0  0  0
    6.4245  -12.0403   25.5009 C   0  0  0  0  0  0  0  0  0  0  0  0
    6.7608  -13.1396   26.4841 C   0  0  1  0  0  0  0  0  0  0  0  0
    5.7011  -14.0354   26.5696 O   0  0  0  0  0  0  0  0  0  0  0  0
    8.0452  -13.8467   26.1172 C   0  0  2  0  0  0  0  0  0  0  0  0
    7.8986  -14.6851   24.9602 N   0  0  0  0  0  0  0  0  0  0  0  0
    8.6607  -14.5339   27.2592 C   0  0  0  0  0  0  0  0  0  0  0  0
    8.8676  -15.8949   27.2302 O   0  0  0  0  0  0  0  0  0  0  0  0
    9.0021  -13.8857   28.2682 O   0  0  0  0  0  0  0  0  0  0  0  0
  2  3  1  0
  2  1  1  1
  4  6  1  0
  4  2  1  0
  4  5  1  6
  6  7  2  0
  6 12  1  0
  9  8  1  1
  9 10  1  0
  9 11  1  0
 11 13  1  0
 11 12  1  6
 13 14  2  0
 13 19  1  0
 16 15  1  6
 16 17  1  0
 18 16  1  0
 18 20  1  0
 18 19  1  6
 20 21  1  0
 22 20  2  0
M  END
$$$$
