TTT.pdb
     RDKit          3D

 22 21  0  0  1  0  0  0  0  0999 V2000
    8.5879  -12.4109   19.6749 C   0  0  0  0  0  0  0  0  0  0  0  0
    7.8814  -13.3363   18.7069 C   0  0  1  0  0  0  0  0  0  0  0  0
    7.4113  -12.5751   17.6497 O   0  0  0  0  0  0  0  0  0  0  0  0
    8.8605  -14.3960   18.2941 C   0  0  2  0  0  0  0  0  0  0  0  0
    8.3726  -15.1086   17.1555 N   0  0  0  0  0  0  0  0  0  0  0  0
    9.3087  -15.2593   19.4041 C   0  0  0  0  0  0  0  0  0  0  0  0
    8.6634  -16.2842   19.6715 O   0  0  0  0  0  0  0  0  0  0  0  0
   12.8024  -16.8065   22.4895 C   0  0  0  0  0  0  0  0  0  0  0  0
   12.4360  -15.8595   21.3702 C   0  0  1  0  0  0  0  0  0  0  0  0
   13.1071  -16.1837   20.2329 O   0  0  0  0  0  0  0  0  0  0  0  0
   10.9367  -15.8577   21.2516 C   0  0  2  0  0  0  0  0  0  0  0  0
   10.4588  -14.9805   20.2011 N   0  0  0  0  0  0  0  0  0  0  0  0
   10.2373  -15.6598   22.5256 C   0  0  0  0  0  0  0  0  0  0  0  0
   10.2986  -14.6033   23.2140 O   0  0  0  0  0  0  0  0  0  0  0  0
    6.8711  -17.3696   25.7506 C   0  0  0  0  0  0  0  0  0  0  0  0
    7.6038  -17.5563   24.4404 C   0  0  1  0  0  0  0  0  0  0  0  0
    6.7374  -17.3218   23.3787 O   0  0  0  0  0  0  0  0  0  0  0  0
    8.8276  -16.6739   24.3514 C   0  0  2  0  0  0  0  0  0  0  0  0
    9.4306  -16.7021   23.0481 N   0  0  0  0  0  0  0  0  0  0  0  0
    9.7828  -16.9171   25.4395 C   0  0  0  0  0  0  0  0  0  0  0  0
   10.7357  -17.9047   25.3283 O   0  0  0  0  0  0  0  0  0  0  0  0
    9.7368  -16.2268   26.4769 O   0  0  0  0  0  0  0  0  0  0  0  0
  2  3  1  0
  2  1  1  1
  4  6  1  0
  4  2  1  0
  4  5  1  6
  6  7  2  0
  6 12  1  0
  9  8  1  1
  9 10  1  0
  9 11  1  0
 11 13  1  0
 11 12  1  6
 13 14  2  0
 13 19  1  0
 16 15  1  1
 16 17  1  0
 18 16  1  0
 18 20  1  0
 18 19  1  6
 20 21  1  0
 22 20  2  0
M  END
$$$$
