TTT.pdb
     RDKit          3D

 22 21  0  0  1  0  0  0  0  0999 V2000
    7.4458  -19.5267   16.2308 C   0  0  0  0  0  0  0  0  0  0  0  0
    7.9118  -18.6336   17.3613 C   0  0  1  0  0  0  0  0  0  0  0  0
    8.6929  -19.3938   18.2158 O   0  0  0  0  0  0  0  0  0  0  0  0
    8.6434  -17.4734   16.7525 C   0  0  2  0  0  0  0  0  0  0  0  0
    9.6869  -17.9379   15.8937 N   0  0  0  0  0  0  0  0  0  0  0  0
    9.0717  -16.4570   17.7332 C   0  0  0  0  0  0  0  0  0  0  0  0
   10.2834  -16.2734   17.9236 O   0  0  0  0  0  0  0  0  0  0  0  0
    8.3268  -12.7109   20.7964 C   0  0  0  0  0  0  0  0  0  0  0  0
    7.7522  -13.5452   19.6749 C   0  0  1  0  0  0  0  0  0  0  0  0
    7.6870  -12.8198   18.5266 O   0  0  0  0  0  0  0  0  0  0  0  0
    8.5631  -14.8090   19.5898 C   0  0  2  0  0  0  0  0  0  0  0  0
    8.1599  -15.6602   18.4879 N   0  0  0  0  0  0  0  0  0  0  0  0
    8.6764  -15.5322   20.8608 C   0  0  0  0  0  0  0  0  0  0  0  0
    7.6965  -16.0130   21.4954 O   0  0  0  0  0  0  0  0  0  0  0  0
   11.8540  -17.5679   24.1469 C   0  0  0  0  0  0  0  0  0  0  0  0
   11.6443  -16.7062   22.9215 C   0  0  1  0  0  0  0  0  0  0  0  0
   12.2383  -17.3057   21.8167 O   0  0  0  0  0  0  0  0  0  0  0  0
   10.1789  -16.4327   22.6721 C   0  0  2  0  0  0  0  0  0  0  0  0
    9.9546  -15.7228   21.4438 N   0  0  0  0  0  0  0  0  0  0  0  0
    9.5111  -15.8210   23.8277 C   0  0  0  0  0  0  0  0  0  0  0  0
    9.0184  -16.6034   24.8479 O   0  0  0  0  0  0  0  0  0  0  0  0
    9.3855  -14.5822   23.8928 O   0  0  0  0  0  0  0  0  0  0  0  0
  2  3  1  0
  2  1  1  6
  4  6  1  0
  4  2  1  0
  4  5  1  1
  6  7  2  0
  6 12  1  0
  9  8  1  1
  9 10  1  0
  9 11  1  0
 11 13  1  0
 11 12  1  6
 13 14  2  0
 13 19  1  0
 16 15  1  1
 16 17  1  0
 18 16  1  0
 18 20  1  0
 18 19  1  6
 20 21  1  0
 22 20  2  0
M  END
$$$$
