TTT.pdb
     RDKit          3D

 22 21  0  0  1  0  0  0  0  0999 V2000
    6.9838  -18.2935   14.9545 C   0  0  0  0  0  0  0  0  0  0  0  0
    7.6673  -17.7858   16.2066 C   0  0  1  0  0  0  0  0  0  0  0  0
    8.6184  -18.7186   16.5856 O   0  0  0  0  0  0  0  0  0  0  0  0
    8.2427  -16.4353   15.8949 C   0  0  2  0  0  0  0  0  0  0  0  0
    9.0495  -16.4973   14.7171 N   0  0  0  0  0  0  0  0  0  0  0  0
    8.8988  -15.7860   17.0466 C   0  0  0  0  0  0  0  0  0  0  0  0
   10.1375  -15.7385   17.0888 O   0  0  0  0  0  0  0  0  0  0  0  0
    6.7454  -13.6318   20.1199 C   0  0  0  0  0  0  0  0  0  0  0  0
    8.1445  -13.2808   19.6690 C   0  0  1  0  0  0  0  0  0  0  0  0
    8.7877  -12.5619   20.6273 O   0  0  0  0  0  0  0  0  0  0  0  0
    8.8233  -14.5600   19.2631 C   0  0  2  0  0  0  0  0  0  0  0  0
    8.1815  -15.2004   18.1320 N   0  0  0  0  0  0  0  0  0  0  0  0
    9.0752  -15.4814   20.3761 C   0  0  0  0  0  0  0  0  0  0  0  0
    8.2813  -16.3942   20.7373 O   0  0  0  0  0  0  0  0  0  0  0  0
   12.5238  -17.2456   23.5163 C   0  0  0  0  0  0  0  0  0  0  0  0
   12.1316  -16.2190   22.4769 C   0  0  1  0  0  0  0  0  0  0  0  0
   12.8745  -16.4143   21.3181 O   0  0  0  0  0  0  0  0  0  0  0  0
   10.6487  -16.2525   22.1868 C   0  0  2  0  0  0  0  0  0  0  0  0
   10.2788  -15.3687   21.1168 N   0  0  0  0  0  0  0  0  0  0  0  0
    9.8305  -16.0792   23.3935 C   0  0  0  0  0  0  0  0  0  0  0  0
    9.6363  -17.1269   24.2654 O   0  0  0  0  0  0  0  0  0  0  0  0
    9.3034  -14.9758   23.6376 O   0  0  0  0  0  0  0  0  0  0  0  0
  2  3  1  0
  2  1  1  6
  4  6  1  0
  4  2  1  0
  4  5  1  6
  6  7  2  0
  6 12  1  0
  9  8  1  1
  9 10  1  0
  9 11  1  0
 11 13  1  0
 11 12  1  6
 13 14  2  0
 13 19  1  0
 16 15  1  1
 16 17  1  0
 18 16  1  0
 18 20  1  0
 18 19  1  6
 20 21  1  0
 22 20  2  0
M  END
$$$$
