TTT.pdb
     RDKit          3D

 22 21  0  0  1  0  0  0  0  0999 V2000
    1.1167  -28.6731   26.3140 C   0  0  0  0  0  0  0  0  0  0  0  0
    2.1315  -27.5499   26.3493 C   0  0  1  0  0  0  0  0  0  0  0  0
    3.3845  -28.0953   26.1244 O   0  0  0  0  0  0  0  0  0  0  0  0
    1.7246  -26.5369   25.3196 C   0  0  2  0  0  0  0  0  0  0  0  0
    2.8027  -25.6378   25.0524 N   0  0  0  0  0  0  0  0  0  0  0  0
    0.4388  -25.8734   25.6108 C   0  0  0  0  0  0  0  0  0  0  0  0
    0.4412  -24.7851   26.2059 O   0  0  0  0  0  0  0  0  0  0  0  0
   -4.3147  -25.1083   24.8284 C   0  0  0  0  0  0  0  0  0  0  0  0
   -2.9925  -25.6641   24.3523 C   0  0  1  0  0  0  0  0  0  0  0  0
   -2.5005  -24.9139   23.3304 O   0  0  0  0  0  0  0  0  0  0  0  0
   -2.0930  -25.7822   25.5518 C   0  0  2  0  0  0  0  0  0  0  0  0
   -0.8274  -26.4181   25.2427 N   0  0  0  0  0  0  0  0  0  0  0  0
   -2.7468  -26.3524   26.7344 C   0  0  0  0  0  0  0  0  0  0  0  0
   -3.0869  -27.5633   26.8447 O   0  0  0  0  0  0  0  0  0  0  0  0
   -1.4995  -26.1892   30.2788 C   0  0  0  0  0  0  0  0  0  0  0  0
   -2.8932  -25.6016   30.2907 C   0  0  1  0  0  0  0  0  0  0  0  0
   -2.8213  -24.2216   30.4434 O   0  0  0  0  0  0  0  0  0  0  0  0
   -3.6695  -25.9736   29.0483 C   0  0  2  0  0  0  0  0  0  0  0  0
   -3.0304  -25.5184   27.8453 N   0  0  0  0  0  0  0  0  0  0  0  0
   -5.0867  -25.5993   29.1315 C   0  0  0  0  0  0  0  0  0  0  0  0
   -5.5988  -24.6086   28.3240 O   0  0  0  0  0  0  0  0  0  0  0  0
   -5.8397  -26.1796   29.9384 O   0  0  0  0  0  0  0  0  0  0  0  0
  2  3  1  0
  2  1  1  6
  4  6  1  0
  4  2  1  0
  4  5  1  1
  6  7  2  0
  6 12  1  0
  9  8  1  1
  9 10  1  0
  9 11  1  0
 11 13  1  0
 11 12  1  6
 13 14  2  0
 13 19  1  0
 16 15  1  6
 16 17  1  0
 18 16  1  0
 18 20  1  0
 18 19  1  6
 20 21  1  0
 22 20  2  0
M  END
$$$$
