TTT.pdb
     RDKit          3D

 22 21  0  0  1  0  0  0  0  0999 V2000
    6.9750  -19.1863   15.5694 C   0  0  0  0  0  0  0  0  0  0  0  0
    7.5000  -18.5350   16.8315 C   0  0  1  0  0  0  0  0  0  0  0  0
    8.2427  -19.4766   17.5243 O   0  0  0  0  0  0  0  0  0  0  0  0
    8.2924  -17.3274   16.4243 C   0  0  2  0  0  0  0  0  0  0  0  0
    9.3225  -17.6945   15.5045 N   0  0  0  0  0  0  0  0  0  0  0  0
    8.7569  -16.5076   17.5604 C   0  0  0  0  0  0  0  0  0  0  0  0
    9.9210  -16.6419   17.9667 O   0  0  0  0  0  0  0  0  0  0  0  0
    8.3077  -12.6485   20.5662 C   0  0  0  0  0  0  0  0  0  0  0  0
    7.6506  -13.4452   19.4629 C   0  0  1  0  0  0  0  0  0  0  0  0
    7.5905  -12.7141   18.3180 O   0  0  0  0  0  0  0  0  0  0  0  0
    8.3845  -14.7532   19.3506 C   0  0  2  0  0  0  0  0  0  0  0  0
    7.9331  -15.5545   18.2301 N   0  0  0  0  0  0  0  0  0  0  0  0
    8.4520  -15.5095   20.6055 C   0  0  0  0  0  0  0  0  0  0  0  0
    7.4569  -16.0479   21.1658 O   0  0  0  0  0  0  0  0  0  0  0  0
   11.3412  -18.0797   21.0228 C   0  0  0  0  0  0  0  0  0  0  0  0
   11.2299  -17.2744   22.2985 C   0  0  1  0  0  0  0  0  0  0  0  0
   12.3048  -16.3983   22.3978 O   0  0  0  0  0  0  0  0  0  0  0  0
    9.9140  -16.5358   22.3827 C   0  0  2  0  0  0  0  0  0  0  0  0
    9.7000  -15.6665   21.2595 N   0  0  0  0  0  0  0  0  0  0  0  0
    9.7176  -15.8721   23.6774 C   0  0  0  0  0  0  0  0  0  0  0  0
    9.5636  -16.6121   24.8283 O   0  0  0  0  0  0  0  0  0  0  0  0
    9.6891  -14.6273   23.7433 O   0  0  0  0  0  0  0  0  0  0  0  0
  2  3  1  0
  2  1  1  6
  4  6  1  0
  4  2  1  0
  4  5  1  1
  6  7  2  0
  6 12  1  0
  9  8  1  1
  9 10  1  0
  9 11  1  0
 11 13  1  0
 11 12  1  6
 13 14  2  0
 13 19  1  0
 16 15  1  6
 16 17  1  0
 18 16  1  0
 18 20  1  0
 18 19  1  6
 20 21  1  0
 22 20  2  0
M  END
$$$$
