TTT.pdb
     RDKit          3D

 22 21  0  0  1  0  0  0  0  0999 V2000
    9.4929  -12.4586   20.0739 C   0  0  0  0  0  0  0  0  0  0  0  0
    8.6778  -12.9616   18.9013 C   0  0  1  0  0  0  0  0  0  0  0  0
    9.2649  -12.4940   17.7373 O   0  0  0  0  0  0  0  0  0  0  0  0
    8.6302  -14.4589   18.9893 C   0  0  2  0  0  0  0  0  0  0  0  0
    8.0152  -15.0072   17.8218 N   0  0  0  0  0  0  0  0  0  0  0  0
    8.0773  -14.9646   20.2609 C   0  0  0  0  0  0  0  0  0  0  0  0
    6.8487  -14.9576   20.4313 O   0  0  0  0  0  0  0  0  0  0  0  0
    8.0280  -17.8960   24.0507 C   0  0  0  0  0  0  0  0  0  0  0  0
    8.6731  -17.4564   22.7566 C   0  0  1  0  0  0  0  0  0  0  0  0
    8.3065  -18.2792   21.7380 O   0  0  0  0  0  0  0  0  0  0  0  0
    8.3428  -16.0028   22.5573 C   0  0  2  0  0  0  0  0  0  0  0  0
    8.8849  -15.4691   21.3234 N   0  0  0  0  0  0  0  0  0  0  0  0
    8.6321  -15.1597   23.7221 C   0  0  0  0  0  0  0  0  0  0  0  0
    9.7512  -14.6217   23.9503 O   0  0  0  0  0  0  0  0  0  0  0  0
    6.6890  -12.4519   27.4002 C   0  0  0  0  0  0  0  0  0  0  0  0
    6.4832  -13.4025   26.2418 C   0  0  1  0  0  0  0  0  0  0  0  0
    5.8985  -12.7273   25.1764 O   0  0  0  0  0  0  0  0  0  0  0  0
    7.7754  -14.0662   25.8244 C   0  0  2  0  0  0  0  0  0  0  0  0
    7.6116  -14.9111   24.6745 N   0  0  0  0  0  0  0  0  0  0  0  0
    8.4589  -14.7300   26.9413 C   0  0  0  0  0  0  0  0  0  0  0  0
    9.2837  -14.0169   27.7820 O   0  0  0  0  0  0  0  0  0  0  0  0
    8.2957  -15.9507   27.1366 O   0  0  0  0  0  0  0  0  0  0  0  0
  2  3  1  0
  2  1  1  1
  4  6  1  0
  4  2  1  0
  4  5  1  6
  6  7  2  0
  6 12  1  0
  9  8  1  1
  9 10  1  0
  9 11  1  0
 11 13  1  0
 11 12  1  6
 13 14  2  0
 13 19  1  0
 16 15  1  1
 16 17  1  0
 18 16  1  0
 18 20  1  0
 18 19  1  6
 20 21  1  0
 22 20  2  0
M  END
$$$$
