QDK.pdb
     RDKit          3D

 27 26  0  0  1  0  0  0  0  0999 V2000
   11.8855  -11.6598  -10.1207 N   0  0  0  0  0  0  0  0  0  0  0  0
   12.2731  -11.8306  -11.4765 C   0  0  0  0  0  0  0  0  0  0  0  0
   11.5817  -11.2551  -12.3743 O   0  0  0  0  0  0  0  0  0  0  0  0
   13.4629  -12.6675  -11.8119 C   0  0  0  0  0  0  0  0  0  0  0  0
   14.1891  -12.1215  -13.0188 C   0  0  0  0  0  0  0  0  0  0  0  0
   15.6709  -12.2505  -12.9165 C   0  0  2  0  0  0  0  0  0  0  0  0
   16.1178  -13.4878  -12.3599 N   0  0  0  0  0  0  0  0  0  0  0  0
   16.3229  -11.1088  -12.2629 C   0  0  0  0  0  0  0  0  0  0  0  0
   16.6768  -11.2152  -11.0680 O   0  0  0  0  0  0  0  0  0  0  0  0
   16.5723   -9.8701  -12.9421 N   0  0  0  0  0  0  0  0  0  0  0  0
   17.1894   -8.7439  -12.3100 C   0  0  1  0  0  0  0  0  0  0  0  0
   17.9101   -7.9134  -13.3441 C   0  0  0  0  0  0  0  0  0  0  0  0
   18.6234   -6.7655  -12.7422 C   0  0  0  0  0  0  0  0  0  0  0  0
   19.2982   -6.8148  -11.6863 O   0  0  0  0  0  0  0  0  0  0  0  0
   16.1885   -7.8847  -11.6234 C   0  0  0  0  0  0  0  0  0  0  0  0
   15.0910   -7.5686  -12.1787 O   0  0  0  0  0  0  0  0  0  0  0  0
   18.5319   -5.5468  -13.4050 O   0  0  0  0  0  0  0  0  0  0  0  0
   16.4427   -7.4088  -10.3476 N   0  0  0  0  0  0  0  0  0  0  0  0
   15.4044   -6.5219   -9.6284 C   0  0  1  0  0  0  0  0  0  0  0  0
   15.2177   -7.1327   -8.3037 C   0  0  0  0  0  0  0  0  0  0  0  0
   14.0923   -6.9221   -7.4128 C   0  0  0  0  0  0  0  0  0  0  0  0
   12.9089   -7.7843   -7.3762 C   0  0  0  0  0  0  0  0  0  0  0  0
   11.8017   -7.2576   -6.4672 C   0  0  0  0  0  0  0  0  0  0  0  0
   10.6372   -8.1094   -6.4562 N   0  0  0  0  0  0  0  0  0  0  0  0
   16.1537   -5.2093   -9.6137 C   0  0  0  0  0  0  0  0  0  0  0  0
   15.6498   -3.9710   -9.4844 O   0  0  0  0  0  0  0  0  0  0  0  0
   17.4530   -5.2353   -9.7371 O   0  0  0  0  0  0  0  0  0  0  0  0
  1  2  1  0
  2  4  1  0
  3  2  2  0
  4  5  1  0
  6  7  1  1
  6  5  1  0
  8  6  1  0
  8  9  2  0
 10 11  1  0
 10  8  1  0
 11 15  1  0
 11 12  1  6
 13 12  1  0
 13 17  1  0
 14 13  2  0
 15 18  1  0
 15 16  2  0
 18 19  1  0
 19 20  1  1
 20 21  1  0
 21 22  1  0
 22 23  1  0
 23 24  1  0
 25 26  1  0
 25 19  1  0
 27 25  2  0
M  END
$$$$
