QDK.pdb
     RDKit          3D

 27 26  0  0  1  0  0  0  0  0999 V2000
   17.3637  -13.2592  -14.7382 N   0  0  0  0  0  0  0  0  0  0  0  0
   18.3327  -13.7318  -15.6631 C   0  0  0  0  0  0  0  0  0  0  0  0
   18.3214  -14.9665  -15.9640 O   0  0  0  0  0  0  0  0  0  0  0  0
   19.3259  -12.7851  -16.2511 C   0  0  0  0  0  0  0  0  0  0  0  0
   19.1275  -11.3866  -15.7154 C   0  0  0  0  0  0  0  0  0  0  0  0
   20.0611  -10.3926  -16.3178 C   0  0  2  0  0  0  0  0  0  0  0  0
   21.4226  -10.8213  -16.3737 N   0  0  0  0  0  0  0  0  0  0  0  0
   19.9520   -9.0479  -15.7385 C   0  0  0  0  0  0  0  0  0  0  0  0
   18.8160   -8.5686  -15.5283 O   0  0  0  0  0  0  0  0  0  0  0  0
   21.1006   -8.2572  -15.4016 N   0  0  0  0  0  0  0  0  0  0  0  0
   21.0070   -6.9553  -14.8144 C   0  0  1  0  0  0  0  0  0  0  0  0
   22.3617   -6.5316  -14.3009 C   0  0  0  0  0  0  0  0  0  0  0  0
   22.3135   -5.2272  -13.6045 C   0  0  0  0  0  0  0  0  0  0  0  0
   22.0045   -5.0691  -12.3994 O   0  0  0  0  0  0  0  0  0  0  0  0
   20.5332   -5.9442  -15.7966 C   0  0  0  0  0  0  0  0  0  0  0  0
   21.0583   -5.8388  -16.9481 O   0  0  0  0  0  0  0  0  0  0  0  0
   22.6367   -4.0999  -14.3513 O   0  0  0  0  0  0  0  0  0  0  0  0
   19.4956   -5.0887  -15.4646 N   0  0  0  0  0  0  0  0  0  0  0  0
   19.0090   -4.0290  -16.4756 C   0  0  1  0  0  0  0  0  0  0  0  0
   17.6962   -4.5033  -16.9391 C   0  0  0  0  0  0  0  0  0  0  0  0
   16.8294   -3.8342  -17.8907 C   0  0  0  0  0  0  0  0  0  0  0  0
   15.5349   -4.3632  -18.3263 C   0  0  0  0  0  0  0  0  0  0  0  0
   14.8354   -3.4826  -19.3582 C   0  0  0  0  0  0  0  0  0  0  0  0
   13.5212   -3.9670  -19.7048 N   0  0  0  0  0  0  0  0  0  0  0  0
   18.9553   -2.8180  -15.5729 C   0  0  0  0  0  0  0  0  0  0  0  0
   18.8278   -1.5284  -15.9260 O   0  0  0  0  0  0  0  0  0  0  0  0
   19.0376   -3.0016  -14.2830 O   0  0  0  0  0  0  0  0  0  0  0  0
  1  2  1  0
  2  4  1  0
  3  2  2  0
  4  5  1  0
  6  7  1  1
  6  5  1  0
  8  6  1  0
  8  9  2  0
 10 11  1  0
 10  8  1  0
 11 15  1  0
 11 12  1  6
 13 12  1  0
 13 17  1  0
 14 13  2  0
 15 18  1  0
 15 16  2  0
 18 19  1  0
 19 20  1  1
 20 21  1  0
 21 22  1  0
 22 23  1  0
 23 24  1  0
 25 26  1  0
 25 19  1  0
 27 25  2  0
M  END
$$$$
