QDK.pdb
     RDKit          3D

 27 26  0  0  1  0  0  0  0  0999 V2000
   19.6028  -13.5584  -17.2207 N   0  0  0  0  0  0  0  0  0  0  0  0
   20.3126  -13.2562  -18.4134 C   0  0  0  0  0  0  0  0  0  0  0  0
   20.5651  -14.2074  -19.2175 O   0  0  0  0  0  0  0  0  0  0  0  0
   20.7393  -11.8530  -18.6917 C   0  0  0  0  0  0  0  0  0  0  0  0
   20.2476  -10.9118  -17.6172 C   0  0  0  0  0  0  0  0  0  0  0  0
   21.3230  -10.4875  -16.6758 C   0  0  2  0  0  0  0  0  0  0  0  0
   21.9188  -11.5577  -15.9407 N   0  0  0  0  0  0  0  0  0  0  0  0
   20.9337   -9.3857  -15.7868 C   0  0  0  0  0  0  0  0  0  0  0  0
   20.0910   -9.6007  -14.8879 O   0  0  0  0  0  0  0  0  0  0  0  0
   21.4832   -8.0661  -15.9073 N   0  0  0  0  0  0  0  0  0  0  0  0
   21.0787   -6.9733  -15.0763 C   0  0  1  0  0  0  0  0  0  0  0  0
   22.2792   -6.1252  -14.7331 C   0  0  0  0  0  0  0  0  0  0  0  0
   21.9556   -5.0691  -13.7487 C   0  0  0  0  0  0  0  0  0  0  0  0
   20.8181   -4.8690  -13.2602 O   0  0  0  0  0  0  0  0  0  0  0  0
   20.0685   -6.1162  -15.7518 C   0  0  0  0  0  0  0  0  0  0  0  0
   20.2317   -5.7096  -16.9439 O   0  0  0  0  0  0  0  0  0  0  0  0
   22.9977   -4.2434  -13.3423 O   0  0  0  0  0  0  0  0  0  0  0  0
   18.9161   -5.7425  -15.0801 N   0  0  0  0  0  0  0  0  0  0  0  0
   17.8457   -4.8874  -15.7906 C   0  0  1  0  0  0  0  0  0  0  0  0
   16.5879   -5.6362  -15.6481 C   0  0  0  0  0  0  0  0  0  0  0  0
   15.3936   -5.4684  -16.4543 C   0  0  0  0  0  0  0  0  0  0  0  0
   14.1667   -6.2458  -16.2655 C   0  0  0  0  0  0  0  0  0  0  0  0
   13.0594   -5.8814  -17.2507 C   0  0  0  0  0  0  0  0  0  0  0  0
   11.8605   -6.6598  -17.0545 N   0  0  0  0  0  0  0  0  0  0  0  0
   17.9250   -3.6302  -14.9553 C   0  0  0  0  0  0  0  0  0  0  0  0
   18.7744   -3.3567  -13.9515 O   0  0  0  0  0  0  0  0  0  0  0  0
   17.0843   -2.6638  -15.2075 O   0  0  0  0  0  0  0  0  0  0  0  0
  1  2  1  0
  2  4  1  0
  3  2  2  0
  4  5  1  0
  6  7  1  1
  6  5  1  0
  8  6  1  0
  8  9  2  0
 10 11  1  0
 10  8  1  0
 11 15  1  0
 11 12  1  6
 13 12  1  0
 13 17  1  0
 14 13  2  0
 15 18  1  0
 15 16  2  0
 18 19  1  0
 19 20  1  1
 20 21  1  0
 21 22  1  0
 22 23  1  0
 23 24  1  0
 25 26  1  0
 25 19  1  0
 27 25  2  0
M  END
$$$$
