QDK.pdb
     RDKit          3D

 27 26  0  0  1  0  0  0  0  0999 V2000
   26.2965  -19.9086  -14.2183 N   0  0  0  0  0  0  0  0  0  0  0  0
   27.3191  -19.4689  -13.3359 C   0  0  0  0  0  0  0  0  0  0  0  0
   28.0786  -18.5257  -13.7216 O   0  0  0  0  0  0  0  0  0  0  0  0
   27.4771  -20.1127  -11.9983 C   0  0  0  0  0  0  0  0  0  0  0  0
   26.4211  -21.1696  -11.7753 C   0  0  0  0  0  0  0  0  0  0  0  0
   25.1453  -20.6162  -11.2378 C   0  0  2  0  0  0  0  0  0  0  0  0
   24.9859  -20.7669   -9.8263 N   0  0  0  0  0  0  0  0  0  0  0  0
   23.9498  -21.0718  -11.9582 C   0  0  0  0  0  0  0  0  0  0  0  0
   23.5820  -22.2605  -11.8319 O   0  0  0  0  0  0  0  0  0  0  0  0
   23.1821  -20.2050  -12.8051 N   0  0  0  0  0  0  0  0  0  0  0  0
   22.0577  -20.6545  -13.5680 C   0  0  1  0  0  0  0  0  0  0  0  0
   20.9960  -19.5818  -13.5874 C   0  0  0  0  0  0  0  0  0  0  0  0
   20.0330  -19.7271  -12.4736 C   0  0  0  0  0  0  0  0  0  0  0  0
   19.9544  -20.7262  -11.7198 O   0  0  0  0  0  0  0  0  0  0  0  0
   22.4386  -20.9719  -14.9700 C   0  0  0  0  0  0  0  0  0  0  0  0
   23.1170  -20.1616  -15.6744 O   0  0  0  0  0  0  0  0  0  0  0  0
   19.1549  -18.6714  -12.2558 O   0  0  0  0  0  0  0  0  0  0  0  0
   22.0530  -22.1752  -15.5374 N   0  0  0  0  0  0  0  0  0  0  0  0
   22.6358  -22.6147  -16.8973 C   0  0  1  0  0  0  0  0  0  0  0  0
   22.7534  -24.0786  -16.8185 C   0  0  0  0  0  0  0  0  0  0  0  0
   23.7764  -24.8921  -17.4480 C   0  0  0  0  0  0  0  0  0  0  0  0
   25.0431  -25.2501  -16.8057 C   0  0  0  0  0  0  0  0  0  0  0  0
   25.9813  -26.0418  -17.7127 C   0  0  0  0  0  0  0  0  0  0  0  0
   27.2418  -26.3467  -17.0803 N   0  0  0  0  0  0  0  0  0  0  0  0
   21.5421  -22.1222  -17.8169 C   0  0  0  0  0  0  0  0  0  0  0  0
   21.6223  -21.8626  -19.1323 O   0  0  0  0  0  0  0  0  0  0  0  0
   20.3562  -21.9113  -17.3133 O   0  0  0  0  0  0  0  0  0  0  0  0
  1  2  1  0
  2  4  1  0
  3  2  2  0
  4  5  1  0
  6  7  1  1
  6  5  1  0
  8  6  1  0
  8  9  2  0
 10 11  1  0
 10  8  1  0
 11 15  1  0
 11 12  1  6
 13 12  1  0
 13 17  1  0
 14 13  2  0
 15 18  1  0
 15 16  2  0
 18 19  1  0
 19 20  1  1
 20 21  1  0
 21 22  1  0
 22 23  1  0
 23 24  1  0
 25 26  1  0
 25 19  1  0
 27 25  2  0
M  END
$$$$
