QDK.pdb
     RDKit          3D

 27 26  0  0  1  0  0  0  0  0999 V2000
   16.6917  -13.7656  -20.5535 N   0  0  0  0  0  0  0  0  0  0  0  0
   16.7497  -12.6921  -19.6250 C   0  0  0  0  0  0  0  0  0  0  0  0
   15.8788  -11.7714  -19.7187 O   0  0  0  0  0  0  0  0  0  0  0  0
   17.8135  -12.6690  -18.5780 C   0  0  0  0  0  0  0  0  0  0  0  0
   17.8031  -11.3617  -17.8210 C   0  0  0  0  0  0  0  0  0  0  0  0
   18.9573  -11.2178  -16.8883 C   0  0  2  0  0  0  0  0  0  0  0  0
   19.2115  -12.3699  -16.0830 N   0  0  0  0  0  0  0  0  0  0  0  0
   18.9123   -9.9989  -16.0709 C   0  0  0  0  0  0  0  0  0  0  0  0
   18.1273   -9.9496  -15.0984 O   0  0  0  0  0  0  0  0  0  0  0  0
   19.7362   -8.8565  -16.3430 N   0  0  0  0  0  0  0  0  0  0  0  0
   19.6959   -7.6604  -15.5580 C   0  0  1  0  0  0  0  0  0  0  0  0
   21.0772   -7.3502  -15.0346 C   0  0  0  0  0  0  0  0  0  0  0  0
   21.4968   -8.2891  -13.9710 C   0  0  0  0  0  0  0  0  0  0  0  0
   22.3340   -9.2111  -14.1184 O   0  0  0  0  0  0  0  0  0  0  0  0
   19.2169   -6.4989  -16.3537 C   0  0  0  0  0  0  0  0  0  0  0  0
   19.5341   -6.3532  -17.5748 O   0  0  0  0  0  0  0  0  0  0  0  0
   20.9132   -8.1279  -12.7196 O   0  0  0  0  0  0  0  0  0  0  0  0
   18.4047   -5.5435  -15.7652 N   0  0  0  0  0  0  0  0  0  0  0  0
   17.9395   -4.3145  -16.5746 C   0  0  1  0  0  0  0  0  0  0  0  0
   16.4773   -4.2748  -16.4211 C   0  0  0  0  0  0  0  0  0  0  0  0
   15.6086   -3.1648  -16.7641 C   0  0  0  0  0  0  0  0  0  0  0  0
   14.1580   -3.1720  -16.5615 C   0  0  0  0  0  0  0  0  0  0  0  0
   13.4751   -1.8850  -17.0165 C   0  0  0  0  0  0  0  0  0  0  0  0
   12.0371   -1.9528  -16.9192 N   0  0  0  0  0  0  0  0  0  0  0  0
   18.6777   -3.2239  -15.8331 C   0  0  0  0  0  0  0  0  0  0  0  0
   18.9866   -3.1752  -14.5269 O   0  0  0  0  0  0  0  0  0  0  0  0
   19.0857   -2.1825  -16.5064 O   0  0  0  0  0  0  0  0  0  0  0  0
  1  2  1  0
  2  4  1  0
  3  2  2  0
  4  5  1  0
  6  7  1  1
  6  5  1  0
  8  6  1  0
  8  9  2  0
 10 11  1  0
 10  8  1  0
 11 15  1  0
 11 12  1  6
 13 12  1  0
 13 17  1  0
 14 13  2  0
 15 18  1  0
 15 16  2  0
 18 19  1  0
 19 20  1  1
 20 21  1  0
 21 22  1  0
 22 23  1  0
 23 24  1  0
 25 26  1  0
 25 19  1  0
 27 25  2  0
M  END
$$$$
