QDK.pdb
     RDKit          3D

 27 26  0  0  1  0  0  0  0  0999 V2000
   24.2394  -35.6425  -10.5697 N   0  0  0  0  0  0  0  0  0  0  0  0
   24.7504  -34.7817  -11.5774 C   0  0  0  0  0  0  0  0  0  0  0  0
   24.2857  -34.8958  -12.7548 O   0  0  0  0  0  0  0  0  0  0  0  0
   25.8035  -33.7795  -11.2381 C   0  0  0  0  0  0  0  0  0  0  0  0
   26.1433  -33.8247   -9.7668 C   0  0  0  0  0  0  0  0  0  0  0  0
   25.2158  -33.0129   -8.9281 C   0  0  2  0  0  0  0  0  0  0  0  0
   25.2166  -31.6168   -9.2307 N   0  0  0  0  0  0  0  0  0  0  0  0
   25.3639  -33.2428   -7.4855 C   0  0  0  0  0  0  0  0  0  0  0  0
   26.5064  -33.1979   -6.9785 O   0  0  0  0  0  0  0  0  0  0  0  0
   24.2464  -33.5180   -6.6292 N   0  0  0  0  0  0  0  0  0  0  0  0
   24.3717  -33.6926   -5.2142 C   0  0  1  0  0  0  0  0  0  0  0  0
   23.0777  -33.3083   -4.5388 C   0  0  0  0  0  0  0  0  0  0  0  0
   23.2081  -33.2590   -3.0659 C   0  0  0  0  0  0  0  0  0  0  0  0
   24.2603  -33.5085   -2.4308 O   0  0  0  0  0  0  0  0  0  0  0  0
   24.6914  -35.1018   -4.8624 C   0  0  0  0  0  0  0  0  0  0  0  0
   24.0614  -36.0756   -5.3796 O   0  0  0  0  0  0  0  0  0  0  0  0
   22.0736  -32.9090   -2.3425 O   0  0  0  0  0  0  0  0  0  0  0  0
   25.6972  -35.3773   -3.9507 N   0  0  0  0  0  0  0  0  0  0  0  0
   26.0354  -36.8381   -3.5852 C   0  0  1  0  0  0  0  0  0  0  0  0
   27.3737  -37.0821   -4.1440 C   0  0  0  0  0  0  0  0  0  0  0  0
   28.0903  -38.3435   -4.1349 C   0  0  0  0  0  0  0  0  0  0  0  0
   29.4107  -38.5354   -4.7390 C   0  0  0  0  0  0  0  0  0  0  0  0
   29.8746  -39.9895   -4.7352 C   0  0  0  0  0  0  0  0  0  0  0  0
   31.0101  -40.2144   -5.5965 N   0  0  0  0  0  0  0  0  0  0  0  0
   25.9933  -36.7422   -2.0774 C   0  0  0  0  0  0  0  0  0  0  0  0
   25.9952  -35.6337   -1.3190 O   0  0  0  0  0  0  0  0  0  0  0  0
   25.9470  -37.8489   -1.3865 O   0  0  0  0  0  0  0  0  0  0  0  0
  1  2  1  0
  2  4  1  0
  3  2  2  0
  4  5  1  0
  6  7  1  1
  6  5  1  0
  8  6  1  0
  8  9  2  0
 10 11  1  0
 10  8  1  0
 11 15  1  0
 11 12  1  1
 13 12  1  0
 13 17  1  0
 14 13  2  0
 15 18  1  0
 15 16  2  0
 18 19  1  0
 19 20  1  1
 20 21  1  0
 21 22  1  0
 22 23  1  0
 23 24  1  0
 25 26  1  0
 25 19  1  0
 27 25  2  0
M  END
$$$$
