QDK.pdb
     RDKit          3D

 27 26  0  0  1  0  0  0  0  0999 V2000
   20.7511  -13.0027  -20.4543 N   0  0  0  0  0  0  0  0  0  0  0  0
   21.8624  -13.5109  -19.7300 C   0  0  0  0  0  0  0  0  0  0  0  0
   22.2811  -14.6764  -20.0155 O   0  0  0  0  0  0  0  0  0  0  0  0
   22.5029  -12.6801  -18.6680 C   0  0  0  0  0  0  0  0  0  0  0  0
   21.8408  -11.3263  -18.5632 C   0  0  0  0  0  0  0  0  0  0  0  0
   20.9958  -11.1824  -17.3434 C   0  0  2  0  0  0  0  0  0  0  0  0
   19.8984  -12.0943  -17.2756 N   0  0  0  0  0  0  0  0  0  0  0  0
   20.5578   -9.8053  -17.0831 C   0  0  0  0  0  0  0  0  0  0  0  0
   19.8764   -9.2121  -17.9480 O   0  0  0  0  0  0  0  0  0  0  0  0
   20.8808   -9.1090  -15.8712 N   0  0  0  0  0  0  0  0  0  0  0  0
   20.3601   -7.8145  -15.5524 C   0  0  1  0  0  0  0  0  0  0  0  0
   20.2469   -7.6678  -14.0544 C   0  0  0  0  0  0  0  0  0  0  0  0
   19.1436   -8.4789  -13.4943 C   0  0  0  0  0  0  0  0  0  0  0  0
   18.3093   -9.1215  -14.1753 O   0  0  0  0  0  0  0  0  0  0  0  0
   21.2344   -6.7293  -16.0717 C   0  0  0  0  0  0  0  0  0  0  0  0
   22.4946   -6.7594  -15.9171 O   0  0  0  0  0  0  0  0  0  0  0  0
   19.0333   -8.5249  -12.1092 O   0  0  0  0  0  0  0  0  0  0  0  0
   20.6782   -5.6525  -16.7425 N   0  0  0  0  0  0  0  0  0  0  0  0
   21.5875   -4.5770  -17.3736 C   0  0  1  0  0  0  0  0  0  0  0  0
   21.5217   -4.8103  -18.8242 C   0  0  0  0  0  0  0  0  0  0  0  0
   22.2533   -4.0829  -19.8441 C   0  0  0  0  0  0  0  0  0  0  0  0
   22.1900   -4.3972  -21.2732 C   0  0  0  0  0  0  0  0  0  0  0  0
   23.1269   -3.5445  -22.1245 C   0  0  0  0  0  0  0  0  0  0  0  0
   23.1493   -3.9529  -23.5082 N   0  0  0  0  0  0  0  0  0  0  0  0
   20.8731   -3.3297  -16.9060 C   0  0  0  0  0  0  0  0  0  0  0  0
   21.3595   -2.0806  -16.8221 O   0  0  0  0  0  0  0  0  0  0  0  0
   19.6273   -3.4326  -16.5295 O   0  0  0  0  0  0  0  0  0  0  0  0
  1  2  1  0
  2  4  1  0
  3  2  2  0
  4  5  1  0
  6  7  1  6
  6  5  1  0
  8  6  1  0
  8  9  2  0
 10 11  1  0
 10  8  1  0
 11 15  1  0
 11 12  1  1
 13 12  1  0
 13 17  1  0
 14 13  2  0
 15 18  1  0
 15 16  2  0
 18 19  1  0
 19 20  1  6
 20 21  1  0
 21 22  1  0
 22 23  1  0
 23 24  1  0
 25 26  1  0
 25 19  1  0
 27 25  2  0
M  END
$$$$
