QDK.pdb
     RDKit          3D

 27 26  0  0  1  0  0  0  0  0999 V2000
   16.9287  -10.4156  -19.2849 N   0  0  0  0  0  0  0  0  0  0  0  0
   17.6576  -11.6080  -19.0308 C   0  0  0  0  0  0  0  0  0  0  0  0
   17.4116  -12.6255  -19.7515 O   0  0  0  0  0  0  0  0  0  0  0  0
   18.6784  -11.6400  -17.9422 C   0  0  0  0  0  0  0  0  0  0  0  0
   18.6804  -10.3473  -17.1603 C   0  0  0  0  0  0  0  0  0  0  0  0
   19.6217  -10.3655  -16.0043 C   0  0  2  0  0  0  0  0  0  0  0  0
   19.4440  -11.4706  -15.1168 N   0  0  0  0  0  0  0  0  0  0  0  0
   19.6814   -9.0973  -15.2668 C   0  0  0  0  0  0  0  0  0  0  0  0
   18.8371   -8.8767  -14.3708 O   0  0  0  0  0  0  0  0  0  0  0  0
   20.6736   -8.0960  -15.5328 N   0  0  0  0  0  0  0  0  0  0  0  0
   20.6857   -6.8184  -14.8876 C   0  0  1  0  0  0  0  0  0  0  0  0
   22.1041   -6.4414  -14.5350 C   0  0  0  0  0  0  0  0  0  0  0  0
   22.1748   -5.1688  -13.7837 C   0  0  0  0  0  0  0  0  0  0  0  0
   21.5351   -4.9197  -12.7342 O   0  0  0  0  0  0  0  0  0  0  0  0
   20.1149   -5.7584  -15.7607 C   0  0  0  0  0  0  0  0  0  0  0  0
   20.4700   -5.6334  -16.9736 O   0  0  0  0  0  0  0  0  0  0  0  0
   23.0159   -4.1833  -14.2878 O   0  0  0  0  0  0  0  0  0  0  0  0
   19.1725   -4.8778  -15.2557 N   0  0  0  0  0  0  0  0  0  0  0  0
   18.5595   -3.7913  -16.1644 C   0  0  1  0  0  0  0  0  0  0  0  0
   17.1659   -3.6468  -15.7170 C   0  0  0  0  0  0  0  0  0  0  0  0
   16.2154   -2.6530  -16.1789 C   0  0  0  0  0  0  0  0  0  0  0  0
   14.8227   -2.5865  -15.7303 C   0  0  0  0  0  0  0  0  0  0  0  0
   14.0089   -1.5041  -16.4346 C   0  0  0  0  0  0  0  0  0  0  0  0
   12.6012   -1.5762  -16.1265 N   0  0  0  0  0  0  0  0  0  0  0  0
   19.4552   -2.6260  -15.8119 C   0  0  0  0  0  0  0  0  0  0  0  0
   20.0790   -2.3854  -14.6470 O   0  0  0  0  0  0  0  0  0  0  0  0
   19.6794   -1.7181  -16.7228 O   0  0  0  0  0  0  0  0  0  0  0  0
  1  2  1  0
  2  4  1  0
  3  2  2  0
  4  5  1  0
  6  7  1  1
  6  5  1  0
  8  6  1  0
  8  9  2  0
 10 11  1  0
 10  8  1  0
 11 15  1  0
 11 12  1  6
 13 12  1  0
 13 17  1  0
 14 13  2  0
 15 18  1  0
 15 16  2  0
 18 19  1  0
 19 20  1  1
 20 21  1  0
 21 22  1  0
 22 23  1  0
 23 24  1  0
 25 26  1  0
 25 19  1  0
 27 25  2  0
M  END
$$$$
