QDK.pdb
     RDKit          3D

 27 26  0  0  1  0  0  0  0  0999 V2000
   23.0594  -25.6795  -15.6406 N   0  0  0  0  0  0  0  0  0  0  0  0
   22.3156  -24.4698  -15.6069 C   0  0  0  0  0  0  0  0  0  0  0  0
   22.9560  -23.3747  -15.5315 O   0  0  0  0  0  0  0  0  0  0  0  0
   20.8243  -24.5101  -15.6600 C   0  0  0  0  0  0  0  0  0  0  0  0
   20.2187  -23.8394  -14.4493 C   0  0  0  0  0  0  0  0  0  0  0  0
   20.0025  -24.7762  -13.3098 C   0  0  2  0  0  0  0  0  0  0  0  0
   19.0042  -25.7705  -13.5455 N   0  0  0  0  0  0  0  0  0  0  0  0
   19.7889  -24.1052  -12.0214 C   0  0  0  0  0  0  0  0  0  0  0  0
   20.4132  -23.0494  -11.7768 O   0  0  0  0  0  0  0  0  0  0  0  0
   18.8888  -24.6134  -11.0267 N   0  0  0  0  0  0  0  0  0  0  0  0
   18.6677  -23.9651   -9.7700 C   0  0  1  0  0  0  0  0  0  0  0  0
   18.0163  -22.6229   -9.9990 C   0  0  0  0  0  0  0  0  0  0  0  0
   16.5996  -22.7504  -10.4061 C   0  0  0  0  0  0  0  0  0  0  0  0
   15.6216  -22.7015   -9.6227 O   0  0  0  0  0  0  0  0  0  0  0  0
   17.7902  -24.7744   -8.8830 C   0  0  0  0  0  0  0  0  0  0  0  0
   16.7360  -25.3319   -9.3198 O   0  0  0  0  0  0  0  0  0  0  0  0
   16.3458  -22.9379  -11.7601 O   0  0  0  0  0  0  0  0  0  0  0  0
   18.1149  -24.9345   -7.5460 N   0  0  0  0  0  0  0  0  0  0  0  0
   17.2372  -25.8177   -6.6341 C   0  0  1  0  0  0  0  0  0  0  0  0
   17.9902  -25.9539   -5.3781 C   0  0  0  0  0  0  0  0  0  0  0  0
   17.7056  -26.8869   -4.3042 C   0  0  0  0  0  0  0  0  0  0  0  0
   18.4889  -26.9722   -3.0695 C   0  0  0  0  0  0  0  0  0  0  0  0
   18.0242  -28.0828   -2.1313 C   0  0  0  0  0  0  0  0  0  0  0  0
   18.8766  -28.2297   -0.9765 N   0  0  0  0  0  0  0  0  0  0  0  0
   16.0076  -24.9442   -6.5365 C   0  0  0  0  0  0  0  0  0  0  0  0
   15.9490  -23.6044   -6.4620 O   0  0  0  0  0  0  0  0  0  0  0  0
   14.8365  -25.5209   -6.5214 O   0  0  0  0  0  0  0  0  0  0  0  0
  1  2  1  0
  2  4  1  0
  3  2  2  0
  4  5  1  0
  6  7  1  6
  6  5  1  0
  8  6  1  0
  8  9  2  0
 10 11  1  0
 10  8  1  0
 11 15  1  0
 11 12  1  6
 13 12  1  0
 13 17  1  0
 14 13  2  0
 15 18  1  0
 15 16  2  0
 18 19  1  0
 19 20  1  1
 20 21  1  0
 21 22  1  0
 22 23  1  0
 23 24  1  0
 25 26  1  0
 25 19  1  0
 27 25  2  0
M  END
$$$$
