QDK.pdb
     RDKit          3D

 27 26  0  0  1  0  0  0  0  0999 V2000
   21.4633  -15.1580  -18.1524 N   0  0  0  0  0  0  0  0  0  0  0  0
   22.5146  -15.4110  -19.0736 C   0  0  0  0  0  0  0  0  0  0  0  0
   22.3507  -16.3352  -19.9304 O   0  0  0  0  0  0  0  0  0  0  0  0
   23.7668  -14.6005  -19.0164 C   0  0  0  0  0  0  0  0  0  0  0  0
   23.6674  -13.5193  -17.9661 C   0  0  0  0  0  0  0  0  0  0  0  0
   23.1942  -12.2156  -18.5130 C   0  0  2  0  0  0  0  0  0  0  0  0
   23.9355  -11.7451  -19.6398 N   0  0  0  0  0  0  0  0  0  0  0  0
   23.0467  -11.1642  -17.4987 C   0  0  0  0  0  0  0  0  0  0  0  0
   22.5573  -11.4593  -16.3862 O   0  0  0  0  0  0  0  0  0  0  0  0
   23.4432   -9.8055  -17.7325 N   0  0  0  0  0  0  0  0  0  0  0  0
   23.2477   -8.7597  -16.7752 C   0  0  1  0  0  0  0  0  0  0  0  0
   24.1951   -7.6213  -17.0666 C   0  0  0  0  0  0  0  0  0  0  0  0
   25.6123   -8.0235  -16.9303 C   0  0  0  0  0  0  0  0  0  0  0  0
   26.5301   -7.6929  -17.7184 O   0  0  0  0  0  0  0  0  0  0  0  0
   21.8548   -8.2397  -16.8089 C   0  0  0  0  0  0  0  0  0  0  0  0
   21.2557   -8.0141  -17.9057 O   0  0  0  0  0  0  0  0  0  0  0  0
   25.9392   -8.8276  -15.8444 O   0  0  0  0  0  0  0  0  0  0  0  0
   21.1797   -7.9897  -15.6255 N   0  0  0  0  0  0  0  0  0  0  0  0
   19.7331   -7.4527  -15.6552 C   0  0  1  0  0  0  0  0  0  0  0  0
   18.8790   -8.6106  -15.3505 C   0  0  0  0  0  0  0  0  0  0  0  0
   17.4286   -8.6225  -15.3210 C   0  0  0  0  0  0  0  0  0  0  0  0
   16.6286   -9.8191  -15.0498 C   0  0  0  0  0  0  0  0  0  0  0  0
   15.1293   -9.6019  -15.2358 C   0  0  0  0  0  0  0  0  0  0  0  0
   14.3399  -10.6940  -14.7201 N   0  0  0  0  0  0  0  0  0  0  0  0
   19.8169   -6.4268  -14.5485 C   0  0  0  0  0  0  0  0  0  0  0  0
   18.9699   -5.4166  -14.2915 O   0  0  0  0  0  0  0  0  0  0  0  0
   20.8192   -6.4942  -13.7147 O   0  0  0  0  0  0  0  0  0  0  0  0
  1  2  1  0
  2  4  1  0
  3  2  2  0
  4  5  1  0
  6  7  1  6
  6  5  1  0
  8  6  1  0
  8  9  2  0
 10 11  1  0
 10  8  1  0
 11 15  1  0
 11 12  1  6
 13 12  1  0
 13 17  1  0
 14 13  2  0
 15 18  1  0
 15 16  2  0
 18 19  1  0
 19 20  1  1
 20 21  1  0
 21 22  1  0
 22 23  1  0
 23 24  1  0
 25 26  1  0
 25 19  1  0
 27 25  2  0
M  END
$$$$
