QDK.pdb
     RDKit          3D

 27 26  0  0  1  0  0  0  0  0999 V2000
   18.3748  -19.9626  -17.2293 N   0  0  0  0  0  0  0  0  0  0  0  0
   19.1674  -19.0467  -17.9713 C   0  0  0  0  0  0  0  0  0  0  0  0
   18.6459  -17.9370  -18.3054 O   0  0  0  0  0  0  0  0  0  0  0  0
   20.5708  -19.4011  -18.3364 C   0  0  0  0  0  0  0  0  0  0  0  0
   21.5108  -18.2503  -18.0639 C   0  0  0  0  0  0  0  0  0  0  0  0
   21.4543  -17.1898  -19.1102 C   0  0  2  0  0  0  0  0  0  0  0  0
   21.9921  -17.5802  -20.3747 N   0  0  0  0  0  0  0  0  0  0  0  0
   22.0018  -15.8981  -18.6772 C   0  0  0  0  0  0  0  0  0  0  0  0
   23.1858  -15.8446  -18.2778 O   0  0  0  0  0  0  0  0  0  0  0  0
   21.2305  -14.6886  -18.6936 N   0  0  0  0  0  0  0  0  0  0  0  0
   21.7750  -13.4110  -18.3477 C   0  0  1  0  0  0  0  0  0  0  0  0
   22.8328  -13.0215  -19.3516 C   0  0  0  0  0  0  0  0  0  0  0  0
   23.4543  -11.7174  -19.0324 C   0  0  0  0  0  0  0  0  0  0  0  0
   23.2504  -11.0644  -17.9813 O   0  0  0  0  0  0  0  0  0  0  0  0
   20.7269  -12.3561  -18.3278 C   0  0  0  0  0  0  0  0  0  0  0  0
   20.0883  -12.0334  -19.3771 O   0  0  0  0  0  0  0  0  0  0  0  0
   24.3274  -11.1860  -19.9748 O   0  0  0  0  0  0  0  0  0  0  0  0
   20.4270  -11.6995  -17.1456 N   0  0  0  0  0  0  0  0  0  0  0  0
   19.3046  -10.6408  -17.1085 C   0  0  1  0  0  0  0  0  0  0  0  0
   18.2351  -11.2322  -16.2903 C   0  0  0  0  0  0  0  0  0  0  0  0
   16.9989  -10.5837  -15.8954 C   0  0  0  0  0  0  0  0  0  0  0  0
   15.9305  -11.2514  -15.1484 C   0  0  0  0  0  0  0  0  0  0  0  0
   14.7607  -10.3317  -14.8090 C   0  0  0  0  0  0  0  0  0  0  0  0
   13.6026  -11.0530  -14.3398 N   0  0  0  0  0  0  0  0  0  0  0  0
   20.0459   -9.5034  -16.4444 C   0  0  0  0  0  0  0  0  0  0  0  0
   19.7282   -8.1984  -16.4430 O   0  0  0  0  0  0  0  0  0  0  0  0
   21.1340   -9.7777  -15.7771 O   0  0  0  0  0  0  0  0  0  0  0  0
  1  2  1  0
  2  4  1  0
  3  2  2  0
  4  5  1  0
  6  7  1  6
  6  5  1  0
  8  6  1  0
  8  9  2  0
 10 11  1  0
 10  8  1  0
 11 15  1  0
 11 12  1  6
 13 12  1  0
 13 17  1  0
 14 13  2  0
 15 18  1  0
 15 16  2  0
 18 19  1  0
 19 20  1  1
 20 21  1  0
 21 22  1  0
 22 23  1  0
 23 24  1  0
 25 26  1  0
 25 19  1  0
 27 25  2  0
M  END
$$$$
