QDK.pdb
     RDKit          3D

 27 26  0  0  1  0  0  0  0  0999 V2000
   15.5111  -12.0750  -14.6978 N   0  0  0  0  0  0  0  0  0  0  0  0
   15.4398  -12.3682  -16.0859 C   0  0  0  0  0  0  0  0  0  0  0  0
   14.8051  -13.4085  -16.4466 O   0  0  0  0  0  0  0  0  0  0  0  0
   16.1001  -11.4643  -17.0735 C   0  0  0  0  0  0  0  0  0  0  0  0
   16.6679  -10.2397  -16.3952 C   0  0  0  0  0  0  0  0  0  0  0  0
   18.0383  -10.4570  -15.8497 C   0  0  2  0  0  0  0  0  0  0  0  0
   18.0876  -11.3027  -14.6995 N   0  0  0  0  0  0  0  0  0  0  0  0
   18.7934   -9.2173  -15.6291 C   0  0  0  0  0  0  0  0  0  0  0  0
   18.4718   -8.4727  -14.6770 O   0  0  0  0  0  0  0  0  0  0  0  0
   19.8907   -8.8230  -16.4649 N   0  0  0  0  0  0  0  0  0  0  0  0
   20.6767   -7.6521  -16.2204 C   0  0  1  0  0  0  0  0  0  0  0  0
   22.1412   -7.9820  -16.3777 C   0  0  0  0  0  0  0  0  0  0  0  0
   22.6383   -8.8546  -15.2912 C   0  0  0  0  0  0  0  0  0  0  0  0
   22.0496   -9.0475  -14.2009 O   0  0  0  0  0  0  0  0  0  0  0  0
   20.3325   -6.5547  -17.1632 C   0  0  0  0  0  0  0  0  0  0  0  0
   20.2777   -6.7482  -18.4172 O   0  0  0  0  0  0  0  0  0  0  0  0
   23.8488   -9.5038  -15.5061 O   0  0  0  0  0  0  0  0  0  0  0  0
   20.0623   -5.2851  -16.6797 N   0  0  0  0  0  0  0  0  0  0  0  0
   19.5473   -4.1849  -17.6318 C   0  0  1  0  0  0  0  0  0  0  0  0
   18.1206   -4.0262  -17.3119 C   0  0  0  0  0  0  0  0  0  0  0  0
   17.2752   -2.9103  -17.6922 C   0  0  0  0  0  0  0  0  0  0  0  0
   15.8637   -2.7927  -17.3192 C   0  0  0  0  0  0  0  0  0  0  0  0
   15.2017   -1.5204  -17.8412 C   0  0  0  0  0  0  0  0  0  0  0  0
   13.8462   -1.3646  -17.3720 N   0  0  0  0  0  0  0  0  0  0  0  0
   20.4209   -3.0332  -17.1901 C   0  0  0  0  0  0  0  0  0  0  0  0
   20.6718   -1.8875  -17.8445 O   0  0  0  0  0  0  0  0  0  0  0  0
   21.0240   -3.1193  -16.0355 O   0  0  0  0  0  0  0  0  0  0  0  0
  1  2  1  0
  2  4  1  0
  3  2  2  0
  4  5  1  0
  6  7  1  1
  6  5  1  0
  8  6  1  0
  8  9  2  0
 10 11  1  0
 10  8  1  0
 11 15  1  0
 11 12  1  6
 13 12  1  0
 13 17  1  0
 14 13  2  0
 15 18  1  0
 15 16  2  0
 18 19  1  0
 19 20  1  1
 20 21  1  0
 21 22  1  0
 22 23  1  0
 23 24  1  0
 25 26  1  0
 25 19  1  0
 27 25  2  0
M  END
$$$$
