VRY.pdb
     RDKit          3D

 31 31  0  0  1  0  0  0  0  0999 V2000
   26.5121  -19.9700  -20.8377 C   0  0  0  0  0  0  0  0  0  0  0  0
   26.1443  -20.5371  -19.4876 C   0  0  1  0  0  0  0  0  0  0  0  0
   25.2042  -21.7030  -19.6747 C   0  0  0  0  0  0  0  0  0  0  0  0
   27.3788  -21.0176  -18.7386 C   0  0  2  0  0  0  0  0  0  0  0  0
   28.0137  -22.1229  -19.4217 N   0  0  0  0  0  0  0  0  0  0  0  0
   26.9943  -21.4792  -17.3821 C   0  0  0  0  0  0  0  0  0  0  0  0
   26.7210  -22.6735  -17.1133 O   0  0  0  0  0  0  0  0  0  0  0  0
   28.7288  -21.2450   -8.2539 N   0  0  0  0  0  0  0  0  0  0  0  0
   28.9316  -21.3394   -9.6411 C   0  0  0  0  0  0  0  0  0  0  0  0
   29.9474  -21.9173  -10.1778 N   0  0  0  0  0  0  0  0  0  0  0  0
   27.9388  -20.7525  -10.5118 N   0  0  0  0  0  0  0  0  0  0  0  0
   28.2047  -20.7101  -11.9215 C   0  0  0  0  0  0  0  0  0  0  0  0
   26.9999  -20.0536  -12.6109 C   0  0  0  0  0  0  0  0  0  0  0  0
   27.3170  -19.9329  -14.0520 C   0  0  0  0  0  0  0  0  0  0  0  0
   26.5627  -20.8906  -14.9662 C   0  0  2  0  0  0  0  0  0  0  0  0
   26.9340  -20.5300  -16.3491 N   0  0  0  0  0  0  0  0  0  0  0  0
   25.1135  -20.7738  -14.7781 C   0  0  0  0  0  0  0  0  0  0  0  0
   24.4799  -19.7066  -15.1167 O   0  0  0  0  0  0  0  0  0  0  0  0
   30.0457  -21.8971  -11.2125 O   0  0  0  0  0  0  0  0  0  0  0  0
   16.8278  -22.7972  -12.1621 C   0  0  0  0  0  0  0  0  0  0  0  0
   18.1762  -22.7830  -12.4834 C   0  0  0  0  0  0  0  0  0  0  0  0
   18.8544  -21.6401  -12.8566 C   0  0  0  0  0  0  0  0  0  0  0  0
   20.2037  -21.6704  -13.1698 C   0  0  0  0  0  0  0  0  0  0  0  0
   20.8974  -22.8483  -13.1144 C   0  0  0  0  0  0  0  0  0  0  0  0
   22.3250  -22.8625  -13.4541 C   0  0  2  0  0  0  0  0  0  0  0  0
   22.8563  -21.5314  -13.9383 N   0  0  0  0  0  0  0  0  0  0  0  0
   24.2694  -21.7764  -14.2314 C   0  0  0  0  0  0  0  0  0  0  0  0
   22.6674  -20.5270  -12.8850 O   0  0  0  0  0  0  0  0  0  0  0  0
   21.6744  -19.5697  -12.8933 C   0  0  0  0  0  0  0  0  0  0  0  0
   20.2291  -24.0092  -12.7400 C   0  0  0  0  0  0  0  0  0  0  0  0
   18.8895  -23.9655  -12.4316 O   0  0  0  0  0  0  0  0  0  0  0  0
  2  1  1  6
  2  3  1  0
  4  2  1  0
  4  5  1  6
  6  4  1  0
  7  6  2  0
  9 11  1  0
  9  8  1  0
 10  9  2  0
 12 13  1  0
 12 11  1  0
 13 14  1  0
 15 14  1  1
 15 16  1  0
 16  6  1  0
 17 15  1  0
 17 18  2  0
 20 19  1  0
 21 20  2  0
 22 21  1  0
 23 29  1  0
 23 22  2  0
 24 23  1  0
 25 24  1  6
 25 26  1  0
 26 17  1  0
 27 25  1  0
 28 27  1  0
 29 30  2  0
 30 20  1  0
 31 27  2  0
M  END
$$$$
