VRY.pdb
     RDKit          3D

 31 31  0  0  1  0  0  0  0  0999 V2000
   28.1331  -14.6919  -16.1271 C   0  0  0  0  0  0  0  0  0  0  0  0
   27.6440  -16.1182  -16.2046 C   0  0  1  0  0  0  0  0  0  0  0  0
   26.2559  -16.2029  -15.6179 C   0  0  0  0  0  0  0  0  0  0  0  0
   27.5982  -16.6060  -17.6454 C   0  0  2  0  0  0  0  0  0  0  0  0
   26.8055  -15.7263  -18.4755 N   0  0  0  0  0  0  0  0  0  0  0  0
   26.9876  -17.9571  -17.6983 C   0  0  0  0  0  0  0  0  0  0  0  0
   25.7505  -18.1508  -17.7728 O   0  0  0  0  0  0  0  0  0  0  0  0
   28.9269  -25.2237  -16.4796 N   0  0  0  0  0  0  0  0  0  0  0  0
   30.1521  -24.5390  -16.5465 C   0  0  0  0  0  0  0  0  0  0  0  0
   31.0986  -24.6808  -15.6875 N   0  0  0  0  0  0  0  0  0  0  0  0
   30.3568  -23.6235  -17.6457 N   0  0  0  0  0  0  0  0  0  0  0  0
   29.3512  -23.5448  -18.6665 C   0  0  0  0  0  0  0  0  0  0  0  0
   28.1379  -22.8088  -18.0800 C   0  0  0  0  0  0  0  0  0  0  0  0
   28.4548  -21.3627  -18.0612 C   0  0  0  0  0  0  0  0  0  0  0  0
   27.3255  -20.4556  -17.5882 C   0  0  2  0  0  0  0  0  0  0  0  0
   27.8389  -19.0732  -17.6631 N   0  0  0  0  0  0  0  0  0  0  0  0
   26.9239  -20.7791  -16.2158 C   0  0  0  0  0  0  0  0  0  0  0  0
   27.7114  -20.5649  -15.2214 O   0  0  0  0  0  0  0  0  0  0  0  0
   31.9554  -24.1006  -15.7866 O   0  0  0  0  0  0  0  0  0  0  0  0
   24.4970  -20.9876   -8.1340 C   0  0  0  0  0  0  0  0  0  0  0  0
   24.7966  -20.8614   -9.4816 C   0  0  0  0  0  0  0  0  0  0  0  0
   26.0758  -20.9756   -9.9875 C   0  0  0  0  0  0  0  0  0  0  0  0
   26.3315  -20.8424  -11.3427 C   0  0  0  0  0  0  0  0  0  0  0  0
   25.3080  -20.5921  -12.2153 C   0  0  0  0  0  0  0  0  0  0  0  0
   25.5979  -20.4493  -13.6468 C   0  0  1  0  0  0  0  0  0  0  0  0
   25.3832  -21.7145  -14.4480 N   0  0  0  0  0  0  0  0  0  0  0  0
   25.6754  -21.3359  -15.8314 C   0  0  0  0  0  0  0  0  0  0  0  0
   23.9984  -22.1666  -14.2701 O   0  0  0  0  0  0  0  0  0  0  0  0
   23.5958  -23.0825  -13.3205 C   0  0  0  0  0  0  0  0  0  0  0  0
   24.0129  -20.4743  -11.7220 C   0  0  0  0  0  0  0  0  0  0  0  0
   23.7727  -20.6087  -10.3746 O   0  0  0  0  0  0  0  0  0  0  0  0
  2  1  1  6
  2  3  1  0
  4  2  1  0
  4  5  1  6
  6  4  1  0
  7  6  2  0
  9 11  1  0
  9  8  1  0
 10  9  2  0
 12 13  1  0
 12 11  1  0
 13 14  1  0
 15 14  1  1
 15 16  1  0
 16  6  1  0
 17 15  1  0
 17 18  2  0
 20 19  1  0
 21 20  2  0
 22 21  1  0
 23 29  1  0
 23 22  2  0
 24 23  1  0
 25 24  1  1
 25 26  1  0
 26 17  1  0
 27 25  1  0
 28 27  1  0
 29 30  2  0
 30 20  1  0
 31 27  2  0
M  END
$$$$
