VRY.pdb
     RDKit          3D

 31 31  0  0  1  0  0  0  0  0999 V2000
   23.4130  -20.0770  -14.8991 C   0  0  0  0  0  0  0  0  0  0  0  0
   23.4442  -21.2850  -15.8043 C   0  0  1  0  0  0  0  0  0  0  0  0
   22.8224  -20.9298  -17.1330 C   0  0  0  0  0  0  0  0  0  0  0  0
   24.8713  -21.7573  -16.0412 C   0  0  2  0  0  0  0  0  0  0  0  0
   24.9081  -22.9067  -16.9182 N   0  0  0  0  0  0  0  0  0  0  0  0
   25.4912  -22.1472  -14.7510 C   0  0  0  0  0  0  0  0  0  0  0  0
   25.1914  -23.1966  -14.1326 O   0  0  0  0  0  0  0  0  0  0  0  0
   31.9243  -22.1632  -10.3034 N   0  0  0  0  0  0  0  0  0  0  0  0
   32.1599  -22.2906  -11.6827 C   0  0  0  0  0  0  0  0  0  0  0  0
   32.9048  -23.2023  -12.2000 N   0  0  0  0  0  0  0  0  0  0  0  0
   31.5263  -21.3404  -12.5682 N   0  0  0  0  0  0  0  0  0  0  0  0
   30.6549  -20.3518  -12.0001 C   0  0  0  0  0  0  0  0  0  0  0  0
   29.2975  -21.0169  -11.7293 C   0  0  0  0  0  0  0  0  0  0  0  0
   28.5005  -20.9357  -12.9744 C   0  0  0  0  0  0  0  0  0  0  0  0
   27.1265  -21.5915  -12.9108 C   0  0  2  0  0  0  0  0  0  0  0  0
   26.4619  -21.2976  -14.1962 N   0  0  0  0  0  0  0  0  0  0  0  0
   26.3373  -21.0636  -11.7938 C   0  0  0  0  0  0  0  0  0  0  0  0
   25.7950  -19.8983  -11.8510 O   0  0  0  0  0  0  0  0  0  0  0  0
   33.0143  -23.2325  -13.2333 O   0  0  0  0  0  0  0  0  0  0  0  0
   29.3044  -18.2790   -5.3921 C   0  0  0  0  0  0  0  0  0  0  0  0
   28.4814  -19.1411   -6.1000 C   0  0  0  0  0  0  0  0  0  0  0  0
   28.9571  -20.0843   -6.9886 C   0  0  0  0  0  0  0  0  0  0  0  0
   28.0988  -20.9270   -7.6761 C   0  0  0  0  0  0  0  0  0  0  0  0
   26.7470  -20.8388   -7.4845 C   0  0  0  0  0  0  0  0  0  0  0  0
   25.8525  -21.7364   -8.2247 C   0  0  1  0  0  0  0  0  0  0  0  0
   25.2932  -21.1376   -9.4963 N   0  0  0  0  0  0  0  0  0  0  0  0
   26.0806  -21.7412  -10.5725 C   0  0  0  0  0  0  0  0  0  0  0  0
   25.4390  -19.6781   -9.4446 O   0  0  0  0  0  0  0  0  0  0  0  0
   26.5710  -18.9958   -9.8392 C   0  0  0  0  0  0  0  0  0  0  0  0
   26.2511  -19.8940   -6.5924 C   0  0  0  0  0  0  0  0  0  0  0  0
   27.1140  -19.0634   -5.9163 O   0  0  0  0  0  0  0  0  0  0  0  0
  2  1  1  1
  2  3  1  0
  4  2  1  0
  4  5  1  6
  6  4  1  0
  7  6  2  0
  9 11  1  0
  9  8  1  0
 10  9  2  0
 12 13  1  0
 12 11  1  0
 13 14  1  0
 15 14  1  6
 15 16  1  0
 16  6  1  0
 17 15  1  0
 17 18  2  0
 20 19  1  0
 21 20  2  0
 22 21  1  0
 23 29  1  0
 23 22  2  0
 24 23  1  0
 25 24  1  6
 25 26  1  0
 26 17  1  0
 27 25  1  0
 28 27  1  0
 29 30  2  0
 30 20  1  0
 31 27  2  0
M  END
$$$$
