VRY.pdb
     RDKit          3D

 31 31  0  0  1  0  0  0  0  0999 V2000
   19.0118  -16.1770  -19.8468 C   0  0  0  0  0  0  0  0  0  0  0  0
   18.7366  -14.6969  -19.7319 C   0  0  1  0  0  0  0  0  0  0  0  0
   17.2681  -14.4817  -19.4571 C   0  0  0  0  0  0  0  0  0  0  0  0
   19.5434  -14.0740  -18.6019 C   0  0  2  0  0  0  0  0  0  0  0  0
   19.2161  -14.6732  -17.3270 N   0  0  0  0  0  0  0  0  0  0  0  0
   19.2466  -12.6231  -18.5143 C   0  0  0  0  0  0  0  0  0  0  0  0
   19.5033  -11.8113  -19.4354 O   0  0  0  0  0  0  0  0  0  0  0  0
   11.9076   -9.4798  -15.8756 N   0  0  0  0  0  0  0  0  0  0  0  0
   12.6349   -8.2778  -15.8539 C   0  0  0  0  0  0  0  0  0  0  0  0
   12.1151   -7.1319  -15.5886 N   0  0  0  0  0  0  0  0  0  0  0  0
   14.0488   -8.3368  -16.1466 N   0  0  0  0  0  0  0  0  0  0  0  0
   14.6309   -9.6120  -16.4544 C   0  0  0  0  0  0  0  0  0  0  0  0
   16.1421   -9.4106  -16.6381 C   0  0  0  0  0  0  0  0  0  0  0  0
   16.7403  -10.7337  -16.9270 C   0  0  0  0  0  0  0  0  0  0  0  0
   18.2415  -10.7253  -17.1887 C   0  0  2  0  0  0  0  0  0  0  0  0
   18.6483  -12.1365  -17.3408 N   0  0  0  0  0  0  0  0  0  0  0  0
   18.9701  -10.0988  -16.0815 C   0  0  0  0  0  0  0  0  0  0  0  0
   18.9123  -10.5770  -14.8885 O   0  0  0  0  0  0  0  0  0  0  0  0
   12.7301   -6.2939  -15.5771 O   0  0  0  0  0  0  0  0  0  0  0  0
   22.0520   -2.1266  -14.4822 C   0  0  0  0  0  0  0  0  0  0  0  0
   21.9636   -3.4920  -14.7055 C   0  0  0  0  0  0  0  0  0  0  0  0
   22.2844   -4.4381  -13.7530 C   0  0  0  0  0  0  0  0  0  0  0  0
   22.1816   -5.7941  -14.0182 C   0  0  0  0  0  0  0  0  0  0  0  0
   21.7550   -6.2257  -15.2443 C   0  0  0  0  0  0  0  0  0  0  0  0
   21.6566   -7.6657  -15.5092 C   0  0  1  0  0  0  0  0  0  0  0  0
   20.3770   -8.2983  -15.0079 N   0  0  0  0  0  0  0  0  0  0  0  0
   19.7943   -8.9469  -16.1836 C   0  0  0  0  0  0  0  0  0  0  0  0
   19.5084   -7.2522  -14.4555 O   0  0  0  0  0  0  0  0  0  0  0  0
   19.4792   -6.8887  -13.1253 C   0  0  0  0  0  0  0  0  0  0  0  0
   21.4274   -5.2853  -16.2155 C   0  0  0  0  0  0  0  0  0  0  0  0
   21.5339   -3.9422  -15.9393 O   0  0  0  0  0  0  0  0  0  0  0  0
  2  1  1  1
  2  3  1  0
  4  2  1  0
  4  5  1  1
  6  4  1  0
  7  6  2  0
  9 11  1  0
  9  8  1  0
 10  9  2  0
 12 13  1  0
 12 11  1  0
 13 14  1  0
 15 14  1  1
 15 16  1  0
 16  6  1  0
 17 15  1  0
 17 18  2  0
 20 19  1  0
 21 20  2  0
 22 21  1  0
 23 29  1  0
 23 22  2  0
 24 23  1  0
 25 24  1  1
 25 26  1  0
 26 17  1  0
 27 25  1  0
 28 27  1  0
 29 30  2  0
 30 20  1  0
 31 27  2  0
M  END
$$$$
