VRY.pdb
     RDKit          3D

 31 31  0  0  1  0  0  0  0  0999 V2000
   21.9239  -23.8632  -18.3795 C   0  0  0  0  0  0  0  0  0  0  0  0
   21.4947  -24.9589  -17.4336 C   0  0  1  0  0  0  0  0  0  0  0  0
   20.6893  -25.9861  -18.1915 C   0  0  0  0  0  0  0  0  0  0  0  0
   22.6987  -25.6456  -16.8054 C   0  0  2  0  0  0  0  0  0  0  0  0
   22.2931  -26.6568  -15.8544 N   0  0  0  0  0  0  0  0  0  0  0  0
   23.5263  -24.6469  -16.0851 C   0  0  0  0  0  0  0  0  0  0  0  0
   23.1659  -24.0958  -15.0175 O   0  0  0  0  0  0  0  0  0  0  0  0
   31.7253  -24.6113  -17.4562 N   0  0  0  0  0  0  0  0  0  0  0  0
   30.6639  -25.3756  -16.9428 C   0  0  0  0  0  0  0  0  0  0  0  0
   30.6826  -26.6586  -16.8566 N   0  0  0  0  0  0  0  0  0  0  0  0
   29.4850  -24.6759  -16.4856 N   0  0  0  0  0  0  0  0  0  0  0  0
   29.4809  -23.2415  -16.5298 C   0  0  0  0  0  0  0  0  0  0  0  0
   28.1446  -22.7539  -15.9515 C   0  0  0  0  0  0  0  0  0  0  0  0
   27.0872  -23.6772  -16.4220 C   0  0  0  0  0  0  0  0  0  0  0  0
   25.6715  -23.3215  -15.9846 C   0  0  2  0  0  0  0  0  0  0  0  0
   24.7751  -24.3031  -16.6273 N   0  0  0  0  0  0  0  0  0  0  0  0
   25.3160  -21.9590  -16.3931 C   0  0  0  0  0  0  0  0  0  0  0  0
   25.1248  -21.6610  -17.6299 O   0  0  0  0  0  0  0  0  0  0  0  0
   29.8576  -27.1451  -16.4523 O   0  0  0  0  0  0  0  0  0  0  0  0
   23.1450  -13.3243  -15.7684 C   0  0  0  0  0  0  0  0  0  0  0  0
   23.4679  -14.6510  -15.5295 C   0  0  0  0  0  0  0  0  0  0  0  0
   22.5713  -15.6890  -15.6843 C   0  0  0  0  0  0  0  0  0  0  0  0
   22.9359  -17.0021  -15.4345 C   0  0  0  0  0  0  0  0  0  0  0  0
   24.2072  -17.2979  -15.0246 C   0  0  0  0  0  0  0  0  0  0  0  0
   24.5746  -18.6938  -14.7601 C   0  0  2  0  0  0  0  0  0  0  0  0
   24.8123  -19.5153  -16.0080 N   0  0  0  0  0  0  0  0  0  0  0  0
   25.1412  -20.8547  -15.5176 C   0  0  0  0  0  0  0  0  0  0  0  0
   25.9080  -18.9143  -16.7773 O   0  0  0  0  0  0  0  0  0  0  0  0
   25.7303  -18.0549  -17.8415 C   0  0  0  0  0  0  0  0  0  0  0  0
   25.1232  -16.2636  -14.8638 C   0  0  0  0  0  0  0  0  0  0  0  0
   24.7485  -14.9644  -15.1152 O   0  0  0  0  0  0  0  0  0  0  0  0
  2  1  1  6
  2  3  1  0
  4  2  1  0
  4  5  1  1
  6  4  1  0
  7  6  2  0
  9 11  1  0
  9  8  1  0
 10  9  2  0
 12 13  1  0
 12 11  1  0
 13 14  1  0
 15 14  1  6
 15 16  1  0
 16  6  1  0
 17 15  1  0
 17 18  2  0
 20 19  1  0
 21 20  2  0
 22 21  1  0
 23 29  1  0
 23 22  2  0
 24 23  1  0
 25 24  1  6
 25 26  1  0
 26 17  1  0
 27 25  1  0
 28 27  1  0
 29 30  2  0
 30 20  1  0
 31 27  2  0
M  END
$$$$
