VRY.pdb
     RDKit          3D

 31 31  0  0  1  0  0  0  0  0999 V2000
   18.2312  -18.3171    9.3937 C   0  0  0  0  0  0  0  0  0  0  0  0
   18.0787  -19.4176    8.3713 C   0  0  1  0  0  0  0  0  0  0  0  0
   17.5401  -20.6555    9.0465 C   0  0  0  0  0  0  0  0  0  0  0  0
   17.1212  -19.0081    7.2617 C   0  0  2  0  0  0  0  0  0  0  0  0
   16.8570  -20.1074    6.3600 N   0  0  0  0  0  0  0  0  0  0  0  0
   17.7136  -17.9012    6.4712 C   0  0  0  0  0  0  0  0  0  0  0  0
   17.8358  -17.9354    5.2233 O   0  0  0  0  0  0  0  0  0  0  0  0
   12.9774  -12.8628    3.6003 N   0  0  0  0  0  0  0  0  0  0  0  0
   14.0638  -11.9829    3.4594 C   0  0  0  0  0  0  0  0  0  0  0  0
   14.0163  -10.8903    2.7829 N   0  0  0  0  0  0  0  0  0  0  0  0
   15.3046  -12.3291    4.1144 N   0  0  0  0  0  0  0  0  0  0  0  0
   15.3913  -13.5912    4.7919 C   0  0  0  0  0  0  0  0  0  0  0  0
   16.8337  -13.7631    5.2898 C   0  0  0  0  0  0  0  0  0  0  0  0
   16.9112  -15.0563    6.0064 C   0  0  0  0  0  0  0  0  0  0  0  0
   18.3007  -15.4469    6.4947 C   0  0  2  0  0  0  0  0  0  0  0  0
   18.1590  -16.7593    7.1563 N   0  0  0  0  0  0  0  0  0  0  0  0
   18.8320  -14.4545    7.4341 C   0  0  0  0  0  0  0  0  0  0  0  0
   18.2634  -14.2361    8.5673 O   0  0  0  0  0  0  0  0  0  0  0  0
   14.8741  -10.3073    2.7130 O   0  0  0  0  0  0  0  0  0  0  0  0
   22.6805  -18.3795   10.5982 C   0  0  0  0  0  0  0  0  0  0  0  0
   22.5121  -17.1262   10.0302 C   0  0  0  0  0  0  0  0  0  0  0  0
   22.5458  -16.9003    8.6689 C   0  0  0  0  0  0  0  0  0  0  0  0
   22.3726  -15.6303    8.1428 C   0  0  0  0  0  0  0  0  0  0  0  0
   22.1626  -14.5635    8.9732 C   0  0  0  0  0  0  0  0  0  0  0  0
   21.9859  -13.2247    8.3986 C   0  0  2  0  0  0  0  0  0  0  0  0
   20.5410  -12.7952    8.2705 N   0  0  0  0  0  0  0  0  0  0  0  0
   19.9863  -13.6547    7.2235 C   0  0  0  0  0  0  0  0  0  0  0  0
   20.4927  -11.3726    7.9132 O   0  0  0  0  0  0  0  0  0  0  0  0
   20.9059  -10.3491    8.7404 C   0  0  0  0  0  0  0  0  0  0  0  0
   22.1257  -14.7739   10.3476 C   0  0  0  0  0  0  0  0  0  0  0  0
   22.2990  -16.0396   10.8569 O   0  0  0  0  0  0  0  0  0  0  0  0
  2  1  1  1
  2  3  1  0
  4  2  1  0
  4  5  1  6
  6  4  1  0
  7  6  2  0
  9 11  1  0
  9  8  1  0
 10  9  2  0
 12 13  1  0
 12 11  1  0
 13 14  1  0
 15 14  1  1
 15 16  1  0
 16  6  1  0
 17 15  1  0
 17 18  2  0
 20 19  1  0
 21 20  2  0
 22 21  1  0
 23 29  1  0
 23 22  2  0
 24 23  1  0
 25 24  1  1
 25 26  1  0
 26 17  1  0
 27 25  1  0
 28 27  1  0
 29 30  2  0
 30 20  1  0
 31 27  2  0
M  END
$$$$
