VRY.pdb
     RDKit          3D

 31 31  0  0  1  0  0  0  0  0999 V2000
   23.1005  -15.8986  -16.8604 C   0  0  0  0  0  0  0  0  0  0  0  0
   22.9498  -17.1994  -17.6120 C   0  0  1  0  0  0  0  0  0  0  0  0
   23.2888  -16.9784  -19.0661 C   0  0  0  0  0  0  0  0  0  0  0  0
   23.8746  -18.2692  -17.0498 C   0  0  2  0  0  0  0  0  0  0  0  0
   23.8021  -19.4891  -17.8230 N   0  0  0  0  0  0  0  0  0  0  0  0
   23.4826  -18.5885  -15.6550 C   0  0  0  0  0  0  0  0  0  0  0  0
   23.3945  -17.7245  -14.7499 O   0  0  0  0  0  0  0  0  0  0  0  0
   17.3049  -20.7737  -12.4512 N   0  0  0  0  0  0  0  0  0  0  0  0
   17.6919  -22.0098  -12.9959 C   0  0  0  0  0  0  0  0  0  0  0  0
   16.8761  -22.9770  -13.2258 N   0  0  0  0  0  0  0  0  0  0  0  0
   19.0882  -22.2014  -13.3152 N   0  0  0  0  0  0  0  0  0  0  0  0
   20.0735  -21.6007  -12.4621 C   0  0  0  0  0  0  0  0  0  0  0  0
   21.4471  -22.1625  -12.8567 C   0  0  0  0  0  0  0  0  0  0  0  0
   21.8543  -21.5085  -14.1210 C   0  0  0  0  0  0  0  0  0  0  0  0
   22.8303  -20.3484  -13.9679 C   0  0  2  0  0  0  0  0  0  0  0  0
   23.1961  -19.9253  -15.3344 N   0  0  0  0  0  0  0  0  0  0  0  0
   24.0245  -20.7542  -13.2205 C   0  0  0  0  0  0  0  0  0  0  0  0
   24.7132  -21.7833  -13.5694 O   0  0  0  0  0  0  0  0  0  0  0  0
   17.2370  -23.8381  -13.6828 O   0  0  0  0  0  0  0  0  0  0  0  0
   28.3187  -18.3757  -16.5968 C   0  0  0  0  0  0  0  0  0  0  0  0
   27.9486  -18.7201  -15.3060 C   0  0  0  0  0  0  0  0  0  0  0  0
   28.3237  -19.9022  -14.6999 C   0  0  0  0  0  0  0  0  0  0  0  0
   27.9314  -20.2072  -13.4066 C   0  0  0  0  0  0  0  0  0  0  0  0
   27.1553  -19.3316  -12.6976 C   0  0  0  0  0  0  0  0  0  0  0  0
   26.7453  -19.6733  -11.3306 C   0  0  2  0  0  0  0  0  0  0  0  0
   25.6119  -20.6728  -11.2590 N   0  0  0  0  0  0  0  0  0  0  0  0
   24.5476  -20.0914  -12.0787 C   0  0  0  0  0  0  0  0  0  0  0  0
   25.2109  -20.8448   -9.8578 O   0  0  0  0  0  0  0  0  0  0  0  0
   23.9759  -20.4932   -9.3541 C   0  0  0  0  0  0  0  0  0  0  0  0
   26.7687  -18.1358  -13.2935 C   0  0  0  0  0  0  0  0  0  0  0  0
   27.1649  -17.8451  -14.5780 O   0  0  0  0  0  0  0  0  0  0  0  0
  2  1  1  1
  2  3  1  0
  4  2  1  0
  4  5  1  6
  6  4  1  0
  7  6  2  0
  9 11  1  0
  9  8  1  0
 10  9  2  0
 12 13  1  0
 12 11  1  0
 13 14  1  0
 15 14  1  6
 15 16  1  0
 16  6  1  0
 17 15  1  0
 17 18  2  0
 20 19  1  0
 21 20  2  0
 22 21  1  0
 23 29  1  0
 23 22  2  0
 24 23  1  0
 25 24  1  6
 25 26  1  0
 26 17  1  0
 27 25  1  0
 28 27  1  0
 29 30  2  0
 30 20  1  0
 31 27  2  0
M  END
$$$$
