VRY.pdb
     RDKit          3D

 31 31  0  0  1  0  0  0  0  0999 V2000
   28.2022  -14.4974  -16.9527 C   0  0  0  0  0  0  0  0  0  0  0  0
   26.9890  -15.3670  -17.1790 C   0  0  1  0  0  0  0  0  0  0  0  0
   25.7646  -14.4934  -17.3054 C   0  0  0  0  0  0  0  0  0  0  0  0
   27.1346  -16.1939  -18.4482 C   0  0  2  0  0  0  0  0  0  0  0  0
   27.2582  -15.3505  -19.6165 N   0  0  0  0  0  0  0  0  0  0  0  0
   25.9373  -17.0513  -18.6284 C   0  0  0  0  0  0  0  0  0  0  0  0
   24.8836  -16.6545  -19.1812 O   0  0  0  0  0  0  0  0  0  0  0  0
   27.9452  -23.5294  -18.2506 N   0  0  0  0  0  0  0  0  0  0  0  0
   27.1015  -23.8609  -17.1770 C   0  0  0  0  0  0  0  0  0  0  0  0
   27.4868  -24.5180  -16.1409 N   0  0  0  0  0  0  0  0  0  0  0  0
   25.7216  -23.4370  -17.2446 N   0  0  0  0  0  0  0  0  0  0  0  0
   25.1680  -23.1125  -18.5283 C   0  0  0  0  0  0  0  0  0  0  0  0
   24.4073  -21.7853  -18.3939 C   0  0  0  0  0  0  0  0  0  0  0  0
   25.4058  -20.6921  -18.3995 C   0  0  0  0  0  0  0  0  0  0  0  0
   24.8337  -19.2883  -18.2452 C   0  0  2  0  0  0  0  0  0  0  0  0
   25.9885  -18.3725  -18.1557 N   0  0  0  0  0  0  0  0  0  0  0  0
   24.0022  -19.1829  -17.0423 C   0  0  0  0  0  0  0  0  0  0  0  0
   24.5276  -19.1398  -15.8688 O   0  0  0  0  0  0  0  0  0  0  0  0
   26.7835  -24.7704  -15.4183 O   0  0  0  0  0  0  0  0  0  0  0  0
   16.9083  -17.2000  -12.0357 C   0  0  0  0  0  0  0  0  0  0  0  0
   17.7884  -17.4835  -13.0686 C   0  0  0  0  0  0  0  0  0  0  0  0
   18.6212  -16.5398  -13.6352 C   0  0  0  0  0  0  0  0  0  0  0  0
   19.4866  -16.8660  -14.6669 C   0  0  0  0  0  0  0  0  0  0  0  0
   19.5320  -18.1455  -15.1491 C   0  0  0  0  0  0  0  0  0  0  0  0
   20.4514  -18.4720  -16.2454 C   0  0  2  0  0  0  0  0  0  0  0  0
   21.8302  -18.8941  -15.7881 N   0  0  0  0  0  0  0  0  0  0  0  0
   22.5840  -19.1129  -17.0236 C   0  0  0  0  0  0  0  0  0  0  0  0
   21.7155  -20.1119  -14.9772 O   0  0  0  0  0  0  0  0  0  0  0  0
   21.6878  -20.1276  -13.5982 C   0  0  0  0  0  0  0  0  0  0  0  0
   18.6995  -19.1088  -14.5891 C   0  0  0  0  0  0  0  0  0  0  0  0
   17.8451  -18.7718  -13.5655 O   0  0  0  0  0  0  0  0  0  0  0  0
  2  1  1  6
  2  3  1  0
  4  2  1  0
  4  5  1  6
  6  4  1  0
  7  6  2  0
  9 11  1  0
  9  8  1  0
 10  9  2  0
 12 13  1  0
 12 11  1  0
 13 14  1  0
 15 14  1  1
 15 16  1  0
 16  6  1  0
 17 15  1  0
 17 18  2  0
 20 19  1  0
 21 20  2  0
 22 21  1  0
 23 29  1  0
 23 22  2  0
 24 23  1  0
 25 24  1  1
 25 26  1  0
 26 17  1  0
 27 25  1  0
 28 27  1  0
 29 30  2  0
 30 20  1  0
 31 27  2  0
M  END
$$$$
