VRY.pdb
     RDKit          3D

 31 31  0  0  1  0  0  0  0  0999 V2000
   18.9464  -27.0503  -14.6783 C   0  0  0  0  0  0  0  0  0  0  0  0
   20.0105  -25.9792  -14.6873 C   0  0  1  0  0  0  0  0  0  0  0  0
   19.6054  -24.8647  -13.7534 C   0  0  0  0  0  0  0  0  0  0  0  0
   21.3531  -26.5346  -14.2348 C   0  0  2  0  0  0  0  0  0  0  0  0
   21.2593  -27.1407  -12.9251 N   0  0  0  0  0  0  0  0  0  0  0  0
   22.3500  -25.4384  -14.1606 C   0  0  0  0  0  0  0  0  0  0  0  0
   22.5960  -24.8020  -13.1080 O   0  0  0  0  0  0  0  0  0  0  0  0
   29.2680  -26.4881  -16.2252 N   0  0  0  0  0  0  0  0  0  0  0  0
   28.5675  -26.3404  -17.4343 C   0  0  0  0  0  0  0  0  0  0  0  0
   28.5873  -27.2083  -18.3831 N   0  0  0  0  0  0  0  0  0  0  0  0
   27.7798  -25.1429  -17.6184 N   0  0  0  0  0  0  0  0  0  0  0  0
   27.5361  -24.3030  -16.4805 C   0  0  0  0  0  0  0  0  0  0  0  0
   26.3408  -24.8837  -15.7110 C   0  0  0  0  0  0  0  0  0  0  0  0
   25.1053  -24.3698  -16.3446 C   0  0  0  0  0  0  0  0  0  0  0  0
   23.9986  -23.9658  -15.3783 C   0  0  2  0  0  0  0  0  0  0  0  0
   23.0521  -25.0980  -15.3280 N   0  0  0  0  0  0  0  0  0  0  0  0
   23.3174  -22.7486  -15.8298 C   0  0  0  0  0  0  0  0  0  0  0  0
   22.3269  -22.8023  -16.6490 O   0  0  0  0  0  0  0  0  0  0  0  0
   27.9680  -27.0648  -19.2055 O   0  0  0  0  0  0  0  0  0  0  0  0
   20.4466  -19.3605  -10.2385 C   0  0  0  0  0  0  0  0  0  0  0  0
   20.7274  -19.6354  -11.5679 C   0  0  0  0  0  0  0  0  0  0  0  0
   21.2707  -20.8298  -11.9965 C   0  0  0  0  0  0  0  0  0  0  0  0
   21.5360  -21.0636  -13.3361 C   0  0  0  0  0  0  0  0  0  0  0  0
   21.2610  -20.1028  -14.2705 C   0  0  0  0  0  0  0  0  0  0  0  0
   21.5528  -20.3659  -15.6845 C   0  0  1  0  0  0  0  0  0  0  0  0
   23.0181  -20.2508  -16.0428 N   0  0  0  0  0  0  0  0  0  0  0  0
   23.6458  -21.4249  -15.4343 C   0  0  0  0  0  0  0  0  0  0  0  0
   23.5461  -18.9907  -15.5070 O   0  0  0  0  0  0  0  0  0  0  0  0
   23.1214  -17.7395  -15.9026 C   0  0  0  0  0  0  0  0  0  0  0  0
   20.7131  -18.8936  -13.8555 C   0  0  0  0  0  0  0  0  0  0  0  0
   20.4546  -18.6743  -12.5227 O   0  0  0  0  0  0  0  0  0  0  0  0
  2  1  1  1
  2  3  1  0
  4  2  1  0
  4  5  1  1
  6  4  1  0
  7  6  2  0
  9 11  1  0
  9  8  1  0
 10  9  2  0
 12 13  1  0
 12 11  1  0
 13 14  1  0
 15 14  1  6
 15 16  1  0
 16  6  1  0
 17 15  1  0
 17 18  2  0
 20 19  1  0
 21 20  2  0
 22 21  1  0
 23 29  1  0
 23 22  2  0
 24 23  1  0
 25 24  1  6
 25 26  1  0
 26 17  1  0
 27 25  1  0
 28 27  1  0
 29 30  2  0
 30 20  1  0
 31 27  2  0
M  END
$$$$
