EQY.pdb
     RDKit          3D

 31 31  0  0  1  0  0  0  0  0999 V2000
    9.6603  -18.5518   18.2046 N   0  0  0  0  0  0  0  0  0  0  0  0
    9.2649  -17.4622   19.0760 C   0  0  1  0  0  0  0  0  0  0  0  0
    7.7932  -17.6020   19.4183 C   0  0  0  0  0  0  0  0  0  0  0  0
    7.3071  -19.0062   19.2102 C   0  0  0  0  0  0  0  0  0  0  0  0
    5.8779  -19.0803   19.6064 C   0  0  0  0  0  0  0  0  0  0  0  0
    4.9750  -18.6020   18.8774 O   0  0  0  0  0  0  0  0  0  0  0  0
   10.1057  -17.4385   20.2970 C   0  0  0  0  0  0  0  0  0  0  0  0
   10.3042  -18.5114   20.9044 O   0  0  0  0  0  0  0  0  0  0  0  0
    5.4981  -19.6816   20.7966 O   0  0  0  0  0  0  0  0  0  0  0  0
   15.3265  -14.0653   21.6027 N   0  0  0  0  0  0  0  0  0  0  0  0
   14.5866  -14.4486   20.4382 C   0  0  0  0  0  0  0  0  0  0  0  0
   15.1006  -14.1519   19.3401 O   0  0  0  0  0  0  0  0  0  0  0  0
   13.3098  -15.1391   20.5111 C   0  0  0  0  0  0  0  0  0  0  0  0
   12.7064  -15.3592   21.8395 C   0  0  0  0  0  0  0  0  0  0  0  0
   11.4558  -16.1446   21.9264 C   0  0  2  0  0  0  0  0  0  0  0  0
   10.6637  -16.2018   20.7461 N   0  0  0  0  0  0  0  0  0  0  0  0
   10.6330  -15.7016   23.1121 C   0  0  0  0  0  0  0  0  0  0  0  0
    9.8799  -14.6980   23.0332 O   0  0  0  0  0  0  0  0  0  0  0  0
    5.9977  -11.0772   26.3090 O   0  0  0  0  0  0  0  0  0  0  0  0
    6.5882  -12.3039   25.9616 C   0  0  0  0  0  0  0  0  0  0  0  0
    6.7384  -13.2704   26.9410 C   0  0  0  0  0  0  0  0  0  0  0  0
    7.3187  -14.4702   26.5895 C   0  0  0  0  0  0  0  0  0  0  0  0
    7.7457  -14.7322   25.3165 C   0  0  0  0  0  0  0  0  0  0  0  0
    8.3591  -16.0230   24.9805 C   0  0  0  0  0  0  0  0  0  0  0  0
    9.7710  -16.0724   25.4493 C   0  0  2  0  0  0  0  0  0  0  0  0
   10.6879  -16.4050   24.3447 N   0  0  0  0  0  0  0  0  0  0  0  0
   10.0338  -16.9172   26.6199 C   0  0  0  0  0  0  0  0  0  0  0  0
   10.4448  -18.1115   26.4195 O   0  0  0  0  0  0  0  0  0  0  0  0
    7.6030  -13.7716   24.3168 C   0  0  0  0  0  0  0  0  0  0  0  0
    7.0213  -12.5775   24.6839 C   0  0  0  0  0  0  0  0  0  0  0  0
    9.8833  -16.5541   27.9411 O   0  0  0  0  0  0  0  0  0  0  0  0
  2  3  1  0
  2  1  1  6
  4  3  1  0
  5  4  1  0
  6  5  2  0
  7  2  1  0
  8  7  2  0
  9  5  1  0
 10 11  1  0
 11 12  2  0
 11 13  1  0
 13 14  1  0
 15 14  1  6
 15 16  1  0
 16  7  1  0
 17 15  1  0
 17 18  2  0
 19 20  1  0
 20 21  2  0
 21 22  1  0
 23 22  2  0
 23 24  1  0
 25 24  1  6
 25 26  1  0
 26 17  1  0
 27 25  1  0
 28 27  2  0
 29 23  1  0
 30 20  1  0
 30 29  2  0
 31 27  1  0
M  END
$$$$
