EQY.pdb
     RDKit          3D

 31 31  0  0  1  0  0  0  0  0999 V2000
    8.2175  -13.8661   20.6674 N   0  0  0  0  0  0  0  0  0  0  0  0
    7.5856  -15.1393   20.3800 C   0  0  1  0  0  0  0  0  0  0  0  0
    7.6173  -15.3889   18.8836 C   0  0  0  0  0  0  0  0  0  0  0  0
    8.4185  -14.3437   18.1646 C   0  0  0  0  0  0  0  0  0  0  0  0
    8.3415  -14.6037   16.7046 C   0  0  0  0  0  0  0  0  0  0  0  0
    8.8989  -13.8414   15.8777 O   0  0  0  0  0  0  0  0  0  0  0  0
    8.2522  -16.2333   21.1265 C   0  0  0  0  0  0  0  0  0  0  0  0
    7.8158  -17.3960   20.9954 O   0  0  0  0  0  0  0  0  0  0  0  0
    7.6496  -15.6991   16.2109 O   0  0  0  0  0  0  0  0  0  0  0  0
   14.4499  -17.0911   22.9945 N   0  0  0  0  0  0  0  0  0  0  0  0
   13.7142  -15.8742   22.8259 C   0  0  0  0  0  0  0  0  0  0  0  0
   14.3910  -14.8540   22.5827 O   0  0  0  0  0  0  0  0  0  0  0  0
   12.2661  -15.8109   22.9320 C   0  0  0  0  0  0  0  0  0  0  0  0
   11.4857  -17.0211   22.6098 C   0  0  0  0  0  0  0  0  0  0  0  0
   10.0115  -16.9607   22.7164 C   0  0  2  0  0  0  0  0  0  0  0  0
    9.3668  -15.9355   21.9700 N   0  0  0  0  0  0  0  0  0  0  0  0
    9.5856  -16.9285   24.1644 C   0  0  0  0  0  0  0  0  0  0  0  0
    8.8302  -17.8178   24.6323 O   0  0  0  0  0  0  0  0  0  0  0  0
    6.0184  -10.6451   26.0286 O   0  0  0  0  0  0  0  0  0  0  0  0
    6.5479  -11.9389   26.1703 C   0  0  0  0  0  0  0  0  0  0  0  0
    6.1066  -12.9350   25.3165 C   0  0  0  0  0  0  0  0  0  0  0  0
    6.6326  -14.2004   25.4639 C   0  0  0  0  0  0  0  0  0  0  0  0
    7.5670  -14.4988   26.4174 C   0  0  0  0  0  0  0  0  0  0  0  0
    8.1042  -15.8593   26.5434 C   0  0  0  0  0  0  0  0  0  0  0  0
    9.5891  -15.8502   26.4404 C   0  0  2  0  0  0  0  0  0  0  0  0
   10.0259  -15.8954   25.0338 N   0  0  0  0  0  0  0  0  0  0  0  0
   10.2983  -16.8545   27.2412 C   0  0  0  0  0  0  0  0  0  0  0  0
   11.1054  -17.6430   26.6393 O   0  0  0  0  0  0  0  0  0  0  0  0
    8.0237  -13.5092   27.2863 C   0  0  0  0  0  0  0  0  0  0  0  0
    7.4883  -12.2495   27.1263 C   0  0  0  0  0  0  0  0  0  0  0  0
   10.1869  -17.0431   28.6022 O   0  0  0  0  0  0  0  0  0  0  0  0
  2  3  1  0
  2  1  1  6
  4  3  1  0
  5  4  1  0
  6  5  2  0
  7  2  1  0
  8  7  2  0
  9  5  1  0
 10 11  1  0
 11 12  2  0
 11 13  1  0
 13 14  1  0
 15 14  1  1
 15 16  1  0
 16  7  1  0
 17 15  1  0
 17 18  2  0
 19 20  1  0
 20 21  2  0
 21 22  1  0
 23 22  2  0
 23 24  1  0
 25 24  1  6
 25 26  1  0
 26 17  1  0
 27 25  1  0
 28 27  2  0
 29 23  1  0
 30 20  1  0
 30 29  2  0
 31 27  1  0
M  END
$$$$
