EQY.pdb
     RDKit          3D

 31 31  0  0  1  0  0  0  0  0999 V2000
    9.3404  -16.0960   17.7006 N   0  0  0  0  0  0  0  0  0  0  0  0
    8.3010  -16.7012   18.5107 C   0  0  1  0  0  0  0  0  0  0  0  0
    7.7129  -17.8870   17.7687 C   0  0  0  0  0  0  0  0  0  0  0  0
    7.3616  -17.5356   16.3528 C   0  0  0  0  0  0  0  0  0  0  0  0
    6.6394  -18.6803   15.7421 C   0  0  0  0  0  0  0  0  0  0  0  0
    5.3888  -18.6782   15.6352 O   0  0  0  0  0  0  0  0  0  0  0  0
    8.8370  -17.1013   19.8341 C   0  0  0  0  0  0  0  0  0  0  0  0
    8.0392  -17.5238   20.6969 O   0  0  0  0  0  0  0  0  0  0  0  0
    7.3274  -19.7879   15.2706 O   0  0  0  0  0  0  0  0  0  0  0  0
   15.0280  -18.5318   21.4764 N   0  0  0  0  0  0  0  0  0  0  0  0
   14.2161  -18.5414   22.6559 C   0  0  0  0  0  0  0  0  0  0  0  0
   14.7729  -18.9358   23.7011 O   0  0  0  0  0  0  0  0  0  0  0  0
   12.8239  -18.1241   22.6544 C   0  0  0  0  0  0  0  0  0  0  0  0
   12.2200  -17.7009   21.3763 C   0  0  0  0  0  0  0  0  0  0  0  0
   10.7805  -17.3607   21.3531 C   0  0  2  0  0  0  0  0  0  0  0  0
   10.2392  -16.9953   20.0893 N   0  0  0  0  0  0  0  0  0  0  0  0
   10.4646  -16.3208   22.4009 C   0  0  0  0  0  0  0  0  0  0  0  0
   10.9879  -15.1787   22.3514 O   0  0  0  0  0  0  0  0  0  0  0  0
    6.1646  -11.0875   27.7412 O   0  0  0  0  0  0  0  0  0  0  0  0
    6.6177  -12.0126   26.7857 C   0  0  0  0  0  0  0  0  0  0  0  0
    6.0347  -13.2674   26.7466 C   0  0  0  0  0  0  0  0  0  0  0  0
    6.4864  -14.1672   25.8052 C   0  0  0  0  0  0  0  0  0  0  0  0
    7.4821  -13.8615   24.9183 C   0  0  0  0  0  0  0  0  0  0  0  0
    7.9363  -14.8471   23.9295 C   0  0  0  0  0  0  0  0  0  0  0  0
    9.1564  -15.5510   24.4106 C   0  0  2  0  0  0  0  0  0  0  0  0
    9.5705  -16.6045   23.4672 N   0  0  0  0  0  0  0  0  0  0  0  0
    9.1052  -16.0680   25.7828 C   0  0  0  0  0  0  0  0  0  0  0  0
    8.7562  -17.2863   25.9538 O   0  0  0  0  0  0  0  0  0  0  0  0
    8.0813  -12.6033   24.9423 C   0  0  0  0  0  0  0  0  0  0  0  0
    7.6189  -11.7152   25.8890 C   0  0  0  0  0  0  0  0  0  0  0  0
    9.4004  -15.3671   26.9326 O   0  0  0  0  0  0  0  0  0  0  0  0
  2  3  1  0
  2  1  1  6
  4  3  1  0
  5  4  1  0
  6  5  2  0
  7  2  1  0
  8  7  2  0
  9  5  1  0
 10 11  1  0
 11 12  2  0
 11 13  1  0
 13 14  1  0
 15 14  1  6
 15 16  1  0
 16  7  1  0
 17 15  1  0
 17 18  2  0
 19 20  1  0
 20 21  2  0
 21 22  1  0
 23 22  2  0
 23 24  1  0
 25 24  1  6
 25 26  1  0
 26 17  1  0
 27 25  1  0
 28 27  2  0
 29 23  1  0
 30 20  1  0
 30 29  2  0
 31 27  1  0
M  END
$$$$
