EQY.pdb
     RDKit          3D

 31 31  0  0  1  0  0  0  0  0999 V2000
   10.8742  -17.8748   17.0098 N   0  0  0  0  0  0  0  0  0  0  0  0
   10.0715  -18.1816   18.1780 C   0  0  1  0  0  0  0  0  0  0  0  0
   10.4933  -19.5276   18.7374 C   0  0  0  0  0  0  0  0  0  0  0  0
   11.9459  -19.5406   19.1133 C   0  0  0  0  0  0  0  0  0  0  0  0
   12.2791  -20.8698   19.6852 C   0  0  0  0  0  0  0  0  0  0  0  0
   11.4147  -21.7758   19.7723 O   0  0  0  0  0  0  0  0  0  0  0  0
   10.1966  -17.1089   19.1939 C   0  0  0  0  0  0  0  0  0  0  0  0
   11.3238  -16.6127   19.4006 O   0  0  0  0  0  0  0  0  0  0  0  0
   13.5584  -21.1498   20.1408 O   0  0  0  0  0  0  0  0  0  0  0  0
    9.3656  -12.4433   19.7870 N   0  0  0  0  0  0  0  0  0  0  0  0
    8.1751  -12.9815   19.2007 C   0  0  0  0  0  0  0  0  0  0  0  0
    7.7662  -12.4106   18.1687 O   0  0  0  0  0  0  0  0  0  0  0  0
    7.4694  -14.1213   19.7619 C   0  0  0  0  0  0  0  0  0  0  0  0
    7.9905  -14.7275   21.0022 C   0  0  0  0  0  0  0  0  0  0  0  0
    9.1311  -15.6646   20.9058 C   0  0  2  0  0  0  0  0  0  0  0  0
    9.0369  -16.6719   19.9057 N   0  0  0  0  0  0  0  0  0  0  0  0
    9.4383  -16.2663   22.2559 C   0  0  0  0  0  0  0  0  0  0  0  0
    8.5981  -16.9961   22.8408 O   0  0  0  0  0  0  0  0  0  0  0  0
   10.3721  -14.2980   30.4707 O   0  0  0  0  0  0  0  0  0  0  0  0
   10.3437  -14.3867   29.0688 C   0  0  0  0  0  0  0  0  0  0  0  0
    9.2090  -13.9632   28.3987 C   0  0  0  0  0  0  0  0  0  0  0  0
    9.1917  -14.0544   27.0235 C   0  0  0  0  0  0  0  0  0  0  0  0
   10.2497  -14.5452   26.3086 C   0  0  0  0  0  0  0  0  0  0  0  0
   10.1937  -14.6264   24.8438 C   0  0  0  0  0  0  0  0  0  0  0  0
   10.7673  -15.9143   24.3661 C   0  0  2  0  0  0  0  0  0  0  0  0
   10.6811  -16.0243   22.8992 N   0  0  0  0  0  0  0  0  0  0  0  0
   10.2566  -17.1283   25.0129 C   0  0  0  0  0  0  0  0  0  0  0  0
   11.0287  -17.7490   25.8215 O   0  0  0  0  0  0  0  0  0  0  0  0
   11.4008  -14.9765   26.9655 C   0  0  0  0  0  0  0  0  0  0  0  0
   11.4027  -14.8791   28.3401 C   0  0  0  0  0  0  0  0  0  0  0  0
    9.0067  -17.6833   24.8400 O   0  0  0  0  0  0  0  0  0  0  0  0
  2  3  1  0
  2  1  1  6
  4  3  1  0
  5  4  1  0
  6  5  2  0
  7  2  1  0
  8  7  2  0
  9  5  1  0
 10 11  1  0
 11 12  2  0
 11 13  1  0
 13 14  1  0
 15 14  1  1
 15 16  1  0
 16  7  1  0
 17 15  1  0
 17 18  2  0
 19 20  1  0
 20 21  2  0
 21 22  1  0
 23 22  2  0
 23 24  1  0
 25 24  1  1
 25 26  1  0
 26 17  1  0
 27 25  1  0
 28 27  2  0
 29 23  1  0
 30 20  1  0
 30 29  2  0
 31 27  1  0
M  END
$$$$
