EQY.pdb
     RDKit          3D

 31 31  0  0  1  0  0  0  0  0999 V2000
    8.2923  -16.6512   19.5497 N   0  0  0  0  0  0  0  0  0  0  0  0
    9.0129  -17.3998   20.5613 C   0  0  1  0  0  0  0  0  0  0  0  0
   10.5047  -17.2104   20.3582 C   0  0  0  0  0  0  0  0  0  0  0  0
   10.9869  -17.9016   19.1167 C   0  0  0  0  0  0  0  0  0  0  0  0
   12.4402  -17.6407   18.9590 C   0  0  0  0  0  0  0  0  0  0  0  0
   12.8586  -16.7116   18.2259 O   0  0  0  0  0  0  0  0  0  0  0  0
    8.5930  -16.9797   21.9198 C   0  0  0  0  0  0  0  0  0  0  0  0
    8.3102  -15.7785   22.1111 O   0  0  0  0  0  0  0  0  0  0  0  0
   13.3800  -18.4179   19.6186 O   0  0  0  0  0  0  0  0  0  0  0  0
    5.9319  -20.7574   26.4695 N   0  0  0  0  0  0  0  0  0  0  0  0
    6.9680  -19.9850   27.0863 C   0  0  0  0  0  0  0  0  0  0  0  0
    7.2074  -20.2462   28.2833 O   0  0  0  0  0  0  0  0  0  0  0  0
    7.7049  -18.9518   26.3780 C   0  0  0  0  0  0  0  0  0  0  0  0
    7.2970  -18.6195   24.9994 C   0  0  0  0  0  0  0  0  0  0  0  0
    8.0621  -17.5882   24.2650 C   0  0  2  0  0  0  0  0  0  0  0  0
    8.5225  -17.9486   22.9681 N   0  0  0  0  0  0  0  0  0  0  0  0
    9.1923  -17.0607   25.1157 C   0  0  0  0  0  0  0  0  0  0  0  0
   10.3137  -17.6291   25.1194 O   0  0  0  0  0  0  0  0  0  0  0  0
    4.9235  -11.9948   25.5443 O   0  0  0  0  0  0  0  0  0  0  0  0
    6.2149  -12.4666   25.8338 C   0  0  0  0  0  0  0  0  0  0  0  0
    6.5905  -12.6050   27.1588 C   0  0  0  0  0  0  0  0  0  0  0  0
    7.8595  -13.0688   27.4318 C   0  0  0  0  0  0  0  0  0  0  0  0
    8.7491  -13.3929   26.4443 C   0  0  0  0  0  0  0  0  0  0  0  0
   10.0925  -13.8842   26.7748 C   0  0  0  0  0  0  0  0  0  0  0  0
   10.1350  -15.3713   26.7283 C   0  0  2  0  0  0  0  0  0  0  0  0
    9.0189  -15.9115   25.9320 N   0  0  0  0  0  0  0  0  0  0  0  0
   10.2338  -16.0556   28.0225 C   0  0  0  0  0  0  0  0  0  0  0  0
   11.1884  -15.7245   28.8064 O   0  0  0  0  0  0  0  0  0  0  0  0
    8.3892  -13.2601   25.1044 C   0  0  0  0  0  0  0  0  0  0  0  0
    7.1175  -12.7953   24.8479 C   0  0  0  0  0  0  0  0  0  0  0  0
    9.3896  -17.0374   28.4953 O   0  0  0  0  0  0  0  0  0  0  0  0
  2  3  1  0
  2  1  1  6
  4  3  1  0
  5  4  1  0
  6  5  2  0
  7  2  1  0
  8  7  2  0
  9  5  1  0
 10 11  1  0
 11 12  2  0
 11 13  1  0
 13 14  1  0
 15 14  1  1
 15 16  1  0
 16  7  1  0
 17 15  1  0
 17 18  2  0
 19 20  1  0
 20 21  2  0
 21 22  1  0
 23 22  2  0
 23 24  1  0
 25 24  1  1
 25 26  1  0
 26 17  1  0
 27 25  1  0
 28 27  2  0
 29 23  1  0
 30 20  1  0
 30 29  2  0
 31 27  1  0
M  END
$$$$
