EQY.pdb
     RDKit          3D

 31 31  0  0  1  0  0  0  0  0999 V2000
   14.8665  -18.2347   14.8062 N   0  0  0  0  0  0  0  0  0  0  0  0
   15.6355  -18.5861   15.9844 C   0  0  1  0  0  0  0  0  0  0  0  0
   16.7425  -17.5676   16.1833 C   0  0  0  0  0  0  0  0  0  0  0  0
   16.1952  -16.2178   16.5440 C   0  0  0  0  0  0  0  0  0  0  0  0
   17.3297  -15.3042   16.8324 C   0  0  0  0  0  0  0  0  0  0  0  0
   17.8070  -14.5586   15.9427 O   0  0  0  0  0  0  0  0  0  0  0  0
   14.7564  -18.6710   17.1754 C   0  0  0  0  0  0  0  0  0  0  0  0
   13.5829  -19.0697   17.0225 O   0  0  0  0  0  0  0  0  0  0  0  0
   17.8964  -15.2480   18.0966 O   0  0  0  0  0  0  0  0  0  0  0  0
   15.2966  -21.9482   23.1225 N   0  0  0  0  0  0  0  0  0  0  0  0
   15.1185  -21.9482   21.7017 C   0  0  0  0  0  0  0  0  0  0  0  0
   15.7093  -22.8520   21.0754 O   0  0  0  0  0  0  0  0  0  0  0  0
   14.3054  -20.9604   21.0120 C   0  0  0  0  0  0  0  0  0  0  0  0
   14.8528  -20.3260   19.7975 C   0  0  0  0  0  0  0  0  0  0  0  0
   14.7276  -18.8595   19.6484 C   0  0  2  0  0  0  0  0  0  0  0  0
   15.2665  -18.2984   18.4574 N   0  0  0  0  0  0  0  0  0  0  0  0
   15.2626  -18.1548   20.8716 C   0  0  0  0  0  0  0  0  0  0  0  0
   16.5000  -18.0792   21.0803 O   0  0  0  0  0  0  0  0  0  0  0  0
   13.8043  -13.5190   17.4103 O   0  0  0  0  0  0  0  0  0  0  0  0
   13.9088  -13.9621   18.7396 C   0  0  0  0  0  0  0  0  0  0  0  0
   12.7668  -14.4045   19.3846 C   0  0  0  0  0  0  0  0  0  0  0  0
   12.8805  -14.8372   20.6883 C   0  0  0  0  0  0  0  0  0  0  0  0
   14.0740  -14.8428   21.3568 C   0  0  0  0  0  0  0  0  0  0  0  0
   14.1551  -15.3116   22.7457 C   0  0  0  0  0  0  0  0  0  0  0  0
   14.8850  -16.6067   22.8219 C   0  0  2  0  0  0  0  0  0  0  0  0
   14.3844  -17.5604   21.8164 N   0  0  0  0  0  0  0  0  0  0  0  0
   14.9543  -17.2321   24.1475 C   0  0  0  0  0  0  0  0  0  0  0  0
   15.4780  -16.5614   25.1021 O   0  0  0  0  0  0  0  0  0  0  0  0
   15.2347  -14.4010   20.7241 C   0  0  0  0  0  0  0  0  0  0  0  0
   15.1047  -13.9716   19.4212 C   0  0  0  0  0  0  0  0  0  0  0  0
   14.5049  -18.4915   24.4823 O   0  0  0  0  0  0  0  0  0  0  0  0
  2  3  1  0
  2  1  1  6
  4  3  1  0
  5  4  1  0
  6  5  2  0
  7  2  1  0
  8  7  2  0
  9  5  1  0
 10 11  1  0
 11 12  2  0
 11 13  1  0
 13 14  1  0
 15 14  1  1
 15 16  1  0
 16  7  1  0
 17 15  1  0
 17 18  2  0
 19 20  1  0
 20 21  2  0
 21 22  1  0
 23 22  2  0
 23 24  1  0
 25 24  1  1
 25 26  1  0
 26 17  1  0
 27 25  1  0
 28 27  2  0
 29 23  1  0
 30 20  1  0
 30 29  2  0
 31 27  1  0
M  END
$$$$
