EQY.pdb
     RDKit          3D

 31 31  0  0  1  0  0  0  0  0999 V2000
    9.8353  -21.2642   17.9758 N   0  0  0  0  0  0  0  0  0  0  0  0
    9.4794  -20.0603   18.7017 C   0  0  1  0  0  0  0  0  0  0  0  0
    8.6169  -20.4298   19.8943 C   0  0  0  0  0  0  0  0  0  0  0  0
    7.8973  -21.7283   19.6764 C   0  0  0  0  0  0  0  0  0  0  0  0
    7.1931  -22.0999   20.9297 C   0  0  0  0  0  0  0  0  0  0  0  0
    7.7918  -22.1139   22.0329 O   0  0  0  0  0  0  0  0  0  0  0  0
   10.6964  -19.3239   19.1201 C   0  0  0  0  0  0  0  0  0  0  0  0
   11.7294  -19.9771   19.3762 O   0  0  0  0  0  0  0  0  0  0  0  0
    5.8498  -22.4432   20.9180 O   0  0  0  0  0  0  0  0  0  0  0  0
   12.2854  -12.9550   18.4211 N   0  0  0  0  0  0  0  0  0  0  0  0
   13.3860  -13.7441   18.8865 C   0  0  0  0  0  0  0  0  0  0  0  0
   14.5137  -13.2158   18.8014 O   0  0  0  0  0  0  0  0  0  0  0  0
   13.2195  -15.0836   19.4253 C   0  0  0  0  0  0  0  0  0  0  0  0
   11.9903  -15.8272   19.0885 C   0  0  0  0  0  0  0  0  0  0  0  0
   11.7927  -17.1699   19.6773 C   0  0  2  0  0  0  0  0  0  0  0  0
   10.6598  -17.8986   19.2198 N   0  0  0  0  0  0  0  0  0  0  0  0
   11.8192  -17.0966   21.1849 C   0  0  0  0  0  0  0  0  0  0  0  0
   10.8754  -16.5606   21.8192 O   0  0  0  0  0  0  0  0  0  0  0  0
   11.3173  -19.9351   29.1680 O   0  0  0  0  0  0  0  0  0  0  0  0
   11.3765  -19.6187   27.8002 C   0  0  0  0  0  0  0  0  0  0  0  0
   12.0245  -20.4916   26.9435 C   0  0  0  0  0  0  0  0  0  0  0  0
   12.0766  -20.1718   25.6037 C   0  0  0  0  0  0  0  0  0  0  0  0
   11.5137  -19.0310   25.1005 C   0  0  0  0  0  0  0  0  0  0  0  0
   11.5897  -18.7250   23.6667 C   0  0  0  0  0  0  0  0  0  0  0  0
   12.7875  -17.8928   23.3693 C   0  0  2  0  0  0  0  0  0  0  0  0
   12.9082  -17.6299   21.9244 N   0  0  0  0  0  0  0  0  0  0  0  0
   14.0598  -18.3709   23.9222 C   0  0  0  0  0  0  0  0  0  0  0  0
   14.5305  -17.7743   24.9506 O   0  0  0  0  0  0  0  0  0  0  0  0
   10.8570  -18.1400   25.9475 C   0  0  0  0  0  0  0  0  0  0  0  0
   10.8135  -18.4736   27.2839 C   0  0  0  0  0  0  0  0  0  0  0  0
   14.8182  -19.4175   23.4429 O   0  0  0  0  0  0  0  0  0  0  0  0
  2  3  1  0
  2  1  1  1
  4  3  1  0
  5  4  1  0
  6  5  2  0
  7  2  1  0
  8  7  2  0
  9  5  1  0
 10 11  1  0
 11 12  2  0
 11 13  1  0
 13 14  1  0
 15 14  1  6
 15 16  1  0
 16  7  1  0
 17 15  1  0
 17 18  2  0
 19 20  1  0
 20 21  2  0
 21 22  1  0
 23 22  2  0
 23 24  1  0
 25 24  1  6
 25 26  1  0
 26 17  1  0
 27 25  1  0
 28 27  2  0
 29 23  1  0
 30 20  1  0
 30 29  2  0
 31 27  1  0
M  END
$$$$
