EQY.pdb
     RDKit          3D

 31 31  0  0  1  0  0  0  0  0999 V2000
   11.1482  -18.9031   21.4261 N   0  0  0  0  0  0  0  0  0  0  0  0
   12.2461  -18.0120   21.7478 C   0  0  1  0  0  0  0  0  0  0  0  0
   13.2144  -17.9667   20.5804 C   0  0  0  0  0  0  0  0  0  0  0  0
   12.8961  -19.0156   19.5557 C   0  0  0  0  0  0  0  0  0  0  0  0
   13.7817  -18.8188   18.3801 C   0  0  0  0  0  0  0  0  0  0  0  0
   13.3081  -18.6296   17.2332 O   0  0  0  0  0  0  0  0  0  0  0  0
   11.7396  -16.6599   22.0849 C   0  0  0  0  0  0  0  0  0  0  0  0
   12.5674  -15.7575   22.3294 O   0  0  0  0  0  0  0  0  0  0  0  0
   15.1614  -18.8383   18.5155 O   0  0  0  0  0  0  0  0  0  0  0  0
    6.3089  -13.8001   20.1779 N   0  0  0  0  0  0  0  0  0  0  0  0
    6.3357  -15.0817   20.8162 C   0  0  0  0  0  0  0  0  0  0  0  0
    5.3015  -15.7715   20.7038 O   0  0  0  0  0  0  0  0  0  0  0  0
    7.4879  -15.5655   21.5582 C   0  0  0  0  0  0  0  0  0  0  0  0
    8.6479  -14.6673   21.7163 C   0  0  0  0  0  0  0  0  0  0  0  0
    9.8146  -15.1486   22.4881 C   0  0  2  0  0  0  0  0  0  0  0  0
   10.3307  -16.4228   22.1221 N   0  0  0  0  0  0  0  0  0  0  0  0
    9.5342  -15.0811   23.9699 C   0  0  0  0  0  0  0  0  0  0  0  0
    8.8854  -14.1214   24.4584 O   0  0  0  0  0  0  0  0  0  0  0  0
    5.9025  -11.0061   26.6301 O   0  0  0  0  0  0  0  0  0  0  0  0
    6.4226  -12.3081   26.5392 C   0  0  0  0  0  0  0  0  0  0  0  0
    7.5458  -12.6286   27.2819 C   0  0  0  0  0  0  0  0  0  0  0  0
    8.0477  -13.9088   27.1855 C   0  0  0  0  0  0  0  0  0  0  0  0
    7.4762  -14.8615   26.3873 C   0  0  0  0  0  0  0  0  0  0  0  0
    8.0400  -16.2149   26.3113 C   0  0  0  0  0  0  0  0  0  0  0  0
    9.5261  -16.1627   26.2444 C   0  0  2  0  0  0  0  0  0  0  0  0
    9.9947  -16.0972   24.8489 N   0  0  0  0  0  0  0  0  0  0  0  0
   10.2433  -17.2040   26.9889 C   0  0  0  0  0  0  0  0  0  0  0  0
   10.1137  -17.2311   28.2608 O   0  0  0  0  0  0  0  0  0  0  0  0
    6.3449  -14.5576   25.6320 C   0  0  0  0  0  0  0  0  0  0  0  0
    5.8553  -13.2740   25.7391 C   0  0  0  0  0  0  0  0  0  0  0  0
   11.0584  -18.1781   26.4534 O   0  0  0  0  0  0  0  0  0  0  0  0
  2  3  1  0
  2  1  1  6
  4  3  1  0
  5  4  1  0
  6  5  2  0
  7  2  1  0
  8  7  2  0
  9  5  1  0
 10 11  1  0
 11 12  2  0
 11 13  1  0
 13 14  1  0
 15 14  1  6
 15 16  1  0
 16  7  1  0
 17 15  1  0
 17 18  2  0
 19 20  1  0
 20 21  2  0
 21 22  1  0
 23 22  2  0
 23 24  1  0
 25 24  1  6
 25 26  1  0
 26 17  1  0
 27 25  1  0
 28 27  2  0
 29 23  1  0
 30 20  1  0
 30 29  2  0
 31 27  1  0
M  END
$$$$
