EQY.pdb
     RDKit          3D

 31 31  0  0  1  0  0  0  0  0999 V2000
   10.6706  -17.3069   17.1187 N   0  0  0  0  0  0  0  0  0  0  0  0
    9.3076  -17.1315   17.5816 C   0  0  1  0  0  0  0  0  0  0  0  0
    8.4071  -18.1324   16.8816 C   0  0  0  0  0  0  0  0  0  0  0  0
    9.0490  -18.6829   15.6422 C   0  0  0  0  0  0  0  0  0  0  0  0
    8.0865  -19.5917   14.9695 C   0  0  0  0  0  0  0  0  0  0  0  0
    6.8581  -19.3353   14.9445 O   0  0  0  0  0  0  0  0  0  0  0  0
    9.2342  -17.2743   19.0556 C   0  0  0  0  0  0  0  0  0  0  0  0
    8.1198  -17.1708   19.6094 O   0  0  0  0  0  0  0  0  0  0  0  0
    8.5179  -20.7534   14.3475 O   0  0  0  0  0  0  0  0  0  0  0  0
   13.5513  -20.3618   22.8636 N   0  0  0  0  0  0  0  0  0  0  0  0
   12.4921  -19.8568   23.6843 C   0  0  0  0  0  0  0  0  0  0  0  0
   12.5197  -20.1965   24.8851 O   0  0  0  0  0  0  0  0  0  0  0  0
   11.4369  -19.0018   23.1666 C   0  0  0  0  0  0  0  0  0  0  0  0
   11.4871  -18.6084   21.7453 C   0  0  0  0  0  0  0  0  0  0  0  0
   10.3724  -17.8072   21.1940 C   0  0  2  0  0  0  0  0  0  0  0  0
   10.4278  -17.5244   19.8009 N   0  0  0  0  0  0  0  0  0  0  0  0
   10.1792  -16.5440   21.9978 C   0  0  0  0  0  0  0  0  0  0  0  0
   10.9944  -15.5916   21.9043 O   0  0  0  0  0  0  0  0  0  0  0  0
    7.7566  -12.1937   18.3700 O   0  0  0  0  0  0  0  0  0  0  0  0
    7.7582  -12.7498   19.6603 C   0  0  0  0  0  0  0  0  0  0  0  0
    6.9369  -13.8337   19.9181 C   0  0  0  0  0  0  0  0  0  0  0  0
    6.9463  -14.3717   21.1871 C   0  0  0  0  0  0  0  0  0  0  0  0
    7.7337  -13.8728   22.1883 C   0  0  0  0  0  0  0  0  0  0  0  0
    7.7164  -14.4734   23.5279 C   0  0  0  0  0  0  0  0  0  0  0  0
    8.9694  -15.2368   23.7784 C   0  0  2  0  0  0  0  0  0  0  0  0
    9.0744  -16.3988   22.8783 N   0  0  0  0  0  0  0  0  0  0  0  0
    9.2200  -15.6285   25.1701 C   0  0  0  0  0  0  0  0  0  0  0  0
    9.3345  -16.8747   25.4327 O   0  0  0  0  0  0  0  0  0  0  0  0
    8.5673  -12.7819   21.9480 C   0  0  0  0  0  0  0  0  0  0  0  0
    8.5465  -12.2554   20.6747 C   0  0  0  0  0  0  0  0  0  0  0  0
    9.3491  -14.7793   26.2483 O   0  0  0  0  0  0  0  0  0  0  0  0
  2  3  1  0
  2  1  1  6
  4  3  1  0
  5  4  1  0
  6  5  2  0
  7  2  1  0
  8  7  2  0
  9  5  1  0
 10 11  1  0
 11 12  2  0
 11 13  1  0
 13 14  1  0
 15 14  1  1
 15 16  1  0
 16  7  1  0
 17 15  1  0
 17 18  2  0
 19 20  1  0
 20 21  2  0
 21 22  1  0
 23 22  2  0
 23 24  1  0
 25 24  1  1
 25 26  1  0
 26 17  1  0
 27 25  1  0
 28 27  2  0
 29 23  1  0
 30 20  1  0
 30 29  2  0
 31 27  1  0
M  END
$$$$
