EQY.pdb
     RDKit          3D

 31 31  0  0  1  0  0  0  0  0999 V2000
    8.1068  -12.8766   19.5640 N   0  0  0  0  0  0  0  0  0  0  0  0
    7.4735  -14.1792   19.4922 C   0  0  1  0  0  0  0  0  0  0  0  0
    7.3018  -14.5743   18.0372 C   0  0  0  0  0  0  0  0  0  0  0  0
    8.2192  -13.7966   17.1401 C   0  0  0  0  0  0  0  0  0  0  0  0
    7.9930  -14.2271   15.7371 C   0  0  0  0  0  0  0  0  0  0  0  0
    7.8127  -13.3889   14.8203 O   0  0  0  0  0  0  0  0  0  0  0  0
    8.2657  -15.1867   20.2378 C   0  0  0  0  0  0  0  0  0  0  0  0
    7.8781  -16.3738   20.2302 O   0  0  0  0  0  0  0  0  0  0  0  0
    7.9743  -15.5714   15.3979 O   0  0  0  0  0  0  0  0  0  0  0  0
   14.9775  -15.4495   22.0452 N   0  0  0  0  0  0  0  0  0  0  0  0
   13.9582  -14.8507   21.2371 C   0  0  0  0  0  0  0  0  0  0  0  0
   14.3278  -14.4018   20.1325 O   0  0  0  0  0  0  0  0  0  0  0  0
   12.5716  -14.7585   21.6627 C   0  0  0  0  0  0  0  0  0  0  0  0
   11.6446  -15.8377   21.2712 C   0  0  0  0  0  0  0  0  0  0  0  0
   10.2227  -15.7251   21.6635 C   0  0  2  0  0  0  0  0  0  0  0  0
    9.4420  -14.7807   20.9406 N   0  0  0  0  0  0  0  0  0  0  0  0
   10.0992  -15.5064   23.1521 C   0  0  0  0  0  0  0  0  0  0  0  0
   10.6042  -14.4922   23.6970 O   0  0  0  0  0  0  0  0  0  0  0  0
    6.2076  -10.8334   25.9485 O   0  0  0  0  0  0  0  0  0  0  0  0
    6.6335  -12.1723   25.9349 C   0  0  0  0  0  0  0  0  0  0  0  0
    7.8002  -12.5056   26.6008 C   0  0  0  0  0  0  0  0  0  0  0  0
    8.2088  -13.8219   26.5814 C   0  0  0  0  0  0  0  0  0  0  0  0
    7.5045  -14.7980   25.9314 C   0  0  0  0  0  0  0  0  0  0  0  0
    7.9719  -16.1897   25.9335 C   0  0  0  0  0  0  0  0  0  0  0  0
    9.3730  -16.2748   25.4379 C   0  0  2  0  0  0  0  0  0  0  0  0
    9.4113  -16.4382   23.9740 N   0  0  0  0  0  0  0  0  0  0  0  0
   10.2325  -17.2641   26.0977 C   0  0  0  0  0  0  0  0  0  0  0  0
   10.3354  -17.2172   27.3715 O   0  0  0  0  0  0  0  0  0  0  0  0
    6.3274  -14.4818   25.2552 C   0  0  0  0  0  0  0  0  0  0  0  0
    5.9323  -13.1619   25.2838 C   0  0  0  0  0  0  0  0  0  0  0  0
   10.9560  -18.2612   25.4791 O   0  0  0  0  0  0  0  0  0  0  0  0
  2  3  1  0
  2  1  1  6
  4  3  1  0
  5  4  1  0
  6  5  2  0
  7  2  1  0
  8  7  2  0
  9  5  1  0
 10 11  1  0
 11 12  2  0
 11 13  1  0
 13 14  1  0
 15 14  1  6
 15 16  1  0
 16  7  1  0
 17 15  1  0
 17 18  2  0
 19 20  1  0
 20 21  2  0
 21 22  1  0
 23 22  2  0
 23 24  1  0
 25 24  1  1
 25 26  1  0
 26 17  1  0
 27 25  1  0
 28 27  2  0
 29 23  1  0
 30 20  1  0
 30 29  2  0
 31 27  1  0
M  END
$$$$
