EQY.pdb
     RDKit          3D

 31 31  0  0  1  0  0  0  0  0999 V2000
    8.0201  -13.3186   18.0085 N   0  0  0  0  0  0  0  0  0  0  0  0
    9.0728  -13.9909   18.7453 C   0  0  1  0  0  0  0  0  0  0  0  0
   10.0012  -12.9550   19.3518 C   0  0  0  0  0  0  0  0  0  0  0  0
   11.0835  -12.5526   18.3937 C   0  0  0  0  0  0  0  0  0  0  0  0
   12.1862  -13.5436   18.4755 C   0  0  0  0  0  0  0  0  0  0  0  0
   12.3857  -14.3726   17.5544 O   0  0  0  0  0  0  0  0  0  0  0  0
    8.4978  -14.8784   19.7847 C   0  0  0  0  0  0  0  0  0  0  0  0
    7.3488  -14.6334   20.2080 O   0  0  0  0  0  0  0  0  0  0  0  0
   13.0301  -13.5823   19.5750 O   0  0  0  0  0  0  0  0  0  0  0  0
    8.7431  -21.0882   20.2368 N   0  0  0  0  0  0  0  0  0  0  0  0
    7.9125  -20.1436   19.5525 C   0  0  0  0  0  0  0  0  0  0  0  0
    7.2019  -20.6027   18.6347 O   0  0  0  0  0  0  0  0  0  0  0  0
    7.8881  -18.7301   19.8899 C   0  0  0  0  0  0  0  0  0  0  0  0
    8.7121  -18.2651   21.0222 C   0  0  0  0  0  0  0  0  0  0  0  0
    8.7621  -16.8152   21.3114 C   0  0  2  0  0  0  0  0  0  0  0  0
    9.2635  -15.9819   20.2732 N   0  0  0  0  0  0  0  0  0  0  0  0
    9.4856  -16.5586   22.6113 C   0  0  0  0  0  0  0  0  0  0  0  0
   10.7359  -16.6693   22.6840 O   0  0  0  0  0  0  0  0  0  0  0  0
   11.1732  -14.6615   31.0086 O   0  0  0  0  0  0  0  0  0  0  0  0
   10.5285  -14.8182   29.7700 C   0  0  0  0  0  0  0  0  0  0  0  0
   10.4371  -13.7256   28.9252 C   0  0  0  0  0  0  0  0  0  0  0  0
    9.8028  -13.8903   27.7126 C   0  0  0  0  0  0  0  0  0  0  0  0
    9.2670  -15.0871   27.3228 C   0  0  0  0  0  0  0  0  0  0  0  0
    8.5989  -15.2234   26.0226 C   0  0  0  0  0  0  0  0  0  0  0  0
    9.4839  -15.9160   25.0465 C   0  0  2  0  0  0  0  0  0  0  0  0
    8.7750  -16.1865   23.7833 N   0  0  0  0  0  0  0  0  0  0  0  0
   10.1641  -17.1215   25.5334 C   0  0  0  0  0  0  0  0  0  0  0  0
   11.3845  -17.0165   25.9005 O   0  0  0  0  0  0  0  0  0  0  0  0
    9.3490  -16.1986   28.1598 C   0  0  0  0  0  0  0  0  0  0  0  0
    9.9859  -16.0179   29.3685 C   0  0  0  0  0  0  0  0  0  0  0  0
    9.6171  -18.3822   25.6412 O   0  0  0  0  0  0  0  0  0  0  0  0
  2  3  1  0
  2  1  1  1
  4  3  1  0
  5  4  1  0
  6  5  2  0
  7  2  1  0
  8  7  2  0
  9  5  1  0
 10 11  1  0
 11 12  2  0
 11 13  1  0
 13 14  1  0
 15 14  1  6
 15 16  1  0
 16  7  1  0
 17 15  1  0
 17 18  2  0
 19 20  1  0
 20 21  2  0
 21 22  1  0
 23 22  2  0
 23 24  1  0
 25 24  1  1
 25 26  1  0
 26 17  1  0
 27 25  1  0
 28 27  2  0
 29 23  1  0
 30 20  1  0
 30 29  2  0
 31 27  1  0
M  END
$$$$
