EQY.pdb
     RDKit          3D

 31 31  0  0  1  0  0  0  0  0999 V2000
   10.1077  -19.1462   18.2417 N   0  0  0  0  0  0  0  0  0  0  0  0
    9.8804  -17.7168   18.1515 C   0  0  1  0  0  0  0  0  0  0  0  0
    9.2490  -17.3927   16.8103 C   0  0  0  0  0  0  0  0  0  0  0  0
    9.7023  -18.3424   15.7407 C   0  0  0  0  0  0  0  0  0  0  0  0
    9.5406  -17.6852   14.4190 C   0  0  0  0  0  0  0  0  0  0  0  0
    8.6268  -18.0277   13.6295 O   0  0  0  0  0  0  0  0  0  0  0  0
    9.0339  -17.2507   19.2761 C   0  0  0  0  0  0  0  0  0  0  0  0
    8.6754  -16.0546   19.2959 O   0  0  0  0  0  0  0  0  0  0  0  0
   10.3966  -16.6712   14.0172 O   0  0  0  0  0  0  0  0  0  0  0  0
    4.3544  -20.4123   22.1089 N   0  0  0  0  0  0  0  0  0  0  0  0
    5.6975  -20.9080   22.1390 C   0  0  0  0  0  0  0  0  0  0  0  0
    5.8282  -22.1205   22.4055 O   0  0  0  0  0  0  0  0  0  0  0  0
    6.8521  -20.0638   21.8812 C   0  0  0  0  0  0  0  0  0  0  0  0
    6.6286  -18.6264   21.6337 C   0  0  0  0  0  0  0  0  0  0  0  0
    7.8008  -17.7647   21.3659 C   0  0  2  0  0  0  0  0  0  0  0  0
    8.6519  -18.1708   20.3007 N   0  0  0  0  0  0  0  0  0  0  0  0
    8.5886  -17.5327   22.6327 C   0  0  0  0  0  0  0  0  0  0  0  0
    9.2059  -18.4767   23.1879 O   0  0  0  0  0  0  0  0  0  0  0  0
   10.4510  -14.1157   30.4803 O   0  0  0  0  0  0  0  0  0  0  0  0
   10.0980  -14.2601   29.1279 C   0  0  0  0  0  0  0  0  0  0  0  0
    8.8497  -13.8260   28.7167 C   0  0  0  0  0  0  0  0  0  0  0  0
    8.5137  -13.9722   27.3879 C   0  0  0  0  0  0  0  0  0  0  0  0
    9.3666  -14.5268   26.4734 C   0  0  0  0  0  0  0  0  0  0  0  0
    8.9726  -14.6653   25.0660 C   0  0  0  0  0  0  0  0  0  0  0  0
    9.1400  -16.0720   24.6089 C   0  0  2  0  0  0  0  0  0  0  0  0
    8.6528  -16.2454   23.2290 N   0  0  0  0  0  0  0  0  0  0  0  0
    8.5913  -17.1077   25.4916 C   0  0  0  0  0  0  0  0  0  0  0  0
    9.4112  -17.8078   26.1793 O   0  0  0  0  0  0  0  0  0  0  0  0
   10.6277  -14.9697   26.8685 C   0  0  0  0  0  0  0  0  0  0  0  0
   10.9487  -14.8168   28.1999 C   0  0  0  0  0  0  0  0  0  0  0  0
    7.2582  -17.4133   25.6642 O   0  0  0  0  0  0  0  0  0  0  0  0
  2  3  1  0
  2  1  1  1
  4  3  1  0
  5  4  1  0
  6  5  2  0
  7  2  1  0
  8  7  2  0
  9  5  1  0
 10 11  1  0
 11 12  2  0
 11 13  1  0
 13 14  1  0
 15 14  1  1
 15 16  1  0
 16  7  1  0
 17 15  1  0
 17 18  2  0
 19 20  1  0
 20 21  2  0
 21 22  1  0
 23 22  2  0
 23 24  1  0
 25 24  1  1
 25 26  1  0
 26 17  1  0
 27 25  1  0
 28 27  2  0
 29 23  1  0
 30 20  1  0
 30 29  2  0
 31 27  1  0
M  END
$$$$
