EQY.pdb
     RDKit          3D

 31 31  0  0  1  0  0  0  0  0999 V2000
    8.5726  -14.2008   18.8227 N   0  0  0  0  0  0  0  0  0  0  0  0
    8.0785  -15.5546   18.6614 C   0  0  1  0  0  0  0  0  0  0  0  0
    8.2579  -15.9856   17.2175 C   0  0  0  0  0  0  0  0  0  0  0  0
    7.6830  -14.9800   16.2637 C   0  0  0  0  0  0  0  0  0  0  0  0
    7.7577  -15.5311   14.8869 C   0  0  0  0  0  0  0  0  0  0  0  0
    8.6108  -15.1156   14.0652 O   0  0  0  0  0  0  0  0  0  0  0  0
    8.7706  -16.4775   19.5928 C   0  0  0  0  0  0  0  0  0  0  0  0
    8.5123  -17.6974   19.5243 O   0  0  0  0  0  0  0  0  0  0  0  0
    6.8848  -16.5233   14.4675 O   0  0  0  0  0  0  0  0  0  0  0  0
   14.0708  -18.6987   19.7085 N   0  0  0  0  0  0  0  0  0  0  0  0
   13.6108  -19.0105   21.0282 C   0  0  0  0  0  0  0  0  0  0  0  0
   14.3086  -19.8184   21.6751 O   0  0  0  0  0  0  0  0  0  0  0  0
   12.4038  -18.4334   21.5959 C   0  0  0  0  0  0  0  0  0  0  0  0
   11.6452  -17.4591   20.7880 C   0  0  0  0  0  0  0  0  0  0  0  0
   10.4498  -16.8243   21.3851 C   0  0  2  0  0  0  0  0  0  0  0  0
    9.7074  -15.9557   20.5376 N   0  0  0  0  0  0  0  0  0  0  0  0
   10.8047  -16.1431   22.6847 C   0  0  0  0  0  0  0  0  0  0  0  0
   11.5721  -15.1474   22.7001 O   0  0  0  0  0  0  0  0  0  0  0  0
    6.0143  -11.4449   27.8639 O   0  0  0  0  0  0  0  0  0  0  0  0
    6.6821  -12.2872   26.9591 C   0  0  0  0  0  0  0  0  0  0  0  0
    6.1440  -12.4664   25.6965 C   0  0  0  0  0  0  0  0  0  0  0  0
    6.8071  -13.2946   24.8166 C   0  0  0  0  0  0  0  0  0  0  0  0
    7.9679  -13.9376   25.1492 C   0  0  0  0  0  0  0  0  0  0  0  0
    8.6456  -14.8120   24.1841 C   0  0  0  0  0  0  0  0  0  0  0  0
    9.6409  -15.6807   24.8698 C   0  0  2  0  0  0  0  0  0  0  0  0
   10.2824  -16.6078   23.9209 N   0  0  0  0  0  0  0  0  0  0  0  0
    9.1636  -16.3961   26.0587 C   0  0  0  0  0  0  0  0  0  0  0  0
    9.2922  -15.8254   27.1958 O   0  0  0  0  0  0  0  0  0  0  0  0
    8.5250  -13.7697   26.4157 C   0  0  0  0  0  0  0  0  0  0  0  0
    7.8503  -12.9389   27.2838 C   0  0  0  0  0  0  0  0  0  0  0  0
    8.5775  -17.6436   26.0824 O   0  0  0  0  0  0  0  0  0  0  0  0
  2  3  1  0
  2  1  1  6
  4  3  1  0
  5  4  1  0
  6  5  2  0
  7  2  1  0
  8  7  2  0
  9  5  1  0
 10 11  1  0
 11 12  2  0
 11 13  1  0
 13 14  1  0
 15 14  1  6
 15 16  1  0
 16  7  1  0
 17 15  1  0
 17 18  2  0
 19 20  1  0
 20 21  2  0
 21 22  1  0
 23 22  2  0
 23 24  1  0
 25 24  1  6
 25 26  1  0
 26 17  1  0
 27 25  1  0
 28 27  2  0
 29 23  1  0
 30 20  1  0
 30 29  2  0
 31 27  1  0
M  END
$$$$
