RSK.pdb
     RDKit          3D

 27 26  0  0  1  0  0  0  0  0999 V2000
    9.8278  -16.8203   13.6904 N   0  0  0  0  0  0  0  0  0  0  0  0
   10.0414  -17.4217   14.9482 C   0  0  0  0  0  0  0  0  0  0  0  0
   11.1748  -17.9082   15.2670 N   0  0  0  0  0  0  0  0  0  0  0  0
    8.9861  -17.5144   15.8766 N   0  0  0  0  0  0  0  0  0  0  0  0
    8.0240  -16.4781   16.1464 C   0  0  0  0  0  0  0  0  0  0  0  0
    8.5648  -15.2381   16.7441 C   0  0  0  0  0  0  0  0  0  0  0  0
    8.8166  -15.1387   18.1857 C   0  0  0  0  0  0  0  0  0  0  0  0
    8.1896  -14.0303   18.9466 C   0  0  2  0  0  0  0  0  0  0  0  0
    8.1409  -12.7425   18.3993 N   0  0  0  0  0  0  0  0  0  0  0  0
    8.7353  -14.0364   20.3573 C   0  0  0  0  0  0  0  0  0  0  0  0
    9.9115  -13.6260   20.4981 O   0  0  0  0  0  0  0  0  0  0  0  0
   11.4343  -18.3955   16.1452 O   0  0  0  0  0  0  0  0  0  0  0  0
    6.4821  -15.3073   23.6408 C   0  0  0  0  0  0  0  0  0  0  0  0
    7.4943  -14.3576   23.8068 C   0  0  1  0  0  0  0  0  0  0  0  0
    8.6041  -14.5748   22.8062 N   0  0  0  0  0  0  0  0  0  0  0  0
    8.0191  -14.4638   21.4800 C   0  0  0  0  0  0  0  0  0  0  0  0
    9.2821  -15.8834   23.0041 O   0  0  0  0  0  0  0  0  0  0  0  0
    9.1462  -16.8857   22.2880 N   0  0  0  0  0  0  0  0  0  0  0  0
   10.1643  -15.9868   24.1160 C   0  0  1  0  0  0  0  0  0  0  0  0
   10.8211  -17.2122   24.4706 C   0  0  0  0  0  0  0  0  0  0  0  0
   12.2063  -17.4166   24.0114 C   0  0  0  0  0  0  0  0  0  0  0  0
   12.9791  -18.6013   24.3742 C   0  0  0  0  0  0  0  0  0  0  0  0
   14.4001  -18.6815   23.9265 C   0  0  0  0  0  0  0  0  0  0  0  0
   14.9548  -20.0487   24.3442 N   0  0  0  0  0  0  0  0  0  0  0  0
   16.3525  -20.1113   23.9916 C   0  0  0  0  0  0  0  0  0  0  0  0
   10.5759  -17.6077   25.8720 O   0  0  0  0  0  0  0  0  0  0  0  0
   10.0340  -16.7834   26.6369 O   0  0  0  0  0  0  0  0  0  0  0  0
  2  3  2  0
  2  1  1  0
  4  5  1  0
  4  2  1  0
  6  5  1  0
  7  6  1  0
  8  7  1  0
  8 10  1  0
  8  9  1  6
 10 11  2  0
 14 13  1  6
 13 12  1  0
 15 14  1  0
 15 10  1  0
 16 17  2  0
 16 14  1  0
 18 16  1  0
 19 25  1  0
 19 18  1  0
 19 20  1  1
 21 20  1  0
 22 21  1  0
 23 24  1  0
 23 22  1  0
 25 27  1  0
 26 25  2  0
M  END
$$$$
