RSK.pdb
     RDKit          3D

 27 26  0  0  1  0  0  0  0  0999 V2000
    7.1174  -14.6359   18.5001 N   0  0  0  0  0  0  0  0  0  0  0  0
    7.7527  -13.5926   17.7949 C   0  0  0  0  0  0  0  0  0  0  0  0
    7.4802  -13.3557   16.5732 N   0  0  0  0  0  0  0  0  0  0  0  0
    8.7267  -12.7986   18.4315 N   0  0  0  0  0  0  0  0  0  0  0  0
    9.5134  -13.2015   19.5678 C   0  0  0  0  0  0  0  0  0  0  0  0
   10.2638  -14.4666   19.4146 C   0  0  0  0  0  0  0  0  0  0  0  0
   10.0519  -15.5898   20.3339 C   0  0  0  0  0  0  0  0  0  0  0  0
   10.9676  -16.7547   20.2630 C   0  0  2  0  0  0  0  0  0  0  0  0
   11.0498  -17.5127   19.0886 N   0  0  0  0  0  0  0  0  0  0  0  0
   10.7601  -17.6144   21.4901 C   0  0  0  0  0  0  0  0  0  0  0  0
    9.5842  -17.9877   21.7126 O   0  0  0  0  0  0  0  0  0  0  0  0
    7.7982  -12.5566   15.9933 O   0  0  0  0  0  0  0  0  0  0  0  0
   12.2533  -20.7297   22.0399 C   0  0  0  0  0  0  0  0  0  0  0  0
   11.2259  -20.2699   22.8688 C   0  0  1  0  0  0  0  0  0  0  0  0
   11.5778  -18.9288   23.4669 N   0  0  0  0  0  0  0  0  0  0  0  0
   11.7800  -18.0028   22.3648 C   0  0  0  0  0  0  0  0  0  0  0  0
   12.7731  -19.0100   24.3479 O   0  0  0  0  0  0  0  0  0  0  0  0
   13.8735  -19.4860   24.0343 N   0  0  0  0  0  0  0  0  0  0  0  0
   12.6342  -18.4929   25.6664 C   0  0  2  0  0  0  0  0  0  0  0  0
   13.1583  -19.1660   26.8201 C   0  0  0  0  0  0  0  0  0  0  0  0
   12.2045  -19.6715   27.8231 C   0  0  0  0  0  0  0  0  0  0  0  0
   12.6330  -20.4567   28.9773 C   0  0  0  0  0  0  0  0  0  0  0  0
   11.5842  -21.0174   29.8783 C   0  0  0  0  0  0  0  0  0  0  0  0
   12.2858  -21.7544   31.0255 N   0  0  0  0  0  0  0  0  0  0  0  0
   11.2858  -22.2592   31.9348 C   0  0  0  0  0  0  0  0  0  0  0  0
   14.2518  -20.1014   26.4887 O   0  0  0  0  0  0  0  0  0  0  0  0
   13.9794  -21.1258   25.8294 O   0  0  0  0  0  0  0  0  0  0  0  0
  2  3  2  0
  2  1  1  0
  4  5  1  0
  4  2  1  0
  6  5  1  0
  7  6  1  0
  8  7  1  0
  8 10  1  0
  8  9  1  6
 10 11  2  0
 14 13  1  1
 13 12  1  0
 15 14  1  0
 15 10  1  0
 16 17  2  0
 16 14  1  0
 18 16  1  0
 19 25  1  0
 19 18  1  0
 19 20  1  6
 21 20  1  0
 22 21  1  0
 23 24  1  0
 23 22  1  0
 25 27  1  0
 26 25  2  0
M  END
$$$$
