RSK.pdb
     RDKit          3D

 27 26  0  0  1  0  0  0  0  0999 V2000
   17.8061  -19.9446   17.5927 N   0  0  0  0  0  0  0  0  0  0  0  0
   18.2883  -20.8318   16.6080 C   0  0  0  0  0  0  0  0  0  0  0  0
   19.4426  -20.6840   16.0899 N   0  0  0  0  0  0  0  0  0  0  0  0
   17.4831  -21.8973   16.1600 N   0  0  0  0  0  0  0  0  0  0  0  0
   16.0460  -21.8743   16.0772 C   0  0  0  0  0  0  0  0  0  0  0  0
   15.3296  -21.7412   17.3642 C   0  0  0  0  0  0  0  0  0  0  0  0
   13.8646  -21.6867   17.4141 C   0  0  0  0  0  0  0  0  0  0  0  0
   13.2007  -20.3633   17.5049 C   0  0  2  0  0  0  0  0  0  0  0  0
   13.5576  -19.3367   16.6222 N   0  0  0  0  0  0  0  0  0  0  0  0
   13.2089  -19.9108   18.9482 C   0  0  0  0  0  0  0  0  0  0  0  0
   14.2881  -19.4351   19.3735 O   0  0  0  0  0  0  0  0  0  0  0  0
   19.9072  -21.2888   15.3868 O   0  0  0  0  0  0  0  0  0  0  0  0
    9.9568  -20.4257   21.6019 C   0  0  0  0  0  0  0  0  0  0  0  0
   10.7018  -19.2430   21.5854 C   0  0  1  0  0  0  0  0  0  0  0  0
   12.1312  -19.5141   21.1809 N   0  0  0  0  0  0  0  0  0  0  0  0
   12.1094  -19.9932   19.8087 C   0  0  0  0  0  0  0  0  0  0  0  0
   12.7928  -20.4828   22.0949 O   0  0  0  0  0  0  0  0  0  0  0  0
   13.0545  -21.6652   21.8314 N   0  0  0  0  0  0  0  0  0  0  0  0
   13.1553  -20.0028   23.3846 C   0  0  1  0  0  0  0  0  0  0  0  0
   13.9515  -20.7696   24.2994 C   0  0  0  0  0  0  0  0  0  0  0  0
   15.4054  -20.8358   24.0688 C   0  0  0  0  0  0  0  0  0  0  0  0
   16.2873  -21.6551   24.8953 C   0  0  0  0  0  0  0  0  0  0  0  0
   17.7460  -21.6597   24.5815 C   0  0  0  0  0  0  0  0  0  0  0  0
   18.4469  -22.5811   25.5871 N   0  0  0  0  0  0  0  0  0  0  0  0
   19.8533  -22.6324   25.2694 C   0  0  0  0  0  0  0  0  0  0  0  0
   13.5638  -20.5606   25.7088 O   0  0  0  0  0  0  0  0  0  0  0  0
   12.9160  -19.5347   26.0021 O   0  0  0  0  0  0  0  0  0  0  0  0
  2  3  2  0
  2  1  1  0
  4  5  1  0
  4  2  1  0
  6  5  1  0
  7  6  1  0
  8  7  1  0
  8 10  1  0
  8  9  1  6
 10 11  2  0
 14 13  1  6
 13 12  1  0
 15 14  1  0
 15 10  1  0
 16 17  2  0
 16 14  1  0
 18 16  1  0
 19 25  1  0
 19 18  1  0
 19 20  1  1
 21 20  1  0
 22 21  1  0
 23 24  1  0
 23 22  1  0
 25 27  1  0
 26 25  2  0
M  END
$$$$
