RSK.pdb
     RDKit          3D

 27 26  0  0  1  0  0  0  0  0999 V2000
   16.4651  -18.8764   21.0726 N   0  0  0  0  0  0  0  0  0  0  0  0
   15.5919  -19.9837   21.0452 C   0  0  0  0  0  0  0  0  0  0  0  0
   15.5721  -20.8364   21.9914 N   0  0  0  0  0  0  0  0  0  0  0  0
   14.7311  -20.1792   19.9475 N   0  0  0  0  0  0  0  0  0  0  0  0
   14.6912  -19.3566   18.7667 C   0  0  0  0  0  0  0  0  0  0  0  0
   13.3569  -18.8479   18.3818 C   0  0  0  0  0  0  0  0  0  0  0  0
   12.5418  -18.0708   19.3217 C   0  0  0  0  0  0  0  0  0  0  0  0
   11.1926  -17.6232   18.8979 C   0  0  2  0  0  0  0  0  0  0  0  0
   11.0424  -16.8365   17.7494 N   0  0  0  0  0  0  0  0  0  0  0  0
   10.4734  -17.0399   20.0938 C   0  0  0  0  0  0  0  0  0  0  0  0
   10.5071  -15.7917   20.2058 O   0  0  0  0  0  0  0  0  0  0  0  0
   15.0106  -21.7064   22.0529 O   0  0  0  0  0  0  0  0  0  0  0  0
    8.1597  -19.3473   22.7271 C   0  0  0  0  0  0  0  0  0  0  0  0
    7.8416  -18.0236   22.4098 C   0  0  1  0  0  0  0  0  0  0  0  0
    9.0934  -17.2096   22.1844 N   0  0  0  0  0  0  0  0  0  0  0  0
    9.7937  -17.7965   21.0539 C   0  0  0  0  0  0  0  0  0  0  0  0
    9.9491  -17.1587   23.3996 O   0  0  0  0  0  0  0  0  0  0  0  0
   10.9679  -17.8361   23.5974 N   0  0  0  0  0  0  0  0  0  0  0  0
    9.5580  -16.2489   24.4215 C   0  0  1  0  0  0  0  0  0  0  0  0
   10.1412  -16.2612   25.7324 C   0  0  0  0  0  0  0  0  0  0  0  0
    9.7312  -15.2150   26.6856 C   0  0  0  0  0  0  0  0  0  0  0  0
   10.2369  -15.1689   28.0548 C   0  0  0  0  0  0  0  0  0  0  0  0
    9.9795  -13.9403   28.8613 C   0  0  0  0  0  0  0  0  0  0  0  0
   10.5469  -14.1662   30.2679 N   0  0  0  0  0  0  0  0  0  0  0  0
   10.2199  -13.0266   31.0902 C   0  0  0  0  0  0  0  0  0  0  0  0
   10.2219  -17.6180   26.3096 O   0  0  0  0  0  0  0  0  0  0  0  0
    9.2062  -18.3426   26.2712 O   0  0  0  0  0  0  0  0  0  0  0  0
  2  3  2  0
  2  1  1  0
  4  5  1  0
  4  2  1  0
  6  5  1  0
  7  6  1  0
  8  7  1  0
  8 10  1  0
  8  9  1  6
 10 11  2  0
 14 13  1  6
 13 12  1  0
 15 14  1  0
 15 10  1  0
 16 17  2  0
 16 14  1  0
 18 16  1  0
 19 25  1  0
 19 18  1  0
 19 20  1  1
 21 20  1  0
 22 21  1  0
 23 24  1  0
 23 22  1  0
 25 27  1  0
 26 25  2  0
M  END
$$$$
