RSK.pdb
     RDKit          3D

 27 26  0  0  1  0  0  0  0  0999 V2000
    9.3821  -16.8282   15.2033 N   0  0  0  0  0  0  0  0  0  0  0  0
    8.1322  -17.4784   15.2700 C   0  0  0  0  0  0  0  0  0  0  0  0
    7.8295  -18.4180   14.4649 N   0  0  0  0  0  0  0  0  0  0  0  0
    7.1777  -17.0804   16.2265 N   0  0  0  0  0  0  0  0  0  0  0  0
    7.1724  -15.8183   16.9189 C   0  0  0  0  0  0  0  0  0  0  0  0
    8.4499  -15.4270   17.5528 C   0  0  0  0  0  0  0  0  0  0  0  0
    8.5556  -15.2617   19.0065 C   0  0  0  0  0  0  0  0  0  0  0  0
    8.0275  -14.0215   19.6257 C   0  0  2  0  0  0  0  0  0  0  0  0
    8.1599  -12.7949   18.9637 N   0  0  0  0  0  0  0  0  0  0  0  0
    8.4969  -13.9545   21.0620 C   0  0  0  0  0  0  0  0  0  0  0  0
    9.7057  -13.6717   21.2372 O   0  0  0  0  0  0  0  0  0  0  0  0
    6.9327  -18.9352   14.3982 O   0  0  0  0  0  0  0  0  0  0  0  0
    6.0408  -14.9835   24.3806 C   0  0  0  0  0  0  0  0  0  0  0  0
    7.0831  -14.0574   24.4811 C   0  0  1  0  0  0  0  0  0  0  0  0
    8.1947  -14.3927   23.5157 N   0  0  0  0  0  0  0  0  0  0  0  0
    7.6788  -14.1855   22.1726 C   0  0  0  0  0  0  0  0  0  0  0  0
    8.6976  -15.7789   23.7076 O   0  0  0  0  0  0  0  0  0  0  0  0
    8.6574  -16.6875   22.8658 N   0  0  0  0  0  0  0  0  0  0  0  0
    9.2757  -16.0819   24.9722 C   0  0  1  0  0  0  0  0  0  0  0  0
   10.0517  -17.2664   25.2038 C   0  0  0  0  0  0  0  0  0  0  0  0
   11.1535  -17.5687   24.2732 C   0  0  0  0  0  0  0  0  0  0  0  0
   12.0165  -18.7344   24.4421 C   0  0  0  0  0  0  0  0  0  0  0  0
   13.1088  -18.9539   23.4498 C   0  0  0  0  0  0  0  0  0  0  0  0
   13.8200  -20.2649   23.8061 N   0  0  0  0  0  0  0  0  0  0  0  0
   14.8301  -20.5317   22.8110 C   0  0  0  0  0  0  0  0  0  0  0  0
   10.3825  -17.4637   26.6293 O   0  0  0  0  0  0  0  0  0  0  0  0
   10.2224  -16.5073   27.4153 O   0  0  0  0  0  0  0  0  0  0  0  0
  2  3  2  0
  2  1  1  0
  4  5  1  0
  4  2  1  0
  6  5  1  0
  7  6  1  0
  8  7  1  0
  8 10  1  0
  8  9  1  6
 10 11  2  0
 14 13  1  1
 13 12  1  0
 15 14  1  0
 15 10  1  0
 16 17  2  0
 16 14  1  0
 18 16  1  0
 19 25  1  0
 19 18  1  0
 19 20  1  1
 21 20  1  0
 22 21  1  0
 23 24  1  0
 23 22  1  0
 25 27  1  0
 26 25  2  0
M  END
$$$$
