RSK.pdb
     RDKit          3D

 27 26  0  0  1  0  0  0  0  0999 V2000
   11.0322  -17.2610   16.8938 N   0  0  0  0  0  0  0  0  0  0  0  0
   10.8485  -16.8112   15.5696 C   0  0  0  0  0  0  0  0  0  0  0  0
   11.5600  -17.2587   14.6124 N   0  0  0  0  0  0  0  0  0  0  0  0
    9.8772  -15.8320   15.2832 N   0  0  0  0  0  0  0  0  0  0  0  0
    9.1973  -15.0254   16.2627 C   0  0  0  0  0  0  0  0  0  0  0  0
    9.8814  -14.8835   17.5661 C   0  0  0  0  0  0  0  0  0  0  0  0
    9.3205  -14.0426   18.6291 C   0  0  0  0  0  0  0  0  0  0  0  0
    7.8532  -14.0487   18.8467 C   0  0  2  0  0  0  0  0  0  0  0  0
    7.0555  -13.0462   18.2818 N   0  0  0  0  0  0  0  0  0  0  0  0
    7.5791  -14.2402   20.3218 C   0  0  0  0  0  0  0  0  0  0  0  0
    7.6156  -13.2068   21.0308 O   0  0  0  0  0  0  0  0  0  0  0  0
   11.5584  -16.9532   13.6211 O   0  0  0  0  0  0  0  0  0  0  0  0
    6.6681  -17.9883   22.1424 C   0  0  0  0  0  0  0  0  0  0  0  0
    6.0535  -16.7801   22.4838 C   0  0  1  0  0  0  0  0  0  0  0  0
    7.0175  -15.6270   22.3381 N   0  0  0  0  0  0  0  0  0  0  0  0
    7.2963  -15.4725   20.9199 C   0  0  0  0  0  0  0  0  0  0  0  0
    8.2603  -15.8391   23.1266 O   0  0  0  0  0  0  0  0  0  0  0  0
    9.3668  -16.1530   22.6649 N   0  0  0  0  0  0  0  0  0  0  0  0
    8.1636  -15.6637   24.5355 C   0  0  1  0  0  0  0  0  0  0  0  0
    9.2720  -15.8828   25.4199 C   0  0  0  0  0  0  0  0  0  0  0  0
    9.3600  -15.0624   26.6407 C   0  0  0  0  0  0  0  0  0  0  0  0
   10.4438  -15.2192   27.6067 C   0  0  0  0  0  0  0  0  0  0  0  0
   10.4903  -14.2894   28.7726 C   0  0  0  0  0  0  0  0  0  0  0  0
   11.7148  -14.6508   29.6219 N   0  0  0  0  0  0  0  0  0  0  0  0
   11.8044  -13.7268   30.7263 C   0  0  0  0  0  0  0  0  0  0  0  0
    9.5678  -17.3153   25.6221 O   0  0  0  0  0  0  0  0  0  0  0  0
    8.6122  -18.1071   25.7568 O   0  0  0  0  0  0  0  0  0  0  0  0
  2  3  2  0
  2  1  1  0
  4  5  1  0
  4  2  1  0
  6  5  1  0
  7  6  1  0
  8  7  1  0
  8 10  1  0
  8  9  1  1
 10 11  2  0
 14 13  1  6
 13 12  1  0
 15 14  1  0
 15 10  1  0
 16 17  2  0
 16 14  1  0
 18 16  1  0
 19 25  1  0
 19 18  1  0
 19 20  1  1
 21 20  1  0
 22 21  1  0
 23 24  1  0
 23 22  1  0
 25 27  1  0
 26 25  2  0
M  END
$$$$
