RSK.pdb
     RDKit          3D

 27 26  0  0  1  0  0  0  0  0999 V2000
    6.7117  -12.6638   18.4909 N   0  0  0  0  0  0  0  0  0  0  0  0
    7.6864  -13.1730   17.6076 C   0  0  0  0  0  0  0  0  0  0  0  0
    7.9582  -12.5861   16.5101 N   0  0  0  0  0  0  0  0  0  0  0  0
    8.3691  -14.3653   17.9182 N   0  0  0  0  0  0  0  0  0  0  0  0
    8.2616  -15.0840   19.1609 C   0  0  0  0  0  0  0  0  0  0  0  0
    7.3094  -14.5270   20.1459 C   0  0  0  0  0  0  0  0  0  0  0  0
    6.4225  -15.4012   20.9211 C   0  0  0  0  0  0  0  0  0  0  0  0
    6.9758  -16.6504   21.4990 C   0  0  2  0  0  0  0  0  0  0  0  0
    6.1783  -17.7980   21.5841 N   0  0  0  0  0  0  0  0  0  0  0  0
    7.6557  -16.3228   22.8098 C   0  0  0  0  0  0  0  0  0  0  0  0
    7.8184  -15.1052   23.0604 O   0  0  0  0  0  0  0  0  0  0  0  0
    8.6934  -12.8330   15.8212 O   0  0  0  0  0  0  0  0  0  0  0  0
    6.5116  -16.7221   26.0134 C   0  0  0  0  0  0  0  0  0  0  0  0
    7.6967  -16.0371   25.7295 C   0  0  1  0  0  0  0  0  0  0  0  0
    8.6797  -16.9363   25.0187 N   0  0  0  0  0  0  0  0  0  0  0  0
    8.1005  -17.2776   23.7299 C   0  0  0  0  0  0  0  0  0  0  0  0
    9.0032  -18.1476   25.8183 O   0  0  0  0  0  0  0  0  0  0  0  0
    8.3170  -19.1775   25.8835 N   0  0  0  0  0  0  0  0  0  0  0  0
   10.2094  -18.1145   26.5728 C   0  0  1  0  0  0  0  0  0  0  0  0
   10.7576  -19.2797   27.2058 C   0  0  0  0  0  0  0  0  0  0  0  0
   12.1203  -19.6977   26.8319 C   0  0  0  0  0  0  0  0  0  0  0  0
   12.7532  -20.8845   27.4005 C   0  0  0  0  0  0  0  0  0  0  0  0
   14.1750  -21.1648   27.0457 C   0  0  0  0  0  0  0  0  0  0  0  0
   14.5769  -22.4919   27.7006 N   0  0  0  0  0  0  0  0  0  0  0  0
   15.9641  -22.7557   27.4045 C   0  0  0  0  0  0  0  0  0  0  0  0
   10.4782  -19.3281   28.6549 O   0  0  0  0  0  0  0  0  0  0  0  0
   10.3118  -18.2520   29.2653 O   0  0  0  0  0  0  0  0  0  0  0  0
  2  3  2  0
  2  1  1  0
  4  5  1  0
  4  2  1  0
  6  5  1  0
  7  6  1  0
  8  7  1  0
  8 10  1  0
  8  9  1  1
 10 11  2  0
 14 13  1  6
 13 12  1  0
 15 14  1  0
 15 10  1  0
 16 17  2  0
 16 14  1  0
 18 16  1  0
 19 25  1  0
 19 18  1  0
 19 20  1  1
 21 20  1  0
 22 21  1  0
 23 24  1  0
 23 22  1  0
 25 27  1  0
 26 25  2  0
M  END
$$$$
