RSK.pdb
     RDKit          3D

 27 26  0  0  1  0  0  0  0  0999 V2000
    7.8572  -14.8951   13.2508 N   0  0  0  0  0  0  0  0  0  0  0  0
    7.9616  -14.4065   14.5698 C   0  0  0  0  0  0  0  0  0  0  0  0
    8.4460  -13.2538   14.8137 N   0  0  0  0  0  0  0  0  0  0  0  0
    7.5463  -15.2032   15.6546 N   0  0  0  0  0  0  0  0  0  0  0  0
    8.4092  -15.7165   16.6862 C   0  0  0  0  0  0  0  0  0  0  0  0
    9.2373  -14.7136   17.3903 C   0  0  0  0  0  0  0  0  0  0  0  0
    9.4869  -14.8140   18.8322 C   0  0  0  0  0  0  0  0  0  0  0  0
    8.4443  -14.3373   19.7736 C   0  0  2  0  0  0  0  0  0  0  0  0
    7.7811  -13.1279   19.5330 N   0  0  0  0  0  0  0  0  0  0  0  0
    8.9815  -14.4290   21.1845 C   0  0  0  0  0  0  0  0  0  0  0  0
   10.2138  -14.6309   21.2961 O   0  0  0  0  0  0  0  0  0  0  0  0
    8.7322  -12.8646   15.7317 O   0  0  0  0  0  0  0  0  0  0  0  0
    6.4673  -14.4766   24.4742 C   0  0  0  0  0  0  0  0  0  0  0  0
    7.7191  -13.8759   24.6366 C   0  0  1  0  0  0  0  0  0  0  0  0
    8.7275  -14.4693   23.6821 N   0  0  0  0  0  0  0  0  0  0  0  0
    8.1997  -14.3053   22.3377 C   0  0  0  0  0  0  0  0  0  0  0  0
    9.0154  -15.8946   23.9937 O   0  0  0  0  0  0  0  0  0  0  0  0
    8.5275  -16.8758   23.4147 N   0  0  0  0  0  0  0  0  0  0  0  0
    9.9337  -16.1470   25.0510 C   0  0  1  0  0  0  0  0  0  0  0  0
   10.3367  -17.4722   25.4253 C   0  0  0  0  0  0  0  0  0  0  0  0
   11.4624  -18.0874   24.7002 C   0  0  0  0  0  0  0  0  0  0  0  0
   11.9439  -19.4313   25.0075 C   0  0  0  0  0  0  0  0  0  0  0  0
   13.1005  -19.9620   24.2286 C   0  0  0  0  0  0  0  0  0  0  0  0
   13.4390  -21.3567   24.7686 N   0  0  0  0  0  0  0  0  0  0  0  0
   14.5097  -21.9144   23.9786 C   0  0  0  0  0  0  0  0  0  0  0  0
   10.3708  -17.6677   26.8886 O   0  0  0  0  0  0  0  0  0  0  0  0
   10.2605  -16.6663   27.6256 O   0  0  0  0  0  0  0  0  0  0  0  0
  2  3  2  0
  2  1  1  0
  4  5  1  0
  4  2  1  0
  6  5  1  0
  7  6  1  0
  8  7  1  0
  8 10  1  0
  8  9  1  6
 10 11  2  0
 14 13  1  6
 13 12  1  0
 15 14  1  0
 15 10  1  0
 16 17  2  0
 16 14  1  0
 18 16  1  0
 19 25  1  0
 19 18  1  0
 19 20  1  1
 21 20  1  0
 22 21  1  0
 23 24  1  0
 23 22  1  0
 25 27  1  0
 26 25  2  0
M  END
$$$$
