RSK.pdb
     RDKit          3D

 27 26  0  0  1  0  0  0  0  0999 V2000
   11.5652  -18.3263   14.8488 N   0  0  0  0  0  0  0  0  0  0  0  0
   11.3669  -17.1585   14.0831 C   0  0  0  0  0  0  0  0  0  0  0  0
   10.6780  -17.1769   13.0117 N   0  0  0  0  0  0  0  0  0  0  0  0
   11.9520  -15.9415   14.4840 N   0  0  0  0  0  0  0  0  0  0  0  0
   11.5838  -15.1890   15.6548 C   0  0  0  0  0  0  0  0  0  0  0  0
   10.8464  -15.9380   16.6952 C   0  0  0  0  0  0  0  0  0  0  0  0
   10.3607  -15.2716   17.9083 C   0  0  0  0  0  0  0  0  0  0  0  0
    8.9435  -14.8373   17.9674 C   0  0  2  0  0  0  0  0  0  0  0  0
    8.4651  -13.8778   17.0669 N   0  0  0  0  0  0  0  0  0  0  0  0
    8.5933  -14.5070   19.4012 C   0  0  0  0  0  0  0  0  0  0  0  0
    9.0113  -13.4072   19.8343 O   0  0  0  0  0  0  0  0  0  0  0  0
   10.4085  -16.3729   12.4141 O   0  0  0  0  0  0  0  0  0  0  0  0
    6.1508  -16.9600   21.7640 C   0  0  0  0  0  0  0  0  0  0  0  0
    6.1159  -15.5665   21.8700 C   0  0  1  0  0  0  0  0  0  0  0  0
    7.4783  -14.9731   21.6020 N   0  0  0  0  0  0  0  0  0  0  0  0
    7.8506  -15.3389   20.2453 C   0  0  0  0  0  0  0  0  0  0  0  0
    8.4876  -15.4286   22.5947 O   0  0  0  0  0  0  0  0  0  0  0  0
    9.4736  -16.1390   22.3519 N   0  0  0  0  0  0  0  0  0  0  0  0
    8.2986  -15.0072   23.9408 C   0  0  1  0  0  0  0  0  0  0  0  0
    9.1679  -15.4136   25.0075 C   0  0  0  0  0  0  0  0  0  0  0  0
    9.1438  -14.6356   26.2586 C   0  0  0  0  0  0  0  0  0  0  0  0
   10.0102  -14.9549   27.3899 C   0  0  0  0  0  0  0  0  0  0  0  0
    9.8651  -14.1519   28.6389 C   0  0  0  0  0  0  0  0  0  0  0  0
   10.8972  -14.6583   29.6537 N   0  0  0  0  0  0  0  0  0  0  0  0
   10.8365  -13.8288   30.8326 C   0  0  0  0  0  0  0  0  0  0  0  0
    9.1943  -16.8778   25.1973 O   0  0  0  0  0  0  0  0  0  0  0  0
    8.1191  -17.5073   25.1214 O   0  0  0  0  0  0  0  0  0  0  0  0
  2  3  2  0
  2  1  1  0
  4  5  1  0
  4  2  1  0
  6  5  1  0
  7  6  1  0
  8  7  1  0
  8 10  1  0
  8  9  1  6
 10 11  2  0
 14 13  1  6
 13 12  1  0
 15 14  1  0
 15 10  1  0
 16 17  2  0
 16 14  1  0
 18 16  1  0
 19 25  1  0
 19 18  1  0
 19 20  1  1
 21 20  1  0
 22 21  1  0
 23 24  1  0
 23 22  1  0
 25 27  1  0
 26 25  2  0
M  END
$$$$
