RSK.pdb
     RDKit          3D

 27 26  0  0  1  0  0  0  0  0999 V2000
    7.9381  -13.2705   16.8596 N   0  0  0  0  0  0  0  0  0  0  0  0
    7.8761  -12.8998   18.2191 C   0  0  0  0  0  0  0  0  0  0  0  0
    8.0516  -11.6926   18.5862 N   0  0  0  0  0  0  0  0  0  0  0  0
    7.6370  -13.8740   19.2080 N   0  0  0  0  0  0  0  0  0  0  0  0
    7.5947  -15.2949   18.9808 C   0  0  0  0  0  0  0  0  0  0  0  0
    8.7813  -15.8757   18.3161 C   0  0  0  0  0  0  0  0  0  0  0  0
   10.0751  -15.9493   19.0035 C   0  0  0  0  0  0  0  0  0  0  0  0
   10.2255  -16.8820   20.1470 C   0  0  2  0  0  0  0  0  0  0  0  0
    9.6849  -18.1717   20.0770 N   0  0  0  0  0  0  0  0  0  0  0  0
    9.8357  -16.1623   21.4189 C   0  0  0  0  0  0  0  0  0  0  0  0
   10.3627  -15.0399   21.6041 O   0  0  0  0  0  0  0  0  0  0  0  0
    8.0135  -11.3079   19.5488 O   0  0  0  0  0  0  0  0  0  0  0  0
    7.0543  -17.6916   24.1826 C   0  0  0  0  0  0  0  0  0  0  0  0
    7.2089  -16.3182   23.9730 C   0  0  1  0  0  0  0  0  0  0  0  0
    8.6389  -15.9864   23.6191 N   0  0  0  0  0  0  0  0  0  0  0  0
    8.9455  -16.6675   22.3721 C   0  0  0  0  0  0  0  0  0  0  0  0
    9.5821  -16.3670   24.7040 O   0  0  0  0  0  0  0  0  0  0  0  0
   10.4386  -17.2604   24.6393 N   0  0  0  0  0  0  0  0  0  0  0  0
    9.4877  -15.6361   25.9214 C   0  0  1  0  0  0  0  0  0  0  0  0
   10.2326  -15.9902   27.0955 C   0  0  0  0  0  0  0  0  0  0  0  0
   10.0830  -15.1465   28.2943 C   0  0  0  0  0  0  0  0  0  0  0  0
   10.7992  -15.4254   29.5359 C   0  0  0  0  0  0  0  0  0  0  0  0
   10.6123  -14.4909   30.6839 C   0  0  0  0  0  0  0  0  0  0  0  0
   11.5197  -14.9557   31.8293 N   0  0  0  0  0  0  0  0  0  0  0  0
   11.3463  -14.0651   32.9511 C   0  0  0  0  0  0  0  0  0  0  0  0
   10.2217  -17.4423   27.3634 O   0  0  0  0  0  0  0  0  0  0  0  0
   11.3145  -18.0372   27.4639 O   0  0  0  0  0  0  0  0  0  0  0  0
  2  3  2  0
  2  1  1  0
  4  5  1  0
  4  2  1  0
  6  5  1  0
  7  6  1  0
  8  7  1  0
  8 10  1  0
  8  9  1  6
 10 11  2  0
 14 13  1  6
 13 12  1  0
 15 14  1  0
 15 10  1  0
 16 17  2  0
 16 14  1  0
 18 16  1  0
 19 25  1  0
 19 18  1  0
 19 20  1  1
 21 20  1  0
 22 21  1  0
 23 24  1  0
 23 22  1  0
 25 27  1  0
 26 25  2  0
M  END
$$$$
