VNR.pdb
     RDKit          3D

 27 26  0  0  1  0  0  0  0  0999 V2000
    9.6299  -14.8130   18.3510 C   0  0  0  0  0  0  0  0  0  0  0  0
    8.7877  -13.7807   19.0673 C   0  0  1  0  0  0  0  0  0  0  0  0
    8.4878  -12.6196   18.1766 C   0  0  0  0  0  0  0  0  0  0  0  0
    7.5253  -14.4441   19.5709 C   0  0  2  0  0  0  0  0  0  0  0  0
    6.6157  -13.5178   20.1703 N   0  0  0  0  0  0  0  0  0  0  0  0
    7.9025  -15.4577   20.6023 C   0  0  0  0  0  0  0  0  0  0  0  0
    7.9260  -15.1448   21.8324 O   0  0  0  0  0  0  0  0  0  0  0  0
    6.4362  -19.5109   18.9281 N   0  0  0  0  0  0  0  0  0  0  0  0
    6.8372  -19.3326   20.2680 C   0  0  0  0  0  0  0  0  0  0  0  0
    5.9957  -19.3028   21.1978 O   0  0  0  0  0  0  0  0  0  0  0  0
    8.2738  -19.1774   20.5878 C   0  0  0  0  0  0  0  0  0  0  0  0
    8.6147  -17.8220   21.1623 C   0  0  2  0  0  0  0  0  0  0  0  0
    8.2426  -16.7871   20.2435 N   0  0  0  0  0  0  0  0  0  0  0  0
   10.0865  -17.7814   21.4635 C   0  0  0  0  0  0  0  0  0  0  0  0
   10.6812  -18.8319   21.7799 O   0  0  0  0  0  0  0  0  0  0  0  0
   15.3707  -16.3139   18.0840 N   0  0  0  0  0  0  0  0  0  0  0  0
   14.6547  -15.4900   17.1719 C   0  0  0  0  0  0  0  0  0  0  0  0
   14.7120  -15.7447   15.9012 N   0  0  0  0  0  0  0  0  0  0  0  0
   13.8731  -14.3879   17.6167 N   0  0  0  0  0  0  0  0  0  0  0  0
   13.6804  -14.1015   19.0159 C   0  0  0  0  0  0  0  0  0  0  0  0
   13.1525  -15.2148   19.7820 C   0  0  0  0  0  0  0  0  0  0  0  0
   12.8399  -15.2845   21.1970 C   0  0  0  0  0  0  0  0  0  0  0  0
   12.2484  -16.4762   21.7930 C   0  0  2  0  0  0  0  0  0  0  0  0
   10.8052  -16.5804   21.3948 N   0  0  0  0  0  0  0  0  0  0  0  0
   12.1053  -16.3827   23.2943 C   0  0  0  0  0  0  0  0  0  0  0  0
   11.4303  -15.5505   23.8531 O   0  0  0  0  0  0  0  0  0  0  0  0
   12.7890  -17.3009   24.0982 O   0  0  0  0  0  0  0  0  0  0  0  0
  2  3  1  6
  2  1  1  0
  4  6  1  0
  4  2  1  0
  4  5  1  1
  6  7  2  0
  9 10  2  0
  9  8  1  0
 11  9  1  0
 12 11  1  6
 13  6  1  0
 13 12  1  0
 14 15  2  0
 14 12  1  0
 16 17  1  0
 17 18  2  0
 19 17  1  0
 19 20  1  0
 20 21  1  0
 21 22  1  0
 23 22  1  6
 23 24  1  0
 24 14  1  0
 25 27  1  0
 25 23  1  0
 26 25  2  0
M  END
$$$$
