VNR.pdb
     RDKit          3D

 27 26  0  0  1  0  0  0  0  0999 V2000
    8.8708  -17.4963   16.7430 C   0  0  0  0  0  0  0  0  0  0  0  0
    7.4163  -17.8734   16.9158 C   0  0  1  0  0  0  0  0  0  0  0  0
    6.6933  -17.8403   15.6091 C   0  0  0  0  0  0  0  0  0  0  0  0
    7.3389  -19.2363   17.5670 C   0  0  2  0  0  0  0  0  0  0  0  0
    5.9990  -19.7252   17.6681 N   0  0  0  0  0  0  0  0  0  0  0  0
    7.9009  -19.1334   18.9481 C   0  0  0  0  0  0  0  0  0  0  0  0
    7.1557  -18.8061   19.9223 O   0  0  0  0  0  0  0  0  0  0  0  0
   10.8466  -21.7153   23.0701 N   0  0  0  0  0  0  0  0  0  0  0  0
   11.2131  -20.7469   22.1131 C   0  0  0  0  0  0  0  0  0  0  0  0
   12.1200  -19.9132   22.3493 O   0  0  0  0  0  0  0  0  0  0  0  0
   10.5190  -20.7096   20.8066 C   0  0  0  0  0  0  0  0  0  0  0  0
    9.8817  -19.3726   20.5069 C   0  0  2  0  0  0  0  0  0  0  0  0
    9.2697  -19.3954   19.2112 N   0  0  0  0  0  0  0  0  0  0  0  0
   10.9355  -18.3047   20.5944 C   0  0  0  0  0  0  0  0  0  0  0  0
   11.8287  -18.2461   19.7249 O   0  0  0  0  0  0  0  0  0  0  0  0
    7.1935  -12.5725   19.0030 N   0  0  0  0  0  0  0  0  0  0  0  0
    8.2298  -13.2300   18.2839 C   0  0  0  0  0  0  0  0  0  0  0  0
    7.9319  -13.9351   17.2365 N   0  0  0  0  0  0  0  0  0  0  0  0
    9.5917  -13.1355   18.6832 N   0  0  0  0  0  0  0  0  0  0  0  0
    9.9963  -13.2675   20.0601 C   0  0  0  0  0  0  0  0  0  0  0  0
   10.7550  -14.4715   20.3425 C   0  0  0  0  0  0  0  0  0  0  0  0
   11.2390  -14.9698   21.6162 C   0  0  0  0  0  0  0  0  0  0  0  0
   11.9272  -16.2502   21.7263 C   0  0  2  0  0  0  0  0  0  0  0  0
   10.9325  -17.3706   21.6389 N   0  0  0  0  0  0  0  0  0  0  0  0
   12.4954  -16.5042   23.1032 C   0  0  0  0  0  0  0  0  0  0  0  0
   13.4386  -15.9031   23.5607 O   0  0  0  0  0  0  0  0  0  0  0  0
   11.9112  -17.4900   23.9056 O   0  0  0  0  0  0  0  0  0  0  0  0
  2  3  1  6
  2  1  1  0
  4  6  1  0
  4  2  1  0
  4  5  1  1
  6  7  2  0
  9 10  2  0
  9  8  1  0
 11  9  1  0
 12 11  1  6
 13  6  1  0
 13 12  1  0
 14 15  2  0
 14 12  1  0
 16 17  1  0
 17 18  2  0
 19 17  1  0
 19 20  1  0
 20 21  1  0
 21 22  1  0
 23 22  1  1
 23 24  1  0
 24 14  1  0
 25 27  1  0
 25 23  1  0
 26 25  2  0
M  END
$$$$
