VNR.pdb
     RDKit          3D

 27 26  0  0  1  0  0  0  0  0999 V2000
    9.1297  -18.7850   14.2107 C   0  0  0  0  0  0  0  0  0  0  0  0
    9.1973  -19.1134   15.6857 C   0  0  1  0  0  0  0  0  0  0  0  0
    9.6792  -20.5103   15.9040 C   0  0  0  0  0  0  0  0  0  0  0  0
   10.0844  -18.0987   16.3720 C   0  0  2  0  0  0  0  0  0  0  0  0
   11.4382  -18.1491   15.9144 N   0  0  0  0  0  0  0  0  0  0  0  0
   10.0796  -18.3817   17.8395 C   0  0  0  0  0  0  0  0  0  0  0  0
    8.9999  -18.3130   18.5037 O   0  0  0  0  0  0  0  0  0  0  0  0
   11.1787  -21.7929   19.1438 N   0  0  0  0  0  0  0  0  0  0  0  0
   12.4105  -21.3710   19.6847 C   0  0  0  0  0  0  0  0  0  0  0  0
   13.3792  -22.1616   19.7850 O   0  0  0  0  0  0  0  0  0  0  0  0
   12.5682  -19.9727   20.1431 C   0  0  0  0  0  0  0  0  0  0  0  0
   11.3404  -19.1244   19.9058 C   0  0  2  0  0  0  0  0  0  0  0  0
   11.2683  -18.7323   18.5292 N   0  0  0  0  0  0  0  0  0  0  0  0
   11.3980  -17.9270   20.8122 C   0  0  0  0  0  0  0  0  0  0  0  0
   12.2142  -17.0129   20.5765 O   0  0  0  0  0  0  0  0  0  0  0  0
    7.5260  -12.8681   17.9883 N   0  0  0  0  0  0  0  0  0  0  0  0
    7.7155  -12.8410   19.3978 C   0  0  0  0  0  0  0  0  0  0  0  0
    8.0501  -11.7288   19.9758 N   0  0  0  0  0  0  0  0  0  0  0  0
    7.5474  -14.0060   20.1962 N   0  0  0  0  0  0  0  0  0  0  0  0
    7.7051  -13.9815   21.6286 C   0  0  0  0  0  0  0  0  0  0  0  0
    8.9151  -14.6261   22.1032 C   0  0  0  0  0  0  0  0  0  0  0  0
    9.1041  -15.9874   22.5680 C   0  0  0  0  0  0  0  0  0  0  0  0
   10.4333  -16.5626   22.7340 C   0  0  2  0  0  0  0  0  0  0  0  0
   10.5483  -17.8189   21.9213 N   0  0  0  0  0  0  0  0  0  0  0  0
   10.6732  -17.1174   24.1189 C   0  0  0  0  0  0  0  0  0  0  0  0
   10.3544  -18.2322   24.4591 O   0  0  0  0  0  0  0  0  0  0  0  0
   11.2948  -16.3069   25.0747 O   0  0  0  0  0  0  0  0  0  0  0  0
  2  3  1  6
  2  1  1  0
  4  6  1  0
  4  2  1  0
  4  5  1  6
  6  7  2  0
  9 10  2  0
  9  8  1  0
 11  9  1  0
 12 11  1  6
 13  6  1  0
 13 12  1  0
 14 15  2  0
 14 12  1  0
 16 17  1  0
 17 18  2  0
 19 17  1  0
 19 20  1  0
 20 21  1  0
 21 22  1  0
 23 22  1  1
 23 24  1  0
 24 14  1  0
 25 27  1  0
 25 23  1  0
 26 25  2  0
M  END
$$$$
