VNR.pdb
     RDKit          3D

 27 26  0  0  1  0  0  0  0  0999 V2000
    7.7670  -12.3644   18.8474 C   0  0  0  0  0  0  0  0  0  0  0  0
    8.2940  -13.4052   19.8102 C   0  0  1  0  0  0  0  0  0  0  0  0
    7.2399  -13.8193   20.7842 C   0  0  0  0  0  0  0  0  0  0  0  0
    8.8213  -14.5809   19.0184 C   0  0  2  0  0  0  0  0  0  0  0  0
    7.8196  -15.1891   18.1990 N   0  0  0  0  0  0  0  0  0  0  0  0
    9.3241  -15.6104   19.9780 C   0  0  0  0  0  0  0  0  0  0  0  0
    8.5999  -16.6048   20.2914 O   0  0  0  0  0  0  0  0  0  0  0  0
   13.8718  -18.4187   22.2589 N   0  0  0  0  0  0  0  0  0  0  0  0
   13.2894  -17.1755   22.5802 C   0  0  0  0  0  0  0  0  0  0  0  0
   13.2933  -16.7430   23.7576 O   0  0  0  0  0  0  0  0  0  0  0  0
   12.6619  -16.3637   21.5138 C   0  0  0  0  0  0  0  0  0  0  0  0
   11.1517  -16.4146   21.5349 C   0  0  2  0  0  0  0  0  0  0  0  0
   10.6124  -15.5102   20.5626 N   0  0  0  0  0  0  0  0  0  0  0  0
   10.6763  -16.0748   22.9194 C   0  0  0  0  0  0  0  0  0  0  0  0
   10.8273  -14.9160   23.3571 O   0  0  0  0  0  0  0  0  0  0  0  0
    4.1150  -19.6888   22.5765 N   0  0  0  0  0  0  0  0  0  0  0  0
    4.9547  -20.5822   23.2977 C   0  0  0  0  0  0  0  0  0  0  0  0
    4.8443  -21.8600   23.1028 N   0  0  0  0  0  0  0  0  0  0  0  0
    5.9180  -20.1110   24.2323 N   0  0  0  0  0  0  0  0  0  0  0  0
    6.0726  -18.7097   24.5313 C   0  0  0  0  0  0  0  0  0  0  0  0
    7.4517  -18.2817   24.6715 C   0  0  0  0  0  0  0  0  0  0  0  0
    7.9745  -16.9571   24.9487 C   0  0  0  0  0  0  0  0  0  0  0  0
    9.4071  -16.7019   25.0365 C   0  0  2  0  0  0  0  0  0  0  0  0
   10.0642  -17.0400   23.7303 N   0  0  0  0  0  0  0  0  0  0  0  0
   10.1277  -17.6616   25.9545 C   0  0  0  0  0  0  0  0  0  0  0  0
   10.7882  -18.5951   25.5638 O   0  0  0  0  0  0  0  0  0  0  0  0
   10.0324  -17.4762   27.3377 O   0  0  0  0  0  0  0  0  0  0  0  0
  2  3  1  1
  2  1  1  0
  4  6  1  0
  4  2  1  0
  4  5  1  1
  6  7  2  0
  9 10  2  0
  9  8  1  0
 11  9  1  0
 12 11  1  1
 13  6  1  0
 13 12  1  0
 14 15  2  0
 14 12  1  0
 16 17  1  0
 17 18  2  0
 19 17  1  0
 19 20  1  0
 20 21  1  0
 21 22  1  0
 23 22  1  6
 23 24  1  0
 24 14  1  0
 25 27  1  0
 25 23  1  0
 26 25  2  0
M  END
$$$$
