VNR.pdb
     RDKit          3D

 27 26  0  0  1  0  0  0  0  0999 V2000
    5.9498  -19.9477   17.3968 C   0  0  0  0  0  0  0  0  0  0  0  0
    6.8507  -19.1556   18.3182 C   0  0  1  0  0  0  0  0  0  0  0  0
    7.8553  -20.0412   18.9799 C   0  0  0  0  0  0  0  0  0  0  0  0
    7.5113  -18.0506   17.5245 C   0  0  2  0  0  0  0  0  0  0  0  0
    8.3415  -18.5469   16.4714 N   0  0  0  0  0  0  0  0  0  0  0  0
    8.3667  -17.2487   18.4513 C   0  0  0  0  0  0  0  0  0  0  0  0
    9.5904  -17.5445   18.6140 O   0  0  0  0  0  0  0  0  0  0  0  0
    6.7013  -12.2043   19.2061 N   0  0  0  0  0  0  0  0  0  0  0  0
    7.7583  -13.1339   19.2866 C   0  0  0  0  0  0  0  0  0  0  0  0
    8.6536  -13.1750   18.4090 O   0  0  0  0  0  0  0  0  0  0  0  0
    7.8167  -14.0792   20.4238 C   0  0  0  0  0  0  0  0  0  0  0  0
    8.5775  -15.3463   20.1087 C   0  0  2  0  0  0  0  0  0  0  0  0
    7.8440  -16.1437   19.1706 N   0  0  0  0  0  0  0  0  0  0  0  0
    8.8205  -16.0948   21.3891 C   0  0  0  0  0  0  0  0  0  0  0  0
    7.8690  -16.6644   21.9614 O   0  0  0  0  0  0  0  0  0  0  0  0
   15.1612  -21.4532   24.5994 N   0  0  0  0  0  0  0  0  0  0  0  0
   14.6656  -21.1669   23.2972 C   0  0  0  0  0  0  0  0  0  0  0  0
   14.7647  -22.0635   22.3649 N   0  0  0  0  0  0  0  0  0  0  0  0
   14.0607  -19.9176   22.9866 N   0  0  0  0  0  0  0  0  0  0  0  0
   13.7740  -18.9333   23.9995 C   0  0  0  0  0  0  0  0  0  0  0  0
   12.4210  -18.4114   23.9534 C   0  0  0  0  0  0  0  0  0  0  0  0
   11.7905  -17.5937   22.9344 C   0  0  0  0  0  0  0  0  0  0  0  0
   10.4352  -17.0811   23.0937 C   0  0  2  0  0  0  0  0  0  0  0  0
   10.1013  -16.1646   21.9533 N   0  0  0  0  0  0  0  0  0  0  0  0
   10.2929  -16.1252   24.2552 C   0  0  0  0  0  0  0  0  0  0  0  0
   10.1633  -16.4794   25.4033 O   0  0  0  0  0  0  0  0  0  0  0  0
   10.3059  -14.7489   24.0051 O   0  0  0  0  0  0  0  0  0  0  0  0
  2  3  1  6
  2  1  1  0
  4  6  1  0
  4  2  1  0
  4  5  1  6
  6  7  2  0
  9 10  2  0
  9  8  1  0
 11  9  1  0
 12 11  1  1
 13  6  1  0
 13 12  1  0
 14 15  2  0
 14 12  1  0
 16 17  1  0
 17 18  2  0
 19 17  1  0
 19 20  1  0
 20 21  1  0
 21 22  1  0
 23 22  1  6
 23 24  1  0
 24 14  1  0
 25 27  1  0
 25 23  1  0
 26 25  2  0
M  END
$$$$
