VNR.pdb
     RDKit          3D

 27 26  0  0  1  0  0  0  0  0999 V2000
    7.3488  -14.2765   16.9394 C   0  0  0  0  0  0  0  0  0  0  0  0
    8.3762  -14.5996   18.0015 C   0  0  1  0  0  0  0  0  0  0  0  0
    9.7044  -14.9045   17.3897 C   0  0  0  0  0  0  0  0  0  0  0  0
    8.4563  -13.4424   18.9719 C   0  0  2  0  0  0  0  0  0  0  0  0
    8.9626  -12.2490   18.3683 N   0  0  0  0  0  0  0  0  0  0  0  0
    9.3742  -13.8234   20.0881 C   0  0  0  0  0  0  0  0  0  0  0  0
   10.5900  -13.4589   20.0731 O   0  0  0  0  0  0  0  0  0  0  0  0
   11.0314  -15.8620   24.5988 N   0  0  0  0  0  0  0  0  0  0  0  0
    9.6307  -16.0214   24.5770 C   0  0  0  0  0  0  0  0  0  0  0  0
    9.0177  -16.5023   25.5601 O   0  0  0  0  0  0  0  0  0  0  0  0
    8.8664  -15.6159   23.3763 C   0  0  0  0  0  0  0  0  0  0  0  0
    9.7321  -15.0210   22.2900 C   0  0  2  0  0  0  0  0  0  0  0  0
    8.9208  -14.5962   21.1876 N   0  0  0  0  0  0  0  0  0  0  0  0
   10.7422  -16.0477   21.8608 C   0  0  0  0  0  0  0  0  0  0  0  0
   10.3640  -17.0682   21.2501 O   0  0  0  0  0  0  0  0  0  0  0  0
   15.5338  -14.9351   15.8536 N   0  0  0  0  0  0  0  0  0  0  0  0
   15.7715  -14.2908   17.0992 C   0  0  0  0  0  0  0  0  0  0  0  0
   15.8083  -12.9951   17.1510 N   0  0  0  0  0  0  0  0  0  0  0  0
   15.9712  -15.0316   18.2969 N   0  0  0  0  0  0  0  0  0  0  0  0
   15.1458  -16.1606   18.6451 C   0  0  0  0  0  0  0  0  0  0  0  0
   14.1963  -15.8953   19.7095 C   0  0  0  0  0  0  0  0  0  0  0  0
   14.2617  -16.2738   21.1086 C   0  0  0  0  0  0  0  0  0  0  0  0
   13.1371  -16.9104   21.7832 C   0  0  2  0  0  0  0  0  0  0  0  0
   12.1059  -15.8786   22.1355 N   0  0  0  0  0  0  0  0  0  0  0  0
   13.4829  -17.4239   23.1616 C   0  0  0  0  0  0  0  0  0  0  0  0
   13.6470  -16.7089   24.1219 O   0  0  0  0  0  0  0  0  0  0  0  0
   13.6291  -18.8017   23.3539 O   0  0  0  0  0  0  0  0  0  0  0  0
  2  3  1  6
  2  1  1  0
  4  6  1  0
  4  2  1  0
  4  5  1  6
  6  7  2  0
  9 10  2  0
  9  8  1  0
 11  9  1  0
 12 11  1  1
 13  6  1  0
 13 12  1  0
 14 15  2  0
 14 12  1  0
 16 17  1  0
 17 18  2  0
 19 17  1  0
 19 20  1  0
 20 21  1  0
 21 22  1  0
 23 22  1  1
 23 24  1  0
 24 14  1  0
 25 27  1  0
 25 23  1  0
 26 25  2  0
M  END
$$$$
