VNR.pdb
     RDKit          3D

 27 26  0  0  1  0  0  0  0  0999 V2000
    7.6366  -12.7562   18.1768 C   0  0  0  0  0  0  0  0  0  0  0  0
    8.1054  -13.0528   19.5839 C   0  0  1  0  0  0  0  0  0  0  0  0
    7.0869  -12.6282   20.5908 C   0  0  0  0  0  0  0  0  0  0  0  0
    8.4229  -14.5275   19.6926 C   0  0  2  0  0  0  0  0  0  0  0  0
    7.3236  -15.3589   19.3117 N   0  0  0  0  0  0  0  0  0  0  0  0
    8.7659  -14.8342   21.1145 C   0  0  0  0  0  0  0  0  0  0  0  0
    9.7831  -14.3046   21.6588 O   0  0  0  0  0  0  0  0  0  0  0  0
    8.2884  -16.6458   25.9826 N   0  0  0  0  0  0  0  0  0  0  0  0
    7.1297  -17.0506   25.2887 C   0  0  0  0  0  0  0  0  0  0  0  0
    6.2087  -17.6712   25.8718 O   0  0  0  0  0  0  0  0  0  0  0  0
    6.9934  -16.7405   23.8481 C   0  0  0  0  0  0  0  0  0  0  0  0
    8.1943  -16.0242   23.2751 C   0  0  2  0  0  0  0  0  0  0  0  0
    7.9743  -15.7173   21.8926 N   0  0  0  0  0  0  0  0  0  0  0  0
    9.4067  -16.8938   23.4552 C   0  0  0  0  0  0  0  0  0  0  0  0
    9.3314  -18.1158   23.2136 O   0  0  0  0  0  0  0  0  0  0  0  0
   13.5175  -15.0435   18.4634 N   0  0  0  0  0  0  0  0  0  0  0  0
   14.5315  -14.7317   19.4109 C   0  0  0  0  0  0  0  0  0  0  0  0
   15.6108  -14.1297   19.0163 N   0  0  0  0  0  0  0  0  0  0  0  0
   14.3947  -15.0633   20.7873 N   0  0  0  0  0  0  0  0  0  0  0  0
   14.3454  -16.4293   21.2441 C   0  0  0  0  0  0  0  0  0  0  0  0
   14.1418  -16.5697   22.6737 C   0  0  0  0  0  0  0  0  0  0  0  0
   13.0023  -16.1715   23.4786 C   0  0  0  0  0  0  0  0  0  0  0  0
   11.9228  -17.1002   23.7904 C   0  0  2  0  0  0  0  0  0  0  0  0
   10.6244  -16.3544   23.8911 N   0  0  0  0  0  0  0  0  0  0  0  0
   12.0125  -17.6701   25.1870 C   0  0  0  0  0  0  0  0  0  0  0  0
   12.8944  -18.4103   25.5538 O   0  0  0  0  0  0  0  0  0  0  0  0
   11.0250  -17.3354   26.1196 O   0  0  0  0  0  0  0  0  0  0  0  0
  2  3  1  1
  2  1  1  0
  4  6  1  0
  4  2  1  0
  4  5  1  1
  6  7  2  0
  9 10  2  0
  9  8  1  0
 11  9  1  0
 12 11  1  6
 13  6  1  0
 13 12  1  0
 14 15  2  0
 14 12  1  0
 16 17  1  0
 17 18  2  0
 19 17  1  0
 19 20  1  0
 20 21  1  0
 21 22  1  0
 23 22  1  1
 23 24  1  0
 24 14  1  0
 25 27  1  0
 25 23  1  0
 26 25  2  0
M  END
$$$$
