VNR.pdb
     RDKit          3D

 27 26  0  0  1  0  0  0  0  0999 V2000
    6.8371  -13.9185   20.2189 C   0  0  0  0  0  0  0  0  0  0  0  0
    8.0358  -13.4283   19.4374 C   0  0  1  0  0  0  0  0  0  0  0  0
    7.8077  -12.0485   18.9125 C   0  0  0  0  0  0  0  0  0  0  0  0
    9.2589  -13.4977   20.3243 C   0  0  2  0  0  0  0  0  0  0  0  0
   10.4317  -12.9815   19.6896 N   0  0  0  0  0  0  0  0  0  0  0  0
    9.5110  -14.9293   20.6717 C   0  0  0  0  0  0  0  0  0  0  0  0
    8.6173  -15.6157   21.2561 O   0  0  0  0  0  0  0  0  0  0  0  0
   11.1258  -19.8037   20.3672 N   0  0  0  0  0  0  0  0  0  0  0  0
   11.9536  -19.0087   19.5483 C   0  0  0  0  0  0  0  0  0  0  0  0
   12.9454  -19.4999   18.9580 O   0  0  0  0  0  0  0  0  0  0  0  0
   11.6512  -17.5699   19.3791 C   0  0  0  0  0  0  0  0  0  0  0  0
   11.0540  -16.9359   20.6139 C   0  0  2  0  0  0  0  0  0  0  0  0
   10.7435  -15.5595   20.3627 N   0  0  0  0  0  0  0  0  0  0  0  0
   12.0288  -17.0772   21.7490 C   0  0  0  0  0  0  0  0  0  0  0  0
   12.6021  -18.1694   21.9381 O   0  0  0  0  0  0  0  0  0  0  0  0
    9.1486  -14.1893   27.8526 N   0  0  0  0  0  0  0  0  0  0  0  0
    9.9998  -15.0135   28.6396 C   0  0  0  0  0  0  0  0  0  0  0  0
   10.6514  -14.4933   29.6335 N   0  0  0  0  0  0  0  0  0  0  0  0
   10.1576  -16.4003   28.3660 N   0  0  0  0  0  0  0  0  0  0  0  0
   10.1671  -16.9188   27.0213 C   0  0  0  0  0  0  0  0  0  0  0  0
   10.7431  -16.0167   26.0418 C   0  0  0  0  0  0  0  0  0  0  0  0
   11.0196  -16.2482   24.6366 C   0  0  0  0  0  0  0  0  0  0  0  0
   12.3687  -16.1439   24.0940 C   0  0  2  0  0  0  0  0  0  0  0  0
   12.3062  -16.0002   22.6015 N   0  0  0  0  0  0  0  0  0  0  0  0
   13.1564  -17.4285   24.2060 C   0  0  0  0  0  0  0  0  0  0  0  0
   13.0575  -18.3460   23.4258 O   0  0  0  0  0  0  0  0  0  0  0  0
   14.0524  -17.5828   25.2691 O   0  0  0  0  0  0  0  0  0  0  0  0
  2  3  1  1
  2  1  1  0
  4  6  1  0
  4  2  1  0
  4  5  1  6
  6  7  2  0
  9 10  2  0
  9  8  1  0
 11  9  1  0
 12 11  1  6
 13  6  1  0
 13 12  1  0
 14 15  2  0
 14 12  1  0
 16 17  1  0
 17 18  2  0
 19 17  1  0
 19 20  1  0
 20 21  1  0
 21 22  1  0
 23 22  1  6
 23 24  1  0
 24 14  1  0
 25 27  1  0
 25 23  1  0
 26 25  2  0
M  END
$$$$
