VNR.pdb
     RDKit          3D

 27 26  0  0  1  0  0  0  0  0999 V2000
    8.7148  -12.2080   18.5678 C   0  0  0  0  0  0  0  0  0  0  0  0
    8.8339  -13.2500   19.6578 C   0  0  1  0  0  0  0  0  0  0  0  0
    7.8385  -13.0072   20.7448 C   0  0  0  0  0  0  0  0  0  0  0  0
    8.6712  -14.6218   19.0423 C   0  0  2  0  0  0  0  0  0  0  0  0
    7.3851  -14.8112   18.4466 N   0  0  0  0  0  0  0  0  0  0  0  0
    8.8401  -15.6460   20.1176 C   0  0  0  0  0  0  0  0  0  0  0  0
    7.8469  -16.0116   20.8185 O   0  0  0  0  0  0  0  0  0  0  0  0
   11.0462  -20.4677   21.7367 N   0  0  0  0  0  0  0  0  0  0  0  0
   11.7466  -19.2519   21.8753 C   0  0  0  0  0  0  0  0  0  0  0  0
   12.5949  -19.0928   22.7856 O   0  0  0  0  0  0  0  0  0  0  0  0
   11.4800  -18.1419   20.9335 C   0  0  0  0  0  0  0  0  0  0  0  0
   10.3506  -17.2410   21.3766 C   0  0  2  0  0  0  0  0  0  0  0  0
   10.1018  -16.2356   20.3860 N   0  0  0  0  0  0  0  0  0  0  0  0
   10.7134  -16.6265   22.6992 C   0  0  0  0  0  0  0  0  0  0  0  0
   11.7110  -15.8812   22.7808 O   0  0  0  0  0  0  0  0  0  0  0  0
    5.1651  -13.6805   26.7040 N   0  0  0  0  0  0  0  0  0  0  0  0
    5.8031  -12.5240   26.1760 C   0  0  0  0  0  0  0  0  0  0  0  0
    5.3862  -11.3475   26.5293 N   0  0  0  0  0  0  0  0  0  0  0  0
    6.8919  -12.6219   25.2660 N   0  0  0  0  0  0  0  0  0  0  0  0
    7.3799  -13.8918   24.7903 C   0  0  0  0  0  0  0  0  0  0  0  0
    8.6041  -14.3345   25.4307 C   0  0  0  0  0  0  0  0  0  0  0  0
    9.0360  -15.6836   25.7443 C   0  0  0  0  0  0  0  0  0  0  0  0
   10.2528  -16.2501   25.1755 C   0  0  2  0  0  0  0  0  0  0  0  0
    9.9483  -16.8766   23.8462 N   0  0  0  0  0  0  0  0  0  0  0  0
   10.7570  -17.4577   25.9308 C   0  0  0  0  0  0  0  0  0  0  0  0
   11.5887  -17.4022   26.8058 O   0  0  0  0  0  0  0  0  0  0  0  0
   10.2457  -18.7194   25.6094 O   0  0  0  0  0  0  0  0  0  0  0  0
  2  3  1  1
  2  1  1  0
  4  6  1  0
  4  2  1  0
  4  5  1  1
  6  7  2  0
  9 10  2  0
  9  8  1  0
 11  9  1  0
 12 11  1  6
 13  6  1  0
 13 12  1  0
 14 15  2  0
 14 12  1  0
 16 17  1  0
 17 18  2  0
 19 17  1  0
 19 20  1  0
 20 21  1  0
 21 22  1  0
 23 22  1  1
 23 24  1  0
 24 14  1  0
 25 27  1  0
 25 23  1  0
 26 25  2  0
M  END
$$$$
