VNR.pdb
     RDKit          3D

 27 26  0  0  1  0  0  0  0  0999 V2000
    7.6360  -13.6642   18.6394 C   0  0  0  0  0  0  0  0  0  0  0  0
    8.1225  -13.4578   20.0567 C   0  0  1  0  0  0  0  0  0  0  0  0
    7.0300  -12.9314   20.9289 C   0  0  0  0  0  0  0  0  0  0  0  0
    8.6779  -14.7644   20.5778 C   0  0  2  0  0  0  0  0  0  0  0  0
    7.6881  -15.7933   20.6569 N   0  0  0  0  0  0  0  0  0  0  0  0
    9.2190  -14.5342   21.9518 C   0  0  0  0  0  0  0  0  0  0  0  0
    9.8716  -13.4781   22.2168 O   0  0  0  0  0  0  0  0  0  0  0  0
    6.6364  -15.7478   25.2193 N   0  0  0  0  0  0  0  0  0  0  0  0
    7.0473  -14.3997   25.2599 C   0  0  0  0  0  0  0  0  0  0  0  0
    6.2695  -13.4965   25.6508 O   0  0  0  0  0  0  0  0  0  0  0  0
    8.4184  -14.0393   24.8353 C   0  0  0  0  0  0  0  0  0  0  0  0
    9.2366  -15.2279   24.3868 C   0  0  2  0  0  0  0  0  0  0  0  0
    9.0225  -15.4782   22.9920 N   0  0  0  0  0  0  0  0  0  0  0  0
    8.8551  -16.4190   25.2201 C   0  0  0  0  0  0  0  0  0  0  0  0
    8.6557  -16.2780   26.4438 O   0  0  0  0  0  0  0  0  0  0  0  0
   13.0202  -17.6564   20.0730 N   0  0  0  0  0  0  0  0  0  0  0  0
   12.0320  -18.4045   19.3750 C   0  0  0  0  0  0  0  0  0  0  0  0
   12.1194  -18.5321   18.0869 N   0  0  0  0  0  0  0  0  0  0  0  0
   10.9442  -19.0203   20.0536 N   0  0  0  0  0  0  0  0  0  0  0  0
   10.3138  -18.4127   21.1984 C   0  0  0  0  0  0  0  0  0  0  0  0
   10.4495  -19.1757   22.4249 C   0  0  0  0  0  0  0  0  0  0  0  0
   10.7331  -18.7055   23.7677 C   0  0  0  0  0  0  0  0  0  0  0  0
    9.7374  -18.7759   24.8302 C   0  0  2  0  0  0  0  0  0  0  0  0
    8.7190  -17.6895   24.6447 N   0  0  0  0  0  0  0  0  0  0  0  0
   10.2864  -18.3988   26.1865 C   0  0  0  0  0  0  0  0  0  0  0  0
   10.2921  -19.1434   27.1383 O   0  0  0  0  0  0  0  0  0  0  0  0
   10.8184  -17.1181   26.3694 O   0  0  0  0  0  0  0  0  0  0  0  0
  2  3  1  1
  2  1  1  0
  4  6  1  0
  4  2  1  0
  4  5  1  1
  6  7  2  0
  9 10  2  0
  9  8  1  0
 11  9  1  0
 12 11  1  1
 13  6  1  0
 13 12  1  0
 14 15  2  0
 14 12  1  0
 16 17  1  0
 17 18  2  0
 19 17  1  0
 19 20  1  0
 20 21  1  0
 21 22  1  0
 23 22  1  6
 23 24  1  0
 24 14  1  0
 25 27  1  0
 25 23  1  0
 26 25  2  0
M  END
$$$$
