QPC.pdb
     RDKit          3D

 23 23  0  0  1  0  0  0  0  0999 V2000
    5.6402  -18.8552   23.2368 N   0  0  0  0  0  0  0  0  0  0  0  0
    7.0495  -18.7629   23.0901 C   0  0  0  0  0  0  0  0  0  0  0  0
    7.7386  -19.7747   23.3695 O   0  0  0  0  0  0  0  0  0  0  0  0
    7.7323  -17.5438   22.6290 C   0  0  0  0  0  0  0  0  0  0  0  0
    6.7443  -16.4404   22.3670 C   0  0  0  0  0  0  0  0  0  0  0  0
    7.5230  -15.1528   22.1307 C   0  0  2  0  0  0  0  0  0  0  0  0
    8.4252  -15.3027   21.0277 N   0  0  0  0  0  0  0  0  0  0  0  0
    8.2164  -14.7447   23.3375 C   0  0  0  0  0  0  0  0  0  0  0  0
    9.4695  -15.0020   23.3928 O   0  0  0  0  0  0  0  0  0  0  0  0
    7.6001  -14.0865   24.4489 N   0  0  0  0  0  0  0  0  0  0  0  0
    6.2423  -13.5909   24.3964 C   0  0  0  0  0  0  0  0  0  0  0  0
    6.0165  -12.8099   25.6838 C   0  0  0  0  0  0  0  0  0  0  0  0
    7.0011  -13.4597   26.6170 C   0  0  0  0  0  0  0  0  0  0  0  0
    8.1599  -13.7669   25.7080 C   0  0  1  0  0  0  0  0  0  0  0  0
    9.0127  -14.8289   26.3152 C   0  0  0  0  0  0  0  0  0  0  0  0
    8.8094  -16.0144   25.9938 O   0  0  0  0  0  0  0  0  0  0  0  0
   10.0442  -14.5493   27.2416 N   0  0  0  0  0  0  0  0  0  0  0  0
   10.8885  -15.5293   27.8534 C   0  0  1  0  0  0  0  0  0  0  0  0
   11.5997  -14.8332   29.0212 C   0  0  0  0  0  0  0  0  0  0  0  0
   10.5354  -13.5851   29.7821 S   0  0  0  0  0  0  0  0  0  0  0  0
   10.1769  -16.6869   28.4084 C   0  0  0  0  0  0  0  0  0  0  0  0
   10.9380  -17.7494   28.8755 O   0  0  0  0  0  0  0  0  0  0  0  0
    8.9275  -16.7808   28.4890 O   0  0  0  0  0  0  0  0  0  0  0  0
  2  1  1  0
  2  3  2  0
  4  5  1  0
  4  2  1  0
  6  5  1  0
  6  7  1  6
  8  6  1  0
  8 10  1  0
  9  8  2  0
 10 14  1  0
 11 10  1  0
 11 12  1  0
 12 13  1  0
 14 13  1  0
 14 15  1  1
 15 17  1  0
 16 15  2  0
 18 17  1  0
 18 21  1  0
 18 19  1  1
 20 19  1  0
 21 22  1  0
 23 21  2  0
M  END
$$$$
