QPC.pdb
     RDKit          3D

 23 23  0  0  1  0  0  0  0  0999 V2000
    7.8653  -19.9360   15.9257 N   0  0  0  0  0  0  0  0  0  0  0  0
    7.7866  -18.7628   16.7217 C   0  0  0  0  0  0  0  0  0  0  0  0
    6.8825  -18.6999   17.5909 O   0  0  0  0  0  0  0  0  0  0  0  0
    8.7101  -17.6268   16.5740 C   0  0  0  0  0  0  0  0  0  0  0  0
    8.0054  -16.4331   15.9905 C   0  0  0  0  0  0  0  0  0  0  0  0
    8.9620  -15.2486   16.0359 C   0  0  2  0  0  0  0  0  0  0  0  0
   10.0558  -15.4472   15.1320 N   0  0  0  0  0  0  0  0  0  0  0  0
    9.4233  -15.0144   17.3910 C   0  0  0  0  0  0  0  0  0  0  0  0
   10.4791  -15.6420   17.7529 O   0  0  0  0  0  0  0  0  0  0  0  0
    8.7846  -14.1442   18.3307 N   0  0  0  0  0  0  0  0  0  0  0  0
    7.6448  -13.3277   17.9755 C   0  0  0  0  0  0  0  0  0  0  0  0
    7.3702  -12.4246   19.1702 C   0  0  0  0  0  0  0  0  0  0  0  0
    7.9357  -13.2328   20.3058 C   0  0  0  0  0  0  0  0  0  0  0  0
    9.1359  -13.8864   19.6764 C   0  0  1  0  0  0  0  0  0  0  0  0
    9.5368  -15.0825   20.4716 C   0  0  0  0  0  0  0  0  0  0  0  0
    8.8695  -16.1273   20.3563 O   0  0  0  0  0  0  0  0  0  0  0  0
   10.6434  -15.0835   21.3525 N   0  0  0  0  0  0  0  0  0  0  0  0
   11.0231  -16.1759   22.1952 C   0  0  1  0  0  0  0  0  0  0  0  0
   12.5161  -15.9992   22.5021 C   0  0  0  0  0  0  0  0  0  0  0  0
   13.4724  -15.7791   20.9834 S   0  0  0  0  0  0  0  0  0  0  0  0
   10.3199  -16.2266   23.4826 C   0  0  0  0  0  0  0  0  0  0  0  0
   10.5840  -17.3011   24.3205 O   0  0  0  0  0  0  0  0  0  0  0  0
    9.4965  -15.3645   23.8765 O   0  0  0  0  0  0  0  0  0  0  0  0
  2  1  1  0
  2  3  2  0
  4  5  1  0
  4  2  1  0
  6  5  1  0
  6  7  1  6
  8  6  1  0
  8 10  1  0
  9  8  2  0
 10 14  1  0
 11 10  1  0
 11 12  1  0
 12 13  1  0
 14 13  1  0
 14 15  1  1
 15 17  1  0
 16 15  2  0
 18 17  1  0
 18 21  1  0
 18 19  1  1
 20 19  1  0
 21 22  1  0
 23 21  2  0
M  END
$$$$
