QPC.pdb
     RDKit          3D

 23 23  0  0  1  0  0  0  0  0999 V2000
    6.0842  -17.9970   24.7361 N   0  0  0  0  0  0  0  0  0  0  0  0
    6.9593  -18.1054   23.6231 C   0  0  0  0  0  0  0  0  0  0  0  0
    7.8987  -18.9358   23.6909 O   0  0  0  0  0  0  0  0  0  0  0  0
    6.8150  -17.2941   22.4041 C   0  0  0  0  0  0  0  0  0  0  0  0
    6.2292  -15.9457   22.7216 C   0  0  0  0  0  0  0  0  0  0  0  0
    7.2922  -14.8901   22.4466 C   0  0  2  0  0  0  0  0  0  0  0  0
    8.1898  -15.3316   21.4208 N   0  0  0  0  0  0  0  0  0  0  0  0
    7.9997  -14.5461   23.6652 C   0  0  0  0  0  0  0  0  0  0  0  0
    9.2122  -14.9476   23.7560 O   0  0  0  0  0  0  0  0  0  0  0  0
    7.4387  -13.8020   24.7514 N   0  0  0  0  0  0  0  0  0  0  0  0
    6.1731  -13.1107   24.6411 C   0  0  0  0  0  0  0  0  0  0  0  0
    6.0083  -12.3028   25.9211 C   0  0  0  0  0  0  0  0  0  0  0  0
    6.8430  -13.0899   26.8939 C   0  0  0  0  0  0  0  0  0  0  0  0
    7.9830  -13.5670   26.0357 C   0  0  1  0  0  0  0  0  0  0  0  0
    8.6410  -14.7426   26.6749 C   0  0  0  0  0  0  0  0  0  0  0  0
    8.0577  -15.8423   26.6460 O   0  0  0  0  0  0  0  0  0  0  0  0
    9.9005  -14.6646   27.3136 N   0  0  0  0  0  0  0  0  0  0  0  0
   10.5901  -15.7673   27.9102 C   0  0  1  0  0  0  0  0  0  0  0  0
   12.0419  -15.3183   28.1224 C   0  0  0  0  0  0  0  0  0  0  0  0
   12.1442  -13.5272   28.3478 S   0  0  0  0  0  0  0  0  0  0  0  0
   10.0683  -16.1770   29.2196 C   0  0  0  0  0  0  0  0  0  0  0  0
   10.5984  -17.3229   29.7960 O   0  0  0  0  0  0  0  0  0  0  0  0
    9.1757  -15.5615   29.8527 O   0  0  0  0  0  0  0  0  0  0  0  0
  2  1  1  0
  2  3  2  0
  4  5  1  0
  4  2  1  0
  6  5  1  0
  6  7  1  6
  8  6  1  0
  8 10  1  0
  9  8  2  0
 10 14  1  0
 11 10  1  0
 11 12  1  0
 12 13  1  0
 14 13  1  0
 14 15  1  1
 15 17  1  0
 16 15  2  0
 18 17  1  0
 18 21  1  0
 18 19  1  1
 20 19  1  0
 21 22  1  0
 23 21  2  0
M  END
$$$$
