QPC.pdb
     RDKit          3D

 23 23  0  0  1  0  0  0  0  0999 V2000
    7.0823  -19.7584   19.6212 N   0  0  0  0  0  0  0  0  0  0  0  0
    7.4800  -19.9386   18.2701 C   0  0  0  0  0  0  0  0  0  0  0  0
    7.7944  -21.0959   17.8978 O   0  0  0  0  0  0  0  0  0  0  0  0
    7.5395  -18.8382   17.2952 C   0  0  0  0  0  0  0  0  0  0  0  0
    7.0501  -17.5530   17.9042 C   0  0  0  0  0  0  0  0  0  0  0  0
    7.9973  -16.4373   17.4823 C   0  0  2  0  0  0  0  0  0  0  0  0
    8.8604  -16.8787   16.4272 N   0  0  0  0  0  0  0  0  0  0  0  0
    8.7510  -15.9475   18.6206 C   0  0  0  0  0  0  0  0  0  0  0  0
    9.8848  -16.5015   18.8379 O   0  0  0  0  0  0  0  0  0  0  0  0
    8.3154  -14.9053   19.4994 N   0  0  0  0  0  0  0  0  0  0  0  0
    7.2276  -14.0144   19.1607 C   0  0  0  0  0  0  0  0  0  0  0  0
    7.1847  -12.9503   20.2489 C   0  0  0  0  0  0  0  0  0  0  0  0
    7.7974  -13.6755   21.4156 C   0  0  0  0  0  0  0  0  0  0  0  0
    8.8455  -14.5299   20.7560 C   0  0  1  0  0  0  0  0  0  0  0  0
    9.2175  -15.6600   21.6550 C   0  0  0  0  0  0  0  0  0  0  0  0
    8.4989  -16.6768   21.6648 O   0  0  0  0  0  0  0  0  0  0  0  0
   10.3523  -15.6289   22.4987 N   0  0  0  0  0  0  0  0  0  0  0  0
   10.8758  -16.7513   23.2153 C   0  0  1  0  0  0  0  0  0  0  0  0
   11.5289  -17.6732   22.1771 C   0  0  0  0  0  0  0  0  0  0  0  0
   12.3096  -19.0984   22.9700 S   0  0  0  0  0  0  0  0  0  0  0  0
   11.9063  -16.4165   24.2055 C   0  0  0  0  0  0  0  0  0  0  0  0
   12.8389  -15.4469   23.8640 O   0  0  0  0  0  0  0  0  0  0  0  0
   12.0009  -16.9474   25.3393 O   0  0  0  0  0  0  0  0  0  0  0  0
  2  1  1  0
  2  3  2  0
  4  5  1  0
  4  2  1  0
  6  5  1  0
  6  7  1  6
  8  6  1  0
  8 10  1  0
  9  8  2  0
 10 14  1  0
 11 10  1  0
 11 12  1  0
 12 13  1  0
 14 13  1  0
 14 15  1  1
 15 17  1  0
 16 15  2  0
 18 17  1  0
 18 21  1  0
 18 19  1  6
 20 19  1  0
 21 22  1  0
 23 21  2  0
M  END
$$$$
