QPC.pdb
     RDKit          3D

 23 23  0  0  1  0  0  0  0  0999 V2000
   11.8692  -20.2881   24.1333 N   0  0  0  0  0  0  0  0  0  0  0  0
   11.4323  -20.6862   22.8423 C   0  0  0  0  0  0  0  0  0  0  0  0
   11.4234  -21.9132   22.5756 O   0  0  0  0  0  0  0  0  0  0  0  0
   10.9931  -19.7322   21.8118 C   0  0  0  0  0  0  0  0  0  0  0  0
   11.0671  -18.3188   22.3207 C   0  0  0  0  0  0  0  0  0  0  0  0
   10.5472  -17.3934   21.2283 C   0  0  2  0  0  0  0  0  0  0  0  0
   11.5657  -17.1407   20.2527 N   0  0  0  0  0  0  0  0  0  0  0  0
   10.0366  -16.1621   21.8002 C   0  0  0  0  0  0  0  0  0  0  0  0
   10.8496  -15.4858   22.5221 O   0  0  0  0  0  0  0  0  0  0  0  0
    8.7073  -15.6660   21.6129 N   0  0  0  0  0  0  0  0  0  0  0  0
    7.8337  -16.1711   20.5767 C   0  0  0  0  0  0  0  0  0  0  0  0
    6.5958  -15.2846   20.5841 C   0  0  0  0  0  0  0  0  0  0  0  0
    6.5796  -14.7872   22.0036 C   0  0  0  0  0  0  0  0  0  0  0  0
    8.0438  -14.6310   22.3124 C   0  0  1  0  0  0  0  0  0  0  0  0
    8.2523  -14.6232   23.7890 C   0  0  0  0  0  0  0  0  0  0  0  0
    8.6235  -15.6734   24.3452 O   0  0  0  0  0  0  0  0  0  0  0  0
    8.0470  -13.4740   24.5876 N   0  0  0  0  0  0  0  0  0  0  0  0
    8.1808  -13.4270   26.0115 C   0  0  1  0  0  0  0  0  0  0  0  0
    7.4736  -12.1485   26.4800 C   0  0  0  0  0  0  0  0  0  0  0  0
    5.7081  -12.2007   26.0930 S   0  0  0  0  0  0  0  0  0  0  0  0
    7.5572  -14.5509   26.7204 C   0  0  0  0  0  0  0  0  0  0  0  0
    7.9639  -14.7971   28.0244 O   0  0  0  0  0  0  0  0  0  0  0  0
    6.6818  -15.3038   26.2273 O   0  0  0  0  0  0  0  0  0  0  0  0
  2  1  1  0
  2  3  2  0
  4  5  1  0
  4  2  1  0
  6  5  1  0
  6  7  1  6
  8  6  1  0
  8 10  1  0
  9  8  2  0
 10 14  1  0
 11 10  1  0
 11 12  1  0
 12 13  1  0
 14 13  1  0
 14 15  1  1
 15 17  1  0
 16 15  2  0
 18 17  1  0
 18 21  1  0
 18 19  1  1
 20 19  1  0
 21 22  1  0
 23 21  2  0
M  END
$$$$
