QPC.pdb
     RDKit          3D

 23 23  0  0  1  0  0  0  0  0999 V2000
    5.5254  -18.7846   23.8917 N   0  0  0  0  0  0  0  0  0  0  0  0
    6.8668  -18.7365   23.4285 C   0  0  0  0  0  0  0  0  0  0  0  0
    7.5407  -19.7954   23.4639 O   0  0  0  0  0  0  0  0  0  0  0  0
    7.4966  -17.5107   22.9131 C   0  0  0  0  0  0  0  0  0  0  0  0
    6.5295  -16.3590   22.9350 C   0  0  0  0  0  0  0  0  0  0  0  0
    7.2981  -15.0877   22.5988 C   0  0  2  0  0  0  0  0  0  0  0  0
    8.1663  -15.3029   21.4794 N   0  0  0  0  0  0  0  0  0  0  0  0
    8.0274  -14.6085   23.7574 C   0  0  0  0  0  0  0  0  0  0  0  0
    9.2542  -14.9639   23.8489 O   0  0  0  0  0  0  0  0  0  0  0  0
    7.4729  -13.7808   24.7848 N   0  0  0  0  0  0  0  0  0  0  0  0
    6.2107  -13.0930   24.6246 C   0  0  0  0  0  0  0  0  0  0  0  0
    6.0532  -12.1891   25.8397 C   0  0  0  0  0  0  0  0  0  0  0  0
    6.8859  -12.9044   26.8680 C   0  0  0  0  0  0  0  0  0  0  0  0
    8.0213  -13.4517   26.0465 C   0  0  1  0  0  0  0  0  0  0  0  0
    8.6745  -14.5790   26.7720 C   0  0  0  0  0  0  0  0  0  0  0  0
    8.1299  -15.6984   26.7505 O   0  0  0  0  0  0  0  0  0  0  0  0
    9.8874  -14.4334   27.4849 N   0  0  0  0  0  0  0  0  0  0  0  0
   10.5127  -15.4588   28.2627 C   0  0  1  0  0  0  0  0  0  0  0  0
   12.0273  -15.2786   28.0958 C   0  0  0  0  0  0  0  0  0  0  0  0
   12.9402  -16.4992   29.0686 S   0  0  0  0  0  0  0  0  0  0  0  0
   10.2253  -15.3948   29.7007 C   0  0  0  0  0  0  0  0  0  0  0  0
   10.3028  -16.5745   30.4277 O   0  0  0  0  0  0  0  0  0  0  0  0
    9.9145  -14.3459   30.3168 O   0  0  0  0  0  0  0  0  0  0  0  0
  2  1  1  0
  2  3  2  0
  4  5  1  0
  4  2  1  0
  6  5  1  0
  6  7  1  6
  8  6  1  0
  8 10  1  0
  9  8  2  0
 10 14  1  0
 11 10  1  0
 11 12  1  0
 12 13  1  0
 14 13  1  0
 14 15  1  1
 15 17  1  0
 16 15  2  0
 18 17  1  0
 18 21  1  0
 18 19  1  1
 20 19  1  0
 21 22  1  0
 23 21  2  0
M  END
$$$$
