QPC.pdb
     RDKit          3D

 23 23  0  0  1  0  0  0  0  0999 V2000
    7.8847  -19.5385   15.8289 N   0  0  0  0  0  0  0  0  0  0  0  0
    7.0311  -18.7360   15.0266 C   0  0  0  0  0  0  0  0  0  0  0  0
    6.1565  -19.3144   14.3357 O   0  0  0  0  0  0  0  0  0  0  0  0
    7.1254  -17.2688   14.9697 C   0  0  0  0  0  0  0  0  0  0  0  0
    8.2882  -16.7726   15.7845 C   0  0  0  0  0  0  0  0  0  0  0  0
    8.4197  -15.2721   15.5587 C   0  0  2  0  0  0  0  0  0  0  0  0
    8.8818  -14.9992   14.2301 N   0  0  0  0  0  0  0  0  0  0  0  0
    9.2855  -14.6774   16.5590 C   0  0  0  0  0  0  0  0  0  0  0  0
   10.5461  -14.7794   16.3588 O   0  0  0  0  0  0  0  0  0  0  0  0
    8.8286  -13.9984   17.7330 N   0  0  0  0  0  0  0  0  0  0  0  0
    7.4676  -13.5295   17.8730 C   0  0  0  0  0  0  0  0  0  0  0  0
    7.4203  -12.7154   19.1588 C   0  0  0  0  0  0  0  0  0  0  0  0
    8.5483  -13.3196   19.9496 C   0  0  0  0  0  0  0  0  0  0  0  0
    9.5640  -13.6320   18.8845 C   0  0  1  0  0  0  0  0  0  0  0  0
   10.5221  -14.6600   19.3836 C   0  0  0  0  0  0  0  0  0  0  0  0
   10.1934  -15.8596   19.3279 O   0  0  0  0  0  0  0  0  0  0  0  0
   11.7899  -14.3329   19.9185 N   0  0  0  0  0  0  0  0  0  0  0  0
   12.7429  -15.2785   20.4135 C   0  0  1  0  0  0  0  0  0  0  0  0
   14.1290  -14.7674   19.9993 C   0  0  0  0  0  0  0  0  0  0  0  0
   15.4286  -15.9108   20.5221 S   0  0  0  0  0  0  0  0  0  0  0  0
   12.7547  -15.4255   21.8739 C   0  0  0  0  0  0  0  0  0  0  0  0
   12.6640  -14.2714   22.6396 O   0  0  0  0  0  0  0  0  0  0  0  0
   12.8413  -16.5235   22.4766 O   0  0  0  0  0  0  0  0  0  0  0  0
  2  1  1  0
  2  3  2  0
  4  5  1  0
  4  2  1  0
  6  5  1  0
  6  7  1  6
  8  6  1  0
  8 10  1  0
  9  8  2  0
 10 14  1  0
 11 10  1  0
 11 12  1  0
 12 13  1  0
 14 13  1  0
 14 15  1  1
 15 17  1  0
 16 15  2  0
 18 17  1  0
 18 21  1  0
 18 19  1  1
 20 19  1  0
 21 22  1  0
 23 21  2  0
M  END
$$$$
