QPC.pdb
     RDKit          3D

 23 23  0  0  1  0  0  0  0  0999 V2000
    6.3864  -19.5390   19.2352 N   0  0  0  0  0  0  0  0  0  0  0  0
    6.6316  -19.1081   17.9046 C   0  0  0  0  0  0  0  0  0  0  0  0
    5.8410  -19.4895   17.0066 O   0  0  0  0  0  0  0  0  0  0  0  0
    7.7619  -18.2417   17.5348 C   0  0  0  0  0  0  0  0  0  0  0  0
    7.2767  -16.9076   17.0378 C   0  0  0  0  0  0  0  0  0  0  0  0
    8.4931  -16.0330   16.7628 C   0  0  2  0  0  0  0  0  0  0  0  0
    9.4325  -16.7213   15.9281 N   0  0  0  0  0  0  0  0  0  0  0  0
    9.1009  -15.5959   18.0051 C   0  0  0  0  0  0  0  0  0  0  0  0
   10.0770  -16.2992   18.4435 O   0  0  0  0  0  0  0  0  0  0  0  0
    8.6859  -14.4513   18.7574 N   0  0  0  0  0  0  0  0  0  0  0  0
    7.7275  -13.4969   18.2450 C   0  0  0  0  0  0  0  0  0  0  0  0
    7.6834  -12.3488   19.2441 C   0  0  0  0  0  0  0  0  0  0  0  0
    8.1073  -13.0293   20.5168 C   0  0  0  0  0  0  0  0  0  0  0  0
    9.1262  -14.0245   20.0321 C   0  0  1  0  0  0  0  0  0  0  0  0
    9.2982  -15.1071   21.0432 C   0  0  0  0  0  0  0  0  0  0  0  0
    8.2965  -15.7537   21.4020 O   0  0  0  0  0  0  0  0  0  0  0  0
   10.5505  -15.4330   21.6140 N   0  0  0  0  0  0  0  0  0  0  0  0
   10.7541  -16.3859   22.6618 C   0  0  1  0  0  0  0  0  0  0  0  0
   10.9181  -17.7549   21.9886 C   0  0  0  0  0  0  0  0  0  0  0  0
   11.2771  -19.0419   23.2069 S   0  0  0  0  0  0  0  0  0  0  0  0
   11.9566  -16.1552   23.4713 C   0  0  0  0  0  0  0  0  0  0  0  0
   12.9656  -15.3768   22.9214 O   0  0  0  0  0  0  0  0  0  0  0  0
   12.1340  -16.6142   24.6264 O   0  0  0  0  0  0  0  0  0  0  0  0
  2  1  1  0
  2  3  2  0
  4  5  1  0
  4  2  1  0
  6  5  1  0
  6  7  1  6
  8  6  1  0
  8 10  1  0
  9  8  2  0
 10 14  1  0
 11 10  1  0
 11 12  1  0
 12 13  1  0
 14 13  1  0
 14 15  1  1
 15 17  1  0
 16 15  2  0
 18 17  1  0
 18 21  1  0
 18 19  1  6
 20 19  1  0
 21 22  1  0
 23 21  2  0
M  END
$$$$
