QPC.pdb
     RDKit          3D

 23 23  0  0  1  0  0  0  0  0999 V2000
    6.0155  -20.4651   19.2843 N   0  0  0  0  0  0  0  0  0  0  0  0
    5.3528  -19.3597   18.6883 C   0  0  0  0  0  0  0  0  0  0  0  0
    4.1107  -19.4376   18.5213 O   0  0  0  0  0  0  0  0  0  0  0  0
    6.0517  -18.1373   18.2614 C   0  0  0  0  0  0  0  0  0  0  0  0
    7.5373  -18.2723   18.4532 C   0  0  0  0  0  0  0  0  0  0  0  0
    8.1960  -16.9842   17.9768 C   0  0  2  0  0  0  0  0  0  0  0  0
    9.1490  -17.2564   16.9420 N   0  0  0  0  0  0  0  0  0  0  0  0
    8.8011  -16.2766   19.0890 C   0  0  0  0  0  0  0  0  0  0  0  0
    9.7191  -16.8968   19.7309 O   0  0  0  0  0  0  0  0  0  0  0  0
    8.4429  -14.9553   19.5064 N   0  0  0  0  0  0  0  0  0  0  0  0
    7.6430  -14.0758   18.6827 C   0  0  0  0  0  0  0  0  0  0  0  0
    7.6299  -12.7225   19.3804 C   0  0  0  0  0  0  0  0  0  0  0  0
    7.8598  -13.1115   20.8151 C   0  0  0  0  0  0  0  0  0  0  0  0
    8.8071  -14.2738   20.6913 C   0  0  1  0  0  0  0  0  0  0  0  0
    8.7688  -15.0937   21.9363 C   0  0  0  0  0  0  0  0  0  0  0  0
    7.7231  -15.7099   22.2137 O   0  0  0  0  0  0  0  0  0  0  0  0
    9.8693  -15.2030   22.8181 N   0  0  0  0  0  0  0  0  0  0  0  0
    9.8509  -15.8841   24.0763 C   0  0  1  0  0  0  0  0  0  0  0  0
    9.7183  -17.3811   23.7668 C   0  0  0  0  0  0  0  0  0  0  0  0
   11.1389  -17.9800   22.8219 S   0  0  0  0  0  0  0  0  0  0  0  0
   11.0676  -15.7147   24.8798 C   0  0  0  0  0  0  0  0  0  0  0  0
   11.0466  -16.1769   26.1883 O   0  0  0  0  0  0  0  0  0  0  0  0
   12.1248  -15.1805   24.4636 O   0  0  0  0  0  0  0  0  0  0  0  0
  2  1  1  0
  2  3  2  0
  4  5  1  0
  4  2  1  0
  6  5  1  0
  6  7  1  6
  8  6  1  0
  8 10  1  0
  9  8  2  0
 10 14  1  0
 11 10  1  0
 11 12  1  0
 12 13  1  0
 14 13  1  0
 14 15  1  1
 15 17  1  0
 16 15  2  0
 18 17  1  0
 18 21  1  0
 18 19  1  6
 20 19  1  0
 21 22  1  0
 23 21  2  0
M  END
$$$$
