QPC.pdb
     RDKit          3D

 23 23  0  0  1  0  0  0  0  0999 V2000
   -4.5467  -24.6979   31.3621 N   0  0  0  0  0  0  0  0  0  0  0  0
   -3.1298  -24.6110   31.3296 C   0  0  0  0  0  0  0  0  0  0  0  0
   -2.5826  -24.3108   30.2400 O   0  0  0  0  0  0  0  0  0  0  0  0
   -2.2815  -24.8551   32.5068 C   0  0  0  0  0  0  0  0  0  0  0  0
   -3.1191  -25.1111   33.7295 C   0  0  0  0  0  0  0  0  0  0  0  0
   -2.1852  -25.2382   34.9261 C   0  0  2  0  0  0  0  0  0  0  0  0
   -1.3645  -26.4064   34.8051 N   0  0  0  0  0  0  0  0  0  0  0  0
   -2.9383  -25.2393   36.1657 C   0  0  0  0  0  0  0  0  0  0  0  0
   -3.5561  -26.3217   36.4593 O   0  0  0  0  0  0  0  0  0  0  0  0
   -3.0334  -24.1284   37.0630 N   0  0  0  0  0  0  0  0  0  0  0  0
   -2.0907  -23.0318   37.0363 C   0  0  0  0  0  0  0  0  0  0  0  0
   -2.4142  -22.1536   38.2372 C   0  0  0  0  0  0  0  0  0  0  0  0
   -3.8721  -22.4523   38.4557 C   0  0  0  0  0  0  0  0  0  0  0  0
   -3.9625  -23.9132   38.1076 C   0  0  1  0  0  0  0  0  0  0  0  0
   -5.3746  -24.2720   37.7896 C   0  0  0  0  0  0  0  0  0  0  0  0
   -5.8123  -24.0222   36.6510 O   0  0  0  0  0  0  0  0  0  0  0  0
   -6.2407  -24.8847   38.7249 N   0  0  0  0  0  0  0  0  0  0  0  0
   -7.6209  -25.1839   38.4949 C   0  0  1  0  0  0  0  0  0  0  0  0
   -7.8227  -26.6575   38.8718 C   0  0  0  0  0  0  0  0  0  0  0  0
   -6.8879  -27.0839   40.3596 S   0  0  0  0  0  0  0  0  0  0  0  0
   -8.5590  -24.3978   39.3053 C   0  0  0  0  0  0  0  0  0  0  0  0
   -9.8918  -24.3841   38.9186 O   0  0  0  0  0  0  0  0  0  0  0  0
   -8.2373  -23.7376   40.3237 O   0  0  0  0  0  0  0  0  0  0  0  0
  2  1  1  0
  2  3  2  0
  4  5  1  0
  4  2  1  0
  6  5  1  0
  6  7  1  6
  8  6  1  0
  8 10  1  0
  9  8  2  0
 10 14  1  0
 11 10  1  0
 11 12  1  0
 12 13  1  0
 14 13  1  0
 14 15  1  6
 15 17  1  0
 16 15  2  0
 18 17  1  0
 18 21  1  0
 18 19  1  1
 20 19  1  0
 21 22  1  0
 23 21  2  0
M  END
$$$$
