QPC.pdb
     RDKit          3D

 23 23  0  0  1  0  0  0  0  0999 V2000
    5.5440  -18.8678   18.4825 N   0  0  0  0  0  0  0  0  0  0  0  0
    5.9441  -18.8209   17.1209 C   0  0  0  0  0  0  0  0  0  0  0  0
    5.1039  -19.1515   16.2481 O   0  0  0  0  0  0  0  0  0  0  0  0
    7.2886  -18.4056   16.6912 C   0  0  0  0  0  0  0  0  0  0  0  0
    8.1295  -18.0016   17.8710 C   0  0  0  0  0  0  0  0  0  0  0  0
    8.7183  -16.6263   17.5850 C   0  0  2  0  0  0  0  0  0  0  0  0
    9.7291  -16.7095   16.5729 N   0  0  0  0  0  0  0  0  0  0  0  0
    9.2281  -16.0243   18.8022 C   0  0  0  0  0  0  0  0  0  0  0  0
   10.3277  -16.4966   19.2576 O   0  0  0  0  0  0  0  0  0  0  0  0
    8.5914  -14.9575   19.5128 N   0  0  0  0  0  0  0  0  0  0  0  0
    7.5989  -14.1043   18.8972 C   0  0  0  0  0  0  0  0  0  0  0  0
    7.2968  -12.9989   19.8997 C   0  0  0  0  0  0  0  0  0  0  0  0
    7.6360  -13.6637   21.2056 C   0  0  0  0  0  0  0  0  0  0  0  0
    8.8169  -14.5211   20.8393 C   0  0  1  0  0  0  0  0  0  0  0  0
    8.9876  -15.6062   21.8478 C   0  0  0  0  0  0  0  0  0  0  0  0
    8.1421  -16.5192   21.8916 O   0  0  0  0  0  0  0  0  0  0  0  0
   10.0691  -15.6452   22.7585 N   0  0  0  0  0  0  0  0  0  0  0  0
   10.2893  -16.6716   23.7308 C   0  0  1  0  0  0  0  0  0  0  0  0
   11.6182  -17.3470   23.3676 C   0  0  0  0  0  0  0  0  0  0  0  0
   12.9643  -16.1418   23.2966 S   0  0  0  0  0  0  0  0  0  0  0  0
   10.4130  -16.1881   25.1112 C   0  0  0  0  0  0  0  0  0  0  0  0
   10.3313  -14.8192   25.3255 O   0  0  0  0  0  0  0  0  0  0  0  0
   10.5875  -16.9284   26.1101 O   0  0  0  0  0  0  0  0  0  0  0  0
  2  1  1  0
  2  3  2  0
  4  5  1  0
  4  2  1  0
  6  5  1  0
  6  7  1  6
  8  6  1  0
  8 10  1  0
  9  8  2  0
 10 14  1  0
 11 10  1  0
 11 12  1  0
 12 13  1  0
 14 13  1  0
 14 15  1  1
 15 17  1  0
 16 15  2  0
 18 17  1  0
 18 21  1  0
 18 19  1  6
 20 19  1  0
 21 22  1  0
 23 21  2  0
M  END
$$$$
