QPC.pdb
     RDKit          3D

 23 23  0  0  1  0  0  0  0  0999 V2000
    3.3354  -18.6757   22.3576 N   0  0  0  0  0  0  0  0  0  0  0  0
    3.5662  -18.9685   20.9875 C   0  0  0  0  0  0  0  0  0  0  0  0
    2.7385  -19.7034   20.3945 O   0  0  0  0  0  0  0  0  0  0  0  0
    4.7228  -18.4531   20.2383 C   0  0  0  0  0  0  0  0  0  0  0  0
    5.5432  -17.5225   21.0887 C   0  0  0  0  0  0  0  0  0  0  0  0
    6.8414  -17.2250   20.3498 C   0  0  2  0  0  0  0  0  0  0  0  0
    7.5643  -18.4347   20.0905 N   0  0  0  0  0  0  0  0  0  0  0  0
    7.6444  -16.2699   21.0892 C   0  0  0  0  0  0  0  0  0  0  0  0
    8.4312  -16.7499   21.9780 O   0  0  0  0  0  0  0  0  0  0  0  0
    7.6123  -14.8526   20.8926 N   0  0  0  0  0  0  0  0  0  0  0  0
    7.1067  -14.2532   19.6773 C   0  0  0  0  0  0  0  0  0  0  0  0
    7.4012  -12.7626   19.7748 C   0  0  0  0  0  0  0  0  0  0  0  0
    7.4490  -12.5531   21.2636 C   0  0  0  0  0  0  0  0  0  0  0  0
    8.0749  -13.8303   21.7539 C   0  0  1  0  0  0  0  0  0  0  0  0
    7.7642  -14.0247   23.1994 C   0  0  0  0  0  0  0  0  0  0  0  0
    6.7055  -14.6016   23.5103 O   0  0  0  0  0  0  0  0  0  0  0  0
    8.6198  -13.5825   24.2351 N   0  0  0  0  0  0  0  0  0  0  0  0
    8.2082  -13.2913   25.5743 C   0  0  1  0  0  0  0  0  0  0  0  0
    6.8158  -12.6536   25.4801 C   0  0  0  0  0  0  0  0  0  0  0  0
    6.0977  -12.4103   27.1216 S   0  0  0  0  0  0  0  0  0  0  0  0
    8.0875  -14.4669   26.4449 C   0  0  0  0  0  0  0  0  0  0  0  0
    8.1434  -15.7195   25.8497 O   0  0  0  0  0  0  0  0  0  0  0  0
    7.9373  -14.4159   27.6903 O   0  0  0  0  0  0  0  0  0  0  0  0
  2  1  1  0
  2  3  2  0
  4  5  1  0
  4  2  1  0
  6  5  1  0
  6  7  1  1
  8  6  1  0
  8 10  1  0
  9  8  2  0
 10 14  1  0
 11 10  1  0
 11 12  1  0
 12 13  1  0
 14 13  1  0
 14 15  1  1
 15 17  1  0
 16 15  2  0
 18 17  1  0
 18 21  1  0
 18 19  1  6
 20 19  1  0
 21 22  1  0
 23 21  2  0
M  END
$$$$
