MRW.pdb
     RDKit          3D

 34 35  0  0  1  0  0  0  0  0999 V2000
    8.3077  -11.4960   21.0640 C   0  0  0  0  0  0  0  0  0  0  0  0
    7.2647  -11.8717   19.6337 S   0  0  0  0  0  0  0  0  0  0  0  0
    6.8095  -13.6138   19.6289 C   0  0  0  0  0  0  0  0  0  0  0  0
    7.5659  -14.3673   20.6770 C   0  0  0  0  0  0  0  0  0  0  0  0
    7.3541  -15.8761   20.5007 C   0  0  2  0  0  0  0  0  0  0  0  0
    5.9588  -16.1366   20.5602 N   0  0  0  0  0  0  0  0  0  0  0  0
    8.1183  -16.5705   21.5834 C   0  0  0  0  0  0  0  0  0  0  0  0
    7.4483  -17.1836   22.4868 O   0  0  0  0  0  0  0  0  0  0  0  0
   15.7163  -20.3246   20.1781 N   0  0  0  0  0  0  0  0  0  0  0  0
   15.1081  -21.1509   21.1520 C   0  0  0  0  0  0  0  0  0  0  0  0
   15.5917  -22.3251   21.3584 N   0  0  0  0  0  0  0  0  0  0  0  0
   13.9931  -20.6785   21.8744 N   0  0  0  0  0  0  0  0  0  0  0  0
   13.5164  -19.3212   21.5637 C   0  0  0  0  0  0  0  0  0  0  0  0
   12.3547  -18.9643   22.4025 C   0  0  0  0  0  0  0  0  0  0  0  0
   11.4126  -17.9821   21.8737 C   0  0  0  0  0  0  0  0  0  0  0  0
   10.2290  -17.5202   22.5933 C   0  0  2  0  0  0  0  0  0  0  0  0
    9.5126  -16.5704   21.6377 N   0  0  0  0  0  0  0  0  0  0  0  0
   10.2511  -16.8462   23.8528 C   0  0  0  0  0  0  0  0  0  0  0  0
   10.8147  -15.7078   23.9712 O   0  0  0  0  0  0  0  0  0  0  0  0
   15.1389  -22.9934   22.0193 N   0  0  0  0  0  0  0  0  0  0  0  0
    9.6680  -17.3672   25.0351 C   0  0  1  0  0  0  0  0  0  0  0  0
    9.9879  -16.8586   26.3804 C   0  0  0  0  0  0  0  0  0  0  0  0
    8.7146  -16.5868   27.0907 C   0  0  0  0  0  0  0  0  0  0  0  0
    7.9065  -15.5200   26.5194 C   0  0  0  0  0  0  0  0  0  0  0  0
    6.7822  -15.6977   25.6971 N   0  0  0  0  0  0  0  0  0  0  0  0
    6.3203  -14.5013   25.3478 C   0  0  0  0  0  0  0  0  0  0  0  0
    7.0842  -13.5588   25.9000 C   0  0  0  0  0  0  0  0  0  0  0  0
    7.0400  -12.1876   25.8738 C   0  0  0  0  0  0  0  0  0  0  0  0
    7.9440  -11.4017   26.5498 C   0  0  0  0  0  0  0  0  0  0  0  0
    8.9351  -12.0175   27.2834 C   0  0  0  0  0  0  0  0  0  0  0  0
    9.0044  -13.3928   27.3274 C   0  0  0  0  0  0  0  0  0  0  0  0
    8.0872  -14.1729   26.6409 C   0  0  0  0  0  0  0  0  0  0  0  0
   10.9900  -17.6792   27.0385 O   0  0  0  0  0  0  0  0  0  0  0  0
   11.5044  -18.8374   26.4664 O   0  0  0  0  0  0  0  0  0  0  0  0
  2  1  1  0
  3  2  1  0
  4  3  1  0
  5  4  1  0
  5  6  1  1
  7  5  1  0
  8  7  2  0
  9 10  1  0
 10 11  2  0
 10 12  1  0
 12 13  1  0
 13 14  1  0
 14 15  1  0
 16 15  1  6
 16 18  1  0
 16 17  1  0
 17  7  1  0
 18 19  2  0
 20 21  1  0
 20 18  1  0
 21 22  1  1
 23 22  1  0
 24 23  2  0
 25 24  1  0
 26 25  1  0
 26 31  2  0
 27 26  1  0
 28 27  2  0
 28 29  1  0
 29 30  2  0
 30 31  1  0
 31 23  1  0
 32 33  1  0
 32 21  1  0
 34 32  2  0
M  END
$$$$
