MRW.pdb
     RDKit          3D

 34 35  0  0  1  0  0  0  0  0999 V2000
    8.5998  -11.5366   20.9202 C   0  0  0  0  0  0  0  0  0  0  0  0
    7.6054  -12.0674   19.5045 S   0  0  0  0  0  0  0  0  0  0  0  0
    8.0079  -13.7642   19.0555 C   0  0  0  0  0  0  0  0  0  0  0  0
    8.2561  -14.5955   20.2744 C   0  0  0  0  0  0  0  0  0  0  0  0
    8.7607  -15.9869   19.8722 C   0  0  2  0  0  0  0  0  0  0  0  0
    7.8246  -16.5514   18.9648 N   0  0  0  0  0  0  0  0  0  0  0  0
    8.9113  -16.7934   21.1233 C   0  0  0  0  0  0  0  0  0  0  0  0
    7.8772  -17.4072   21.5649 O   0  0  0  0  0  0  0  0  0  0  0  0
   10.2365  -19.6671   18.5307 N   0  0  0  0  0  0  0  0  0  0  0  0
    9.6693  -20.8466   19.0675 C   0  0  0  0  0  0  0  0  0  0  0  0
    8.6063  -21.3264   18.5243 N   0  0  0  0  0  0  0  0  0  0  0  0
   10.2728  -21.4718   20.1780 N   0  0  0  0  0  0  0  0  0  0  0  0
   10.2474  -20.7428   21.4562 C   0  0  0  0  0  0  0  0  0  0  0  0
   11.2540  -19.6625   21.4684 C   0  0  0  0  0  0  0  0  0  0  0  0
   11.2980  -18.7897   22.6382 C   0  0  0  0  0  0  0  0  0  0  0  0
   10.2370  -17.8518   22.9940 C   0  0  2  0  0  0  0  0  0  0  0  0
   10.1213  -16.8952   21.8107 N   0  0  0  0  0  0  0  0  0  0  0  0
   10.2388  -17.0201   24.1556 C   0  0  0  0  0  0  0  0  0  0  0  0
   10.7186  -15.8390   24.1089 O   0  0  0  0  0  0  0  0  0  0  0  0
    8.1449  -22.1861   18.8938 N   0  0  0  0  0  0  0  0  0  0  0  0
    9.7244  -17.4232   25.4135 C   0  0  2  0  0  0  0  0  0  0  0  0
    9.9477  -16.6611   26.6546 C   0  0  0  0  0  0  0  0  0  0  0  0
    8.6389  -16.4692   27.3253 C   0  0  0  0  0  0  0  0  0  0  0  0
    7.6581  -15.7166   26.5578 C   0  0  0  0  0  0  0  0  0  0  0  0
    6.6473  -16.2717   25.7565 N   0  0  0  0  0  0  0  0  0  0  0  0
    5.9637  -15.2816   25.1917 C   0  0  0  0  0  0  0  0  0  0  0  0
    6.4769  -14.1156   25.5844 C   0  0  0  0  0  0  0  0  0  0  0  0
    6.1449  -12.8117   25.3153 C   0  0  0  0  0  0  0  0  0  0  0  0
    6.8206  -11.7449   25.8604 C   0  0  0  0  0  0  0  0  0  0  0  0
    7.8748  -11.9966   26.7119 C   0  0  0  0  0  0  0  0  0  0  0  0
    8.2311  -13.2960   26.9997 C   0  0  0  0  0  0  0  0  0  0  0  0
    7.5419  -14.3619   26.4429 C   0  0  0  0  0  0  0  0  0  0  0  0
   11.0514  -17.2063   27.4261 O   0  0  0  0  0  0  0  0  0  0  0  0
   11.6867  -16.4906   28.4349 O   0  0  0  0  0  0  0  0  0  0  0  0
  2  1  1  0
  3  2  1  0
  4  3  1  0
  5  4  1  0
  5  6  1  6
  7  5  1  0
  8  7  2  0
  9 10  1  0
 10 11  2  0
 10 12  1  0
 12 13  1  0
 13 14  1  0
 14 15  1  0
 16 15  1  6
 16 18  1  0
 16 17  1  0
 17  7  1  0
 18 19  2  0
 20 21  1  0
 20 18  1  0
 21 22  1  6
 23 22  1  0
 24 23  2  0
 25 24  1  0
 26 25  1  0
 26 31  2  0
 27 26  1  0
 28 27  2  0
 28 29  1  0
 29 30  2  0
 30 31  1  0
 31 23  1  0
 32 33  1  0
 32 21  1  0
 34 32  2  0
M  END
$$$$
