MRW.pdb
     RDKit          3D

 34 35  0  0  1  0  0  0  0  0999 V2000
    8.9133  -11.7484   19.3877 C   0  0  0  0  0  0  0  0  0  0  0  0
    7.5615  -12.0189   20.5600 S   0  0  0  0  0  0  0  0  0  0  0  0
    7.5921  -13.7115   21.1737 C   0  0  0  0  0  0  0  0  0  0  0  0
    6.8187  -14.6214   20.2724 C   0  0  0  0  0  0  0  0  0  0  0  0
    7.7336  -15.7208   19.7187 C   0  0  2  0  0  0  0  0  0  0  0  0
    6.9549  -16.5640   18.8816 N   0  0  0  0  0  0  0  0  0  0  0  0
    8.3232  -16.4494   20.8848 C   0  0  0  0  0  0  0  0  0  0  0  0
    7.5708  -17.2715   21.5165 O   0  0  0  0  0  0  0  0  0  0  0  0
   14.1480  -21.9671   20.2156 N   0  0  0  0  0  0  0  0  0  0  0  0
   13.6675  -22.1087   21.5386 C   0  0  0  0  0  0  0  0  0  0  0  0
   13.7406  -23.2617   22.1048 N   0  0  0  0  0  0  0  0  0  0  0  0
   13.1223  -20.9945   22.2092 N   0  0  0  0  0  0  0  0  0  0  0  0
   12.9000  -19.7749   21.4161 C   0  0  0  0  0  0  0  0  0  0  0  0
   12.4098  -18.6728   22.2679 C   0  0  0  0  0  0  0  0  0  0  0  0
   11.5042  -17.6999   21.6636 C   0  0  0  0  0  0  0  0  0  0  0  0
   10.2667  -17.2420   22.2891 C   0  0  2  0  0  0  0  0  0  0  0  0
    9.6433  -16.2641   21.2973 N   0  0  0  0  0  0  0  0  0  0  0  0
   10.1856  -16.5962   23.5609 C   0  0  0  0  0  0  0  0  0  0  0  0
   10.4644  -15.3571   23.6799 O   0  0  0  0  0  0  0  0  0  0  0  0
   13.4366  -23.4050   23.0924 N   0  0  0  0  0  0  0  0  0  0  0  0
    9.8007  -17.2551   24.7554 C   0  0  2  0  0  0  0  0  0  0  0  0
    9.9588  -16.6542   26.0914 C   0  0  0  0  0  0  0  0  0  0  0  0
    8.6422  -16.6820   26.7736 C   0  0  0  0  0  0  0  0  0  0  0  0
    7.6522  -15.7594   26.2390 C   0  0  0  0  0  0  0  0  0  0  0  0
    6.5076  -16.1214   25.5105 N   0  0  0  0  0  0  0  0  0  0  0  0
    5.8570  -15.0144   25.1671 C   0  0  0  0  0  0  0  0  0  0  0  0
    6.5181  -13.9554   25.6345 C   0  0  0  0  0  0  0  0  0  0  0  0
    6.2787  -12.6055   25.5765 C   0  0  0  0  0  0  0  0  0  0  0  0
    7.1091  -11.6775   26.1605 C   0  0  0  0  0  0  0  0  0  0  0  0
    8.2279  -12.1225   26.8313 C   0  0  0  0  0  0  0  0  0  0  0  0
    8.4940  -13.4723   26.9052 C   0  0  0  0  0  0  0  0  0  0  0  0
    7.6489  -14.3967   26.3116 C   0  0  0  0  0  0  0  0  0  0  0  0
   11.1145  -17.1934   26.7875 O   0  0  0  0  0  0  0  0  0  0  0  0
   11.9523  -18.1483   26.2219 O   0  0  0  0  0  0  0  0  0  0  0  0
  2  1  1  0
  3  2  1  0
  4  3  1  0
  5  4  1  0
  5  6  1  6
  7  5  1  0
  8  7  2  0
  9 10  1  0
 10 11  2  0
 10 12  1  0
 12 13  1  0
 13 14  1  0
 14 15  1  0
 16 15  1  6
 16 18  1  0
 16 17  1  0
 17  7  1  0
 18 19  2  0
 20 21  1  0
 20 18  1  0
 21 22  1  6
 23 22  1  0
 24 23  2  0
 25 24  1  0
 26 25  1  0
 26 31  2  0
 27 26  1  0
 28 27  2  0
 28 29  1  0
 29 30  2  0
 30 31  1  0
 31 23  1  0
 32 33  1  0
 32 21  1  0
 34 32  2  0
M  END
$$$$
