MRW.pdb
     RDKit          3D

 34 35  0  0  1  0  0  0  0  0999 V2000
    9.3267  -11.3192   20.1948 C   0  0  0  0  0  0  0  0  0  0  0  0
    7.8748  -11.8332   19.2447 S   0  0  0  0  0  0  0  0  0  0  0  0
    8.0007  -13.5729   18.7976 C   0  0  0  0  0  0  0  0  0  0  0  0
    8.1728  -14.4268   20.0141 C   0  0  0  0  0  0  0  0  0  0  0  0
    8.5488  -15.8572   19.6078 C   0  0  2  0  0  0  0  0  0  0  0  0
    7.4968  -16.3810   18.8095 N   0  0  0  0  0  0  0  0  0  0  0  0
    8.7677  -16.6418   20.8626 C   0  0  0  0  0  0  0  0  0  0  0  0
    7.7720  -17.2897   21.3419 O   0  0  0  0  0  0  0  0  0  0  0  0
   12.8823  -21.3063   25.2929 N   0  0  0  0  0  0  0  0  0  0  0  0
   12.5187  -22.2599   24.3133 C   0  0  0  0  0  0  0  0  0  0  0  0
   12.2471  -23.4606   24.6873 N   0  0  0  0  0  0  0  0  0  0  0  0
   12.4597  -21.8825   22.9559 N   0  0  0  0  0  0  0  0  0  0  0  0
   12.8021  -20.4888   22.6299 C   0  0  0  0  0  0  0  0  0  0  0  0
   11.8113  -19.5541   23.2001 C   0  0  0  0  0  0  0  0  0  0  0  0
   11.1672  -18.6107   22.2908 C   0  0  0  0  0  0  0  0  0  0  0  0
   10.1848  -17.6159   22.7120 C   0  0  2  0  0  0  0  0  0  0  0  0
   10.0007  -16.6884   21.5143 N   0  0  0  0  0  0  0  0  0  0  0  0
   10.3300  -16.7530   23.8414 C   0  0  0  0  0  0  0  0  0  0  0  0
   10.9876  -15.6640   23.7473 O   0  0  0  0  0  0  0  0  0  0  0  0
   11.9848  -24.2002   23.9999 N   0  0  0  0  0  0  0  0  0  0  0  0
    9.7739  -17.0248   25.1166 C   0  0  2  0  0  0  0  0  0  0  0  0
   10.2350  -16.3662   26.3513 C   0  0  0  0  0  0  0  0  0  0  0  0
    9.0851  -16.2645   27.2825 C   0  0  0  0  0  0  0  0  0  0  0  0
    7.8530  -15.7692   26.6876 C   0  0  0  0  0  0  0  0  0  0  0  0
    6.8777  -16.5562   26.0542 N   0  0  0  0  0  0  0  0  0  0  0  0
    5.9106  -15.7579   25.6137 C   0  0  0  0  0  0  0  0  0  0  0  0
    6.2067  -14.4968   25.9282 C   0  0  0  0  0  0  0  0  0  0  0  0
    5.5544  -13.3066   25.7259 C   0  0  0  0  0  0  0  0  0  0  0  0
    6.0530  -12.1020   26.1641 C   0  0  0  0  0  0  0  0  0  0  0  0
    7.2575  -12.0904   26.8339 C   0  0  0  0  0  0  0  0  0  0  0  0
    7.9350  -13.2703   27.0510 C   0  0  0  0  0  0  0  0  0  0  0  0
    7.4214  -14.4774   26.6034 C   0  0  0  0  0  0  0  0  0  0  0  0
   11.4744  -16.9478   26.8374 O   0  0  0  0  0  0  0  0  0  0  0  0
   12.4617  -16.1944   27.4627 O   0  0  0  0  0  0  0  0  0  0  0  0
  2  1  1  0
  3  2  1  0
  4  3  1  0
  5  4  1  0
  5  6  1  1
  7  5  1  0
  8  7  2  0
  9 10  1  0
 10 11  2  0
 10 12  1  0
 12 13  1  0
 13 14  1  0
 14 15  1  0
 16 15  1  6
 16 18  1  0
 16 17  1  0
 17  7  1  0
 18 19  2  0
 20 21  1  0
 20 18  1  0
 21 22  1  6
 23 22  1  0
 24 23  2  0
 25 24  1  0
 26 25  1  0
 26 31  2  0
 27 26  1  0
 28 27  2  0
 28 29  1  0
 29 30  2  0
 30 31  1  0
 31 23  1  0
 32 33  1  0
 32 21  1  0
 34 32  2  0
M  END
$$$$
