MRW.pdb
     RDKit          3D

 34 35  0  0  1  0  0  0  0  0999 V2000
    7.5514  -11.5980   20.3077 C   0  0  0  0  0  0  0  0  0  0  0  0
    7.3496  -12.4104   21.9120 S   0  0  0  0  0  0  0  0  0  0  0  0
    6.9294  -14.1470   21.6880 C   0  0  0  0  0  0  0  0  0  0  0  0
    7.7955  -14.7765   20.6430 C   0  0  0  0  0  0  0  0  0  0  0  0
    7.5694  -16.2932   20.6115 C   0  0  2  0  0  0  0  0  0  0  0  0
    6.1742  -16.5346   20.7273 N   0  0  0  0  0  0  0  0  0  0  0  0
    8.3548  -16.8918   21.7355 C   0  0  0  0  0  0  0  0  0  0  0  0
    7.7027  -17.3937   22.7172 O   0  0  0  0  0  0  0  0  0  0  0  0
   16.1685  -19.2269   23.3755 N   0  0  0  0  0  0  0  0  0  0  0  0
   15.5304  -20.4404   23.0268 C   0  0  0  0  0  0  0  0  0  0  0  0
   16.1778  -21.3018   22.3239 N   0  0  0  0  0  0  0  0  0  0  0  0
   14.2083  -20.6842   23.4520 N   0  0  0  0  0  0  0  0  0  0  0  0
   13.1234  -20.1254   22.6295 C   0  0  0  0  0  0  0  0  0  0  0  0
   12.8332  -18.7298   23.0150 C   0  0  0  0  0  0  0  0  0  0  0  0
   11.7869  -18.0264   22.2787 C   0  0  0  0  0  0  0  0  0  0  0  0
   10.4792  -17.6966   22.8383 C   0  0  2  0  0  0  0  0  0  0  0  0
    9.7498  -16.9194   21.7463 N   0  0  0  0  0  0  0  0  0  0  0  0
   10.2698  -16.9512   24.0390 C   0  0  0  0  0  0  0  0  0  0  0  0
   10.5276  -15.7026   24.0825 O   0  0  0  0  0  0  0  0  0  0  0  0
   15.7284  -22.1821   21.9898 N   0  0  0  0  0  0  0  0  0  0  0  0
    9.7743  -17.5167   25.2406 C   0  0  1  0  0  0  0  0  0  0  0  0
    9.9604  -16.8893   26.5607 C   0  0  0  0  0  0  0  0  0  0  0  0
    8.6239  -16.6708   27.1654 C   0  0  0  0  0  0  0  0  0  0  0  0
    7.7352  -15.8096   26.4001 C   0  0  0  0  0  0  0  0  0  0  0  0
    6.6851  -16.2454   25.5760 N   0  0  0  0  0  0  0  0  0  0  0  0
    6.1129  -15.1815   25.0215 C   0  0  0  0  0  0  0  0  0  0  0  0
    6.7354  -14.0805   25.4426 C   0  0  0  0  0  0  0  0  0  0  0  0
    6.5404  -12.7452   25.1941 C   0  0  0  0  0  0  0  0  0  0  0  0
    7.3124  -11.7619   25.7676 C   0  0  0  0  0  0  0  0  0  0  0  0
    8.3236  -12.1338   26.6272 C   0  0  0  0  0  0  0  0  0  0  0  0
    8.5430  -13.4674   26.8949 C   0  0  0  0  0  0  0  0  0  0  0  0
    7.7578  -14.4482   26.3095 C   0  0  0  0  0  0  0  0  0  0  0  0
   10.9735  -17.5773   27.3423 O   0  0  0  0  0  0  0  0  0  0  0  0
   11.4570  -17.0799   28.5474 O   0  0  0  0  0  0  0  0  0  0  0  0
  2  1  1  0
  3  2  1  0
  4  3  1  0
  5  4  1  0
  5  6  1  1
  7  5  1  0
  8  7  2  0
  9 10  1  0
 10 11  2  0
 10 12  1  0
 12 13  1  0
 13 14  1  0
 14 15  1  0
 16 15  1  6
 16 18  1  0
 16 17  1  0
 17  7  1  0
 18 19  2  0
 20 21  1  0
 20 18  1  0
 21 22  1  1
 23 22  1  0
 24 23  2  0
 25 24  1  0
 26 25  1  0
 26 31  2  0
 27 26  1  0
 28 27  2  0
 28 29  1  0
 29 30  2  0
 30 31  1  0
 31 23  1  0
 32 33  1  0
 32 21  1  0
 34 32  2  0
M  END
$$$$
