MRW.pdb
     RDKit          3D

 34 35  0  0  1  0  0  0  0  0999 V2000
    8.2902  -11.9953   20.2507 C   0  0  0  0  0  0  0  0  0  0  0  0
    8.2202  -12.0903   18.4450 S   0  0  0  0  0  0  0  0  0  0  0  0
    8.7689  -13.7094   17.8797 C   0  0  0  0  0  0  0  0  0  0  0  0
    7.9273  -14.7960   18.4709 C   0  0  0  0  0  0  0  0  0  0  0  0
    8.4463  -16.1689   18.0258 C   0  0  2  0  0  0  0  0  0  0  0  0
    7.4174  -16.8124   17.2873 N   0  0  0  0  0  0  0  0  0  0  0  0
    8.8352  -16.9267   19.2558 C   0  0  0  0  0  0  0  0  0  0  0  0
    7.9392  -17.6474   19.8202 O   0  0  0  0  0  0  0  0  0  0  0  0
   12.3238  -20.3147   23.9924 N   0  0  0  0  0  0  0  0  0  0  0  0
   13.0845  -21.3450   23.3915 C   0  0  0  0  0  0  0  0  0  0  0  0
   14.0721  -21.8482   24.0445 N   0  0  0  0  0  0  0  0  0  0  0  0
   12.7505  -21.7999   22.0992 N   0  0  0  0  0  0  0  0  0  0  0  0
   11.9026  -20.9231   21.2758 C   0  0  0  0  0  0  0  0  0  0  0  0
   12.3275  -19.5138   21.3946 C   0  0  0  0  0  0  0  0  0  0  0  0
   11.6506  -18.5285   20.5563 C   0  0  0  0  0  0  0  0  0  0  0  0
   10.4778  -17.7684   20.9794 C   0  0  2  0  0  0  0  0  0  0  0  0
   10.1205  -16.8731   19.7964 N   0  0  0  0  0  0  0  0  0  0  0  0
   10.4261  -16.9193   22.1272 C   0  0  0  0  0  0  0  0  0  0  0  0
   10.9425  -15.7533   22.0971 O   0  0  0  0  0  0  0  0  0  0  0  0
   14.6257  -22.6476   23.6665 N   0  0  0  0  0  0  0  0  0  0  0  0
    9.8168  -17.2882   23.3527 C   0  0  2  0  0  0  0  0  0  0  0  0
    9.8592  -16.4419   24.5581 C   0  0  0  0  0  0  0  0  0  0  0  0
    8.5650  -15.7264   24.6709 C   0  0  0  0  0  0  0  0  0  0  0  0
    8.3832  -14.9730   25.9024 C   0  0  0  0  0  0  0  0  0  0  0  0
    8.9137  -15.3168   27.1562 N   0  0  0  0  0  0  0  0  0  0  0  0
    8.5182  -14.4117   28.0456 C   0  0  0  0  0  0  0  0  0  0  0  0
    7.7609  -13.5002   27.4352 C   0  0  0  0  0  0  0  0  0  0  0  0
    7.1243  -12.3679   27.8775 C   0  0  0  0  0  0  0  0  0  0  0  0
    6.3966  -11.5507   27.0442 C   0  0  0  0  0  0  0  0  0  0  0  0
    6.3032  -11.8834   25.7099 C   0  0  0  0  0  0  0  0  0  0  0  0
    6.9315  -13.0150   25.2377 C   0  0  0  0  0  0  0  0  0  0  0  0
    7.6613  -13.8302   26.0887 C   0  0  0  0  0  0  0  0  0  0  0  0
   10.3507  -17.1767   25.7110 O   0  0  0  0  0  0  0  0  0  0  0  0
   11.1811  -16.6032   26.6675 O   0  0  0  0  0  0  0  0  0  0  0  0
  2  1  1  0
  3  2  1  0
  4  3  1  0
  5  4  1  0
  5  6  1  1
  7  5  1  0
  8  7  2  0
  9 10  1  0
 10 11  2  0
 10 12  1  0
 12 13  1  0
 13 14  1  0
 14 15  1  0
 16 15  1  6
 16 18  1  0
 16 17  1  0
 17  7  1  0
 18 19  2  0
 20 21  1  0
 20 18  1  0
 21 22  1  1
 23 22  1  0
 24 23  2  0
 25 24  1  0
 26 25  1  0
 26 31  2  0
 27 26  1  0
 28 27  2  0
 28 29  1  0
 29 30  2  0
 30 31  1  0
 31 23  1  0
 32 33  1  0
 32 21  1  0
 34 32  2  0
M  END
$$$$
