MRW.pdb
     RDKit          3D

 34 35  0  0  1  0  0  0  0  0999 V2000
    5.2962  -15.2070   26.5519 C   0  0  0  0  0  0  0  0  0  0  0  0
    6.6859  -16.3035   26.9275 S   0  0  0  0  0  0  0  0  0  0  0  0
    6.8182  -17.5983   25.6832 C   0  0  0  0  0  0  0  0  0  0  0  0
    5.8068  -17.4028   24.5981 C   0  0  0  0  0  0  0  0  0  0  0  0
    6.0853  -18.3637   23.4356 C   0  0  2  0  0  0  0  0  0  0  0  0
    6.5491  -19.5918   23.9786 N   0  0  0  0  0  0  0  0  0  0  0  0
    7.0906  -17.7116   22.5398 C   0  0  0  0  0  0  0  0  0  0  0  0
    8.2758  -18.1973   22.5206 O   0  0  0  0  0  0  0  0  0  0  0  0
    7.5608  -15.0112   15.2237 N   0  0  0  0  0  0  0  0  0  0  0  0
    7.9600  -13.7625   15.7552 C   0  0  0  0  0  0  0  0  0  0  0  0
    7.4996  -12.6859   15.2222 N   0  0  0  0  0  0  0  0  0  0  0  0
    8.8467  -13.7184   16.8507 N   0  0  0  0  0  0  0  0  0  0  0  0
    8.6705  -14.7352   17.8999 C   0  0  0  0  0  0  0  0  0  0  0  0
    7.8257  -14.2217   18.9968 C   0  0  0  0  0  0  0  0  0  0  0  0
    7.1765  -15.1981   19.8669 C   0  0  0  0  0  0  0  0  0  0  0  0
    7.8758  -15.9634   20.8953 C   0  0  2  0  0  0  0  0  0  0  0  0
    6.7819  -16.6110   21.7395 N   0  0  0  0  0  0  0  0  0  0  0  0
    8.8031  -15.4135   21.8327 C   0  0  0  0  0  0  0  0  0  0  0  0
    8.6482  -14.2298   22.2826 O   0  0  0  0  0  0  0  0  0  0  0  0
    7.7355  -11.7439   15.6035 N   0  0  0  0  0  0  0  0  0  0  0  0
    9.9333  -16.1130   22.3251 C   0  0  1  0  0  0  0  0  0  0  0  0
   10.5001  -15.8823   23.6655 C   0  0  0  0  0  0  0  0  0  0  0  0
    9.4010  -15.9700   24.6575 C   0  0  0  0  0  0  0  0  0  0  0  0
    9.7974  -15.7353   26.0378 C   0  0  0  0  0  0  0  0  0  0  0  0
   10.3904  -16.6812   26.8895 N   0  0  0  0  0  0  0  0  0  0  0  0
   10.5867  -16.1171   28.0768 C   0  0  0  0  0  0  0  0  0  0  0  0
   10.1534  -14.8570   28.0397 C   0  0  0  0  0  0  0  0  0  0  0  0
   10.1342  -13.8488   28.9704 C   0  0  0  0  0  0  0  0  0  0  0  0
    9.6433  -12.5936   28.6964 C   0  0  0  0  0  0  0  0  0  0  0  0
    9.1502  -12.3385   27.4348 C   0  0  0  0  0  0  0  0  0  0  0  0
    9.1562  -13.3320   26.4802 C   0  0  0  0  0  0  0  0  0  0  0  0
    9.6534  -14.5929   26.7700 C   0  0  0  0  0  0  0  0  0  0  0  0
   11.6986  -16.6740   23.8833 O   0  0  0  0  0  0  0  0  0  0  0  0
   12.0543  -17.7376   23.0614 O   0  0  0  0  0  0  0  0  0  0  0  0
  2  1  1  0
  3  2  1  0
  4  3  1  0
  5  4  1  0
  5  6  1  1
  7  5  1  0
  8  7  2  0
  9 10  1  0
 10 11  2  0
 10 12  1  0
 12 13  1  0
 13 14  1  0
 14 15  1  0
 16 15  1  6
 16 18  1  0
 16 17  1  0
 17  7  1  0
 18 19  2  0
 20 21  1  0
 20 18  1  0
 21 22  1  6
 23 22  1  0
 24 23  2  0
 25 24  1  0
 26 25  1  0
 26 31  2  0
 27 26  1  0
 28 27  2  0
 28 29  1  0
 29 30  2  0
 30 31  1  0
 31 23  1  0
 32 33  1  0
 32 21  1  0
 34 32  2  0
M  END
$$$$
