MRW.pdb
     RDKit          3D

 34 35  0  0  1  0  0  0  0  0999 V2000
    6.7739  -18.1150   27.6825 C   0  0  0  0  0  0  0  0  0  0  0  0
    7.5038  -19.6681   27.1081 S   0  0  0  0  0  0  0  0  0  0  0  0
    7.2687  -19.8534   25.3325 C   0  0  0  0  0  0  0  0  0  0  0  0
    5.9347  -19.3227   24.9112 C   0  0  0  0  0  0  0  0  0  0  0  0
    5.7664  -19.4591   23.3928 C   0  0  2  0  0  0  0  0  0  0  0  0
    6.0174  -20.8121   23.0399 N   0  0  0  0  0  0  0  0  0  0  0  0
    6.7199  -18.5061   22.7439 C   0  0  0  0  0  0  0  0  0  0  0  0
    7.8500  -18.9665   22.3541 O   0  0  0  0  0  0  0  0  0  0  0  0
    8.3129  -14.5989   16.0348 N   0  0  0  0  0  0  0  0  0  0  0  0
    8.0153  -13.8375   17.1893 C   0  0  0  0  0  0  0  0  0  0  0  0
    8.8137  -12.8874   17.5285 N   0  0  0  0  0  0  0  0  0  0  0  0
    6.8590  -14.1288   17.9419 N   0  0  0  0  0  0  0  0  0  0  0  0
    6.7829  -13.5702   19.3013 C   0  0  0  0  0  0  0  0  0  0  0  0
    7.5760  -14.3779   20.2496 C   0  0  0  0  0  0  0  0  0  0  0  0
    6.8605  -15.3342   21.0895 C   0  0  0  0  0  0  0  0  0  0  0  0
    7.5096  -16.2056   22.0649 C   0  0  2  0  0  0  0  0  0  0  0  0
    6.4210  -17.1564   22.5540 N   0  0  0  0  0  0  0  0  0  0  0  0
    8.1778  -15.7548   23.2445 C   0  0  0  0  0  0  0  0  0  0  0  0
    7.5534  -15.0775   24.1270 O   0  0  0  0  0  0  0  0  0  0  0  0
    8.6900  -12.3633   18.4220 N   0  0  0  0  0  0  0  0  0  0  0  0
    9.5430  -16.0143   23.5240 C   0  0  1  0  0  0  0  0  0  0  0  0
   10.2467  -15.4481   24.6881 C   0  0  0  0  0  0  0  0  0  0  0  0
    9.5893  -15.9497   25.9193 C   0  0  0  0  0  0  0  0  0  0  0  0
    8.2387  -15.4558   26.1410 C   0  0  0  0  0  0  0  0  0  0  0  0
    7.0600  -16.2035   25.9876 N   0  0  0  0  0  0  0  0  0  0  0  0
    6.0222  -15.4159   26.2507 C   0  0  0  0  0  0  0  0  0  0  0  0
    6.4652  -14.1991   26.5668 C   0  0  0  0  0  0  0  0  0  0  0  0
    5.8283  -13.0392   26.9301 C   0  0  0  0  0  0  0  0  0  0  0  0
    6.5074  -11.8827   27.2356 C   0  0  0  0  0  0  0  0  0  0  0  0
    7.8843  -11.8897   27.1738 C   0  0  0  0  0  0  0  0  0  0  0  0
    8.5506  -13.0400   26.8114 C   0  0  0  0  0  0  0  0  0  0  0  0
    7.8537  -14.1984   26.5055 C   0  0  0  0  0  0  0  0  0  0  0  0
   11.6874  -15.5877   24.5626 O   0  0  0  0  0  0  0  0  0  0  0  0
   12.2910  -16.1610   23.4488 O   0  0  0  0  0  0  0  0  0  0  0  0
  2  1  1  0
  3  2  1  0
  4  3  1  0
  5  4  1  0
  5  6  1  6
  7  5  1  0
  8  7  2  0
  9 10  1  0
 10 11  2  0
 10 12  1  0
 12 13  1  0
 13 14  1  0
 14 15  1  0
 16 15  1  1
 16 18  1  0
 16 17  1  0
 17  7  1  0
 18 19  2  0
 20 21  1  0
 20 18  1  0
 21 22  1  1
 23 22  1  0
 24 23  2  0
 25 24  1  0
 26 25  1  0
 26 31  2  0
 27 26  1  0
 28 27  2  0
 28 29  1  0
 29 30  2  0
 30 31  1  0
 31 23  1  0
 32 33  1  0
 32 21  1  0
 34 32  2  0
M  END
$$$$
