MRW.pdb
     RDKit          3D

 34 35  0  0  1  0  0  0  0  0999 V2000
    9.1757  -12.5842   20.8331 C   0  0  0  0  0  0  0  0  0  0  0  0
    7.3955  -12.8307   21.0448 S   0  0  0  0  0  0  0  0  0  0  0  0
    7.0457  -14.5437   21.4755 C   0  0  0  0  0  0  0  0  0  0  0  0
    7.1184  -15.4245   20.2683 C   0  0  0  0  0  0  0  0  0  0  0  0
    6.9397  -16.8930   20.6730 C   0  0  2  0  0  0  0  0  0  0  0  0
    5.6064  -17.0659   21.1320 N   0  0  0  0  0  0  0  0  0  0  0  0
    7.9576  -17.2000   21.7256 C   0  0  0  0  0  0  0  0  0  0  0  0
    7.5403  -17.6877   22.8342 O   0  0  0  0  0  0  0  0  0  0  0  0
   14.3866  -14.1959   20.2942 N   0  0  0  0  0  0  0  0  0  0  0  0
   14.3530  -15.1747   19.2734 C   0  0  0  0  0  0  0  0  0  0  0  0
   14.4873  -14.7997   18.0501 N   0  0  0  0  0  0  0  0  0  0  0  0
   14.1753  -16.5324   19.6101 N   0  0  0  0  0  0  0  0  0  0  0  0
   13.7678  -16.8350   20.9915 C   0  0  0  0  0  0  0  0  0  0  0  0
   12.3125  -16.6542   21.1647 C   0  0  0  0  0  0  0  0  0  0  0  0
   11.5594  -17.7518   21.7645 C   0  0  0  0  0  0  0  0  0  0  0  0
   10.3246  -17.5726   22.5230 C   0  0  2  0  0  0  0  0  0  0  0  0
    9.3222  -16.9754   21.5396 N   0  0  0  0  0  0  0  0  0  0  0  0
   10.2033  -16.7891   23.7114 C   0  0  0  0  0  0  0  0  0  0  0  0
   10.3071  -15.5185   23.6659 O   0  0  0  0  0  0  0  0  0  0  0  0
   14.4191  -15.4783   17.2606 N   0  0  0  0  0  0  0  0  0  0  0  0
    9.9647  -17.3388   24.9960 C   0  0  1  0  0  0  0  0  0  0  0  0
   10.2822  -16.6268   26.2464 C   0  0  0  0  0  0  0  0  0  0  0  0
    9.0464  -16.5442   27.0622 C   0  0  0  0  0  0  0  0  0  0  0  0
    7.9202  -15.8937   26.4096 C   0  0  0  0  0  0  0  0  0  0  0  0
    6.8706  -16.5492   25.7461 N   0  0  0  0  0  0  0  0  0  0  0  0
    6.0427  -15.6328   25.2549 C   0  0  0  0  0  0  0  0  0  0  0  0
    6.4993  -14.4194   25.5651 C   0  0  0  0  0  0  0  0  0  0  0  0
    6.0282  -13.1541   25.3199 C   0  0  0  0  0  0  0  0  0  0  0  0
    6.6723  -12.0224   25.7628 C   0  0  0  0  0  0  0  0  0  0  0  0
    7.8390  -12.1658   26.4825 C   0  0  0  0  0  0  0  0  0  0  0  0
    8.3359  -13.4241   26.7433 C   0  0  0  0  0  0  0  0  0  0  0  0
    7.6770  -14.5562   26.2904 C   0  0  0  0  0  0  0  0  0  0  0  0
   11.4907  -17.1443   26.8648 O   0  0  0  0  0  0  0  0  0  0  0  0
   12.2389  -18.1732   26.3035 O   0  0  0  0  0  0  0  0  0  0  0  0
  2  1  1  0
  3  2  1  0
  4  3  1  0
  5  4  1  0
  5  6  1  1
  7  5  1  0
  8  7  2  0
  9 10  1  0
 10 11  2  0
 10 12  1  0
 12 13  1  0
 13 14  1  0
 14 15  1  0
 16 15  1  6
 16 18  1  0
 16 17  1  0
 17  7  1  0
 18 19  2  0
 20 21  1  0
 20 18  1  0
 21 22  1  1
 23 22  1  0
 24 23  2  0
 25 24  1  0
 26 25  1  0
 26 31  2  0
 27 26  1  0
 28 27  2  0
 28 29  1  0
 29 30  2  0
 30 31  1  0
 31 23  1  0
 32 33  1  0
 32 21  1  0
 34 32  2  0
M  END
$$$$
