MRW.pdb
     RDKit          3D

 34 35  0  0  1  0  0  0  0  0999 V2000
    8.0657  -13.1765   27.9385 C   0  0  0  0  0  0  0  0  0  0  0  0
    6.3394  -13.1634   27.3958 S   0  0  0  0  0  0  0  0  0  0  0  0
    5.9375  -14.6980   26.5438 C   0  0  0  0  0  0  0  0  0  0  0  0
    6.9947  -15.0479   25.5445 C   0  0  0  0  0  0  0  0  0  0  0  0
    6.4405  -16.0376   24.5123 C   0  0  2  0  0  0  0  0  0  0  0  0
    6.2558  -17.2905   25.1559 N   0  0  0  0  0  0  0  0  0  0  0  0
    7.4176  -16.1073   23.3814 C   0  0  0  0  0  0  0  0  0  0  0  0
    8.2212  -17.1044   23.3486 O   0  0  0  0  0  0  0  0  0  0  0  0
    9.4017  -15.2390   16.0522 N   0  0  0  0  0  0  0  0  0  0  0  0
    8.5344  -14.1751   15.7103 C   0  0  0  0  0  0  0  0  0  0  0  0
    8.3226  -13.9228   14.4667 N   0  0  0  0  0  0  0  0  0  0  0  0
    7.9213  -13.4161   16.7284 N   0  0  0  0  0  0  0  0  0  0  0  0
    8.6294  -13.3203   18.0149 C   0  0  0  0  0  0  0  0  0  0  0  0
    8.4963  -14.5727   18.7859 C   0  0  0  0  0  0  0  0  0  0  0  0
    7.9968  -14.4766   20.1545 C   0  0  0  0  0  0  0  0  0  0  0  0
    8.5142  -15.2683   21.2670 C   0  0  2  0  0  0  0  0  0  0  0  0
    7.4788  -15.1373   22.3802 N   0  0  0  0  0  0  0  0  0  0  0  0
    9.7787  -15.0597   21.8984 C   0  0  0  0  0  0  0  0  0  0  0  0
   10.2351  -13.8803   22.0662 O   0  0  0  0  0  0  0  0  0  0  0  0
    7.6972  -13.1435   14.1666 N   0  0  0  0  0  0  0  0  0  0  0  0
   10.6031  -16.1094   22.3758 C   0  0  1  0  0  0  0  0  0  0  0  0
   11.0217  -16.2255   23.7837 C   0  0  0  0  0  0  0  0  0  0  0  0
    9.8425  -15.9617   24.6437 C   0  0  0  0  0  0  0  0  0  0  0  0
   10.0792  -16.1008   26.0727 C   0  0  0  0  0  0  0  0  0  0  0  0
   10.4246  -17.2918   26.7314 N   0  0  0  0  0  0  0  0  0  0  0  0
   10.5335  -17.0398   28.0318 C   0  0  0  0  0  0  0  0  0  0  0  0
   10.2779  -15.7499   28.2506 C   0  0  0  0  0  0  0  0  0  0  0  0
   10.2675  -14.9801   29.3865 C   0  0  0  0  0  0  0  0  0  0  0  0
    9.9861  -13.6338   29.3694 C   0  0  0  0  0  0  0  0  0  0  0  0
    9.7028  -13.0339   28.1613 C   0  0  0  0  0  0  0  0  0  0  0  0
    9.7054  -13.7823   27.0045 C   0  0  0  0  0  0  0  0  0  0  0  0
    9.9902  -15.1384   27.0361 C   0  0  0  0  0  0  0  0  0  0  0  0
   11.7944  -17.4340   24.0144 O   0  0  0  0  0  0  0  0  0  0  0  0
   11.7642  -18.5204   23.1470 O   0  0  0  0  0  0  0  0  0  0  0  0
  2  1  1  0
  3  2  1  0
  4  3  1  0
  5  4  1  0
  5  6  1  1
  7  5  1  0
  8  7  2  0
  9 10  1  0
 10 11  2  0
 10 12  1  0
 12 13  1  0
 13 14  1  0
 14 15  1  0
 16 15  1  6
 16 18  1  0
 16 17  1  0
 17  7  1  0
 18 19  2  0
 20 21  1  0
 20 18  1  0
 21 22  1  6
 23 22  1  0
 24 23  2  0
 25 24  1  0
 26 25  1  0
 26 31  2  0
 27 26  1  0
 28 27  2  0
 28 29  1  0
 29 30  2  0
 30 31  1  0
 31 23  1  0
 32 33  1  0
 32 21  1  0
 34 32  2  0
M  END
$$$$
