MRW.pdb
     RDKit          3D

 34 35  0  0  1  0  0  0  0  0999 V2000
   15.7922  -20.9083   17.6172 C   0  0  0  0  0  0  0  0  0  0  0  0
   14.9889  -19.3088   17.3507 S   0  0  0  0  0  0  0  0  0  0  0  0
   15.4285  -18.1588   18.6648 C   0  0  0  0  0  0  0  0  0  0  0  0
   14.2051  -17.5547   19.2785 C   0  0  0  0  0  0  0  0  0  0  0  0
   13.9059  -18.2201   20.6276 C   0  0  2  0  0  0  0  0  0  0  0  0
   13.2968  -19.4783   20.3745 N   0  0  0  0  0  0  0  0  0  0  0  0
   13.0215  -17.2952   21.4027 C   0  0  0  0  0  0  0  0  0  0  0  0
   13.4488  -16.1082   21.6245 O   0  0  0  0  0  0  0  0  0  0  0  0
    7.1226  -14.2796   18.5458 N   0  0  0  0  0  0  0  0  0  0  0  0
    7.5165  -13.4186   19.5969 C   0  0  0  0  0  0  0  0  0  0  0  0
    8.1398  -12.3311   19.3071 N   0  0  0  0  0  0  0  0  0  0  0  0
    7.2215  -13.7625   20.9322 N   0  0  0  0  0  0  0  0  0  0  0  0
    7.7418  -15.0474   21.4264 C   0  0  0  0  0  0  0  0  0  0  0  0
    9.0991  -15.3038   20.9042 C   0  0  0  0  0  0  0  0  0  0  0  0
    9.7596  -16.5408   21.3108 C   0  0  0  0  0  0  0  0  0  0  0  0
   10.7823  -16.6135   22.3506 C   0  0  2  0  0  0  0  0  0  0  0  0
   11.7686  -17.6794   21.8820 N   0  0  0  0  0  0  0  0  0  0  0  0
   10.5289  -16.9089   23.7252 C   0  0  0  0  0  0  0  0  0  0  0  0
   10.3939  -18.1155   24.1168 O   0  0  0  0  0  0  0  0  0  0  0  0
    8.4630  -11.6729   20.0492 N   0  0  0  0  0  0  0  0  0  0  0  0
   10.4113  -15.9204   24.7343 C   0  0  1  0  0  0  0  0  0  0  0  0
   10.2491  -16.2451   26.1623 C   0  0  0  0  0  0  0  0  0  0  0  0
    9.7107  -15.0487   26.8540 C   0  0  0  0  0  0  0  0  0  0  0  0
    8.2982  -14.7870   26.6220 C   0  0  0  0  0  0  0  0  0  0  0  0
    7.3337  -15.7499   26.2840 N   0  0  0  0  0  0  0  0  0  0  0  0
    6.1635  -15.1396   26.1267 C   0  0  0  0  0  0  0  0  0  0  0  0
    6.3181  -13.8337   26.3453 C   0  0  0  0  0  0  0  0  0  0  0  0
    5.4454  -12.7750   26.3292 C   0  0  0  0  0  0  0  0  0  0  0  0
    5.8350  -11.4862   26.6107 C   0  0  0  0  0  0  0  0  0  0  0  0
    7.1566  -11.2491   26.9215 C   0  0  0  0  0  0  0  0  0  0  0  0
    8.0556  -12.2930   26.9447 C   0  0  0  0  0  0  0  0  0  0  0  0
    7.6496  -13.5869   26.6584 C   0  0  0  0  0  0  0  0  0  0  0  0
    9.5747  -17.5184   26.3484 O   0  0  0  0  0  0  0  0  0  0  0  0
    8.8889  -18.1606   25.3234 O   0  0  0  0  0  0  0  0  0  0  0  0
  2  1  1  0
  3  2  1  0
  4  3  1  0
  5  4  1  0
  5  6  1  6
  7  5  1  0
  8  7  2  0
  9 10  1  0
 10 11  2  0
 10 12  1  0
 12 13  1  0
 13 14  1  0
 14 15  1  0
 16 15  1  6
 16 18  1  0
 16 17  1  0
 17  7  1  0
 18 19  2  0
 20 21  1  0
 20 18  1  0
 21 22  1  1
 23 22  1  0
 24 23  2  0
 25 24  1  0
 26 25  1  0
 26 31  2  0
 27 26  1  0
 28 27  2  0
 28 29  1  0
 29 30  2  0
 30 31  1  0
 31 23  1  0
 32 33  1  0
 32 21  1  0
 34 32  2  0
M  END
$$$$
