MRW.pdb
     RDKit          3D

 34 35  0  0  1  0  0  0  0  0999 V2000
    8.0249  -11.7263   19.2993 C   0  0  0  0  0  0  0  0  0  0  0  0
    7.3759  -12.2471   17.6923 S   0  0  0  0  0  0  0  0  0  0  0  0
    8.2848  -13.6765   17.0815 C   0  0  0  0  0  0  0  0  0  0  0  0
    8.4302  -14.7143   18.1494 C   0  0  0  0  0  0  0  0  0  0  0  0
    9.1285  -15.9585   17.5866 C   0  0  2  0  0  0  0  0  0  0  0  0
    8.2824  -16.5323   16.6003 N   0  0  0  0  0  0  0  0  0  0  0  0
    9.3939  -16.8854   18.7307 C   0  0  0  0  0  0  0  0  0  0  0  0
    8.5583  -17.8347   18.9349 O   0  0  0  0  0  0  0  0  0  0  0  0
   13.9491  -21.8297   21.7152 N   0  0  0  0  0  0  0  0  0  0  0  0
   15.0170  -21.0348   21.2365 C   0  0  0  0  0  0  0  0  0  0  0  0
   16.0197  -21.6151   20.6771 N   0  0  0  0  0  0  0  0  0  0  0  0
   14.9652  -19.6328   21.3782 N   0  0  0  0  0  0  0  0  0  0  0  0
   13.8003  -19.0704   22.0801 C   0  0  0  0  0  0  0  0  0  0  0  0
   13.1406  -18.0331   21.2619 C   0  0  0  0  0  0  0  0  0  0  0  0
   11.8835  -18.3836   20.6072 C   0  0  0  0  0  0  0  0  0  0  0  0
   10.6363  -17.6473   20.7929 C   0  0  2  0  0  0  0  0  0  0  0  0
   10.5033  -16.7498   19.5660 N   0  0  0  0  0  0  0  0  0  0  0  0
   10.3431  -16.8077   21.9110 C   0  0  0  0  0  0  0  0  0  0  0  0
   11.0146  -15.7431   22.1185 O   0  0  0  0  0  0  0  0  0  0  0  0
   16.7970  -21.0678   20.2474 N   0  0  0  0  0  0  0  0  0  0  0  0
    9.3165  -17.0774   22.8505 C   0  0  1  0  0  0  0  0  0  0  0  0
    9.0359  -16.2076   24.0062 C   0  0  0  0  0  0  0  0  0  0  0  0
    7.5793  -15.9305   24.0381 C   0  0  0  0  0  0  0  0  0  0  0  0
    7.1155  -15.2084   25.2132 C   0  0  0  0  0  0  0  0  0  0  0  0
    6.3491  -15.7524   26.2565 N   0  0  0  0  0  0  0  0  0  0  0  0
    6.0943  -14.7921   27.1394 C   0  0  0  0  0  0  0  0  0  0  0  0
    6.6549  -13.6561   26.7245 C   0  0  0  0  0  0  0  0  0  0  0  0
    6.7085  -12.3927   27.2574 C   0  0  0  0  0  0  0  0  0  0  0  0
    7.3757  -11.3563   26.6471 C   0  0  0  0  0  0  0  0  0  0  0  0
    8.0165  -11.5972   25.4508 C   0  0  0  0  0  0  0  0  0  0  0  0
    7.9789  -12.8559   24.8918 C   0  0  0  0  0  0  0  0  0  0  0  0
    7.3023  -13.8913   25.5173 C   0  0  0  0  0  0  0  0  0  0  0  0
    9.6772  -16.6986   25.2138 O   0  0  0  0  0  0  0  0  0  0  0  0
    9.8504  -18.0537   25.4729 O   0  0  0  0  0  0  0  0  0  0  0  0
  2  1  1  0
  3  2  1  0
  4  3  1  0
  5  4  1  0
  5  6  1  6
  7  5  1  0
  8  7  2  0
  9 10  1  0
 10 11  2  0
 10 12  1  0
 12 13  1  0
 13 14  1  0
 14 15  1  0
 16 15  1  1
 16 18  1  0
 16 17  1  0
 17  7  1  0
 18 19  2  0
 20 21  1  0
 20 18  1  0
 21 22  1  1
 23 22  1  0
 24 23  2  0
 25 24  1  0
 26 25  1  0
 26 31  2  0
 27 26  1  0
 28 27  2  0
 28 29  1  0
 29 30  2  0
 30 31  1  0
 31 23  1  0
 32 33  1  0
 32 21  1  0
 34 32  2  0
M  END
$$$$
