HHI.pdb
     RDKit          3D

 29 30  0  0  1  0  0  0  0  0999 V2000
   27.5705  -28.7587  -21.6361 N   0  0  0  0  0  0  0  0  0  0  0  0
   26.3130  -29.3988  -21.3594 C   0  0  1  0  0  0  0  0  0  0  0  0
   26.0227  -30.4441  -22.3885 C   0  0  0  0  0  0  0  0  0  0  0  0
   25.8456  -29.9375  -23.7572 C   0  0  0  0  0  0  0  0  0  0  0  0
   24.8700  -29.1010  -24.2521 C   0  0  0  0  0  0  0  0  0  0  0  0
   25.0967  -28.9168  -25.5629 N   0  0  0  0  0  0  0  0  0  0  0  0
   26.1835  -29.6181  -25.8796 C   0  0  0  0  0  0  0  0  0  0  0  0
   26.6510  -30.2462  -24.7868 N   0  0  0  0  0  0  0  0  0  0  0  0
   26.1633  -29.8795  -19.9687 C   0  0  0  0  0  0  0  0  0  0  0  0
   27.1647  -30.4946  -19.4642 O   0  0  0  0  0  0  0  0  0  0  0  0
   25.0434  -29.7357  -19.1469 N   0  0  0  0  0  0  0  0  0  0  0  0
   24.8884  -30.1533  -17.7874 C   0  0  1  0  0  0  0  0  0  0  0  0
   24.8511  -29.0766  -16.7669 C   0  0  0  0  0  0  0  0  0  0  0  0
   26.1677  -28.4245  -16.6122 C   0  0  0  0  0  0  0  0  0  0  0  0
   27.3564  -28.7765  -17.1890 C   0  0  0  0  0  0  0  0  0  0  0  0
   28.2693  -27.8935  -16.7536 N   0  0  0  0  0  0  0  0  0  0  0  0
   27.7159  -27.0068  -15.9344 C   0  0  0  0  0  0  0  0  0  0  0  0
   26.3986  -27.3473  -15.8516 N   0  0  0  0  0  0  0  0  0  0  0  0
   23.6967  -31.0386  -17.6691 C   0  0  0  0  0  0  0  0  0  0  0  0
   22.6816  -30.9097  -18.4031 O   0  0  0  0  0  0  0  0  0  0  0  0
   24.0604  -36.2932  -17.5610 C   0  0  0  0  0  0  0  0  0  0  0  0
   23.6524  -34.8483  -17.7124 C   0  0  0  0  0  0  0  0  0  0  0  0
   22.9751  -34.4073  -16.4468 C   0  0  2  0  0  0  0  0  0  0  0  0
   21.7319  -35.2306  -16.1594 C   0  0  0  0  0  0  0  0  0  0  0  0
   22.5557  -32.9527  -16.4992 C   0  0  2  0  0  0  0  0  0  0  0  0
   23.6821  -32.0741  -16.6998 N   0  0  0  0  0  0  0  0  0  0  0  0
   21.9253  -32.6276  -15.2025 C   0  0  0  0  0  0  0  0  0  0  0  0
   22.5057  -32.0259  -14.2628 O   0  0  0  0  0  0  0  0  0  0  0  0
   20.6108  -33.0003  -14.9862 O   0  0  0  0  0  0  0  0  0  0  0  0
  2  9  1  0
  2  1  1  1
  3  2  1  0
  4  3  1  0
  4  8  1  0
  5  4  2  0
  6  5  1  0
  6  7  1  0
  7  8  2  0
  9 10  2  0
 11 12  1  0
 11  9  1  0
 13 14  1  0
 12 13  1  1
 14 18  1  0
 15 14  2  0
 15 16  1  0
 16 17  1  0
 18 17  2  0
 19 20  2  0
 19 12  1  0
 22 21  1  0
 22 23  1  0
 23 25  1  0
 23 24  1  6
 25 26  1  1
 25 27  1  0
 26 19  1  0
 27 29  1  0
 28 27  2  0
M  END
$$$$
