HHI.pdb
     RDKit          3D

 29 30  0  0  1  0  0  0  0  0999 V2000
   24.5674  -16.8036  -19.4128 N   0  0  0  0  0  0  0  0  0  0  0  0
   24.7246  -17.2537  -18.0563 C   0  0  1  0  0  0  0  0  0  0  0  0
   25.7868  -16.4610  -17.3640 C   0  0  0  0  0  0  0  0  0  0  0  0
   27.1222  -16.5447  -17.9733 C   0  0  0  0  0  0  0  0  0  0  0  0
   27.8562  -15.5568  -18.5910 C   0  0  0  0  0  0  0  0  0  0  0  0
   29.0154  -16.0907  -19.0090 N   0  0  0  0  0  0  0  0  0  0  0  0
   29.0073  -17.3764  -18.6627 C   0  0  0  0  0  0  0  0  0  0  0  0
   27.8575  -17.6672  -18.0297 N   0  0  0  0  0  0  0  0  0  0  0  0
   23.4621  -17.3466  -17.2915 C   0  0  0  0  0  0  0  0  0  0  0  0
   23.0074  -16.2561  -16.8018 O   0  0  0  0  0  0  0  0  0  0  0  0
   22.7134  -18.4992  -17.0442 N   0  0  0  0  0  0  0  0  0  0  0  0
   21.5000  -18.6182  -16.2959 C   0  0  1  0  0  0  0  0  0  0  0  0
   20.2450  -18.7022  -17.0831 C   0  0  0  0  0  0  0  0  0  0  0  0
   19.8109  -17.3741  -17.5629 C   0  0  0  0  0  0  0  0  0  0  0  0
   20.3758  -16.1567  -17.3014 C   0  0  0  0  0  0  0  0  0  0  0  0
   19.6366  -15.2440  -17.9522 N   0  0  0  0  0  0  0  0  0  0  0  0
   18.6384  -15.8248  -18.6076 C   0  0  0  0  0  0  0  0  0  0  0  0
   18.7554  -17.1598  -18.3580 N   0  0  0  0  0  0  0  0  0  0  0  0
   21.6084  -19.7601  -15.3460 C   0  0  0  0  0  0  0  0  0  0  0  0
   21.9809  -20.9079  -15.7063 O   0  0  0  0  0  0  0  0  0  0  0  0
   23.0195  -20.7220   -9.5524 C   0  0  0  0  0  0  0  0  0  0  0  0
   22.1988  -21.2400  -10.7079 C   0  0  0  0  0  0  0  0  0  0  0  0
   22.0482  -20.1398  -11.7188 C   0  0  2  0  0  0  0  0  0  0  0  0
   21.2205  -18.9883  -11.1760 C   0  0  0  0  0  0  0  0  0  0  0  0
   21.3811  -20.6196  -12.9914 C   0  0  2  0  0  0  0  0  0  0  0  0
   21.2854  -19.5713  -13.9778 N   0  0  0  0  0  0  0  0  0  0  0  0
   20.0166  -21.0620  -12.6353 C   0  0  0  0  0  0  0  0  0  0  0  0
   18.9829  -20.3602  -12.7804 O   0  0  0  0  0  0  0  0  0  0  0  0
   19.8412  -22.3279  -12.1057 O   0  0  0  0  0  0  0  0  0  0  0  0
  2  9  1  0
  2  1  1  6
  3  2  1  0
  4  3  1  0
  4  8  1  0
  5  4  2  0
  6  5  1  0
  6  7  1  0
  7  8  2  0
  9 10  2  0
 11 12  1  0
 11  9  1  0
 13 14  1  0
 12 13  1  6
 14 18  1  0
 15 14  2  0
 15 16  1  0
 16 17  1  0
 18 17  2  0
 19 20  2  0
 19 12  1  0
 22 21  1  0
 22 23  1  0
 23 25  1  0
 23 24  1  1
 25 26  1  6
 25 27  1  0
 26 19  1  0
 27 29  1  0
 28 27  2  0
M  END
$$$$
