HHI.pdb
     RDKit          3D

 29 30  0  0  1  0  0  0  0  0999 V2000
   22.7679  -13.0898  -21.5614 N   0  0  0  0  0  0  0  0  0  0  0  0
   21.8023  -12.9978  -20.5000 C   0  0  1  0  0  0  0  0  0  0  0  0
   21.9076  -14.1839  -19.5955 C   0  0  0  0  0  0  0  0  0  0  0  0
   21.5990  -15.4760  -20.2254 C   0  0  0  0  0  0  0  0  0  0  0  0
   21.9885  -16.7407  -19.8442 C   0  0  0  0  0  0  0  0  0  0  0  0
   21.4829  -17.6212  -20.7232 N   0  0  0  0  0  0  0  0  0  0  0  0
   20.7963  -16.9273  -21.6290 C   0  0  0  0  0  0  0  0  0  0  0  0
   20.8588  -15.6164  -21.3373 N   0  0  0  0  0  0  0  0  0  0  0  0
   21.8019  -11.7045  -19.7826 C   0  0  0  0  0  0  0  0  0  0  0  0
   22.9093  -11.3411  -19.2559 O   0  0  0  0  0  0  0  0  0  0  0  0
   20.7200  -10.8372  -19.6162 N   0  0  0  0  0  0  0  0  0  0  0  0
   20.6884   -9.5926  -18.9117 C   0  0  1  0  0  0  0  0  0  0  0  0
   19.5983   -8.6548  -19.2779 C   0  0  0  0  0  0  0  0  0  0  0  0
   19.7360   -7.3585  -18.5827 C   0  0  0  0  0  0  0  0  0  0  0  0
   20.5860   -6.3290  -18.8779 C   0  0  0  0  0  0  0  0  0  0  0  0
   20.3491   -5.3656  -17.9732 N   0  0  0  0  0  0  0  0  0  0  0  0
   19.3957   -5.7367  -17.1265 C   0  0  0  0  0  0  0  0  0  0  0  0
   19.0173   -6.9870  -17.5160 N   0  0  0  0  0  0  0  0  0  0  0  0
   20.6983   -9.8482  -17.4445 C   0  0  0  0  0  0  0  0  0  0  0  0
   20.0347  -10.7780  -16.9144 O   0  0  0  0  0  0  0  0  0  0  0  0
   24.6236  -11.2790  -14.6791 C   0  0  0  0  0  0  0  0  0  0  0  0
   23.2452  -10.9437  -15.1936 C   0  0  0  0  0  0  0  0  0  0  0  0
   22.8388   -9.6091  -14.6378 C   0  0  2  0  0  0  0  0  0  0  0  0
   22.7617   -9.6326  -13.1215 C   0  0  0  0  0  0  0  0  0  0  0  0
   21.4874   -9.1614  -15.1554 C   0  0  2  0  0  0  0  0  0  0  0  0
   21.4784   -9.0260  -16.5916 N   0  0  0  0  0  0  0  0  0  0  0  0
   21.1981   -7.8432  -14.5528 C   0  0  0  0  0  0  0  0  0  0  0  0
   20.5531   -7.6772  -13.4859 O   0  0  0  0  0  0  0  0  0  0  0  0
   21.6574   -6.7029  -15.1872 O   0  0  0  0  0  0  0  0  0  0  0  0
  2  9  1  0
  2  1  1  6
  3  2  1  0
  4  3  1  0
  4  8  1  0
  5  4  2  0
  6  5  1  0
  6  7  1  0
  7  8  2  0
  9 10  2  0
 11 12  1  0
 11  9  1  0
 13 14  1  0
 12 13  1  1
 14 18  1  0
 15 14  2  0
 15 16  1  0
 16 17  1  0
 18 17  2  0
 19 20  2  0
 19 12  1  0
 22 21  1  0
 22 23  1  0
 23 25  1  0
 23 24  1  1
 25 26  1  6
 25 27  1  0
 26 19  1  0
 27 29  1  0
 28 27  2  0
M  END
$$$$
