HHI.pdb
     RDKit          3D

 29 30  0  0  1  0  0  0  0  0999 V2000
   23.8640  -12.5935  -17.7377 N   0  0  0  0  0  0  0  0  0  0  0  0
   23.9542  -11.8065  -16.5378 C   0  0  1  0  0  0  0  0  0  0  0  0
   25.3583  -11.3380  -16.3260 C   0  0  0  0  0  0  0  0  0  0  0  0
   26.3526  -12.4079  -16.1581 C   0  0  0  0  0  0  0  0  0  0  0  0
   26.1653  -13.7722  -16.1562 C   0  0  0  0  0  0  0  0  0  0  0  0
   27.3555  -14.3616  -15.9564 N   0  0  0  0  0  0  0  0  0  0  0  0
   28.2620  -13.3935  -15.8366 C   0  0  0  0  0  0  0  0  0  0  0  0
   27.6636  -12.1958  -15.9577 N   0  0  0  0  0  0  0  0  0  0  0  0
   22.9483  -10.7270  -16.4362 C   0  0  0  0  0  0  0  0  0  0  0  0
   22.8014   -9.9821  -17.4654 O   0  0  0  0  0  0  0  0  0  0  0  0
   22.1422  -10.4318  -15.3347 N   0  0  0  0  0  0  0  0  0  0  0  0
   21.1397   -9.4173  -15.2229 C   0  0  1  0  0  0  0  0  0  0  0  0
   19.9368   -9.7637  -14.4261 C   0  0  0  0  0  0  0  0  0  0  0  0
   19.0670  -10.7223  -15.1383 C   0  0  0  0  0  0  0  0  0  0  0  0
   19.1852  -11.1750  -16.4231 C   0  0  0  0  0  0  0  0  0  0  0  0
   18.1683  -12.0288  -16.6231 N   0  0  0  0  0  0  0  0  0  0  0  0
   17.4191  -12.1351  -15.5319 C   0  0  0  0  0  0  0  0  0  0  0  0
   17.9897  -11.3128  -14.6064 N   0  0  0  0  0  0  0  0  0  0  0  0
   21.7582   -8.1556  -14.7295 C   0  0  0  0  0  0  0  0  0  0  0  0
   22.6285   -8.1385  -13.8194 O   0  0  0  0  0  0  0  0  0  0  0  0
   24.1050   -3.2807  -17.1020 C   0  0  0  0  0  0  0  0  0  0  0  0
   23.3674   -3.7546  -15.8738 C   0  0  0  0  0  0  0  0  0  0  0  0
   22.7169   -5.0718  -16.1850 C   0  0  2  0  0  0  0  0  0  0  0  0
   21.6839   -4.9404  -17.2903 C   0  0  0  0  0  0  0  0  0  0  0  0
   22.0192   -5.6647  -14.9782 C   0  0  2  0  0  0  0  0  0  0  0  0
   21.3679   -6.9131  -15.2917 N   0  0  0  0  0  0  0  0  0  0  0  0
   20.9960   -4.6933  -14.5379 C   0  0  0  0  0  0  0  0  0  0  0  0
   19.7674   -4.7951  -14.7872 O   0  0  0  0  0  0  0  0  0  0  0  0
   21.3933   -3.5915  -13.8017 O   0  0  0  0  0  0  0  0  0  0  0  0
  2  9  1  0
  2  1  1  6
  3  2  1  0
  4  3  1  0
  4  8  1  0
  5  4  2  0
  6  5  1  0
  6  7  1  0
  7  8  2  0
  9 10  2  0
 11 12  1  0
 11  9  1  0
 13 14  1  0
 12 13  1  1
 14 18  1  0
 15 14  2  0
 15 16  1  0
 16 17  1  0
 18 17  2  0
 19 20  2  0
 19 12  1  0
 22 21  1  0
 22 23  1  0
 23 25  1  0
 23 24  1  6
 25 26  1  6
 25 27  1  0
 26 19  1  0
 27 29  1  0
 28 27  2  0
M  END
$$$$
