HHI.pdb
     RDKit          3D

 29 30  0  0  1  0  0  0  0  0999 V2000
   16.4552  -14.1124    7.0755 N   0  0  0  0  0  0  0  0  0  0  0  0
   17.4404  -15.0169    6.5476 C   0  0  1  0  0  0  0  0  0  0  0  0
   18.7770  -14.3500    6.4796 C   0  0  0  0  0  0  0  0  0  0  0  0
   18.8534  -13.2014    5.5651 C   0  0  0  0  0  0  0  0  0  0  0  0
   19.1164  -11.8807    5.8529 C   0  0  0  0  0  0  0  0  0  0  0  0
   19.0721  -11.1817    4.7070 N   0  0  0  0  0  0  0  0  0  0  0  0
   18.7893  -12.0407    3.7295 C   0  0  0  0  0  0  0  0  0  0  0  0
   18.6532  -13.2772    4.2391 N   0  0  0  0  0  0  0  0  0  0  0  0
   17.4722  -16.3407    7.2065 C   0  0  0  0  0  0  0  0  0  0  0  0
   17.1078  -16.3796    8.4319 O   0  0  0  0  0  0  0  0  0  0  0  0
   17.8602  -17.5541    6.6343 N   0  0  0  0  0  0  0  0  0  0  0  0
   18.0250  -18.8201    7.2797 C   0  0  1  0  0  0  0  0  0  0  0  0
   17.4754  -20.0001    6.5674 C   0  0  0  0  0  0  0  0  0  0  0  0
   17.6170  -21.2351    7.3657 C   0  0  0  0  0  0  0  0  0  0  0  0
   16.7860  -21.7074    8.3434 C   0  0  0  0  0  0  0  0  0  0  0  0
   17.3232  -22.8582    8.7793 N   0  0  0  0  0  0  0  0  0  0  0  0
   18.4467  -23.1322    8.1266 C   0  0  0  0  0  0  0  0  0  0  0  0
   18.6231  -22.1096    7.2426 N   0  0  0  0  0  0  0  0  0  0  0  0
   19.4607  -19.0255    7.6183 C   0  0  0  0  0  0  0  0  0  0  0  0
   20.3885  -18.8091    6.7947 O   0  0  0  0  0  0  0  0  0  0  0  0
   23.8377  -17.2624   10.6169 C   0  0  0  0  0  0  0  0  0  0  0  0
   23.2419  -18.6043   10.2684 C   0  0  0  0  0  0  0  0  0  0  0  0
   21.8356  -18.3925    9.7861 C   0  0  2  0  0  0  0  0  0  0  0  0
   20.9535  -17.7999   10.8708 C   0  0  0  0  0  0  0  0  0  0  0  0
   21.1879  -19.6825    9.3269 C   0  0  2  0  0  0  0  0  0  0  0  0
   19.8209  -19.4813    8.9123 N   0  0  0  0  0  0  0  0  0  0  0  0
   21.2036  -20.6169   10.4720 C   0  0  0  0  0  0  0  0  0  0  0  0
   20.2010  -20.8850   11.1826 O   0  0  0  0  0  0  0  0  0  0  0  0
   22.3887  -21.2495   10.8022 O   0  0  0  0  0  0  0  0  0  0  0  0
  2  9  1  0
  2  1  1  1
  3  2  1  0
  4  3  1  0
  4  8  1  0
  5  4  2  0
  6  5  1  0
  6  7  1  0
  7  8  2  0
  9 10  2  0
 11 12  1  0
 11  9  1  0
 13 14  1  0
 12 13  1  6
 14 18  1  0
 15 14  2  0
 15 16  1  0
 16 17  1  0
 18 17  2  0
 19 20  2  0
 19 12  1  0
 22 21  1  0
 22 23  1  0
 23 25  1  0
 23 24  1  1
 25 26  1  1
 25 27  1  0
 26 19  1  0
 27 29  1  0
 28 27  2  0
M  END
$$$$
