HHI.pdb
     RDKit          3D

 29 30  0  0  1  0  0  0  0  0999 V2000
   21.1221  -17.5163  -16.6837 N   0  0  0  0  0  0  0  0  0  0  0  0
   21.8707  -17.5600  -15.4569 C   0  0  1  0  0  0  0  0  0  0  0  0
   21.0341  -18.1290  -14.3559 C   0  0  0  0  0  0  0  0  0  0  0  0
   19.8047  -17.3799  -14.0577 C   0  0  0  0  0  0  0  0  0  0  0  0
   19.5945  -16.4009  -13.1124 C   0  0  0  0  0  0  0  0  0  0  0  0
   18.3125  -16.0079  -13.1893 N   0  0  0  0  0  0  0  0  0  0  0  0
   17.7367  -16.7209  -14.1554 C   0  0  0  0  0  0  0  0  0  0  0  0
   18.6361  -17.5624  -14.6941 N   0  0  0  0  0  0  0  0  0  0  0  0
   23.2032  -18.1907  -15.5744 C   0  0  0  0  0  0  0  0  0  0  0  0
   23.2402  -19.4676  -15.5115 O   0  0  0  0  0  0  0  0  0  0  0  0
   24.4275  -17.5408  -15.7446 N   0  0  0  0  0  0  0  0  0  0  0  0
   25.7122  -18.1271  -15.9735 C   0  0  1  0  0  0  0  0  0  0  0  0
   26.6179  -17.3935  -16.8920 C   0  0  0  0  0  0  0  0  0  0  0  0
   26.1096  -17.3974  -18.2791 C   0  0  0  0  0  0  0  0  0  0  0  0
   26.3168  -18.3369  -19.2508 C   0  0  0  0  0  0  0  0  0  0  0  0
   25.6593  -17.9110  -20.3413 N   0  0  0  0  0  0  0  0  0  0  0  0
   25.0511  -16.7545  -20.1047 C   0  0  0  0  0  0  0  0  0  0  0  0
   25.3387  -16.4401  -18.8098 N   0  0  0  0  0  0  0  0  0  0  0  0
   26.3801  -18.3926  -14.6692 C   0  0  0  0  0  0  0  0  0  0  0  0
   26.6673  -17.4749  -13.8559 O   0  0  0  0  0  0  0  0  0  0  0  0
   24.3017  -21.2085  -11.0522 C   0  0  0  0  0  0  0  0  0  0  0  0
   25.1558  -20.2502  -11.8454 C   0  0  0  0  0  0  0  0  0  0  0  0
   26.4458  -20.9353  -12.1941 C   0  0  2  0  0  0  0  0  0  0  0  0
   27.2337  -21.3139  -10.9524 C   0  0  0  0  0  0  0  0  0  0  0  0
   27.3408  -20.0667  -13.0538 C   0  0  2  0  0  0  0  0  0  0  0  0
   26.7149  -19.7227  -14.3072 N   0  0  0  0  0  0  0  0  0  0  0  0
   28.5696  -20.8388  -13.3333 C   0  0  0  0  0  0  0  0  0  0  0  0
   28.7045  -21.6318  -14.3003 O   0  0  0  0  0  0  0  0  0  0  0  0
   29.6557  -20.6956  -12.4886 O   0  0  0  0  0  0  0  0  0  0  0  0
  2  9  1  0
  2  1  1  6
  3  2  1  0
  4  3  1  0
  4  8  1  0
  5  4  2  0
  6  5  1  0
  6  7  1  0
  7  8  2  0
  9 10  2  0
 11 12  1  0
 11  9  1  0
 13 14  1  0
 12 13  1  6
 14 18  1  0
 15 14  2  0
 15 16  1  0
 16 17  1  0
 18 17  2  0
 19 20  2  0
 19 12  1  0
 22 21  1  0
 22 23  1  0
 23 25  1  0
 23 24  1  1
 25 26  1  6
 25 27  1  0
 26 19  1  0
 27 29  1  0
 28 27  2  0
M  END
$$$$
