HHI.pdb
     RDKit          3D

 29 30  0  0  1  0  0  0  0  0999 V2000
   20.0125  -14.9449  -16.9257 N   0  0  0  0  0  0  0  0  0  0  0  0
   19.3618  -13.6640  -16.9849 C   0  0  1  0  0  0  0  0  0  0  0  0
   18.1442  -13.6574  -16.1169 C   0  0  0  0  0  0  0  0  0  0  0  0
   17.1521  -14.6966  -16.4288 C   0  0  0  0  0  0  0  0  0  0  0  0
   16.3155  -14.7967  -17.5180 C   0  0  0  0  0  0  0  0  0  0  0  0
   15.5695  -15.9046  -17.3772 N   0  0  0  0  0  0  0  0  0  0  0  0
   15.9291  -16.4816  -16.2322 C   0  0  0  0  0  0  0  0  0  0  0  0
   16.8943  -15.7548  -15.6429 N   0  0  0  0  0  0  0  0  0  0  0  0
   20.2583  -12.5103  -16.7559 C   0  0  0  0  0  0  0  0  0  0  0  0
   20.6482  -12.3176  -15.5531 O   0  0  0  0  0  0  0  0  0  0  0  0
   20.7237  -11.6059  -17.7129 N   0  0  0  0  0  0  0  0  0  0  0  0
   21.5656  -10.4667  -17.5130 C   0  0  1  0  0  0  0  0  0  0  0  0
   22.3596  -10.0197  -18.6842 C   0  0  0  0  0  0  0  0  0  0  0  0
   23.3261   -8.9639  -18.3184 C   0  0  0  0  0  0  0  0  0  0  0  0
   24.5102   -9.0998  -17.6482 C   0  0  0  0  0  0  0  0  0  0  0  0
   25.0379   -7.8690  -17.5503 N   0  0  0  0  0  0  0  0  0  0  0  0
   24.2473   -6.9690  -18.1235 C   0  0  0  0  0  0  0  0  0  0  0  0
   23.1769   -7.6642  -18.6022 N   0  0  0  0  0  0  0  0  0  0  0  0
   20.7625   -9.3431  -16.9559 C   0  0  0  0  0  0  0  0  0  0  0  0
   19.5943   -9.0852  -17.3494 O   0  0  0  0  0  0  0  0  0  0  0  0
   19.8137   -8.6986  -11.8724 C   0  0  0  0  0  0  0  0  0  0  0  0
   19.7003   -8.6114  -13.3746 C   0  0  0  0  0  0  0  0  0  0  0  0
   20.5605   -7.4778  -13.8542 C   0  0  2  0  0  0  0  0  0  0  0  0
   20.0600   -6.1384  -13.3429 C   0  0  0  0  0  0  0  0  0  0  0  0
   20.6109   -7.3978  -15.3661 C   0  0  2  0  0  0  0  0  0  0  0  0
   21.3135   -8.5185  -15.9417 N   0  0  0  0  0  0  0  0  0  0  0  0
   21.3293   -6.1554  -15.7191 C   0  0  0  0  0  0  0  0  0  0  0  0
   20.7663   -5.0762  -16.0362 O   0  0  0  0  0  0  0  0  0  0  0  0
   22.7126   -6.1565  -15.7068 O   0  0  0  0  0  0  0  0  0  0  0  0
  2  9  1  0
  2  1  1  1
  3  2  1  0
  4  3  1  0
  4  8  1  0
  5  4  2  0
  6  5  1  0
  6  7  1  0
  7  8  2  0
  9 10  2  0
 11 12  1  0
 11  9  1  0
 13 14  1  0
 12 13  1  6
 14 18  1  0
 15 14  2  0
 15 16  1  0
 16 17  1  0
 18 17  2  0
 19 20  2  0
 19 12  1  0
 22 21  1  0
 22 23  1  0
 23 25  1  0
 23 24  1  1
 25 26  1  1
 25 27  1  0
 26 19  1  0
 27 29  1  0
 28 27  2  0
M  END
$$$$
