HHI.pdb
     RDKit          3D

 29 30  0  0  1  0  0  0  0  0999 V2000
   26.8394  -21.8100  -16.7841 N   0  0  0  0  0  0  0  0  0  0  0  0
   27.2241  -22.0612  -15.4216 C   0  0  1  0  0  0  0  0  0  0  0  0
   28.7138  -22.0661  -15.2932 C   0  0  0  0  0  0  0  0  0  0  0  0
   29.3811  -23.2593  -15.8342 C   0  0  0  0  0  0  0  0  0  0  0  0
   28.8247  -24.3615  -16.4440 C   0  0  0  0  0  0  0  0  0  0  0  0
   29.8142  -25.2107  -16.7656 N   0  0  0  0  0  0  0  0  0  0  0  0
   30.9576  -24.6556  -16.3684 C   0  0  0  0  0  0  0  0  0  0  0  0
   30.7080  -23.4640  -15.7982 N   0  0  0  0  0  0  0  0  0  0  0  0
   26.5469  -21.2028  -14.4256 C   0  0  0  0  0  0  0  0  0  0  0  0
   26.8051  -19.9513  -14.4779 O   0  0  0  0  0  0  0  0  0  0  0  0
   25.6562  -21.6130  -13.4313 N   0  0  0  0  0  0  0  0  0  0  0  0
   24.9687  -20.8014  -12.4746 C   0  0  1  0  0  0  0  0  0  0  0  0
   23.5213  -20.5806  -12.7158 C   0  0  0  0  0  0  0  0  0  0  0  0
   23.2821  -19.8608  -13.9836 C   0  0  0  0  0  0  0  0  0  0  0  0
   23.1441  -18.5141  -14.1759 C   0  0  0  0  0  0  0  0  0  0  0  0
   22.9426  -18.3340  -15.4911 N   0  0  0  0  0  0  0  0  0  0  0  0
   22.9470  -19.4964  -16.1333 C   0  0  0  0  0  0  0  0  0  0  0  0
   23.1604  -20.4477  -15.1806 N   0  0  0  0  0  0  0  0  0  0  0  0
   25.2031  -21.3364  -11.1047 C   0  0  0  0  0  0  0  0  0  0  0  0
   25.2679  -22.5703  -10.8612 O   0  0  0  0  0  0  0  0  0  0  0  0
   28.3822  -18.6727   -7.4969 C   0  0  0  0  0  0  0  0  0  0  0  0
   27.7006  -19.7502   -8.3041 C   0  0  0  0  0  0  0  0  0  0  0  0
   26.2886  -19.8944   -7.8136 C   0  0  2  0  0  0  0  0  0  0  0  0
   26.2410  -20.3744   -6.3737 C   0  0  0  0  0  0  0  0  0  0  0  0
   25.4907  -20.8758   -8.6471 C   0  0  2  0  0  0  0  0  0  0  0  0
   25.3631  -20.4406  -10.0165 N   0  0  0  0  0  0  0  0  0  0  0  0
   24.1415  -20.9675   -8.0507 C   0  0  0  0  0  0  0  0  0  0  0  0
   23.1546  -20.2809   -8.4202 O   0  0  0  0  0  0  0  0  0  0  0  0
   23.9271  -21.8607   -7.0164 O   0  0  0  0  0  0  0  0  0  0  0  0
  2  9  1  0
  2  1  1  6
  3  2  1  0
  4  3  1  0
  4  8  1  0
  5  4  2  0
  6  5  1  0
  6  7  1  0
  7  8  2  0
  9 10  2  0
 11 12  1  0
 11  9  1  0
 13 14  1  0
 12 13  1  6
 14 18  1  0
 15 14  2  0
 15 16  1  0
 16 17  1  0
 18 17  2  0
 19 20  2  0
 19 12  1  0
 22 21  1  0
 22 23  1  0
 23 25  1  0
 23 24  1  1
 25 26  1  6
 25 27  1  0
 26 19  1  0
 27 29  1  0
 28 27  2  0
M  END
$$$$
