HHI.pdb
     RDKit          3D

 29 30  0  0  1  0  0  0  0  0999 V2000
   20.3077  -21.9037  -14.9235 N   0  0  0  0  0  0  0  0  0  0  0  0
   20.5912  -20.8420  -15.8507 C   0  0  1  0  0  0  0  0  0  0  0  0
   19.4743  -19.8479  -15.8621 C   0  0  0  0  0  0  0  0  0  0  0  0
   18.1636  -20.3890  -16.2504 C   0  0  0  0  0  0  0  0  0  0  0  0
   17.7100  -20.7475  -17.5002 C   0  0  0  0  0  0  0  0  0  0  0  0
   16.4440  -21.1800  -17.3820 N   0  0  0  0  0  0  0  0  0  0  0  0
   16.1146  -21.0945  -16.0946 C   0  0  0  0  0  0  0  0  0  0  0  0
   17.1549  -20.6132  -15.3923 N   0  0  0  0  0  0  0  0  0  0  0  0
   21.9276  -20.2292  -15.6903 C   0  0  0  0  0  0  0  0  0  0  0  0
   22.1848  -19.7055  -14.5521 O   0  0  0  0  0  0  0  0  0  0  0  0
   22.9395  -20.1586  -16.6502 N   0  0  0  0  0  0  0  0  0  0  0  0
   24.2753  -19.6729  -16.4886 C   0  0  1  0  0  0  0  0  0  0  0  0
   25.3538  -20.4963  -17.0892 C   0  0  0  0  0  0  0  0  0  0  0  0
   25.3999  -21.8504  -16.5001 C   0  0  0  0  0  0  0  0  0  0  0  0
   25.7728  -22.2071  -15.2339 C   0  0  0  0  0  0  0  0  0  0  0  0
   25.6531  -23.5425  -15.1617 N   0  0  0  0  0  0  0  0  0  0  0  0
   25.2251  -24.0416  -16.3154 C   0  0  0  0  0  0  0  0  0  0  0  0
   25.0691  -22.9740  -17.1484 N   0  0  0  0  0  0  0  0  0  0  0  0
   24.3558  -18.2638  -16.9639 C   0  0  0  0  0  0  0  0  0  0  0  0
   23.6789  -17.8373  -17.9364 O   0  0  0  0  0  0  0  0  0  0  0  0
   23.1303  -14.2207  -14.1421 C   0  0  0  0  0  0  0  0  0  0  0  0
   23.4585  -15.1531  -15.2823 C   0  0  0  0  0  0  0  0  0  0  0  0
   24.9199  -15.0218  -15.6022 C   0  0  2  0  0  0  0  0  0  0  0  0
   25.2731  -13.6128  -16.0448 C   0  0  0  0  0  0  0  0  0  0  0  0
   25.3515  -15.9669  -16.7045 C   0  0  2  0  0  0  0  0  0  0  0  0
   25.2211  -17.3487  -16.3112 N   0  0  0  0  0  0  0  0  0  0  0  0
   26.7738  -15.6881  -16.9938 C   0  0  0  0  0  0  0  0  0  0  0  0
   27.7366  -16.1497  -16.3289 O   0  0  0  0  0  0  0  0  0  0  0  0
   27.0904  -14.8677  -18.0617 O   0  0  0  0  0  0  0  0  0  0  0  0
  2  9  1  0
  2  1  1  1
  3  2  1  0
  4  3  1  0
  4  8  1  0
  5  4  2  0
  6  5  1  0
  6  7  1  0
  7  8  2  0
  9 10  2  0
 11 12  1  0
 11  9  1  0
 13 14  1  0
 12 13  1  6
 14 18  1  0
 15 14  2  0
 15 16  1  0
 16 17  1  0
 18 17  2  0
 19 20  2  0
 19 12  1  0
 22 21  1  0
 22 23  1  0
 23 25  1  0
 23 24  1  6
 25 26  1  1
 25 27  1  0
 26 19  1  0
 27 29  1  0
 28 27  2  0
M  END
$$$$
