HHI.pdb
     RDKit          3D

 29 30  0  0  1  0  0  0  0  0999 V2000
   17.3418  -12.6658  -16.7590 N   0  0  0  0  0  0  0  0  0  0  0  0
   18.5296  -12.0127  -16.2796 C   0  0  1  0  0  0  0  0  0  0  0  0
   19.7439  -12.6003  -16.9245 C   0  0  0  0  0  0  0  0  0  0  0  0
   19.9263  -14.0432  -16.7091 C   0  0  0  0  0  0  0  0  0  0  0  0
   19.8135  -15.0754  -17.6136 C   0  0  0  0  0  0  0  0  0  0  0  0
   20.0538  -16.2293  -16.9698 N   0  0  0  0  0  0  0  0  0  0  0  0
   20.3097  -15.9278  -15.6982 C   0  0  0  0  0  0  0  0  0  0  0  0
   20.2353  -14.5968  -15.5250 N   0  0  0  0  0  0  0  0  0  0  0  0
   18.4834  -10.5356  -16.3400 C   0  0  0  0  0  0  0  0  0  0  0  0
   18.3998  -10.0122  -17.5039 O   0  0  0  0  0  0  0  0  0  0  0  0
   18.5237   -9.6497  -15.2612 N   0  0  0  0  0  0  0  0  0  0  0  0
   18.5031   -8.2197  -15.2939 C   0  0  1  0  0  0  0  0  0  0  0  0
   17.3156   -7.5632  -14.6931 C   0  0  0  0  0  0  0  0  0  0  0  0
   16.0783   -7.8906  -15.4311 C   0  0  0  0  0  0  0  0  0  0  0  0
   15.1688   -8.8745  -15.1584 C   0  0  0  0  0  0  0  0  0  0  0  0
   14.2158   -8.7862  -16.1001 N   0  0  0  0  0  0  0  0  0  0  0  0
   14.4798   -7.7993  -16.9485 C   0  0  0  0  0  0  0  0  0  0  0  0
   15.6489   -7.2435  -16.5216 N   0  0  0  0  0  0  0  0  0  0  0  0
   19.7610   -7.6879  -14.7001 C   0  0  0  0  0  0  0  0  0  0  0  0
   20.2406   -8.1288  -13.6223 O   0  0  0  0  0  0  0  0  0  0  0  0
   25.0943   -6.1897  -16.8766 C   0  0  0  0  0  0  0  0  0  0  0  0
   24.1642   -5.9438  -15.7140 C   0  0  0  0  0  0  0  0  0  0  0  0
   22.7823   -6.3818  -16.1060 C   0  0  2  0  0  0  0  0  0  0  0  0
   22.2567   -5.5884  -17.2893 C   0  0  0  0  0  0  0  0  0  0  0  0
   21.7888   -6.2224  -14.9737 C   0  0  2  0  0  0  0  0  0  0  0  0
   20.4636   -6.6448  -15.3562 N   0  0  0  0  0  0  0  0  0  0  0  0
   21.7464   -4.7875  -14.6219 C   0  0  0  0  0  0  0  0  0  0  0  0
   22.6742   -4.1732  -14.0357 O   0  0  0  0  0  0  0  0  0  0  0  0
   20.6214   -4.0520  -14.9493 O   0  0  0  0  0  0  0  0  0  0  0  0
  2  9  1  0
  2  1  1  6
  3  2  1  0
  4  3  1  0
  4  8  1  0
  5  4  2  0
  6  5  1  0
  6  7  1  0
  7  8  2  0
  9 10  2  0
 11 12  1  0
 11  9  1  0
 13 14  1  0
 12 13  1  1
 14 18  1  0
 15 14  2  0
 15 16  1  0
 16 17  1  0
 18 17  2  0
 19 20  2  0
 19 12  1  0
 22 21  1  0
 22 23  1  0
 23 25  1  0
 23 24  1  6
 25 26  1  6
 25 27  1  0
 26 19  1  0
 27 29  1  0
 28 27  2  0
M  END
$$$$
