HHI.pdb
     RDKit          3D

 29 30  0  0  1  0  0  0  0  0999 V2000
   18.5891  -16.0546  -18.8807 N   0  0  0  0  0  0  0  0  0  0  0  0
   18.9257  -15.5368  -17.5823 C   0  0  1  0  0  0  0  0  0  0  0  0
   20.0877  -16.2830  -17.0089 C   0  0  0  0  0  0  0  0  0  0  0  0
   19.8918  -17.7341  -16.8775 C   0  0  0  0  0  0  0  0  0  0  0  0
   20.3090  -18.7441  -17.7155 C   0  0  0  0  0  0  0  0  0  0  0  0
   19.8942  -19.9150  -17.2049 N   0  0  0  0  0  0  0  0  0  0  0  0
   19.2358  -19.6454  -16.0792 C   0  0  0  0  0  0  0  0  0  0  0  0
   19.2267  -18.3179  -15.8672 N   0  0  0  0  0  0  0  0  0  0  0  0
   19.0821  -14.0671  -17.5305 C   0  0  0  0  0  0  0  0  0  0  0  0
   20.1263  -13.5821  -18.0877 O   0  0  0  0  0  0  0  0  0  0  0  0
   18.2122  -13.1507  -16.9358 N   0  0  0  0  0  0  0  0  0  0  0  0
   18.3208  -11.7246  -16.9048 C   0  0  1  0  0  0  0  0  0  0  0  0
   17.0460  -10.9654  -16.9275 C   0  0  0  0  0  0  0  0  0  0  0  0
   17.2790   -9.5084  -17.0019 C   0  0  0  0  0  0  0  0  0  0  0  0
   18.4746   -8.8466  -17.0490 C   0  0  0  0  0  0  0  0  0  0  0  0
   18.1849   -7.5369  -17.1097 N   0  0  0  0  0  0  0  0  0  0  0  0
   16.8712   -7.3428  -17.1031 C   0  0  0  0  0  0  0  0  0  0  0  0
   16.3114   -8.5838  -17.0353 N   0  0  0  0  0  0  0  0  0  0  0  0
   19.1637  -11.3124  -15.7483 C   0  0  0  0  0  0  0  0  0  0  0  0
   18.9474  -11.7149  -14.5748 O   0  0  0  0  0  0  0  0  0  0  0  0
   24.1445  -12.2098  -15.6005 C   0  0  0  0  0  0  0  0  0  0  0  0
   22.6979  -11.8925  -15.3107 C   0  0  0  0  0  0  0  0  0  0  0  0
   22.5629  -10.4094  -15.1178 C   0  0  2  0  0  0  0  0  0  0  0  0
   23.3755   -9.9215  -13.9314 C   0  0  0  0  0  0  0  0  0  0  0  0
   21.1253   -9.9910  -14.8877 C   0  0  2  0  0  0  0  0  0  0  0  0
   20.2583  -10.4336  -15.9524 N   0  0  0  0  0  0  0  0  0  0  0  0
   21.0978   -8.5142  -14.8365 C   0  0  0  0  0  0  0  0  0  0  0  0
   20.9769   -7.7715  -15.8444 O   0  0  0  0  0  0  0  0  0  0  0  0
   21.2110   -7.8857  -13.6093 O   0  0  0  0  0  0  0  0  0  0  0  0
  2  9  1  0
  2  1  1  6
  3  2  1  0
  4  3  1  0
  4  8  1  0
  5  4  2  0
  6  5  1  0
  6  7  1  0
  7  8  2  0
  9 10  2  0
 11 12  1  0
 11  9  1  0
 13 14  1  0
 12 13  1  1
 14 18  1  0
 15 14  2  0
 15 16  1  0
 16 17  1  0
 18 17  2  0
 19 20  2  0
 19 12  1  0
 22 21  1  0
 22 23  1  0
 23 25  1  0
 23 24  1  1
 25 26  1  6
 25 27  1  0
 26 19  1  0
 27 29  1  0
 28 27  2  0
M  END
$$$$
