HHI.pdb
     RDKit          3D

 29 30  0  0  1  0  0  0  0  0999 V2000
   22.0359   -9.7477  -17.0931 N   0  0  0  0  0  0  0  0  0  0  0  0
   20.7903  -10.1019  -16.4683 C   0  0  1  0  0  0  0  0  0  0  0  0
   20.9172  -11.4119  -15.7587 C   0  0  0  0  0  0  0  0  0  0  0  0
   20.8544  -12.5978  -16.6254 C   0  0  0  0  0  0  0  0  0  0  0  0
   20.7747  -12.6641  -17.9986 C   0  0  0  0  0  0  0  0  0  0  0  0
   20.7264  -13.9575  -18.3569 N   0  0  0  0  0  0  0  0  0  0  0  0
   20.7745  -14.6804  -17.2395 C   0  0  0  0  0  0  0  0  0  0  0  0
   20.8527  -13.8631  -16.1750 N   0  0  0  0  0  0  0  0  0  0  0  0
   20.1965   -9.0330  -15.6363 C   0  0  0  0  0  0  0  0  0  0  0  0
   20.8719   -8.6587  -14.6167 O   0  0  0  0  0  0  0  0  0  0  0  0
   18.9746   -8.3892  -15.8432 N   0  0  0  0  0  0  0  0  0  0  0  0
   18.4177   -7.2974  -15.1055 C   0  0  1  0  0  0  0  0  0  0  0  0
   18.4735   -5.9650  -15.7563 C   0  0  0  0  0  0  0  0  0  0  0  0
   19.8655   -5.5311  -15.9947 C   0  0  0  0  0  0  0  0  0  0  0  0
   20.6860   -4.8300  -15.1553 C   0  0  0  0  0  0  0  0  0  0  0  0
   21.8510   -4.6708  -15.8036 N   0  0  0  0  0  0  0  0  0  0  0  0
   21.8041   -5.2351  -17.0048 C   0  0  0  0  0  0  0  0  0  0  0  0
   20.5560   -5.7718  -17.1161 N   0  0  0  0  0  0  0  0  0  0  0  0
   17.0252   -7.6299  -14.6951 C   0  0  0  0  0  0  0  0  0  0  0  0
   16.2808   -8.3851  -15.3745 O   0  0  0  0  0  0  0  0  0  0  0  0
   15.4986  -10.1682  -10.5669 C   0  0  0  0  0  0  0  0  0  0  0  0
   15.5345   -9.4975  -11.9182 C   0  0  0  0  0  0  0  0  0  0  0  0
   15.0771   -8.0760  -11.7590 C   0  0  2  0  0  0  0  0  0  0  0  0
   13.6485   -7.9999  -11.2499 C   0  0  0  0  0  0  0  0  0  0  0  0
   15.1375   -7.3062  -13.0622 C   0  0  2  0  0  0  0  0  0  0  0  0
   16.4957   -7.0873  -13.4962 N   0  0  0  0  0  0  0  0  0  0  0  0
   14.4962   -5.9949  -12.8309 C   0  0  0  0  0  0  0  0  0  0  0  0
   13.2803   -5.7527  -13.0431 O   0  0  0  0  0  0  0  0  0  0  0  0
   15.2649   -4.9504  -12.3497 O   0  0  0  0  0  0  0  0  0  0  0  0
  2  9  1  0
  2  1  1  1
  3  2  1  0
  4  3  1  0
  4  8  1  0
  5  4  2  0
  6  5  1  0
  6  7  1  0
  7  8  2  0
  9 10  2  0
 11 12  1  0
 11  9  1  0
 13 14  1  0
 12 13  1  6
 14 18  1  0
 15 14  2  0
 15 16  1  0
 16 17  1  0
 18 17  2  0
 19 20  2  0
 19 12  1  0
 22 21  1  0
 22 23  1  0
 23 25  1  0
 23 24  1  6
 25 26  1  1
 25 27  1  0
 26 19  1  0
 27 29  1  0
 28 27  2  0
M  END
$$$$
