IGM.pdb
     RDKit          3D

 21 20  0  0  1  0  0  0  0  0999 V2000
    7.8076  -11.6307   19.0838 C   0  0  0  0  0  0  0  0  0  0  0  0
    7.6399  -13.1068   18.9880 C   0  0  0  0  0  0  0  0  0  0  0  0
    8.1782  -13.9119   20.1144 C   0  0  2  0  0  0  0  0  0  0  0  0
    9.6512  -13.6278   20.2526 C   0  0  0  0  0  0  0  0  0  0  0  0
    7.8691  -15.3812   20.0210 C   0  0  2  0  0  0  0  0  0  0  0  0
    6.4739  -15.5294   19.6849 N   0  0  0  0  0  0  0  0  0  0  0  0
    8.1659  -16.1152   21.2593 C   0  0  0  0  0  0  0  0  0  0  0  0
    7.3862  -16.2531   22.2313 O   0  0  0  0  0  0  0  0  0  0  0  0
    9.4575  -16.7375   21.3894 N   0  0  0  0  0  0  0  0  0  0  0  0
    9.7757  -17.4465   22.6006 C   0  0  0  0  0  0  0  0  0  0  0  0
    9.5911  -16.7202   23.8390 C   0  0  0  0  0  0  0  0  0  0  0  0
   10.5414  -15.8987   24.1416 O   0  0  0  0  0  0  0  0  0  0  0  0
    6.7168  -11.0640   26.4108 C   0  0  0  0  0  0  0  0  0  0  0  0
    6.3147  -12.8048   26.7147 S   0  0  0  0  0  0  0  0  0  0  0  0
    7.5912  -13.8223   25.9231 C   0  0  0  0  0  0  0  0  0  0  0  0
    7.2704  -15.2871   26.1202 C   0  0  0  0  0  0  0  0  0  0  0  0
    8.5145  -16.1437   26.0164 C   0  0  2  0  0  0  0  0  0  0  0  0
    8.4913  -16.8331   24.7153 N   0  0  0  0  0  0  0  0  0  0  0  0
    8.5938  -17.1465   27.0886 C   0  0  0  0  0  0  0  0  0  0  0  0
    9.5327  -17.0030   28.0931 O   0  0  0  0  0  0  0  0  0  0  0  0
    7.8337  -18.1454   27.1344 O   0  0  0  0  0  0  0  0  0  0  0  0
  2  1  1  0
  2  3  1  0
  3  5  1  0
  3  4  1  6
  5  6  1  1
  7  9  1  0
  7  5  1  0
  8  7  2  0
 10  9  1  0
 11 18  1  0
 11 10  1  0
 12 11  2  0
 14 13  1  0
 15 14  1  0
 17 16  1  1
 16 15  1  0
 17 18  1  0
 19 17  1  0
 20 19  1  0
 21 19  2  0
M  END
$$$$
