IGM.pdb
     RDKit          3D

 21 20  0  0  1  0  0  0  0  0999 V2000
    5.8061  -11.8798   27.2630 C   0  0  0  0  0  0  0  0  0  0  0  0
    5.6653  -12.8877   26.1765 C   0  0  0  0  0  0  0  0  0  0  0  0
    6.9219  -13.3595   25.5400 C   0  0  2  0  0  0  0  0  0  0  0  0
    7.7088  -12.1620   25.0750 C   0  0  0  0  0  0  0  0  0  0  0  0
    6.7144  -14.3832   24.4573 C   0  0  2  0  0  0  0  0  0  0  0  0
    6.0774  -15.5378   25.0427 N   0  0  0  0  0  0  0  0  0  0  0  0
    7.9623  -14.7839   23.7924 C   0  0  0  0  0  0  0  0  0  0  0  0
    8.7770  -14.0078   23.2394 O   0  0  0  0  0  0  0  0  0  0  0  0
    8.2985  -16.1833   23.7610 N   0  0  0  0  0  0  0  0  0  0  0  0
    9.5386  -16.5934   23.1568 C   0  0  0  0  0  0  0  0  0  0  0  0
   10.6371  -16.8613   24.0605 C   0  0  0  0  0  0  0  0  0  0  0  0
   11.7755  -17.0844   23.4915 O   0  0  0  0  0  0  0  0  0  0  0  0
   10.0455  -12.7786   28.8178 C   0  0  0  0  0  0  0  0  0  0  0  0
   10.8809  -14.3690   29.0556 S   0  0  0  0  0  0  0  0  0  0  0  0
   11.1313  -15.1213   27.4238 C   0  0  0  0  0  0  0  0  0  0  0  0
   11.6766  -16.5225   27.5866 C   0  0  0  0  0  0  0  0  0  0  0  0
   11.7647  -17.2389   26.2556 C   0  0  2  0  0  0  0  0  0  0  0  0
   10.5674  -16.8974   25.4691 N   0  0  0  0  0  0  0  0  0  0  0  0
   11.8359  -18.6991   26.4104 C   0  0  0  0  0  0  0  0  0  0  0  0
   10.7464  -19.4784   26.0690 O   0  0  0  0  0  0  0  0  0  0  0  0
   12.8600  -19.2813   26.8465 O   0  0  0  0  0  0  0  0  0  0  0  0
  2  1  1  0
  2  3  1  0
  3  5  1  0
  3  4  1  6
  5  6  1  1
  7  9  1  0
  7  5  1  0
  8  7  2  0
 10  9  1  0
 11 18  1  0
 11 10  1  0
 12 11  2  0
 14 13  1  0
 15 14  1  0
 17 16  1  1
 16 15  1  0
 17 18  1  0
 19 17  1  0
 20 19  1  0
 21 19  2  0
M  END
$$$$
