IGM.pdb
     RDKit          3D

 21 20  0  0  1  0  0  0  0  0999 V2000
    7.6402  -12.5722   27.5369 C   0  0  0  0  0  0  0  0  0  0  0  0
    7.4401  -13.6661   26.5472 C   0  0  0  0  0  0  0  0  0  0  0  0
    6.9064  -13.2713   25.2183 C   0  0  2  0  0  0  0  0  0  0  0  0
    5.5192  -12.7125   25.3997 C   0  0  0  0  0  0  0  0  0  0  0  0
    6.9705  -14.3610   24.1830 C   0  0  2  0  0  0  0  0  0  0  0  0
    6.3226  -15.5331   24.7195 N   0  0  0  0  0  0  0  0  0  0  0  0
    8.3430  -14.6913   23.7742 C   0  0  0  0  0  0  0  0  0  0  0  0
    9.2184  -13.8662   23.4207 O   0  0  0  0  0  0  0  0  0  0  0  0
    8.7385  -16.0755   23.7714 N   0  0  0  0  0  0  0  0  0  0  0  0
   10.0664  -16.4247   23.3401 C   0  0  0  0  0  0  0  0  0  0  0  0
   11.0429  -16.6526   24.3839 C   0  0  0  0  0  0  0  0  0  0  0  0
   12.2088  -17.0295   23.9735 O   0  0  0  0  0  0  0  0  0  0  0  0
    9.9345  -14.5511   29.8650 C   0  0  0  0  0  0  0  0  0  0  0  0
   11.1477  -13.5426   28.9734 S   0  0  0  0  0  0  0  0  0  0  0  0
   11.7870  -14.5262   27.5895 C   0  0  0  0  0  0  0  0  0  0  0  0
   11.7535  -15.9948   27.9494 C   0  0  0  0  0  0  0  0  0  0  0  0
   11.8951  -16.8679   26.7206 C   0  0  2  0  0  0  0  0  0  0  0  0
   10.8314  -16.5012   25.7704 N   0  0  0  0  0  0  0  0  0  0  0  0
   11.7832  -18.2994   27.0361 C   0  0  0  0  0  0  0  0  0  0  0  0
   12.8229  -18.9422   27.6818 O   0  0  0  0  0  0  0  0  0  0  0  0
   10.7679  -18.9771   26.7404 O   0  0  0  0  0  0  0  0  0  0  0  0
  2  1  1  0
  2  3  1  0
  3  5  1  0
  3  4  1  1
  5  6  1  1
  7  9  1  0
  7  5  1  0
  8  7  2  0
 10  9  1  0
 11 18  1  0
 11 10  1  0
 12 11  2  0
 14 13  1  0
 15 14  1  0
 17 16  1  1
 16 15  1  0
 17 18  1  0
 19 17  1  0
 20 19  1  0
 21 19  2  0
M  END
$$$$
