IGM.pdb
     RDKit          3D

 21 20  0  0  1  0  0  0  0  0999 V2000
    8.2850  -11.7242   18.2317 C   0  0  0  0  0  0  0  0  0  0  0  0
    8.7356  -13.1428   18.2626 C   0  0  0  0  0  0  0  0  0  0  0  0
    8.1696  -13.9972   19.3379 C   0  0  2  0  0  0  0  0  0  0  0  0
    8.4830  -13.3694   20.6710 C   0  0  0  0  0  0  0  0  0  0  0  0
    8.5838  -15.4411   19.2561 C   0  0  2  0  0  0  0  0  0  0  0  0
    8.1998  -15.9491   17.9615 N   0  0  0  0  0  0  0  0  0  0  0  0
    7.9948  -16.2733   20.3147 C   0  0  0  0  0  0  0  0  0  0  0  0
    7.0809  -17.1170   20.1570 O   0  0  0  0  0  0  0  0  0  0  0  0
    8.4946  -16.1235   21.6564 N   0  0  0  0  0  0  0  0  0  0  0  0
    7.9169  -16.9124   22.7123 C   0  0  0  0  0  0  0  0  0  0  0  0
    8.3727  -16.6226   24.0553 C   0  0  0  0  0  0  0  0  0  0  0  0
    9.6168  -16.2877   24.1535 O   0  0  0  0  0  0  0  0  0  0  0  0
    6.6250  -11.1382   25.9906 C   0  0  0  0  0  0  0  0  0  0  0  0
    6.4752  -12.6149   27.0302 S   0  0  0  0  0  0  0  0  0  0  0  0
    7.4945  -13.9240   26.2962 C   0  0  0  0  0  0  0  0  0  0  0  0
    7.3788  -15.1847   27.1238 C   0  0  0  0  0  0  0  0  0  0  0  0
    8.1907  -16.3142   26.5260 C   0  0  2  0  0  0  0  0  0  0  0  0
    7.5925  -16.6748   25.2295 N   0  0  0  0  0  0  0  0  0  0  0  0
    8.2148  -17.5034   27.3899 C   0  0  0  0  0  0  0  0  0  0  0  0
    9.0679  -17.5438   28.4769 O   0  0  0  0  0  0  0  0  0  0  0  0
    7.4823  -18.5024   27.1817 O   0  0  0  0  0  0  0  0  0  0  0  0
  2  1  1  0
  2  3  1  0
  3  5  1  0
  3  4  1  1
  5  6  1  6
  7  9  1  0
  7  5  1  0
  8  7  2  0
 10  9  1  0
 11 18  1  0
 11 10  1  0
 12 11  2  0
 14 13  1  0
 15 14  1  0
 17 16  1  1
 16 15  1  0
 17 18  1  0
 19 17  1  0
 20 19  1  0
 21 19  2  0
M  END
$$$$
