IGM.pdb
     RDKit          3D

 21 20  0  0  1  0  0  0  0  0999 V2000
    6.9963  -11.8520   19.0871 C   0  0  0  0  0  0  0  0  0  0  0  0
    6.9988  -13.3380   19.1762 C   0  0  0  0  0  0  0  0  0  0  0  0
    8.2680  -13.9762   19.6105 C   0  0  2  0  0  0  0  0  0  0  0  0
    9.3821  -13.4963   18.7172 C   0  0  0  0  0  0  0  0  0  0  0  0
    8.1981  -15.4757   19.7095 C   0  0  2  0  0  0  0  0  0  0  0  0
    7.0094  -15.8253   20.4484 N   0  0  0  0  0  0  0  0  0  0  0  0
    9.3791  -16.0692   20.3523 C   0  0  0  0  0  0  0  0  0  0  0  0
   10.4389  -16.3999   19.7698 O   0  0  0  0  0  0  0  0  0  0  0  0
    9.3378  -16.3000   21.7726 N   0  0  0  0  0  0  0  0  0  0  0  0
   10.5473  -16.6714   22.4584 C   0  0  0  0  0  0  0  0  0  0  0  0
   10.4340  -16.9052   23.8823 C   0  0  0  0  0  0  0  0  0  0  0  0
   11.5322  -17.2430   24.4734 O   0  0  0  0  0  0  0  0  0  0  0  0
    6.3154  -11.5629   27.3843 C   0  0  0  0  0  0  0  0  0  0  0  0
    7.3774  -12.2835   26.1049 S   0  0  0  0  0  0  0  0  0  0  0  0
    7.9401  -13.9058   26.6904 C   0  0  0  0  0  0  0  0  0  0  0  0
    8.1341  -14.8340   25.5122 C   0  0  0  0  0  0  0  0  0  0  0  0
    9.2077  -15.8643   25.7917 C   0  0  2  0  0  0  0  0  0  0  0  0
    9.2575  -16.7974   24.6534 N   0  0  0  0  0  0  0  0  0  0  0  0
    8.9465  -16.6240   27.0229 C   0  0  0  0  0  0  0  0  0  0  0  0
    8.7801  -17.9949   26.9600 O   0  0  0  0  0  0  0  0  0  0  0  0
    8.8661  -16.0744   28.1495 O   0  0  0  0  0  0  0  0  0  0  0  0
  2  1  1  0
  2  3  1  0
  3  5  1  0
  3  4  1  6
  5  6  1  1
  7  9  1  0
  7  5  1  0
  8  7  2  0
 10  9  1  0
 11 18  1  0
 11 10  1  0
 12 11  2  0
 14 13  1  0
 15 14  1  0
 17 16  1  6
 16 15  1  0
 17 18  1  0
 19 17  1  0
 20 19  1  0
 21 19  2  0
M  END
$$$$
