IGM.pdb
     RDKit          3D

 21 20  0  0  1  0  0  0  0  0999 V2000
    5.8471  -11.9232   26.8845 C   0  0  0  0  0  0  0  0  0  0  0  0
    5.7953  -13.0585   25.9229 C   0  0  0  0  0  0  0  0  0  0  0  0
    7.0975  -13.5520   25.4057 C   0  0  2  0  0  0  0  0  0  0  0  0
    7.8799  -12.3823   24.8678 C   0  0  0  0  0  0  0  0  0  0  0  0
    6.9776  -14.6823   24.4202 C   0  0  2  0  0  0  0  0  0  0  0  0
    6.2424  -15.7534   25.0477 N   0  0  0  0  0  0  0  0  0  0  0  0
    8.2777  -15.1783   23.9470 C   0  0  0  0  0  0  0  0  0  0  0  0
    9.1922  -14.4760   23.4548 O   0  0  0  0  0  0  0  0  0  0  0  0
    8.5460  -16.5891   24.0473 N   0  0  0  0  0  0  0  0  0  0  0  0
    9.8181  -17.0945   23.6030 C   0  0  0  0  0  0  0  0  0  0  0  0
   10.8299  -17.2762   24.6220 C   0  0  0  0  0  0  0  0  0  0  0  0
   12.0170  -17.5300   24.1794 O   0  0  0  0  0  0  0  0  0  0  0  0
   10.2211  -12.6346   28.6981 C   0  0  0  0  0  0  0  0  0  0  0  0
   10.9586  -14.2093   29.2086 S   0  0  0  0  0  0  0  0  0  0  0  0
   11.1580  -15.2414   27.7300 C   0  0  0  0  0  0  0  0  0  0  0  0
   11.6545  -16.6132   28.1289 C   0  0  0  0  0  0  0  0  0  0  0  0
   11.7303  -17.5417   26.9354 C   0  0  2  0  0  0  0  0  0  0  0  0
   10.6309  -17.2008   26.0166 N   0  0  0  0  0  0  0  0  0  0  0  0
   11.6129  -18.9560   27.3191 C   0  0  0  0  0  0  0  0  0  0  0  0
   10.4949  -19.6774   26.9440 O   0  0  0  0  0  0  0  0  0  0  0  0
   12.4980  -19.5495   27.9841 O   0  0  0  0  0  0  0  0  0  0  0  0
  2  1  1  0
  2  3  1  0
  3  5  1  0
  3  4  1  6
  5  6  1  1
  7  9  1  0
  7  5  1  0
  8  7  2  0
 10  9  1  0
 11 18  1  0
 11 10  1  0
 12 11  2  0
 14 13  1  0
 15 14  1  0
 17 16  1  1
 16 15  1  0
 17 18  1  0
 19 17  1  0
 20 19  1  0
 21 19  2  0
M  END
$$$$
