IGM.pdb
     RDKit          3D

 21 20  0  0  1  0  0  0  0  0999 V2000
    8.6608  -11.9251   18.5774 C   0  0  0  0  0  0  0  0  0  0  0  0
    7.9103  -13.1811   18.3028 C   0  0  0  0  0  0  0  0  0  0  0  0
    7.7169  -14.1047   19.4500 C   0  0  2  0  0  0  0  0  0  0  0  0
    6.6723  -13.5252   20.3678 C   0  0  0  0  0  0  0  0  0  0  0  0
    8.9894  -14.4706   20.1643 C   0  0  2  0  0  0  0  0  0  0  0  0
    9.7804  -15.2965   19.2847 N   0  0  0  0  0  0  0  0  0  0  0  0
    8.7589  -15.1715   21.4353 C   0  0  0  0  0  0  0  0  0  0  0  0
    8.1339  -14.7117   22.4201 O   0  0  0  0  0  0  0  0  0  0  0  0
    9.2877  -16.5021   21.5852 N   0  0  0  0  0  0  0  0  0  0  0  0
    9.1445  -17.1756   22.8489 C   0  0  0  0  0  0  0  0  0  0  0  0
    9.6267  -16.4659   24.0146 C   0  0  0  0  0  0  0  0  0  0  0  0
   10.7840  -15.9076   23.8790 O   0  0  0  0  0  0  0  0  0  0  0  0
    6.1143  -12.4703   26.4715 C   0  0  0  0  0  0  0  0  0  0  0  0
    7.5584  -11.9294   27.4234 S   0  0  0  0  0  0  0  0  0  0  0  0
    8.7354  -13.3083   27.4903 C   0  0  0  0  0  0  0  0  0  0  0  0
    8.2987  -14.3982   26.5369 C   0  0  0  0  0  0  0  0  0  0  0  0
    9.4289  -15.3625   26.2453 C   0  0  2  0  0  0  0  0  0  0  0  0
    8.9558  -16.3384   25.2491 N   0  0  0  0  0  0  0  0  0  0  0  0
    9.8736  -16.0824   27.4476 C   0  0  0  0  0  0  0  0  0  0  0  0
   10.5503  -15.4021   28.4427 O   0  0  0  0  0  0  0  0  0  0  0  0
    9.6629  -17.3093   27.6147 O   0  0  0  0  0  0  0  0  0  0  0  0
  2  1  1  0
  2  3  1  0
  3  5  1  0
  3  4  1  1
  5  6  1  6
  7  9  1  0
  7  5  1  0
  8  7  2  0
 10  9  1  0
 11 18  1  0
 11 10  1  0
 12 11  2  0
 14 13  1  0
 15 14  1  0
 17 16  1  1
 16 15  1  0
 17 18  1  0
 19 17  1  0
 20 19  1  0
 21 19  2  0
M  END
$$$$
