IGM.pdb
     RDKit          3D

 21 20  0  0  1  0  0  0  0  0999 V2000
    5.9434  -11.7665   26.5517 C   0  0  0  0  0  0  0  0  0  0  0  0
    5.6694  -13.0092   25.7791 C   0  0  0  0  0  0  0  0  0  0  0  0
    6.8421  -13.6816   25.1631 C   0  0  2  0  0  0  0  0  0  0  0  0
    7.5103  -12.7191   24.2161 C   0  0  0  0  0  0  0  0  0  0  0  0
    6.5249  -15.0075   24.5271 C   0  0  2  0  0  0  0  0  0  0  0  0
    5.7107  -15.7662   25.4451 N   0  0  0  0  0  0  0  0  0  0  0  0
    7.7233  -15.7784   24.1670 C   0  0  0  0  0  0  0  0  0  0  0  0
    8.2965  -16.6210   24.8973 O   0  0  0  0  0  0  0  0  0  0  0  0
    8.3067  -15.5636   22.8686 N   0  0  0  0  0  0  0  0  0  0  0  0
    9.5321  -16.2381   22.5299 C   0  0  0  0  0  0  0  0  0  0  0  0
   10.5138  -16.3584   23.5867 C   0  0  0  0  0  0  0  0  0  0  0  0
   11.6797  -16.7687   23.2102 O   0  0  0  0  0  0  0  0  0  0  0  0
   10.0718  -13.7320   29.3905 C   0  0  0  0  0  0  0  0  0  0  0  0
   11.4602  -14.8243   29.7947 S   0  0  0  0  0  0  0  0  0  0  0  0
   12.0650  -15.5587   28.2500 C   0  0  0  0  0  0  0  0  0  0  0  0
   11.0130  -15.4184   27.1725 C   0  0  0  0  0  0  0  0  0  0  0  0
   11.4436  -16.0957   25.8887 C   0  0  2  0  0  0  0  0  0  0  0  0
   10.3069  -16.0728   24.9527 N   0  0  0  0  0  0  0  0  0  0  0  0
   11.8589  -17.4894   26.1040 C   0  0  0  0  0  0  0  0  0  0  0  0
   13.1851  -17.7762   26.3688 O   0  0  0  0  0  0  0  0  0  0  0  0
   11.0492  -18.4486   26.0577 O   0  0  0  0  0  0  0  0  0  0  0  0
  2  1  1  0
  2  3  1  0
  3  5  1  0
  3  4  1  6
  5  6  1  1
  7  9  1  0
  7  5  1  0
  8  7  2  0
 10  9  1  0
 11 18  1  0
 11 10  1  0
 12 11  2  0
 14 13  1  0
 15 14  1  0
 17 16  1  1
 16 15  1  0
 17 18  1  0
 19 17  1  0
 20 19  1  0
 21 19  2  0
M  END
$$$$
