IGM.pdb
     RDKit          3D

 21 20  0  0  1  0  0  0  0  0999 V2000
    8.0308  -11.8140   19.3485 C   0  0  0  0  0  0  0  0  0  0  0  0
    8.1116  -13.0897   20.1115 C   0  0  0  0  0  0  0  0  0  0  0  0
    8.0573  -14.3442   19.3176 C   0  0  2  0  0  0  0  0  0  0  0  0
    6.7934  -14.3444   18.4978 C   0  0  0  0  0  0  0  0  0  0  0  0
    8.2280  -15.5954   20.1352 C   0  0  2  0  0  0  0  0  0  0  0  0
    7.1359  -15.6744   21.0746 N   0  0  0  0  0  0  0  0  0  0  0  0
    9.5096  -15.6479   20.8527 C   0  0  0  0  0  0  0  0  0  0  0  0
   10.5557  -16.2023   20.4399 O   0  0  0  0  0  0  0  0  0  0  0  0
    9.5944  -15.0151   22.1429 N   0  0  0  0  0  0  0  0  0  0  0  0
   10.7087  -15.3190   23.0014 C   0  0  0  0  0  0  0  0  0  0  0  0
   10.3866  -15.7707   24.3383 C   0  0  0  0  0  0  0  0  0  0  0  0
   11.4015  -16.1017   25.0665 O   0  0  0  0  0  0  0  0  0  0  0  0
    6.4446  -11.7871   26.3796 C   0  0  0  0  0  0  0  0  0  0  0  0
    7.1260  -12.8382   27.6892 S   0  0  0  0  0  0  0  0  0  0  0  0
    8.3931  -13.9056   26.9501 C   0  0  0  0  0  0  0  0  0  0  0  0
    7.9062  -15.3374   26.9317 C   0  0  0  0  0  0  0  0  0  0  0  0
    8.9298  -16.2608   26.3056 C   0  0  2  0  0  0  0  0  0  0  0  0
    9.0941  -15.8757   24.8936 N   0  0  0  0  0  0  0  0  0  0  0  0
    8.5246  -17.6724   26.3732 C   0  0  0  0  0  0  0  0  0  0  0  0
    8.5372  -18.3315   27.5883 O   0  0  0  0  0  0  0  0  0  0  0  0
    8.1609  -18.3183   25.3592 O   0  0  0  0  0  0  0  0  0  0  0  0
  2  1  1  0
  2  3  1  0
  3  5  1  0
  3  4  1  1
  5  6  1  1
  7  9  1  0
  7  5  1  0
  8  7  2  0
 10  9  1  0
 11 18  1  0
 11 10  1  0
 12 11  2  0
 14 13  1  0
 15 14  1  0
 17 16  1  6
 16 15  1  0
 17 18  1  0
 19 17  1  0
 20 19  1  0
 21 19  2  0
M  END
$$$$
