IGM.pdb
     RDKit          3D

 21 20  0  0  1  0  0  0  0  0999 V2000
    5.5099  -11.5108   26.0667 C   0  0  0  0  0  0  0  0  0  0  0  0
    5.9871  -12.8415   26.5334 C   0  0  0  0  0  0  0  0  0  0  0  0
    7.1113  -13.4483   25.7754 C   0  0  2  0  0  0  0  0  0  0  0  0
    8.0603  -12.3552   25.3581 C   0  0  0  0  0  0  0  0  0  0  0  0
    6.6781  -14.3202   24.6286 C   0  0  2  0  0  0  0  0  0  0  0  0
    5.9113  -15.4202   25.1612 N   0  0  0  0  0  0  0  0  0  0  0  0
    7.8030  -14.8332   23.8340 C   0  0  0  0  0  0  0  0  0  0  0  0
    8.6324  -14.1338   23.2056 O   0  0  0  0  0  0  0  0  0  0  0  0
    7.9879  -16.2588   23.7561 N   0  0  0  0  0  0  0  0  0  0  0  0
    9.1251  -16.7809   23.0453 C   0  0  0  0  0  0  0  0  0  0  0  0
   10.2671  -17.1617   23.8491 C   0  0  0  0  0  0  0  0  0  0  0  0
   11.4133  -17.0535   23.2625 O   0  0  0  0  0  0  0  0  0  0  0  0
   10.7099  -13.2232   28.4060 C   0  0  0  0  0  0  0  0  0  0  0  0
   10.8518  -14.8175   29.2559 S   0  0  0  0  0  0  0  0  0  0  0  0
   11.7302  -15.9632   28.1572 C   0  0  0  0  0  0  0  0  0  0  0  0
   11.0202  -16.0364   26.8238 C   0  0  0  0  0  0  0  0  0  0  0  0
   11.3441  -17.3237   26.0956 C   0  0  2  0  0  0  0  0  0  0  0  0
   10.2309  -17.6272   25.1803 N   0  0  0  0  0  0  0  0  0  0  0  0
   11.5299  -18.4550   27.0158 C   0  0  0  0  0  0  0  0  0  0  0  0
   12.6389  -18.4929   27.8403 O   0  0  0  0  0  0  0  0  0  0  0  0
   10.7122  -19.4058   27.0884 O   0  0  0  0  0  0  0  0  0  0  0  0
  2  1  1  0
  2  3  1  0
  3  5  1  0
  3  4  1  6
  5  6  1  1
  7  9  1  0
  7  5  1  0
  8  7  2  0
 10  9  1  0
 11 18  1  0
 11 10  1  0
 12 11  2  0
 14 13  1  0
 15 14  1  0
 17 16  1  1
 16 15  1  0
 17 18  1  0
 19 17  1  0
 20 19  1  0
 21 19  2  0
M  END
$$$$
