IGM.pdb
     RDKit          3D

 21 20  0  0  1  0  0  0  0  0999 V2000
    7.1208  -12.6795   19.2084 C   0  0  0  0  0  0  0  0  0  0  0  0
    6.9982  -13.8047   20.1755 C   0  0  0  0  0  0  0  0  0  0  0  0
    8.2586  -14.2916   20.7927 C   0  0  2  0  0  0  0  0  0  0  0  0
    9.2182  -14.6753   19.6965 C   0  0  0  0  0  0  0  0  0  0  0  0
    8.0621  -15.3819   21.8104 C   0  0  2  0  0  0  0  0  0  0  0  0
    6.8423  -15.1124   22.5321 N   0  0  0  0  0  0  0  0  0  0  0  0
    9.1838  -15.5039   22.7522 C   0  0  0  0  0  0  0  0  0  0  0  0
    9.4895  -14.6690   23.6361 O   0  0  0  0  0  0  0  0  0  0  0  0
   10.0172  -16.6749   22.6709 N   0  0  0  0  0  0  0  0  0  0  0  0
   11.2469  -16.7139   23.4176 C   0  0  0  0  0  0  0  0  0  0  0  0
   11.2420  -16.0445   24.7010 C   0  0  0  0  0  0  0  0  0  0  0  0
   12.2948  -15.3410   24.9583 O   0  0  0  0  0  0  0  0  0  0  0  0
    6.7754  -12.5326   26.7429 C   0  0  0  0  0  0  0  0  0  0  0  0
    8.0093  -12.0868   27.9931 S   0  0  0  0  0  0  0  0  0  0  0  0
    9.1546  -13.4820   28.1741 C   0  0  0  0  0  0  0  0  0  0  0  0
    9.1640  -14.3022   26.9034 C   0  0  0  0  0  0  0  0  0  0  0  0
   10.3125  -15.2887   26.8913 C   0  0  2  0  0  0  0  0  0  0  0  0
   10.2123  -16.0964   25.6639 N   0  0  0  0  0  0  0  0  0  0  0  0
   10.2926  -16.1841   28.0571 C   0  0  0  0  0  0  0  0  0  0  0  0
    9.9986  -17.5242   27.8871 O   0  0  0  0  0  0  0  0  0  0  0  0
   10.5350  -15.7799   29.2214 O   0  0  0  0  0  0  0  0  0  0  0  0
  2  1  1  0
  2  3  1  0
  3  5  1  0
  3  4  1  6
  5  6  1  1
  7  9  1  0
  7  5  1  0
  8  7  2  0
 10  9  1  0
 11 18  1  0
 11 10  1  0
 12 11  2  0
 14 13  1  0
 15 14  1  0
 17 16  1  1
 16 15  1  0
 17 18  1  0
 19 17  1  0
 20 19  1  0
 21 19  2  0
M  END
$$$$
