IGM.pdb
     RDKit          3D

 21 20  0  0  1  0  0  0  0  0999 V2000
    7.4319  -12.0652   20.6727 C   0  0  0  0  0  0  0  0  0  0  0  0
    7.6789  -13.5261   20.5272 C   0  0  0  0  0  0  0  0  0  0  0  0
    8.3529  -13.9656   19.2785 C   0  0  2  0  0  0  0  0  0  0  0  0
    7.5689  -13.4530   18.0986 C   0  0  0  0  0  0  0  0  0  0  0  0
    8.6161  -15.4452   19.2115 C   0  0  2  0  0  0  0  0  0  0  0  0
    7.3529  -16.1344   19.3153 N   0  0  0  0  0  0  0  0  0  0  0  0
    9.5316  -15.9185   20.2593 C   0  0  0  0  0  0  0  0  0  0  0  0
   10.7437  -15.6151   20.3618 O   0  0  0  0  0  0  0  0  0  0  0  0
    9.0136  -16.8086   21.2653 N   0  0  0  0  0  0  0  0  0  0  0  0
    9.8812  -17.2499   22.3253 C   0  0  0  0  0  0  0  0  0  0  0  0
    9.9155  -16.4251   23.5143 C   0  0  0  0  0  0  0  0  0  0  0  0
   11.0127  -15.7673   23.6959 O   0  0  0  0  0  0  0  0  0  0  0  0
    6.7437  -11.0187   26.3809 C   0  0  0  0  0  0  0  0  0  0  0  0
    6.4354  -12.6384   27.1329 S   0  0  0  0  0  0  0  0  0  0  0  0
    7.9485  -13.6271   26.9769 C   0  0  0  0  0  0  0  0  0  0  0  0
    7.8332  -14.5513   25.7852 C   0  0  0  0  0  0  0  0  0  0  0  0
    9.0682  -15.4139   25.6338 C   0  0  2  0  0  0  0  0  0  0  0  0
    8.8797  -16.2856   24.4618 N   0  0  0  0  0  0  0  0  0  0  0  0
    9.3150  -16.2496   26.8178 C   0  0  0  0  0  0  0  0  0  0  0  0
    9.7595  -15.6648   27.9889 O   0  0  0  0  0  0  0  0  0  0  0  0
    9.1370  -17.4930   26.8138 O   0  0  0  0  0  0  0  0  0  0  0  0
  2  1  1  0
  2  3  1  0
  3  5  1  0
  3  4  1  6
  5  6  1  1
  7  9  1  0
  7  5  1  0
  8  7  2  0
 10  9  1  0
 11 18  1  0
 11 10  1  0
 12 11  2  0
 14 13  1  0
 15 14  1  0
 17 16  1  1
 16 15  1  0
 17 18  1  0
 19 17  1  0
 20 19  1  0
 21 19  2  0
M  END
$$$$
