IGM.pdb
     RDKit          3D

 21 20  0  0  1  0  0  0  0  0999 V2000
    6.8557  -11.5413   26.8639 C   0  0  0  0  0  0  0  0  0  0  0  0
    7.4471  -12.2556   25.6993 C   0  0  0  0  0  0  0  0  0  0  0  0
    6.5296  -13.1199   24.9133 C   0  0  2  0  0  0  0  0  0  0  0  0
    5.1087  -12.7694   25.2707 C   0  0  0  0  0  0  0  0  0  0  0  0
    6.8200  -14.5912   25.0328 C   0  0  2  0  0  0  0  0  0  0  0  0
    6.5016  -15.0074   26.3770 N   0  0  0  0  0  0  0  0  0  0  0  0
    8.2149  -14.9333   24.7206 C   0  0  0  0  0  0  0  0  0  0  0  0
    9.2061  -14.6955   25.4505 O   0  0  0  0  0  0  0  0  0  0  0  0
    8.4904  -15.5990   23.4743 N   0  0  0  0  0  0  0  0  0  0  0  0
    9.8580  -15.8224   23.0858 C   0  0  0  0  0  0  0  0  0  0  0  0
   10.7579  -16.2705   24.1273 C   0  0  0  0  0  0  0  0  0  0  0  0
   11.9995  -16.3593   23.7806 O   0  0  0  0  0  0  0  0  0  0  0  0
   10.5408  -15.2038   30.3160 C   0  0  0  0  0  0  0  0  0  0  0  0
   10.5715  -13.9579   29.0005 S   0  0  0  0  0  0  0  0  0  0  0  0
   11.0281  -14.7868   27.4527 C   0  0  0  0  0  0  0  0  0  0  0  0
   11.2140  -16.2668   27.7024 C   0  0  0  0  0  0  0  0  0  0  0  0
   11.4378  -17.0214   26.4090 C   0  0  2  0  0  0  0  0  0  0  0  0
   10.4000  -16.6077   25.4495 N   0  0  0  0  0  0  0  0  0  0  0  0
   11.3673  -18.4783   26.5925 C   0  0  0  0  0  0  0  0  0  0  0  0
   12.4257  -19.1473   27.1785 O   0  0  0  0  0  0  0  0  0  0  0  0
   10.3714  -19.1551   26.2347 O   0  0  0  0  0  0  0  0  0  0  0  0
  2  1  1  0
  2  3  1  0
  3  5  1  0
  3  4  1  1
  5  6  1  1
  7  9  1  0
  7  5  1  0
  8  7  2  0
 10  9  1  0
 11 18  1  0
 11 10  1  0
 12 11  2  0
 14 13  1  0
 15 14  1  0
 17 16  1  1
 16 15  1  0
 17 18  1  0
 19 17  1  0
 20 19  1  0
 21 19  2  0
M  END
$$$$
