IGM.pdb
     RDKit          3D

 21 20  0  0  1  0  0  0  0  0999 V2000
    7.3246  -13.2187   17.3713 C   0  0  0  0  0  0  0  0  0  0  0  0
    8.3367  -13.8989   18.2252 C   0  0  0  0  0  0  0  0  0  0  0  0
    7.9869  -14.0766   19.6579 C   0  0  2  0  0  0  0  0  0  0  0  0
    7.7902  -12.7189   20.2806 C   0  0  0  0  0  0  0  0  0  0  0  0
    8.9528  -14.9398   20.4227 C   0  0  2  0  0  0  0  0  0  0  0  0
    8.9400  -16.2593   19.8392 N   0  0  0  0  0  0  0  0  0  0  0  0
    8.6434  -15.0244   21.8570 C   0  0  0  0  0  0  0  0  0  0  0  0
    8.7536  -14.0888   22.6843 O   0  0  0  0  0  0  0  0  0  0  0  0
    8.1718  -16.2803   22.3793 N   0  0  0  0  0  0  0  0  0  0  0  0
    7.7993  -16.3675   23.7666 C   0  0  0  0  0  0  0  0  0  0  0  0
    8.8102  -15.9854   24.7296 C   0  0  0  0  0  0  0  0  0  0  0  0
    9.9522  -15.6523   24.2253 O   0  0  0  0  0  0  0  0  0  0  0  0
    6.0492  -12.3058   26.7134 C   0  0  0  0  0  0  0  0  0  0  0  0
    7.6832  -11.8358   27.3406 S   0  0  0  0  0  0  0  0  0  0  0  0
    8.8994  -13.0020   26.6683 C   0  0  0  0  0  0  0  0  0  0  0  0
    9.1254  -14.1274   27.6531 C   0  0  0  0  0  0  0  0  0  0  0  0
    9.7044  -15.3494   26.9721 C   0  0  2  0  0  0  0  0  0  0  0  0
    8.6541  -15.9484   26.1312 N   0  0  0  0  0  0  0  0  0  0  0  0
   10.1783  -16.3541   27.9350 C   0  0  0  0  0  0  0  0  0  0  0  0
   11.3200  -16.1091   28.6750 O   0  0  0  0  0  0  0  0  0  0  0  0
    9.5825  -17.4444   28.1193 O   0  0  0  0  0  0  0  0  0  0  0  0
  2  1  1  0
  2  3  1  0
  3  5  1  0
  3  4  1  1
  5  6  1  6
  7  9  1  0
  7  5  1  0
  8  7  2  0
 10  9  1  0
 11 18  1  0
 11 10  1  0
 12 11  2  0
 14 13  1  0
 15 14  1  0
 17 16  1  1
 16 15  1  0
 17 18  1  0
 19 17  1  0
 20 19  1  0
 21 19  2  0
M  END
$$$$
