KPG.pdb
     RDKit          3D

 21 21  0  0  1  0  0  0  0  0999 V2000
   25.4076  -20.9015  -10.5439 N   0  0  0  0  0  0  0  0  0  0  0  0
   25.5080  -21.1501  -11.9799 C   0  0  1  0  0  0  0  0  0  0  0  0
   24.3855  -22.1461  -12.3075 C   0  0  0  0  0  0  0  0  0  0  0  0
   24.9903  -23.2320  -13.1772 C   0  0  0  0  0  0  0  0  0  0  0  0
   25.0695  -22.8445  -14.6144 C   0  0  0  0  0  0  0  0  0  0  0  0
   25.6618  -24.0084  -15.3808 C   0  0  0  0  0  0  0  0  0  0  0  0
   24.6559  -24.6632  -16.2105 N   0  0  0  0  0  0  0  0  0  0  0  0
   25.3850  -19.8899  -12.7441 C   0  0  0  0  0  0  0  0  0  0  0  0
   24.4437  -19.1086  -12.4055 O   0  0  0  0  0  0  0  0  0  0  0  0
   26.2197  -19.4945  -13.7998 N   0  0  0  0  0  0  0  0  0  0  0  0
   27.3494  -20.2272  -14.3109 C   0  0  0  0  0  0  0  0  0  0  0  0
   28.0955  -19.2545  -15.1839 C   0  0  0  0  0  0  0  0  0  0  0  0
   27.5720  -17.9190  -14.7332 C   0  0  0  0  0  0  0  0  0  0  0  0
   26.0793  -18.2481  -14.5472 C   0  0  1  0  0  0  0  0  0  0  0  0
   25.5163  -18.4560  -15.8882 C   0  0  0  0  0  0  0  0  0  0  0  0
   25.5153  -19.5607  -16.4886 O   0  0  0  0  0  0  0  0  0  0  0  0
   24.9394  -17.3474  -16.5465 N   0  0  0  0  0  0  0  0  0  0  0  0
   23.7692  -16.6871  -16.0024 C   0  0  0  0  0  0  0  0  0  0  0  0
   22.5824  -17.5170  -16.3289 C   0  0  0  0  0  0  0  0  0  0  0  0
   21.4068  -17.0505  -16.2040 O   0  0  0  0  0  0  0  0  0  0  0  0
   22.7000  -18.8052  -16.7732 O   0  0  0  0  0  0  0  0  0  0  0  0
  2  1  1  1
  3  2  1  0
  4  3  1  0
  5  4  1  0
  6  5  1  0
  7  6  1  0
  8  9  2  0
  8  2  1  0
 10  8  1  0
 11 10  1  0
 11 12  1  0
 13 12  1  0
 14 10  1  0
 14 13  1  0
 14 15  1  6
 16 15  2  0
 17 15  1  0
 18 17  1  0
 19 18  1  0
 19 21  1  0
 20 19  2  0
M  END
$$$$
