KPG.pdb
     RDKit          3D

 21 21  0  0  1  0  0  0  0  0999 V2000
   22.0882  -21.2325  -14.2174 N   0  0  0  0  0  0  0  0  0  0  0  0
   21.2055  -20.7976  -13.1378 C   0  0  1  0  0  0  0  0  0  0  0  0
   19.8060  -20.6952  -13.7625 C   0  0  0  0  0  0  0  0  0  0  0  0
   19.8423  -19.5501  -14.7568 C   0  0  0  0  0  0  0  0  0  0  0  0
   20.2103  -18.2497  -14.1278 C   0  0  0  0  0  0  0  0  0  0  0  0
   20.0542  -17.1642  -15.1720 C   0  0  0  0  0  0  0  0  0  0  0  0
   20.4567  -15.8633  -14.6481 N   0  0  0  0  0  0  0  0  0  0  0  0
   21.2495  -21.7468  -12.0045 C   0  0  0  0  0  0  0  0  0  0  0  0
   21.2739  -22.9817  -12.2971 O   0  0  0  0  0  0  0  0  0  0  0  0
   21.2689  -21.3925  -10.6474 N   0  0  0  0  0  0  0  0  0  0  0  0
   21.2305  -20.0538  -10.1175 C   0  0  0  0  0  0  0  0  0  0  0  0
   21.6080  -20.1869   -8.6667 C   0  0  0  0  0  0  0  0  0  0  0  0
   22.2686  -21.5363   -8.6073 C   0  0  0  0  0  0  0  0  0  0  0  0
   21.3488  -22.3432   -9.5421 C   0  0  1  0  0  0  0  0  0  0  0  0
   20.0658  -22.5053   -8.8451 C   0  0  0  0  0  0  0  0  0  0  0  0
   19.1423  -21.6522   -8.8609 O   0  0  0  0  0  0  0  0  0  0  0  0
   19.8534  -23.6929   -8.1104 N   0  0  0  0  0  0  0  0  0  0  0  0
   18.5172  -24.0927   -7.7152 C   0  0  0  0  0  0  0  0  0  0  0  0
   18.3709  -23.8264   -6.2620 C   0  0  0  0  0  0  0  0  0  0  0  0
   19.3630  -23.4415   -5.5671 O   0  0  0  0  0  0  0  0  0  0  0  0
   17.1764  -23.9817   -5.6143 O   0  0  0  0  0  0  0  0  0  0  0  0
  2  1  1  6
  3  2  1  0
  4  3  1  0
  5  4  1  0
  6  5  1  0
  7  6  1  0
  8  9  2  0
  8  2  1  0
 10  8  1  0
 11 10  1  0
 11 12  1  0
 13 12  1  0
 14 10  1  0
 14 13  1  0
 14 15  1  1
 16 15  2  0
 17 15  1  0
 18 17  1  0
 19 18  1  0
 19 21  1  0
 20 19  2  0
M  END
$$$$
