KPG.pdb
     RDKit          3D

 21 21  0  0  1  0  0  0  0  0999 V2000
   20.8883  -20.5269  -12.9949 N   0  0  0  0  0  0  0  0  0  0  0  0
   22.1700  -21.2279  -12.9997 C   0  0  1  0  0  0  0  0  0  0  0  0
   22.1926  -22.0414  -14.3023 C   0  0  0  0  0  0  0  0  0  0  0  0
   21.0755  -21.5109  -15.1809 C   0  0  0  0  0  0  0  0  0  0  0  0
   21.5220  -20.4112  -16.0828 C   0  0  0  0  0  0  0  0  0  0  0  0
   21.7714  -21.0030  -17.4541 C   0  0  0  0  0  0  0  0  0  0  0  0
   22.5579  -20.0987  -18.2863 N   0  0  0  0  0  0  0  0  0  0  0  0
   23.2952  -20.2723  -12.9115 C   0  0  0  0  0  0  0  0  0  0  0  0
   23.0037  -19.0402  -13.0013 O   0  0  0  0  0  0  0  0  0  0  0  0
   24.6433  -20.6176  -12.7357 N   0  0  0  0  0  0  0  0  0  0  0  0
   25.1673  -21.9511  -12.5890 C   0  0  0  0  0  0  0  0  0  0  0  0
   26.5798  -21.7744  -12.1004 C   0  0  0  0  0  0  0  0  0  0  0  0
   26.5878  -20.3638  -11.5796 C   0  0  0  0  0  0  0  0  0  0  0  0
   25.7424  -19.6596  -12.6567 C   0  0  1  0  0  0  0  0  0  0  0  0
   26.5509  -19.6280  -13.8829 C   0  0  0  0  0  0  0  0  0  0  0  0
   26.5183  -20.5166  -14.7717 O   0  0  0  0  0  0  0  0  0  0  0  0
   27.4202  -18.5319  -14.0782 N   0  0  0  0  0  0  0  0  0  0  0  0
   26.9103  -17.2497  -14.5227 C   0  0  0  0  0  0  0  0  0  0  0  0
   26.8574  -17.2677  -16.0062 C   0  0  0  0  0  0  0  0  0  0  0  0
   27.8558  -16.8941  -16.6983 O   0  0  0  0  0  0  0  0  0  0  0  0
   25.7452  -17.6821  -16.6858 O   0  0  0  0  0  0  0  0  0  0  0  0
  2  1  1  6
  3  2  1  0
  4  3  1  0
  5  4  1  0
  6  5  1  0
  7  6  1  0
  8  9  2  0
  8  2  1  0
 10  8  1  0
 11 10  1  0
 11 12  1  0
 13 12  1  0
 14 10  1  0
 14 13  1  0
 14 15  1  6
 16 15  2  0
 17 15  1  0
 18 17  1  0
 19 18  1  0
 19 21  1  0
 20 19  2  0
M  END
$$$$
