KPG.pdb
     RDKit          3D

 21 21  0  0  1  0  0  0  0  0999 V2000
   21.0755  -13.5603  -17.4052 N   0  0  0  0  0  0  0  0  0  0  0  0
   20.4058  -12.2933  -17.6883 C   0  0  1  0  0  0  0  0  0  0  0  0
   19.0314  -12.3902  -17.0093 C   0  0  0  0  0  0  0  0  0  0  0  0
   18.1789  -13.3175  -17.8545 C   0  0  0  0  0  0  0  0  0  0  0  0
   16.8081  -13.5079  -17.3006 C   0  0  0  0  0  0  0  0  0  0  0  0
   16.0425  -14.4092  -18.2462 C   0  0  0  0  0  0  0  0  0  0  0  0
   14.6903  -14.6613  -17.7594 N   0  0  0  0  0  0  0  0  0  0  0  0
   21.2025  -11.1516  -17.1894 C   0  0  0  0  0  0  0  0  0  0  0  0
   21.9824  -11.3843  -16.2155 O   0  0  0  0  0  0  0  0  0  0  0  0
   21.1657   -9.8475  -17.7048 N   0  0  0  0  0  0  0  0  0  0  0  0
   20.3914   -9.4011  -18.8343 C   0  0  0  0  0  0  0  0  0  0  0  0
   20.9420   -8.0453  -19.1861 C   0  0  0  0  0  0  0  0  0  0  0  0
   22.2838   -8.0343  -18.5074 C   0  0  0  0  0  0  0  0  0  0  0  0
   21.9333   -8.7237  -17.1759 C   0  0  1  0  0  0  0  0  0  0  0  0
   21.1016   -7.7834  -16.4127 C   0  0  0  0  0  0  0  0  0  0  0  0
   19.8563   -7.6745  -16.5471 O   0  0  0  0  0  0  0  0  0  0  0  0
   21.7382   -6.9479  -15.4682 N   0  0  0  0  0  0  0  0  0  0  0  0
   21.0520   -6.5365  -14.2593 C   0  0  0  0  0  0  0  0  0  0  0  0
   22.0016   -5.7388  -13.4432 C   0  0  0  0  0  0  0  0  0  0  0  0
   22.2087   -6.0225  -12.2217 O   0  0  0  0  0  0  0  0  0  0  0  0
   22.6873   -4.6759  -13.9633 O   0  0  0  0  0  0  0  0  0  0  0  0
  2  1  1  1
  3  2  1  0
  4  3  1  0
  5  4  1  0
  6  5  1  0
  7  6  1  0
  8  9  2  0
  8  2  1  0
 10  8  1  0
 11 10  1  0
 11 12  1  0
 13 12  1  0
 14 10  1  0
 14 13  1  0
 14 15  1  1
 16 15  2  0
 17 15  1  0
 18 17  1  0
 19 18  1  0
 19 21  1  0
 20 19  2  0
M  END
$$$$
