KPG.pdb
     RDKit          3D

 21 21  0  0  1  0  0  0  0  0999 V2000
   21.2826  -21.1639  -13.8033 N   0  0  0  0  0  0  0  0  0  0  0  0
   22.6475  -21.6845  -13.7917 C   0  0  1  0  0  0  0  0  0  0  0  0
   22.8843  -22.2580  -15.1968 C   0  0  0  0  0  0  0  0  0  0  0  0
   21.9861  -23.4718  -15.3420 C   0  0  0  0  0  0  0  0  0  0  0  0
   22.5930  -24.7110  -14.7780 C   0  0  0  0  0  0  0  0  0  0  0  0
   21.6643  -25.8674  -15.0831 C   0  0  0  0  0  0  0  0  0  0  0  0
   22.1860  -27.1210  -14.5488 N   0  0  0  0  0  0  0  0  0  0  0  0
   23.6155  -20.6213  -13.4457 C   0  0  0  0  0  0  0  0  0  0  0  0
   23.2247  -19.4236  -13.6001 O   0  0  0  0  0  0  0  0  0  0  0  0
   24.9158  -20.8312  -12.9631 N   0  0  0  0  0  0  0  0  0  0  0  0
   25.5275  -22.1073  -12.6948 C   0  0  0  0  0  0  0  0  0  0  0  0
   26.7642  -21.7979  -11.8950 C   0  0  0  0  0  0  0  0  0  0  0  0
   26.5065  -20.4047  -11.3915 C   0  0  0  0  0  0  0  0  0  0  0  0
   25.8621  -19.7683  -12.6369 C   0  0  1  0  0  0  0  0  0  0  0  0
   26.9225  -19.6298  -13.6442 C   0  0  0  0  0  0  0  0  0  0  0  0
   27.5177  -20.5997  -14.1789 O   0  0  0  0  0  0  0  0  0  0  0  0
   27.2990  -18.3267  -14.0387 N   0  0  0  0  0  0  0  0  0  0  0  0
   28.0420  -18.1074  -15.2640 C   0  0  0  0  0  0  0  0  0  0  0  0
   27.1036  -17.5619  -16.2767 C   0  0  0  0  0  0  0  0  0  0  0  0
   26.4259  -18.3373  -17.0215 O   0  0  0  0  0  0  0  0  0  0  0  0
   26.9289  -16.2167  -16.4512 O   0  0  0  0  0  0  0  0  0  0  0  0
  2  1  1  6
  3  2  1  0
  4  3  1  0
  5  4  1  0
  6  5  1  0
  7  6  1  0
  8  9  2  0
  8  2  1  0
 10  8  1  0
 11 10  1  0
 11 12  1  0
 13 12  1  0
 14 10  1  0
 14 13  1  0
 14 15  1  6
 16 15  2  0
 17 15  1  0
 18 17  1  0
 19 18  1  0
 19 21  1  0
 20 19  2  0
M  END
$$$$
