KPG.pdb
     RDKit          3D

 21 21  0  0  1  0  0  0  0  0999 V2000
   22.5017  -20.3363  -12.3274 N   0  0  0  0  0  0  0  0  0  0  0  0
   23.9352  -20.0850  -12.2010 C   0  0  1  0  0  0  0  0  0  0  0  0
   24.4186  -21.0029  -11.0683 C   0  0  0  0  0  0  0  0  0  0  0  0
   24.1346  -20.2879   -9.7608 C   0  0  0  0  0  0  0  0  0  0  0  0
   22.9599  -20.8518   -9.0369 C   0  0  0  0  0  0  0  0  0  0  0  0
   23.4615  -21.4966   -7.7619 C   0  0  0  0  0  0  0  0  0  0  0  0
   22.3606  -22.0459   -6.9774 N   0  0  0  0  0  0  0  0  0  0  0  0
   24.6325  -20.3496  -13.4781 C   0  0  0  0  0  0  0  0  0  0  0  0
   23.9639  -20.9425  -14.3794 O   0  0  0  0  0  0  0  0  0  0  0  0
   25.9590  -19.9977  -13.7683 N   0  0  0  0  0  0  0  0  0  0  0  0
   26.8789  -19.3402  -12.8761 C   0  0  0  0  0  0  0  0  0  0  0  0
   28.0244  -18.8906  -13.7426 C   0  0  0  0  0  0  0  0  0  0  0  0
   27.4429  -18.9348  -15.1286 C   0  0  0  0  0  0  0  0  0  0  0  0
   26.6195  -20.2335  -15.0489 C   0  0  1  0  0  0  0  0  0  0  0  0
   27.5780  -21.3454  -14.9917 C   0  0  0  0  0  0  0  0  0  0  0  0
   28.2074  -21.6808  -13.9563 O   0  0  0  0  0  0  0  0  0  0  0  0
   27.8089  -22.0858  -16.1723 N   0  0  0  0  0  0  0  0  0  0  0  0
   27.2996  -23.4357  -16.3138 C   0  0  0  0  0  0  0  0  0  0  0  0
   27.0293  -23.6741  -17.7540 C   0  0  0  0  0  0  0  0  0  0  0  0
   27.8731  -24.2837  -18.4830 O   0  0  0  0  0  0  0  0  0  0  0  0
   25.8741  -23.2531  -18.3530 O   0  0  0  0  0  0  0  0  0  0  0  0
  2  1  1  6
  3  2  1  0
  4  3  1  0
  5  4  1  0
  6  5  1  0
  7  6  1  0
  8  9  2  0
  8  2  1  0
 10  8  1  0
 11 10  1  0
 11 12  1  0
 13 12  1  0
 14 10  1  0
 14 13  1  0
 14 15  1  1
 16 15  2  0
 17 15  1  0
 18 17  1  0
 19 18  1  0
 19 21  1  0
 20 19  2  0
M  END
$$$$
