KPG.pdb
     RDKit          3D

 21 21  0  0  1  0  0  0  0  0999 V2000
   27.5696  -19.7832  -16.7636 N   0  0  0  0  0  0  0  0  0  0  0  0
   27.5839  -19.6664  -15.3075 C   0  0  1  0  0  0  0  0  0  0  0  0
   27.6215  -18.1594  -15.0129 C   0  0  0  0  0  0  0  0  0  0  0  0
   26.3074  -17.5758  -15.4964 C   0  0  0  0  0  0  0  0  0  0  0  0
   26.2094  -16.1058  -15.2698 C   0  0  0  0  0  0  0  0  0  0  0  0
   24.8036  -15.6702  -15.6263 C   0  0  0  0  0  0  0  0  0  0  0  0
   24.6536  -14.2230  -15.5166 N   0  0  0  0  0  0  0  0  0  0  0  0
   26.4027  -20.3283  -14.7127 C   0  0  0  0  0  0  0  0  0  0  0  0
   25.4851  -20.6828  -15.5148 O   0  0  0  0  0  0  0  0  0  0  0  0
   26.2212  -20.5943  -13.3475 N   0  0  0  0  0  0  0  0  0  0  0  0
   27.0670  -20.1416  -12.2732 C   0  0  0  0  0  0  0  0  0  0  0  0
   26.6562  -20.9504  -11.0724 C   0  0  0  0  0  0  0  0  0  0  0  0
   25.9196  -22.1128  -11.6785 C   0  0  0  0  0  0  0  0  0  0  0  0
   25.1355  -21.3996  -12.7956 C   0  0  1  0  0  0  0  0  0  0  0  0
   24.1050  -20.5825  -12.1409 C   0  0  0  0  0  0  0  0  0  0  0  0
   24.3030  -19.4244  -11.6932 O   0  0  0  0  0  0  0  0  0  0  0  0
   22.8098  -21.1295  -12.0045 N   0  0  0  0  0  0  0  0  0  0  0  0
   21.6590  -20.2715  -11.8020 C   0  0  0  0  0  0  0  0  0  0  0  0
   20.8536  -20.2844  -13.0490 C   0  0  0  0  0  0  0  0  0  0  0  0
   21.1750  -21.0330  -14.0244 O   0  0  0  0  0  0  0  0  0  0  0  0
   19.7434  -19.5004  -13.2018 O   0  0  0  0  0  0  0  0  0  0  0  0
  2  1  1  6
  3  2  1  0
  4  3  1  0
  5  4  1  0
  6  5  1  0
  7  6  1  0
  8  9  2  0
  8  2  1  0
 10  8  1  0
 11 10  1  0
 11 12  1  0
 13 12  1  0
 14 10  1  0
 14 13  1  0
 14 15  1  1
 16 15  2  0
 17 15  1  0
 18 17  1  0
 19 18  1  0
 19 21  1  0
 20 19  2  0
M  END
$$$$
