KPG.pdb
     RDKit          3D

 21 21  0  0  1  0  0  0  0  0999 V2000
   16.2019  -15.8430    5.3045 N   0  0  0  0  0  0  0  0  0  0  0  0
   16.4905  -17.2393    5.6223 C   0  0  1  0  0  0  0  0  0  0  0  0
   15.4186  -17.6634    6.6375 C   0  0  0  0  0  0  0  0  0  0  0  0
   15.7764  -17.0171    7.9625 C   0  0  0  0  0  0  0  0  0  0  0  0
   14.8247  -17.3708    9.0539 C   0  0  0  0  0  0  0  0  0  0  0  0
   15.2820  -16.6733   10.3176 C   0  0  0  0  0  0  0  0  0  0  0  0
   14.3616  -16.9212   11.4223 N   0  0  0  0  0  0  0  0  0  0  0  0
   16.4728  -18.0736    4.4013 C   0  0  0  0  0  0  0  0  0  0  0  0
   15.8566  -17.6004    3.3976 O   0  0  0  0  0  0  0  0  0  0  0  0
   17.0794  -19.3312    4.2670 N   0  0  0  0  0  0  0  0  0  0  0  0
   17.8460  -20.0175    5.2749 C   0  0  0  0  0  0  0  0  0  0  0  0
   18.5465  -21.1364    4.5521 C   0  0  0  0  0  0  0  0  0  0  0  0
   18.4713  -20.7129    3.1113 C   0  0  0  0  0  0  0  0  0  0  0  0
   17.0402  -20.1471    3.0568 C   0  0  1  0  0  0  0  0  0  0  0  0
   16.1235  -21.2887    3.1768 C   0  0  0  0  0  0  0  0  0  0  0  0
   15.8049  -21.8251    4.2684 O   0  0  0  0  0  0  0  0  0  0  0  0
   15.5633  -21.8191    1.9935 N   0  0  0  0  0  0  0  0  0  0  0  0
   15.1824  -20.9497    0.8977 C   0  0  0  0  0  0  0  0  0  0  0  0
   13.7085  -21.0315    0.7399 C   0  0  0  0  0  0  0  0  0  0  0  0
   12.9527  -20.1175    1.1967 O   0  0  0  0  0  0  0  0  0  0  0  0
   13.1058  -22.0814    0.1036 O   0  0  0  0  0  0  0  0  0  0  0  0
  2  1  1  6
  3  2  1  0
  4  3  1  0
  5  4  1  0
  6  5  1  0
  7  6  1  0
  8  9  2  0
  8  2  1  0
 10  8  1  0
 11 10  1  0
 11 12  1  0
 13 12  1  0
 14 10  1  0
 14 13  1  0
 14 15  1  1
 16 15  2  0
 17 15  1  0
 18 17  1  0
 19 18  1  0
 19 21  1  0
 20 19  2  0
M  END
$$$$
