KPG.pdb
     RDKit          3D

 21 21  0  0  1  0  0  0  0  0999 V2000
   26.8828  -20.3704  -17.5779 N   0  0  0  0  0  0  0  0  0  0  0  0
   27.3726  -19.8277  -16.3132 C   0  0  1  0  0  0  0  0  0  0  0  0
   26.9578  -18.3488  -16.3084 C   0  0  0  0  0  0  0  0  0  0  0  0
   25.5574  -18.2748  -16.8869 C   0  0  0  0  0  0  0  0  0  0  0  0
   24.5017  -18.6144  -15.8909 C   0  0  0  0  0  0  0  0  0  0  0  0
   23.1536  -18.3913  -16.5435 C   0  0  0  0  0  0  0  0  0  0  0  0
   22.0953  -18.2724  -15.5462 N   0  0  0  0  0  0  0  0  0  0  0  0
   26.8131  -20.5745  -15.1658 C   0  0  0  0  0  0  0  0  0  0  0  0
   25.8661  -21.3808  -15.4189 O   0  0  0  0  0  0  0  0  0  0  0  0
   27.2446  -20.4643  -13.8357 N   0  0  0  0  0  0  0  0  0  0  0  0
   28.2652  -19.5751  -13.3437 C   0  0  0  0  0  0  0  0  0  0  0  0
   28.5881  -20.0644  -11.9576 C   0  0  0  0  0  0  0  0  0  0  0  0
   28.0433  -21.4660  -11.9540 C   0  0  0  0  0  0  0  0  0  0  0  0
   26.7272  -21.2601  -12.7262 C   0  0  1  0  0  0  0  0  0  0  0  0
   25.8327  -20.4910  -11.8507 C   0  0  0  0  0  0  0  0  0  0  0  0
   25.8891  -19.2433  -11.7065 O   0  0  0  0  0  0  0  0  0  0  0  0
   24.8466  -21.1946  -11.1240 N   0  0  0  0  0  0  0  0  0  0  0  0
   23.7126  -20.5001  -10.5469 C   0  0  0  0  0  0  0  0  0  0  0  0
   22.5192  -20.8053  -11.3755 C   0  0  0  0  0  0  0  0  0  0  0  0
   22.4978  -20.5257  -12.6151 O   0  0  0  0  0  0  0  0  0  0  0  0
   21.4030  -21.3937  -10.8479 O   0  0  0  0  0  0  0  0  0  0  0  0
  2  1  1  6
  3  2  1  0
  4  3  1  0
  5  4  1  0
  6  5  1  0
  7  6  1  0
  8  9  2  0
  8  2  1  0
 10  8  1  0
 11 10  1  0
 11 12  1  0
 13 12  1  0
 14 10  1  0
 14 13  1  0
 14 15  1  1
 16 15  2  0
 17 15  1  0
 18 17  1  0
 19 18  1  0
 19 21  1  0
 20 19  2  0
M  END
$$$$
