KPG.pdb
     RDKit          3D

 21 21  0  0  1  0  0  0  0  0999 V2000
   15.9285  -28.0424   -6.1353 N   0  0  0  0  0  0  0  0  0  0  0  0
   16.3754  -26.8415   -5.4339 C   0  0  1  0  0  0  0  0  0  0  0  0
   16.2098  -25.6899   -6.4368 C   0  0  0  0  0  0  0  0  0  0  0  0
   17.4979  -25.6011   -7.2331 C   0  0  0  0  0  0  0  0  0  0  0  0
   17.2792  -25.1549   -8.6385 C   0  0  0  0  0  0  0  0  0  0  0  0
   18.6084  -25.2167   -9.3612 C   0  0  0  0  0  0  0  0  0  0  0  0
   18.4626  -24.8643  -10.7695 N   0  0  0  0  0  0  0  0  0  0  0  0
   15.5925  -26.6297   -4.1972 C   0  0  0  0  0  0  0  0  0  0  0  0
   14.3399  -26.8185   -4.2774 O   0  0  0  0  0  0  0  0  0  0  0  0
   16.1209  -26.2438   -2.9564 N   0  0  0  0  0  0  0  0  0  0  0  0
   17.5121  -26.0220   -2.6566 C   0  0  0  0  0  0  0  0  0  0  0  0
   17.5930  -25.9619   -1.1550 C   0  0  0  0  0  0  0  0  0  0  0  0
   16.3072  -26.6067   -0.7169 C   0  0  0  0  0  0  0  0  0  0  0  0
   15.3291  -26.0186   -1.7506 C   0  0  1  0  0  0  0  0  0  0  0  0
   15.1784  -24.5919   -1.4342 C   0  0  0  0  0  0  0  0  0  0  0  0
   15.8795  -23.6797   -1.9413 O   0  0  0  0  0  0  0  0  0  0  0  0
   14.1845  -24.2186   -0.5024 N   0  0  0  0  0  0  0  0  0  0  0  0
   12.7951  -24.1113   -0.9018 C   0  0  0  0  0  0  0  0  0  0  0  0
   12.6454  -22.8746   -1.7094 C   0  0  0  0  0  0  0  0  0  0  0  0
   11.8778  -21.9362   -1.3278 O   0  0  0  0  0  0  0  0  0  0  0  0
   13.3187  -22.6924   -2.8858 O   0  0  0  0  0  0  0  0  0  0  0  0
  2  1  1  6
  3  2  1  0
  4  3  1  0
  5  4  1  0
  6  5  1  0
  7  6  1  0
  8  9  2  0
  8  2  1  0
 10  8  1  0
 11 10  1  0
 11 12  1  0
 13 12  1  0
 14 10  1  0
 14 13  1  0
 14 15  1  1
 16 15  2  0
 17 15  1  0
 18 17  1  0
 19 18  1  0
 19 21  1  0
 20 19  2  0
M  END
$$$$
