CLP.pdb
     RDKit          3D

 22 22  0  0  1  0  0  0  0  0999 V2000
   19.0111  -12.1418  -19.7361 N   0  0  0  0  0  0  0  0  0  0  0  0
   19.6556  -10.8461  -19.7360 C   0  0  1  0  0  0  0  0  0  0  0  0
   18.7212   -9.8472  -20.3913 C   0  0  0  0  0  0  0  0  0  0  0  0
   18.6044  -10.1431  -22.1750 S   0  0  0  0  0  0  0  0  0  0  0  0
   19.8551  -10.4216  -18.3349 C   0  0  0  0  0  0  0  0  0  0  0  0
   18.9212  -10.5248  -17.4999 O   0  0  0  0  0  0  0  0  0  0  0  0
   22.5266  -10.3112  -13.7888 C   0  0  0  0  0  0  0  0  0  0  0  0
   23.3290   -9.7755  -14.9561 C   0  0  1  0  0  0  0  0  0  0  0  0
   24.7043  -10.4305  -14.8163 C   0  0  0  0  0  0  0  0  0  0  0  0
   22.6989  -10.1007  -16.2484 C   0  0  0  0  0  0  0  0  0  0  0  0
   21.3595   -9.4456  -16.5412 C   0  0  2  0  0  0  0  0  0  0  0  0
   21.0985   -9.8999  -17.9385 N   0  0  0  0  0  0  0  0  0  0  0  0
   21.5248   -7.9873  -16.6244 C   0  0  0  0  0  0  0  0  0  0  0  0
   22.1286   -7.5324  -17.6610 O   0  0  0  0  0  0  0  0  0  0  0  0
   21.0839   -7.0240  -15.6845 N   0  0  0  0  0  0  0  0  0  0  0  0
   20.2982   -7.1152  -14.4864 C   0  0  0  0  0  0  0  0  0  0  0  0
   19.4964   -5.8132  -14.4148 C   0  0  0  0  0  0  0  0  0  0  0  0
   19.9907   -5.0239  -15.5882 C   0  0  0  0  0  0  0  0  0  0  0  0
   21.3824   -5.5787  -15.7854 C   0  0  1  0  0  0  0  0  0  0  0  0
   22.3005   -5.1541  -14.7283 C   0  0  0  0  0  0  0  0  0  0  0  0
   22.6877   -5.8435  -13.7615 O   0  0  0  0  0  0  0  0  0  0  0  0
   22.8097   -3.8479  -14.7842 O   0  0  0  0  0  0  0  0  0  0  0  0
  2  1  1  1
  2  5  1  0
  2  3  1  0
  4  3  1  0
  5  6  2  0
  8  7  1  1
  8 10  1  0
  9  8  1  0
 11 10  1  6
 12 11  1  0
 12  5  1  0
 13 14  2  0
 13 11  1  0
 15 13  1  0
 16 17  1  0
 16 15  1  0
 18 19  1  0
 18 17  1  0
 19 15  1  0
 19 20  1  1
 20 22  1  0
 21 20  2  0
M  END
$$$$
