CLP.pdb
     RDKit          3D

 22 22  0  0  1  0  0  0  0  0999 V2000
   29.5760  -21.0740  -13.7056 N   0  0  0  0  0  0  0  0  0  0  0  0
   28.5249  -20.0795  -13.6892 C   0  0  1  0  0  0  0  0  0  0  0  0
   28.4779  -19.4110  -15.0499 C   0  0  0  0  0  0  0  0  0  0  0  0
   29.8604  -18.2577  -15.2529 S   0  0  0  0  0  0  0  0  0  0  0  0
   27.2330  -20.7658  -13.4817 C   0  0  0  0  0  0  0  0  0  0  0  0
   27.0405  -21.9152  -13.9528 O   0  0  0  0  0  0  0  0  0  0  0  0
   24.3258  -19.9870   -8.8076 C   0  0  0  0  0  0  0  0  0  0  0  0
   24.8446  -20.7228  -10.0253 C   0  0  1  0  0  0  0  0  0  0  0  0
   24.2910  -22.1422   -9.8874 C   0  0  0  0  0  0  0  0  0  0  0  0
   24.4039  -20.0851  -11.2790 C   0  0  0  0  0  0  0  0  0  0  0  0
   24.8646  -20.7316  -12.5748 C   0  0  2  0  0  0  0  0  0  0  0  0
   26.2165  -20.1252  -12.7525 N   0  0  0  0  0  0  0  0  0  0  0  0
   24.0569  -20.2318  -13.6966 C   0  0  0  0  0  0  0  0  0  0  0  0
   24.3480  -19.0649  -14.1435 O   0  0  0  0  0  0  0  0  0  0  0  0
   22.9911  -20.9019  -14.3453 N   0  0  0  0  0  0  0  0  0  0  0  0
   22.3555  -22.1703  -14.1255 C   0  0  0  0  0  0  0  0  0  0  0  0
   21.9447  -22.6753  -15.5108 C   0  0  0  0  0  0  0  0  0  0  0  0
   22.3222  -21.5519  -16.4274 C   0  0  0  0  0  0  0  0  0  0  0  0
   22.2607  -20.3534  -15.5089 C   0  0  1  0  0  0  0  0  0  0  0  0
   20.8861  -20.0021  -15.1517 C   0  0  0  0  0  0  0  0  0  0  0  0
   20.3548  -20.1347  -14.0292 O   0  0  0  0  0  0  0  0  0  0  0  0
   20.0639  -19.4611  -16.1517 O   0  0  0  0  0  0  0  0  0  0  0  0
  2  1  1  6
  2  5  1  0
  2  3  1  0
  4  3  1  0
  5  6  2  0
  8  7  1  1
  8 10  1  0
  9  8  1  0
 11 10  1  1
 12 11  1  0
 12  5  1  0
 13 14  2  0
 13 11  1  0
 15 13  1  0
 16 17  1  0
 16 15  1  0
 18 19  1  0
 18 17  1  0
 19 15  1  0
 19 20  1  1
 20 22  1  0
 21 20  2  0
M  END
$$$$
