CLP.pdb
     RDKit          3D

 22 22  0  0  1  0  0  0  0  0999 V2000
   15.1850  -21.1327    0.9894 N   0  0  0  0  0  0  0  0  0  0  0  0
   14.9811  -20.4235    2.2344 C   0  0  1  0  0  0  0  0  0  0  0  0
   14.4132  -21.3955    3.2509 C   0  0  0  0  0  0  0  0  0  0  0  0
   12.7240  -21.8803    2.8101 S   0  0  0  0  0  0  0  0  0  0  0  0
   16.2944  -19.9674    2.7348 C   0  0  0  0  0  0  0  0  0  0  0  0
   17.3082  -20.7018    2.6218 O   0  0  0  0  0  0  0  0  0  0  0  0
   17.5009  -14.4846    2.6948 C   0  0  0  0  0  0  0  0  0  0  0  0
   17.7520  -15.9733    2.5753 C   0  0  1  0  0  0  0  0  0  0  0  0
   19.2273  -16.0892    2.1879 C   0  0  0  0  0  0  0  0  0  0  0  0
   17.4621  -16.6801    3.8359 C   0  0  0  0  0  0  0  0  0  0  0  0
   17.7056  -18.1800    3.8514 C   0  0  2  0  0  0  0  0  0  0  0  0
   16.4051  -18.7037    3.3401 N   0  0  0  0  0  0  0  0  0  0  0  0
   17.8046  -18.6552    5.2389 C   0  0  0  0  0  0  0  0  0  0  0  0
   16.7059  -18.9716    5.8211 O   0  0  0  0  0  0  0  0  0  0  0  0
   18.9853  -18.8082    6.0058 N   0  0  0  0  0  0  0  0  0  0  0  0
   20.3742  -18.5884    5.7167 C   0  0  0  0  0  0  0  0  0  0  0  0
   21.1379  -19.6491    6.5134 C   0  0  0  0  0  0  0  0  0  0  0  0
   20.0673  -20.3521    7.2907 C   0  0  0  0  0  0  0  0  0  0  0  0
   19.0016  -19.2868    7.4055 C   0  0  1  0  0  0  0  0  0  0  0  0
   19.3882  -18.2164    8.3249 C   0  0  0  0  0  0  0  0  0  0  0  0
   19.4099  -18.2821    9.5720 O   0  0  0  0  0  0  0  0  0  0  0  0
   19.7768  -16.9853    7.7756 O   0  0  0  0  0  0  0  0  0  0  0  0
  2  1  1  6
  2  5  1  0
  2  3  1  0
  4  3  1  0
  5  6  2  0
  8  7  1  1
  8 10  1  0
  9  8  1  0
 11 10  1  1
 12 11  1  0
 12  5  1  0
 13 14  2  0
 13 11  1  0
 15 13  1  0
 16 17  1  0
 16 15  1  0
 18 19  1  0
 18 17  1  0
 19 15  1  0
 19 20  1  1
 20 22  1  0
 21 20  2  0
M  END
$$$$
