CLP.pdb
     RDKit          3D

 22 22  0  0  1  0  0  0  0  0999 V2000
   27.3454  -22.4507  -17.8182 N   0  0  0  0  0  0  0  0  0  0  0  0
   28.5538  -22.2808  -17.0402 C   0  0  1  0  0  0  0  0  0  0  0  0
   29.5761  -21.5580  -17.8965 C   0  0  0  0  0  0  0  0  0  0  0  0
   30.0074  -22.5393  -19.3571 S   0  0  0  0  0  0  0  0  0  0  0  0
   28.2479  -21.4168  -15.8814 C   0  0  0  0  0  0  0  0  0  0  0  0
   29.1406  -21.1404  -15.0408 O   0  0  0  0  0  0  0  0  0  0  0  0
   25.9569  -16.7310  -16.4839 C   0  0  0  0  0  0  0  0  0  0  0  0
   26.7571  -17.8471  -15.8457 C   0  0  1  0  0  0  0  0  0  0  0  0
   27.6139  -17.1541  -14.7846 C   0  0  0  0  0  0  0  0  0  0  0  0
   25.8844  -18.8773  -15.2542 C   0  0  0  0  0  0  0  0  0  0  0  0
   26.5722  -20.0428  -14.5632 C   0  0  2  0  0  0  0  0  0  0  0  0
   26.9492  -20.9033  -15.7227 N   0  0  0  0  0  0  0  0  0  0  0  0
   25.5875  -20.8208  -13.7977 C   0  0  0  0  0  0  0  0  0  0  0  0
   25.0338  -21.8073  -14.4029 O   0  0  0  0  0  0  0  0  0  0  0  0
   25.1846  -20.6036  -12.4575 N   0  0  0  0  0  0  0  0  0  0  0  0
   25.5342  -19.6120  -11.4800 C   0  0  0  0  0  0  0  0  0  0  0  0
   25.4901  -20.3275  -10.1275 C   0  0  0  0  0  0  0  0  0  0  0  0
   25.0087  -21.7049  -10.4672 C   0  0  0  0  0  0  0  0  0  0  0  0
   24.2238  -21.4670  -11.7366 C   0  0  1  0  0  0  0  0  0  0  0  0
   22.9669  -20.7620  -11.4841 C   0  0  0  0  0  0  0  0  0  0  0  0
   21.9675  -21.2180  -10.8899 O   0  0  0  0  0  0  0  0  0  0  0  0
   22.8484  -19.4422  -11.9454 O   0  0  0  0  0  0  0  0  0  0  0  0
  2  1  1  6
  2  5  1  0
  2  3  1  0
  4  3  1  0
  5  6  2  0
  8  7  1  1
  8 10  1  0
  9  8  1  0
 11 10  1  6
 12 11  1  0
 12  5  1  0
 13 14  2  0
 13 11  1  0
 15 13  1  0
 16 17  1  0
 16 15  1  0
 18 19  1  0
 18 17  1  0
 19 15  1  0
 19 20  1  1
 20 22  1  0
 21 20  2  0
M  END
$$$$
