CLP.pdb
     RDKit          3D

 22 22  0  0  1  0  0  0  0  0999 V2000
   28.2900  -18.7229  -16.1521 N   0  0  0  0  0  0  0  0  0  0  0  0
   27.2115  -18.2236  -15.3263 C   0  0  1  0  0  0  0  0  0  0  0  0
   26.3763  -17.2680  -16.1568 C   0  0  0  0  0  0  0  0  0  0  0  0
   27.1389  -15.6256  -16.2166 S   0  0  0  0  0  0  0  0  0  0  0  0
   26.3474  -19.3601  -14.9458 C   0  0  0  0  0  0  0  0  0  0  0  0
   26.2427  -20.3600  -15.7003 O   0  0  0  0  0  0  0  0  0  0  0  0
   25.7996  -20.4073   -9.5275 C   0  0  0  0  0  0  0  0  0  0  0  0
   25.9760  -20.6025  -11.0189 C   0  0  1  0  0  0  0  0  0  0  0  0
   26.3047  -22.0877  -11.1809 C   0  0  0  0  0  0  0  0  0  0  0  0
   24.7626  -20.2278  -11.7672 C   0  0  0  0  0  0  0  0  0  0  0  0
   24.7882  -20.4525  -13.2698 C   0  0  2  0  0  0  0  0  0  0  0  0
   25.6405  -19.3179  -13.7317 N   0  0  0  0  0  0  0  0  0  0  0  0
   23.4548  -20.2003  -13.8349 C   0  0  0  0  0  0  0  0  0  0  0  0
   23.1377  -18.9746  -14.0429 O   0  0  0  0  0  0  0  0  0  0  0  0
   22.4789  -21.1662  -14.1819 N   0  0  0  0  0  0  0  0  0  0  0  0
   22.4220  -22.5935  -14.0388 C   0  0  0  0  0  0  0  0  0  0  0  0
   21.6410  -23.1024  -15.2530 C   0  0  0  0  0  0  0  0  0  0  0  0
   21.2278  -21.8496  -15.9631 C   0  0  0  0  0  0  0  0  0  0  0  0
   21.1948  -20.8395  -14.8396 C   0  0  1  0  0  0  0  0  0  0  0  0
   20.0670  -21.0585  -13.9338 C   0  0  0  0  0  0  0  0  0  0  0  0
   20.1289  -21.4907  -12.7637 O   0  0  0  0  0  0  0  0  0  0  0  0
   18.7786  -20.7609  -14.4030 O   0  0  0  0  0  0  0  0  0  0  0  0
  2  1  1  6
  2  5  1  0
  2  3  1  0
  4  3  1  0
  5  6  2  0
  8  7  1  1
  8 10  1  0
  9  8  1  0
 11 10  1  1
 12 11  1  0
 12  5  1  0
 13 14  2  0
 13 11  1  0
 15 13  1  0
 16 17  1  0
 16 15  1  0
 18 19  1  0
 18 17  1  0
 19 15  1  0
 19 20  1  1
 20 22  1  0
 21 20  2  0
M  END
$$$$
