CLP.pdb
     RDKit          3D

 22 22  0  0  1  0  0  0  0  0999 V2000
   28.6235  -22.7691  -16.4568 N   0  0  0  0  0  0  0  0  0  0  0  0
   27.8982  -21.5474  -16.1818 C   0  0  1  0  0  0  0  0  0  0  0  0
   27.3599  -21.0057  -17.4922 C   0  0  0  0  0  0  0  0  0  0  0  0
   28.6863  -20.2686  -18.4821 S   0  0  0  0  0  0  0  0  0  0  0  0
   26.7416  -21.8721  -15.3216 C   0  0  0  0  0  0  0  0  0  0  0  0
   26.1528  -22.9765  -15.4377 O   0  0  0  0  0  0  0  0  0  0  0  0
   26.0379  -19.9446   -9.9236 C   0  0  0  0  0  0  0  0  0  0  0  0
   25.9209  -20.9329  -11.0650 C   0  0  1  0  0  0  0  0  0  0  0  0
   24.9453  -21.9974  -10.5597 C   0  0  0  0  0  0  0  0  0  0  0  0
   25.4347  -20.2892  -12.2987 C   0  0  0  0  0  0  0  0  0  0  0  0
   25.1361  -21.2028  -13.4757 C   0  0  2  0  0  0  0  0  0  0  0  0
   26.3013  -20.9368  -14.3693 N   0  0  0  0  0  0  0  0  0  0  0  0
   23.9587  -20.7092  -14.2044 C   0  0  0  0  0  0  0  0  0  0  0  0
   24.1402  -19.7070  -14.9846 O   0  0  0  0  0  0  0  0  0  0  0  0
   22.6408  -21.2241  -14.1441 N   0  0  0  0  0  0  0  0  0  0  0  0
   22.0455  -22.3036  -13.4084 C   0  0  0  0  0  0  0  0  0  0  0  0
   20.9571  -22.8772  -14.3191 C   0  0  0  0  0  0  0  0  0  0  0  0
   20.9733  -21.9698  -15.5111 C   0  0  0  0  0  0  0  0  0  0  0  0
   21.5089  -20.6827  -14.9278 C   0  0  1  0  0  0  0  0  0  0  0  0
   20.5336  -20.0225  -14.0597 C   0  0  0  0  0  0  0  0  0  0  0  0
   20.5909  -19.9310  -12.8154 O   0  0  0  0  0  0  0  0  0  0  0  0
   19.4149  -19.4260  -14.6608 O   0  0  0  0  0  0  0  0  0  0  0  0
  2  1  1  6
  2  5  1  0
  2  3  1  0
  4  3  1  0
  5  6  2  0
  8  7  1  1
  8 10  1  0
  9  8  1  0
 11 10  1  1
 12 11  1  0
 12  5  1  0
 13 14  2  0
 13 11  1  0
 15 13  1  0
 16 17  1  0
 16 15  1  0
 18 19  1  0
 18 17  1  0
 19 15  1  0
 19 20  1  1
 20 22  1  0
 21 20  2  0
M  END
$$$$
