CLP.pdb
     RDKit          3D

 22 22  0  0  1  0  0  0  0  0999 V2000
   28.5550  -17.5377  -16.7258 N   0  0  0  0  0  0  0  0  0  0  0  0
   27.3439  -17.3652  -15.9526 C   0  0  1  0  0  0  0  0  0  0  0  0
   26.2478  -16.8811  -16.8824 C   0  0  0  0  0  0  0  0  0  0  0  0
   24.6782  -16.7020  -15.9954 S   0  0  0  0  0  0  0  0  0  0  0  0
   26.9339  -18.6824  -15.4232 C   0  0  0  0  0  0  0  0  0  0  0  0
   27.0513  -19.7160  -16.1288 O   0  0  0  0  0  0  0  0  0  0  0  0
   26.6431  -21.9363  -10.9086 C   0  0  0  0  0  0  0  0  0  0  0  0
   25.6227  -20.8383  -11.1240 C   0  0  1  0  0  0  0  0  0  0  0  0
   25.3546  -20.2766   -9.7265 C   0  0  0  0  0  0  0  0  0  0  0  0
   26.1222  -19.7994  -12.0426 C   0  0  0  0  0  0  0  0  0  0  0  0
   25.9800  -20.0751  -13.5302 C   0  0  2  0  0  0  0  0  0  0  0  0
   26.4101  -18.7745  -14.1222 N   0  0  0  0  0  0  0  0  0  0  0  0
   24.5587  -20.2164  -13.8779 C   0  0  0  0  0  0  0  0  0  0  0  0
   23.8912  -19.1318  -14.0335 O   0  0  0  0  0  0  0  0  0  0  0  0
   23.8428  -21.4238  -14.0663 N   0  0  0  0  0  0  0  0  0  0  0  0
   24.1779  -22.8030  -13.8506 C   0  0  0  0  0  0  0  0  0  0  0  0
   23.4446  -23.5849  -14.9433 C   0  0  0  0  0  0  0  0  0  0  0  0
   22.6492  -22.5372  -15.6603 C   0  0  0  0  0  0  0  0  0  0  0  0
   22.4605  -21.4881  -14.5891 C   0  0  1  0  0  0  0  0  0  0  0  0
   21.5235  -21.9208  -13.5521 C   0  0  0  0  0  0  0  0  0  0  0  0
   20.2868  -22.0451  -13.6752 O   0  0  0  0  0  0  0  0  0  0  0  0
   22.0412  -22.2326  -12.2858 O   0  0  0  0  0  0  0  0  0  0  0  0
  2  1  1  6
  2  5  1  0
  2  3  1  0
  4  3  1  0
  5  6  2  0
  8  7  1  1
  8 10  1  0
  9  8  1  0
 11 10  1  1
 12 11  1  0
 12  5  1  0
 13 14  2  0
 13 11  1  0
 15 13  1  0
 16 17  1  0
 16 15  1  0
 18 19  1  0
 18 17  1  0
 19 15  1  0
 19 20  1  1
 20 22  1  0
 21 20  2  0
M  END
$$$$
