CLP.pdb
     RDKit          3D

 22 22  0  0  1  0  0  0  0  0999 V2000
   29.1023  -34.4076   -5.7331 N   0  0  0  0  0  0  0  0  0  0  0  0
   29.2014  -34.2579   -4.2971 C   0  0  1  0  0  0  0  0  0  0  0  0
   28.1800  -35.1732   -3.6494 C   0  0  0  0  0  0  0  0  0  0  0  0
   28.1958  -34.9886   -1.8471 S   0  0  0  0  0  0  0  0  0  0  0  0
   30.5421  -34.7084   -3.8700 C   0  0  0  0  0  0  0  0  0  0  0  0
   31.0840  -35.7014   -4.4180 O   0  0  0  0  0  0  0  0  0  0  0  0
   35.5819  -33.3628   -2.4538 C   0  0  0  0  0  0  0  0  0  0  0  0
   34.5218  -33.0853   -1.4086 C   0  0  1  0  0  0  0  0  0  0  0  0
   34.9012  -31.7246   -0.8214 C   0  0  0  0  0  0  0  0  0  0  0  0
   33.1685  -33.0689   -1.9926 C   0  0  0  0  0  0  0  0  0  0  0  0
   32.5746  -34.4124   -2.3819 C   0  0  2  0  0  0  0  0  0  0  0  0
   31.2114  -34.0189   -2.8443 N   0  0  0  0  0  0  0  0  0  0  0  0
   32.3627  -35.2315   -1.1798 C   0  0  0  0  0  0  0  0  0  0  0  0
   31.2669  -35.0449   -0.5392 O   0  0  0  0  0  0  0  0  0  0  0  0
   33.2367  -36.2126   -0.6514 N   0  0  0  0  0  0  0  0  0  0  0  0
   34.5430  -36.6674   -1.0359 C   0  0  0  0  0  0  0  0  0  0  0  0
   34.5798  -38.1600   -0.6984 C   0  0  0  0  0  0  0  0  0  0  0  0
   33.2585  -38.4100   -0.0380 C   0  0  0  0  0  0  0  0  0  0  0  0
   32.9189  -37.0498    0.5261 C   0  0  1  0  0  0  0  0  0  0  0  0
   33.7646  -36.6988    1.6672 C   0  0  0  0  0  0  0  0  0  0  0  0
   33.6726  -37.1548    2.8263 O   0  0  0  0  0  0  0  0  0  0  0  0
   34.7870  -35.7595    1.4644 O   0  0  0  0  0  0  0  0  0  0  0  0
  2  1  1  6
  2  5  1  0
  2  3  1  0
  4  3  1  0
  5  6  2  0
  8  7  1  6
  8 10  1  0
  9  8  1  0
 11 10  1  1
 12 11  1  0
 12  5  1  0
 13 14  2  0
 13 11  1  0
 15 13  1  0
 16 17  1  0
 16 15  1  0
 18 19  1  0
 18 17  1  0
 19 15  1  0
 19 20  1  1
 20 22  1  0
 21 20  2  0
M  END
$$$$
