CLP.pdb
     RDKit          3D

 22 22  0  0  1  0  0  0  0  0999 V2000
   13.8333  -20.1054    2.2195 N   0  0  0  0  0  0  0  0  0  0  0  0
   14.9145  -21.0422    2.0009 C   0  0  1  0  0  0  0  0  0  0  0  0
   14.9430  -21.4044    0.5283 C   0  0  0  0  0  0  0  0  0  0  0  0
   13.4367  -22.2902    0.0499 S   0  0  0  0  0  0  0  0  0  0  0  0
   16.1901  -20.3694    2.3222 C   0  0  0  0  0  0  0  0  0  0  0  0
   17.2772  -20.9952    2.2416 O   0  0  0  0  0  0  0  0  0  0  0  0
   19.2141  -15.7007    2.6603 C   0  0  0  0  0  0  0  0  0  0  0  0
   17.9753  -15.8594    3.5168 C   0  0  1  0  0  0  0  0  0  0  0  0
   17.3416  -14.4674    3.5461 C   0  0  0  0  0  0  0  0  0  0  0  0
   17.0527  -16.8670    2.9634 C   0  0  0  0  0  0  0  0  0  0  0  0
   17.4161  -18.3252    3.1890 C   0  0  2  0  0  0  0  0  0  0  0  0
   16.1823  -19.0213    2.7199 N   0  0  0  0  0  0  0  0  0  0  0  0
   17.5014  -18.6010    4.6303 C   0  0  0  0  0  0  0  0  0  0  0  0
   16.3969  -18.8323    5.2408 O   0  0  0  0  0  0  0  0  0  0  0  0
   18.6747  -18.6451    5.4222 N   0  0  0  0  0  0  0  0  0  0  0  0
   20.0669  -18.4711    5.1177 C   0  0  0  0  0  0  0  0  0  0  0  0
   20.8201  -19.4087    6.0646 C   0  0  0  0  0  0  0  0  0  0  0  0
   19.7404  -19.9918    6.9241 C   0  0  0  0  0  0  0  0  0  0  0  0
   18.6769  -18.9192    6.8759 C   0  0  1  0  0  0  0  0  0  0  0  0
   19.0585  -17.7293    7.6369 C   0  0  0  0  0  0  0  0  0  0  0  0
   19.5048  -16.6611    7.1684 O   0  0  0  0  0  0  0  0  0  0  0  0
   18.9182  -17.7677    9.0325 O   0  0  0  0  0  0  0  0  0  0  0  0
  2  1  1  6
  2  5  1  0
  2  3  1  0
  4  3  1  0
  5  6  2  0
  8  7  1  6
  8 10  1  0
  9  8  1  0
 11 10  1  1
 12 11  1  0
 12  5  1  0
 13 14  2  0
 13 11  1  0
 15 13  1  0
 16 17  1  0
 16 15  1  0
 18 19  1  0
 18 17  1  0
 19 15  1  0
 19 20  1  1
 20 22  1  0
 21 20  2  0
M  END
$$$$
