CLP.pdb
     RDKit          3D

 22 22  0  0  1  0  0  0  0  0999 V2000
   23.1458  -16.8618  -16.6383 N   0  0  0  0  0  0  0  0  0  0  0  0
   22.5318  -17.7054  -15.6354 C   0  0  1  0  0  0  0  0  0  0  0  0
   21.4390  -18.5205  -16.3002 C   0  0  0  0  0  0  0  0  0  0  0  0
   19.8861  -17.5895  -16.3665 S   0  0  0  0  0  0  0  0  0  0  0  0
   23.5500  -18.6488  -15.1289 C   0  0  0  0  0  0  0  0  0  0  0  0
   24.5261  -18.9781  -15.8491 O   0  0  0  0  0  0  0  0  0  0  0  0
   26.3026  -20.5988  -10.6453 C   0  0  0  0  0  0  0  0  0  0  0  0
   24.8381  -20.9135  -10.8680 C   0  0  1  0  0  0  0  0  0  0  0  0
   24.2185  -20.8925   -9.4695 C   0  0  0  0  0  0  0  0  0  0  0  0
   24.1975  -19.9329  -11.7630 C   0  0  0  0  0  0  0  0  0  0  0  0
   24.4310  -20.1120  -13.2538 C   0  0  2  0  0  0  0  0  0  0  0  0
   23.4214  -19.1782  -13.8333 N   0  0  0  0  0  0  0  0  0  0  0  0
   24.0076  -21.4575  -13.6672 C   0  0  0  0  0  0  0  0  0  0  0  0
   22.7502  -21.6377  -13.8479 O   0  0  0  0  0  0  0  0  0  0  0  0
   24.8393  -22.5811  -13.8946 N   0  0  0  0  0  0  0  0  0  0  0  0
   26.2525  -22.7947  -13.7599 C   0  0  0  0  0  0  0  0  0  0  0  0
   26.6316  -23.7806  -14.8676 C   0  0  0  0  0  0  0  0  0  0  0  0
   25.3201  -24.1236  -15.5054 C   0  0  0  0  0  0  0  0  0  0  0  0
   24.3429  -23.8885  -14.3768 C   0  0  1  0  0  0  0  0  0  0  0  0
   24.4476  -24.9100  -13.3346 C   0  0  0  0  0  0  0  0  0  0  0  0
   25.0874  -24.8162  -12.2661 O   0  0  0  0  0  0  0  0  0  0  0  0
   23.7712  -26.1234  -13.5320 O   0  0  0  0  0  0  0  0  0  0  0  0
  2  1  1  6
  2  5  1  0
  2  3  1  0
  4  3  1  0
  5  6  2  0
  8  7  1  1
  8 10  1  0
  9  8  1  0
 11 10  1  1
 12 11  1  0
 12  5  1  0
 13 14  2  0
 13 11  1  0
 15 13  1  0
 16 17  1  0
 16 15  1  0
 18 19  1  0
 18 17  1  0
 19 15  1  0
 19 20  1  1
 20 22  1  0
 21 20  2  0
M  END
$$$$
