CLP.pdb
     RDKit          3D

 22 22  0  0  1  0  0  0  0  0999 V2000
   30.6044  -30.2697  -15.7468 N   0  0  0  0  0  0  0  0  0  0  0  0
   32.0072  -29.9928  -15.9702 C   0  0  1  0  0  0  0  0  0  0  0  0
   32.4682  -30.7972  -17.1706 C   0  0  0  0  0  0  0  0  0  0  0  0
   32.6959  -32.5406  -16.7331 S   0  0  0  0  0  0  0  0  0  0  0  0
   32.1551  -28.5615  -16.3058 C   0  0  0  0  0  0  0  0  0  0  0  0
   31.2085  -27.9332  -16.8437 O   0  0  0  0  0  0  0  0  0  0  0  0
   34.6574  -25.0750  -12.9247 C   0  0  0  0  0  0  0  0  0  0  0  0
   33.7172  -25.6085  -13.9852 C   0  0  1  0  0  0  0  0  0  0  0  0
   32.7315  -24.4670  -14.2412 C   0  0  0  0  0  0  0  0  0  0  0  0
   34.4379  -25.9921  -15.2125 C   0  0  0  0  0  0  0  0  0  0  0  0
   33.5931  -26.4735  -16.3803 C   0  0  2  0  0  0  0  0  0  0  0  0
   33.3635  -27.9032  -16.0197 N   0  0  0  0  0  0  0  0  0  0  0  0
   34.4047  -26.5007  -17.6056 C   0  0  0  0  0  0  0  0  0  0  0  0
   35.1394  -27.5363  -17.7892 O   0  0  0  0  0  0  0  0  0  0  0  0
   34.4611  -25.5073  -18.6135 N   0  0  0  0  0  0  0  0  0  0  0  0
   33.9484  -24.1689  -18.6969 C   0  0  0  0  0  0  0  0  0  0  0  0
   33.5830  -23.9544  -20.1678 C   0  0  0  0  0  0  0  0  0  0  0  0
   34.0266  -25.2205  -20.8347 C   0  0  0  0  0  0  0  0  0  0  0  0
   35.1306  -25.6963  -19.9190 C   0  0  1  0  0  0  0  0  0  0  0  0
   36.3300  -24.8649  -20.0225 C   0  0  0  0  0  0  0  0  0  0  0  0
   37.1017  -24.7954  -21.0021 O   0  0  0  0  0  0  0  0  0  0  0  0
   36.6675  -24.0572  -18.9260 O   0  0  0  0  0  0  0  0  0  0  0  0
  2  1  1  6
  2  5  1  0
  2  3  1  0
  4  3  1  0
  5  6  2  0
  8  7  1  1
  8 10  1  0
  9  8  1  0
 11 10  1  1
 12 11  1  0
 12  5  1  0
 13 14  2  0
 13 11  1  0
 15 13  1  0
 16 17  1  0
 16 15  1  0
 18 19  1  0
 18 17  1  0
 19 15  1  0
 19 20  1  1
 20 22  1  0
 21 20  2  0
M  END
$$$$
