CLP.pdb
     RDKit          3D

 22 22  0  0  1  0  0  0  0  0999 V2000
   26.1615  -21.2416  -12.5331 N   0  0  0  0  0  0  0  0  0  0  0  0
   25.7053  -20.3520  -11.4868 C   0  0  1  0  0  0  0  0  0  0  0  0
   24.1901  -20.2989  -11.5313 C   0  0  0  0  0  0  0  0  0  0  0  0
   23.6137  -19.5302  -13.0673 S   0  0  0  0  0  0  0  0  0  0  0  0
   26.0961  -20.9236  -10.1816 C   0  0  0  0  0  0  0  0  0  0  0  0
   26.1521  -22.1694  -10.0240 O   0  0  0  0  0  0  0  0  0  0  0  0
   29.1179  -20.4337   -5.5455 C   0  0  0  0  0  0  0  0  0  0  0  0
   27.9098  -19.5427   -5.7453 C   0  0  1  0  0  0  0  0  0  0  0  0
   28.3250  -18.1886   -5.1671 C   0  0  0  0  0  0  0  0  0  0  0  0
   27.5368  -19.4371   -7.1675 C   0  0  0  0  0  0  0  0  0  0  0  0
   26.7176  -20.5782   -7.7469 C   0  0  2  0  0  0  0  0  0  0  0  0
   26.4061  -20.0648   -9.1131 N   0  0  0  0  0  0  0  0  0  0  0  0
   25.4243  -20.6662   -7.0538 C   0  0  0  0  0  0  0  0  0  0  0  0
   24.5168  -19.8347   -7.4158 O   0  0  0  0  0  0  0  0  0  0  0  0
   25.0660  -21.5759   -6.0292 N   0  0  0  0  0  0  0  0  0  0  0  0
   25.8143  -22.5374   -5.2698 C   0  0  0  0  0  0  0  0  0  0  0  0
   24.8505  -23.6957   -5.0004 C   0  0  0  0  0  0  0  0  0  0  0  0
   23.5530  -23.2240   -5.5823 C   0  0  0  0  0  0  0  0  0  0  0  0
   23.6919  -21.7214   -5.5010 C   0  0  1  0  0  0  0  0  0  0  0  0
   23.6006  -21.2325   -4.1251 C   0  0  0  0  0  0  0  0  0  0  0  0
   24.5351  -20.7649   -3.4408 O   0  0  0  0  0  0  0  0  0  0  0  0
   22.3506  -21.2837   -3.4900 O   0  0  0  0  0  0  0  0  0  0  0  0
  2  1  1  6
  2  5  1  0
  2  3  1  0
  4  3  1  0
  5  6  2  0
  8  7  1  6
  8 10  1  0
  9  8  1  0
 11 10  1  1
 12 11  1  0
 12  5  1  0
 13 14  2  0
 13 11  1  0
 15 13  1  0
 16 17  1  0
 16 15  1  0
 18 19  1  0
 18 17  1  0
 19 15  1  0
 19 20  1  1
 20 22  1  0
 21 20  2  0
M  END
$$$$
