CLP.pdb
     RDKit          3D

 22 22  0  0  1  0  0  0  0  0999 V2000
   14.6211  -24.0540   -0.0980 N   0  0  0  0  0  0  0  0  0  0  0  0
   15.0420  -22.7568    0.3863 C   0  0  1  0  0  0  0  0  0  0  0  0
   13.8861  -21.7881    0.2251 C   0  0  0  0  0  0  0  0  0  0  0  0
   14.3804  -20.1072    0.6864 S   0  0  0  0  0  0  0  0  0  0  0  0
   15.3362  -22.8680    1.8300 C   0  0  0  0  0  0  0  0  0  0  0  0
   14.6200  -23.5870    2.5715 O   0  0  0  0  0  0  0  0  0  0  0  0
   20.2186  -23.8204    3.8570 C   0  0  0  0  0  0  0  0  0  0  0  0
   18.7068  -23.7494    3.8032 C   0  0  1  0  0  0  0  0  0  0  0  0
   18.2360  -24.5554    5.0152 C   0  0  0  0  0  0  0  0  0  0  0  0
   18.2222  -22.3581    3.8519 C   0  0  0  0  0  0  0  0  0  0  0  0
   16.7161  -22.1568    3.8358 C   0  0  2  0  0  0  0  0  0  0  0  0
   16.4248  -22.1634    2.3722 N   0  0  0  0  0  0  0  0  0  0  0  0
   16.3890  -20.8002    4.2976 C   0  0  0  0  0  0  0  0  0  0  0  0
   16.4981  -19.8548    3.4370 O   0  0  0  0  0  0  0  0  0  0  0  0
   15.9592  -20.4205    5.5925 N   0  0  0  0  0  0  0  0  0  0  0  0
   15.7377  -21.1575    6.8044 C   0  0  0  0  0  0  0  0  0  0  0  0
   14.5680  -20.4626    7.5059 C   0  0  0  0  0  0  0  0  0  0  0  0
   14.2758  -19.2827    6.6301 C   0  0  0  0  0  0  0  0  0  0  0  0
   15.6125  -19.0330    5.9709 C   0  0  1  0  0  0  0  0  0  0  0  0
   16.5934  -18.4796    6.9047 C   0  0  0  0  0  0  0  0  0  0  0  0
   17.5056  -19.1088    7.4809 O   0  0  0  0  0  0  0  0  0  0  0  0
   16.5229  -17.1093    7.1979 O   0  0  0  0  0  0  0  0  0  0  0  0
  2  1  1  1
  2  5  1  0
  2  3  1  0
  4  3  1  0
  5  6  2  0
  8  7  1  1
  8 10  1  0
  9  8  1  0
 11 10  1  6
 12 11  1  0
 12  5  1  0
 13 14  2  0
 13 11  1  0
 15 13  1  0
 16 17  1  0
 16 15  1  0
 18 19  1  0
 18 17  1  0
 19 15  1  0
 19 20  1  1
 20 22  1  0
 21 20  2  0
M  END
$$$$
