CLP.pdb
     RDKit          3D

 22 22  0  0  1  0  0  0  0  0999 V2000
   19.3712  -19.7873  -14.2528 N   0  0  0  0  0  0  0  0  0  0  0  0
   20.4100  -20.7926  -14.1825 C   0  0  1  0  0  0  0  0  0  0  0  0
   20.5253  -21.4567  -15.5412 C   0  0  0  0  0  0  0  0  0  0  0  0
   19.2072  -22.6766  -15.7799 S   0  0  0  0  0  0  0  0  0  0  0  0
   21.6952  -20.1201  -13.9013 C   0  0  0  0  0  0  0  0  0  0  0  0
   21.9385  -18.9856  -14.3847 O   0  0  0  0  0  0  0  0  0  0  0  0
   25.7967  -19.3912  -10.0913 C   0  0  0  0  0  0  0  0  0  0  0  0
   25.7164  -20.6100  -10.9865 C   0  0  1  0  0  0  0  0  0  0  0  0
   26.1935  -21.7691  -10.1095 C   0  0  0  0  0  0  0  0  0  0  0  0
   24.3478  -20.8323  -11.4869 C   0  0  0  0  0  0  0  0  0  0  0  0
   23.9740  -20.1420  -12.7880 C   0  0  2  0  0  0  0  0  0  0  0  0
   22.6479  -20.7572  -13.0877 N   0  0  0  0  0  0  0  0  0  0  0  0
   24.8691  -20.5887  -13.8650 C   0  0  0  0  0  0  0  0  0  0  0  0
   24.5142  -21.6371  -14.5138 O   0  0  0  0  0  0  0  0  0  0  0  0
   26.0833  -19.9832  -14.2711 N   0  0  0  0  0  0  0  0  0  0  0  0
   26.9123  -18.9671  -13.6870 C   0  0  0  0  0  0  0  0  0  0  0  0
   27.5124  -18.1929  -14.8632 C   0  0  0  0  0  0  0  0  0  0  0  0
   27.0165  -18.9323  -16.0682 C   0  0  0  0  0  0  0  0  0  0  0  0
   26.7949  -20.3239  -15.5224 C   0  0  1  0  0  0  0  0  0  0  0  0
   28.0543  -21.0139  -15.2425 C   0  0  0  0  0  0  0  0  0  0  0  0
   28.5482  -21.2273  -14.1154 O   0  0  0  0  0  0  0  0  0  0  0  0
   28.7989  -21.4921  -16.3313 O   0  0  0  0  0  0  0  0  0  0  0  0
  2  1  1  6
  2  5  1  0
  2  3  1  0
  4  3  1  0
  5  6  2  0
  8  7  1  1
  8 10  1  0
  9  8  1  0
 11 10  1  1
 12 11  1  0
 12  5  1  0
 13 14  2  0
 13 11  1  0
 15 13  1  0
 16 17  1  0
 16 15  1  0
 18 19  1  0
 18 17  1  0
 19 15  1  0
 19 20  1  1
 20 22  1  0
 21 20  2  0
M  END
$$$$
