LKQ.pdb
     RDKit          3D

 27 26  0  0  1  0  0  0  0  0999 V2000
    9.2678  -12.2351   19.7684 C   0  0  0  0  0  0  0  0  0  0  0  0
    8.0864  -13.1071   19.4966 C   0  0  2  0  0  0  0  0  0  0  0  0
    6.8079  -12.2924   19.5741 C   0  0  0  0  0  0  0  0  0  0  0  0
    8.0151  -14.3447   20.3444 C   0  0  0  0  0  0  0  0  0  0  0  0
    9.3455  -15.0504   20.3710 C   0  0  2  0  0  0  0  0  0  0  0  0
    9.5841  -15.6767   19.0876 N   0  0  0  0  0  0  0  0  0  0  0  0
    9.4350  -16.0551   21.4474 C   0  0  0  0  0  0  0  0  0  0  0  0
    8.9368  -15.7691   22.5660 O   0  0  0  0  0  0  0  0  0  0  0  0
   10.0385  -17.3144   21.3153 N   0  0  0  0  0  0  0  0  0  0  0  0
   10.0594  -18.2422   22.4613 C   0  0  1  0  0  0  0  0  0  0  0  0
   10.6017  -19.5671   22.0449 C   0  0  0  0  0  0  0  0  0  0  0  0
   10.5783  -20.5391   23.1880 C   0  0  0  0  0  0  0  0  0  0  0  0
   11.0593  -21.9115   22.7802 C   0  0  0  0  0  0  0  0  0  0  0  0
   11.0401  -22.8751   23.9547 C   0  0  0  0  0  0  0  0  0  0  0  0
   12.2013  -22.7124   24.7779 N   0  0  0  0  0  0  0  0  0  0  0  0
   10.8181  -17.6182   23.5768 C   0  0  0  0  0  0  0  0  0  0  0  0
   11.9450  -17.1246   23.4362 O   0  0  0  0  0  0  0  0  0  0  0  0
    8.8190  -13.7386   27.7365 N   0  0  0  0  0  0  0  0  0  0  0  0
   10.0377  -14.1023   28.3720 C   0  0  0  0  0  0  0  0  0  0  0  0
   10.4061  -13.4450   29.3781 O   0  0  0  0  0  0  0  0  0  0  0  0
   10.8378  -15.2374   27.8381 C   0  0  0  0  0  0  0  0  0  0  0  0
   10.1173  -15.7948   26.6058 C   0  0  0  0  0  0  0  0  0  0  0  0
   10.9662  -16.8862   25.9822 C   0  0  2  0  0  0  0  0  0  0  0  0
   10.2708  -17.5543   24.9049 N   0  0  0  0  0  0  0  0  0  0  0  0
   11.2689  -17.8849   27.0299 C   0  0  0  0  0  0  0  0  0  0  0  0
   10.7798  -19.1739   26.9132 O   0  0  0  0  0  0  0  0  0  0  0  0
   11.9620  -17.6096   28.0375 O   0  0  0  0  0  0  0  0  0  0  0  0
  2  1  1  1
  3  2  1  0
  4  5  1  0
  4  2  1  0
  5  7  1  0
  5  6  1  6
  7  8  2  0
  9 10  1  0
  9  7  1  0
 10 11  1  6
 12 11  1  0
 13 14  1  0
 13 12  1  0
 15 14  1  0
 16 10  1  0
 16 17  2  0
 18 19  1  0
 19 21  1  0
 20 19  2  0
 21 22  1  0
 23 22  1  1
 23 24  1  0
 23 25  1  0
 24 16  1  0
 25 26  1  0
 27 25  2  0
M  END
$$$$
