LKQ.pdb
     RDKit          3D

 27 26  0  0  1  0  0  0  0  0999 V2000
    8.7425  -12.5329   19.3412 C   0  0  0  0  0  0  0  0  0  0  0  0
    7.4915  -13.3352   19.1947 C   0  0  2  0  0  0  0  0  0  0  0  0
    6.3860  -12.4754   18.6092 C   0  0  0  0  0  0  0  0  0  0  0  0
    7.0511  -14.0396   20.4459 C   0  0  0  0  0  0  0  0  0  0  0  0
    8.1591  -14.9024   20.9905 C   0  0  2  0  0  0  0  0  0  0  0  0
    8.6520  -15.7713   19.9424 N   0  0  0  0  0  0  0  0  0  0  0  0
    7.7359  -15.7046   22.1539 C   0  0  0  0  0  0  0  0  0  0  0  0
    7.1057  -15.1242   23.0743 O   0  0  0  0  0  0  0  0  0  0  0  0
    7.9857  -17.0759   22.3109 N   0  0  0  0  0  0  0  0  0  0  0  0
    7.4468  -17.7906   23.4828 C   0  0  1  0  0  0  0  0  0  0  0  0
    6.8777  -19.1055   23.0705 C   0  0  0  0  0  0  0  0  0  0  0  0
    6.5141  -19.9318   24.2693 C   0  0  0  0  0  0  0  0  0  0  0  0
    6.1010  -21.3346   23.8917 C   0  0  0  0  0  0  0  0  0  0  0  0
    5.7748  -22.1645   25.1218 C   0  0  0  0  0  0  0  0  0  0  0  0
    6.8168  -22.0720   26.1008 N   0  0  0  0  0  0  0  0  0  0  0  0
    8.5122  -17.9057   24.5129 C   0  0  0  0  0  0  0  0  0  0  0  0
    8.3438  -18.4733   25.6004 O   0  0  0  0  0  0  0  0  0  0  0  0
   13.3812  -21.1138   27.4442 N   0  0  0  0  0  0  0  0  0  0  0  0
   12.2394  -20.2809   27.2899 C   0  0  0  0  0  0  0  0  0  0  0  0
   11.1457  -20.6717   27.7708 O   0  0  0  0  0  0  0  0  0  0  0  0
   12.3644  -18.9836   26.5724 C   0  0  0  0  0  0  0  0  0  0  0  0
   11.2694  -18.9196   25.5023 C   0  0  0  0  0  0  0  0  0  0  0  0
   10.8715  -17.4727   25.2809 C   0  0  2  0  0  0  0  0  0  0  0  0
    9.8211  -17.3521   24.2947 N   0  0  0  0  0  0  0  0  0  0  0  0
   12.0587  -16.7423   24.7872 C   0  0  0  0  0  0  0  0  0  0  0  0
   12.0140  -16.1079   23.5584 O   0  0  0  0  0  0  0  0  0  0  0  0
   13.1232  -16.6715   25.4454 O   0  0  0  0  0  0  0  0  0  0  0  0
  2  1  1  1
  3  2  1  0
  4  5  1  0
  4  2  1  0
  5  7  1  0
  5  6  1  6
  7  8  2  0
  9 10  1  0
  9  7  1  0
 10 11  1  6
 12 11  1  0
 13 14  1  0
 13 12  1  0
 15 14  1  0
 16 10  1  0
 16 17  2  0
 18 19  1  0
 19 21  1  0
 20 19  2  0
 21 22  1  0
 23 22  1  6
 23 24  1  0
 23 25  1  0
 24 16  1  0
 25 26  1  0
 27 25  2  0
M  END
$$$$
