LKQ.pdb
     RDKit          3D

 27 26  0  0  1  0  0  0  0  0999 V2000
    8.7764  -13.8550   18.6772 C   0  0  0  0  0  0  0  0  0  0  0  0
    7.6891  -13.5582   19.6569 C   0  0  2  0  0  0  0  0  0  0  0  0
    7.3192  -12.0872   19.5959 C   0  0  0  0  0  0  0  0  0  0  0  0
    7.9743  -14.0070   21.0615 C   0  0  0  0  0  0  0  0  0  0  0  0
    8.3587  -15.4631   21.0885 C   0  0  2  0  0  0  0  0  0  0  0  0
    7.3436  -16.2417   20.4105 N   0  0  0  0  0  0  0  0  0  0  0  0
    8.5556  -15.9741   22.4583 C   0  0  0  0  0  0  0  0  0  0  0  0
    9.4089  -15.4039   23.1849 O   0  0  0  0  0  0  0  0  0  0  0  0
    7.8572  -17.0559   23.0145 N   0  0  0  0  0  0  0  0  0  0  0  0
    8.1977  -17.5315   24.3682 C   0  0  1  0  0  0  0  0  0  0  0  0
    7.2012  -18.5406   24.8282 C   0  0  0  0  0  0  0  0  0  0  0  0
    7.5433  -19.0451   26.1995 C   0  0  0  0  0  0  0  0  0  0  0  0
    6.5797  -20.1071   26.6738 C   0  0  0  0  0  0  0  0  0  0  0  0
    6.8600  -20.5040   28.1133 C   0  0  0  0  0  0  0  0  0  0  0  0
    6.0354  -21.6037   28.5178 N   0  0  0  0  0  0  0  0  0  0  0  0
    9.5945  -18.0397   24.3666 C   0  0  0  0  0  0  0  0  0  0  0  0
   10.0212  -18.8442   23.5275 O   0  0  0  0  0  0  0  0  0  0  0  0
   14.6110  -15.1644   23.8769 N   0  0  0  0  0  0  0  0  0  0  0  0
   14.1909  -16.1618   22.9549 C   0  0  0  0  0  0  0  0  0  0  0  0
   14.5986  -16.0878   21.7681 O   0  0  0  0  0  0  0  0  0  0  0  0
   13.2905  -17.2551   23.4104 C   0  0  0  0  0  0  0  0  0  0  0  0
   12.8431  -16.9431   24.8425 C   0  0  0  0  0  0  0  0  0  0  0  0
   11.9219  -18.0455   25.3292 C   0  0  2  0  0  0  0  0  0  0  0  0
   10.5423  -17.6142   25.3606 N   0  0  0  0  0  0  0  0  0  0  0  0
   12.3274  -18.4063   26.7047 C   0  0  0  0  0  0  0  0  0  0  0  0
   13.5644  -18.9846   26.9277 O   0  0  0  0  0  0  0  0  0  0  0  0
   11.5857  -18.2075   27.6956 O   0  0  0  0  0  0  0  0  0  0  0  0
  2  1  1  6
  3  2  1  0
  4  5  1  0
  4  2  1  0
  5  7  1  0
  5  6  1  1
  7  8  2  0
  9 10  1  0
  9  7  1  0
 10 11  1  6
 12 11  1  0
 13 14  1  0
 13 12  1  0
 15 14  1  0
 16 10  1  0
 16 17  2  0
 18 19  1  0
 19 21  1  0
 20 19  2  0
 21 22  1  0
 23 22  1  1
 23 24  1  0
 23 25  1  0
 24 16  1  0
 25 26  1  0
 27 25  2  0
M  END
$$$$
