LKQ.pdb
     RDKit          3D

 27 26  0  0  1  0  0  0  0  0999 V2000
    8.8028  -13.5972   18.4436 C   0  0  0  0  0  0  0  0  0  0  0  0
    7.6937  -13.4701   19.4354 C   0  0  2  0  0  0  0  0  0  0  0  0
    7.3662  -12.0060   19.6670 C   0  0  0  0  0  0  0  0  0  0  0  0
    7.9220  -14.2046   20.7254 C   0  0  0  0  0  0  0  0  0  0  0  0
    8.2025  -15.6617   20.4670 C   0  0  2  0  0  0  0  0  0  0  0  0
    6.9880  -16.3149   20.0258 N   0  0  0  0  0  0  0  0  0  0  0  0
    8.7470  -16.3546   21.6501 C   0  0  0  0  0  0  0  0  0  0  0  0
    7.9795  -16.5479   22.6272 O   0  0  0  0  0  0  0  0  0  0  0  0
   10.0661  -16.8171   21.7670 N   0  0  0  0  0  0  0  0  0  0  0  0
   10.5276  -17.4056   23.0380 C   0  0  1  0  0  0  0  0  0  0  0  0
   11.8260  -18.1113   22.8403 C   0  0  0  0  0  0  0  0  0  0  0  0
   11.6380  -19.3639   22.0355 C   0  0  0  0  0  0  0  0  0  0  0  0
   12.9492  -20.0489   21.7310 C   0  0  0  0  0  0  0  0  0  0  0  0
   12.7376  -21.3018   20.8981 C   0  0  0  0  0  0  0  0  0  0  0  0
   11.9602  -22.2723   21.6098 N   0  0  0  0  0  0  0  0  0  0  0  0
   10.5866  -16.3401   24.0727 C   0  0  0  0  0  0  0  0  0  0  0  0
   11.1913  -15.2718   23.9105 O   0  0  0  0  0  0  0  0  0  0  0  0
    6.3141  -13.1126   25.7110 N   0  0  0  0  0  0  0  0  0  0  0  0
    7.2044  -12.6723   26.7282 C   0  0  0  0  0  0  0  0  0  0  0  0
    6.9232  -11.6184   27.3529 O   0  0  0  0  0  0  0  0  0  0  0  0
    8.4319  -13.4588   27.0253 C   0  0  0  0  0  0  0  0  0  0  0  0
    8.5199  -14.6099   26.0176 C   0  0  0  0  0  0  0  0  0  0  0  0
    9.7918  -15.3973   26.2688 C   0  0  2  0  0  0  0  0  0  0  0  0
    9.9306  -16.4985   25.3422 N   0  0  0  0  0  0  0  0  0  0  0  0
    9.7252  -15.9487   27.6393 C   0  0  0  0  0  0  0  0  0  0  0  0
   10.0035  -15.1343   28.7226 O   0  0  0  0  0  0  0  0  0  0  0  0
    9.4220  -17.1437   27.8665 O   0  0  0  0  0  0  0  0  0  0  0  0
  2  1  1  6
  3  2  1  0
  4  5  1  0
  4  2  1  0
  5  7  1  0
  5  6  1  1
  7  8  2  0
  9 10  1  0
  9  7  1  0
 10 11  1  6
 12 11  1  0
 13 14  1  0
 13 12  1  0
 15 14  1  0
 16 10  1  0
 16 17  2  0
 18 19  1  0
 19 21  1  0
 20 19  2  0
 21 22  1  0
 23 22  1  6
 23 24  1  0
 23 25  1  0
 24 16  1  0
 25 26  1  0
 27 25  2  0
M  END
$$$$
