LKQ.pdb
     RDKit          3D

 27 26  0  0  1  0  0  0  0  0999 V2000
    9.0778  -13.3330   19.0646 C   0  0  0  0  0  0  0  0  0  0  0  0
    7.8539  -13.1678   19.9043 C   0  0  2  0  0  0  0  0  0  0  0  0
    7.6511  -11.7032   20.2481 C   0  0  0  0  0  0  0  0  0  0  0  0
    7.8112  -14.0416   21.1250 C   0  0  0  0  0  0  0  0  0  0  0  0
    7.9590  -15.4923   20.7479 C   0  0  2  0  0  0  0  0  0  0  0  0
    6.7310  -15.9591   20.1395 N   0  0  0  0  0  0  0  0  0  0  0  0
    8.3086  -16.3464   21.8988 C   0  0  0  0  0  0  0  0  0  0  0  0
    7.5359  -16.3467   22.8909 O   0  0  0  0  0  0  0  0  0  0  0  0
    9.4463  -17.1638   21.9695 N   0  0  0  0  0  0  0  0  0  0  0  0
    9.6654  -18.0161   23.1528 C   0  0  1  0  0  0  0  0  0  0  0  0
   10.1544  -19.3621   22.7378 C   0  0  0  0  0  0  0  0  0  0  0  0
   10.3153  -20.2638   23.9265 C   0  0  0  0  0  0  0  0  0  0  0  0
   10.8195  -21.6339   23.5397 C   0  0  0  0  0  0  0  0  0  0  0  0
   10.9438  -22.5397   24.7530 C   0  0  0  0  0  0  0  0  0  0  0  0
   11.3343  -23.8648   24.3730 N   0  0  0  0  0  0  0  0  0  0  0  0
   10.5837  -17.3178   24.0901 C   0  0  0  0  0  0  0  0  0  0  0  0
   11.5716  -16.6725   23.7149 O   0  0  0  0  0  0  0  0  0  0  0  0
    9.3995  -12.5260   27.9253 N   0  0  0  0  0  0  0  0  0  0  0  0
    9.3008  -13.9441   27.9025 C   0  0  0  0  0  0  0  0  0  0  0  0
    8.6029  -14.5085   28.7825 O   0  0  0  0  0  0  0  0  0  0  0  0
   10.0166  -14.7165   26.8514 C   0  0  0  0  0  0  0  0  0  0  0  0
   10.6371  -15.9557   27.5053 C   0  0  0  0  0  0  0  0  0  0  0  0
   11.3202  -16.7928   26.4407 C   0  0  2  0  0  0  0  0  0  0  0  0
   10.3673  -17.3567   25.5110 N   0  0  0  0  0  0  0  0  0  0  0  0
   12.0250  -17.9042   27.1152 C   0  0  0  0  0  0  0  0  0  0  0  0
   13.0847  -17.6332   27.9624 O   0  0  0  0  0  0  0  0  0  0  0  0
   11.6981  -19.1030   26.9497 O   0  0  0  0  0  0  0  0  0  0  0  0
  2  1  1  1
  3  2  1  0
  4  5  1  0
  4  2  1  0
  5  7  1  0
  5  6  1  1
  7  8  2  0
  9 10  1  0
  9  7  1  0
 10 11  1  6
 12 11  1  0
 13 14  1  0
 13 12  1  0
 15 14  1  0
 16 10  1  0
 16 17  2  0
 18 19  1  0
 19 21  1  0
 20 19  2  0
 21 22  1  0
 23 22  1  1
 23 24  1  0
 23 25  1  0
 24 16  1  0
 25 26  1  0
 27 25  2  0
M  END
$$$$
