LKQ.pdb
     RDKit          3D

 27 26  0  0  1  0  0  0  0  0999 V2000
    9.2696  -12.4247   19.0122 C   0  0  0  0  0  0  0  0  0  0  0  0
    8.0909  -13.2203   19.4682 C   0  0  2  0  0  0  0  0  0  0  0  0
    6.8955  -12.3083   19.6774 C   0  0  0  0  0  0  0  0  0  0  0  0
    8.3494  -14.0897   20.6652 C   0  0  0  0  0  0  0  0  0  0  0  0
    9.5867  -14.9240   20.4613 C   0  0  2  0  0  0  0  0  0  0  0  0
    9.5080  -15.5970   19.1817 N   0  0  0  0  0  0  0  0  0  0  0  0
    9.7915  -15.9106   21.5387 C   0  0  0  0  0  0  0  0  0  0  0  0
    9.0983  -15.7990   22.5819 O   0  0  0  0  0  0  0  0  0  0  0  0
   10.7081  -16.9710   21.4860 N   0  0  0  0  0  0  0  0  0  0  0  0
   10.7810  -17.9343   22.6002 C   0  0  1  0  0  0  0  0  0  0  0  0
   11.4883  -19.1735   22.1677 C   0  0  0  0  0  0  0  0  0  0  0  0
   12.8535  -18.8527   21.6336 C   0  0  0  0  0  0  0  0  0  0  0  0
   13.5624  -20.0775   21.1060 C   0  0  0  0  0  0  0  0  0  0  0  0
   14.9548  -19.7362   20.6031 C   0  0  0  0  0  0  0  0  0  0  0  0
   15.6369  -20.9049   20.1322 N   0  0  0  0  0  0  0  0  0  0  0  0
   11.4122  -17.2732   23.7723 C   0  0  0  0  0  0  0  0  0  0  0  0
   12.3517  -16.4727   23.6734 O   0  0  0  0  0  0  0  0  0  0  0  0
    8.7353  -13.8062   27.5297 N   0  0  0  0  0  0  0  0  0  0  0  0
    9.8856  -14.0114   28.3397 C   0  0  0  0  0  0  0  0  0  0  0  0
   10.0129  -13.3209   29.3823 O   0  0  0  0  0  0  0  0  0  0  0  0
   10.8982  -15.0254   27.9395 C   0  0  0  0  0  0  0  0  0  0  0  0
   10.3962  -15.7322   26.6759 C   0  0  0  0  0  0  0  0  0  0  0  0
   11.4216  -16.7607   26.2383 C   0  0  2  0  0  0  0  0  0  0  0  0
   10.9544  -17.5347   25.1100 N   0  0  0  0  0  0  0  0  0  0  0  0
   11.6557  -17.6834   27.3699 C   0  0  0  0  0  0  0  0  0  0  0  0
   11.2024  -18.9886   27.2982 O   0  0  0  0  0  0  0  0  0  0  0  0
   12.2579  -17.3280   28.4104 O   0  0  0  0  0  0  0  0  0  0  0  0
  2  1  1  1
  3  2  1  0
  4  5  1  0
  4  2  1  0
  5  7  1  0
  5  6  1  6
  7  8  2  0
  9 10  1  0
  9  7  1  0
 10 11  1  6
 12 11  1  0
 13 14  1  0
 13 12  1  0
 15 14  1  0
 16 10  1  0
 16 17  2  0
 18 19  1  0
 19 21  1  0
 20 19  2  0
 21 22  1  0
 23 22  1  1
 23 24  1  0
 23 25  1  0
 24 16  1  0
 25 26  1  0
 27 25  2  0
M  END
$$$$
