LKQ.pdb
     RDKit          3D

 27 26  0  0  1  0  0  0  0  0999 V2000
    8.9444  -14.8865   17.4581 C   0  0  0  0  0  0  0  0  0  0  0  0
    8.1872  -13.9857   18.3775 C   0  0  2  0  0  0  0  0  0  0  0  0
    7.8302  -12.6938   17.6650 C   0  0  0  0  0  0  0  0  0  0  0  0
    8.8589  -13.7317   19.6965 C   0  0  0  0  0  0  0  0  0  0  0  0
    8.9557  -15.0024   20.4993 C   0  0  2  0  0  0  0  0  0  0  0  0
    7.7942  -15.8265   20.2382 N   0  0  0  0  0  0  0  0  0  0  0  0
    9.0816  -14.7520   21.9476 C   0  0  0  0  0  0  0  0  0  0  0  0
   10.1287  -14.1924   22.3619 O   0  0  0  0  0  0  0  0  0  0  0  0
    8.1138  -15.0938   22.9036 N   0  0  0  0  0  0  0  0  0  0  0  0
    8.3509  -14.7941   24.3279 C   0  0  1  0  0  0  0  0  0  0  0  0
    7.1390  -14.1731   24.9349 C   0  0  0  0  0  0  0  0  0  0  0  0
    7.4951  -13.3993   26.1705 C   0  0  0  0  0  0  0  0  0  0  0  0
    6.2981  -12.7018   26.7720 C   0  0  0  0  0  0  0  0  0  0  0  0
    6.6855  -11.9053   28.0064 C   0  0  0  0  0  0  0  0  0  0  0  0
    5.5488  -11.2433   28.5741 N   0  0  0  0  0  0  0  0  0  0  0  0
    8.7866  -16.0360   25.0188 C   0  0  0  0  0  0  0  0  0  0  0  0
    8.1377  -17.0901   24.9896 O   0  0  0  0  0  0  0  0  0  0  0  0
   11.6454  -19.9153   25.2760 N   0  0  0  0  0  0  0  0  0  0  0  0
   12.1930  -18.9592   24.3775 C   0  0  0  0  0  0  0  0  0  0  0  0
   12.5267  -19.3426   23.2278 O   0  0  0  0  0  0  0  0  0  0  0  0
   12.3560  -17.5461   24.8135 C   0  0  0  0  0  0  0  0  0  0  0  0
   11.9722  -17.4533   26.2942 C   0  0  0  0  0  0  0  0  0  0  0  0
   10.4685  -17.2915   26.4110 C   0  0  2  0  0  0  0  0  0  0  0  0
   10.0103  -16.0779   25.7726 N   0  0  0  0  0  0  0  0  0  0  0  0
   10.1267  -17.2184   27.8479 C   0  0  0  0  0  0  0  0  0  0  0  0
   10.2520  -18.3439   28.6428 O   0  0  0  0  0  0  0  0  0  0  0  0
    9.7209  -16.1618   28.3869 O   0  0  0  0  0  0  0  0  0  0  0  0
  2  1  1  6
  3  2  1  0
  4  5  1  0
  4  2  1  0
  5  7  1  0
  5  6  1  1
  7  8  2  0
  9 10  1  0
  9  7  1  0
 10 11  1  1
 12 11  1  0
 13 14  1  0
 13 12  1  0
 15 14  1  0
 16 10  1  0
 16 17  2  0
 18 19  1  0
 19 21  1  0
 20 19  2  0
 21 22  1  0
 23 22  1  1
 23 24  1  0
 23 25  1  0
 24 16  1  0
 25 26  1  0
 27 25  2  0
M  END
$$$$
