LKQ.pdb
     RDKit          3D

 27 26  0  0  1  0  0  0  0  0999 V2000
    8.6751  -14.6285   16.8809 C   0  0  0  0  0  0  0  0  0  0  0  0
    7.9366  -14.1371   18.0823 C   0  0  2  0  0  0  0  0  0  0  0  0
    7.0727  -12.9450   17.7120 C   0  0  0  0  0  0  0  0  0  0  0  0
    8.8033  -13.8526   19.2753 C   0  0  0  0  0  0  0  0  0  0  0  0
    8.8864  -15.0584   20.1740 C   0  0  2  0  0  0  0  0  0  0  0  0
    7.7085  -15.8795   19.9879 N   0  0  0  0  0  0  0  0  0  0  0  0
    9.0310  -14.6983   21.5972 C   0  0  0  0  0  0  0  0  0  0  0  0
   10.0710  -14.0853   21.9491 O   0  0  0  0  0  0  0  0  0  0  0  0
    8.0884  -14.9906   22.5940 N   0  0  0  0  0  0  0  0  0  0  0  0
    8.3407  -14.5769   23.9867 C   0  0  1  0  0  0  0  0  0  0  0  0
    7.1025  -14.0054   24.5893 C   0  0  0  0  0  0  0  0  0  0  0  0
    7.3565  -13.5353   25.9916 C   0  0  0  0  0  0  0  0  0  0  0  0
    6.1655  -12.8137   26.5764 C   0  0  0  0  0  0  0  0  0  0  0  0
    6.4453  -12.3443   27.9939 C   0  0  0  0  0  0  0  0  0  0  0  0
    5.3674  -11.5466   28.4983 N   0  0  0  0  0  0  0  0  0  0  0  0
    8.8865  -15.7330   24.7449 C   0  0  0  0  0  0  0  0  0  0  0  0
    8.2472  -16.7746   24.9440 O   0  0  0  0  0  0  0  0  0  0  0  0
   14.5628  -15.8863   24.4300 N   0  0  0  0  0  0  0  0  0  0  0  0
   13.5672  -16.5508   23.6628 C   0  0  0  0  0  0  0  0  0  0  0  0
   13.5278  -16.3398   22.4243 O   0  0  0  0  0  0  0  0  0  0  0  0
   12.6082  -17.4682   24.3352 C   0  0  0  0  0  0  0  0  0  0  0  0
   12.3040  -16.9075   25.7285 C   0  0  0  0  0  0  0  0  0  0  0  0
   10.8015  -16.8601   25.9307 C   0  0  2  0  0  0  0  0  0  0  0  0
   10.2134  -15.7008   25.2978 N   0  0  0  0  0  0  0  0  0  0  0  0
   10.5378  -16.7802   27.3836 C   0  0  0  0  0  0  0  0  0  0  0  0
    9.8846  -15.6774   27.9044 O   0  0  0  0  0  0  0  0  0  0  0  0
   10.8867  -17.6848   28.1783 O   0  0  0  0  0  0  0  0  0  0  0  0
  2  1  1  6
  3  2  1  0
  4  5  1  0
  4  2  1  0
  5  7  1  0
  5  6  1  1
  7  8  2  0
  9 10  1  0
  9  7  1  0
 10 11  1  1
 12 11  1  0
 13 14  1  0
 13 12  1  0
 15 14  1  0
 16 10  1  0
 16 17  2  0
 18 19  1  0
 19 21  1  0
 20 19  2  0
 21 22  1  0
 23 22  1  1
 23 24  1  0
 23 25  1  0
 24 16  1  0
 25 26  1  0
 27 25  2  0
M  END
$$$$
