TTE.pdb
     RDKit          3D

 24 23  0  0  1  0  0  0  0  0999 V2000
    8.1685  -19.6510   19.1384 C   0  0  0  0  0  0  0  0  0  0  0  0
    8.9039  -19.0605   17.9436 C   0  0  1  0  0  0  0  0  0  0  0  0
    8.7396  -19.8260   16.8135 O   0  0  0  0  0  0  0  0  0  0  0  0
    8.4530  -17.6285   17.7754 C   0  0  2  0  0  0  0  0  0  0  0  0
    8.9475  -17.1543   16.4989 N   0  0  0  0  0  0  0  0  0  0  0  0
    8.9427  -16.7474   18.8429 C   0  0  0  0  0  0  0  0  0  0  0  0
   10.1546  -16.4204   18.8740 O   0  0  0  0  0  0  0  0  0  0  0  0
    6.7527  -13.7915   20.6480 C   0  0  0  0  0  0  0  0  0  0  0  0
    7.3998  -14.7640   21.6301 C   0  0  1  0  0  0  0  0  0  0  0  0
    6.4745  -15.6948   22.0952 O   0  0  0  0  0  0  0  0  0  0  0  0
    8.5983  -15.4606   20.9950 C   0  0  2  0  0  0  0  0  0  0  0  0
    8.1209  -16.2203   19.8763 N   0  0  0  0  0  0  0  0  0  0  0  0
    9.2213  -16.2995   22.0410 C   0  0  0  0  0  0  0  0  0  0  0  0
    9.2041  -17.5412   21.8966 O   0  0  0  0  0  0  0  0  0  0  0  0
    9.8191  -15.7340   23.1700 N   0  0  0  0  0  0  0  0  0  0  0  0
   10.8588  -16.3618   23.9601 C   0  0  1  0  0  0  0  0  0  0  0  0
   12.1895  -16.0731   23.3061 C   0  0  0  0  0  0  0  0  0  0  0  0
   13.3642  -16.6670   23.9974 C   0  0  0  0  0  0  0  0  0  0  0  0
   14.6601  -16.4554   23.3525 C   0  0  0  0  0  0  0  0  0  0  0  0
   15.7356  -16.5189   23.9871 O   0  0  0  0  0  0  0  0  0  0  0  0
   10.9284  -15.7234   25.3260 C   0  0  0  0  0  0  0  0  0  0  0  0
   11.6287  -16.1765   26.2376 O   0  0  0  0  0  0  0  0  0  0  0  0
   14.6994  -16.1766   22.0014 O   0  0  0  0  0  0  0  0  0  0  0  0
   10.1724  -14.5819   25.5588 O   0  0  0  0  0  0  0  0  0  0  0  0
  2  1  1  1
  2  3  1  0
  4  5  1  6
  4  2  1  0
  4  6  1  0
  6  7  2  0
  9  8  1  6
  9 11  1  0
 10  9  1  0
 11 13  1  0
 12  6  1  0
 11 12  1  6
 13 15  1  0
 13 14  2  0
 15 16  1  0
 16 21  1  0
 16 17  1  6
 18 19  1  0
 18 17  1  0
 19 20  2  0
 21 22  2  0
 21 24  1  0
 23 19  1  0
M  END
$$$$
