TTE.pdb
     RDKit          3D

 24 23  0  0  1  0  0  0  0  0999 V2000
   13.3834  -21.1883   19.0420 C   0  0  0  0  0  0  0  0  0  0  0  0
   13.4648  -20.3704   17.7608 C   0  0  1  0  0  0  0  0  0  0  0  0
   13.5080  -21.1721   16.6448 O   0  0  0  0  0  0  0  0  0  0  0  0
   12.3166  -19.3886   17.7565 C   0  0  2  0  0  0  0  0  0  0  0  0
   12.2382  -18.8028   16.4339 N   0  0  0  0  0  0  0  0  0  0  0  0
   12.4759  -18.3206   18.7514 C   0  0  0  0  0  0  0  0  0  0  0  0
   13.3977  -17.4784   18.6191 O   0  0  0  0  0  0  0  0  0  0  0  0
   10.1284  -18.3661   22.3419 C   0  0  0  0  0  0  0  0  0  0  0  0
   10.5151  -17.0466   21.6798 C   0  0  1  0  0  0  0  0  0  0  0  0
   10.5909  -16.0198   22.6174 O   0  0  0  0  0  0  0  0  0  0  0  0
   11.8292  -17.1850   20.9189 C   0  0  2  0  0  0  0  0  0  0  0  0
   11.6376  -18.1644   19.8890 N   0  0  0  0  0  0  0  0  0  0  0  0
   12.8644  -17.5724   21.9010 C   0  0  0  0  0  0  0  0  0  0  0  0
   12.8298  -18.7276   22.3776 O   0  0  0  0  0  0  0  0  0  0  0  0
   13.8643  -16.6808   22.2974 N   0  0  0  0  0  0  0  0  0  0  0  0
   14.9748  -17.0133   23.1666 C   0  0  1  0  0  0  0  0  0  0  0  0
   15.9486  -15.8586   23.1527 C   0  0  0  0  0  0  0  0  0  0  0  0
   17.1793  -16.0732   23.9590 C   0  0  0  0  0  0  0  0  0  0  0  0
   18.3038  -15.1873   23.6576 C   0  0  0  0  0  0  0  0  0  0  0  0
   19.4119  -15.3047   24.2249 O   0  0  0  0  0  0  0  0  0  0  0  0
   14.4989  -17.1286   24.5943 C   0  0  0  0  0  0  0  0  0  0  0  0
   13.5277  -16.4979   25.0252 O   0  0  0  0  0  0  0  0  0  0  0  0
   18.1388  -14.1900   22.7180 O   0  0  0  0  0  0  0  0  0  0  0  0
   15.1856  -17.9795   25.4507 O   0  0  0  0  0  0  0  0  0  0  0  0
  2  1  1  1
  2  3  1  0
  4  5  1  6
  4  2  1  0
  4  6  1  0
  6  7  2  0
  9  8  1  1
  9 11  1  0
 10  9  1  0
 11 13  1  0
 12  6  1  0
 11 12  1  6
 13 15  1  0
 13 14  2  0
 15 16  1  0
 16 21  1  0
 16 17  1  1
 18 19  1  0
 18 17  1  0
 19 20  2  0
 21 22  2  0
 21 24  1  0
 23 19  1  0
M  END
$$$$
