TTE.pdb
     RDKit          3D

 24 23  0  0  1  0  0  0  0  0999 V2000
    7.6733  -18.3075   16.7385 C   0  0  0  0  0  0  0  0  0  0  0  0
    8.8957  -17.6676   16.0955 C   0  0  1  0  0  0  0  0  0  0  0  0
    9.1480  -18.1880   14.8483 O   0  0  0  0  0  0  0  0  0  0  0  0
    8.6978  -16.1700   16.0977 C   0  0  2  0  0  0  0  0  0  0  0  0
    9.3435  -15.6350   14.9164 N   0  0  0  0  0  0  0  0  0  0  0  0
    9.2567  -15.5227   17.2912 C   0  0  0  0  0  0  0  0  0  0  0  0
   10.4935  -15.3210   17.3689 O   0  0  0  0  0  0  0  0  0  0  0  0
    7.5484  -12.5834   19.4835 C   0  0  0  0  0  0  0  0  0  0  0  0
    7.9305  -13.7938   20.3307 C   0  0  1  0  0  0  0  0  0  0  0  0
    6.8152  -14.5775   20.6150 O   0  0  0  0  0  0  0  0  0  0  0  0
    9.0127  -14.6188   19.6427 C   0  0  2  0  0  0  0  0  0  0  0  0
    8.4771  -15.0941   18.4001 N   0  0  0  0  0  0  0  0  0  0  0  0
    9.3848  -15.7104   20.5679 C   0  0  0  0  0  0  0  0  0  0  0  0
    8.7581  -16.7897   20.4976 O   0  0  0  0  0  0  0  0  0  0  0  0
   10.4101  -15.5555   21.5043 N   0  0  0  0  0  0  0  0  0  0  0  0
   10.7892  -16.5471   22.4904 C   0  0  1  0  0  0  0  0  0  0  0  0
   12.2900  -16.7121   22.4428 C   0  0  0  0  0  0  0  0  0  0  0  0
   13.0395  -15.4822   22.0739 C   0  0  0  0  0  0  0  0  0  0  0  0
   14.4855  -15.6377   21.9158 C   0  0  0  0  0  0  0  0  0  0  0  0
   15.3022  -14.9928   22.6090 O   0  0  0  0  0  0  0  0  0  0  0  0
   10.4781  -16.0427   23.8785 C   0  0  0  0  0  0  0  0  0  0  0  0
   10.0368  -14.9083   24.0912 O   0  0  0  0  0  0  0  0  0  0  0  0
   14.9656  -16.5235   20.9727 O   0  0  0  0  0  0  0  0  0  0  0  0
   10.6994  -16.8937   24.9535 O   0  0  0  0  0  0  0  0  0  0  0  0
  2  1  1  6
  2  3  1  0
  4  5  1  6
  4  2  1  0
  4  6  1  0
  6  7  2  0
  9  8  1  6
  9 11  1  0
 10  9  1  0
 11 13  1  0
 12  6  1  0
 11 12  1  6
 13 15  1  0
 13 14  2  0
 15 16  1  0
 16 21  1  0
 16 17  1  1
 18 19  1  0
 18 17  1  0
 19 20  2  0
 21 22  2  0
 21 24  1  0
 23 19  1  0
M  END
$$$$
