TTE.pdb
     RDKit          3D

 24 23  0  0  1  0  0  0  0  0999 V2000
    7.8922  -17.2454   15.1550 C   0  0  0  0  0  0  0  0  0  0  0  0
    8.6461  -16.7741   16.3906 C   0  0  1  0  0  0  0  0  0  0  0  0
   10.0073  -16.8003   16.1993 O   0  0  0  0  0  0  0  0  0  0  0  0
    8.1149  -15.4129   16.7741 C   0  0  2  0  0  0  0  0  0  0  0  0
    8.3725  -14.5090   15.6718 N   0  0  0  0  0  0  0  0  0  0  0  0
    8.7368  -14.8809   17.9931 C   0  0  0  0  0  0  0  0  0  0  0  0
    9.7773  -14.1834   17.9082 O   0  0  0  0  0  0  0  0  0  0  0  0
    7.1818  -12.7915   20.7277 C   0  0  0  0  0  0  0  0  0  0  0  0
    7.7799  -14.0291   21.3908 C   0  0  1  0  0  0  0  0  0  0  0  0
    6.7909  -14.9615   21.6935 O   0  0  0  0  0  0  0  0  0  0  0  0
    8.8595  -14.6492   20.5105 C   0  0  2  0  0  0  0  0  0  0  0  0
    8.2324  -15.1037   19.3035 N   0  0  0  0  0  0  0  0  0  0  0  0
    9.4820  -15.7427   21.2869 C   0  0  0  0  0  0  0  0  0  0  0  0
    9.1101  -16.9157   21.0662 O   0  0  0  0  0  0  0  0  0  0  0  0
   10.4637  -15.4883   22.2477 N   0  0  0  0  0  0  0  0  0  0  0  0
   11.0622  -16.4896   23.1071 C   0  0  1  0  0  0  0  0  0  0  0  0
   12.4964  -16.0934   23.3678 C   0  0  0  0  0  0  0  0  0  0  0  0
   13.3932  -16.1907   22.1859 C   0  0  0  0  0  0  0  0  0  0  0  0
   14.7828  -15.7880   22.4026 C   0  0  0  0  0  0  0  0  0  0  0  0
   15.3204  -15.8388   23.5304 O   0  0  0  0  0  0  0  0  0  0  0  0
   10.3860  -16.4855   24.4565 C   0  0  0  0  0  0  0  0  0  0  0  0
    9.5223  -15.6578   24.7657 O   0  0  0  0  0  0  0  0  0  0  0  0
   15.5256  -15.3377   21.3302 O   0  0  0  0  0  0  0  0  0  0  0  0
   10.7553  -17.4537   25.3812 O   0  0  0  0  0  0  0  0  0  0  0  0
  2  1  1  6
  2  3  1  0
  4  5  1  6
  4  2  1  0
  4  6  1  0
  6  7  2  0
  9  8  1  6
  9 11  1  0
 10  9  1  0
 11 13  1  0
 12  6  1  0
 11 12  1  6
 13 15  1  0
 13 14  2  0
 15 16  1  0
 16 21  1  0
 16 17  1  1
 18 19  1  0
 18 17  1  0
 19 20  2  0
 21 22  2  0
 21 24  1  0
 23 19  1  0
M  END
$$$$
