TTE.pdb
     RDKit          3D

 24 23  0  0  1  0  0  0  0  0999 V2000
    8.0247  -19.7782   19.0197 C   0  0  0  0  0  0  0  0  0  0  0  0
    8.8192  -19.1610   17.8774 C   0  0  1  0  0  0  0  0  0  0  0  0
    8.5693  -19.7922   16.6819 O   0  0  0  0  0  0  0  0  0  0  0  0
    8.5298  -17.6785   17.8511 C   0  0  2  0  0  0  0  0  0  0  0  0
    9.0884  -17.1387   16.6283 N   0  0  0  0  0  0  0  0  0  0  0  0
    9.1002  -16.9657   19.0010 C   0  0  0  0  0  0  0  0  0  0  0  0
   10.3467  -16.8925   19.1328 O   0  0  0  0  0  0  0  0  0  0  0  0
    7.4825  -13.6607   20.7747 C   0  0  0  0  0  0  0  0  0  0  0  0
    7.7876  -14.7900   21.7549 C   0  0  1  0  0  0  0  0  0  0  0  0
    6.6319  -15.4951   22.0809 O   0  0  0  0  0  0  0  0  0  0  0  0
    8.8534  -15.7244   21.1928 C   0  0  2  0  0  0  0  0  0  0  0  0
    8.3215  -16.3324   20.0079 N   0  0  0  0  0  0  0  0  0  0  0  0
    9.1776  -16.7047   22.2511 C   0  0  0  0  0  0  0  0  0  0  0  0
    8.8148  -17.8908   22.0949 O   0  0  0  0  0  0  0  0  0  0  0  0
    9.8721  -16.3308   23.4041 N   0  0  0  0  0  0  0  0  0  0  0  0
   10.6669  -17.2261   24.2204 C   0  0  1  0  0  0  0  0  0  0  0  0
   11.8512  -17.6857   23.4031 C   0  0  0  0  0  0  0  0  0  0  0  0
   13.0456  -18.0704   24.2005 C   0  0  0  0  0  0  0  0  0  0  0  0
   14.0893  -18.7982   23.4786 C   0  0  0  0  0  0  0  0  0  0  0  0
   14.5316  -18.4054   22.3770 O   0  0  0  0  0  0  0  0  0  0  0  0
   11.2478  -16.4778   25.3954 C   0  0  0  0  0  0  0  0  0  0  0  0
   11.5872  -15.2916   25.3273 O   0  0  0  0  0  0  0  0  0  0  0  0
   14.6033  -19.9549   24.0286 O   0  0  0  0  0  0  0  0  0  0  0  0
   11.4035  -17.1567   26.5969 O   0  0  0  0  0  0  0  0  0  0  0  0
  2  1  1  1
  2  3  1  0
  4  5  1  6
  4  2  1  0
  4  6  1  0
  6  7  2  0
  9  8  1  6
  9 11  1  0
 10  9  1  0
 11 13  1  0
 12  6  1  0
 11 12  1  6
 13 15  1  0
 13 14  2  0
 15 16  1  0
 16 21  1  0
 16 17  1  6
 18 19  1  0
 18 17  1  0
 19 20  2  0
 21 22  2  0
 21 24  1  0
 23 19  1  0
M  END
$$$$
