TTE.pdb
     RDKit          3D

 24 23  0  0  1  0  0  0  0  0999 V2000
    8.5635  -16.6214   18.0468 C   0  0  0  0  0  0  0  0  0  0  0  0
    8.8656  -15.2224   17.5285 C   0  0  1  0  0  0  0  0  0  0  0  0
    8.5309  -15.0858   16.2020 O   0  0  0  0  0  0  0  0  0  0  0  0
    8.1759  -14.2275   18.4322 C   0  0  2  0  0  0  0  0  0  0  0  0
    8.2667  -12.9234   17.8080 N   0  0  0  0  0  0  0  0  0  0  0  0
    8.7718  -14.1662   19.7726 C   0  0  0  0  0  0  0  0  0  0  0  0
    9.8553  -13.5557   19.9454 O   0  0  0  0  0  0  0  0  0  0  0  0
    7.1224  -13.0028   22.9997 C   0  0  0  0  0  0  0  0  0  0  0  0
    7.6599  -14.4126   23.2290 C   0  0  1  0  0  0  0  0  0  0  0  0
    6.6380  -15.3556   23.1544 O   0  0  0  0  0  0  0  0  0  0  0  0
    8.7723  -14.7380   22.2382 C   0  0  2  0  0  0  0  0  0  0  0  0
    8.1951  -14.7655   20.9257 N   0  0  0  0  0  0  0  0  0  0  0  0
    9.3523  -16.0364   22.6429 C   0  0  0  0  0  0  0  0  0  0  0  0
    9.2380  -17.0078   21.8643 O   0  0  0  0  0  0  0  0  0  0  0  0
   10.0154  -16.1909   23.8628 N   0  0  0  0  0  0  0  0  0  0  0  0
   10.7277  -17.3836   24.2743 C   0  0  1  0  0  0  0  0  0  0  0  0
   12.0050  -17.4722   23.4726 C   0  0  0  0  0  0  0  0  0  0  0  0
   13.0326  -16.4574   23.8258 C   0  0  0  0  0  0  0  0  0  0  0  0
   14.2855  -16.5275   23.0739 C   0  0  0  0  0  0  0  0  0  0  0  0
   15.3992  -16.3880   23.6250 O   0  0  0  0  0  0  0  0  0  0  0  0
   11.1583  -17.2588   25.7154 C   0  0  0  0  0  0  0  0  0  0  0  0
   11.0001  -16.2230   26.3702 O   0  0  0  0  0  0  0  0  0  0  0  0
   14.2393  -16.7545   21.7134 O   0  0  0  0  0  0  0  0  0  0  0  0
   11.7552  -18.3565   26.3219 O   0  0  0  0  0  0  0  0  0  0  0  0
  2  1  1  1
  2  3  1  0
  4  5  1  6
  4  2  1  0
  4  6  1  0
  6  7  2  0
  9  8  1  6
  9 11  1  0
 10  9  1  0
 11 13  1  0
 12  6  1  0
 11 12  1  6
 13 15  1  0
 13 14  2  0
 15 16  1  0
 16 21  1  0
 16 17  1  6
 18 19  1  0
 18 17  1  0
 19 20  2  0
 21 22  2  0
 21 24  1  0
 23 19  1  0
M  END
$$$$
