TTE.pdb
     RDKit          3D

 24 23  0  0  1  0  0  0  0  0999 V2000
    8.3553  -16.8098   17.5345 C   0  0  0  0  0  0  0  0  0  0  0  0
    8.7990  -15.4478   17.0195 C   0  0  1  0  0  0  0  0  0  0  0  0
    8.5073  -15.2862   15.6858 O   0  0  0  0  0  0  0  0  0  0  0  0
    8.1870  -14.3883   17.9056 C   0  0  2  0  0  0  0  0  0  0  0  0
    8.3517  -13.1088   17.2465 N   0  0  0  0  0  0  0  0  0  0  0  0
    8.8045  -14.3315   19.2364 C   0  0  0  0  0  0  0  0  0  0  0  0
    9.9836  -13.9177   19.3589 O   0  0  0  0  0  0  0  0  0  0  0  0
    7.1140  -12.9975   22.5465 C   0  0  0  0  0  0  0  0  0  0  0  0
    7.6575  -14.4085   22.7535 C   0  0  1  0  0  0  0  0  0  0  0  0
    6.6349  -15.3519   22.6948 O   0  0  0  0  0  0  0  0  0  0  0  0
    8.7478  -14.7256   21.7359 C   0  0  2  0  0  0  0  0  0  0  0  0
    8.1460  -14.7224   20.4342 N   0  0  0  0  0  0  0  0  0  0  0  0
    9.3223  -16.0371   22.1049 C   0  0  0  0  0  0  0  0  0  0  0  0
    9.0609  -17.0250   21.3849 O   0  0  0  0  0  0  0  0  0  0  0  0
   10.1396  -16.1856   23.2281 N   0  0  0  0  0  0  0  0  0  0  0  0
   10.7860  -17.4198   23.6260 C   0  0  1  0  0  0  0  0  0  0  0  0
   12.1435  -17.4772   22.9658 C   0  0  0  0  0  0  0  0  0  0  0  0
   13.0677  -16.3769   23.3475 C   0  0  0  0  0  0  0  0  0  0  0  0
   14.3924  -16.4105   22.7278 C   0  0  0  0  0  0  0  0  0  0  0  0
   15.2606  -15.5438   22.9697 O   0  0  0  0  0  0  0  0  0  0  0  0
   11.0547  -17.4088   25.1111 C   0  0  0  0  0  0  0  0  0  0  0  0
   10.8353  -16.4208   25.8200 O   0  0  0  0  0  0  0  0  0  0  0  0
   14.6957  -17.4298   21.8482 O   0  0  0  0  0  0  0  0  0  0  0  0
   11.5689  -18.5587   25.6960 O   0  0  0  0  0  0  0  0  0  0  0  0
  2  1  1  1
  2  3  1  0
  4  5  1  6
  4  2  1  0
  4  6  1  0
  6  7  2  0
  9  8  1  6
  9 11  1  0
 10  9  1  0
 11 13  1  0
 12  6  1  0
 11 12  1  6
 13 15  1  0
 13 14  2  0
 15 16  1  0
 16 21  1  0
 16 17  1  6
 18 19  1  0
 18 17  1  0
 19 20  2  0
 21 22  2  0
 21 24  1  0
 23 19  1  0
M  END
$$$$
