TTE.pdb
     RDKit          3D

 24 23  0  0  1  0  0  0  0  0999 V2000
    7.5863  -19.3057   18.4438 C   0  0  0  0  0  0  0  0  0  0  0  0
    8.0752  -18.7027   17.1345 C   0  0  1  0  0  0  0  0  0  0  0  0
    7.5757  -19.3752   16.0444 O   0  0  0  0  0  0  0  0  0  0  0  0
    7.7409  -17.2295   17.1421 C   0  0  2  0  0  0  0  0  0  0  0  0
    8.0134  -16.7055   15.8193 N   0  0  0  0  0  0  0  0  0  0  0  0
    8.5174  -16.4736   18.1327 C   0  0  0  0  0  0  0  0  0  0  0  0
    9.7651  -16.3939   18.0171 O   0  0  0  0  0  0  0  0  0  0  0  0
    7.1620  -13.0962   20.0508 C   0  0  0  0  0  0  0  0  0  0  0  0
    7.7121  -14.1736   20.9812 C   0  0  1  0  0  0  0  0  0  0  0  0
    6.6809  -14.9123   21.5557 O   0  0  0  0  0  0  0  0  0  0  0  0
    8.6859  -15.0847   20.2418 C   0  0  2  0  0  0  0  0  0  0  0  0
    7.9435  -15.8042   19.2480 N   0  0  0  0  0  0  0  0  0  0  0  0
    9.3101  -15.9676   21.2502 C   0  0  0  0  0  0  0  0  0  0  0  0
    8.7903  -17.0837   21.4673 O   0  0  0  0  0  0  0  0  0  0  0  0
   10.4536  -15.5791   21.9525 N   0  0  0  0  0  0  0  0  0  0  0  0
   11.1589  -16.4056   22.9111 C   0  0  1  0  0  0  0  0  0  0  0  0
   12.6156  -16.0060   22.8991 C   0  0  0  0  0  0  0  0  0  0  0  0
   13.4716  -16.7462   23.8633 C   0  0  0  0  0  0  0  0  0  0  0  0
   14.8909  -16.3918   23.8614 C   0  0  0  0  0  0  0  0  0  0  0  0
   15.3647  -15.5533   23.0640 O   0  0  0  0  0  0  0  0  0  0  0  0
   10.6672  -16.1136   24.3079 C   0  0  0  0  0  0  0  0  0  0  0  0
   10.0536  -15.0802   24.5952 O   0  0  0  0  0  0  0  0  0  0  0  0
   15.7355  -17.0009   24.7672 O   0  0  0  0  0  0  0  0  0  0  0  0
   10.9187  -17.0486   25.3035 O   0  0  0  0  0  0  0  0  0  0  0  0
  2  1  1  1
  2  3  1  0
  4  5  1  6
  4  2  1  0
  4  6  1  0
  6  7  2  0
  9  8  1  6
  9 11  1  0
 10  9  1  0
 11 13  1  0
 12  6  1  0
 11 12  1  6
 13 15  1  0
 13 14  2  0
 15 16  1  0
 16 21  1  0
 16 17  1  1
 18 19  1  0
 18 17  1  0
 19 20  2  0
 21 22  2  0
 21 24  1  0
 23 19  1  0
M  END
$$$$
