TTE.pdb
     RDKit          3D

 24 23  0  0  1  0  0  0  0  0999 V2000
    8.9109  -19.8355   19.6558 C   0  0  0  0  0  0  0  0  0  0  0  0
    9.3696  -19.2372   18.3333 C   0  0  1  0  0  0  0  0  0  0  0  0
    9.0414  -20.0415   17.2678 O   0  0  0  0  0  0  0  0  0  0  0  0
    8.8088  -17.8382   18.2310 C   0  0  2  0  0  0  0  0  0  0  0  0
    9.1568  -17.3147   16.9258 N   0  0  0  0  0  0  0  0  0  0  0  0
    9.3279  -16.9385   19.2686 C   0  0  0  0  0  0  0  0  0  0  0  0
   10.5380  -16.6039   19.2546 O   0  0  0  0  0  0  0  0  0  0  0  0
    7.5042  -13.7745   21.1580 C   0  0  0  0  0  0  0  0  0  0  0  0
    7.9242  -14.9103   22.0868 C   0  0  1  0  0  0  0  0  0  0  0  0
    6.8408  -15.7276   22.3990 O   0  0  0  0  0  0  0  0  0  0  0  0
    9.0584  -15.7234   21.4725 C   0  0  2  0  0  0  0  0  0  0  0  0
    8.5374  -16.4011   20.3210 N   0  0  0  0  0  0  0  0  0  0  0  0
    9.5483  -16.6487   22.5165 C   0  0  0  0  0  0  0  0  0  0  0  0
    9.0475  -17.7924   22.5806 O   0  0  0  0  0  0  0  0  0  0  0  0
   10.5464  -16.2697   23.4175 N   0  0  0  0  0  0  0  0  0  0  0  0
   11.1254  -17.1344   24.4256 C   0  0  1  0  0  0  0  0  0  0  0  0
   12.5909  -17.3166   24.1077 C   0  0  0  0  0  0  0  0  0  0  0  0
   13.3849  -16.0596   24.0922 C   0  0  0  0  0  0  0  0  0  0  0  0
   14.7220  -16.1550   23.5065 C   0  0  0  0  0  0  0  0  0  0  0  0
   15.4079  -15.1416   23.2493 O   0  0  0  0  0  0  0  0  0  0  0  0
   11.0814  -16.4593   25.7748 C   0  0  0  0  0  0  0  0  0  0  0  0
   11.4841  -17.0070   26.8066 O   0  0  0  0  0  0  0  0  0  0  0  0
   15.2449  -17.4015   23.2281 O   0  0  0  0  0  0  0  0  0  0  0  0
   10.5664  -15.1717   25.8505 O   0  0  0  0  0  0  0  0  0  0  0  0
  2  1  1  1
  2  3  1  0
  4  5  1  6
  4  2  1  0
  4  6  1  0
  6  7  2  0
  9  8  1  6
  9 11  1  0
 10  9  1  0
 11 13  1  0
 12  6  1  0
 11 12  1  6
 13 15  1  0
 13 14  2  0
 15 16  1  0
 16 21  1  0
 16 17  1  6
 18 19  1  0
 18 17  1  0
 19 20  2  0
 21 22  2  0
 21 24  1  0
 23 19  1  0
M  END
$$$$
