TTE.pdb
     RDKit          3D

 24 23  0  0  1  0  0  0  0  0999 V2000
    8.6611  -16.8248   17.7961 C   0  0  0  0  0  0  0  0  0  0  0  0
    8.6892  -15.4490   17.1453 C   0  0  1  0  0  0  0  0  0  0  0  0
    8.1577  -15.4727   15.8777 O   0  0  0  0  0  0  0  0  0  0  0  0
    7.9991  -14.4765   18.0728 C   0  0  2  0  0  0  0  0  0  0  0  0
    7.8888  -13.2073   17.3831 N   0  0  0  0  0  0  0  0  0  0  0  0
    8.7229  -14.2812   19.3352 C   0  0  0  0  0  0  0  0  0  0  0  0
    9.8191  -13.6689   19.3366 O   0  0  0  0  0  0  0  0  0  0  0  0
    7.1651  -13.2910   22.9201 C   0  0  0  0  0  0  0  0  0  0  0  0
    7.9692  -14.5874   22.9634 C   0  0  1  0  0  0  0  0  0  0  0  0
    7.1301  -15.6979   22.9244 O   0  0  0  0  0  0  0  0  0  0  0  0
    8.9855  -14.6347   21.8276 C   0  0  2  0  0  0  0  0  0  0  0  0
    8.2602  -14.7484   20.5957 N   0  0  0  0  0  0  0  0  0  0  0  0
    9.8748  -15.7876   22.0844 C   0  0  0  0  0  0  0  0  0  0  0  0
    9.5448  -16.9058   21.6333 O   0  0  0  0  0  0  0  0  0  0  0  0
   11.0593  -15.6477   22.8120 N   0  0  0  0  0  0  0  0  0  0  0  0
   12.0332  -16.6998   23.0211 C   0  0  1  0  0  0  0  0  0  0  0  0
   13.4066  -16.0721   23.0610 C   0  0  0  0  0  0  0  0  0  0  0  0
   14.5150  -17.0188   23.3543 C   0  0  0  0  0  0  0  0  0  0  0  0
   15.8549  -16.4351   23.4168 C   0  0  0  0  0  0  0  0  0  0  0  0
   16.8623  -17.1153   23.7099 O   0  0  0  0  0  0  0  0  0  0  0  0
   11.8328  -17.3294   24.3781 C   0  0  0  0  0  0  0  0  0  0  0  0
   11.2041  -16.7721   25.2842 O   0  0  0  0  0  0  0  0  0  0  0  0
   16.0146  -15.0917   23.1440 O   0  0  0  0  0  0  0  0  0  0  0  0
   12.3798  -18.5849   24.6090 O   0  0  0  0  0  0  0  0  0  0  0  0
  2  1  1  1
  2  3  1  0
  4  5  1  6
  4  2  1  0
  4  6  1  0
  6  7  2  0
  9  8  1  6
  9 11  1  0
 10  9  1  0
 11 13  1  0
 12  6  1  0
 11 12  1  6
 13 15  1  0
 13 14  2  0
 15 16  1  0
 16 21  1  0
 16 17  1  1
 18 19  1  0
 18 17  1  0
 19 20  2  0
 21 22  2  0
 21 24  1  0
 23 19  1  0
M  END
$$$$
