TTE.pdb
     RDKit          3D

 24 23  0  0  1  0  0  0  0  0999 V2000
    7.2168  -16.2086   19.8509 C   0  0  0  0  0  0  0  0  0  0  0  0
    7.9094  -15.0130   19.2123 C   0  0  1  0  0  0  0  0  0  0  0  0
    7.5909  -14.8895   17.8807 O   0  0  0  0  0  0  0  0  0  0  0  0
    7.5786  -13.7866   20.0300 C   0  0  2  0  0  0  0  0  0  0  0  0
    8.0489  -12.6266   19.3007 N   0  0  0  0  0  0  0  0  0  0  0  0
    8.1964  -13.8055   21.3618 C   0  0  0  0  0  0  0  0  0  0  0  0
    9.4314  -13.6112   21.4785 O   0  0  0  0  0  0  0  0  0  0  0  0
    6.6494  -12.4789   24.8836 C   0  0  0  0  0  0  0  0  0  0  0  0
    7.0362  -13.9548   24.9153 C   0  0  1  0  0  0  0  0  0  0  0  0
    5.9162  -14.7687   24.7662 O   0  0  0  0  0  0  0  0  0  0  0  0
    8.0795  -14.2662   23.8477 C   0  0  2  0  0  0  0  0  0  0  0  0
    7.4777  -14.0346   22.5668 N   0  0  0  0  0  0  0  0  0  0  0  0
    8.5008  -15.6697   24.0443 C   0  0  0  0  0  0  0  0  0  0  0  0
    7.9720  -16.5544   23.3368 O   0  0  0  0  0  0  0  0  0  0  0  0
    9.4655  -16.0159   24.9936 N   0  0  0  0  0  0  0  0  0  0  0  0
    9.9471  -17.3612   25.2340 C   0  0  1  0  0  0  0  0  0  0  0  0
   11.0987  -17.6265   24.2931 C   0  0  0  0  0  0  0  0  0  0  0  0
   12.2674  -16.7247   24.4706 C   0  0  0  0  0  0  0  0  0  0  0  0
   13.4050  -16.9702   23.5842 C   0  0  0  0  0  0  0  0  0  0  0  0
   13.3969  -17.8846   22.7314 O   0  0  0  0  0  0  0  0  0  0  0  0
   10.5244  -17.4642   26.6247 C   0  0  0  0  0  0  0  0  0  0  0  0
   10.9366  -18.5289   27.0972 O   0  0  0  0  0  0  0  0  0  0  0  0
   14.5234  -16.1686   23.6907 O   0  0  0  0  0  0  0  0  0  0  0  0
   10.5912  -16.3119   27.3971 O   0  0  0  0  0  0  0  0  0  0  0  0
  2  1  1  1
  2  3  1  0
  4  5  1  6
  4  2  1  0
  4  6  1  0
  6  7  2  0
  9  8  1  6
  9 11  1  0
 10  9  1  0
 11 13  1  0
 12  6  1  0
 11 12  1  6
 13 15  1  0
 13 14  2  0
 15 16  1  0
 16 21  1  0
 16 17  1  6
 18 19  1  0
 18 17  1  0
 19 20  2  0
 21 22  2  0
 21 24  1  0
 23 19  1  0
M  END
$$$$
