TTE.pdb
     RDKit          3D

 24 23  0  0  1  0  0  0  0  0999 V2000
    8.7488  -19.8232   19.6208 C   0  0  0  0  0  0  0  0  0  0  0  0
    9.2328  -19.1104   18.3659 C   0  0  1  0  0  0  0  0  0  0  0  0
    8.9385  -19.8234   17.2279 O   0  0  0  0  0  0  0  0  0  0  0  0
    8.6602  -17.7125   18.3693 C   0  0  2  0  0  0  0  0  0  0  0  0
    8.9128  -17.1260   17.0690 N   0  0  0  0  0  0  0  0  0  0  0  0
    9.2474  -16.8583   19.4091 C   0  0  0  0  0  0  0  0  0  0  0  0
   10.4323  -16.4596   19.2921 O   0  0  0  0  0  0  0  0  0  0  0  0
    7.3639  -13.8984   21.3612 C   0  0  0  0  0  0  0  0  0  0  0  0
    8.0022  -14.8982   22.3214 C   0  0  1  0  0  0  0  0  0  0  0  0
    7.0500  -15.7729   22.8384 O   0  0  0  0  0  0  0  0  0  0  0  0
    9.1292  -15.6648   21.6379 C   0  0  2  0  0  0  0  0  0  0  0  0
    8.5524  -16.4357   20.5751 N   0  0  0  0  0  0  0  0  0  0  0  0
    9.7800  -16.4987   22.6709 C   0  0  0  0  0  0  0  0  0  0  0  0
    9.3119  -17.6350   22.9002 O   0  0  0  0  0  0  0  0  0  0  0  0
   10.8924  -16.0427   23.3826 N   0  0  0  0  0  0  0  0  0  0  0  0
   11.5744  -16.7875   24.4216 C   0  0  1  0  0  0  0  0  0  0  0  0
   12.9881  -16.2658   24.5274 C   0  0  0  0  0  0  0  0  0  0  0  0
   13.9320  -16.8182   23.5201 C   0  0  0  0  0  0  0  0  0  0  0  0
   15.3061  -16.3216   23.5914 C   0  0  0  0  0  0  0  0  0  0  0  0
   16.2597  -17.0541   23.9346 O   0  0  0  0  0  0  0  0  0  0  0  0
   10.9363  -16.5113   25.7612 C   0  0  0  0  0  0  0  0  0  0  0  0
   10.0868  -15.6290   25.9246 O   0  0  0  0  0  0  0  0  0  0  0  0
   15.5605  -15.0038   23.2703 O   0  0  0  0  0  0  0  0  0  0  0  0
   11.3250  -17.2840   26.8478 O   0  0  0  0  0  0  0  0  0  0  0  0
  2  1  1  1
  2  3  1  0
  4  5  1  6
  4  2  1  0
  4  6  1  0
  6  7  2  0
  9  8  1  6
  9 11  1  0
 10  9  1  0
 11 13  1  0
 12  6  1  0
 11 12  1  6
 13 15  1  0
 13 14  2  0
 15 16  1  0
 16 21  1  0
 16 17  1  1
 18 19  1  0
 18 17  1  0
 19 20  2  0
 21 22  2  0
 21 24  1  0
 23 19  1  0
M  END
$$$$
