TTE.pdb
     RDKit          3D

 24 23  0  0  1  0  0  0  0  0999 V2000
   12.3156  -16.9369   16.8325 C   0  0  0  0  0  0  0  0  0  0  0  0
   13.4893  -15.9677   16.8409 C   0  0  1  0  0  0  0  0  0  0  0  0
   14.3080  -16.1476   15.7512 O   0  0  0  0  0  0  0  0  0  0  0  0
   12.9398  -14.5656   16.9602 C   0  0  2  0  0  0  0  0  0  0  0  0
   14.0561  -13.6444   16.8971 N   0  0  0  0  0  0  0  0  0  0  0  0
   12.2007  -14.3472   18.2098 C   0  0  0  0  0  0  0  0  0  0  0  0
   12.8252  -14.2565   19.2953 O   0  0  0  0  0  0  0  0  0  0  0  0
    7.7219  -13.6204   20.3475 C   0  0  0  0  0  0  0  0  0  0  0  0
    8.5617  -14.0046   19.1325 C   0  0  1  0  0  0  0  0  0  0  0  0
    8.3714  -13.1038   18.0879 O   0  0  0  0  0  0  0  0  0  0  0  0
   10.0378  -14.1039   19.5016 C   0  0  2  0  0  0  0  0  0  0  0  0
   10.7860  -14.2269   18.2844 N   0  0  0  0  0  0  0  0  0  0  0  0
   10.1877  -15.2733   20.3940 C   0  0  0  0  0  0  0  0  0  0  0  0
   10.4306  -16.3867   19.8802 O   0  0  0  0  0  0  0  0  0  0  0  0
   10.0637  -15.1538   21.7804 N   0  0  0  0  0  0  0  0  0  0  0  0
   10.6606  -16.0532   22.7469 C   0  0  1  0  0  0  0  0  0  0  0  0
   12.1585  -15.8620   22.7092 C   0  0  0  0  0  0  0  0  0  0  0  0
   12.9250  -16.7775   23.5952 C   0  0  0  0  0  0  0  0  0  0  0  0
   14.3724  -16.5688   23.6318 C   0  0  0  0  0  0  0  0  0  0  0  0
   14.9822  -15.9828   22.7108 O   0  0  0  0  0  0  0  0  0  0  0  0
   10.2353  -15.6697   24.1434 C   0  0  0  0  0  0  0  0  0  0  0  0
   10.5333  -16.3400   25.1377 O   0  0  0  0  0  0  0  0  0  0  0  0
   15.0896  -17.0323   24.7160 O   0  0  0  0  0  0  0  0  0  0  0  0
    9.4793  -14.5164   24.3082 O   0  0  0  0  0  0  0  0  0  0  0  0
  2  1  1  6
  2  3  1  0
  4  5  1  1
  4  2  1  0
  4  6  1  0
  6  7  2  0
  9  8  1  1
  9 11  1  0
 10  9  1  0
 11 13  1  0
 12  6  1  0
 11 12  1  6
 13 15  1  0
 13 14  2  0
 15 16  1  0
 16 21  1  0
 16 17  1  1
 18 19  1  0
 18 17  1  0
 19 20  2  0
 21 22  2  0
 21 24  1  0
 23 19  1  0
M  END
$$$$
