TTE.pdb
     RDKit          3D

 24 23  0  0  1  0  0  0  0  0999 V2000
    8.0872  -17.0682   21.0951 C   0  0  0  0  0  0  0  0  0  0  0  0
    6.8303  -16.2286   21.2751 C   0  0  1  0  0  0  0  0  0  0  0  0
    6.0952  -16.6363   22.3629 O   0  0  0  0  0  0  0  0  0  0  0  0
    7.2400  -14.7757   21.3317 C   0  0  2  0  0  0  0  0  0  0  0  0
    7.9796  -14.4754   20.1228 N   0  0  0  0  0  0  0  0  0  0  0  0
    8.0727  -14.4631   22.4999 C   0  0  0  0  0  0  0  0  0  0  0  0
    9.3136  -14.6476   22.4477 O   0  0  0  0  0  0  0  0  0  0  0  0
    6.2333  -13.2828   26.2054 C   0  0  0  0  0  0  0  0  0  0  0  0
    7.5975  -12.7420   25.7864 C   0  0  1  0  0  0  0  0  0  0  0  0
    8.3606  -12.3943   26.8981 O   0  0  0  0  0  0  0  0  0  0  0  0
    8.3372  -13.7503   24.9140 C   0  0  2  0  0  0  0  0  0  0  0  0
    7.5624  -13.9512   23.7241 N   0  0  0  0  0  0  0  0  0  0  0  0
    8.5007  -14.9833   25.7134 C   0  0  0  0  0  0  0  0  0  0  0  0
    7.5577  -15.8036   25.7417 O   0  0  0  0  0  0  0  0  0  0  0  0
    9.6745  -15.2408   26.4259 N   0  0  0  0  0  0  0  0  0  0  0  0
    9.9092  -16.4156   27.2408 C   0  0  1  0  0  0  0  0  0  0  0  0
   11.1391  -17.1178   26.7155 C   0  0  0  0  0  0  0  0  0  0  0  0
   10.8782  -18.4343   26.0757 C   0  0  0  0  0  0  0  0  0  0  0  0
   12.0561  -19.1561   25.5944 C   0  0  0  0  0  0  0  0  0  0  0  0
   12.5601  -20.1052   26.2336 O   0  0  0  0  0  0  0  0  0  0  0  0
   10.2450  -16.0072   28.6544 C   0  0  0  0  0  0  0  0  0  0  0  0
   10.4502  -14.8322   28.9769 O   0  0  0  0  0  0  0  0  0  0  0  0
   12.6308  -18.7794   24.3976 O   0  0  0  0  0  0  0  0  0  0  0  0
   10.3245  -16.9975   29.6248 O   0  0  0  0  0  0  0  0  0  0  0  0
  2  1  1  1
  2  3  1  0
  4  5  1  6
  4  2  1  0
  4  6  1  0
  6  7  2  0
  9  8  1  1
  9 11  1  0
 10  9  1  0
 11 13  1  0
 12  6  1  0
 11 12  1  6
 13 15  1  0
 13 14  2  0
 15 16  1  0
 16 21  1  0
 16 17  1  6
 18 19  1  0
 18 17  1  0
 19 20  2  0
 21 22  2  0
 21 24  1  0
 23 19  1  0
M  END
$$$$
