LQQ.pdb
     RDKit          3D

 27 26  0  0  1  0  0  0  0  0999 V2000
    7.3700  -11.6870   27.9281 C   0  0  0  0  0  0  0  0  0  0  0  0
    6.5564  -12.6603   27.1441 C   0  0  1  0  0  0  0  0  0  0  0  0
    5.3784  -12.0198   26.4536 C   0  0  0  0  0  0  0  0  0  0  0  0
    7.3728  -13.4369   26.1378 C   0  0  0  0  0  0  0  0  0  0  0  0
    6.5322  -14.4700   25.4414 C   0  0  2  0  0  0  0  0  0  0  0  0
    6.1331  -15.4753   26.3941 N   0  0  0  0  0  0  0  0  0  0  0  0
    7.1830  -15.0336   24.2482 C   0  0  0  0  0  0  0  0  0  0  0  0
    7.7541  -16.1681   24.3655 O   0  0  0  0  0  0  0  0  0  0  0  0
    7.2463  -12.9666   18.2074 N   0  0  0  0  0  0  0  0  0  0  0  0
    8.2473  -13.9922   18.2155 C   0  0  0  0  0  0  0  0  0  0  0  0
    8.7226  -14.4158   17.1546 O   0  0  0  0  0  0  0  0  0  0  0  0
    8.6981  -14.5346   19.5137 C   0  0  0  0  0  0  0  0  0  0  0  0
    7.8978  -14.0399   20.6763 C   0  0  0  0  0  0  0  0  0  0  0  0
    8.0914  -14.8878   21.8787 C   0  0  2  0  0  0  0  0  0  0  0  0
    7.2320  -14.4335   22.9897 N   0  0  0  0  0  0  0  0  0  0  0  0
    9.4926  -14.9967   22.3561 C   0  0  0  0  0  0  0  0  0  0  0  0
   10.1606  -14.0025   22.7028 O   0  0  0  0  0  0  0  0  0  0  0  0
   11.5692  -18.0962   26.9328 N   0  0  0  0  0  0  0  0  0  0  0  0
   10.8134  -18.7325   25.9292 C   0  0  0  0  0  0  0  0  0  0  0  0
   10.1765  -19.7668   26.2334 O   0  0  0  0  0  0  0  0  0  0  0  0
   10.7902  -18.1779   24.5705 C   0  0  0  0  0  0  0  0  0  0  0  0
   11.5280  -16.9073   24.3729 C   0  0  0  0  0  0  0  0  0  0  0  0
   11.5333  -16.3536   22.9839 C   0  0  2  0  0  0  0  0  0  0  0  0
   10.1667  -16.2591   22.4478 N   0  0  0  0  0  0  0  0  0  0  0  0
   12.4037  -17.1151   22.0615 C   0  0  0  0  0  0  0  0  0  0  0  0
   11.8964  -17.7388   20.9330 O   0  0  0  0  0  0  0  0  0  0  0  0
   13.6444  -17.2295   22.2628 O   0  0  0  0  0  0  0  0  0  0  0  0
  2  1  1  6
  2  3  1  0
  4  2  1  0
  5  4  1  0
  5  6  1  1
  7  8  2  0
  7  5  1  0
  9 10  1  0
 10 12  1  0
 11 10  2  0
 12 13  1  0
 14 13  1  6
 14 15  1  0
 15  7  1  0
 16 17  2  0
 16 14  1  0
 18 19  1  0
 19 21  1  0
 20 19  2  0
 21 22  1  0
 23 22  1  1
 23 24  1  0
 24 16  1  0
 25 23  1  0
 26 25  1  0
 27 25  2  0
M  END
$$$$
