LQQ.pdb
     RDKit          3D

 27 26  0  0  1  0  0  0  0  0999 V2000
    7.7819  -12.5980   18.7704 C   0  0  0  0  0  0  0  0  0  0  0  0
    7.9296  -14.0412   19.1159 C   0  0  1  0  0  0  0  0  0  0  0  0
    9.3686  -14.4910   19.1577 C   0  0  0  0  0  0  0  0  0  0  0  0
    7.2451  -14.4115   20.4107 C   0  0  0  0  0  0  0  0  0  0  0  0
    7.3733  -15.8831   20.6884 C   0  0  2  0  0  0  0  0  0  0  0  0
    6.5710  -16.6147   19.7404 N   0  0  0  0  0  0  0  0  0  0  0  0
    7.0759  -16.2337   22.0861 C   0  0  0  0  0  0  0  0  0  0  0  0
    5.8879  -16.0362   22.5062 O   0  0  0  0  0  0  0  0  0  0  0  0
    7.9750  -21.2956   25.1798 N   0  0  0  0  0  0  0  0  0  0  0  0
    7.4761  -20.4536   26.2266 C   0  0  0  0  0  0  0  0  0  0  0  0
    7.1277  -20.9374   27.3109 O   0  0  0  0  0  0  0  0  0  0  0  0
    7.3838  -18.9990   25.9853 C   0  0  0  0  0  0  0  0  0  0  0  0
    7.7154  -18.6059   24.5808 C   0  0  0  0  0  0  0  0  0  0  0  0
    7.6534  -17.1354   24.3914 C   0  0  2  0  0  0  0  0  0  0  0  0
    7.9844  -16.7674   23.0006 N   0  0  0  0  0  0  0  0  0  0  0  0
    8.4953  -16.3424   25.3218 C   0  0  0  0  0  0  0  0  0  0  0  0
    9.7352  -16.2733   25.2085 O   0  0  0  0  0  0  0  0  0  0  0  0
    6.1713  -11.5327   28.5293 N   0  0  0  0  0  0  0  0  0  0  0  0
    6.4982  -11.6145   27.1618 C   0  0  0  0  0  0  0  0  0  0  0  0
    6.0080  -10.7647   26.3838 O   0  0  0  0  0  0  0  0  0  0  0  0
    7.3917  -12.6778   26.6872 C   0  0  0  0  0  0  0  0  0  0  0  0
    7.9845  -13.5456   27.7327 C   0  0  0  0  0  0  0  0  0  0  0  0
    8.7642  -14.7266   27.2496 C   0  0  2  0  0  0  0  0  0  0  0  0
    7.9304  -15.6037   26.4134 N   0  0  0  0  0  0  0  0  0  0  0  0
    9.3903  -15.4944   28.3480 C   0  0  0  0  0  0  0  0  0  0  0  0
   10.3935  -14.9508   29.1342 O   0  0  0  0  0  0  0  0  0  0  0  0
    9.0383  -16.6765   28.6157 O   0  0  0  0  0  0  0  0  0  0  0  0
  2  1  1  1
  2  3  1  0
  4  2  1  0
  5  4  1  0
  5  6  1  6
  7  8  2  0
  7  5  1  0
  9 10  1  0
 10 12  1  0
 11 10  2  0
 12 13  1  0
 14 13  1  6
 14 15  1  0
 15  7  1  0
 16 17  2  0
 16 14  1  0
 18 19  1  0
 19 21  1  0
 20 19  2  0
 21 22  1  0
 23 22  1  1
 23 24  1  0
 24 16  1  0
 25 23  1  0
 26 25  1  0
 27 25  2  0
M  END
$$$$
