LQQ.pdb
     RDKit          3D

 27 26  0  0  1  0  0  0  0  0999 V2000
    6.5992  -11.8404   27.4801 C   0  0  0  0  0  0  0  0  0  0  0  0
    6.0633  -12.8969   26.5743 C   0  0  1  0  0  0  0  0  0  0  0  0
    5.2285  -12.3383   25.4492 C   0  0  0  0  0  0  0  0  0  0  0  0
    7.1407  -13.7927   26.0095 C   0  0  0  0  0  0  0  0  0  0  0  0
    6.5449  -14.9141   25.2055 C   0  0  2  0  0  0  0  0  0  0  0  0
    5.7857  -15.7718   26.0805 N   0  0  0  0  0  0  0  0  0  0  0  0
    7.5424  -15.6440   24.4071 C   0  0  0  0  0  0  0  0  0  0  0  0
    8.1270  -16.6370   24.9540 O   0  0  0  0  0  0  0  0  0  0  0  0
    7.8488  -17.8999   19.2842 N   0  0  0  0  0  0  0  0  0  0  0  0
    9.2703  -17.7204   19.3153 C   0  0  0  0  0  0  0  0  0  0  0  0
   10.0157  -18.4948   18.7025 O   0  0  0  0  0  0  0  0  0  0  0  0
    9.8275  -16.5955   20.0944 C   0  0  0  0  0  0  0  0  0  0  0  0
    8.7979  -15.8467   20.8793 C   0  0  0  0  0  0  0  0  0  0  0  0
    8.9654  -16.0476   22.3400 C   0  0  2  0  0  0  0  0  0  0  0  0
    7.9091  -15.3448   23.0947 N   0  0  0  0  0  0  0  0  0  0  0  0
   10.2928  -15.6642   22.8823 C   0  0  0  0  0  0  0  0  0  0  0  0
   10.6620  -14.4765   22.9707 O   0  0  0  0  0  0  0  0  0  0  0  0
   11.5902  -15.3280   28.1271 N   0  0  0  0  0  0  0  0  0  0  0  0
   11.6101  -16.6752   27.7172 C   0  0  0  0  0  0  0  0  0  0  0  0
   11.4697  -17.5620   28.5899 O   0  0  0  0  0  0  0  0  0  0  0  0
   11.7927  -17.0040   26.2985 C   0  0  0  0  0  0  0  0  0  0  0  0
   12.2669  -15.9002   25.4298 C   0  0  0  0  0  0  0  0  0  0  0  0
   12.4926  -16.2399   23.9911 C   0  0  2  0  0  0  0  0  0  0  0  0
   11.2364  -16.6423   23.3401 N   0  0  0  0  0  0  0  0  0  0  0  0
   13.5342  -17.2723   23.7976 C   0  0  0  0  0  0  0  0  0  0  0  0
   14.8413  -17.0716   24.2111 O   0  0  0  0  0  0  0  0  0  0  0  0
   13.2773  -18.3789   23.2479 O   0  0  0  0  0  0  0  0  0  0  0  0
  2  1  1  6
  2  3  1  0
  4  2  1  0
  5  4  1  0
  5  6  1  1
  7  8  2  0
  7  5  1  0
  9 10  1  0
 10 12  1  0
 11 10  2  0
 12 13  1  0
 14 13  1  6
 14 15  1  0
 15  7  1  0
 16 17  2  0
 16 14  1  0
 18 19  1  0
 19 21  1  0
 20 19  2  0
 21 22  1  0
 23 22  1  1
 23 24  1  0
 24 16  1  0
 25 23  1  0
 26 25  1  0
 27 25  2  0
M  END
$$$$
