LQQ.pdb
     RDKit          3D

 27 26  0  0  1  0  0  0  0  0999 V2000
    7.0465  -11.7839   26.9461 C   0  0  0  0  0  0  0  0  0  0  0  0
    6.6757  -12.7906   25.9102 C   0  0  1  0  0  0  0  0  0  0  0  0
    6.5329  -12.1917   24.5334 C   0  0  0  0  0  0  0  0  0  0  0  0
    7.6286  -13.9616   25.8571 C   0  0  0  0  0  0  0  0  0  0  0  0
    7.0844  -15.0626   24.9906 C   0  0  2  0  0  0  0  0  0  0  0  0
    5.8890  -15.5936   25.5960 N   0  0  0  0  0  0  0  0  0  0  0  0
    8.0822  -16.0988   24.6811 C   0  0  0  0  0  0  0  0  0  0  0  0
    8.1315  -17.1200   25.4438 O   0  0  0  0  0  0  0  0  0  0  0  0
   12.3346  -17.4653   19.3414 N   0  0  0  0  0  0  0  0  0  0  0  0
   11.6378  -18.3456   20.2322 C   0  0  0  0  0  0  0  0  0  0  0  0
   11.0990  -19.3746   19.8059 O   0  0  0  0  0  0  0  0  0  0  0  0
   11.5736  -17.9994   21.6670 C   0  0  0  0  0  0  0  0  0  0  0  0
   10.5664  -16.9389   21.9795 C   0  0  0  0  0  0  0  0  0  0  0  0
    9.9781  -17.1189   23.3299 C   0  0  2  0  0  0  0  0  0  0  0  0
    8.9866  -16.0642   23.6194 N   0  0  0  0  0  0  0  0  0  0  0  0
   10.9587  -17.1883   24.4421 C   0  0  0  0  0  0  0  0  0  0  0  0
   11.6653  -16.2155   24.7729 O   0  0  0  0  0  0  0  0  0  0  0  0
   11.0235  -20.9684   29.5696 N   0  0  0  0  0  0  0  0  0  0  0  0
   10.6636  -19.6073   29.6067 C   0  0  0  0  0  0  0  0  0  0  0  0
   10.0350  -19.1880   30.6052 O   0  0  0  0  0  0  0  0  0  0  0  0
   11.0273  -18.7252   28.4915 C   0  0  0  0  0  0  0  0  0  0  0  0
   11.7540  -19.3623   27.3673 C   0  0  0  0  0  0  0  0  0  0  0  0
   12.1820  -18.4565   26.2572 C   0  0  2  0  0  0  0  0  0  0  0  0
   11.1538  -18.3850   25.2077 N   0  0  0  0  0  0  0  0  0  0  0  0
   13.4918  -18.8292   25.6795 C   0  0  0  0  0  0  0  0  0  0  0  0
   14.6830  -18.4754   26.2923 O   0  0  0  0  0  0  0  0  0  0  0  0
   13.5803  -19.4846   24.6046 O   0  0  0  0  0  0  0  0  0  0  0  0
  2  1  1  1
  2  3  1  0
  4  2  1  0
  5  4  1  0
  5  6  1  1
  7  8  2  0
  7  5  1  0
  9 10  1  0
 10 12  1  0
 11 10  2  0
 12 13  1  0
 14 13  1  6
 14 15  1  0
 15  7  1  0
 16 17  2  0
 16 14  1  0
 18 19  1  0
 19 21  1  0
 20 19  2  0
 21 22  1  0
 23 22  1  1
 23 24  1  0
 24 16  1  0
 25 23  1  0
 26 25  1  0
 27 25  2  0
M  END
$$$$
