LQQ.pdb
     RDKit          3D

 27 26  0  0  1  0  0  0  0  0999 V2000
    7.1542  -12.2641   27.6014 C   0  0  0  0  0  0  0  0  0  0  0  0
    6.5319  -13.1312   26.5599 C   0  0  1  0  0  0  0  0  0  0  0  0
    5.8527  -12.3429   25.4681 C   0  0  0  0  0  0  0  0  0  0  0  0
    7.5059  -14.1100   25.9473 C   0  0  0  0  0  0  0  0  0  0  0  0
    6.8096  -15.0416   24.9953 C   0  0  2  0  0  0  0  0  0  0  0  0
    5.8328  -15.8149   25.7202 N   0  0  0  0  0  0  0  0  0  0  0  0
    7.7416  -15.8739   24.2184 C   0  0  0  0  0  0  0  0  0  0  0  0
    8.1090  -16.9843   24.7274 O   0  0  0  0  0  0  0  0  0  0  0  0
    9.0802  -16.5685   17.8695 N   0  0  0  0  0  0  0  0  0  0  0  0
    7.9866  -16.2180   18.7269 C   0  0  0  0  0  0  0  0  0  0  0  0
    6.9904  -15.6419   18.2723 O   0  0  0  0  0  0  0  0  0  0  0  0
    8.0732  -16.5553   20.1627 C   0  0  0  0  0  0  0  0  0  0  0  0
    9.3168  -16.0472   20.8201 C   0  0  0  0  0  0  0  0  0  0  0  0
    9.3210  -16.3233   22.2782 C   0  0  2  0  0  0  0  0  0  0  0  0
    8.2637  -15.5549   22.9646 N   0  0  0  0  0  0  0  0  0  0  0  0
   10.6180  -16.0907   22.9615 C   0  0  0  0  0  0  0  0  0  0  0  0
   10.8437  -15.0683   23.6386 O   0  0  0  0  0  0  0  0  0  0  0  0
   10.3762  -18.7411   27.4595 N   0  0  0  0  0  0  0  0  0  0  0  0
   11.7644  -18.5439   27.5922 C   0  0  0  0  0  0  0  0  0  0  0  0
   12.2945  -18.7907   28.6994 O   0  0  0  0  0  0  0  0  0  0  0  0
   12.5459  -18.0606   26.4477 C   0  0  0  0  0  0  0  0  0  0  0  0
   11.7729  -17.7125   25.2315 C   0  0  0  0  0  0  0  0  0  0  0  0
   12.5694  -17.2858   24.0401 C   0  0  2  0  0  0  0  0  0  0  0  0
   11.6959  -17.0332   22.8838 N   0  0  0  0  0  0  0  0  0  0  0  0
   13.6388  -18.2447   23.6862 C   0  0  0  0  0  0  0  0  0  0  0  0
   14.9391  -18.0808   24.1357 O   0  0  0  0  0  0  0  0  0  0  0  0
   13.4129  -19.2520   22.9602 O   0  0  0  0  0  0  0  0  0  0  0  0
  2  1  1  1
  2  3  1  0
  4  2  1  0
  5  4  1  0
  5  6  1  1
  7  8  2  0
  7  5  1  0
  9 10  1  0
 10 12  1  0
 11 10  2  0
 12 13  1  0
 14 13  1  6
 14 15  1  0
 15  7  1  0
 16 17  2  0
 16 14  1  0
 18 19  1  0
 19 21  1  0
 20 19  2  0
 21 22  1  0
 23 22  1  1
 23 24  1  0
 24 16  1  0
 25 23  1  0
 26 25  1  0
 27 25  2  0
M  END
$$$$
