LQQ.pdb
     RDKit          3D

 27 26  0  0  1  0  0  0  0  0999 V2000
    7.5771  -11.9961   19.4143 C   0  0  0  0  0  0  0  0  0  0  0  0
    8.1091  -13.3893   19.4080 C   0  0  1  0  0  0  0  0  0  0  0  0
    9.5056  -13.4825   18.8459 C   0  0  0  0  0  0  0  0  0  0  0  0
    8.0658  -14.0440   20.7687 C   0  0  0  0  0  0  0  0  0  0  0  0
    8.5012  -15.4805   20.6916 C   0  0  2  0  0  0  0  0  0  0  0  0
    7.5575  -16.2182   19.8898 N   0  0  0  0  0  0  0  0  0  0  0  0
    8.7300  -16.0850   22.0134 C   0  0  0  0  0  0  0  0  0  0  0  0
    7.7062  -16.4106   22.7009 O   0  0  0  0  0  0  0  0  0  0  0  0
   13.3335  -19.7800   24.0380 N   0  0  0  0  0  0  0  0  0  0  0  0
   12.5795  -19.5685   25.2382 C   0  0  0  0  0  0  0  0  0  0  0  0
   12.8471  -20.1990   26.2686 O   0  0  0  0  0  0  0  0  0  0  0  0
   11.4763  -18.5859   25.2203 C   0  0  0  0  0  0  0  0  0  0  0  0
   11.2977  -17.9148   23.8957 C   0  0  0  0  0  0  0  0  0  0  0  0
   10.1790  -16.9400   23.9187 C   0  0  2  0  0  0  0  0  0  0  0  0
    9.9768  -16.3362   22.5869 N   0  0  0  0  0  0  0  0  0  0  0  0
   10.3008  -15.8623   24.9321 C   0  0  0  0  0  0  0  0  0  0  0  0
   11.1355  -14.9412   24.8324 O   0  0  0  0  0  0  0  0  0  0  0  0
    5.7292  -12.9850   27.8247 N   0  0  0  0  0  0  0  0  0  0  0  0
    6.4579  -12.5511   26.7003 C   0  0  0  0  0  0  0  0  0  0  0  0
    5.9593  -11.6558   25.9807 O   0  0  0  0  0  0  0  0  0  0  0  0
    7.7646  -13.1493   26.4018 C   0  0  0  0  0  0  0  0  0  0  0  0
    8.2810  -14.1172   27.3989 C   0  0  0  0  0  0  0  0  0  0  0  0
    9.6036  -14.7432   27.0910 C   0  0  2  0  0  0  0  0  0  0  0  0
    9.4612  -15.8150   26.0936 N   0  0  0  0  0  0  0  0  0  0  0  0
   10.3016  -15.2417   28.2962 C   0  0  0  0  0  0  0  0  0  0  0  0
   10.8103  -14.3761   29.2511 O   0  0  0  0  0  0  0  0  0  0  0  0
   10.4639  -16.4756   28.5060 O   0  0  0  0  0  0  0  0  0  0  0  0
  2  1  1  1
  2  3  1  0
  4  2  1  0
  5  4  1  0
  5  6  1  1
  7  8  2  0
  7  5  1  0
  9 10  1  0
 10 12  1  0
 11 10  2  0
 12 13  1  0
 14 13  1  6
 14 15  1  0
 15  7  1  0
 16 17  2  0
 16 14  1  0
 18 19  1  0
 19 21  1  0
 20 19  2  0
 21 22  1  0
 23 22  1  1
 23 24  1  0
 24 16  1  0
 25 23  1  0
 26 25  1  0
 27 25  2  0
M  END
$$$$
