LQQ.pdb
     RDKit          3D

 27 26  0  0  1  0  0  0  0  0999 V2000
    6.3837  -11.6160   26.5120 C   0  0  0  0  0  0  0  0  0  0  0  0
    6.1006  -12.7227   25.5533 C   0  0  1  0  0  0  0  0  0  0  0  0
    5.8301  -12.2322   24.1530 C   0  0  0  0  0  0  0  0  0  0  0  0
    7.1889  -13.7698   25.5221 C   0  0  0  0  0  0  0  0  0  0  0  0
    6.7334  -15.0014   24.7909 C   0  0  2  0  0  0  0  0  0  0  0  0
    5.6657  -15.6239   25.5326 N   0  0  0  0  0  0  0  0  0  0  0  0
    7.8341  -15.9270   24.4798 C   0  0  0  0  0  0  0  0  0  0  0  0
    8.0821  -16.8554   25.3186 O   0  0  0  0  0  0  0  0  0  0  0  0
   10.5201  -17.5265   19.0170 N   0  0  0  0  0  0  0  0  0  0  0  0
   11.4614  -18.0486   19.9631 C   0  0  0  0  0  0  0  0  0  0  0  0
   12.3693  -18.8046   19.5955 O   0  0  0  0  0  0  0  0  0  0  0  0
   11.3251  -17.6689   21.3844 C   0  0  0  0  0  0  0  0  0  0  0  0
   10.1525  -16.7806   21.6539 C   0  0  0  0  0  0  0  0  0  0  0  0
    9.7931  -16.7648   23.0936 C   0  0  2  0  0  0  0  0  0  0  0  0
    8.6375  -15.8798   23.3401 N   0  0  0  0  0  0  0  0  0  0  0  0
   10.8965  -16.3985   24.0163 C   0  0  0  0  0  0  0  0  0  0  0  0
   11.2392  -15.2158   24.2135 O   0  0  0  0  0  0  0  0  0  0  0  0
   10.1752  -14.5844   29.1689 N   0  0  0  0  0  0  0  0  0  0  0  0
   10.8137  -15.8256   29.3564 C   0  0  0  0  0  0  0  0  0  0  0  0
   10.5115  -16.5004   30.3668 O   0  0  0  0  0  0  0  0  0  0  0  0
   11.8039  -16.2922   28.3787 C   0  0  0  0  0  0  0  0  0  0  0  0
   11.3024  -16.5223   27.0027 C   0  0  0  0  0  0  0  0  0  0  0  0
   12.2902  -17.0644   26.0197 C   0  0  2  0  0  0  0  0  0  0  0  0
   11.6395  -17.3881   24.7408 N   0  0  0  0  0  0  0  0  0  0  0  0
   13.0369  -18.2328   26.5353 C   0  0  0  0  0  0  0  0  0  0  0  0
   12.8695  -19.4977   25.9950 O   0  0  0  0  0  0  0  0  0  0  0  0
   13.8573  -18.1277   27.4885 O   0  0  0  0  0  0  0  0  0  0  0  0
  2  1  1  1
  2  3  1  0
  4  2  1  0
  5  4  1  0
  5  6  1  1
  7  8  2  0
  7  5  1  0
  9 10  1  0
 10 12  1  0
 11 10  2  0
 12 13  1  0
 14 13  1  6
 14 15  1  0
 15  7  1  0
 16 17  2  0
 16 14  1  0
 18 19  1  0
 19 21  1  0
 20 19  2  0
 21 22  1  0
 23 22  1  1
 23 24  1  0
 24 16  1  0
 25 23  1  0
 26 25  1  0
 27 25  2  0
M  END
$$$$
