LQQ.pdb
     RDKit          3D

 27 26  0  0  1  0  0  0  0  0999 V2000
    6.3259  -13.1219   18.9241 C   0  0  0  0  0  0  0  0  0  0  0  0
    7.6782  -13.5957   19.3372 C   0  0  1  0  0  0  0  0  0  0  0  0
    8.7107  -12.4964   19.3391 C   0  0  0  0  0  0  0  0  0  0  0  0
    7.6760  -14.2912   20.6782 C   0  0  0  0  0  0  0  0  0  0  0  0
    9.0722  -14.6500   21.1035 C   0  0  2  0  0  0  0  0  0  0  0  0
    9.7461  -15.3040   20.0100 N   0  0  0  0  0  0  0  0  0  0  0  0
    9.1125  -15.4274   22.3521 C   0  0  0  0  0  0  0  0  0  0  0  0
    8.3544  -15.0533   23.3072 O   0  0  0  0  0  0  0  0  0  0  0  0
   12.0969  -20.8958   23.2444 N   0  0  0  0  0  0  0  0  0  0  0  0
   12.6214  -19.7060   22.6417 C   0  0  0  0  0  0  0  0  0  0  0  0
   13.6416  -19.7519   21.9431 O   0  0  0  0  0  0  0  0  0  0  0  0
   11.9224  -18.4251   22.8727 C   0  0  0  0  0  0  0  0  0  0  0  0
   10.6966  -18.5595   23.7190 C   0  0  0  0  0  0  0  0  0  0  0  0
    9.9903  -17.2637   23.8747 C   0  0  2  0  0  0  0  0  0  0  0  0
    9.9121  -16.5463   22.5869 N   0  0  0  0  0  0  0  0  0  0  0  0
   10.5529  -16.3576   24.9071 C   0  0  0  0  0  0  0  0  0  0  0  0
   11.3737  -15.4595   24.6337 O   0  0  0  0  0  0  0  0  0  0  0  0
    6.3782  -13.1194   25.8956 N   0  0  0  0  0  0  0  0  0  0  0  0
    7.2554  -12.5091   26.8131 C   0  0  0  0  0  0  0  0  0  0  0  0
    7.0128  -11.3345   27.1728 O   0  0  0  0  0  0  0  0  0  0  0  0
    8.4160  -13.2520   27.3183 C   0  0  0  0  0  0  0  0  0  0  0  0
    8.7835  -14.4759   26.5669 C   0  0  0  0  0  0  0  0  0  0  0  0
    9.9392  -15.2596   27.1019 C   0  0  2  0  0  0  0  0  0  0  0  0
   10.1843  -16.4608   26.2891 N   0  0  0  0  0  0  0  0  0  0  0  0
    9.7833  -15.6183   28.5286 C   0  0  0  0  0  0  0  0  0  0  0  0
    9.6574  -16.9365   28.9364 O   0  0  0  0  0  0  0  0  0  0  0  0
    9.7579  -14.7400   29.4345 O   0  0  0  0  0  0  0  0  0  0  0  0
  2  1  1  1
  2  3  1  0
  4  2  1  0
  5  4  1  0
  5  6  1  6
  7  8  2  0
  7  5  1  0
  9 10  1  0
 10 12  1  0
 11 10  2  0
 12 13  1  0
 14 13  1  6
 14 15  1  0
 15  7  1  0
 16 17  2  0
 16 14  1  0
 18 19  1  0
 19 21  1  0
 20 19  2  0
 21 22  1  0
 23 22  1  6
 23 24  1  0
 24 16  1  0
 25 23  1  0
 26 25  1  0
 27 25  2  0
M  END
$$$$
