LQQ.pdb
     RDKit          3D

 27 26  0  0  1  0  0  0  0  0999 V2000
    8.5940  -12.9655   26.2910 C   0  0  0  0  0  0  0  0  0  0  0  0
    7.1420  -13.3021   26.3386 C   0  0  1  0  0  0  0  0  0  0  0  0
    6.3234  -12.2700   27.0730 C   0  0  0  0  0  0  0  0  0  0  0  0
    6.5463  -13.5421   24.9712 C   0  0  0  0  0  0  0  0  0  0  0  0
    6.2239  -14.9962   24.7696 C   0  0  2  0  0  0  0  0  0  0  0  0
    5.5175  -15.4885   25.9256 N   0  0  0  0  0  0  0  0  0  0  0  0
    7.4038  -15.8060   24.4278 C   0  0  0  0  0  0  0  0  0  0  0  0
    7.8148  -16.6483   25.2930 O   0  0  0  0  0  0  0  0  0  0  0  0
   11.9783  -17.4797   18.9844 N   0  0  0  0  0  0  0  0  0  0  0  0
   10.6579  -17.6863   19.5016 C   0  0  0  0  0  0  0  0  0  0  0  0
    9.7085  -17.8973   18.7367 O   0  0  0  0  0  0  0  0  0  0  0  0
   10.4523  -17.6398   20.9640 C   0  0  0  0  0  0  0  0  0  0  0  0
    9.4762  -16.5920   21.3953 C   0  0  0  0  0  0  0  0  0  0  0  0
    9.2111  -16.6537   22.8542 C   0  0  2  0  0  0  0  0  0  0  0  0
    8.1193  -15.7347   23.2321 N   0  0  0  0  0  0  0  0  0  0  0  0
   10.3883  -16.3990   23.7215 C   0  0  0  0  0  0  0  0  0  0  0  0
   10.8353  -15.2526   23.9235 O   0  0  0  0  0  0  0  0  0  0  0  0
   12.0213  -19.6536   28.7226 N   0  0  0  0  0  0  0  0  0  0  0  0
   11.0000  -18.7127   28.4877 C   0  0  0  0  0  0  0  0  0  0  0  0
   10.0480  -18.6569   29.2990 O   0  0  0  0  0  0  0  0  0  0  0  0
   11.0735  -17.8330   27.3151 C   0  0  0  0  0  0  0  0  0  0  0  0
   12.2715  -17.9908   26.4563 C   0  0  0  0  0  0  0  0  0  0  0  0
   12.2880  -17.1960   25.1898 C   0  0  2  0  0  0  0  0  0  0  0  0
   11.0868  -17.4622   24.3836 N   0  0  0  0  0  0  0  0  0  0  0  0
   13.5124  -17.4114   24.3882 C   0  0  0  0  0  0  0  0  0  0  0  0
   14.7490  -16.9533   24.8137 O   0  0  0  0  0  0  0  0  0  0  0  0
   13.4833  -18.0206   23.2833 O   0  0  0  0  0  0  0  0  0  0  0  0
  2  1  1  6
  2  3  1  0
  4  2  1  0
  5  4  1  0
  5  6  1  1
  7  8  2  0
  7  5  1  0
  9 10  1  0
 10 12  1  0
 11 10  2  0
 12 13  1  0
 14 13  1  6
 14 15  1  0
 15  7  1  0
 16 17  2  0
 16 14  1  0
 18 19  1  0
 19 21  1  0
 20 19  2  0
 21 22  1  0
 23 22  1  1
 23 24  1  0
 24 16  1  0
 25 23  1  0
 26 25  1  0
 27 25  2  0
M  END
$$$$
