LQQ.pdb
     RDKit          3D

 27 26  0  0  1  0  0  0  0  0999 V2000
    7.4317  -11.9574   28.0258 C   0  0  0  0  0  0  0  0  0  0  0  0
    6.6055  -12.8425   27.1553 C   0  0  1  0  0  0  0  0  0  0  0  0
    5.3287  -12.1861   26.6932 C   0  0  0  0  0  0  0  0  0  0  0  0
    7.3645  -13.3713   25.9610 C   0  0  0  0  0  0  0  0  0  0  0  0
    6.5933  -14.4600   25.2690 C   0  0  2  0  0  0  0  0  0  0  0  0
    6.2502  -15.4794   26.2285 N   0  0  0  0  0  0  0  0  0  0  0  0
    7.2854  -14.9934   24.0852 C   0  0  0  0  0  0  0  0  0  0  0  0
    7.7881  -16.1626   24.1698 O   0  0  0  0  0  0  0  0  0  0  0  0
    8.1562  -12.4994   18.1208 N   0  0  0  0  0  0  0  0  0  0  0  0
    8.3626  -13.9158   18.0507 C   0  0  0  0  0  0  0  0  0  0  0  0
    8.3218  -14.5045   16.9632 O   0  0  0  0  0  0  0  0  0  0  0  0
    8.6225  -14.6586   19.3012 C   0  0  0  0  0  0  0  0  0  0  0  0
    7.9567  -14.0598   20.4991 C   0  0  0  0  0  0  0  0  0  0  0  0
    8.2284  -14.8438   21.7294 C   0  0  2  0  0  0  0  0  0  0  0  0
    7.4425  -14.3293   22.8682 N   0  0  0  0  0  0  0  0  0  0  0  0
    9.6577  -14.9314   22.1201 C   0  0  0  0  0  0  0  0  0  0  0  0
   10.2935  -13.9513   22.5561 O   0  0  0  0  0  0  0  0  0  0  0  0
    9.5787  -16.8759   26.9623 N   0  0  0  0  0  0  0  0  0  0  0  0
   10.9755  -17.0204   26.8554 C   0  0  0  0  0  0  0  0  0  0  0  0
   11.6285  -17.2522   27.8983 O   0  0  0  0  0  0  0  0  0  0  0  0
   11.6239  -16.8975   25.5444 C   0  0  0  0  0  0  0  0  0  0  0  0
   10.7344  -16.5638   24.4064 C   0  0  0  0  0  0  0  0  0  0  0  0
   11.3698  -16.5432   23.0530 C   0  0  2  0  0  0  0  0  0  0  0  0
   10.3980  -16.1554   22.0191 N   0  0  0  0  0  0  0  0  0  0  0  0
   12.0224  -17.8234   22.7013 C   0  0  0  0  0  0  0  0  0  0  0  0
   11.3342  -18.8344   22.0500 O   0  0  0  0  0  0  0  0  0  0  0  0
   13.2325  -18.0495   22.9793 O   0  0  0  0  0  0  0  0  0  0  0  0
  2  1  1  6
  2  3  1  0
  4  2  1  0
  5  4  1  0
  5  6  1  1
  7  8  2  0
  7  5  1  0
  9 10  1  0
 10 12  1  0
 11 10  2  0
 12 13  1  0
 14 13  1  6
 14 15  1  0
 15  7  1  0
 16 17  2  0
 16 14  1  0
 18 19  1  0
 19 21  1  0
 20 19  2  0
 21 22  1  0
 23 22  1  1
 23 24  1  0
 24 16  1  0
 25 23  1  0
 26 25  1  0
 27 25  2  0
M  END
$$$$
