LQQ.pdb
     RDKit          3D

 27 26  0  0  1  0  0  0  0  0999 V2000
    7.5760  -12.4054   28.0527 C   0  0  0  0  0  0  0  0  0  0  0  0
    6.6968  -13.1770   27.1279 C   0  0  1  0  0  0  0  0  0  0  0  0
    5.6336  -12.3254   26.4805 C   0  0  0  0  0  0  0  0  0  0  0  0
    7.4682  -13.9209   26.0631 C   0  0  0  0  0  0  0  0  0  0  0  0
    6.5501  -14.7526   25.2120 C   0  0  2  0  0  0  0  0  0  0  0  0
    6.2233  -15.9670   25.9163 N   0  0  0  0  0  0  0  0  0  0  0  0
    7.0794  -14.9954   23.8607 C   0  0  0  0  0  0  0  0  0  0  0  0
    7.4897  -16.1719   23.5880 O   0  0  0  0  0  0  0  0  0  0  0  0
    6.5162  -14.9683   18.7295 N   0  0  0  0  0  0  0  0  0  0  0  0
    7.7756  -14.3631   18.4112 C   0  0  0  0  0  0  0  0  0  0  0  0
    8.3975  -14.7013   17.3963 O   0  0  0  0  0  0  0  0  0  0  0  0
    8.3173  -13.3307   19.3187 C   0  0  0  0  0  0  0  0  0  0  0  0
    7.5412  -13.1878   20.5891 C   0  0  0  0  0  0  0  0  0  0  0  0
    7.8692  -14.2624   21.5586 C   0  0  2  0  0  0  0  0  0  0  0  0
    7.1735  -14.0462   22.8425 N   0  0  0  0  0  0  0  0  0  0  0  0
    9.3177  -14.4626   21.8137 C   0  0  0  0  0  0  0  0  0  0  0  0
    9.9767  -13.7091   22.5573 O   0  0  0  0  0  0  0  0  0  0  0  0
    9.7259  -18.1881   25.5922 N   0  0  0  0  0  0  0  0  0  0  0  0
   11.1020  -17.9556   25.4032 C   0  0  0  0  0  0  0  0  0  0  0  0
   11.8750  -18.1598   26.3668 O   0  0  0  0  0  0  0  0  0  0  0  0
   11.5910  -17.4861   24.1014 C   0  0  0  0  0  0  0  0  0  0  0  0
   10.6346  -16.6912   23.2944 C   0  0  0  0  0  0  0  0  0  0  0  0
   11.1178  -16.2344   21.9550 C   0  0  2  0  0  0  0  0  0  0  0  0
   10.0510  -15.5409   21.2170 N   0  0  0  0  0  0  0  0  0  0  0  0
   11.6871  -17.3307   21.1412 C   0  0  0  0  0  0  0  0  0  0  0  0
   13.0412  -17.6238   21.1632 O   0  0  0  0  0  0  0  0  0  0  0  0
   10.9647  -18.0452   20.3926 O   0  0  0  0  0  0  0  0  0  0  0  0
  2  1  1  6
  2  3  1  0
  4  2  1  0
  5  4  1  0
  5  6  1  1
  7  8  2  0
  7  5  1  0
  9 10  1  0
 10 12  1  0
 11 10  2  0
 12 13  1  0
 14 13  1  6
 14 15  1  0
 15  7  1  0
 16 17  2  0
 16 14  1  0
 18 19  1  0
 19 21  1  0
 20 19  2  0
 21 22  1  0
 23 22  1  1
 23 24  1  0
 24 16  1  0
 25 23  1  0
 26 25  1  0
 27 25  2  0
M  END
$$$$
