LQQ.pdb
     RDKit          3D

 27 26  0  0  1  0  0  0  0  0999 V2000
    7.3623  -12.3306   21.6701 C   0  0  0  0  0  0  0  0  0  0  0  0
    7.4533  -13.5615   20.8331 C   0  0  1  0  0  0  0  0  0  0  0  0
    7.7182  -13.2645   19.3783 C   0  0  0  0  0  0  0  0  0  0  0  0
    8.4769  -14.5483   21.3434 C   0  0  0  0  0  0  0  0  0  0  0  0
    8.3751  -15.8586   20.6141 C   0  0  2  0  0  0  0  0  0  0  0  0
    7.0678  -16.4233   20.8367 N   0  0  0  0  0  0  0  0  0  0  0  0
    9.4673  -16.7878   20.9437 C   0  0  0  0  0  0  0  0  0  0  0  0
    9.2341  -17.6909   21.8138 O   0  0  0  0  0  0  0  0  0  0  0  0
   13.7204  -19.0856   17.3962 N   0  0  0  0  0  0  0  0  0  0  0  0
   14.3076  -19.4833   18.6415 C   0  0  0  0  0  0  0  0  0  0  0  0
   15.1429  -20.3952   18.6803 O   0  0  0  0  0  0  0  0  0  0  0  0
   13.8946  -18.7856   19.8766 C   0  0  0  0  0  0  0  0  0  0  0  0
   12.8643  -17.7262   19.6464 C   0  0  0  0  0  0  0  0  0  0  0  0
   11.8034  -17.7553   20.6835 C   0  0  2  0  0  0  0  0  0  0  0  0
   10.7457  -16.7696   20.3853 N   0  0  0  0  0  0  0  0  0  0  0  0
   12.2765  -17.5601   22.0769 C   0  0  0  0  0  0  0  0  0  0  0  0
   12.6032  -16.4421   22.5222 O   0  0  0  0  0  0  0  0  0  0  0  0
   10.1652  -19.5142   27.2757 N   0  0  0  0  0  0  0  0  0  0  0  0
   11.4889  -19.3469   27.7268 C   0  0  0  0  0  0  0  0  0  0  0  0
   11.6915  -19.2924   28.9612 O   0  0  0  0  0  0  0  0  0  0  0  0
   12.5835  -19.2412   26.7548 C   0  0  0  0  0  0  0  0  0  0  0  0
   12.2035  -19.3768   25.3283 C   0  0  0  0  0  0  0  0  0  0  0  0
   12.8708  -18.4396   24.3731 C   0  0  2  0  0  0  0  0  0  0  0  0
   12.3870  -18.6517   23.0003 N   0  0  0  0  0  0  0  0  0  0  0  0
   14.3472  -18.5173   24.4236 C   0  0  0  0  0  0  0  0  0  0  0  0
   15.0697  -19.2273   23.4782 O   0  0  0  0  0  0  0  0  0  0  0  0
   15.0112  -17.9411   25.3290 O   0  0  0  0  0  0  0  0  0  0  0  0
  2  1  1  1
  2  3  1  0
  4  2  1  0
  5  4  1  0
  5  6  1  1
  7  8  2  0
  7  5  1  0
  9 10  1  0
 10 12  1  0
 11 10  2  0
 12 13  1  0
 14 13  1  6
 14 15  1  0
 15  7  1  0
 16 17  2  0
 16 14  1  0
 18 19  1  0
 19 21  1  0
 20 19  2  0
 21 22  1  0
 23 22  1  1
 23 24  1  0
 24 16  1  0
 25 23  1  0
 26 25  1  0
 27 25  2  0
M  END
$$$$
