LQQ.pdb
     RDKit          3D

 27 26  0  0  1  0  0  0  0  0999 V2000
    6.9953  -12.7439   19.0337 C   0  0  0  0  0  0  0  0  0  0  0  0
    8.2593  -13.4661   19.3574 C   0  0  1  0  0  0  0  0  0  0  0  0
    9.4295  -12.5380   19.5660 C   0  0  0  0  0  0  0  0  0  0  0  0
    8.1248  -14.3874   20.5470 C   0  0  0  0  0  0  0  0  0  0  0  0
    9.4533  -14.9803   20.9246 C   0  0  2  0  0  0  0  0  0  0  0  0
   10.0186  -15.6434   19.7763 N   0  0  0  0  0  0  0  0  0  0  0  0
    9.3813  -15.8464   22.1119 C   0  0  0  0  0  0  0  0  0  0  0  0
    8.6792  -15.4429   23.0974 O   0  0  0  0  0  0  0  0  0  0  0  0
   10.7733  -21.9599   22.4013 N   0  0  0  0  0  0  0  0  0  0  0  0
    9.7163  -21.2954   21.6979 C   0  0  0  0  0  0  0  0  0  0  0  0
    9.0929  -21.8784   20.8022 O   0  0  0  0  0  0  0  0  0  0  0  0
    9.3877  -19.9015   22.0611 C   0  0  0  0  0  0  0  0  0  0  0  0
   10.2671  -19.3422   23.1338 C   0  0  0  0  0  0  0  0  0  0  0  0
    9.9171  -17.9365   23.4556 C   0  0  2  0  0  0  0  0  0  0  0  0
   10.0174  -17.0795   22.2577 N   0  0  0  0  0  0  0  0  0  0  0  0
   10.6992  -17.3277   24.5605 C   0  0  0  0  0  0  0  0  0  0  0  0
   11.8078  -16.7870   24.3769 O   0  0  0  0  0  0  0  0  0  0  0  0
    9.1463  -13.3426   28.7666 N   0  0  0  0  0  0  0  0  0  0  0  0
    9.2636  -13.3981   27.3643 C   0  0  0  0  0  0  0  0  0  0  0  0
    8.8092  -12.4434   26.6936 O   0  0  0  0  0  0  0  0  0  0  0  0
    9.9054  -14.5560   26.7306 C   0  0  0  0  0  0  0  0  0  0  0  0
   10.3997  -15.6101   27.6484 C   0  0  0  0  0  0  0  0  0  0  0  0
   11.0518  -16.7935   27.0079 C   0  0  2  0  0  0  0  0  0  0  0  0
   10.2245  -17.3245   25.9136 N   0  0  0  0  0  0  0  0  0  0  0  0
   11.3866  -17.8623   27.9743 C   0  0  0  0  0  0  0  0  0  0  0  0
   12.2371  -17.6338   29.0440 O   0  0  0  0  0  0  0  0  0  0  0  0
   10.9128  -19.0270   27.8658 O   0  0  0  0  0  0  0  0  0  0  0  0
  2  1  1  1
  2  3  1  0
  4  2  1  0
  5  4  1  0
  5  6  1  6
  7  8  2  0
  7  5  1  0
  9 10  1  0
 10 12  1  0
 11 10  2  0
 12 13  1  0
 14 13  1  6
 14 15  1  0
 15  7  1  0
 16 17  2  0
 16 14  1  0
 18 19  1  0
 19 21  1  0
 20 19  2  0
 21 22  1  0
 23 22  1  1
 23 24  1  0
 24 16  1  0
 25 23  1  0
 26 25  1  0
 27 25  2  0
M  END
$$$$
