LQQ.pdb
     RDKit          3D

 27 26  0  0  1  0  0  0  0  0999 V2000
    6.6379  -11.4606   25.2944 C   0  0  0  0  0  0  0  0  0  0  0  0
    6.4242  -12.7603   25.9937 C   0  0  1  0  0  0  0  0  0  0  0  0
    5.7712  -12.6008   27.3438 C   0  0  0  0  0  0  0  0  0  0  0  0
    5.6426  -13.7542   25.1671 C   0  0  0  0  0  0  0  0  0  0  0  0
    6.3663  -15.0683   25.0748 C   0  0  2  0  0  0  0  0  0  0  0  0
    7.1926  -15.2361   26.2438 N   0  0  0  0  0  0  0  0  0  0  0  0
    7.1106  -15.2291   23.8157 C   0  0  0  0  0  0  0  0  0  0  0  0
    6.4877  -15.7240   22.8187 O   0  0  0  0  0  0  0  0  0  0  0  0
    7.4812  -12.4026   19.4042 N   0  0  0  0  0  0  0  0  0  0  0  0
    7.9489  -13.7569   19.3741 C   0  0  0  0  0  0  0  0  0  0  0  0
    7.3093  -14.6302   18.7749 O   0  0  0  0  0  0  0  0  0  0  0  0
    9.2069  -14.0897   20.0738 C   0  0  0  0  0  0  0  0  0  0  0  0
    9.1629  -13.8124   21.5428 C   0  0  0  0  0  0  0  0  0  0  0  0
    9.1736  -15.0640   22.3400 C   0  0  2  0  0  0  0  0  0  0  0  0
    8.4476  -14.8858   23.6130 N   0  0  0  0  0  0  0  0  0  0  0  0
   10.5195  -15.6247   22.6177 C   0  0  0  0  0  0  0  0  0  0  0  0
   11.5644  -14.9594   22.4741 O   0  0  0  0  0  0  0  0  0  0  0  0
   10.0611  -14.8606   27.6266 N   0  0  0  0  0  0  0  0  0  0  0  0
   11.0554  -15.8278   27.8698 C   0  0  0  0  0  0  0  0  0  0  0  0
   11.5069  -15.9336   29.0329 O   0  0  0  0  0  0  0  0  0  0  0  0
   11.5329  -16.6762   26.7714 C   0  0  0  0  0  0  0  0  0  0  0  0
   10.9349  -16.4160   25.4401 C   0  0  0  0  0  0  0  0  0  0  0  0
   11.4306  -17.2657   24.3139 C   0  0  2  0  0  0  0  0  0  0  0  0
   10.7007  -16.9732   23.0707 N   0  0  0  0  0  0  0  0  0  0  0  0
   11.3840  -18.7127   24.6178 C   0  0  0  0  0  0  0  0  0  0  0  0
   12.3482  -19.3207   25.4055 O   0  0  0  0  0  0  0  0  0  0  0  0
   10.4651  -19.4547   24.1729 O   0  0  0  0  0  0  0  0  0  0  0  0
  2  1  1  6
  2  3  1  0
  4  2  1  0
  5  4  1  0
  5  6  1  1
  7  8  2  0
  7  5  1  0
  9 10  1  0
 10 12  1  0
 11 10  2  0
 12 13  1  0
 14 13  1  1
 14 15  1  0
 15  7  1  0
 16 17  2  0
 16 14  1  0
 18 19  1  0
 19 21  1  0
 20 19  2  0
 21 22  1  0
 23 22  1  1
 23 24  1  0
 24 16  1  0
 25 23  1  0
 26 25  1  0
 27 25  2  0
M  END
$$$$
