FRL.pdb
     RDKit          3D

 31 31  0  0  1  0  0  0  0  0999 V2000
   25.6335  -17.9199  -17.8963 N   0  0  0  0  0  0  0  0  0  0  0  0
   25.4143  -17.5364  -16.5216 C   0  0  1  0  0  0  0  0  0  0  0  0
   24.2952  -16.5102  -16.4956 C   0  0  0  0  0  0  0  0  0  0  0  0
   24.6950  -15.2217  -17.1079 C   0  0  0  0  0  0  0  0  0  0  0  0
   25.5302  -14.3797  -16.3665 C   0  0  0  0  0  0  0  0  0  0  0  0
   25.9070  -13.1970  -16.9154 C   0  0  0  0  0  0  0  0  0  0  0  0
   25.4687  -12.8503  -18.1720 C   0  0  0  0  0  0  0  0  0  0  0  0
   24.6428  -13.6807  -18.9075 C   0  0  0  0  0  0  0  0  0  0  0  0
   24.2428  -14.9037  -18.3610 C   0  0  0  0  0  0  0  0  0  0  0  0
   24.9720  -18.6615  -15.6709 C   0  0  0  0  0  0  0  0  0  0  0  0
   24.3636  -19.5979  -16.2626 O   0  0  0  0  0  0  0  0  0  0  0  0
   26.8353  -23.1467  -10.4813 N   0  0  0  0  0  0  0  0  0  0  0  0
   27.8618  -22.1810  -10.3125 C   0  0  0  0  0  0  0  0  0  0  0  0
   29.0839  -22.5507  -10.4507 N   0  0  0  0  0  0  0  0  0  0  0  0
   27.5141  -20.8524   -9.9983 N   0  0  0  0  0  0  0  0  0  0  0  0
   26.1455  -20.4211   -9.8997 C   0  0  0  0  0  0  0  0  0  0  0  0
   25.3636  -20.7402  -11.1678 C   0  0  0  0  0  0  0  0  0  0  0  0
   25.6761  -19.7232  -12.2192 C   0  0  0  0  0  0  0  0  0  0  0  0
   24.8332  -19.8448  -13.4868 C   0  0  2  0  0  0  0  0  0  0  0  0
   25.2282  -18.6646  -14.2824 N   0  0  0  0  0  0  0  0  0  0  0  0
   23.3994  -19.7069  -13.1681 C   0  0  0  0  0  0  0  0  0  0  0  0
   22.9491  -18.5309  -12.9836 O   0  0  0  0  0  0  0  0  0  0  0  0
   29.8452  -21.8600  -10.3244 C   0  0  0  0  0  0  0  0  0  0  0  0
   19.1849  -18.7363  -15.6103 C   0  0  2  0  0  0  0  0  0  0  0  0
   19.7347  -20.1269  -15.6229 C   0  0  0  0  0  0  0  0  0  0  0  0
   19.7210  -20.6941  -17.0420 C   0  0  0  0  0  0  0  0  0  0  0  0
   21.0968  -20.2623  -15.0125 C   0  0  1  0  0  0  0  0  0  0  0  0
   21.1266  -20.6375  -13.5665 N   0  0  0  0  0  0  0  0  0  0  0  0
   22.4748  -20.7498  -13.0484 C   0  0  0  0  0  0  0  0  0  0  0  0
   20.3036  -21.8242  -13.2529 O   0  0  0  0  0  0  0  0  0  0  0  0
   20.7802  -22.9756  -13.3286 O   0  0  0  0  0  0  0  0  0  0  0  0
  2  1  1  6
  3  4  1  0
  3  2  1  0
  4  9  2  0
  5  6  2  0
  5  4  1  0
  6  7  1  0
  7  8  2  0
  9  8  1  0
 10  2  1  0
 10 20  1  0
 11 10  2  0
 13 15  1  0
 13 12  1  0
 14 13  2  0
 16 15  1  0
 16 17  1  0
 18 17  1  0
 19 18  1  1
 20 19  1  0
 21 19  1  0
 21 22  2  0
 24 23  1  1
 24 25  1  0
 26 24  1  0
 27 28  1  0
 27 26  1  1
 28 21  1  0
 29 27  1  0
 30 29  2  0
 31 29  1  0
M  END
$$$$
