FRL.pdb
     RDKit          3D

 31 31  0  0  1  0  0  0  0  0999 V2000
   27.4838  -20.5233  -17.9124 N   0  0  0  0  0  0  0  0  0  0  0  0
   27.4699  -19.8906  -16.6145 C   0  0  1  0  0  0  0  0  0  0  0  0
   26.8311  -18.5216  -16.7690 C   0  0  0  0  0  0  0  0  0  0  0  0
   27.6576  -17.6004  -17.5834 C   0  0  0  0  0  0  0  0  0  0  0  0
   28.9520  -17.3180  -17.1350 C   0  0  0  0  0  0  0  0  0  0  0  0
   29.7220  -16.4776  -17.8720 C   0  0  0  0  0  0  0  0  0  0  0  0
   29.2255  -15.9257  -19.0297 C   0  0  0  0  0  0  0  0  0  0  0  0
   27.9461  -16.2030  -19.4756 C   0  0  0  0  0  0  0  0  0  0  0  0
   27.1361  -17.0661  -18.7317 C   0  0  0  0  0  0  0  0  0  0  0  0
   26.6560  -20.6241  -15.6223 C   0  0  0  0  0  0  0  0  0  0  0  0
   25.6383  -21.2222  -16.0736 O   0  0  0  0  0  0  0  0  0  0  0  0
   25.7356  -19.4007   -7.4250 N   0  0  0  0  0  0  0  0  0  0  0  0
   25.3133  -20.7299   -7.6883 C   0  0  0  0  0  0  0  0  0  0  0  0
   24.1302  -21.0819   -7.3336 N   0  0  0  0  0  0  0  0  0  0  0  0
   26.1985  -21.6216   -8.3258 N   0  0  0  0  0  0  0  0  0  0  0  0
   26.9221  -21.2632   -9.5160 C   0  0  0  0  0  0  0  0  0  0  0  0
   26.0863  -21.4872  -10.7700 C   0  0  0  0  0  0  0  0  0  0  0  0
   26.9341  -21.2714  -11.9833 C   0  0  0  0  0  0  0  0  0  0  0  0
   26.1882  -21.4101  -13.3086 C   0  0  2  0  0  0  0  0  0  0  0  0
   27.0177  -20.6399  -14.2575 N   0  0  0  0  0  0  0  0  0  0  0  0
   24.8714  -20.7497  -13.2311 C   0  0  0  0  0  0  0  0  0  0  0  0
   24.8474  -19.5270  -12.8784 O   0  0  0  0  0  0  0  0  0  0  0  0
   23.7991  -22.0420   -7.5367 C   0  0  0  0  0  0  0  0  0  0  0  0
   20.7096  -18.1286  -15.3894 C   0  0  1  0  0  0  0  0  0  0  0  0
   20.6250  -19.5831  -15.0527 C   0  0  0  0  0  0  0  0  0  0  0  0
   19.7265  -20.3116  -16.0516 C   0  0  0  0  0  0  0  0  0  0  0  0
   21.9508  -20.2718  -14.9341 C   0  0  1  0  0  0  0  0  0  0  0  0
   22.4100  -20.5626  -13.5423 N   0  0  0  0  0  0  0  0  0  0  0  0
   23.6334  -21.3379  -13.5104 C   0  0  0  0  0  0  0  0  0  0  0  0
   21.3540  -21.1441  -12.6874 O   0  0  0  0  0  0  0  0  0  0  0  0
   21.3342  -22.3658  -12.4311 O   0  0  0  0  0  0  0  0  0  0  0  0
  2  1  1  6
  3  4  1  0
  3  2  1  0
  4  9  2  0
  5  6  2  0
  5  4  1  0
  6  7  1  0
  7  8  2  0
  9  8  1  0
 10  2  1  0
 10 20  1  0
 11 10  2  0
 13 15  1  0
 13 12  1  0
 14 13  2  0
 16 15  1  0
 16 17  1  0
 18 17  1  0
 19 18  1  1
 20 19  1  0
 21 19  1  0
 21 22  2  0
 24 23  1  1
 24 25  1  0
 26 24  1  0
 27 28  1  0
 27 26  1  6
 28 21  1  0
 29 27  1  0
 30 29  2  0
 31 29  1  0
M  END
$$$$
