FRL.pdb
     RDKit          3D

 31 31  0  0  1  0  0  0  0  0999 V2000
   30.0307  -21.4004  -14.0630 N   0  0  0  0  0  0  0  0  0  0  0  0
   29.7136  -21.6111  -12.6702 C   0  0  1  0  0  0  0  0  0  0  0  0
   30.8579  -21.0549  -11.8412 C   0  0  0  0  0  0  0  0  0  0  0  0
   31.9236  -22.0563  -11.6042 C   0  0  0  0  0  0  0  0  0  0  0  0
   32.0250  -22.6088  -10.3233 C   0  0  0  0  0  0  0  0  0  0  0  0
   32.9950  -23.5295  -10.0917 C   0  0  0  0  0  0  0  0  0  0  0  0
   33.8494  -23.8991  -11.1041 C   0  0  0  0  0  0  0  0  0  0  0  0
   33.7517  -23.3547  -12.3715 C   0  0  0  0  0  0  0  0  0  0  0  0
   32.7596  -22.4047  -12.6317 C   0  0  0  0  0  0  0  0  0  0  0  0
   28.4954  -20.8931  -12.2394 C   0  0  0  0  0  0  0  0  0  0  0  0
   28.4339  -19.6697  -12.5506 O   0  0  0  0  0  0  0  0  0  0  0  0
   23.8970  -20.5625  -15.9003 N   0  0  0  0  0  0  0  0  0  0  0  0
   22.8318  -20.1255  -15.0701 C   0  0  0  0  0  0  0  0  0  0  0  0
   21.6256  -20.2829  -15.4820 N   0  0  0  0  0  0  0  0  0  0  0  0
   23.1252  -19.5332  -13.8259 N   0  0  0  0  0  0  0  0  0  0  0  0
   24.4521  -19.5334  -13.2708 C   0  0  0  0  0  0  0  0  0  0  0  0
   25.0281  -20.9419  -13.1937 C   0  0  0  0  0  0  0  0  0  0  0  0
   25.1344  -21.3628  -11.7623 C   0  0  0  0  0  0  0  0  0  0  0  0
   26.3313  -20.7754  -11.0177 C   0  0  2  0  0  0  0  0  0  0  0  0
   27.4760  -21.5593  -11.5249 N   0  0  0  0  0  0  0  0  0  0  0  0
   26.2182  -21.0384   -9.5705 C   0  0  0  0  0  0  0  0  0  0  0  0
   26.3504  -22.2426   -9.1803 O   0  0  0  0  0  0  0  0  0  0  0  0
   20.8401  -19.9048  -14.9228 C   0  0  0  0  0  0  0  0  0  0  0  0
   27.7550  -17.7617   -5.1798 C   0  0  2  0  0  0  0  0  0  0  0  0
   27.5327  -18.9797   -6.0184 C   0  0  0  0  0  0  0  0  0  0  0  0
   28.2812  -20.1762   -5.4319 C   0  0  0  0  0  0  0  0  0  0  0  0
   26.0917  -19.3197   -6.2510 C   0  0  2  0  0  0  0  0  0  0  0  0
   25.8351  -20.4607   -7.1810 N   0  0  0  0  0  0  0  0  0  0  0  0
   25.9793  -20.0870   -8.5732 C   0  0  0  0  0  0  0  0  0  0  0  0
   24.5585  -21.1562   -6.9153 O   0  0  0  0  0  0  0  0  0  0  0  0
   23.5613  -20.9703   -7.6431 O   0  0  0  0  0  0  0  0  0  0  0  0
  2  1  1  6
  3  4  1  0
  3  2  1  0
  4  9  2  0
  5  6  2  0
  5  4  1  0
  6  7  1  0
  7  8  2  0
  9  8  1  0
 10  2  1  0
 10 20  1  0
 11 10  2  0
 13 15  1  0
 13 12  1  0
 14 13  2  0
 16 15  1  0
 16 17  1  0
 18 17  1  0
 19 18  1  6
 20 19  1  0
 21 19  1  0
 21 22  2  0
 24 23  1  6
 24 25  1  0
 26 24  1  0
 27 28  1  0
 27 26  1  1
 28 21  1  0
 29 27  1  0
 30 29  2  0
 31 29  1  0
M  END
$$$$
