FRL.pdb
     RDKit          3D

 31 31  0  0  1  0  0  0  0  0999 V2000
   28.9679  -20.6025  -14.8419 N   0  0  0  0  0  0  0  0  0  0  0  0
   28.9739  -20.9589  -13.4426 C   0  0  1  0  0  0  0  0  0  0  0  0
   30.2096  -20.3440  -12.8093 C   0  0  0  0  0  0  0  0  0  0  0  0
   31.0344  -21.3437  -12.0916 C   0  0  0  0  0  0  0  0  0  0  0  0
   31.6402  -22.3522  -12.8481 C   0  0  0  0  0  0  0  0  0  0  0  0
   32.4010  -23.2739  -12.2048 C   0  0  0  0  0  0  0  0  0  0  0  0
   32.5619  -23.2031  -10.8408 C   0  0  0  0  0  0  0  0  0  0  0  0
   31.9642  -22.2072  -10.0901 C   0  0  0  0  0  0  0  0  0  0  0  0
   31.1765  -21.2475  -10.7327 C   0  0  0  0  0  0  0  0  0  0  0  0
   27.8119  -20.4213  -12.7039 C   0  0  0  0  0  0  0  0  0  0  0  0
   27.2696  -19.3918  -13.1971 O   0  0  0  0  0  0  0  0  0  0  0  0
   24.6965  -22.1770  -16.0918 N   0  0  0  0  0  0  0  0  0  0  0  0
   24.3645  -23.1163  -15.0808 C   0  0  0  0  0  0  0  0  0  0  0  0
   24.6250  -24.3574  -15.2836 N   0  0  0  0  0  0  0  0  0  0  0  0
   23.7605  -22.6644  -13.8908 N   0  0  0  0  0  0  0  0  0  0  0  0
   23.4197  -21.2828  -13.6810 C   0  0  0  0  0  0  0  0  0  0  0  0
   24.5410  -20.5286  -12.9774 C   0  0  0  0  0  0  0  0  0  0  0  0
   25.0291  -21.3284  -11.8114 C   0  0  0  0  0  0  0  0  0  0  0  0
   26.0639  -20.6150  -10.9441 C   0  0  2  0  0  0  0  0  0  0  0  0
   27.3552  -21.0417  -11.5206 N   0  0  0  0  0  0  0  0  0  0  0  0
   26.0084  -21.1157   -9.5576 C   0  0  0  0  0  0  0  0  0  0  0  0
   26.4329  -22.2961   -9.3420 O   0  0  0  0  0  0  0  0  0  0  0  0
   24.3726  -25.0579  -14.5637 C   0  0  0  0  0  0  0  0  0  0  0  0
   27.1027  -18.4159   -4.7071 C   0  0  2  0  0  0  0  0  0  0  0  0
   27.9081  -19.0350   -5.8044 C   0  0  0  0  0  0  0  0  0  0  0  0
   28.4918  -20.3723   -5.3498 C   0  0  0  0  0  0  0  0  0  0  0  0
   27.1741  -19.1921   -7.1016 C   0  0  2  0  0  0  0  0  0  0  0  0
   26.2675  -20.3760   -7.1962 N   0  0  0  0  0  0  0  0  0  0  0  0
   25.5324  -20.4158   -8.4439 C   0  0  0  0  0  0  0  0  0  0  0  0
   25.3869  -20.5340   -6.0201 O   0  0  0  0  0  0  0  0  0  0  0  0
   25.7588  -21.1835   -5.0208 O   0  0  0  0  0  0  0  0  0  0  0  0
  2  1  1  6
  3  4  1  0
  3  2  1  0
  4  9  2  0
  5  6  2  0
  5  4  1  0
  6  7  1  0
  7  8  2  0
  9  8  1  0
 10  2  1  0
 10 20  1  0
 11 10  2  0
 13 15  1  0
 13 12  1  0
 14 13  2  0
 16 15  1  0
 16 17  1  0
 18 17  1  0
 19 18  1  6
 20 19  1  0
 21 19  1  0
 21 22  2  0
 24 23  1  1
 24 25  1  0
 26 24  1  0
 27 28  1  0
 27 26  1  6
 28 21  1  0
 29 27  1  0
 30 29  2  0
 31 29  1  0
M  END
$$$$
