FRL.pdb
     RDKit          3D

 31 31  0  0  1  0  0  0  0  0999 V2000
   25.9704  -18.6023  -15.7865 N   0  0  0  0  0  0  0  0  0  0  0  0
   26.7454  -18.5103  -14.5716 C   0  0  1  0  0  0  0  0  0  0  0  0
   27.0611  -17.0449  -14.3287 C   0  0  0  0  0  0  0  0  0  0  0  0
   27.8656  -16.4508  -15.4217 C   0  0  0  0  0  0  0  0  0  0  0  0
   29.0416  -17.1087  -15.7965 C   0  0  0  0  0  0  0  0  0  0  0  0
   29.7878  -16.5778  -16.7982 C   0  0  0  0  0  0  0  0  0  0  0  0
   29.3825  -15.4195  -17.4192 C   0  0  0  0  0  0  0  0  0  0  0  0
   28.2203  -14.7668  -17.0510 C   0  0  0  0  0  0  0  0  0  0  0  0
   27.4366  -15.2966  -16.0216 C   0  0  0  0  0  0  0  0  0  0  0  0
   26.0109  -18.9847  -13.3798 C   0  0  0  0  0  0  0  0  0  0  0  0
   25.1249  -18.2048  -12.9280 O   0  0  0  0  0  0  0  0  0  0  0  0
   23.2484  -25.0640  -15.6859 N   0  0  0  0  0  0  0  0  0  0  0  0
   24.4664  -25.1053  -14.9583 C   0  0  0  0  0  0  0  0  0  0  0  0
   25.4413  -25.7967  -15.4282 N   0  0  0  0  0  0  0  0  0  0  0  0
   24.5712  -24.3926  -13.7474 N   0  0  0  0  0  0  0  0  0  0  0  0
   23.5236  -23.5284  -13.2736 C   0  0  0  0  0  0  0  0  0  0  0  0
   24.0192  -22.1012  -13.0770 C   0  0  0  0  0  0  0  0  0  0  0  0
   25.0504  -22.0728  -11.9939 C   0  0  0  0  0  0  0  0  0  0  0  0
   25.5330  -20.6739  -11.6169 C   0  0  2  0  0  0  0  0  0  0  0  0
   26.3014  -20.2395  -12.8012 N   0  0  0  0  0  0  0  0  0  0  0  0
   26.4694  -20.7405  -10.4789 C   0  0  0  0  0  0  0  0  0  0  0  0
   27.4216  -21.5820  -10.5502 O   0  0  0  0  0  0  0  0  0  0  0  0
   26.3627  -25.7696  -14.9559 C   0  0  0  0  0  0  0  0  0  0  0  0
   28.8650  -20.9506   -5.6333 C   0  0  2  0  0  0  0  0  0  0  0  0
   27.6724  -20.0527   -5.7205 C   0  0  0  0  0  0  0  0  0  0  0  0
   27.8084  -18.8869   -4.7417 C   0  0  0  0  0  0  0  0  0  0  0  0
   27.3709  -19.5521   -7.1006 C   0  0  1  0  0  0  0  0  0  0  0  0
   26.6912  -20.5232   -8.0103 N   0  0  0  0  0  0  0  0  0  0  0  0
   26.4163  -19.9626   -9.3175 C   0  0  0  0  0  0  0  0  0  0  0  0
   25.4982  -21.1533   -7.4071 O   0  0  0  0  0  0  0  0  0  0  0  0
   25.6106  -22.0635   -6.5601 O   0  0  0  0  0  0  0  0  0  0  0  0
  2  1  1  6
  3  4  1  0
  3  2  1  0
  4  9  2  0
  5  6  2  0
  5  4  1  0
  6  7  1  0
  7  8  2  0
  9  8  1  0
 10  2  1  0
 10 20  1  0
 11 10  2  0
 13 15  1  0
 13 12  1  0
 14 13  2  0
 16 15  1  0
 16 17  1  0
 18 17  1  0
 19 18  1  6
 20 19  1  0
 21 19  1  0
 21 22  2  0
 24 23  1  1
 24 25  1  0
 26 24  1  0
 27 28  1  0
 27 26  1  6
 28 21  1  0
 29 27  1  0
 30 29  2  0
 31 29  1  0
M  END
$$$$
