FRL.pdb
     RDKit          3D

 31 31  0  0  1  0  0  0  0  0999 V2000
   27.8564  -17.9873  -16.7798 N   0  0  0  0  0  0  0  0  0  0  0  0
   27.7927  -18.9777  -15.7310 C   0  0  1  0  0  0  0  0  0  0  0  0
   27.2355  -18.3065  -14.4879 C   0  0  0  0  0  0  0  0  0  0  0  0
   27.0012  -19.2662  -13.3838 C   0  0  0  0  0  0  0  0  0  0  0  0
   28.1053  -19.9614  -12.8799 C   0  0  0  0  0  0  0  0  0  0  0  0
   27.9066  -20.8422  -11.8665 C   0  0  0  0  0  0  0  0  0  0  0  0
   26.6429  -21.0343  -11.3589 C   0  0  0  0  0  0  0  0  0  0  0  0
   25.5494  -20.3484  -11.8550 C   0  0  0  0  0  0  0  0  0  0  0  0
   25.7317  -19.4363  -12.8987 C   0  0  0  0  0  0  0  0  0  0  0  0
   26.8812  -20.0975  -16.0476 C   0  0  0  0  0  0  0  0  0  0  0  0
   25.7625  -19.7788  -16.5419 O   0  0  0  0  0  0  0  0  0  0  0  0
   26.9064  -27.9939  -16.3538 N   0  0  0  0  0  0  0  0  0  0  0  0
   25.7155  -27.7356  -17.0817 C   0  0  0  0  0  0  0  0  0  0  0  0
   24.6840  -28.4660  -16.8541 N   0  0  0  0  0  0  0  0  0  0  0  0
   25.6985  -26.6930  -18.0292 N   0  0  0  0  0  0  0  0  0  0  0  0
   26.4819  -25.4977  -17.8676 C   0  0  0  0  0  0  0  0  0  0  0  0
   26.5229  -25.0457  -16.4131 C   0  0  0  0  0  0  0  0  0  0  0  0
   27.2467  -23.7404  -16.3135 C   0  0  0  0  0  0  0  0  0  0  0  0
   26.3367  -22.5215  -16.1790 C   0  0  2  0  0  0  0  0  0  0  0  0
   27.2635  -21.4346  -15.8033 N   0  0  0  0  0  0  0  0  0  0  0  0
   25.3902  -22.7051  -15.0624 C   0  0  0  0  0  0  0  0  0  0  0  0
   25.8229  -22.4917  -13.8846 O   0  0  0  0  0  0  0  0  0  0  0  0
   23.8104  -28.2979  -17.3845 C   0  0  0  0  0  0  0  0  0  0  0  0
   22.1392  -20.1696  -12.2623 C   0  0  2  0  0  0  0  0  0  0  0  0
   21.9680  -20.2367  -13.7464 C   0  0  0  0  0  0  0  0  0  0  0  0
   21.7823  -18.8351  -14.3268 C   0  0  0  0  0  0  0  0  0  0  0  0
   23.0617  -20.9663  -14.4659 C   0  0  1  0  0  0  0  0  0  0  0  0
   23.0077  -22.4576  -14.3894 N   0  0  0  0  0  0  0  0  0  0  0  0
   24.0504  -23.0929  -15.1691 C   0  0  0  0  0  0  0  0  0  0  0  0
   21.6695  -23.0105  -14.6847 O   0  0  0  0  0  0  0  0  0  0  0  0
   21.2954  -23.1955  -15.8614 O   0  0  0  0  0  0  0  0  0  0  0  0
  2  1  1  6
  3  4  1  0
  3  2  1  0
  4  9  2  0
  5  6  2  0
  5  4  1  0
  6  7  1  0
  7  8  2  0
  9  8  1  0
 10  2  1  0
 10 20  1  0
 11 10  2  0
 13 15  1  0
 13 12  1  0
 14 13  2  0
 16 15  1  0
 16 17  1  0
 18 17  1  0
 19 18  1  1
 20 19  1  0
 21 19  1  0
 21 22  2  0
 24 23  1  1
 24 25  1  0
 26 24  1  0
 27 28  1  0
 27 26  1  1
 28 21  1  0
 29 27  1  0
 30 29  2  0
 31 29  1  0
M  END
$$$$
