FRL.pdb
     RDKit          3D

 31 31  0  0  1  0  0  0  0  0999 V2000
   26.2726  -17.2075  -18.0079 N   0  0  0  0  0  0  0  0  0  0  0  0
   25.8272  -17.2657  -16.6357 C   0  0  1  0  0  0  0  0  0  0  0  0
   24.8147  -16.1535  -16.4257 C   0  0  0  0  0  0  0  0  0  0  0  0
   25.4372  -14.8094  -16.4524 C   0  0  0  0  0  0  0  0  0  0  0  0
   25.1047  -13.9585  -17.5115 C   0  0  0  0  0  0  0  0  0  0  0  0
   25.6652  -12.7229  -17.5480 C   0  0  0  0  0  0  0  0  0  0  0  0
   26.5376  -12.3330  -16.5589 C   0  0  0  0  0  0  0  0  0  0  0  0
   26.8683  -13.1719  -15.5105 C   0  0  0  0  0  0  0  0  0  0  0  0
   26.3022  -14.4489  -15.4534 C   0  0  0  0  0  0  0  0  0  0  0  0
   25.1365  -18.5300  -16.3049 C   0  0  0  0  0  0  0  0  0  0  0  0
   24.7919  -19.2467  -17.2872 O   0  0  0  0  0  0  0  0  0  0  0  0
   25.9340  -20.4519   -8.8673 N   0  0  0  0  0  0  0  0  0  0  0  0
   24.9888  -21.4831   -9.1080 C   0  0  0  0  0  0  0  0  0  0  0  0
   24.0119  -21.6270   -8.2869 N   0  0  0  0  0  0  0  0  0  0  0  0
   25.1482  -22.3162  -10.2330 N   0  0  0  0  0  0  0  0  0  0  0  0
   25.7297  -21.8432  -11.4606 C   0  0  0  0  0  0  0  0  0  0  0  0
   24.7020  -21.1298  -12.3303 C   0  0  0  0  0  0  0  0  0  0  0  0
   25.3017  -20.8221  -13.6656 C   0  0  0  0  0  0  0  0  0  0  0  0
   24.3239  -20.2253  -14.6754 C   0  0  2  0  0  0  0  0  0  0  0  0
   24.8902  -18.8917  -14.9625 N   0  0  0  0  0  0  0  0  0  0  0  0
   23.0009  -20.0228  -14.0549 C   0  0  0  0  0  0  0  0  0  0  0  0
   22.9431  -19.2768  -13.0253 O   0  0  0  0  0  0  0  0  0  0  0  0
   23.3194  -22.3814   -8.4422 C   0  0  0  0  0  0  0  0  0  0  0  0
   20.5804  -19.2181  -16.8507 C   0  0  2  0  0  0  0  0  0  0  0  0
   19.6082  -18.9294  -15.7518 C   0  0  0  0  0  0  0  0  0  0  0  0
   18.2665  -18.4800  -16.3295 C   0  0  0  0  0  0  0  0  0  0  0  0
   19.4155  -20.0547  -14.7808 C   0  0  2  0  0  0  0  0  0  0  0  0
   20.5378  -20.2849  -13.8216 N   0  0  0  0  0  0  0  0  0  0  0  0
   21.7905  -20.5730  -14.4896 C   0  0  0  0  0  0  0  0  0  0  0  0
   20.2182  -21.2776  -12.7745 O   0  0  0  0  0  0  0  0  0  0  0  0
   19.3306  -21.0537  -11.9256 O   0  0  0  0  0  0  0  0  0  0  0  0
  2  1  1  6
  3  4  1  0
  3  2  1  0
  4  9  2  0
  5  6  2  0
  5  4  1  0
  6  7  1  0
  7  8  2  0
  9  8  1  0
 10  2  1  0
 10 20  1  0
 11 10  2  0
 13 15  1  0
 13 12  1  0
 14 13  2  0
 16 15  1  0
 16 17  1  0
 18 17  1  0
 19 18  1  1
 20 19  1  0
 21 19  1  0
 21 22  2  0
 24 23  1  1
 24 25  1  0
 26 24  1  0
 27 28  1  0
 27 26  1  6
 28 21  1  0
 29 27  1  0
 30 29  2  0
 31 29  1  0
M  END
$$$$
