FRL.pdb
     RDKit          3D

 31 31  0  0  1  0  0  0  0  0999 V2000
   27.3938  -22.1742  -16.9918 N   0  0  0  0  0  0  0  0  0  0  0  0
   27.9133  -22.1335  -15.6452 C   0  0  1  0  0  0  0  0  0  0  0  0
   29.3913  -21.7936  -15.7247 C   0  0  0  0  0  0  0  0  0  0  0  0
   30.1971  -22.9021  -16.2874 C   0  0  0  0  0  0  0  0  0  0  0  0
   30.6726  -22.7630  -17.5953 C   0  0  0  0  0  0  0  0  0  0  0  0
   31.4146  -23.7693  -18.1236 C   0  0  0  0  0  0  0  0  0  0  0  0
   31.6830  -24.8923  -17.3764 C   0  0  0  0  0  0  0  0  0  0  0  0
   31.2143  -25.0329  -16.0830 C   0  0  0  0  0  0  0  0  0  0  0  0
   30.4483  -24.0081  -15.5194 C   0  0  0  0  0  0  0  0  0  0  0  0
   27.2854  -21.0844  -14.8145 C   0  0  0  0  0  0  0  0  0  0  0  0
   27.0923  -19.9710  -15.3805 O   0  0  0  0  0  0  0  0  0  0  0  0
   23.6044  -23.8433  -15.2166 N   0  0  0  0  0  0  0  0  0  0  0  0
   22.3770  -23.7288  -14.5130 C   0  0  0  0  0  0  0  0  0  0  0  0
   21.7085  -24.7964  -14.2631 N   0  0  0  0  0  0  0  0  0  0  0  0
   21.9279  -22.4550  -14.1121 N   0  0  0  0  0  0  0  0  0  0  0  0
   22.7673  -21.2891  -14.1827 C   0  0  0  0  0  0  0  0  0  0  0  0
   24.0593  -21.4793  -13.3978 C   0  0  0  0  0  0  0  0  0  0  0  0
   24.8553  -20.2132  -13.4273 C   0  0  0  0  0  0  0  0  0  0  0  0
   26.2042  -20.2978  -12.7164 C   0  0  2  0  0  0  0  0  0  0  0  0
   26.9313  -21.3385  -13.4715 N   0  0  0  0  0  0  0  0  0  0  0  0
   26.0301  -20.7892  -11.3364 C   0  0  0  0  0  0  0  0  0  0  0  0
   25.6717  -22.0011  -11.1852 O   0  0  0  0  0  0  0  0  0  0  0  0
   20.7661  -24.7232  -13.8396 C   0  0  0  0  0  0  0  0  0  0  0  0
   28.9945  -19.0963   -7.1128 C   0  0  2  0  0  0  0  0  0  0  0  0
   28.2129  -19.9360   -8.0721 C   0  0  0  0  0  0  0  0  0  0  0  0
   28.8220  -21.3336   -8.1781 C   0  0  0  0  0  0  0  0  0  0  0  0
   26.7466  -20.0194   -7.7733 C   0  0  2  0  0  0  0  0  0  0  0  0
   25.8930  -20.5871   -8.8604 N   0  0  0  0  0  0  0  0  0  0  0  0
   26.2227  -20.0497  -10.1647 C   0  0  0  0  0  0  0  0  0  0  0  0
   24.4463  -20.5083   -8.5696 O   0  0  0  0  0  0  0  0  0  0  0  0
   23.6756  -19.8633   -9.3104 O   0  0  0  0  0  0  0  0  0  0  0  0
  2  1  1  6
  3  4  1  0
  3  2  1  0
  4  9  2  0
  5  6  2  0
  5  4  1  0
  6  7  1  0
  7  8  2  0
  9  8  1  0
 10  2  1  0
 10 20  1  0
 11 10  2  0
 13 15  1  0
 13 12  1  0
 14 13  2  0
 16 15  1  0
 16 17  1  0
 18 17  1  0
 19 18  1  6
 20 19  1  0
 21 19  1  0
 21 22  2  0
 24 23  1  6
 24 25  1  0
 26 24  1  0
 27 28  1  0
 27 26  1  6
 28 21  1  0
 29 27  1  0
 30 29  2  0
 31 29  1  0
M  END
$$$$
