VGF.pdb
     RDKit          3D

 23 23  0  0  1  0  0  0  0  0999 V2000
    7.0938  -12.7190   18.9916 C   0  0  0  0  0  0  0  0  0  0  0  0
    7.7478  -13.3819   20.1942 C   0  0  2  0  0  0  0  0  0  0  0  0
    9.0301  -12.7275   20.5825 C   0  0  0  0  0  0  0  0  0  0  0  0
    7.8870  -14.8589   19.9136 C   0  0  2  0  0  0  0  0  0  0  0  0
    6.6628  -15.3613   19.3862 N   0  0  0  0  0  0  0  0  0  0  0  0
    8.3349  -15.6328   21.0602 C   0  0  0  0  0  0  0  0  0  0  0  0
    7.6035  -16.0968   21.9705 O   0  0  0  0  0  0  0  0  0  0  0  0
    9.7497  -15.9121   21.1950 N   0  0  0  0  0  0  0  0  0  0  0  0
   10.2326  -16.7294   22.2556 C   0  0  0  0  0  0  0  0  0  0  0  0
   10.0819  -16.1467   23.5966 C   0  0  0  0  0  0  0  0  0  0  0  0
   11.0528  -15.4255   24.0708 O   0  0  0  0  0  0  0  0  0  0  0  0
    8.9482  -16.3117   24.4219 N   0  0  0  0  0  0  0  0  0  0  0  0
    8.9688  -15.8845   25.8299 C   0  0  1  0  0  0  0  0  0  0  0  0
    7.5424  -15.5218   26.1591 C   0  0  0  0  0  0  0  0  0  0  0  0
    7.3173  -14.0759   26.3352 C   0  0  0  0  0  0  0  0  0  0  0  0
    6.0394  -13.5812   26.3989 C   0  0  0  0  0  0  0  0  0  0  0  0
    5.8051  -12.2356   26.5658 C   0  0  0  0  0  0  0  0  0  0  0  0
    6.8791  -11.3842   26.6691 C   0  0  0  0  0  0  0  0  0  0  0  0
    8.1590  -11.8739   26.6062 C   0  0  0  0  0  0  0  0  0  0  0  0
    8.3819  -13.2173   26.4396 C   0  0  0  0  0  0  0  0  0  0  0  0
    9.4966  -16.9884   26.6655 C   0  0  0  0  0  0  0  0  0  0  0  0
    9.7706  -16.7818   27.8664 O   0  0  0  0  0  0  0  0  0  0  0  0
    9.6952  -18.2537   26.1452 O   0  0  0  0  0  0  0  0  0  0  0  0
  2  1  1  6
  2  3  1  0
  4  6  1  0
  4  2  1  0
  4  5  1  1
  6  8  1  0
  7  6  2  0
  8  9  1  0
  9 10  1  0
 10 11  2  0
 10 12  1  0
 12 13  1  0
 13 21  1  0
 13 14  1  1
 15 14  1  0
 15 16  2  0
 17 16  1  0
 18 17  2  0
 19 20  2  0
 19 18  1  0
 20 15  1  0
 21 22  2  0
 21 23  1  0
M  END
$$$$
