VGF.pdb
     RDKit          3D

 23 23  0  0  1  0  0  0  0  0999 V2000
    7.9559  -12.7087   21.8282 C   0  0  0  0  0  0  0  0  0  0  0  0
    8.0074  -13.0269   20.3417 C   0  0  2  0  0  0  0  0  0  0  0  0
    6.9739  -12.2879   19.5612 C   0  0  0  0  0  0  0  0  0  0  0  0
    7.9364  -14.5249   20.1671 C   0  0  2  0  0  0  0  0  0  0  0  0
    6.6226  -14.9793   20.4775 N   0  0  0  0  0  0  0  0  0  0  0  0
    8.9469  -15.2504   20.9200 C   0  0  0  0  0  0  0  0  0  0  0  0
   10.1887  -15.1926   20.7369 O   0  0  0  0  0  0  0  0  0  0  0  0
    8.5149  -16.1297   21.9868 N   0  0  0  0  0  0  0  0  0  0  0  0
    9.4603  -16.8892   22.7319 C   0  0  0  0  0  0  0  0  0  0  0  0
    9.7584  -16.3563   24.0689 C   0  0  0  0  0  0  0  0  0  0  0  0
   10.7753  -15.5594   24.2052 O   0  0  0  0  0  0  0  0  0  0  0  0
    9.0154  -16.6467   25.2340 N   0  0  0  0  0  0  0  0  0  0  0  0
    9.4906  -16.2211   26.5601 C   0  0  1  0  0  0  0  0  0  0  0  0
    8.2746  -15.6738   27.2645 C   0  0  0  0  0  0  0  0  0  0  0  0
    7.7695  -14.4118   26.6947 C   0  0  0  0  0  0  0  0  0  0  0  0
    6.6692  -14.4184   25.8756 C   0  0  0  0  0  0  0  0  0  0  0  0
    6.1781  -13.2523   25.3347 C   0  0  0  0  0  0  0  0  0  0  0  0
    6.8108  -12.0681   25.6286 C   0  0  0  0  0  0  0  0  0  0  0  0
    7.9116  -12.0561   26.4472 C   0  0  0  0  0  0  0  0  0  0  0  0
    8.3933  -13.2243   26.9815 C   0  0  0  0  0  0  0  0  0  0  0  0
   10.0937  -17.3818   27.2562 C   0  0  0  0  0  0  0  0  0  0  0  0
    9.9194  -18.5342   26.8074 O   0  0  0  0  0  0  0  0  0  0  0  0
   10.8520  -17.2204   28.4007 O   0  0  0  0  0  0  0  0  0  0  0  0
  2  1  1  1
  2  3  1  0
  4  6  1  0
  4  2  1  0
  4  5  1  1
  6  8  1  0
  7  6  2  0
  8  9  1  0
  9 10  1  0
 10 11  2  0
 10 12  1  0
 12 13  1  0
 13 21  1  0
 13 14  1  1
 15 14  1  0
 15 16  2  0
 17 16  1  0
 18 17  2  0
 19 20  2  0
 19 18  1  0
 20 15  1  0
 21 22  2  0
 21 23  1  0
M  END
$$$$
