VGF.pdb
     RDKit          3D

 23 23  0  0  1  0  0  0  0  0999 V2000
    6.9274  -14.1526   18.5869 C   0  0  0  0  0  0  0  0  0  0  0  0
    7.7984  -13.1997   19.3912 C   0  0  2  0  0  0  0  0  0  0  0  0
    8.0998  -11.9387   18.6548 C   0  0  0  0  0  0  0  0  0  0  0  0
    9.0328  -13.9417   19.8444 C   0  0  2  0  0  0  0  0  0  0  0  0
    9.7875  -14.3505   18.7076 N   0  0  0  0  0  0  0  0  0  0  0  0
    8.7514  -15.0588   20.7316 C   0  0  0  0  0  0  0  0  0  0  0  0
    9.0409  -16.2630   20.5190 O   0  0  0  0  0  0  0  0  0  0  0  0
    8.0756  -14.7926   21.9847 N   0  0  0  0  0  0  0  0  0  0  0  0
    7.8174  -15.8429   22.9100 C   0  0  0  0  0  0  0  0  0  0  0  0
    8.6126  -15.7820   24.1447 C   0  0  0  0  0  0  0  0  0  0  0  0
    9.7916  -15.2388   24.0956 O   0  0  0  0  0  0  0  0  0  0  0  0
    8.1894  -16.2749   25.3984 N   0  0  0  0  0  0  0  0  0  0  0  0
    9.0256  -16.1094   26.5979 C   0  0  1  0  0  0  0  0  0  0  0  0
    8.1550  -15.3889   27.5965 C   0  0  0  0  0  0  0  0  0  0  0  0
    7.5862  -14.1255   27.0940 C   0  0  0  0  0  0  0  0  0  0  0  0
    6.3288  -14.1068   26.5460 C   0  0  0  0  0  0  0  0  0  0  0  0
    5.7762  -12.9387   26.0731 C   0  0  0  0  0  0  0  0  0  0  0  0
    6.5079  -11.7783   26.1576 C   0  0  0  0  0  0  0  0  0  0  0  0
    7.7659  -11.7916   26.7047 C   0  0  0  0  0  0  0  0  0  0  0  0
    8.3077  -12.9616   27.1734 C   0  0  0  0  0  0  0  0  0  0  0  0
    9.4710  -17.4420   27.0681 C   0  0  0  0  0  0  0  0  0  0  0  0
    8.9504  -18.4736   26.5941 O   0  0  0  0  0  0  0  0  0  0  0  0
   10.4579  -17.5743   28.0270 O   0  0  0  0  0  0  0  0  0  0  0  0
  2  1  1  6
  2  3  1  0
  4  6  1  0
  4  2  1  0
  4  5  1  6
  6  8  1  0
  7  6  2  0
  8  9  1  0
  9 10  1  0
 10 11  2  0
 10 12  1  0
 12 13  1  0
 13 21  1  0
 13 14  1  1
 15 14  1  0
 15 16  2  0
 17 16  1  0
 18 17  2  0
 19 20  2  0
 19 18  1  0
 20 15  1  0
 21 22  2  0
 21 23  1  0
M  END
$$$$
