VGF.pdb
     RDKit          3D

 23 23  0  0  1  0  0  0  0  0999 V2000
    7.7731  -12.5434   20.7174 C   0  0  0  0  0  0  0  0  0  0  0  0
    8.6481  -13.2438   19.6891 C   0  0  2  0  0  0  0  0  0  0  0  0
    8.8159  -12.4460   18.4406 C   0  0  0  0  0  0  0  0  0  0  0  0
    8.0949  -14.6280   19.4488 C   0  0  2  0  0  0  0  0  0  0  0  0
    7.0075  -14.5543   18.5318 N   0  0  0  0  0  0  0  0  0  0  0  0
    7.7229  -15.3291   20.6672 C   0  0  0  0  0  0  0  0  0  0  0  0
    6.6328  -15.2157   21.2820 O   0  0  0  0  0  0  0  0  0  0  0  0
    8.6748  -16.2509   21.2520 N   0  0  0  0  0  0  0  0  0  0  0  0
    8.3689  -16.9474   22.4550 C   0  0  0  0  0  0  0  0  0  0  0  0
    8.8969  -16.3233   23.6765 C   0  0  0  0  0  0  0  0  0  0  0  0
   10.0204  -15.6752   23.6046 O   0  0  0  0  0  0  0  0  0  0  0  0
    8.2696  -16.3735   24.9405 N   0  0  0  0  0  0  0  0  0  0  0  0
    8.9507  -15.8699   26.1438 C   0  0  1  0  0  0  0  0  0  0  0  0
    7.8554  -15.3228   27.0244 C   0  0  0  0  0  0  0  0  0  0  0  0
    7.4256  -13.9587   26.6685 C   0  0  0  0  0  0  0  0  0  0  0  0
    6.1285  -13.7228   26.2895 C   0  0  0  0  0  0  0  0  0  0  0  0
    5.7039  -12.4572   25.9557 C   0  0  0  0  0  0  0  0  0  0  0  0
    6.6055  -11.4211   26.0074 C   0  0  0  0  0  0  0  0  0  0  0  0
    7.9038  -11.6517   26.3858 C   0  0  0  0  0  0  0  0  0  0  0  0
    8.3171  -12.9174   26.7167 C   0  0  0  0  0  0  0  0  0  0  0  0
    9.7064  -16.9773   26.7743 C   0  0  0  0  0  0  0  0  0  0  0  0
   10.4420  -16.7466   27.7570 O   0  0  0  0  0  0  0  0  0  0  0  0
    9.6173  -18.2723   26.2987 O   0  0  0  0  0  0  0  0  0  0  0  0
  2  1  1  1
  2  3  1  0
  4  6  1  0
  4  2  1  0
  4  5  1  6
  6  8  1  0
  7  6  2  0
  8  9  1  0
  9 10  1  0
 10 11  2  0
 10 12  1  0
 12 13  1  0
 13 21  1  0
 13 14  1  1
 15 14  1  0
 15 16  2  0
 17 16  1  0
 18 17  2  0
 19 20  2  0
 19 18  1  0
 20 15  1  0
 21 22  2  0
 21 23  1  0
M  END
$$$$
