VGF.pdb
     RDKit          3D

 23 23  0  0  1  0  0  0  0  0999 V2000
    7.2340  -12.5857   19.6485 C   0  0  0  0  0  0  0  0  0  0  0  0
    8.0446  -13.4864   20.5679 C   0  0  2  0  0  0  0  0  0  0  0  0
    9.4281  -12.9785   20.7938 C   0  0  0  0  0  0  0  0  0  0  0  0
    8.0017  -14.8940   20.0234 C   0  0  2  0  0  0  0  0  0  0  0  0
    6.6467  -15.3125   19.8903 N   0  0  0  0  0  0  0  0  0  0  0  0
    8.7834  -15.8449   20.7975 C   0  0  0  0  0  0  0  0  0  0  0  0
   10.0131  -16.0690   20.6692 O   0  0  0  0  0  0  0  0  0  0  0  0
    8.1120  -16.6217   21.8191 N   0  0  0  0  0  0  0  0  0  0  0  0
    8.8315  -17.5619   22.6091 C   0  0  0  0  0  0  0  0  0  0  0  0
    9.6302  -16.9698   23.6917 C   0  0  0  0  0  0  0  0  0  0  0  0
   10.9015  -17.2328   23.7382 O   0  0  0  0  0  0  0  0  0  0  0  0
    9.1167  -16.1250   24.6999 N   0  0  0  0  0  0  0  0  0  0  0  0
    9.9640  -15.6786   25.8171 C   0  0  1  0  0  0  0  0  0  0  0  0
    9.8816  -14.1728   25.8053 C   0  0  0  0  0  0  0  0  0  0  0  0
    8.5182  -13.6459   25.9944 C   0  0  0  0  0  0  0  0  0  0  0  0
    8.1886  -12.9895   27.1529 C   0  0  0  0  0  0  0  0  0  0  0  0
    6.9231  -12.4866   27.3502 C   0  0  0  0  0  0  0  0  0  0  0  0
    5.9831  -12.6520   26.3612 C   0  0  0  0  0  0  0  0  0  0  0  0
    6.3076  -13.3076   25.2007 C   0  0  0  0  0  0  0  0  0  0  0  0
    7.5724  -13.8053   25.0137 C   0  0  0  0  0  0  0  0  0  0  0  0
    9.4650  -16.2793   27.0763 C   0  0  0  0  0  0  0  0  0  0  0  0
    8.4470  -17.0027   27.0584 O   0  0  0  0  0  0  0  0  0  0  0  0
   10.1035  -16.0578   28.2822 O   0  0  0  0  0  0  0  0  0  0  0  0
  2  1  1  6
  2  3  1  0
  4  6  1  0
  4  2  1  0
  4  5  1  1
  6  8  1  0
  7  6  2  0
  8  9  1  0
  9 10  1  0
 10 11  2  0
 10 12  1  0
 12 13  1  0
 13 21  1  0
 13 14  1  1
 15 14  1  0
 15 16  2  0
 17 16  1  0
 18 17  2  0
 19 20  2  0
 19 18  1  0
 20 15  1  0
 21 22  2  0
 21 23  1  0
M  END
$$$$
