VGF.pdb
     RDKit          3D

 23 23  0  0  1  0  0  0  0  0999 V2000
    7.5812  -12.8135   21.6860 C   0  0  0  0  0  0  0  0  0  0  0  0
    8.1242  -13.2976   20.3502 C   0  0  2  0  0  0  0  0  0  0  0  0
    7.7858  -12.3777   19.2267 C   0  0  0  0  0  0  0  0  0  0  0  0
    7.6591  -14.7167   20.1270 C   0  0  2  0  0  0  0  0  0  0  0  0
    6.2692  -14.7193   19.8154 N   0  0  0  0  0  0  0  0  0  0  0  0
    7.9632  -15.6127   21.2311 C   0  0  0  0  0  0  0  0  0  0  0  0
    7.1417  -16.0527   22.0741 O   0  0  0  0  0  0  0  0  0  0  0  0
    9.3307  -16.0580   21.4029 N   0  0  0  0  0  0  0  0  0  0  0  0
    9.6722  -16.9798   22.4322 C   0  0  0  0  0  0  0  0  0  0  0  0
    9.7977  -16.3859   23.7708 C   0  0  0  0  0  0  0  0  0  0  0  0
   10.9013  -15.7715   24.0745 O   0  0  0  0  0  0  0  0  0  0  0  0
    8.7984  -16.4314   24.7673 N   0  0  0  0  0  0  0  0  0  0  0  0
    9.0975  -16.0503   26.1568 C   0  0  1  0  0  0  0  0  0  0  0  0
    7.7745  -15.6394   26.7529 C   0  0  0  0  0  0  0  0  0  0  0  0
    7.4302  -14.2239   26.5288 C   0  0  0  0  0  0  0  0  0  0  0  0
    6.1816  -13.8830   26.0745 C   0  0  0  0  0  0  0  0  0  0  0  0
    5.8368  -12.5682   25.8609 C   0  0  0  0  0  0  0  0  0  0  0  0
    6.7693  -11.5900   26.1110 C   0  0  0  0  0  0  0  0  0  0  0  0
    8.0195  -11.9256   26.5654 C   0  0  0  0  0  0  0  0  0  0  0  0
    8.3533  -13.2397   26.7753 C   0  0  0  0  0  0  0  0  0  0  0  0
    9.7180  -17.2011   26.8540 C   0  0  0  0  0  0  0  0  0  0  0  0
    9.5497  -18.3578   26.4140 O   0  0  0  0  0  0  0  0  0  0  0  0
   10.4862  -17.0258   27.9898 O   0  0  0  0  0  0  0  0  0  0  0  0
  2  1  1  1
  2  3  1  0
  4  6  1  0
  4  2  1  0
  4  5  1  1
  6  8  1  0
  7  6  2  0
  8  9  1  0
  9 10  1  0
 10 11  2  0
 10 12  1  0
 12 13  1  0
 13 21  1  0
 13 14  1  1
 15 14  1  0
 15 16  2  0
 17 16  1  0
 18 17  2  0
 19 20  2  0
 19 18  1  0
 20 15  1  0
 21 22  2  0
 21 23  1  0
M  END
$$$$
