VGF.pdb
     RDKit          3D

 23 23  0  0  1  0  0  0  0  0999 V2000
    8.1690  -13.3306   17.3323 C   0  0  0  0  0  0  0  0  0  0  0  0
    7.6674  -13.6992   18.7200 C   0  0  2  0  0  0  0  0  0  0  0  0
    7.6251  -12.5295   19.6437 C   0  0  0  0  0  0  0  0  0  0  0  0
    8.4958  -14.8486   19.2421 C   0  0  2  0  0  0  0  0  0  0  0  0
    8.2875  -15.9963   18.4246 N   0  0  0  0  0  0  0  0  0  0  0  0
    8.2685  -15.1426   20.6478 C   0  0  0  0  0  0  0  0  0  0  0  0
    8.6005  -14.4166   21.6182 O   0  0  0  0  0  0  0  0  0  0  0  0
    7.5997  -16.3794   20.9955 N   0  0  0  0  0  0  0  0  0  0  0  0
    7.2498  -16.6632   22.3457 C   0  0  0  0  0  0  0  0  0  0  0  0
    8.3297  -16.4437   23.3184 C   0  0  0  0  0  0  0  0  0  0  0  0
    9.5592  -16.5467   22.9121 O   0  0  0  0  0  0  0  0  0  0  0  0
    8.1327  -16.1251   24.6798 N   0  0  0  0  0  0  0  0  0  0  0  0
    9.2769  -15.9201   25.5821 C   0  0  1  0  0  0  0  0  0  0  0  0
    9.4934  -14.4281   25.6215 C   0  0  0  0  0  0  0  0  0  0  0  0
    8.3011  -13.6601   26.0228 C   0  0  0  0  0  0  0  0  0  0  0  0
    8.2306  -13.1030   27.2744 C   0  0  0  0  0  0  0  0  0  0  0  0
    7.1290  -12.3795   27.6699 C   0  0  0  0  0  0  0  0  0  0  0  0
    6.0889  -12.2203   26.7856 C   0  0  0  0  0  0  0  0  0  0  0  0
    6.1545  -12.7754   25.5328 C   0  0  0  0  0  0  0  0  0  0  0  0
    7.2574  -13.4950   25.1482 C   0  0  0  0  0  0  0  0  0  0  0  0
    8.9595  -16.4977   26.9091 C   0  0  0  0  0  0  0  0  0  0  0  0
    7.8389  -17.0110   27.1110 O   0  0  0  0  0  0  0  0  0  0  0  0
    9.8809  -16.4834   27.9396 O   0  0  0  0  0  0  0  0  0  0  0  0
  2  1  1  6
  2  3  1  0
  4  6  1  0
  4  2  1  0
  4  5  1  6
  6  8  1  0
  7  6  2  0
  8  9  1  0
  9 10  1  0
 10 11  2  0
 10 12  1  0
 12 13  1  0
 13 21  1  0
 13 14  1  1
 15 14  1  0
 15 16  2  0
 17 16  1  0
 18 17  2  0
 19 20  2  0
 19 18  1  0
 20 15  1  0
 21 22  2  0
 21 23  1  0
M  END
$$$$
