HLE.pdb
     RDKit          3D

 28 28  0  0  1  0  0  0  0  0999 V2000
   10.3895  -16.5082   21.4900 N   0  0  0  0  0  0  0  0  0  0  0  0
    9.5252  -15.4109   21.8809 C   0  0  1  0  0  0  0  0  0  0  0  0
    8.1756  -15.6292   21.2930 C   0  0  0  0  0  0  0  0  0  0  0  0
    7.9007  -14.5268   20.3351 C   0  0  0  0  0  0  0  0  0  0  0  0
    8.7046  -13.4442   19.9842 C   0  0  0  0  0  0  0  0  0  0  0  0
    8.0992  -12.6706   19.0883 N   0  0  0  0  0  0  0  0  0  0  0  0
    6.9062  -13.2330   18.8466 C   0  0  0  0  0  0  0  0  0  0  0  0
    6.7731  -14.3497   19.5893 N   0  0  0  0  0  0  0  0  0  0  0  0
    9.5188  -15.3554   23.3648 C   0  0  0  0  0  0  0  0  0  0  0  0
   10.5692  -15.5988   24.0314 O   0  0  0  0  0  0  0  0  0  0  0  0
    5.7225  -12.1404   26.3162 C   0  0  0  0  0  0  0  0  0  0  0  0
    7.0016  -12.7463   25.7927 C   0  0  1  0  0  0  0  0  0  0  0  0
    8.1311  -11.9761   26.4930 C   0  0  0  0  0  0  0  0  0  0  0  0
    7.1304  -14.1939   26.0771 C   0  0  0  0  0  0  0  0  0  0  0  0
    8.3144  -14.9021   25.5606 C   0  0  2  0  0  0  0  0  0  0  0  0
    8.3607  -15.0339   24.1220 N   0  0  0  0  0  0  0  0  0  0  0  0
    8.6927  -16.1435   26.2483 C   0  0  0  0  0  0  0  0  0  0  0  0
    8.8276  -16.1040   27.4992 O   0  0  0  0  0  0  0  0  0  0  0  0
    8.9124  -17.3899   25.6046 N   0  0  0  0  0  0  0  0  0  0  0  0
    9.2826  -18.5711   26.3402 C   0  0  1  0  0  0  0  0  0  0  0  0
    9.5431  -19.7801   25.4973 C   0  0  0  0  0  0  0  0  0  0  0  0
   10.1784  -19.5977   24.1858 C   0  0  0  0  0  0  0  0  0  0  0  0
   10.5539  -20.7688   23.4105 C   0  0  0  0  0  0  0  0  0  0  0  0
   11.1415  -20.7649   22.3069 O   0  0  0  0  0  0  0  0  0  0  0  0
   10.4120  -18.3380   27.2935 C   0  0  0  0  0  0  0  0  0  0  0  0
   10.6943  -19.1958   28.1431 O   0  0  0  0  0  0  0  0  0  0  0  0
   10.2085  -22.0171   23.9852 O   0  0  0  0  0  0  0  0  0  0  0  0
   11.1407  -17.1713   27.2305 O   0  0  0  0  0  0  0  0  0  0  0  0
  2  1  1  1
  3  4  1  0
  3  2  1  0
  4  8  1  0
  5  4  2  0
  5  6  1  0
  6  7  1  0
  8  7  2  0
  9  2  1  0
  9 16  1  0
 10  9  2  0
 12 13  1  1
 12 11  1  0
 15 14  1  6
 14 12  1  0
 15 16  1  0
 17 15  1  0
 18 17  2  0
 19 17  1  0
 20 25  1  0
 20 19  1  0
 20 21  1  6
 22 21  1  0
 23 22  1  0
 24 23  2  0
 25 28  1  0
 26 25  2  0
 27 23  1  0
M  END
$$$$
