HLE.pdb
     RDKit          3D

 28 28  0  0  1  0  0  0  0  0999 V2000
    9.8747  -15.5572   20.7100 N   0  0  0  0  0  0  0  0  0  0  0  0
    8.6657  -15.8252   21.4652 C   0  0  1  0  0  0  0  0  0  0  0  0
    8.2494  -17.2332   21.2219 C   0  0  0  0  0  0  0  0  0  0  0  0
    7.7961  -17.3479   19.8114 C   0  0  0  0  0  0  0  0  0  0  0  0
    7.8139  -16.3898   18.7999 C   0  0  0  0  0  0  0  0  0  0  0  0
    7.3167  -16.8804   17.6687 N   0  0  0  0  0  0  0  0  0  0  0  0
    6.9722  -18.1505   17.9258 C   0  0  0  0  0  0  0  0  0  0  0  0
    7.2546  -18.4454   19.2101 N   0  0  0  0  0  0  0  0  0  0  0  0
    8.9581  -15.5362   22.8921 C   0  0  0  0  0  0  0  0  0  0  0  0
   10.1226  -15.6997   23.3656 O   0  0  0  0  0  0  0  0  0  0  0  0
    5.8097  -12.0051   26.0603 C   0  0  0  0  0  0  0  0  0  0  0  0
    6.9896  -12.7145   25.4423 C   0  0  1  0  0  0  0  0  0  0  0  0
    8.2173  -11.8818   25.8409 C   0  0  0  0  0  0  0  0  0  0  0  0
    7.1549  -14.1087   25.9133 C   0  0  0  0  0  0  0  0  0  0  0  0
    8.1478  -14.9595   25.2349 C   0  0  2  0  0  0  0  0  0  0  0  0
    7.9747  -15.0681   23.8040 N   0  0  0  0  0  0  0  0  0  0  0  0
    8.4458  -16.2539   25.8617 C   0  0  0  0  0  0  0  0  0  0  0  0
    7.5384  -17.1264   25.8669 O   0  0  0  0  0  0  0  0  0  0  0  0
    9.6876  -16.5965   26.4590 N   0  0  0  0  0  0  0  0  0  0  0  0
    9.8976  -17.8679   27.1016 C   0  0  1  0  0  0  0  0  0  0  0  0
   11.0456  -18.6622   26.5621 C   0  0  0  0  0  0  0  0  0  0  0  0
   11.2068  -18.7628   25.1059 C   0  0  0  0  0  0  0  0  0  0  0  0
   12.4846  -19.1923   24.5616 C   0  0  0  0  0  0  0  0  0  0  0  0
   13.6142  -18.8499   24.9740 O   0  0  0  0  0  0  0  0  0  0  0  0
    9.9800  -17.7649   28.5919 C   0  0  0  0  0  0  0  0  0  0  0  0
    9.9260  -16.6547   29.1414 O   0  0  0  0  0  0  0  0  0  0  0  0
   12.4107  -20.0821   23.4613 O   0  0  0  0  0  0  0  0  0  0  0  0
   10.1160  -18.9015   29.3574 O   0  0  0  0  0  0  0  0  0  0  0  0
  2  1  1  6
  3  4  1  0
  3  2  1  0
  4  8  1  0
  5  4  2  0
  5  6  1  0
  6  7  1  0
  8  7  2  0
  9  2  1  0
  9 16  1  0
 10  9  2  0
 12 13  1  1
 12 11  1  0
 15 14  1  1
 14 12  1  0
 15 16  1  0
 17 15  1  0
 18 17  2  0
 19 17  1  0
 20 25  1  0
 20 19  1  0
 20 21  1  6
 22 21  1  0
 23 22  1  0
 24 23  2  0
 25 28  1  0
 26 25  2  0
 27 23  1  0
M  END
$$$$
