HLE.pdb
     RDKit          3D

 28 28  0  0  1  0  0  0  0  0999 V2000
    7.9248  -15.8731   21.1876 N   0  0  0  0  0  0  0  0  0  0  0  0
    9.3127  -15.6545   21.5482 C   0  0  1  0  0  0  0  0  0  0  0  0
    9.9509  -14.8026   20.5081 C   0  0  0  0  0  0  0  0  0  0  0  0
    9.0894  -14.8214   19.2974 C   0  0  0  0  0  0  0  0  0  0  0  0
    8.7214  -15.8994   18.4950 C   0  0  0  0  0  0  0  0  0  0  0  0
    7.9360  -15.5056   17.4971 N   0  0  0  0  0  0  0  0  0  0  0  0
    7.7839  -14.1806   17.6350 C   0  0  0  0  0  0  0  0  0  0  0  0
    8.4718  -13.7554   18.7131 N   0  0  0  0  0  0  0  0  0  0  0  0
    9.3307  -15.0437   22.9016 C   0  0  0  0  0  0  0  0  0  0  0  0
   10.4254  -14.7827   23.4850 O   0  0  0  0  0  0  0  0  0  0  0  0
    7.6815  -11.7427   26.9520 C   0  0  0  0  0  0  0  0  0  0  0  0
    6.7902  -12.9358   26.7088 C   0  0  1  0  0  0  0  0  0  0  0  0
    5.3608  -12.4311   26.9573 C   0  0  0  0  0  0  0  0  0  0  0  0
    6.8969  -13.4845   25.3374 C   0  0  0  0  0  0  0  0  0  0  0  0
    8.1049  -14.2510   24.9865 C   0  0  2  0  0  0  0  0  0  0  0  0
    8.1489  -14.7184   23.6195 N   0  0  0  0  0  0  0  0  0  0  0  0
    8.5349  -15.2793   25.9430 C   0  0  0  0  0  0  0  0  0  0  0  0
    8.9645  -14.8966   27.0627 O   0  0  0  0  0  0  0  0  0  0  0  0
    8.4961  -16.6775   25.6990 N   0  0  0  0  0  0  0  0  0  0  0  0
    8.7923  -17.6381   26.7301 C   0  0  1  0  0  0  0  0  0  0  0  0
    8.0451  -18.9300   26.6184 C   0  0  0  0  0  0  0  0  0  0  0  0
    8.2963  -19.9750   27.6192 C   0  0  0  0  0  0  0  0  0  0  0  0
    7.6158  -21.2538   27.4957 C   0  0  0  0  0  0  0  0  0  0  0  0
    6.3836  -21.4449   27.5863 O   0  0  0  0  0  0  0  0  0  0  0  0
   10.2583  -17.8878   26.8950 C   0  0  0  0  0  0  0  0  0  0  0  0
   11.0069  -17.8648   25.9068 O   0  0  0  0  0  0  0  0  0  0  0  0
    8.4541  -22.3694   27.2499 O   0  0  0  0  0  0  0  0  0  0  0  0
   10.7803  -18.1440   28.1432 O   0  0  0  0  0  0  0  0  0  0  0  0
  2  1  1  6
  3  4  1  0
  3  2  1  0
  4  8  1  0
  5  4  2  0
  5  6  1  0
  6  7  1  0
  8  7  2  0
  9  2  1  0
  9 16  1  0
 10  9  2  0
 12 13  1  6
 12 11  1  0
 15 14  1  1
 14 12  1  0
 15 16  1  0
 17 15  1  0
 18 17  2  0
 19 17  1  0
 20 25  1  0
 20 19  1  0
 20 21  1  6
 22 21  1  0
 23 22  1  0
 24 23  2  0
 25 28  1  0
 26 25  2  0
 27 23  1  0
M  END
$$$$
