HLE.pdb
     RDKit          3D

 28 28  0  0  1  0  0  0  0  0999 V2000
   10.7649  -17.1038   16.2363 N   0  0  0  0  0  0  0  0  0  0  0  0
    9.8936  -17.5427   17.3097 C   0  0  1  0  0  0  0  0  0  0  0  0
   10.1102  -18.9969   17.5403 C   0  0  0  0  0  0  0  0  0  0  0  0
    9.4406  -19.7470   16.4461 C   0  0  0  0  0  0  0  0  0  0  0  0
    8.2444  -20.4609   16.4715 C   0  0  0  0  0  0  0  0  0  0  0  0
    7.9829  -20.9970   15.2833 N   0  0  0  0  0  0  0  0  0  0  0  0
    8.9943  -20.6431   14.4772 C   0  0  0  0  0  0  0  0  0  0  0  0
    9.8782  -19.8915   15.1628 N   0  0  0  0  0  0  0  0  0  0  0  0
   10.1958  -16.7067   18.4992 C   0  0  0  0  0  0  0  0  0  0  0  0
   11.3924  -16.4473   18.8274 O   0  0  0  0  0  0  0  0  0  0  0  0
    6.3697  -12.9781   20.2652 C   0  0  0  0  0  0  0  0  0  0  0  0
    7.6906  -13.5783   19.8503 C   0  0  1  0  0  0  0  0  0  0  0  0
    8.6186  -12.3805   19.5981 C   0  0  0  0  0  0  0  0  0  0  0  0
    8.2853  -14.4662   20.8755 C   0  0  0  0  0  0  0  0  0  0  0  0
    9.4245  -15.3147   20.4854 C   0  0  2  0  0  0  0  0  0  0  0  0
    9.1871  -16.1537   19.3327 N   0  0  0  0  0  0  0  0  0  0  0  0
   10.1139  -16.0315   21.5662 C   0  0  0  0  0  0  0  0  0  0  0  0
    9.6290  -17.1297   21.9448 O   0  0  0  0  0  0  0  0  0  0  0  0
   11.2937  -15.5782   22.2133 N   0  0  0  0  0  0  0  0  0  0  0  0
   11.8757  -16.2913   23.3207 C   0  0  1  0  0  0  0  0  0  0  0  0
   13.3571  -16.1316   23.4615 C   0  0  0  0  0  0  0  0  0  0  0  0
   14.1931  -16.2482   22.2597 C   0  0  0  0  0  0  0  0  0  0  0  0
   15.6307  -16.0655   22.3751 C   0  0  0  0  0  0  0  0  0  0  0  0
   16.2442  -15.6673   23.3891 O   0  0  0  0  0  0  0  0  0  0  0  0
   11.1884  -16.0167   24.6210 C   0  0  0  0  0  0  0  0  0  0  0  0
   11.5388  -16.6177   25.6473 O   0  0  0  0  0  0  0  0  0  0  0  0
   16.3801  -16.3759   21.2133 O   0  0  0  0  0  0  0  0  0  0  0  0
   10.1656  -15.0967   24.6820 O   0  0  0  0  0  0  0  0  0  0  0  0
  2  1  1  6
  3  4  1  0
  3  2  1  0
  4  8  1  0
  5  4  2  0
  5  6  1  0
  6  7  1  0
  8  7  2  0
  9  2  1  0
  9 16  1  0
 10  9  2  0
 12 13  1  1
 12 11  1  0
 15 14  1  1
 14 12  1  0
 15 16  1  0
 17 15  1  0
 18 17  2  0
 19 17  1  0
 20 25  1  0
 20 19  1  0
 20 21  1  1
 22 21  1  0
 23 22  1  0
 24 23  2  0
 25 28  1  0
 26 25  2  0
 27 23  1  0
M  END
$$$$
