HLE.pdb
     RDKit          3D

 28 28  0  0  1  0  0  0  0  0999 V2000
   12.0719  -17.3783   16.3661 N   0  0  0  0  0  0  0  0  0  0  0  0
   11.0428  -17.9709   17.1990 C   0  0  1  0  0  0  0  0  0  0  0  0
   11.4630  -19.3482   17.5751 C   0  0  0  0  0  0  0  0  0  0  0  0
   12.1398  -19.9647   16.4046 C   0  0  0  0  0  0  0  0  0  0  0  0
   11.5801  -20.5306   15.2609 C   0  0  0  0  0  0  0  0  0  0  0  0
   12.5241  -20.9797   14.4394 N   0  0  0  0  0  0  0  0  0  0  0  0
   13.6981  -20.7152   15.0308 C   0  0  0  0  0  0  0  0  0  0  0  0
   13.4825  -20.1052   16.2130 N   0  0  0  0  0  0  0  0  0  0  0  0
   10.8452  -17.0763   18.3676 C   0  0  0  0  0  0  0  0  0  0  0  0
   11.7597  -16.9193   19.2312 O   0  0  0  0  0  0  0  0  0  0  0  0
    8.8763  -12.7209   21.1118 C   0  0  0  0  0  0  0  0  0  0  0  0
    7.8469  -13.7606   20.7420 C   0  0  1  0  0  0  0  0  0  0  0  0
    6.5740  -12.9691   20.4062 C   0  0  0  0  0  0  0  0  0  0  0  0
    8.2388  -14.5953   19.5832 C   0  0  0  0  0  0  0  0  0  0  0  0
    9.3762  -15.5176   19.7426 C   0  0  2  0  0  0  0  0  0  0  0  0
    9.6442  -16.3520   18.5932 N   0  0  0  0  0  0  0  0  0  0  0  0
    9.4476  -16.2652   21.0049 C   0  0  0  0  0  0  0  0  0  0  0  0
    9.0207  -17.4494   21.0107 O   0  0  0  0  0  0  0  0  0  0  0  0
    9.9694  -15.7507   22.2211 N   0  0  0  0  0  0  0  0  0  0  0  0
   10.1277  -16.5761   23.3904 C   0  0  1  0  0  0  0  0  0  0  0  0
   11.3117  -17.4910   23.3577 C   0  0  0  0  0  0  0  0  0  0  0  0
   12.6045  -16.9506   22.9176 C   0  0  0  0  0  0  0  0  0  0  0  0
   13.7490  -17.8414   22.8184 C   0  0  0  0  0  0  0  0  0  0  0  0
   13.7736  -19.0489   23.1419 O   0  0  0  0  0  0  0  0  0  0  0  0
   10.0973  -15.7962   24.6668 C   0  0  0  0  0  0  0  0  0  0  0  0
   10.0600  -14.5572   24.6366 O   0  0  0  0  0  0  0  0  0  0  0  0
   14.9331  -17.2580   22.3032 O   0  0  0  0  0  0  0  0  0  0  0  0
   10.1109  -16.4511   25.8781 O   0  0  0  0  0  0  0  0  0  0  0  0
  2  1  1  6
  3  4  1  0
  3  2  1  0
  4  8  1  0
  5  4  2  0
  5  6  1  0
  6  7  1  0
  8  7  2  0
  9  2  1  0
  9 16  1  0
 10  9  2  0
 12 13  1  6
 12 11  1  0
 15 14  1  6
 14 12  1  0
 15 16  1  0
 17 15  1  0
 18 17  2  0
 19 17  1  0
 20 25  1  0
 20 19  1  0
 20 21  1  6
 22 21  1  0
 23 22  1  0
 24 23  2  0
 25 28  1  0
 26 25  2  0
 27 23  1  0
M  END
$$$$
