HLE.pdb
     RDKit          3D

 28 28  0  0  1  0  0  0  0  0999 V2000
   10.1271  -14.0693   20.8205 N   0  0  0  0  0  0  0  0  0  0  0  0
    8.7759  -14.2283   21.3236 C   0  0  1  0  0  0  0  0  0  0  0  0
    8.0967  -15.3002   20.5461 C   0  0  0  0  0  0  0  0  0  0  0  0
    7.8632  -14.7987   19.1669 C   0  0  0  0  0  0  0  0  0  0  0  0
    8.2574  -13.5934   18.5896 C   0  0  0  0  0  0  0  0  0  0  0  0
    7.8527  -13.5146   17.3256 N   0  0  0  0  0  0  0  0  0  0  0  0
    7.1969  -14.6550   17.0660 C   0  0  0  0  0  0  0  0  0  0  0  0
    7.1952  -15.4366   18.1639 N   0  0  0  0  0  0  0  0  0  0  0  0
    8.8729  -14.5255   22.7753 C   0  0  0  0  0  0  0  0  0  0  0  0
    9.9120  -15.0632   23.2631 O   0  0  0  0  0  0  0  0  0  0  0  0
    5.4540  -11.8469   26.5444 C   0  0  0  0  0  0  0  0  0  0  0  0
    6.6981  -12.3751   25.8731 C   0  0  1  0  0  0  0  0  0  0  0  0
    7.8708  -11.7616   26.6529 C   0  0  0  0  0  0  0  0  0  0  0  0
    6.8001  -13.8523   25.8941 C   0  0  0  0  0  0  0  0  0  0  0  0
    7.8798  -14.4866   25.1183 C   0  0  2  0  0  0  0  0  0  0  0  0
    7.8308  -14.2351   23.6958 N   0  0  0  0  0  0  0  0  0  0  0  0
    8.1771  -15.8912   25.4278 C   0  0  0  0  0  0  0  0  0  0  0  0
    7.2803  -16.7449   25.2009 O   0  0  0  0  0  0  0  0  0  0  0  0
    9.4075  -16.3590   25.9603 N   0  0  0  0  0  0  0  0  0  0  0  0
    9.6413  -17.7558   26.2214 C   0  0  1  0  0  0  0  0  0  0  0  0
   10.7282  -18.3749   25.3997 C   0  0  0  0  0  0  0  0  0  0  0  0
   11.0531  -19.7905   25.6176 C   0  0  0  0  0  0  0  0  0  0  0  0
   12.1391  -20.3934   24.8624 C   0  0  0  0  0  0  0  0  0  0  0  0
   13.1000  -19.7869   24.3409 O   0  0  0  0  0  0  0  0  0  0  0  0
    9.8406  -18.0553   27.6736 C   0  0  0  0  0  0  0  0  0  0  0  0
   10.0749  -17.1349   28.4708 O   0  0  0  0  0  0  0  0  0  0  0  0
   12.0752  -21.8019   24.7210 O   0  0  0  0  0  0  0  0  0  0  0  0
    9.7648  -19.3526   28.1291 O   0  0  0  0  0  0  0  0  0  0  0  0
  2  1  1  6
  3  4  1  0
  3  2  1  0
  4  8  1  0
  5  4  2  0
  5  6  1  0
  6  7  1  0
  8  7  2  0
  9  2  1  0
  9 16  1  0
 10  9  2  0
 12 13  1  1
 12 11  1  0
 15 14  1  6
 14 12  1  0
 15 16  1  0
 17 15  1  0
 18 17  2  0
 19 17  1  0
 20 25  1  0
 20 19  1  0
 20 21  1  6
 22 21  1  0
 23 22  1  0
 24 23  2  0
 25 28  1  0
 26 25  2  0
 27 23  1  0
M  END
$$$$
