HLE.pdb
     RDKit          3D

 28 28  0  0  1  0  0  0  0  0999 V2000
   10.4845  -15.0967   21.0516 N   0  0  0  0  0  0  0  0  0  0  0  0
    9.1917  -14.6498   21.5341 C   0  0  1  0  0  0  0  0  0  0  0  0
    8.1253  -15.3114   20.7341 C   0  0  0  0  0  0  0  0  0  0  0  0
    7.9469  -14.5465   19.4726 C   0  0  0  0  0  0  0  0  0  0  0  0
    8.7048  -13.4923   18.9672 C   0  0  0  0  0  0  0  0  0  0  0  0
    8.2205  -13.0712   17.8028 N   0  0  0  0  0  0  0  0  0  0  0  0
    7.1526  -13.8374   17.5375 C   0  0  0  0  0  0  0  0  0  0  0  0
    6.9760  -14.7287   18.5327 N   0  0  0  0  0  0  0  0  0  0  0  0
    9.1227  -14.9669   22.9831 C   0  0  0  0  0  0  0  0  0  0  0  0
   10.1279  -15.4355   23.5970 O   0  0  0  0  0  0  0  0  0  0  0  0
    5.6924  -11.7311   26.1739 C   0  0  0  0  0  0  0  0  0  0  0  0
    6.9062  -12.4564   25.6467 C   0  0  1  0  0  0  0  0  0  0  0  0
    8.0851  -11.9328   26.4806 C   0  0  0  0  0  0  0  0  0  0  0  0
    6.8170  -13.9292   25.7739 C   0  0  0  0  0  0  0  0  0  0  0  0
    7.9057  -14.7439   25.2073 C   0  0  2  0  0  0  0  0  0  0  0  0
    7.9514  -14.7722   23.7629 N   0  0  0  0  0  0  0  0  0  0  0  0
    8.1125  -16.0721   25.7993 C   0  0  0  0  0  0  0  0  0  0  0  0
    8.0476  -16.1728   27.0524 O   0  0  0  0  0  0  0  0  0  0  0  0
    8.3755  -17.2552   25.0595 N   0  0  0  0  0  0  0  0  0  0  0  0
    9.4427  -18.1538   25.4160 C   0  0  1  0  0  0  0  0  0  0  0  0
   10.5949  -18.1706   24.4609 C   0  0  0  0  0  0  0  0  0  0  0  0
   10.7846  -19.3530   23.6106 C   0  0  0  0  0  0  0  0  0  0  0  0
   12.1082  -19.6429   23.0839 C   0  0  0  0  0  0  0  0  0  0  0  0
   12.9451  -20.4261   23.5835 O   0  0  0  0  0  0  0  0  0  0  0  0
    9.9230  -17.9656   26.8204 C   0  0  0  0  0  0  0  0  0  0  0  0
   10.2672  -16.8411   27.2134 O   0  0  0  0  0  0  0  0  0  0  0  0
   12.4536  -18.9590   21.8920 O   0  0  0  0  0  0  0  0  0  0  0  0
    9.9843  -19.0395   27.6802 O   0  0  0  0  0  0  0  0  0  0  0  0
  2  1  1  6
  3  4  1  0
  3  2  1  0
  4  8  1  0
  5  4  2  0
  5  6  1  0
  6  7  1  0
  8  7  2  0
  9  2  1  0
  9 16  1  0
 10  9  2  0
 12 13  1  1
 12 11  1  0
 15 14  1  6
 14 12  1  0
 15 16  1  0
 17 15  1  0
 18 17  2  0
 19 17  1  0
 20 25  1  0
 20 19  1  0
 20 21  1  6
 22 21  1  0
 23 22  1  0
 24 23  2  0
 25 28  1  0
 26 25  2  0
 27 23  1  0
M  END
$$$$
