HLE.pdb
     RDKit          3D

 28 28  0  0  1  0  0  0  0  0999 V2000
    7.6183  -16.1180   21.7944 N   0  0  0  0  0  0  0  0  0  0  0  0
    8.8002  -15.2848   21.6804 C   0  0  1  0  0  0  0  0  0  0  0  0
    8.5239  -14.1887   20.7125 C   0  0  0  0  0  0  0  0  0  0  0  0
    8.3139  -14.7933   19.3714 C   0  0  0  0  0  0  0  0  0  0  0  0
    8.3562  -16.1337   18.9932 C   0  0  0  0  0  0  0  0  0  0  0  0
    8.1158  -16.2708   17.6929 N   0  0  0  0  0  0  0  0  0  0  0  0
    7.9159  -15.0351   17.2123 C   0  0  0  0  0  0  0  0  0  0  0  0
    8.0319  -14.1367   18.2101 N   0  0  0  0  0  0  0  0  0  0  0  0
    9.1346  -14.7968   23.0424 C   0  0  0  0  0  0  0  0  0  0  0  0
   10.2786  -14.3157   23.3005 O   0  0  0  0  0  0  0  0  0  0  0  0
    5.6355  -12.1791   26.6197 C   0  0  0  0  0  0  0  0  0  0  0  0
    6.8276  -12.6254   25.8092 C   0  0  1  0  0  0  0  0  0  0  0  0
    7.8737  -11.5139   25.9812 C   0  0  0  0  0  0  0  0  0  0  0  0
    7.3937  -13.9199   26.2529 C   0  0  0  0  0  0  0  0  0  0  0  0
    8.5232  -14.4827   25.4930 C   0  0  2  0  0  0  0  0  0  0  0  0
    8.2162  -14.8358   24.1255 N   0  0  0  0  0  0  0  0  0  0  0  0
    9.3264  -15.5100   26.1688 C   0  0  0  0  0  0  0  0  0  0  0  0
    9.6703  -15.2964   27.3607 O   0  0  0  0  0  0  0  0  0  0  0  0
    9.7398  -16.7326   25.5766 N   0  0  0  0  0  0  0  0  0  0  0  0
   10.4739  -17.7262   26.3164 C   0  0  1  0  0  0  0  0  0  0  0  0
    9.6497  -18.8677   26.8237 C   0  0  0  0  0  0  0  0  0  0  0  0
   10.3195  -19.9390   27.5725 C   0  0  0  0  0  0  0  0  0  0  0  0
    9.5317  -21.0522   28.0759 C   0  0  0  0  0  0  0  0  0  0  0  0
    8.3495  -21.3178   27.7675 O   0  0  0  0  0  0  0  0  0  0  0  0
   11.6797  -18.2281   25.5867 C   0  0  0  0  0  0  0  0  0  0  0  0
   11.6752  -18.2886   24.3482 O   0  0  0  0  0  0  0  0  0  0  0  0
   10.1926  -21.8978   29.0011 O   0  0  0  0  0  0  0  0  0  0  0  0
   12.7972  -18.6241   26.2872 O   0  0  0  0  0  0  0  0  0  0  0  0
  2  1  1  1
  3  4  1  0
  3  2  1  0
  4  8  1  0
  5  4  2  0
  5  6  1  0
  6  7  1  0
  8  7  2  0
  9  2  1  0
  9 16  1  0
 10  9  2  0
 12 13  1  1
 12 11  1  0
 15 14  1  1
 14 12  1  0
 15 16  1  0
 17 15  1  0
 18 17  2  0
 19 17  1  0
 20 25  1  0
 20 19  1  0
 20 21  1  6
 22 21  1  0
 23 22  1  0
 24 23  2  0
 25 28  1  0
 26 25  2  0
 27 23  1  0
M  END
$$$$
