HLE.pdb
     RDKit          3D

 28 28  0  0  1  0  0  0  0  0999 V2000
    9.6048  -15.7285   20.8823 N   0  0  0  0  0  0  0  0  0  0  0  0
    8.6846  -16.2669   21.8659 C   0  0  1  0  0  0  0  0  0  0  0  0
    8.8335  -17.7472   21.9034 C   0  0  0  0  0  0  0  0  0  0  0  0
    8.2264  -18.3080   20.6683 C   0  0  0  0  0  0  0  0  0  0  0  0
    7.2137  -17.7831   19.8681 C   0  0  0  0  0  0  0  0  0  0  0  0
    6.9467  -18.5897   18.8456 N   0  0  0  0  0  0  0  0  0  0  0  0
    7.7729  -19.6390   18.9650 C   0  0  0  0  0  0  0  0  0  0  0  0
    8.5481  -19.4832   20.0564 N   0  0  0  0  0  0  0  0  0  0  0  0
    8.9862  -15.6120   23.1640 C   0  0  0  0  0  0  0  0  0  0  0  0
   10.1824  -15.4550   23.5532 O   0  0  0  0  0  0  0  0  0  0  0  0
    5.6817  -11.7536   25.8838 C   0  0  0  0  0  0  0  0  0  0  0  0
    6.8365  -12.5044   25.2673 C   0  0  1  0  0  0  0  0  0  0  0  0
    8.0507  -11.5760   25.4190 C   0  0  0  0  0  0  0  0  0  0  0  0
    7.1140  -13.8038   25.9213 C   0  0  0  0  0  0  0  0  0  0  0  0
    8.2016  -14.6372   25.3802 C   0  0  2  0  0  0  0  0  0  0  0  0
    7.9775  -15.1284   24.0395 N   0  0  0  0  0  0  0  0  0  0  0  0
    8.7463  -15.6705   26.2705 C   0  0  0  0  0  0  0  0  0  0  0  0
    7.9549  -16.5475   26.7054 O   0  0  0  0  0  0  0  0  0  0  0  0
   10.1052  -15.7565   26.6733 N   0  0  0  0  0  0  0  0  0  0  0  0
   10.5551  -16.7363   27.6278 C   0  0  1  0  0  0  0  0  0  0  0  0
   11.9467  -17.2391   27.4033 C   0  0  0  0  0  0  0  0  0  0  0  0
   12.3816  -17.5102   26.0270 C   0  0  0  0  0  0  0  0  0  0  0  0
   13.7381  -17.9766   25.7905 C   0  0  0  0  0  0  0  0  0  0  0  0
   14.5794  -17.4443   25.0342 O   0  0  0  0  0  0  0  0  0  0  0  0
   10.3737  -16.2986   29.0470 C   0  0  0  0  0  0  0  0  0  0  0  0
    9.9869  -15.1473   29.2969 O   0  0  0  0  0  0  0  0  0  0  0  0
   14.1128  -19.1460   26.4975 O   0  0  0  0  0  0  0  0  0  0  0  0
   10.6355  -17.1718   30.0791 O   0  0  0  0  0  0  0  0  0  0  0  0
  2  1  1  6
  3  4  1  0
  3  2  1  0
  4  8  1  0
  5  4  2  0
  5  6  1  0
  6  7  1  0
  8  7  2  0
  9  2  1  0
  9 16  1  0
 10  9  2  0
 12 13  1  1
 12 11  1  0
 15 14  1  1
 14 12  1  0
 15 16  1  0
 17 15  1  0
 18 17  2  0
 19 17  1  0
 20 25  1  0
 20 19  1  0
 20 21  1  6
 22 21  1  0
 23 22  1  0
 24 23  2  0
 25 28  1  0
 26 25  2  0
 27 23  1  0
M  END
$$$$
