HLE.pdb
     RDKit          3D

 28 28  0  0  1  0  0  0  0  0999 V2000
    7.1283  -15.2778   21.0081 N   0  0  0  0  0  0  0  0  0  0  0  0
    8.5312  -14.9754   21.2191 C   0  0  1  0  0  0  0  0  0  0  0  0
    8.8489  -13.6816   20.5557 C   0  0  0  0  0  0  0  0  0  0  0  0
    8.5437  -13.8134   19.1073 C   0  0  0  0  0  0  0  0  0  0  0  0
    7.6255  -13.1072   18.3330 C   0  0  0  0  0  0  0  0  0  0  0  0
    7.6474  -13.5215   17.0699 N   0  0  0  0  0  0  0  0  0  0  0  0
    8.5701  -14.4924   17.0057 C   0  0  0  0  0  0  0  0  0  0  0  0
    9.1171  -14.6786   18.2232 N   0  0  0  0  0  0  0  0  0  0  0  0
    8.7681  -14.9590   22.6849 C   0  0  0  0  0  0  0  0  0  0  0  0
    9.9423  -14.8756   23.1551 O   0  0  0  0  0  0  0  0  0  0  0  0
    5.3144  -12.3677   26.2451 C   0  0  0  0  0  0  0  0  0  0  0  0
    6.5766  -12.8876   25.6018 C   0  0  1  0  0  0  0  0  0  0  0  0
    7.7199  -12.0963   26.2548 C   0  0  0  0  0  0  0  0  0  0  0  0
    6.7905  -14.3387   25.8060 C   0  0  0  0  0  0  0  0  0  0  0  0
    7.8902  -14.9900   25.0736 C   0  0  2  0  0  0  0  0  0  0  0  0
    7.7186  -15.0350   23.6392 N   0  0  0  0  0  0  0  0  0  0  0  0
    8.3830  -16.2620   25.6179 C   0  0  0  0  0  0  0  0  0  0  0  0
    7.5850  -17.2350   25.6508 O   0  0  0  0  0  0  0  0  0  0  0  0
    9.6990  -16.4771   26.1058 N   0  0  0  0  0  0  0  0  0  0  0  0
   10.1277  -17.7611   26.5970 C   0  0  1  0  0  0  0  0  0  0  0  0
   11.3881  -18.2808   25.9796 C   0  0  0  0  0  0  0  0  0  0  0  0
   11.9511  -19.5390   26.4864 C   0  0  0  0  0  0  0  0  0  0  0  0
   13.1964  -20.0361   25.9247 C   0  0  0  0  0  0  0  0  0  0  0  0
   14.2264  -20.3369   26.5664 O   0  0  0  0  0  0  0  0  0  0  0  0
   10.2065  -17.8211   28.0899 C   0  0  0  0  0  0  0  0  0  0  0  0
   10.5057  -16.8066   28.7370 O   0  0  0  0  0  0  0  0  0  0  0  0
   13.2140  -20.1829   24.5154 O   0  0  0  0  0  0  0  0  0  0  0  0
    9.9475  -19.0019   28.7493 O   0  0  0  0  0  0  0  0  0  0  0  0
  2  1  1  1
  3  4  1  0
  3  2  1  0
  4  8  1  0
  5  4  2  0
  5  6  1  0
  6  7  1  0
  8  7  2  0
  9  2  1  0
  9 16  1  0
 10  9  2  0
 12 13  1  1
 12 11  1  0
 15 14  1  1
 14 12  1  0
 15 16  1  0
 17 15  1  0
 18 17  2  0
 19 17  1  0
 20 25  1  0
 20 19  1  0
 20 21  1  6
 22 21  1  0
 23 22  1  0
 24 23  2  0
 25 28  1  0
 26 25  2  0
 27 23  1  0
M  END
$$$$
