HLE.pdb
     RDKit          3D

 28 28  0  0  1  0  0  0  0  0999 V2000
   10.1998  -14.4940   20.8420 N   0  0  0  0  0  0  0  0  0  0  0  0
    8.9146  -14.2384   21.4641 C   0  0  1  0  0  0  0  0  0  0  0  0
    7.8706  -15.0223   20.7497 C   0  0  0  0  0  0  0  0  0  0  0  0
    7.8822  -14.6190   19.3195 C   0  0  0  0  0  0  0  0  0  0  0  0
    7.8862  -13.3408   18.7649 C   0  0  0  0  0  0  0  0  0  0  0  0
    7.8950  -13.3966   17.4366 N   0  0  0  0  0  0  0  0  0  0  0  0
    7.8970  -14.6976   17.1122 C   0  0  0  0  0  0  0  0  0  0  0  0
    7.8892  -15.4443   18.2341 N   0  0  0  0  0  0  0  0  0  0  0  0
    9.0365  -14.5928   22.9009 C   0  0  0  0  0  0  0  0  0  0  0  0
   10.0982  -15.1146   23.3565 O   0  0  0  0  0  0  0  0  0  0  0  0
    5.5671  -12.0574   26.6479 C   0  0  0  0  0  0  0  0  0  0  0  0
    6.7974  -12.5501   25.9263 C   0  0  1  0  0  0  0  0  0  0  0  0
    7.9695  -11.7774   26.5496 C   0  0  0  0  0  0  0  0  0  0  0  0
    7.0241  -14.0065   26.0696 C   0  0  0  0  0  0  0  0  0  0  0  0
    8.0880  -14.6282   25.2625 C   0  0  2  0  0  0  0  0  0  0  0  0
    7.9945  -14.3773   23.8421 N   0  0  0  0  0  0  0  0  0  0  0  0
    8.4105  -16.0293   25.5627 C   0  0  0  0  0  0  0  0  0  0  0  0
    7.5175  -16.8934   25.3614 O   0  0  0  0  0  0  0  0  0  0  0  0
    9.6611  -16.4827   26.0592 N   0  0  0  0  0  0  0  0  0  0  0  0
    9.8933  -17.8656   26.3869 C   0  0  1  0  0  0  0  0  0  0  0  0
   11.1072  -18.4666   25.7505 C   0  0  0  0  0  0  0  0  0  0  0  0
   11.3533  -18.2086   24.3258 C   0  0  0  0  0  0  0  0  0  0  0  0
   12.5951  -18.6686   23.7258 C   0  0  0  0  0  0  0  0  0  0  0  0
   13.1269  -18.2122   22.6903 O   0  0  0  0  0  0  0  0  0  0  0  0
    9.8835  -18.1286   27.8597 C   0  0  0  0  0  0  0  0  0  0  0  0
   10.0015  -19.2876   28.2841 O   0  0  0  0  0  0  0  0  0  0  0  0
   13.2400  -19.7348   24.4003 O   0  0  0  0  0  0  0  0  0  0  0  0
    9.7435  -17.0855   28.7478 O   0  0  0  0  0  0  0  0  0  0  0  0
  2  1  1  6
  3  4  1  0
  3  2  1  0
  4  8  1  0
  5  4  2  0
  5  6  1  0
  6  7  1  0
  8  7  2  0
  9  2  1  0
  9 16  1  0
 10  9  2  0
 12 13  1  1
 12 11  1  0
 15 14  1  1
 14 12  1  0
 15 16  1  0
 17 15  1  0
 18 17  2  0
 19 17  1  0
 20 25  1  0
 20 19  1  0
 20 21  1  1
 22 21  1  0
 23 22  1  0
 24 23  2  0
 25 28  1  0
 26 25  2  0
 27 23  1  0
M  END
$$$$
