RAP.pdb
     RDKit          3D

 24 24  0  0  1  0  0  0  0  0999 V2000
    8.0211  -12.2949   18.2648 N   0  0  0  0  0  0  0  0  0  0  0  0
    8.4808  -13.4845   17.6271 C   0  0  0  0  0  0  0  0  0  0  0  0
    8.4777  -13.5884   16.3215 N   0  0  0  0  0  0  0  0  0  0  0  0
    8.9616  -14.6086   18.3395 N   0  0  0  0  0  0  0  0  0  0  0  0
    7.9922  -15.5289   18.9574 C   0  0  0  0  0  0  0  0  0  0  0  0
    7.3879  -14.7609   20.1006 C   0  0  0  0  0  0  0  0  0  0  0  0
    6.3517  -15.4671   20.8891 C   0  0  0  0  0  0  0  0  0  0  0  0
    6.8569  -16.7384   21.5620 C   0  0  2  0  0  0  0  0  0  0  0  0
    5.9949  -17.8543   21.2093 N   0  0  0  0  0  0  0  0  0  0  0  0
    6.6567  -16.5472   23.0399 C   0  0  0  0  0  0  0  0  0  0  0  0
    5.5231  -16.1450   23.4000 O   0  0  0  0  0  0  0  0  0  0  0  0
    8.8892  -14.4563   15.9304 C   0  0  0  0  0  0  0  0  0  0  0  0
    7.0997  -17.8909   25.9421 C   0  0  2  0  0  0  0  0  0  0  0  0
    7.4823  -16.5153   25.3490 N   0  0  0  0  0  0  0  0  0  0  0  0
    7.7118  -16.8233   23.9251 C   0  0  0  0  0  0  0  0  0  0  0  0
    8.7515  -16.0533   25.9332 O   0  0  0  0  0  0  0  0  0  0  0  0
    9.8668  -16.5856   25.5781 N   0  0  0  0  0  0  0  0  0  0  0  0
    8.8842  -15.0256   26.9045 C   0  0  0  0  0  0  0  0  0  0  0  0
    7.8655  -14.1135   27.3906 C   0  0  0  0  0  0  0  0  0  0  0  0
    8.7503  -12.8867   27.6945 C   0  0  0  0  0  0  0  0  0  0  0  0
    9.8290  -13.5775   28.5211 C   0  0  2  0  0  0  0  0  0  0  0  0
   10.1407  -14.7647   27.5987 C   0  0  0  0  0  0  0  0  0  0  0  0
   10.5209  -15.8696   28.4769 O   0  0  0  0  0  0  0  0  0  0  0  0
   11.7738  -15.9319   29.1141 O   0  0  0  0  0  0  0  0  0  0  0  0
  1  2  1  0
  2  3  2  0
  4  2  1  0
  5  4  1  0
  6  5  1  0
  7  6  1  0
  8 10  1  0
  8  7  1  0
  8  9  1  6
 10 11  2  0
 10 14  1  0
 13 12  1  6
 14 13  1  0
 15 13  1  0
 16 15  2  0
 17 15  1  0
 17 18  1  0
 19 18  1  0
 20 19  1  0
 21 20  1  0
 21 17  1  0
 22 23  1  0
 21 22  1  1
 24 22  2  0
M  END
$$$$
