RAP.pdb
     RDKit          3D

 24 24  0  0  1  0  0  0  0  0999 V2000
   15.3262  -14.3350   18.1467 N   0  0  0  0  0  0  0  0  0  0  0  0
   15.0945  -14.4002   19.5522 C   0  0  0  0  0  0  0  0  0  0  0  0
   16.0283  -14.0510   20.4016 N   0  0  0  0  0  0  0  0  0  0  0  0
   13.8714  -14.8344   20.1160 N   0  0  0  0  0  0  0  0  0  0  0  0
   12.6741  -13.9921   19.9563 C   0  0  0  0  0  0  0  0  0  0  0  0
   11.7065  -14.8235   19.1598 C   0  0  0  0  0  0  0  0  0  0  0  0
   10.6935  -15.5744   19.9370 C   0  0  0  0  0  0  0  0  0  0  0  0
    9.2652  -15.0962   19.7016 C   0  0  2  0  0  0  0  0  0  0  0  0
    9.2708  -13.9752   18.7763 N   0  0  0  0  0  0  0  0  0  0  0  0
    8.7882  -14.5190   21.0055 C   0  0  0  0  0  0  0  0  0  0  0  0
    9.0185  -13.2987   21.1907 O   0  0  0  0  0  0  0  0  0  0  0  0
   15.7930  -14.1503   21.4068 C   0  0  0  0  0  0  0  0  0  0  0  0
    6.2738  -15.4999   23.3907 C   0  0  1  0  0  0  0  0  0  0  0  0
    7.5600  -14.6852   23.1217 N   0  0  0  0  0  0  0  0  0  0  0  0
    8.1225  -15.3432   21.9277 C   0  0  0  0  0  0  0  0  0  0  0  0
    8.5059  -14.8599   24.2355 O   0  0  0  0  0  0  0  0  0  0  0  0
    9.4103  -15.7726   24.1881 N   0  0  0  0  0  0  0  0  0  0  0  0
    8.5266  -14.0861   25.4263 C   0  0  0  0  0  0  0  0  0  0  0  0
    7.6932  -12.9496   25.7723 C   0  0  0  0  0  0  0  0  0  0  0  0
    8.6899  -12.1645   26.6500 C   0  0  0  0  0  0  0  0  0  0  0  0
    9.1250  -13.2950   27.5755 C   0  0  2  0  0  0  0  0  0  0  0  0
    9.4316  -14.3792   26.5324 C   0  0  0  0  0  0  0  0  0  0  0  0
    9.1187  -15.6555   27.1725 O   0  0  0  0  0  0  0  0  0  0  0  0
    9.9784  -16.2641   28.1054 O   0  0  0  0  0  0  0  0  0  0  0  0
  1  2  1  0
  2  3  2  0
  4  2  1  0
  5  4  1  0
  6  5  1  0
  7  6  1  0
  8 10  1  0
  8  7  1  0
  8  9  1  6
 10 11  2  0
 10 14  1  0
 13 12  1  6
 14 13  1  0
 15 13  1  0
 16 15  2  0
 17 15  1  0
 17 18  1  0
 19 18  1  0
 20 19  1  0
 21 20  1  0
 21 17  1  0
 22 23  1  0
 21 22  1  1
 24 22  2  0
M  END
$$$$
