RAP.pdb
     RDKit          3D

 24 24  0  0  1  0  0  0  0  0999 V2000
    9.8963  -14.8468   17.7432 N   0  0  0  0  0  0  0  0  0  0  0  0
    9.0024  -13.9329   17.1114 C   0  0  0  0  0  0  0  0  0  0  0  0
    8.6985  -14.0617   15.8440 N   0  0  0  0  0  0  0  0  0  0  0  0
    8.3945  -12.8503   17.7901 N   0  0  0  0  0  0  0  0  0  0  0  0
    8.4230  -12.8254   19.2622 C   0  0  0  0  0  0  0  0  0  0  0  0
    7.8267  -14.1369   19.6937 C   0  0  0  0  0  0  0  0  0  0  0  0
    7.7775  -14.3857   21.1530 C   0  0  0  0  0  0  0  0  0  0  0  0
    7.1142  -15.7070   21.5254 C   0  0  2  0  0  0  0  0  0  0  0  0
    5.7465  -15.7234   21.0337 N   0  0  0  0  0  0  0  0  0  0  0  0
    6.9866  -15.7128   23.0236 C   0  0  0  0  0  0  0  0  0  0  0  0
    6.1187  -14.9474   23.5107 O   0  0  0  0  0  0  0  0  0  0  0  0
    7.9883  -13.4025   15.4743 C   0  0  0  0  0  0  0  0  0  0  0  0
    7.2740  -17.9511   25.6132 C   0  0  2  0  0  0  0  0  0  0  0  0
    7.6475  -16.4950   25.2520 N   0  0  0  0  0  0  0  0  0  0  0  0
    7.8144  -16.5516   23.7879 C   0  0  0  0  0  0  0  0  0  0  0  0
    8.9450  -16.1467   25.8528 O   0  0  0  0  0  0  0  0  0  0  0  0
   10.0378  -16.6214   25.3693 N   0  0  0  0  0  0  0  0  0  0  0  0
    9.1302  -15.2962   26.9751 C   0  0  0  0  0  0  0  0  0  0  0  0
    8.1309  -14.5245   27.6906 C   0  0  0  0  0  0  0  0  0  0  0  0
    9.0037  -13.3320   28.1338 C   0  0  0  0  0  0  0  0  0  0  0  0
   10.1669  -14.1083   28.7406 C   0  0  2  0  0  0  0  0  0  0  0  0
   10.4328  -15.1056   27.6039 C   0  0  0  0  0  0  0  0  0  0  0  0
   10.9162  -16.3277   28.2438 O   0  0  0  0  0  0  0  0  0  0  0  0
   10.1201  -17.4811   28.3691 O   0  0  0  0  0  0  0  0  0  0  0  0
  1  2  1  0
  2  3  2  0
  4  2  1  0
  5  4  1  0
  6  5  1  0
  7  6  1  0
  8 10  1  0
  8  7  1  0
  8  9  1  6
 10 11  2  0
 10 14  1  0
 13 12  1  6
 14 13  1  0
 15 13  1  0
 16 15  2  0
 17 15  1  0
 17 18  1  0
 19 18  1  0
 20 19  1  0
 21 20  1  0
 21 17  1  0
 22 23  1  0
 21 22  1  1
 24 22  2  0
M  END
$$$$
