RAP.pdb
     RDKit          3D

 24 24  0  0  1  0  0  0  0  0999 V2000
    7.7942  -12.6990   16.8322 N   0  0  0  0  0  0  0  0  0  0  0  0
    8.4315  -13.8765   16.3418 C   0  0  0  0  0  0  0  0  0  0  0  0
    8.0753  -14.4032   15.1968 N   0  0  0  0  0  0  0  0  0  0  0  0
    9.4678  -14.5431   17.0377 N   0  0  0  0  0  0  0  0  0  0  0  0
    9.3492  -14.7193   18.4949 C   0  0  0  0  0  0  0  0  0  0  0  0
    7.9937  -14.1747   18.8523 C   0  0  0  0  0  0  0  0  0  0  0  0
    7.6185  -14.2388   20.2838 C   0  0  0  0  0  0  0  0  0  0  0  0
    7.9214  -15.5835   20.9351 C   0  0  2  0  0  0  0  0  0  0  0  0
    7.0918  -16.6155   20.3353 N   0  0  0  0  0  0  0  0  0  0  0  0
    7.4469  -15.4846   22.3584 C   0  0  0  0  0  0  0  0  0  0  0  0
    6.3037  -14.9947   22.5306 O   0  0  0  0  0  0  0  0  0  0  0  0
    8.6247  -15.2237   14.8797 C   0  0  0  0  0  0  0  0  0  0  0  0
    7.1242  -17.1904   25.0374 C   0  0  2  0  0  0  0  0  0  0  0  0
    7.7501  -15.8019   24.7712 N   0  0  0  0  0  0  0  0  0  0  0  0
    8.2751  -15.9351   23.3996 C   0  0  0  0  0  0  0  0  0  0  0  0
    8.8848  -15.5810   25.6819 O   0  0  0  0  0  0  0  0  0  0  0  0
    9.9948  -16.2060   25.5070 N   0  0  0  0  0  0  0  0  0  0  0  0
    8.8848  -14.7033   26.7986 C   0  0  0  0  0  0  0  0  0  0  0  0
    7.8493  -13.7727   27.2083 C   0  0  0  0  0  0  0  0  0  0  0  0
    8.7313  -12.6808   27.8486 C   0  0  0  0  0  0  0  0  0  0  0  0
    9.5757  -13.5673   28.7569 C   0  0  2  0  0  0  0  0  0  0  0  0
    9.9901  -14.6492   27.7493 C   0  0  0  0  0  0  0  0  0  0  0  0
   10.1150  -15.8879   28.5152 O   0  0  0  0  0  0  0  0  0  0  0  0
   11.2264  -16.1620   29.3333 O   0  0  0  0  0  0  0  0  0  0  0  0
  1  2  1  0
  2  3  2  0
  4  2  1  0
  5  4  1  0
  6  5  1  0
  7  6  1  0
  8 10  1  0
  8  7  1  0
  8  9  1  6
 10 11  2  0
 10 14  1  0
 13 12  1  6
 14 13  1  0
 15 13  1  0
 16 15  2  0
 17 15  1  0
 17 18  1  0
 19 18  1  0
 20 19  1  0
 21 20  1  0
 21 17  1  0
 22 23  1  0
 21 22  1  1
 24 22  2  0
M  END
$$$$
