RAP.pdb
     RDKit          3D

 24 24  0  0  1  0  0  0  0  0999 V2000
   12.5847  -20.9128   19.4530 N   0  0  0  0  0  0  0  0  0  0  0  0
   13.5859  -20.5292   20.3931 C   0  0  0  0  0  0  0  0  0  0  0  0
   14.8573  -20.6737   20.1136 N   0  0  0  0  0  0  0  0  0  0  0  0
   13.2864  -19.9787   21.6618 N   0  0  0  0  0  0  0  0  0  0  0  0
   11.8766  -19.8363   22.0623 C   0  0  0  0  0  0  0  0  0  0  0  0
   11.3448  -18.6911   21.2452 C   0  0  0  0  0  0  0  0  0  0  0  0
    9.9288  -18.3232   21.4765 C   0  0  0  0  0  0  0  0  0  0  0  0
    9.4188  -17.2361   20.5371 C   0  0  2  0  0  0  0  0  0  0  0  0
   10.4750  -16.8507   19.6158 N   0  0  0  0  0  0  0  0  0  0  0  0
    9.1812  -16.0171   21.3846 C   0  0  0  0  0  0  0  0  0  0  0  0
   10.1911  -15.3211   21.6532 O   0  0  0  0  0  0  0  0  0  0  0  0
   15.5251  -20.2929   20.8097 C   0  0  0  0  0  0  0  0  0  0  0  0
    6.2167  -14.1278   22.3587 C   0  0  2  0  0  0  0  0  0  0  0  0
    7.7072  -14.4692   22.5871 N   0  0  0  0  0  0  0  0  0  0  0  0
    7.8801  -15.7171   21.8206 C   0  0  0  0  0  0  0  0  0  0  0  0
    7.9416  -14.7634   24.0098 O   0  0  0  0  0  0  0  0  0  0  0  0
    8.3723  -15.9182   24.3763 N   0  0  0  0  0  0  0  0  0  0  0  0
    7.7285  -13.8580   25.0832 C   0  0  0  0  0  0  0  0  0  0  0  0
    7.3686  -12.4538   25.0144 C   0  0  0  0  0  0  0  0  0  0  0  0
    8.0770  -11.9498   26.2889 C   0  0  0  0  0  0  0  0  0  0  0  0
    7.5443  -12.9832   27.2749 C   0  0  2  0  0  0  0  0  0  0  0  0
    7.8246  -14.2668   26.4804 C   0  0  0  0  0  0  0  0  0  0  0  0
    6.7695  -15.2087   26.8494 O   0  0  0  0  0  0  0  0  0  0  0  0
    6.8548  -16.0314   27.9876 O   0  0  0  0  0  0  0  0  0  0  0  0
  1  2  1  0
  2  3  2  0
  4  2  1  0
  5  4  1  0
  6  5  1  0
  7  6  1  0
  8 10  1  0
  8  7  1  0
  8  9  1  6
 10 11  2  0
 10 14  1  0
 13 12  1  6
 14 13  1  0
 15 13  1  0
 16 15  2  0
 17 15  1  0
 17 18  1  0
 19 18  1  0
 20 19  1  0
 21 20  1  0
 21 17  1  0
 22 23  1  0
 21 22  1  6
 24 22  2  0
M  END
$$$$
