RAP.pdb
     RDKit          3D

 24 24  0  0  1  0  0  0  0  0999 V2000
    1.6259  -21.0747   19.1202 N   0  0  0  0  0  0  0  0  0  0  0  0
    2.5660  -20.1311   18.6111 C   0  0  0  0  0  0  0  0  0  0  0  0
    2.5052  -19.7310   17.3654 N   0  0  0  0  0  0  0  0  0  0  0  0
    3.6042  -19.5730   19.3939 N   0  0  0  0  0  0  0  0  0  0  0  0
    3.2542  -18.6644   20.4987 C   0  0  0  0  0  0  0  0  0  0  0  0
    4.1763  -19.0368   21.6270 C   0  0  0  0  0  0  0  0  0  0  0  0
    5.6173  -18.7707   21.4105 C   0  0  0  0  0  0  0  0  0  0  0  0
    6.4938  -19.1506   22.5986 C   0  0  2  0  0  0  0  0  0  0  0  0
    6.1376  -20.4808   23.0639 N   0  0  0  0  0  0  0  0  0  0  0  0
    6.1084  -18.2311   23.7242 C   0  0  0  0  0  0  0  0  0  0  0  0
    5.0191  -18.4797   24.2970 O   0  0  0  0  0  0  0  0  0  0  0  0
    3.2938  -19.1445   17.0341 C   0  0  0  0  0  0  0  0  0  0  0  0
    6.7837  -17.4039   26.4223 C   0  0  2  0  0  0  0  0  0  0  0  0
    6.5874  -16.3899   25.2718 N   0  0  0  0  0  0  0  0  0  0  0  0
    6.9596  -17.1712   24.0777 C   0  0  0  0  0  0  0  0  0  0  0  0
    7.5421  -15.2792   25.4145 O   0  0  0  0  0  0  0  0  0  0  0  0
    8.7720  -15.4258   25.0694 N   0  0  0  0  0  0  0  0  0  0  0  0
    7.2340  -13.9898   25.9241 C   0  0  0  0  0  0  0  0  0  0  0  0
    5.9598  -13.5012   26.4179 C   0  0  0  0  0  0  0  0  0  0  0  0
    6.0890  -12.0158   26.0214 C   0  0  0  0  0  0  0  0  0  0  0  0
    7.4665  -11.7368   26.6118 C   0  0  2  0  0  0  0  0  0  0  0  0
    8.2378  -12.9383   26.0471 C   0  0  0  0  0  0  0  0  0  0  0  0
    9.2570  -13.2677   27.0418 O   0  0  0  0  0  0  0  0  0  0  0  0
   10.4244  -12.5006   27.2105 O   0  0  0  0  0  0  0  0  0  0  0  0
  1  2  1  0
  2  3  2  0
  4  2  1  0
  5  4  1  0
  6  5  1  0
  7  6  1  0
  8 10  1  0
  8  7  1  0
  8  9  1  1
 10 11  2  0
 10 14  1  0
 13 12  1  6
 14 13  1  0
 15 13  1  0
 16 15  2  0
 17 15  1  0
 17 18  1  0
 19 18  1  0
 20 19  1  0
 21 20  1  0
 21 17  1  0
 22 23  1  0
 21 22  1  1
 24 22  2  0
M  END
$$$$
