RAP.pdb
     RDKit          3D

 24 24  0  0  1  0  0  0  0  0999 V2000
    8.4551  -12.0774   19.0917 N   0  0  0  0  0  0  0  0  0  0  0  0
    8.7190  -13.3288   18.4611 C   0  0  0  0  0  0  0  0  0  0  0  0
    8.4249  -13.5177   17.1988 N   0  0  0  0  0  0  0  0  0  0  0  0
    9.3027  -14.4276   19.1351 N   0  0  0  0  0  0  0  0  0  0  0  0
    8.5637  -15.0601   20.2406 C   0  0  0  0  0  0  0  0  0  0  0  0
    7.1474  -15.1872   19.7507 C   0  0  0  0  0  0  0  0  0  0  0  0
    6.3633  -16.3177   20.2995 C   0  0  0  0  0  0  0  0  0  0  0  0
    7.1478  -17.1893   21.2736 C   0  0  2  0  0  0  0  0  0  0  0  0
    6.7465  -18.5779   21.1200 N   0  0  0  0  0  0  0  0  0  0  0  0
    6.6903  -16.8050   22.6534 C   0  0  0  0  0  0  0  0  0  0  0  0
    5.4523  -16.6661   22.8102 O   0  0  0  0  0  0  0  0  0  0  0  0
    8.7505  -14.4095   16.7815 C   0  0  0  0  0  0  0  0  0  0  0  0
    7.1463  -17.5181   25.8085 C   0  0  2  0  0  0  0  0  0  0  0  0
    7.1245  -16.2056   24.9915 N   0  0  0  0  0  0  0  0  0  0  0  0
    7.6378  -16.6288   23.6754 C   0  0  0  0  0  0  0  0  0  0  0  0
    8.0726  -15.2399   25.5695 O   0  0  0  0  0  0  0  0  0  0  0  0
    9.3392  -15.3890   25.4056 N   0  0  0  0  0  0  0  0  0  0  0  0
    7.7189  -14.0969   26.3349 C   0  0  0  0  0  0  0  0  0  0  0  0
    6.3939  -13.5620   26.5885 C   0  0  0  0  0  0  0  0  0  0  0  0
    6.7444  -12.0636   26.6994 C   0  0  0  0  0  0  0  0  0  0  0  0
    7.8948  -12.1672   27.6943 C   0  0  2  0  0  0  0  0  0  0  0  0
    8.7118  -13.2842   27.0293 C   0  0  0  0  0  0  0  0  0  0  0  0
    9.3550  -14.0171   28.1182 O   0  0  0  0  0  0  0  0  0  0  0  0
   10.5014  -13.5378   28.7783 O   0  0  0  0  0  0  0  0  0  0  0  0
  1  2  1  0
  2  3  2  0
  4  2  1  0
  5  4  1  0
  6  5  1  0
  7  6  1  0
  8 10  1  0
  8  7  1  0
  8  9  1  6
 10 11  2  0
 10 14  1  0
 13 12  1  6
 14 13  1  0
 15 13  1  0
 16 15  2  0
 17 15  1  0
 17 18  1  0
 19 18  1  0
 20 19  1  0
 21 20  1  0
 21 17  1  0
 22 23  1  0
 21 22  1  1
 24 22  2  0
M  END
$$$$
