RAP.pdb
     RDKit          3D

 24 24  0  0  1  0  0  0  0  0999 V2000
    8.1968  -12.7590   20.3894 N   0  0  0  0  0  0  0  0  0  0  0  0
    8.7726  -12.7684   19.0849 C   0  0  0  0  0  0  0  0  0  0  0  0
    9.0836  -11.6479   18.4822 N   0  0  0  0  0  0  0  0  0  0  0  0
    9.0432  -13.9571   18.3666 N   0  0  0  0  0  0  0  0  0  0  0  0
    9.1082  -15.2332   19.0986 C   0  0  0  0  0  0  0  0  0  0  0  0
    7.8568  -15.9748   18.7168 C   0  0  0  0  0  0  0  0  0  0  0  0
    7.1930  -16.7397   19.7977 C   0  0  0  0  0  0  0  0  0  0  0  0
    8.0892  -16.9954   21.0042 C   0  0  2  0  0  0  0  0  0  0  0  0
    8.1761  -18.4245   21.2550 N   0  0  0  0  0  0  0  0  0  0  0  0
    7.3664  -16.4365   22.1984 C   0  0  0  0  0  0  0  0  0  0  0  0
    6.4004  -15.6720   21.9561 O   0  0  0  0  0  0  0  0  0  0  0  0
    9.3971  -11.7298   17.4970 C   0  0  0  0  0  0  0  0  0  0  0  0
    6.7119  -17.4492   25.4888 C   0  0  2  0  0  0  0  0  0  0  0  0
    7.0271  -16.2120   24.6169 N   0  0  0  0  0  0  0  0  0  0  0  0
    7.7873  -16.7874   23.4918 C   0  0  0  0  0  0  0  0  0  0  0  0
    7.9114  -15.2934   25.3516 O   0  0  0  0  0  0  0  0  0  0  0  0
    9.1862  -15.4600   25.3349 N   0  0  0  0  0  0  0  0  0  0  0  0
    7.4833  -14.1805   26.1233 C   0  0  0  0  0  0  0  0  0  0  0  0
    6.1325  -13.6835   26.3085 C   0  0  0  0  0  0  0  0  0  0  0  0
    6.4384  -12.1811   26.4799 C   0  0  0  0  0  0  0  0  0  0  0  0
    7.5280  -12.2854   27.5410 C   0  0  2  0  0  0  0  0  0  0  0  0
    8.4115  -13.3645   26.8986 C   0  0  0  0  0  0  0  0  0  0  0  0
    9.0050  -14.1122   28.0056 O   0  0  0  0  0  0  0  0  0  0  0  0
   10.0416  -13.5898   28.8009 O   0  0  0  0  0  0  0  0  0  0  0  0
  1  2  1  0
  2  3  2  0
  4  2  1  0
  5  4  1  0
  6  5  1  0
  7  6  1  0
  8 10  1  0
  8  7  1  0
  8  9  1  1
 10 11  2  0
 10 14  1  0
 13 12  1  6
 14 13  1  0
 15 13  1  0
 16 15  2  0
 17 15  1  0
 17 18  1  0
 19 18  1  0
 20 19  1  0
 21 20  1  0
 21 17  1  0
 22 23  1  0
 21 22  1  1
 24 22  2  0
M  END
$$$$
