RAP.pdb
     RDKit          3D

 24 24  0  0  1  0  0  0  0  0999 V2000
   11.0479  -13.3016   18.7058 N   0  0  0  0  0  0  0  0  0  0  0  0
    9.6663  -13.0236   18.9230 C   0  0  0  0  0  0  0  0  0  0  0  0
    9.0208  -12.1901   18.1459 N   0  0  0  0  0  0  0  0  0  0  0  0
    8.9124  -13.6130   19.9655 N   0  0  0  0  0  0  0  0  0  0  0  0
    8.7449  -15.0759   19.9848 C   0  0  0  0  0  0  0  0  0  0  0  0
    7.3471  -15.3226   19.4878 C   0  0  0  0  0  0  0  0  0  0  0  0
    6.3987  -15.9084   20.4633 C   0  0  0  0  0  0  0  0  0  0  0  0
    6.9996  -17.0320   21.3003 C   0  0  2  0  0  0  0  0  0  0  0  0
    6.3770  -18.2956   20.9421 N   0  0  0  0  0  0  0  0  0  0  0  0
    6.5743  -16.7802   22.7204 C   0  0  0  0  0  0  0  0  0  0  0  0
    5.3444  -16.6145   22.9114 O   0  0  0  0  0  0  0  0  0  0  0  0
    8.0198  -12.0369   18.3701 C   0  0  0  0  0  0  0  0  0  0  0  0
    7.1954  -17.6902   25.8784 C   0  0  1  0  0  0  0  0  0  0  0  0
    7.0736  -16.3683   25.0858 N   0  0  0  0  0  0  0  0  0  0  0  0
    7.5405  -16.7477   23.7394 C   0  0  0  0  0  0  0  0  0  0  0  0
    8.0038  -15.3681   25.6337 O   0  0  0  0  0  0  0  0  0  0  0  0
    9.2660  -15.4542   25.4039 N   0  0  0  0  0  0  0  0  0  0  0  0
    7.6365  -14.2560   26.4371 C   0  0  0  0  0  0  0  0  0  0  0  0
    6.3036  -13.8206   26.8111 C   0  0  0  0  0  0  0  0  0  0  0  0
    6.5519  -12.3008   26.9035 C   0  0  0  0  0  0  0  0  0  0  0  0
    7.7903  -12.3213   27.7922 C   0  0  2  0  0  0  0  0  0  0  0  0
    8.6248  -13.3737   27.0482 C   0  0  0  0  0  0  0  0  0  0  0  0
    9.4139  -14.0596   28.0698 O   0  0  0  0  0  0  0  0  0  0  0  0
   10.5416  -13.4736   28.6737 O   0  0  0  0  0  0  0  0  0  0  0  0
  1  2  1  0
  2  3  2  0
  4  2  1  0
  5  4  1  0
  6  5  1  0
  7  6  1  0
  8 10  1  0
  8  7  1  0
  8  9  1  6
 10 11  2  0
 10 14  1  0
 13 12  1  6
 14 13  1  0
 15 13  1  0
 16 15  2  0
 17 15  1  0
 17 18  1  0
 19 18  1  0
 20 19  1  0
 21 20  1  0
 21 17  1  0
 22 23  1  0
 21 22  1  1
 24 22  2  0
M  END
$$$$
