RAP.pdb
     RDKit          3D

 24 24  0  0  1  0  0  0  0  0999 V2000
    9.6688  -12.7535   18.8424 N   0  0  0  0  0  0  0  0  0  0  0  0
    8.8392  -13.5345   17.9850 C   0  0  0  0  0  0  0  0  0  0  0  0
    8.3003  -13.0083   16.9135 N   0  0  0  0  0  0  0  0  0  0  0  0
    8.5464  -14.8984   18.2229 N   0  0  0  0  0  0  0  0  0  0  0  0
    8.5484  -15.3967   19.6086 C   0  0  0  0  0  0  0  0  0  0  0  0
    7.4572  -14.6332   20.3072 C   0  0  0  0  0  0  0  0  0  0  0  0
    6.3566  -15.4412   20.8816 C   0  0  0  0  0  0  0  0  0  0  0  0
    6.8261  -16.7366   21.5341 C   0  0  2  0  0  0  0  0  0  0  0  0
    5.9519  -17.8284   21.1385 N   0  0  0  0  0  0  0  0  0  0  0  0
    6.5999  -16.5762   23.0119 C   0  0  0  0  0  0  0  0  0  0  0  0
    5.4795  -16.1268   23.3573 O   0  0  0  0  0  0  0  0  0  0  0  0
    7.7328  -13.6471   16.3257 C   0  0  0  0  0  0  0  0  0  0  0  0
    7.1693  -18.0387   25.9504 C   0  0  2  0  0  0  0  0  0  0  0  0
    7.3765  -16.6345   25.3374 N   0  0  0  0  0  0  0  0  0  0  0  0
    7.6179  -16.9298   23.9128 C   0  0  0  0  0  0  0  0  0  0  0  0
    8.5913  -16.0188   25.8949 O   0  0  0  0  0  0  0  0  0  0  0  0
    9.7531  -16.4904   25.6100 N   0  0  0  0  0  0  0  0  0  0  0  0
    8.6199  -14.8971   26.7657 C   0  0  0  0  0  0  0  0  0  0  0  0
    7.4995  -14.1289   27.2762 C   0  0  0  0  0  0  0  0  0  0  0  0
    8.1754  -12.7473   27.3960 C   0  0  0  0  0  0  0  0  0  0  0  0
    9.4237  -13.1653   28.1648 C   0  0  2  0  0  0  0  0  0  0  0  0
    9.8632  -14.3638   27.3117 C   0  0  0  0  0  0  0  0  0  0  0  0
   10.5039  -15.3014   28.2321 O   0  0  0  0  0  0  0  0  0  0  0  0
   11.7811  -15.0728   28.7764 O   0  0  0  0  0  0  0  0  0  0  0  0
  1  2  1  0
  2  3  2  0
  4  2  1  0
  5  4  1  0
  6  5  1  0
  7  6  1  0
  8 10  1  0
  8  7  1  0
  8  9  1  6
 10 11  2  0
 10 14  1  0
 13 12  1  6
 14 13  1  0
 15 13  1  0
 16 15  2  0
 17 15  1  0
 17 18  1  0
 19 18  1  0
 20 19  1  0
 21 20  1  0
 21 17  1  0
 22 23  1  0
 21 22  1  1
 24 22  2  0
M  END
$$$$
