RAP.pdb
     RDKit          3D

 24 24  0  0  1  0  0  0  0  0999 V2000
   10.9873  -15.0378   17.7899 N   0  0  0  0  0  0  0  0  0  0  0  0
   11.1342  -14.0116   18.7690 C   0  0  0  0  0  0  0  0  0  0  0  0
   12.2463  -13.8902   19.4501 N   0  0  0  0  0  0  0  0  0  0  0  0
   10.1166  -13.0745   19.0671 N   0  0  0  0  0  0  0  0  0  0  0  0
    8.7892  -13.2441   18.4526 C   0  0  0  0  0  0  0  0  0  0  0  0
    8.3177  -14.6026   18.8930 C   0  0  0  0  0  0  0  0  0  0  0  0
    7.6267  -14.6638   20.2018 C   0  0  0  0  0  0  0  0  0  0  0  0
    7.4112  -16.0838   20.7130 C   0  0  2  0  0  0  0  0  0  0  0  0
    6.3502  -16.7221   19.9516 N   0  0  0  0  0  0  0  0  0  0  0  0
    6.8637  -15.9565   22.1076 C   0  0  0  0  0  0  0  0  0  0  0  0
    5.6237  -16.1084   22.2341 O   0  0  0  0  0  0  0  0  0  0  0  0
   12.2715  -13.1283   20.1533 C   0  0  0  0  0  0  0  0  0  0  0  0
    6.7760  -17.1592   24.7533 C   0  0  1  0  0  0  0  0  0  0  0  0
    7.1491  -15.6759   24.5271 N   0  0  0  0  0  0  0  0  0  0  0  0
    7.7366  -15.6870   23.1745 C   0  0  0  0  0  0  0  0  0  0  0  0
    8.1929  -15.2706   25.4820 O   0  0  0  0  0  0  0  0  0  0  0  0
    9.3695  -15.7859   25.4222 N   0  0  0  0  0  0  0  0  0  0  0  0
    8.0304  -14.3190   26.5238 C   0  0  0  0  0  0  0  0  0  0  0  0
    6.8168  -13.6380   26.9355 C   0  0  0  0  0  0  0  0  0  0  0  0
    7.4275  -12.3071   27.4213 C   0  0  0  0  0  0  0  0  0  0  0  0
    8.5145  -12.8686   28.3307 C   0  0  2  0  0  0  0  0  0  0  0  0
    9.1347  -13.9048   27.3825 C   0  0  0  0  0  0  0  0  0  0  0  0
    9.6078  -14.9968   28.2313 O   0  0  0  0  0  0  0  0  0  0  0  0
   10.7866  -14.9051   28.9940 O   0  0  0  0  0  0  0  0  0  0  0  0
  1  2  1  0
  2  3  2  0
  4  2  1  0
  5  4  1  0
  6  5  1  0
  7  6  1  0
  8 10  1  0
  8  7  1  0
  8  9  1  6
 10 11  2  0
 10 14  1  0
 13 12  1  6
 14 13  1  0
 15 13  1  0
 16 15  2  0
 17 15  1  0
 17 18  1  0
 19 18  1  0
 20 19  1  0
 21 20  1  0
 21 17  1  0
 22 23  1  0
 21 22  1  1
 24 22  2  0
M  END
$$$$
