RAP.pdb
     RDKit          3D

 24 24  0  0  1  0  0  0  0  0999 V2000
    8.5058  -14.3653   14.5460 N   0  0  0  0  0  0  0  0  0  0  0  0
    8.7592  -14.0446   15.9121 C   0  0  0  0  0  0  0  0  0  0  0  0
    9.9362  -14.2624   16.4438 N   0  0  0  0  0  0  0  0  0  0  0  0
    7.7837  -13.4823   16.7692 N   0  0  0  0  0  0  0  0  0  0  0  0
    7.1179  -14.3485   17.7565 C   0  0  0  0  0  0  0  0  0  0  0  0
    7.7428  -13.9976   19.0788 C   0  0  0  0  0  0  0  0  0  0  0  0
    7.2498  -14.7488   20.2563 C   0  0  0  0  0  0  0  0  0  0  0  0
    8.3629  -15.2694   21.1586 C   0  0  2  0  0  0  0  0  0  0  0  0
    8.5560  -16.6913   20.9265 N   0  0  0  0  0  0  0  0  0  0  0  0
    7.8488  -15.1741   22.5684 C   0  0  0  0  0  0  0  0  0  0  0  0
    7.4242  -14.0494   22.9306 O   0  0  0  0  0  0  0  0  0  0  0  0
   10.0139  -14.1009   17.4653 C   0  0  0  0  0  0  0  0  0  0  0  0
    7.0997  -17.5673   25.2425 C   0  0  2  0  0  0  0  0  0  0  0  0
    7.4329  -16.1271   24.7896 N   0  0  0  0  0  0  0  0  0  0  0  0
    7.8610  -16.3129   23.3906 C   0  0  0  0  0  0  0  0  0  0  0  0
    8.5765  -15.6117   25.5592 O   0  0  0  0  0  0  0  0  0  0  0  0
    9.7407  -16.1434   25.4355 N   0  0  0  0  0  0  0  0  0  0  0  0
    8.5291  -14.5300   26.4784 C   0  0  0  0  0  0  0  0  0  0  0  0
    7.4107  -13.6549   26.7772 C   0  0  0  0  0  0  0  0  0  0  0  0
    8.1849  -12.3651   27.1198 C   0  0  0  0  0  0  0  0  0  0  0  0
    9.1805  -12.9493   28.1155 C   0  0  2  0  0  0  0  0  0  0  0  0
    9.6696  -14.1618   27.3105 C   0  0  0  0  0  0  0  0  0  0  0  0
    9.9879  -15.1967   28.2925 O   0  0  0  0  0  0  0  0  0  0  0  0
    9.1888  -16.3410   28.4708 O   0  0  0  0  0  0  0  0  0  0  0  0
  1  2  1  0
  2  3  2  0
  4  2  1  0
  5  4  1  0
  6  5  1  0
  7  6  1  0
  8 10  1  0
  8  7  1  0
  8  9  1  6
 10 11  2  0
 10 14  1  0
 13 12  1  6
 14 13  1  0
 15 13  1  0
 16 15  2  0
 17 15  1  0
 17 18  1  0
 19 18  1  0
 20 19  1  0
 21 20  1  0
 21 17  1  0
 22 23  1  0
 21 22  1  1
 24 22  2  0
M  END
$$$$
