RAP.pdb
     RDKit          3D

 24 24  0  0  1  0  0  0  0  0999 V2000
    7.5477  -12.7183   17.1604 N   0  0  0  0  0  0  0  0  0  0  0  0
    8.6571  -13.5985   16.9937 C   0  0  0  0  0  0  0  0  0  0  0  0
    8.9503  -14.0906   15.8158 N   0  0  0  0  0  0  0  0  0  0  0  0
    9.4996  -13.9929   18.0600 N   0  0  0  0  0  0  0  0  0  0  0  0
    8.9227  -14.1419   19.4066 C   0  0  0  0  0  0  0  0  0  0  0  0
    8.2740  -15.4988   19.4133 C   0  0  0  0  0  0  0  0  0  0  0  0
    8.5094  -16.3316   20.6155 C   0  0  0  0  0  0  0  0  0  0  0  0
    7.2568  -17.0345   21.1265 C   0  0  2  0  0  0  0  0  0  0  0  0
    6.1267  -16.7003   20.2755 N   0  0  0  0  0  0  0  0  0  0  0  0
    6.9340  -16.4160   22.4584 C   0  0  0  0  0  0  0  0  0  0  0  0
    6.2387  -15.3709   22.4323 O   0  0  0  0  0  0  0  0  0  0  0  0
    9.7646  -14.7316   15.7774 C   0  0  0  0  0  0  0  0  0  0  0  0
    6.7410  -17.7163   25.7938 C   0  0  2  0  0  0  0  0  0  0  0  0
    6.9161  -16.4596   24.9104 N   0  0  0  0  0  0  0  0  0  0  0  0
    7.4054  -17.0185   23.6365 C   0  0  0  0  0  0  0  0  0  0  0  0
    7.9672  -15.5956   25.4711 O   0  0  0  0  0  0  0  0  0  0  0  0
    9.2091  -15.8809   25.2988 N   0  0  0  0  0  0  0  0  0  0  0  0
    7.7446  -14.4143   26.2275 C   0  0  0  0  0  0  0  0  0  0  0  0
    6.4815  -13.7654   26.5270 C   0  0  0  0  0  0  0  0  0  0  0  0
    6.9605  -12.3003   26.5921 C   0  0  0  0  0  0  0  0  0  0  0  0
    8.1414  -12.4837   27.5385 C   0  0  2  0  0  0  0  0  0  0  0  0
    8.8318  -13.6766   26.8618 C   0  0  0  0  0  0  0  0  0  0  0  0
    9.4596  -14.4428   27.9366 O   0  0  0  0  0  0  0  0  0  0  0  0
   10.6249  -14.0076   28.5943 O   0  0  0  0  0  0  0  0  0  0  0  0
  1  2  1  0
  2  3  2  0
  4  2  1  0
  5  4  1  0
  6  5  1  0
  7  6  1  0
  8 10  1  0
  8  7  1  0
  8  9  1  6
 10 11  2  0
 10 14  1  0
 13 12  1  6
 14 13  1  0
 15 13  1  0
 16 15  2  0
 17 15  1  0
 17 18  1  0
 19 18  1  0
 20 19  1  0
 21 20  1  0
 21 17  1  0
 22 23  1  0
 21 22  1  1
 24 22  2  0
M  END
$$$$
