IYI.pdb
     RDKit          3D

 29 29  0  0  1  0  0  0  0  0999 V2000
   12.8674  -13.5694  -14.8323 C   0  0  0  0  0  0  0  0  0  0  0  0
   14.1111  -13.0982  -15.5389 C   0  0  0  0  0  0  0  0  0  0  0  0
   14.9196  -12.2723  -14.5599 C   0  0  2  0  0  0  0  0  0  0  0  0
   14.0821  -11.1218  -14.1076 C   0  0  0  0  0  0  0  0  0  0  0  0
   16.1939  -11.8613  -15.2478 C   0  0  2  0  0  0  0  0  0  0  0  0
   16.8897  -13.0557  -15.6684 N   0  0  0  0  0  0  0  0  0  0  0  0
   17.0490  -10.9971  -14.4327 C   0  0  0  0  0  0  0  0  0  0  0  0
   17.7908  -11.4846  -13.5537 O   0  0  0  0  0  0  0  0  0  0  0  0
   21.6314   -3.5421  -12.6625 O   0  0  0  0  0  0  0  0  0  0  0  0
   20.9406   -4.6391  -13.1666 C   0  0  0  0  0  0  0  0  0  0  0  0
   21.3545   -5.9133  -12.8791 C   0  0  0  0  0  0  0  0  0  0  0  0
   20.6589   -6.9880  -13.3865 C   0  0  0  0  0  0  0  0  0  0  0  0
   19.5437   -6.8737  -14.1861 C   0  0  0  0  0  0  0  0  0  0  0  0
   18.8099   -8.0293  -14.7214 C   0  0  0  0  0  0  0  0  0  0  0  0
   17.8017   -8.6565  -13.8164 C   0  0  2  0  0  0  0  0  0  0  0  0
   17.0199   -9.5995  -14.6587 N   0  0  0  0  0  0  0  0  0  0  0  0
   16.8699   -7.7474  -13.1359 C   0  0  0  0  0  0  0  0  0  0  0  0
   15.8521   -7.3673  -13.8310 O   0  0  0  0  0  0  0  0  0  0  0  0
   19.1441   -5.5593  -14.4630 C   0  0  0  0  0  0  0  0  0  0  0  0
   19.8330   -4.4891  -13.9605 C   0  0  0  0  0  0  0  0  0  0  0  0
   14.1976   -6.0578   -8.0014 C   0  0  0  0  0  0  0  0  0  0  0  0
   14.7469   -5.5146   -9.3225 C   0  0  0  0  0  0  0  0  0  0  0  0
   15.6461   -6.5635   -9.8794 C   0  0  2  0  0  0  0  0  0  0  0  0
   16.9016   -6.6931   -9.0521 C   0  0  0  0  0  0  0  0  0  0  0  0
   16.0289   -6.3120  -11.3279 C   0  0  2  0  0  0  0  0  0  0  0  0
   16.9893   -7.2677  -11.8046 N   0  0  0  0  0  0  0  0  0  0  0  0
   16.4605   -4.9113  -11.5274 C   0  0  0  0  0  0  0  0  0  0  0  0
   15.6328   -3.9856  -11.6092 O   0  0  0  0  0  0  0  0  0  0  0  0
   17.8033   -4.5563  -11.6336 O   0  0  0  0  0  0  0  0  0  0  0  0
  2  1  1  0
  3  2  1  0
  3  4  1  6
  5  3  1  0
  5  6  1  1
  7  8  2  0
  7  5  1  0
  9 10  1  0
 10 11  2  0
 11 12  1  0
 13 14  1  0
 13 12  2  0
 15 14  1  6
 15 16  1  0
 16  7  1  0
 17 26  1  0
 17 15  1  0
 18 17  2  0
 19 13  1  0
 20 19  2  0
 20 10  1  0
 21 22  1  0
 22 23  1  0
 23 25  1  0
 23 24  1  1
 25 27  1  0
 25 26  1  1
 27 29  1  0
 28 27  2  0
M  END
$$$$
