IYI.pdb
     RDKit          3D

 29 29  0  0  1  0  0  0  0  0999 V2000
   28.0078  -17.4817  -18.8125 C   0  0  0  0  0  0  0  0  0  0  0  0
   27.6414  -18.6826  -17.9807 C   0  0  0  0  0  0  0  0  0  0  0  0
   28.6541  -18.8010  -16.8605 C   0  0  2  0  0  0  0  0  0  0  0  0
   29.9972  -19.0529  -17.4622 C   0  0  0  0  0  0  0  0  0  0  0  0
   28.1897  -19.8933  -15.9347 C   0  0  2  0  0  0  0  0  0  0  0  0
   27.7381  -21.0076  -16.7360 N   0  0  0  0  0  0  0  0  0  0  0  0
   27.1640  -19.4610  -14.9843 C   0  0  0  0  0  0  0  0  0  0  0  0
   26.3286  -18.5891  -15.3043 O   0  0  0  0  0  0  0  0  0  0  0  0
   19.6986  -21.0932  -11.2867 O   0  0  0  0  0  0  0  0  0  0  0  0
   20.9626  -21.0135  -11.8618 C   0  0  0  0  0  0  0  0  0  0  0  0
   21.8820  -22.0095  -11.6606 C   0  0  0  0  0  0  0  0  0  0  0  0
   23.1288  -21.9145  -12.2374 C   0  0  0  0  0  0  0  0  0  0  0  0
   23.5328  -20.8603  -13.0258 C   0  0  0  0  0  0  0  0  0  0  0  0
   24.8670  -20.7710  -13.6360 C   0  0  0  0  0  0  0  0  0  0  0  0
   25.9078  -20.0352  -12.8588 C   0  0  2  0  0  0  0  0  0  0  0  0
   27.1360  -20.0490  -13.6963 N   0  0  0  0  0  0  0  0  0  0  0  0
   26.2369  -20.5661  -11.5293 C   0  0  0  0  0  0  0  0  0  0  0  0
   26.7715  -21.7398  -11.5128 O   0  0  0  0  0  0  0  0  0  0  0  0
   22.5721  -19.8575  -13.2137 C   0  0  0  0  0  0  0  0  0  0  0  0
   21.3323  -19.9486  -12.6421 C   0  0  0  0  0  0  0  0  0  0  0  0
   28.4761  -19.6397   -6.0894 C   0  0  0  0  0  0  0  0  0  0  0  0
   27.5481  -20.5540   -6.8927 C   0  0  0  0  0  0  0  0  0  0  0  0
   27.1479  -19.7979   -8.1122 C   0  0  2  0  0  0  0  0  0  0  0  0
   26.3931  -18.5435   -7.7461 C   0  0  0  0  0  0  0  0  0  0  0  0
   26.3078  -20.6209   -9.0740 C   0  0  2  0  0  0  0  0  0  0  0  0
   26.0265  -19.9078  -10.2887 N   0  0  0  0  0  0  0  0  0  0  0  0
   25.0893  -21.1331   -8.4101 C   0  0  0  0  0  0  0  0  0  0  0  0
   23.9668  -20.6607   -8.6661 O   0  0  0  0  0  0  0  0  0  0  0  0
   25.1320  -22.1617   -7.4716 O   0  0  0  0  0  0  0  0  0  0  0  0
  2  1  1  0
  3  2  1  0
  3  4  1  6
  5  3  1  0
  5  6  1  6
  7  8  2  0
  7  5  1  0
  9 10  1  0
 10 11  2  0
 11 12  1  0
 13 14  1  0
 13 12  2  0
 15 14  1  6
 15 16  1  0
 16  7  1  0
 17 26  1  0
 17 15  1  0
 18 17  2  0
 19 13  1  0
 20 19  2  0
 20 10  1  0
 21 22  1  0
 22 23  1  0
 23 25  1  0
 23 24  1  1
 25 27  1  0
 25 26  1  6
 27 29  1  0
 28 27  2  0
M  END
$$$$
