IYI.pdb
     RDKit          3D

 29 29  0  0  1  0  0  0  0  0999 V2000
   26.2276  -19.7640  -18.6632 C   0  0  0  0  0  0  0  0  0  0  0  0
   27.3346  -20.3031  -17.7960 C   0  0  0  0  0  0  0  0  0  0  0  0
   26.7346  -20.6899  -16.4601 C   0  0  2  0  0  0  0  0  0  0  0  0
   26.0906  -19.4820  -15.8636 C   0  0  0  0  0  0  0  0  0  0  0  0
   27.8349  -21.2712  -15.6131 C   0  0  2  0  0  0  0  0  0  0  0  0
   28.3334  -22.4593  -16.2671 N   0  0  0  0  0  0  0  0  0  0  0  0
   27.4318  -21.5437  -14.2327 C   0  0  0  0  0  0  0  0  0  0  0  0
   26.6609  -22.4914  -13.9715 O   0  0  0  0  0  0  0  0  0  0  0  0
   27.5398  -19.7495   -5.3921 O   0  0  0  0  0  0  0  0  0  0  0  0
   27.7979  -19.8754   -6.7531 C   0  0  0  0  0  0  0  0  0  0  0  0
   27.2806  -18.9731   -7.6452 C   0  0  0  0  0  0  0  0  0  0  0  0
   27.5461  -19.1127   -8.9892 C   0  0  0  0  0  0  0  0  0  0  0  0
   28.3168  -20.1230   -9.5196 C   0  0  0  0  0  0  0  0  0  0  0  0
   28.5929  -20.2608  -10.9567 C   0  0  0  0  0  0  0  0  0  0  0  0
   27.5287  -20.9059  -11.7814 C   0  0  2  0  0  0  0  0  0  0  0  0
   27.9313  -20.7140  -13.1995 N   0  0  0  0  0  0  0  0  0  0  0  0
   26.1608  -20.4000  -11.6063 C   0  0  0  0  0  0  0  0  0  0  0  0
   25.9141  -19.2564  -12.1494 O   0  0  0  0  0  0  0  0  0  0  0  0
   28.8321  -21.0301   -8.5839 C   0  0  0  0  0  0  0  0  0  0  0  0
   28.5702  -20.8944   -7.2477 C   0  0  0  0  0  0  0  0  0  0  0  0
   21.2640  -19.8758  -13.6617 C   0  0  0  0  0  0  0  0  0  0  0  0
   21.8193  -19.7575  -12.2405 C   0  0  0  0  0  0  0  0  0  0  0  0
   23.1170  -20.4887  -12.2224 C   0  0  2  0  0  0  0  0  0  0  0  0
   22.9283  -21.9330  -12.6170 C   0  0  0  0  0  0  0  0  0  0  0  0
   23.8156  -20.4287  -10.8746 C   0  0  2  0  0  0  0  0  0  0  0  0
   25.1088  -21.0525  -10.9104 N   0  0  0  0  0  0  0  0  0  0  0  0
   22.9472  -20.9617   -9.8024 C   0  0  0  0  0  0  0  0  0  0  0  0
   23.3016  -21.9296   -9.1050 O   0  0  0  0  0  0  0  0  0  0  0  0
   21.6981  -20.4146   -9.5180 O   0  0  0  0  0  0  0  0  0  0  0  0
  2  1  1  0
  3  2  1  0
  3  4  1  1
  5  3  1  0
  5  6  1  6
  7  8  2  0
  7  5  1  0
  9 10  1  0
 10 11  2  0
 11 12  1  0
 13 14  1  0
 13 12  2  0
 15 14  1  1
 15 16  1  0
 16  7  1  0
 17 26  1  0
 17 15  1  0
 18 17  2  0
 19 13  1  0
 20 19  2  0
 20 10  1  0
 21 22  1  0
 22 23  1  0
 23 25  1  0
 23 24  1  1
 25 27  1  0
 25 26  1  6
 27 29  1  0
 28 27  2  0
M  END
$$$$
