IYI.pdb
     RDKit          3D

 29 29  0  0  1  0  0  0  0  0999 V2000
   21.1820  -22.3652  -16.5565 C   0  0  0  0  0  0  0  0  0  0  0  0
   21.3518  -21.4272  -15.3906 C   0  0  0  0  0  0  0  0  0  0  0  0
   22.6796  -21.7376  -14.7313 C   0  0  2  0  0  0  0  0  0  0  0  0
   22.7222  -23.1970  -14.4185 C   0  0  0  0  0  0  0  0  0  0  0  0
   22.8089  -20.8537  -13.5197 C   0  0  2  0  0  0  0  0  0  0  0  0
   22.6556  -19.4799  -13.9402 N   0  0  0  0  0  0  0  0  0  0  0  0
   24.0535  -21.0550  -12.7761 C   0  0  0  0  0  0  0  0  0  0  0  0
   24.3536  -22.1841  -12.3338 O   0  0  0  0  0  0  0  0  0  0  0  0
   28.7752  -20.4587  -17.7899 O   0  0  0  0  0  0  0  0  0  0  0  0
   28.3780  -20.1366  -16.4964 C   0  0  0  0  0  0  0  0  0  0  0  0
   27.7199  -18.9616  -16.2435 C   0  0  0  0  0  0  0  0  0  0  0  0
   27.3338  -18.6584  -14.9569 C   0  0  0  0  0  0  0  0  0  0  0  0
   27.5673  -19.4735  -13.8720 C   0  0  0  0  0  0  0  0  0  0  0  0
   27.1498  -19.1382  -12.5032 C   0  0  0  0  0  0  0  0  0  0  0  0
   26.2020  -20.0850  -11.8444 C   0  0  2  0  0  0  0  0  0  0  0  0
   24.9103  -19.9470  -12.5673 N   0  0  0  0  0  0  0  0  0  0  0  0
   25.9629  -19.8869  -10.4086 C   0  0  0  0  0  0  0  0  0  0  0  0
   25.1603  -18.9245  -10.1032 O   0  0  0  0  0  0  0  0  0  0  0  0
   28.2418  -20.6675  -14.1610 C   0  0  0  0  0  0  0  0  0  0  0  0
   28.6268  -20.9720  -15.4382 C   0  0  0  0  0  0  0  0  0  0  0  0
   23.2968  -21.9377   -6.6913 C   0  0  0  0  0  0  0  0  0  0  0  0
   24.0941  -21.0662   -7.6645 C   0  0  0  0  0  0  0  0  0  0  0  0
   25.4949  -21.0267   -7.1595 C   0  0  2  0  0  0  0  0  0  0  0  0
   25.5404  -20.5419   -5.7312 C   0  0  0  0  0  0  0  0  0  0  0  0
   26.4097  -20.1600   -8.0082 C   0  0  2  0  0  0  0  0  0  0  0  0
   26.5236  -20.6529   -9.3524 N   0  0  0  0  0  0  0  0  0  0  0  0
   27.7207  -19.9691   -7.3504 C   0  0  0  0  0  0  0  0  0  0  0  0
   28.7082  -20.6578   -7.6656 O   0  0  0  0  0  0  0  0  0  0  0  0
   27.9189  -19.0177   -6.3523 O   0  0  0  0  0  0  0  0  0  0  0  0
  2  1  1  0
  3  2  1  0
  3  4  1  1
  5  3  1  0
  5  6  1  6
  7  8  2  0
  7  5  1  0
  9 10  1  0
 10 11  2  0
 11 12  1  0
 13 14  1  0
 13 12  2  0
 15 14  1  6
 15 16  1  0
 16  7  1  0
 17 26  1  0
 17 15  1  0
 18 17  2  0
 19 13  1  0
 20 19  2  0
 20 10  1  0
 21 22  1  0
 22 23  1  0
 23 25  1  0
 23 24  1  1
 25 27  1  0
 25 26  1  6
 27 29  1  0
 28 27  2  0
M  END
$$$$
