IYI.pdb
     RDKit          3D

 29 29  0  0  1  0  0  0  0  0999 V2000
   27.9739  -18.7819  -17.0173 C   0  0  0  0  0  0  0  0  0  0  0  0
   28.3081  -19.6165  -15.8090 C   0  0  0  0  0  0  0  0  0  0  0  0
   27.5725  -19.0327  -14.6206 C   0  0  2  0  0  0  0  0  0  0  0  0
   27.9806  -17.6046  -14.4670 C   0  0  0  0  0  0  0  0  0  0  0  0
   27.8872  -19.8858  -13.4210 C   0  0  2  0  0  0  0  0  0  0  0  0
   27.7571  -21.2733  -13.8025 N   0  0  0  0  0  0  0  0  0  0  0  0
   27.0730  -19.5704  -12.2462 C   0  0  0  0  0  0  0  0  0  0  0  0
   26.8692  -18.3833  -11.9148 O   0  0  0  0  0  0  0  0  0  0  0  0
   20.4353  -20.9148   -6.4838 O   0  0  0  0  0  0  0  0  0  0  0  0
   21.4073  -20.9816   -7.4765 C   0  0  0  0  0  0  0  0  0  0  0  0
   21.2340  -20.3212   -8.6647 C   0  0  0  0  0  0  0  0  0  0  0  0
   22.2064  -20.3981   -9.6367 C   0  0  0  0  0  0  0  0  0  0  0  0
   23.3762  -21.1115   -9.4992 C   0  0  0  0  0  0  0  0  0  0  0  0
   24.4066  -21.1854  -10.5447 C   0  0  0  0  0  0  0  0  0  0  0  0
   25.6470  -20.3868  -10.3161 C   0  0  2  0  0  0  0  0  0  0  0  0
   26.5212  -20.6349  -11.4928 N   0  0  0  0  0  0  0  0  0  0  0  0
   26.4060  -20.6821   -9.0935 C   0  0  0  0  0  0  0  0  0  0  0  0
   27.2232  -21.6771   -9.1697 O   0  0  0  0  0  0  0  0  0  0  0  0
   23.5255  -21.7760   -8.2744 C   0  0  0  0  0  0  0  0  0  0  0  0
   22.5614  -21.7018   -7.3063 C   0  0  0  0  0  0  0  0  0  0  0  0
   30.1064  -18.2797   -6.2156 C   0  0  0  0  0  0  0  0  0  0  0  0
   29.2554  -19.3383   -6.9209 C   0  0  0  0  0  0  0  0  0  0  0  0
   27.9905  -19.4624   -6.1440 C   0  0  2  0  0  0  0  0  0  0  0  0
   28.2738  -19.8124   -4.7037 C   0  0  0  0  0  0  0  0  0  0  0  0
   27.0325  -20.4880   -6.7258 C   0  0  2  0  0  0  0  0  0  0  0  0
   26.3221  -19.9759   -7.8643 N   0  0  0  0  0  0  0  0  0  0  0  0
   26.1356  -21.0290   -5.6814 C   0  0  0  0  0  0  0  0  0  0  0  0
   24.9981  -20.5582   -5.4992 O   0  0  0  0  0  0  0  0  0  0  0  0
   26.5120  -22.0843   -4.8536 O   0  0  0  0  0  0  0  0  0  0  0  0
  2  1  1  0
  3  2  1  0
  3  4  1  1
  5  3  1  0
  5  6  1  6
  7  8  2  0
  7  5  1  0
  9 10  1  0
 10 11  2  0
 11 12  1  0
 13 14  1  0
 13 12  2  0
 15 14  1  6
 15 16  1  0
 16  7  1  0
 17 26  1  0
 17 15  1  0
 18 17  2  0
 19 13  1  0
 20 19  2  0
 20 10  1  0
 21 22  1  0
 22 23  1  0
 23 25  1  0
 23 24  1  1
 25 27  1  0
 25 26  1  6
 27 29  1  0
 28 27  2  0
M  END
$$$$
