IYI.pdb
     RDKit          3D

 29 29  0  0  1  0  0  0  0  0999 V2000
   29.1467  -22.3488  -17.5102 C   0  0  0  0  0  0  0  0  0  0  0  0
   27.8340  -22.5504  -16.8000 C   0  0  0  0  0  0  0  0  0  0  0  0
   27.6419  -21.3967  -15.8376 C   0  0  2  0  0  0  0  0  0  0  0  0
   28.8011  -21.3679  -14.8969 C   0  0  0  0  0  0  0  0  0  0  0  0
   26.3126  -21.5829  -15.1564 C   0  0  2  0  0  0  0  0  0  0  0  0
   25.2867  -21.6522  -16.1716 N   0  0  0  0  0  0  0  0  0  0  0  0
   26.0153  -20.5549  -14.1578 C   0  0  0  0  0  0  0  0  0  0  0  0
   25.8704  -19.3617  -14.4983 O   0  0  0  0  0  0  0  0  0  0  0  0
   19.9617  -23.0935  -12.1725 O   0  0  0  0  0  0  0  0  0  0  0  0
   21.0151  -22.1858  -12.1364 C   0  0  0  0  0  0  0  0  0  0  0  0
   21.4249  -21.6434  -10.9466 C   0  0  0  0  0  0  0  0  0  0  0  0
   22.4694  -20.7462  -10.9289 C   0  0  0  0  0  0  0  0  0  0  0  0
   23.1539  -20.3411  -12.0530 C   0  0  0  0  0  0  0  0  0  0  0  0
   24.2676  -19.3825  -12.0206 C   0  0  0  0  0  0  0  0  0  0  0  0
   25.6209  -19.9421  -11.7300 C   0  0  2  0  0  0  0  0  0  0  0  0
   25.8951  -20.9375  -12.7996 N   0  0  0  0  0  0  0  0  0  0  0  0
   25.8003  -20.5906  -10.4242 C   0  0  0  0  0  0  0  0  0  0  0  0
   25.6902  -21.8758  -10.4187 O   0  0  0  0  0  0  0  0  0  0  0  0
   22.7129  -20.9122  -13.2544 C   0  0  0  0  0  0  0  0  0  0  0  0
   21.6754  -21.8040  -13.2756 C   0  0  0  0  0  0  0  0  0  0  0  0
   28.6615  -20.2059   -5.0710 C   0  0  0  0  0  0  0  0  0  0  0  0
   27.6601  -20.9826   -5.9292 C   0  0  0  0  0  0  0  0  0  0  0  0
   27.2903  -20.0967   -7.0682 C   0  0  2  0  0  0  0  0  0  0  0  0
   26.7259  -18.7877   -6.5730 C   0  0  0  0  0  0  0  0  0  0  0  0
   26.2967  -20.7373   -8.0225 C   0  0  2  0  0  0  0  0  0  0  0  0
   26.0848  -19.9369   -9.1961 N   0  0  0  0  0  0  0  0  0  0  0  0
   25.0390  -21.0840   -7.3255 C   0  0  0  0  0  0  0  0  0  0  0  0
   23.9821  -20.4685   -7.5552 O   0  0  0  0  0  0  0  0  0  0  0  0
   24.9703  -22.1079   -6.3835 O   0  0  0  0  0  0  0  0  0  0  0  0
  2  1  1  0
  3  2  1  0
  3  4  1  1
  5  3  1  0
  5  6  1  6
  7  8  2  0
  7  5  1  0
  9 10  1  0
 10 11  2  0
 11 12  1  0
 13 14  1  0
 13 12  2  0
 15 14  1  1
 15 16  1  0
 16  7  1  0
 17 26  1  0
 17 15  1  0
 18 17  2  0
 19 13  1  0
 20 19  2  0
 20 10  1  0
 21 22  1  0
 22 23  1  0
 23 25  1  0
 23 24  1  1
 25 27  1  0
 25 26  1  6
 27 29  1  0
 28 27  2  0
M  END
$$$$
