IYI.pdb
     RDKit          3D

 29 29  0  0  1  0  0  0  0  0999 V2000
   27.6993  -19.2169  -17.1586 C   0  0  0  0  0  0  0  0  0  0  0  0
   27.9465  -20.1445  -15.9982 C   0  0  0  0  0  0  0  0  0  0  0  0
   27.2882  -19.5449  -14.7729 C   0  0  2  0  0  0  0  0  0  0  0  0
   27.8140  -18.1603  -14.5836 C   0  0  0  0  0  0  0  0  0  0  0  0
   27.5604  -20.4612  -13.6101 C   0  0  2  0  0  0  0  0  0  0  0  0
   27.0830  -21.7820  -13.9500 N   0  0  0  0  0  0  0  0  0  0  0  0
   26.9921  -19.9906  -12.3459 C   0  0  0  0  0  0  0  0  0  0  0  0
   27.1518  -18.8071  -11.9794 O   0  0  0  0  0  0  0  0  0  0  0  0
   20.4321  -19.0821  -14.0921 O   0  0  0  0  0  0  0  0  0  0  0  0
   21.3551  -19.5841  -13.1807 C   0  0  0  0  0  0  0  0  0  0  0  0
   21.5461  -18.9660  -11.9727 C   0  0  0  0  0  0  0  0  0  0  0  0
   22.4641  -19.4764  -11.0821 C   0  0  0  0  0  0  0  0  0  0  0  0
   23.2279  -20.5965  -11.3227 C   0  0  0  0  0  0  0  0  0  0  0  0
   24.2045  -21.1314  -10.3633 C   0  0  0  0  0  0  0  0  0  0  0  0
   25.5373  -20.4599  -10.3240 C   0  0  2  0  0  0  0  0  0  0  0  0
   26.2587  -20.9010  -11.5467 N   0  0  0  0  0  0  0  0  0  0  0  0
   26.3806  -20.7352   -9.1531 C   0  0  0  0  0  0  0  0  0  0  0  0
   27.0087  -21.8617   -9.1692 O   0  0  0  0  0  0  0  0  0  0  0  0
   23.0110  -21.2071  -12.5653 C   0  0  0  0  0  0  0  0  0  0  0  0
   22.0998  -20.7026  -13.4527 C   0  0  0  0  0  0  0  0  0  0  0  0
   29.9706  -18.8720   -4.7007 C   0  0  0  0  0  0  0  0  0  0  0  0
   29.0205  -19.9773   -5.1676 C   0  0  0  0  0  0  0  0  0  0  0  0
   28.2144  -19.4096   -6.2842 C   0  0  2  0  0  0  0  0  0  0  0  0
   27.4689  -18.1755   -5.8387 C   0  0  0  0  0  0  0  0  0  0  0  0
   27.2258  -20.4033   -6.8702 C   0  0  2  0  0  0  0  0  0  0  0  0
   26.5634  -19.8817   -8.0330 N   0  0  0  0  0  0  0  0  0  0  0  0
   26.2837  -20.8866   -5.8374 C   0  0  0  0  0  0  0  0  0  0  0  0
   26.6892  -21.4641   -4.8123 O   0  0  0  0  0  0  0  0  0  0  0  0
   24.9053  -20.7231   -5.9551 O   0  0  0  0  0  0  0  0  0  0  0  0
  2  1  1  0
  3  2  1  0
  3  4  1  1
  5  3  1  0
  5  6  1  6
  7  8  2  0
  7  5  1  0
  9 10  1  0
 10 11  2  0
 11 12  1  0
 13 14  1  0
 13 12  2  0
 15 14  1  1
 15 16  1  0
 16  7  1  0
 17 26  1  0
 17 15  1  0
 18 17  2  0
 19 13  1  0
 20 19  2  0
 20 10  1  0
 21 22  1  0
 22 23  1  0
 23 25  1  0
 23 24  1  1
 25 27  1  0
 25 26  1  6
 27 29  1  0
 28 27  2  0
M  END
$$$$
