IYI.pdb
     RDKit          3D

 29 29  0  0  1  0  0  0  0  0999 V2000
   28.1348  -19.8020  -19.5580 C   0  0  0  0  0  0  0  0  0  0  0  0
   27.5437  -21.1573  -19.8439 C   0  0  0  0  0  0  0  0  0  0  0  0
   26.6601  -21.5375  -18.6739 C   0  0  2  0  0  0  0  0  0  0  0  0
   25.6190  -20.4806  -18.5049 C   0  0  0  0  0  0  0  0  0  0  0  0
   27.5445  -21.7158  -17.4689 C   0  0  2  0  0  0  0  0  0  0  0  0
   28.4958  -22.7653  -17.7539 N   0  0  0  0  0  0  0  0  0  0  0  0
   26.8064  -21.9774  -16.2323 C   0  0  0  0  0  0  0  0  0  0  0  0
   26.1540  -23.0336  -16.0935 O   0  0  0  0  0  0  0  0  0  0  0  0
   24.5735  -20.4545   -7.6640 O   0  0  0  0  0  0  0  0  0  0  0  0
   25.1325  -20.4654   -8.9377 C   0  0  0  0  0  0  0  0  0  0  0  0
   24.7514  -19.5383   -9.8721 C   0  0  0  0  0  0  0  0  0  0  0  0
   25.3150  -19.5636  -11.1283 C   0  0  0  0  0  0  0  0  0  0  0  0
   26.2624  -20.4796  -11.5276 C   0  0  0  0  0  0  0  0  0  0  0  0
   26.8564  -20.4956  -12.8719 C   0  0  0  0  0  0  0  0  0  0  0  0
   26.0726  -21.1851  -13.9391 C   0  0  2  0  0  0  0  0  0  0  0  0
   26.8455  -21.0119  -15.1971 N   0  0  0  0  0  0  0  0  0  0  0  0
   24.6995  -20.7118  -14.1596 C   0  0  0  0  0  0  0  0  0  0  0  0
   24.5803  -19.6787  -14.9226 O   0  0  0  0  0  0  0  0  0  0  0  0
   26.6322  -21.4146  -10.5515 C   0  0  0  0  0  0  0  0  0  0  0  0
   26.0743  -21.3925   -9.3023 C   0  0  0  0  0  0  0  0  0  0  0  0
   20.4688  -20.0047  -17.1904 C   0  0  0  0  0  0  0  0  0  0  0  0
   20.6289  -19.9742  -15.6687 C   0  0  0  0  0  0  0  0  0  0  0  0
   21.8788  -20.7201  -15.3517 C   0  0  2  0  0  0  0  0  0  0  0  0
   21.7619  -22.1679  -15.7608 C   0  0  0  0  0  0  0  0  0  0  0  0
   22.2592  -20.6476  -13.8826 C   0  0  2  0  0  0  0  0  0  0  0  0
   23.5184  -21.2869  -13.6205 N   0  0  0  0  0  0  0  0  0  0  0  0
   21.1653  -21.1540  -13.0254 C   0  0  0  0  0  0  0  0  0  0  0  0
   20.0550  -20.5927  -12.9957 O   0  0  0  0  0  0  0  0  0  0  0  0
   21.3172  -22.2753  -12.2130 O   0  0  0  0  0  0  0  0  0  0  0  0
  2  1  1  0
  3  2  1  0
  3  4  1  1
  5  3  1  0
  5  6  1  6
  7  8  2  0
  7  5  1  0
  9 10  1  0
 10 11  2  0
 11 12  1  0
 13 14  1  0
 13 12  2  0
 15 14  1  1
 15 16  1  0
 16  7  1  0
 17 26  1  0
 17 15  1  0
 18 17  2  0
 19 13  1  0
 20 19  2  0
 20 10  1  0
 21 22  1  0
 22 23  1  0
 23 25  1  0
 23 24  1  1
 25 27  1  0
 25 26  1  6
 27 29  1  0
 28 27  2  0
M  END
$$$$
