IYI.pdb
     RDKit          3D

 29 29  0  0  1  0  0  0  0  0999 V2000
   29.4806  -18.3770  -16.2955 C   0  0  0  0  0  0  0  0  0  0  0  0
   28.3990  -19.3711  -15.9638 C   0  0  0  0  0  0  0  0  0  0  0  0
   27.8113  -18.9907  -14.6206 C   0  0  2  0  0  0  0  0  0  0  0  0
   28.9172  -18.9379  -13.6187 C   0  0  0  0  0  0  0  0  0  0  0  0
   26.7388  -19.9931  -14.2877 C   0  0  2  0  0  0  0  0  0  0  0  0
   25.8108  -20.0510  -15.3938 N   0  0  0  0  0  0  0  0  0  0  0  0
   26.0544  -19.7225  -13.0225 C   0  0  0  0  0  0  0  0  0  0  0  0
   25.3947  -18.6729  -12.8691 O   0  0  0  0  0  0  0  0  0  0  0  0
   19.8641  -19.4999  -13.8898 O   0  0  0  0  0  0  0  0  0  0  0  0
   20.9314  -19.9611  -13.1263 C   0  0  0  0  0  0  0  0  0  0  0  0
   21.7425  -20.9603  -13.5970 C   0  0  0  0  0  0  0  0  0  0  0  0
   22.7946  -21.4050  -12.8279 C   0  0  0  0  0  0  0  0  0  0  0  0
   23.1017  -20.9046  -11.5823 C   0  0  0  0  0  0  0  0  0  0  0  0
   24.2282  -21.3881  -10.7713 C   0  0  0  0  0  0  0  0  0  0  0  0
   25.4240  -20.4978  -10.6930 C   0  0  2  0  0  0  0  0  0  0  0  0
   26.1538  -20.6718  -11.9764 N   0  0  0  0  0  0  0  0  0  0  0  0
   26.3556  -20.7404   -9.5834 C   0  0  0  0  0  0  0  0  0  0  0  0
   27.1049  -21.7837   -9.7007 O   0  0  0  0  0  0  0  0  0  0  0  0
   22.2555  -19.8844  -11.1274 C   0  0  0  0  0  0  0  0  0  0  0  0
   21.2091  -19.4401  -11.8889 C   0  0  0  0  0  0  0  0  0  0  0  0
   29.9223  -18.7381   -5.1649 C   0  0  0  0  0  0  0  0  0  0  0  0
   29.0844  -19.9167   -5.6660 C   0  0  0  0  0  0  0  0  0  0  0  0
   28.1797  -19.3840   -6.7227 C   0  0  2  0  0  0  0  0  0  0  0  0
   27.3291  -18.2580   -6.1879 C   0  0  0  0  0  0  0  0  0  0  0  0
   27.2764  -20.4469   -7.3246 C   0  0  2  0  0  0  0  0  0  0  0  0
   26.5020  -19.9371   -8.4215 N   0  0  0  0  0  0  0  0  0  0  0  0
   26.4471  -21.0909   -6.2827 C   0  0  0  0  0  0  0  0  0  0  0  0
   25.2198  -20.8941   -6.2205 O   0  0  0  0  0  0  0  0  0  0  0  0
   26.9895  -21.9439   -5.3242 O   0  0  0  0  0  0  0  0  0  0  0  0
  2  1  1  0
  3  2  1  0
  3  4  1  1
  5  3  1  0
  5  6  1  6
  7  8  2  0
  7  5  1  0
  9 10  1  0
 10 11  2  0
 11 12  1  0
 13 14  1  0
 13 12  2  0
 15 14  1  6
 15 16  1  0
 16  7  1  0
 17 26  1  0
 17 15  1  0
 18 17  2  0
 19 13  1  0
 20 19  2  0
 20 10  1  0
 21 22  1  0
 22 23  1  0
 23 25  1  0
 23 24  1  1
 25 27  1  0
 25 26  1  6
 27 29  1  0
 28 27  2  0
M  END
$$$$
