IYI.pdb
     RDKit          3D

 29 29  0  0  1  0  0  0  0  0999 V2000
   27.7050  -19.0086  -17.3923 C   0  0  0  0  0  0  0  0  0  0  0  0
   27.9763  -19.9500  -16.2485 C   0  0  0  0  0  0  0  0  0  0  0  0
   27.2456  -19.4262  -15.0295 C   0  0  2  0  0  0  0  0  0  0  0  0
   27.6450  -18.0037  -14.8140 C   0  0  0  0  0  0  0  0  0  0  0  0
   27.5751  -20.3306  -13.8722 C   0  0  2  0  0  0  0  0  0  0  0  0
   27.1900  -21.6782  -14.2237 N   0  0  0  0  0  0  0  0  0  0  0  0
   26.9713  -19.9093  -12.6071 C   0  0  0  0  0  0  0  0  0  0  0  0
   26.9407  -18.7016  -12.2891 O   0  0  0  0  0  0  0  0  0  0  0  0
   20.6024  -19.2049  -14.3705 O   0  0  0  0  0  0  0  0  0  0  0  0
   21.5205  -19.7039  -13.4525 C   0  0  0  0  0  0  0  0  0  0  0  0
   22.2419  -20.8342  -13.7350 C   0  0  0  0  0  0  0  0  0  0  0  0
   23.1467  -21.3145  -12.8147 C   0  0  0  0  0  0  0  0  0  0  0  0
   23.3878  -20.7251  -11.5938 C   0  0  0  0  0  0  0  0  0  0  0  0
   24.3567  -21.2479  -10.6201 C   0  0  0  0  0  0  0  0  0  0  0  0
   25.6623  -20.5299  -10.5271 C   0  0  2  0  0  0  0  0  0  0  0  0
   26.4231  -20.8951  -11.7510 N   0  0  0  0  0  0  0  0  0  0  0  0
   26.4928  -20.8203   -9.3507 C   0  0  0  0  0  0  0  0  0  0  0  0
   27.0179  -21.9979   -9.3143 O   0  0  0  0  0  0  0  0  0  0  0  0
   22.6359  -19.5717  -11.3328 C   0  0  0  0  0  0  0  0  0  0  0  0
   21.7360  -19.0916  -12.2449 C   0  0  0  0  0  0  0  0  0  0  0  0
   29.8739  -18.9534   -4.6531 C   0  0  0  0  0  0  0  0  0  0  0  0
   28.9731  -20.0558   -5.2148 C   0  0  0  0  0  0  0  0  0  0  0  0
   28.3047  -19.4934   -6.4214 C   0  0  2  0  0  0  0  0  0  0  0  0
   27.5790  -18.2127   -6.0889 C   0  0  0  0  0  0  0  0  0  0  0  0
   27.3308  -20.4631   -7.0690 C   0  0  2  0  0  0  0  0  0  0  0  0
   26.7652  -19.9313   -8.2774 N   0  0  0  0  0  0  0  0  0  0  0  0
   26.3064  -20.9123   -6.1012 C   0  0  0  0  0  0  0  0  0  0  0  0
   25.1172  -20.5618   -6.2096 O   0  0  0  0  0  0  0  0  0  0  0  0
   26.6143  -21.7437   -5.0267 O   0  0  0  0  0  0  0  0  0  0  0  0
  2  1  1  0
  3  2  1  0
  3  4  1  1
  5  3  1  0
  5  6  1  6
  7  8  2  0
  7  5  1  0
  9 10  1  0
 10 11  2  0
 11 12  1  0
 13 14  1  0
 13 12  2  0
 15 14  1  1
 15 16  1  0
 16  7  1  0
 17 26  1  0
 17 15  1  0
 18 17  2  0
 19 13  1  0
 20 19  2  0
 20 10  1  0
 21 22  1  0
 22 23  1  0
 23 25  1  0
 23 24  1  1
 25 27  1  0
 25 26  1  6
 27 29  1  0
 28 27  2  0
M  END
$$$$
