IYI.pdb
     RDKit          3D

 29 29  0  0  1  0  0  0  0  0999 V2000
   20.5556  -16.7525  -18.2953 C   0  0  0  0  0  0  0  0  0  0  0  0
   19.8420  -15.7327  -19.1432 C   0  0  0  0  0  0  0  0  0  0  0  0
   20.4287  -14.3720  -18.8293 C   0  0  2  0  0  0  0  0  0  0  0  0
   20.2319  -14.0964  -17.3750 C   0  0  0  0  0  0  0  0  0  0  0  0
   19.7660  -13.3663  -19.7322 C   0  0  2  0  0  0  0  0  0  0  0  0
   19.9064  -13.8183  -21.0974 N   0  0  0  0  0  0  0  0  0  0  0  0
   20.2684  -12.0023  -19.5608 C   0  0  0  0  0  0  0  0  0  0  0  0
   21.4187  -11.6968  -19.9404 O   0  0  0  0  0  0  0  0  0  0  0  0
   19.4521   -3.1657  -18.5656 O   0  0  0  0  0  0  0  0  0  0  0  0
   19.3255   -4.5338  -18.7826 C   0  0  0  0  0  0  0  0  0  0  0  0
   20.2720   -5.2140  -19.5030 C   0  0  0  0  0  0  0  0  0  0  0  0
   20.1311   -6.5683  -19.7082 C   0  0  0  0  0  0  0  0  0  0  0  0
   19.0768   -7.3129  -19.2284 C   0  0  0  0  0  0  0  0  0  0  0  0
   18.9381   -8.7586  -19.4544 C   0  0  0  0  0  0  0  0  0  0  0  0
   19.8870   -9.6432  -18.7156 C   0  0  2  0  0  0  0  0  0  0  0  0
   19.4272  -11.0361  -18.9572 N   0  0  0  0  0  0  0  0  0  0  0  0
   19.9984   -9.4273  -17.2669 C   0  0  0  0  0  0  0  0  0  0  0  0
   19.0669   -9.9578  -16.5495 O   0  0  0  0  0  0  0  0  0  0  0  0
   18.1251   -6.5908  -18.4958 C   0  0  0  0  0  0  0  0  0  0  0  0
   18.2620   -5.2451  -18.2899 C   0  0  0  0  0  0  0  0  0  0  0  0
   23.6258  -11.1323  -14.2238 C   0  0  0  0  0  0  0  0  0  0  0  0
   22.3325  -10.6532  -14.8871 C   0  0  0  0  0  0  0  0  0  0  0  0
   22.1441   -9.2307  -14.4873 C   0  0  2  0  0  0  0  0  0  0  0  0
   21.9775   -9.1077  -12.9925 C   0  0  0  0  0  0  0  0  0  0  0  0
   20.9616   -8.5703  -15.1755 C   0  0  2  0  0  0  0  0  0  0  0  0
   21.0260   -8.7053  -16.6040 N   0  0  0  0  0  0  0  0  0  0  0  0
   20.8070   -7.1668  -14.7348 C   0  0  0  0  0  0  0  0  0  0  0  0
   20.3446   -6.8889  -13.6133 O   0  0  0  0  0  0  0  0  0  0  0  0
   21.1669   -6.0909  -15.5431 O   0  0  0  0  0  0  0  0  0  0  0  0
  2  1  1  0
  3  2  1  0
  3  4  1  1
  5  3  1  0
  5  6  1  6
  7  8  2  0
  7  5  1  0
  9 10  1  0
 10 11  2  0
 11 12  1  0
 13 14  1  0
 13 12  2  0
 15 14  1  1
 15 16  1  0
 16  7  1  0
 17 26  1  0
 17 15  1  0
 18 17  2  0
 19 13  1  0
 20 19  2  0
 20 10  1  0
 21 22  1  0
 22 23  1  0
 23 25  1  0
 23 24  1  1
 25 27  1  0
 25 26  1  6
 27 29  1  0
 28 27  2  0
M  END
$$$$
