IYI.pdb
     RDKit          3D

 29 29  0  0  1  0  0  0  0  0999 V2000
   27.4817  -20.1819  -20.3297 C   0  0  0  0  0  0  0  0  0  0  0  0
   27.5349  -20.7486  -18.9354 C   0  0  0  0  0  0  0  0  0  0  0  0
   28.7996  -20.2417  -18.2736 C   0  0  2  0  0  0  0  0  0  0  0  0
   29.9712  -20.7082  -19.0731 C   0  0  0  0  0  0  0  0  0  0  0  0
   28.8022  -20.7328  -16.8507 C   0  0  2  0  0  0  0  0  0  0  0  0
   28.7471  -22.1766  -16.8674 N   0  0  0  0  0  0  0  0  0  0  0  0
   27.7333  -20.1613  -16.0301 C   0  0  0  0  0  0  0  0  0  0  0  0
   27.6239  -18.9235  -15.9019 O   0  0  0  0  0  0  0  0  0  0  0  0
   19.5816  -19.7571  -12.5463 O   0  0  0  0  0  0  0  0  0  0  0  0
   20.7727  -20.0455  -13.2042 C   0  0  0  0  0  0  0  0  0  0  0  0
   21.4285  -21.2256  -12.9694 C   0  0  0  0  0  0  0  0  0  0  0  0
   22.6067  -21.4950  -13.6294 C   0  0  0  0  0  0  0  0  0  0  0  0
   23.1930  -20.6400  -14.5358 C   0  0  0  0  0  0  0  0  0  0  0  0
   24.4512  -20.9396  -15.2339 C   0  0  0  0  0  0  0  0  0  0  0  0
   25.7101  -20.5246  -14.5470 C   0  0  2  0  0  0  0  0  0  0  0  0
   26.8264  -21.0366  -15.3848 N   0  0  0  0  0  0  0  0  0  0  0  0
   25.8974  -20.9991  -13.1695 C   0  0  0  0  0  0  0  0  0  0  0  0
   26.2672  -22.2287  -13.0474 O   0  0  0  0  0  0  0  0  0  0  0  0
   22.5001  -19.4419  -14.7554 C   0  0  0  0  0  0  0  0  0  0  0  0
   21.3292  -19.1709  -14.1014 C   0  0  0  0  0  0  0  0  0  0  0  0
   27.8458  -19.9708   -7.6129 C   0  0  0  0  0  0  0  0  0  0  0  0
   26.8722  -20.8155   -8.4379 C   0  0  0  0  0  0  0  0  0  0  0  0
   26.7116  -20.1297   -9.7504 C   0  0  2  0  0  0  0  0  0  0  0  0
   26.1619  -18.7362   -9.5677 C   0  0  0  0  0  0  0  0  0  0  0  0
   25.8210  -20.8928  -10.7161 C   0  0  2  0  0  0  0  0  0  0  0  0
   25.7160  -20.2331  -11.9876 N   0  0  0  0  0  0  0  0  0  0  0  0
   24.5051  -21.1848  -10.1070 C   0  0  0  0  0  0  0  0  0  0  0  0
   23.4885  -20.5417  -10.4258 O   0  0  0  0  0  0  0  0  0  0  0  0
   24.3343  -22.1853   -9.1529 O   0  0  0  0  0  0  0  0  0  0  0  0
  2  1  1  0
  3  2  1  0
  3  4  1  6
  5  3  1  0
  5  6  1  6
  7  8  2  0
  7  5  1  0
  9 10  1  0
 10 11  2  0
 11 12  1  0
 13 14  1  0
 13 12  2  0
 15 14  1  6
 15 16  1  0
 16  7  1  0
 17 26  1  0
 17 15  1  0
 18 17  2  0
 19 13  1  0
 20 19  2  0
 20 10  1  0
 21 22  1  0
 22 23  1  0
 23 25  1  0
 23 24  1  1
 25 27  1  0
 25 26  1  6
 27 29  1  0
 28 27  2  0
M  END
$$$$
