IYI.pdb
     RDKit          3D

 29 29  0  0  1  0  0  0  0  0999 V2000
   39.5258   -7.5628  -13.7823 C   0  0  0  0  0  0  0  0  0  0  0  0
   38.2224   -7.1518  -13.1497 C   0  0  0  0  0  0  0  0  0  0  0  0
   38.5283   -6.1376  -12.0671 C   0  0  2  0  0  0  0  0  0  0  0  0
   39.5062   -6.7430  -11.1149 C   0  0  0  0  0  0  0  0  0  0  0  0
   37.2248   -5.7410  -11.4272 C   0  0  2  0  0  0  0  0  0  0  0  0
   36.3367   -5.2630  -12.4619 N   0  0  0  0  0  0  0  0  0  0  0  0
   37.3736   -4.7623  -10.3491 C   0  0  0  0  0  0  0  0  0  0  0  0
   37.5014   -3.5469  -10.6078 O   0  0  0  0  0  0  0  0  0  0  0  0
   36.8473   -2.1114   -1.7849 O   0  0  0  0  0  0  0  0  0  0  0  0
   36.7714   -2.7450   -3.0209 C   0  0  0  0  0  0  0  0  0  0  0  0
   36.1747   -2.1224   -4.0858 C   0  0  0  0  0  0  0  0  0  0  0  0
   36.1082   -2.7642   -5.3023 C   0  0  0  0  0  0  0  0  0  0  0  0
   36.6124   -4.0242   -5.5354 C   0  0  0  0  0  0  0  0  0  0  0  0
   36.5350   -4.6983   -6.8392 C   0  0  0  0  0  0  0  0  0  0  0  0
   37.5362   -4.2822   -7.8655 C   0  0  2  0  0  0  0  0  0  0  0  0
   37.3702   -5.2183   -9.0084 N   0  0  0  0  0  0  0  0  0  0  0  0
   38.9458   -4.2870   -7.4521 C   0  0  0  0  0  0  0  0  0  0  0  0
   39.4953   -5.4497   -7.3532 O   0  0  0  0  0  0  0  0  0  0  0  0
   37.2164   -4.6357   -4.4286 C   0  0  0  0  0  0  0  0  0  0  0  0
   37.2843   -4.0010   -3.2183 C   0  0  0  0  0  0  0  0  0  0  0  0
   43.1405   -2.1895   -9.6738 C   0  0  0  0  0  0  0  0  0  0  0  0
   42.0794   -3.0243   -8.9531 C   0  0  0  0  0  0  0  0  0  0  0  0
   42.1037   -2.6104   -7.5224 C   0  0  2  0  0  0  0  0  0  0  0  0
   43.4731   -2.8181   -6.9234 C   0  0  0  0  0  0  0  0  0  0  0  0
   41.0744   -3.3382   -6.6744 C   0  0  2  0  0  0  0  0  0  0  0  0
   39.7385   -3.1443   -7.1650 N   0  0  0  0  0  0  0  0  0  0  0  0
   41.2209   -2.9877   -5.2448 C   0  0  0  0  0  0  0  0  0  0  0  0
   40.6563   -1.9887   -4.7633 O   0  0  0  0  0  0  0  0  0  0  0  0
   41.9911   -3.7494   -4.3689 O   0  0  0  0  0  0  0  0  0  0  0  0
  2  1  1  0
  3  2  1  0
  3  4  1  1
  5  3  1  0
  5  6  1  6
  7  8  2  0
  7  5  1  0
  9 10  1  0
 10 11  2  0
 11 12  1  0
 13 14  1  0
 13 12  2  0
 15 14  1  1
 15 16  1  0
 16  7  1  0
 17 26  1  0
 17 15  1  0
 18 17  2  0
 19 13  1  0
 20 19  2  0
 20 10  1  0
 21 22  1  0
 22 23  1  0
 23 25  1  0
 23 24  1  1
 25 27  1  0
 25 26  1  6
 27 29  1  0
 28 27  2  0
M  END
$$$$
