AIF.pdb
     RDKit          3D

 25 25  0  0  1  0  0  0  0  0999 V2000
   14.4793  -20.2638    0.4295 C   0  0  0  0  0  0  0  0  0  0  0  0
   13.9728  -21.0466    1.6043 C   0  0  2  0  0  0  0  0  0  0  0  0
   12.5588  -20.8703    1.7291 N   0  0  0  0  0  0  0  0  0  0  0  0
   14.6746  -20.6549    2.8736 C   0  0  0  0  0  0  0  0  0  0  0  0
   14.1486  -19.8225    3.6441 O   0  0  0  0  0  0  0  0  0  0  0  0
   17.7483  -24.4047    5.5931 C   0  0  0  0  0  0  0  0  0  0  0  0
   16.8557  -23.2679    5.1288 C   0  0  0  0  0  0  0  0  0  0  0  0
   17.6147  -21.9811    4.8961 C   0  0  2  0  0  0  0  0  0  0  0  0
   18.2269  -21.5692    6.2355 C   0  0  0  0  0  0  0  0  0  0  0  0
   16.7293  -20.8945    4.3471 C   0  0  2  0  0  0  0  0  0  0  0  0
   15.9244  -21.2053    3.2259 N   0  0  0  0  0  0  0  0  0  0  0  0
   17.3232  -19.5628    4.3502 C   0  0  0  0  0  0  0  0  0  0  0  0
   17.9533  -19.1596    3.3456 O   0  0  0  0  0  0  0  0  0  0  0  0
   17.2329  -18.6588    5.4542 N   0  0  0  0  0  0  0  0  0  0  0  0
   17.8475  -17.3306    5.3202 C   0  0  1  0  0  0  0  0  0  0  0  0
   17.1255  -16.5379    4.2540 C   0  0  0  0  0  0  0  0  0  0  0  0
   17.7258  -15.2162    4.0886 C   0  0  0  0  0  0  0  0  0  0  0  0
   17.2405  -14.1284    4.7516 C   0  0  0  0  0  0  0  0  0  0  0  0
   17.8393  -12.9024    4.5804 C   0  0  0  0  0  0  0  0  0  0  0  0
   18.9246  -12.7494    3.7491 C   0  0  0  0  0  0  0  0  0  0  0  0
   19.4181  -13.8461    3.0773 C   0  0  0  0  0  0  0  0  0  0  0  0
   18.8217  -15.0657    3.2482 C   0  0  0  0  0  0  0  0  0  0  0  0
   17.9389  -16.6580    6.6200 C   0  0  0  0  0  0  0  0  0  0  0  0
   17.0464  -16.7723    7.6670 O   0  0  0  0  0  0  0  0  0  0  0  0
   18.9334  -15.8824    6.8303 O   0  0  0  0  0  0  0  0  0  0  0  0
  2  4  1  0
  2  1  1  6
  3  2  1  0
  4  5  2  0
  6  7  1  0
  8 10  1  0
  8  9  1  1
  8  7  1  0
 10 11  1  6
 11  4  1  0
 12 14  1  0
 12 10  1  0
 13 12  2  0
 15 14  1  0
 15 16  1  6
 17 16  1  0
 18 17  2  0
 19 18  1  0
 20 19  2  0
 20 21  1  0
 21 22  2  0
 22 17  1  0
 23 24  1  0
 23 15  1  0
 25 23  2  0
M  END
$$$$
