AIF.pdb
     RDKit          3D

 25 25  0  0  1  0  0  0  0  0999 V2000
   21.4617  -20.8818  -12.5255 C   0  0  0  0  0  0  0  0  0  0  0  0
   22.6169  -21.2589  -13.4045 C   0  0  2  0  0  0  0  0  0  0  0  0
   22.2771  -22.4108  -14.1814 N   0  0  0  0  0  0  0  0  0  0  0  0
   23.8644  -21.5030  -12.6037 C   0  0  0  0  0  0  0  0  0  0  0  0
   24.0566  -22.6202  -12.0763 O   0  0  0  0  0  0  0  0  0  0  0  0
   28.0481  -19.5221  -14.7903 C   0  0  0  0  0  0  0  0  0  0  0  0
   27.4189  -20.5405  -13.8567 C   0  0  0  0  0  0  0  0  0  0  0  0
   27.2940  -20.0383  -12.4361 C   0  0  2  0  0  0  0  0  0  0  0  0
   28.5720  -20.4422  -11.7001 C   0  0  0  0  0  0  0  0  0  0  0  0
   26.0740  -20.5893  -11.7475 C   0  0  2  0  0  0  0  0  0  0  0  0
   24.8366  -20.4967  -12.4271 N   0  0  0  0  0  0  0  0  0  0  0  0
   26.0254  -20.3532  -10.3094 C   0  0  0  0  0  0  0  0  0  0  0  0
   25.3625  -19.3910   -9.8584 O   0  0  0  0  0  0  0  0  0  0  0  0
   26.7026  -21.1692   -9.3503 N   0  0  0  0  0  0  0  0  0  0  0  0
   26.8309  -20.6681   -7.9748 C   0  0  1  0  0  0  0  0  0  0  0  0
   27.8910  -21.4568   -7.2396 C   0  0  0  0  0  0  0  0  0  0  0  0
   28.2086  -20.8358   -5.9559 C   0  0  0  0  0  0  0  0  0  0  0  0
   29.2692  -19.9902   -5.8197 C   0  0  0  0  0  0  0  0  0  0  0  0
   29.5300  -19.4146   -4.5983 C   0  0  0  0  0  0  0  0  0  0  0  0
   28.7382  -19.6757   -3.5041 C   0  0  0  0  0  0  0  0  0  0  0  0
   27.6656  -20.5296   -3.6374 C   0  0  0  0  0  0  0  0  0  0  0  0
   27.4067  -21.1019   -4.8531 C   0  0  0  0  0  0  0  0  0  0  0  0
   27.0339  -19.2159   -7.9590 C   0  0  0  0  0  0  0  0  0  0  0  0
   26.3758  -18.3046   -7.1575 O   0  0  0  0  0  0  0  0  0  0  0  0
   27.8994  -18.7181   -8.7576 O   0  0  0  0  0  0  0  0  0  0  0  0
  2  4  1  0
  2  1  1  1
  3  2  1  0
  4  5  2  0
  6  7  1  0
  8 10  1  0
  8  9  1  1
  8  7  1  0
 10 11  1  6
 11  4  1  0
 12 14  1  0
 12 10  1  0
 13 12  2  0
 15 14  1  0
 15 16  1  6
 17 16  1  0
 18 17  2  0
 19 18  1  0
 20 19  2  0
 20 21  1  0
 21 22  2  0
 22 17  1  0
 23 24  1  0
 23 15  1  0
 25 23  2  0
M  END
$$$$
