AIF.pdb
     RDKit          3D

 25 25  0  0  1  0  0  0  0  0999 V2000
   29.6416  -26.9096  -16.9032 C   0  0  0  0  0  0  0  0  0  0  0  0
   30.5786  -25.7554  -17.1013 C   0  0  2  0  0  0  0  0  0  0  0  0
   31.8508  -26.0609  -16.5232 N   0  0  0  0  0  0  0  0  0  0  0  0
   30.0205  -24.4852  -16.5249 C   0  0  0  0  0  0  0  0  0  0  0  0
   30.4897  -24.0258  -15.4609 O   0  0  0  0  0  0  0  0  0  0  0  0
   28.2811  -20.1431  -19.6801 C   0  0  0  0  0  0  0  0  0  0  0  0
   27.9963  -21.3994  -18.8769 C   0  0  0  0  0  0  0  0  0  0  0  0
   28.5602  -21.3421  -17.4751 C   0  0  2  0  0  0  0  0  0  0  0  0
   30.0576  -21.0595  -17.6017 C   0  0  0  0  0  0  0  0  0  0  0  0
   28.3109  -22.6164  -16.7135 C   0  0  2  0  0  0  0  0  0  0  0  0
   28.9701  -23.7873  -17.1563 N   0  0  0  0  0  0  0  0  0  0  0  0
   26.9376  -22.7972  -16.2581 C   0  0  0  0  0  0  0  0  0  0  0  0
   26.2316  -23.7053  -16.7537 O   0  0  0  0  0  0  0  0  0  0  0  0
   26.3233  -21.9847  -15.2547 N   0  0  0  0  0  0  0  0  0  0  0  0
   24.8863  -22.1579  -15.0002 C   0  0  1  0  0  0  0  0  0  0  0  0
   24.6594  -22.4687  -13.5379 C   0  0  0  0  0  0  0  0  0  0  0  0
   23.2335  -22.5920  -13.2447 C   0  0  0  0  0  0  0  0  0  0  0  0
   22.5133  -21.5374  -12.7676 C   0  0  0  0  0  0  0  0  0  0  0  0
   21.1700  -21.6876  -12.5149 C   0  0  0  0  0  0  0  0  0  0  0  0
   20.5335  -22.8872  -12.7346 C   0  0  0  0  0  0  0  0  0  0  0  0
   21.2575  -23.9553  -13.2166 C   0  0  0  0  0  0  0  0  0  0  0  0
   22.5942  -23.8050  -13.4679 C   0  0  0  0  0  0  0  0  0  0  0  0
   24.1197  -21.0141  -15.5043 C   0  0  0  0  0  0  0  0  0  0  0  0
   24.5138  -19.6911  -15.4872 O   0  0  0  0  0  0  0  0  0  0  0  0
   22.9684  -21.2359  -16.0142 O   0  0  0  0  0  0  0  0  0  0  0  0
  2  4  1  0
  2  1  1  1
  3  2  1  0
  4  5  2  0
  6  7  1  0
  8 10  1  0
  8  9  1  6
  8  7  1  0
 10 11  1  6
 11  4  1  0
 12 14  1  0
 12 10  1  0
 13 12  2  0
 15 14  1  0
 15 16  1  1
 17 16  1  0
 18 17  2  0
 19 18  1  0
 20 19  2  0
 20 21  1  0
 21 22  2  0
 22 17  1  0
 23 24  1  0
 23 15  1  0
 25 23  2  0
M  END
$$$$
