AIF.pdb
     RDKit          3D

 25 25  0  0  1  0  0  0  0  0999 V2000
   22.9240  -23.4925  -14.5528 C   0  0  0  0  0  0  0  0  0  0  0  0
   24.1073  -22.8492  -15.2125 C   0  0  2  0  0  0  0  0  0  0  0  0
   24.6779  -23.7499  -16.1659 N   0  0  0  0  0  0  0  0  0  0  0  0
   25.1341  -22.4159  -14.2050 C   0  0  0  0  0  0  0  0  0  0  0  0
   25.9585  -23.2445  -13.7609 O   0  0  0  0  0  0  0  0  0  0  0  0
   28.0604  -18.0106  -14.9493 C   0  0  0  0  0  0  0  0  0  0  0  0
   27.4909  -19.3404  -14.4892 C   0  0  0  0  0  0  0  0  0  0  0  0
   26.7870  -19.2489  -13.1542 C   0  0  2  0  0  0  0  0  0  0  0  0
   27.8431  -18.8820  -12.1109 C   0  0  0  0  0  0  0  0  0  0  0  0
   26.0912  -20.5341  -12.7933 C   0  0  2  0  0  0  0  0  0  0  0  0
   25.1961  -21.0860  -13.7398 N   0  0  0  0  0  0  0  0  0  0  0  0
   25.6783  -20.6343  -11.3985 C   0  0  0  0  0  0  0  0  0  0  0  0
   24.5000  -20.3573  -11.0763 O   0  0  0  0  0  0  0  0  0  0  0  0
   26.5522  -21.0391  -10.3417 N   0  0  0  0  0  0  0  0  0  0  0  0
   25.9931  -21.1816   -8.9901 C   0  0  1  0  0  0  0  0  0  0  0  0
   27.0230  -21.8018   -8.0730 C   0  0  0  0  0  0  0  0  0  0  0  0
   27.5410  -20.8167   -7.1266 C   0  0  0  0  0  0  0  0  0  0  0  0
   26.8926  -20.5456   -5.9584 C   0  0  0  0  0  0  0  0  0  0  0  0
   27.4171  -19.6208   -5.0862 C   0  0  0  0  0  0  0  0  0  0  0  0
   28.5895  -18.9593   -5.3693 C   0  0  0  0  0  0  0  0  0  0  0  0
   29.2478  -19.2303   -6.5486 C   0  0  0  0  0  0  0  0  0  0  0  0
   28.7253  -20.1507   -7.4159 C   0  0  0  0  0  0  0  0  0  0  0  0
   25.4399  -19.9108   -8.5113 C   0  0  0  0  0  0  0  0  0  0  0  0
   25.9709  -18.6540   -8.7221 O   0  0  0  0  0  0  0  0  0  0  0  0
   24.3600  -19.9414   -7.8275 O   0  0  0  0  0  0  0  0  0  0  0  0
  2  4  1  0
  2  1  1  1
  3  2  1  0
  4  5  2  0
  6  7  1  0
  8 10  1  0
  8  9  1  1
  8  7  1  0
 10 11  1  6
 11  4  1  0
 12 14  1  0
 12 10  1  0
 13 12  2  0
 15 14  1  0
 15 16  1  1
 17 16  1  0
 18 17  2  0
 19 18  1  0
 20 19  2  0
 20 21  1  0
 21 22  2  0
 22 17  1  0
 23 24  1  0
 23 15  1  0
 25 23  2  0
M  END
$$$$
