AIF.pdb
     RDKit          3D

 25 25  0  0  1  0  0  0  0  0999 V2000
   29.0197  -21.5328  -14.7341 C   0  0  0  0  0  0  0  0  0  0  0  0
   27.6784  -21.0190  -15.1657 C   0  0  2  0  0  0  0  0  0  0  0  0
   27.8431  -20.0563  -16.2107 N   0  0  0  0  0  0  0  0  0  0  0  0
   26.9144  -20.4317  -14.0131 C   0  0  0  0  0  0  0  0  0  0  0  0
   26.8899  -19.1923  -13.8497 O   0  0  0  0  0  0  0  0  0  0  0  0
   21.8494  -20.7495  -13.6077 C   0  0  0  0  0  0  0  0  0  0  0  0
   23.3336  -20.4819  -13.4339 C   0  0  0  0  0  0  0  0  0  0  0  0
   23.8986  -21.0957  -12.1729 C   0  0  2  0  0  0  0  0  0  0  0  0
   23.1248  -20.5017  -10.9954 C   0  0  0  0  0  0  0  0  0  0  0  0
   25.3761  -20.8426  -12.0345 C   0  0  2  0  0  0  0  0  0  0  0  0
   26.2156  -21.2471  -13.0990 N   0  0  0  0  0  0  0  0  0  0  0  0
   25.9087  -21.0525  -10.6935 C   0  0  0  0  0  0  0  0  0  0  0  0
   26.0442  -22.2170  -10.2525 O   0  0  0  0  0  0  0  0  0  0  0  0
   26.2986  -19.9887   -9.8214 N   0  0  0  0  0  0  0  0  0  0  0  0
   26.7972  -20.3317   -8.4822 C   0  0  1  0  0  0  0  0  0  0  0  0
   27.5556  -19.1590   -7.9026 C   0  0  0  0  0  0  0  0  0  0  0  0
   28.0419  -19.4634   -6.5590 C   0  0  0  0  0  0  0  0  0  0  0  0
   27.4309  -18.9555   -5.4512 C   0  0  0  0  0  0  0  0  0  0  0  0
   27.9096  -19.2741   -4.2020 C   0  0  0  0  0  0  0  0  0  0  0  0
   28.9988  -20.0996   -4.0457 C   0  0  0  0  0  0  0  0  0  0  0  0
   29.6191  -20.6149   -5.1624 C   0  0  0  0  0  0  0  0  0  0  0  0
   29.1422  -20.2974   -6.4051 C   0  0  0  0  0  0  0  0  0  0  0  0
   25.7160  -20.8369   -7.6302 C   0  0  0  0  0  0  0  0  0  0  0  0
   25.8112  -21.8532   -6.7007 O   0  0  0  0  0  0  0  0  0  0  0  0
   24.5601  -20.3013   -7.7395 O   0  0  0  0  0  0  0  0  0  0  0  0
  2  4  1  0
  2  1  1  1
  3  2  1  0
  4  5  2  0
  6  7  1  0
  8 10  1  0
  8  9  1  1
  8  7  1  0
 10 11  1  6
 11  4  1  0
 12 14  1  0
 12 10  1  0
 13 12  2  0
 15 14  1  0
 15 16  1  1
 17 16  1  0
 18 17  2  0
 19 18  1  0
 20 19  2  0
 20 21  1  0
 21 22  2  0
 22 17  1  0
 23 24  1  0
 23 15  1  0
 25 23  2  0
M  END
$$$$
