AIF.pdb
     RDKit          3D

 25 25  0  0  1  0  0  0  0  0999 V2000
   38.8261   -7.9693  -12.7608 C   0  0  0  0  0  0  0  0  0  0  0  0
   40.1102   -8.1781  -12.0146 C   0  0  2  0  0  0  0  0  0  0  0  0
   40.3182   -9.5757  -11.7923 N   0  0  0  0  0  0  0  0  0  0  0  0
   40.1244   -7.4221  -10.7164 C   0  0  0  0  0  0  0  0  0  0  0  0
   39.5045   -7.8714   -9.7278 O   0  0  0  0  0  0  0  0  0  0  0  0
   44.7720   -5.0154   -9.1329 C   0  0  0  0  0  0  0  0  0  0  0  0
   43.4130   -5.6918   -9.1191 C   0  0  0  0  0  0  0  0  0  0  0  0
   42.2658   -4.7093   -9.1881 C   0  0  2  0  0  0  0  0  0  0  0  0
   42.2549   -3.9341   -7.8700 C   0  0  0  0  0  0  0  0  0  0  0  0
   40.9473   -5.3962   -9.4246 C   0  0  2  0  0  0  0  0  0  0  0  0
   40.8248   -6.2059  -10.5783 N   0  0  0  0  0  0  0  0  0  0  0  0
   39.7742   -4.6009   -9.0821 C   0  0  0  0  0  0  0  0  0  0  0  0
   39.2297   -3.8864   -9.9550 O   0  0  0  0  0  0  0  0  0  0  0  0
   39.1851   -4.5801   -7.7795 N   0  0  0  0  0  0  0  0  0  0  0  0
   38.0564   -3.6702   -7.5388 C   0  0  1  0  0  0  0  0  0  0  0  0
   36.8646   -4.4547   -7.0382 C   0  0  0  0  0  0  0  0  0  0  0  0
   35.7297   -3.5722   -6.7781 C   0  0  0  0  0  0  0  0  0  0  0  0
   34.8108   -3.2938   -7.7460 C   0  0  0  0  0  0  0  0  0  0  0  0
   33.7486   -2.4683   -7.4606 C   0  0  0  0  0  0  0  0  0  0  0  0
   33.5927   -1.9141   -6.2112 C   0  0  0  0  0  0  0  0  0  0  0  0
   34.5188   -2.1929   -5.2305 C   0  0  0  0  0  0  0  0  0  0  0  0
   35.5754   -3.0144   -5.5152 C   0  0  0  0  0  0  0  0  0  0  0  0
   38.4540   -2.5529   -6.6764 C   0  0  0  0  0  0  0  0  0  0  0  0
   39.3179   -2.6140   -5.6013 O   0  0  0  0  0  0  0  0  0  0  0  0
   37.9661   -1.3969   -6.9219 O   0  0  0  0  0  0  0  0  0  0  0  0
  2  4  1  0
  2  1  1  1
  3  2  1  0
  4  5  2  0
  6  7  1  0
  8 10  1  0
  8  9  1  1
  8  7  1  0
 10 11  1  6
 11  4  1  0
 12 14  1  0
 12 10  1  0
 13 12  2  0
 15 14  1  0
 15 16  1  1
 17 16  1  0
 18 17  2  0
 19 18  1  0
 20 19  2  0
 20 21  1  0
 21 22  2  0
 22 17  1  0
 23 24  1  0
 23 15  1  0
 25 23  2  0
M  END
$$$$
