AIF.pdb
     RDKit          3D

 25 25  0  0  1  0  0  0  0  0999 V2000
   13.6565  -20.7497   -2.1637 C   0  0  0  0  0  0  0  0  0  0  0  0
   13.2580  -21.7478   -3.2098 C   0  0  2  0  0  0  0  0  0  0  0  0
   11.8446  -21.6879   -3.4214 N   0  0  0  0  0  0  0  0  0  0  0  0
   13.6844  -23.1394   -2.8370 C   0  0  0  0  0  0  0  0  0  0  0  0
   12.9402  -23.8485   -2.1252 O   0  0  0  0  0  0  0  0  0  0  0  0
   16.5587  -26.0819   -6.4873 C   0  0  0  0  0  0  0  0  0  0  0  0
   15.6380  -25.6304   -5.3678 C   0  0  0  0  0  0  0  0  0  0  0  0
   16.3213  -25.6017   -4.0193 C   0  0  2  0  0  0  0  0  0  0  0  0
   16.6377  -27.0495   -3.6422 C   0  0  0  0  0  0  0  0  0  0  0  0
   15.4696  -24.9410   -2.9685 C   0  0  2  0  0  0  0  0  0  0  0  0
   14.9142  -23.6756   -3.2717 N   0  0  0  0  0  0  0  0  0  0  0  0
   15.9446  -25.1124   -1.6007 C   0  0  0  0  0  0  0  0  0  0  0  0
   17.0338  -24.6022   -1.2512 O   0  0  0  0  0  0  0  0  0  0  0  0
   15.2312  -25.8447   -0.6012 N   0  0  0  0  0  0  0  0  0  0  0  0
   15.7925  -25.9014    0.7558 C   0  0  1  0  0  0  0  0  0  0  0  0
   14.8290  -25.2696    1.7350 C   0  0  0  0  0  0  0  0  0  0  0  0
   14.8931  -23.8118    1.6648 C   0  0  0  0  0  0  0  0  0  0  0  0
   13.8961  -23.0847    1.0851 C   0  0  0  0  0  0  0  0  0  0  0  0
   13.9852  -21.7130    1.0485 C   0  0  0  0  0  0  0  0  0  0  0  0
   15.0660  -21.0546    1.5880 C   0  0  0  0  0  0  0  0  0  0  0  0
   16.0755  -21.7855    2.1747 C   0  0  0  0  0  0  0  0  0  0  0  0
   15.9860  -23.1504    2.2107 C   0  0  0  0  0  0  0  0  0  0  0  0
   16.2016  -27.2666    1.1009 C   0  0  0  0  0  0  0  0  0  0  0  0
   16.9797  -27.6421    2.1777 O   0  0  0  0  0  0  0  0  0  0  0  0
   15.8136  -28.2227    0.3458 O   0  0  0  0  0  0  0  0  0  0  0  0
  2  4  1  0
  2  1  1  1
  3  2  1  0
  4  5  2  0
  6  7  1  0
  8 10  1  0
  8  9  1  1
  8  7  1  0
 10 11  1  6
 11  4  1  0
 12 14  1  0
 12 10  1  0
 13 12  2  0
 15 14  1  0
 15 16  1  1
 17 16  1  0
 18 17  2  0
 19 18  1  0
 20 19  2  0
 20 21  1  0
 21 22  2  0
 22 17  1  0
 23 24  1  0
 23 15  1  0
 25 23  2  0
M  END
$$$$
