AIF.pdb
     RDKit          3D

 25 25  0  0  1  0  0  0  0  0999 V2000
   41.0202  -25.8066    3.7393 C   0  0  0  0  0  0  0  0  0  0  0  0
   40.0169  -26.7672    3.1736 C   0  0  2  0  0  0  0  0  0  0  0  0
   40.2833  -26.9819    1.7847 N   0  0  0  0  0  0  0  0  0  0  0  0
   38.6100  -26.2822    3.3795 C   0  0  0  0  0  0  0  0  0  0  0  0
   38.1734  -25.3308    2.6958 O   0  0  0  0  0  0  0  0  0  0  0  0
   34.5876  -29.7469    3.3955 C   0  0  0  0  0  0  0  0  0  0  0  0
   35.5371  -28.5624    3.3816 C   0  0  0  0  0  0  0  0  0  0  0  0
   35.4109  -27.6925    4.6118 C   0  0  2  0  0  0  0  0  0  0  0  0
   33.9762  -27.1644    4.6465 C   0  0  0  0  0  0  0  0  0  0  0  0
   36.4052  -26.5622    4.6087 C   0  0  2  0  0  0  0  0  0  0  0  0
   37.7570  -26.8758    4.3329 N   0  0  0  0  0  0  0  0  0  0  0  0
   36.1869  -25.5538    5.6390 C   0  0  0  0  0  0  0  0  0  0  0  0
   36.7699  -25.6551    6.7429 O   0  0  0  0  0  0  0  0  0  0  0  0
   35.3275  -24.4237    5.4706 N   0  0  0  0  0  0  0  0  0  0  0  0
   35.2660  -23.4272    6.5490 C   0  0  1  0  0  0  0  0  0  0  0  0
   35.0472  -22.0509    5.9622 C   0  0  0  0  0  0  0  0  0  0  0  0
   33.6847  -21.9097    5.4542 C   0  0  0  0  0  0  0  0  0  0  0  0
   33.3633  -22.2630    4.1773 C   0  0  0  0  0  0  0  0  0  0  0  0
   32.0673  -22.1275    3.7380 C   0  0  0  0  0  0  0  0  0  0  0  0
   31.0820  -21.6398    4.5651 C   0  0  0  0  0  0  0  0  0  0  0  0
   31.4026  -21.2817    5.8559 C   0  0  0  0  0  0  0  0  0  0  0  0
   32.6924  -21.4169    6.2923 C   0  0  0  0  0  0  0  0  0  0  0  0
   34.2879  -23.8148    7.5704 C   0  0  0  0  0  0  0  0  0  0  0  0
   34.1737  -23.2841    8.8397 O   0  0  0  0  0  0  0  0  0  0  0  0
   33.4464  -24.7336    7.2833 O   0  0  0  0  0  0  0  0  0  0  0  0
  2  4  1  0
  2  1  1  6
  3  2  1  0
  4  5  2  0
  6  7  1  0
  8 10  1  0
  8  9  1  6
  8  7  1  0
 10 11  1  1
 11  4  1  0
 12 14  1  0
 12 10  1  0
 13 12  2  0
 15 14  1  0
 15 16  1  6
 17 16  1  0
 18 17  2  0
 19 18  1  0
 20 19  2  0
 20 21  1  0
 21 22  2  0
 22 17  1  0
 23 24  1  0
 23 15  1  0
 25 23  2  0
M  END
$$$$
