AIF.pdb
     RDKit          3D

 25 25  0  0  1  0  0  0  0  0999 V2000
   23.8065  -21.1564   -9.3154 C   0  0  0  0  0  0  0  0  0  0  0  0
   25.2717  -20.9544   -9.5638 C   0  0  2  0  0  0  0  0  0  0  0  0
   25.8843  -20.3831   -8.4043 N   0  0  0  0  0  0  0  0  0  0  0  0
   25.5143  -20.0976  -10.7739 C   0  0  0  0  0  0  0  0  0  0  0  0
   25.6899  -18.8669  -10.6398 O   0  0  0  0  0  0  0  0  0  0  0  0
   28.5953  -19.6332  -15.9320 C   0  0  0  0  0  0  0  0  0  0  0  0
   27.2924  -19.3623  -15.2013 C   0  0  0  0  0  0  0  0  0  0  0  0
   27.0976  -20.2536  -13.9956 C   0  0  2  0  0  0  0  0  0  0  0  0
   27.1659  -21.7000  -14.4872 C   0  0  0  0  0  0  0  0  0  0  0  0
   25.7935  -19.9795  -13.2954 C   0  0  2  0  0  0  0  0  0  0  0  0
   25.5503  -20.6473  -12.0721 N   0  0  0  0  0  0  0  0  0  0  0  0
   24.6427  -19.8403  -14.1801 C   0  0  0  0  0  0  0  0  0  0  0  0
   23.9882  -20.8544  -14.5147 O   0  0  0  0  0  0  0  0  0  0  0  0
   24.1970  -18.5883  -14.7074 N   0  0  0  0  0  0  0  0  0  0  0  0
   22.9528  -18.5639  -15.4891 C   0  0  1  0  0  0  0  0  0  0  0  0
   22.2551  -17.2359  -15.2994 C   0  0  0  0  0  0  0  0  0  0  0  0
   20.9935  -17.1983  -16.0350 C   0  0  0  0  0  0  0  0  0  0  0  0
   20.8771  -16.5165  -17.2099 C   0  0  0  0  0  0  0  0  0  0  0  0
   19.6767  -16.5138  -17.8807 C   0  0  0  0  0  0  0  0  0  0  0  0
   18.5838  -17.1888  -17.3881 C   0  0  0  0  0  0  0  0  0  0  0  0
   18.6972  -17.8788  -16.2014 C   0  0  0  0  0  0  0  0  0  0  0  0
   19.8920  -17.8810  -15.5345 C   0  0  0  0  0  0  0  0  0  0  0  0
   23.2016  -18.9251  -16.8883 C   0  0  0  0  0  0  0  0  0  0  0  0
   22.4053  -19.7256  -17.6827 O   0  0  0  0  0  0  0  0  0  0  0  0
   24.2538  -18.4675  -17.4524 O   0  0  0  0  0  0  0  0  0  0  0  0
  2  4  1  0
  2  1  1  1
  3  2  1  0
  4  5  2  0
  6  7  1  0
  8 10  1  0
  8  9  1  6
  8  7  1  0
 10 11  1  1
 11  4  1  0
 12 14  1  0
 12 10  1  0
 13 12  2  0
 15 14  1  0
 15 16  1  6
 17 16  1  0
 18 17  2  0
 19 18  1  0
 20 19  2  0
 20 21  1  0
 21 22  2  0
 22 17  1  0
 23 24  1  0
 23 15  1  0
 25 23  2  0
M  END
$$$$
