AIF.pdb
     RDKit          3D

 25 25  0  0  1  0  0  0  0  0999 V2000
   27.6301  -20.2162  -17.9790 C   0  0  0  0  0  0  0  0  0  0  0  0
   28.6723  -21.0437  -17.2874 C   0  0  2  0  0  0  0  0  0  0  0  0
   29.0298  -22.1575  -18.1107 N   0  0  0  0  0  0  0  0  0  0  0  0
   28.2046  -21.5057  -15.9365 C   0  0  0  0  0  0  0  0  0  0  0  0
   27.5888  -22.5884  -15.8279 O   0  0  0  0  0  0  0  0  0  0  0  0
   29.6270  -21.4014   -9.9384 C   0  0  0  0  0  0  0  0  0  0  0  0
   28.5631  -21.3813  -11.0211 C   0  0  0  0  0  0  0  0  0  0  0  0
   29.1128  -21.0089  -12.3795 C   0  0  2  0  0  0  0  0  0  0  0  0
   29.7298  -19.6157  -12.2508 C   0  0  0  0  0  0  0  0  0  0  0  0
   28.0502  -21.0354  -13.4454 C   0  0  2  0  0  0  0  0  0  0  0  0
   28.4426  -20.7447  -14.7732 N   0  0  0  0  0  0  0  0  0  0  0  0
   26.7593  -20.4961  -13.0346 C   0  0  0  0  0  0  0  0  0  0  0  0
   26.5262  -19.2722  -13.1633 O   0  0  0  0  0  0  0  0  0  0  0  0
   25.7100  -21.2922  -12.4782 N   0  0  0  0  0  0  0  0  0  0  0  0
   24.3972  -20.6665  -12.2663 C   0  0  1  0  0  0  0  0  0  0  0  0
   23.4835  -20.9886  -13.4272 C   0  0  0  0  0  0  0  0  0  0  0  0
   22.1591  -20.4049  -13.2277 C   0  0  0  0  0  0  0  0  0  0  0  0
   21.1878  -21.0681  -12.5382 C   0  0  0  0  0  0  0  0  0  0  0  0
   19.9569  -20.4816  -12.3599 C   0  0  0  0  0  0  0  0  0  0  0  0
   19.6831  -19.2320  -12.8659 C   0  0  0  0  0  0  0  0  0  0  0  0
   20.6616  -18.5586  -13.5632 C   0  0  0  0  0  0  0  0  0  0  0  0
   21.8863  -19.1428  -13.7401 C   0  0  0  0  0  0  0  0  0  0  0  0
   23.8531  -21.0150  -10.9500 C   0  0  0  0  0  0  0  0  0  0  0  0
   23.0670  -20.2112  -10.1487 O   0  0  0  0  0  0  0  0  0  0  0  0
   24.1185  -22.1713  -10.4733 O   0  0  0  0  0  0  0  0  0  0  0  0
  2  4  1  0
  2  1  1  6
  3  2  1  0
  4  5  2  0
  6  7  1  0
  8 10  1  0
  8  9  1  1
  8  7  1  0
 10 11  1  6
 11  4  1  0
 12 14  1  0
 12 10  1  0
 13 12  2  0
 15 14  1  0
 15 16  1  6
 17 16  1  0
 18 17  2  0
 19 18  1  0
 20 19  2  0
 20 21  1  0
 21 22  2  0
 22 17  1  0
 23 24  1  0
 23 15  1  0
 25 23  2  0
M  END
$$$$
