AIF.pdb
     RDKit          3D

 25 25  0  0  1  0  0  0  0  0999 V2000
   17.5356   -9.4943  -21.1513 C   0  0  0  0  0  0  0  0  0  0  0  0
   17.3083  -10.6995  -20.2881 C   0  0  2  0  0  0  0  0  0  0  0  0
   16.1262  -11.3831  -20.7141 N   0  0  0  0  0  0  0  0  0  0  0  0
   17.2178  -10.3296  -18.8348 C   0  0  0  0  0  0  0  0  0  0  0  0
   16.3689   -9.4928  -18.4575 O   0  0  0  0  0  0  0  0  0  0  0  0
   16.7726  -13.9448  -15.0084 C   0  0  0  0  0  0  0  0  0  0  0  0
   16.8060  -12.6685  -15.8297 C   0  0  0  0  0  0  0  0  0  0  0  0
   18.0227  -11.8172  -15.5452 C   0  0  2  0  0  0  0  0  0  0  0  0
   17.9202  -11.3541  -14.0914 C   0  0  0  0  0  0  0  0  0  0  0  0
   18.1228  -10.6437  -16.4827 C   0  0  2  0  0  0  0  0  0  0  0  0
   18.0725  -10.9054  -17.8722 N   0  0  0  0  0  0  0  0  0  0  0  0
   19.0616   -9.6083  -16.0673 C   0  0  0  0  0  0  0  0  0  0  0  0
   20.2791   -9.8803  -15.9549 O   0  0  0  0  0  0  0  0  0  0  0  0
   18.6764   -8.2638  -15.7705 N   0  0  0  0  0  0  0  0  0  0  0  0
   19.7089   -7.3302  -15.2993 C   0  0  1  0  0  0  0  0  0  0  0  0
   20.1633   -6.4504  -16.4420 C   0  0  0  0  0  0  0  0  0  0  0  0
   20.9967   -5.3527  -15.9574 C   0  0  0  0  0  0  0  0  0  0  0  0
   22.3021   -5.5497  -15.6168 C   0  0  0  0  0  0  0  0  0  0  0  0
   23.0592   -4.4897  -15.1762 C   0  0  0  0  0  0  0  0  0  0  0  0
   22.5240   -3.2268  -15.0711 C   0  0  0  0  0  0  0  0  0  0  0  0
   21.2055   -3.0235  -15.4143 C   0  0  0  0  0  0  0  0  0  0  0  0
   20.4528   -4.0788  -15.8527 C   0  0  0  0  0  0  0  0  0  0  0  0
   19.2562   -6.5983  -14.1120 C   0  0  0  0  0  0  0  0  0  0  0  0
   17.9687   -6.1734  -13.8521 O   0  0  0  0  0  0  0  0  0  0  0  0
   20.1194   -6.3117  -13.2134 O   0  0  0  0  0  0  0  0  0  0  0  0
  2  4  1  0
  2  1  1  6
  3  2  1  0
  4  5  2  0
  6  7  1  0
  8 10  1  0
  8  9  1  1
  8  7  1  0
 10 11  1  6
 11  4  1  0
 12 14  1  0
 12 10  1  0
 13 12  2  0
 15 14  1  0
 15 16  1  6
 17 16  1  0
 18 17  2  0
 19 18  1  0
 20 19  2  0
 20 21  1  0
 21 22  2  0
 22 17  1  0
 23 24  1  0
 23 15  1  0
 25 23  2  0
M  END
$$$$
