AIF.pdb
     RDKit          3D

 25 25  0  0  1  0  0  0  0  0999 V2000
   24.6886  -23.5887  -15.1701 C   0  0  0  0  0  0  0  0  0  0  0  0
   25.5369  -22.7255  -16.0558 C   0  0  2  0  0  0  0  0  0  0  0  0
   24.7001  -21.9181  -16.8887 N   0  0  0  0  0  0  0  0  0  0  0  0
   26.4841  -23.5461  -16.8844 C   0  0  0  0  0  0  0  0  0  0  0  0
   26.0537  -24.1928  -17.8641 O   0  0  0  0  0  0  0  0  0  0  0  0
   30.9719  -21.4759  -18.8997 C   0  0  0  0  0  0  0  0  0  0  0  0
   29.7607  -22.3257  -18.5596 C   0  0  0  0  0  0  0  0  0  0  0  0
   30.1016  -23.5151  -17.6906 C   0  0  2  0  0  0  0  0  0  0  0  0
   31.0776  -24.3873  -18.4812 C   0  0  0  0  0  0  0  0  0  0  0  0
   28.8763  -24.2945  -17.2939 C   0  0  2  0  0  0  0  0  0  0  0  0
   27.8610  -23.6090  -16.5861 N   0  0  0  0  0  0  0  0  0  0  0  0
   29.1360  -25.6626  -16.8616 C   0  0  0  0  0  0  0  0  0  0  0  0
   29.6071  -25.8764  -15.7209 O   0  0  0  0  0  0  0  0  0  0  0  0
   28.8822  -26.8110  -17.6746 N   0  0  0  0  0  0  0  0  0  0  0  0
   29.1820  -28.1384  -17.1198 C   0  0  1  0  0  0  0  0  0  0  0  0
   27.8941  -28.8845  -16.8533 C   0  0  0  0  0  0  0  0  0  0  0  0
   28.1563  -30.2907  -16.5565 C   0  0  0  0  0  0  0  0  0  0  0  0
   28.2033  -31.2280  -17.5454 C   0  0  0  0  0  0  0  0  0  0  0  0
   28.4649  -32.5404  -17.2292 C   0  0  0  0  0  0  0  0  0  0  0  0
   28.6816  -32.9301  -15.9278 C   0  0  0  0  0  0  0  0  0  0  0  0
   28.6350  -31.9863  -14.9256 C   0  0  0  0  0  0  0  0  0  0  0  0
   28.3746  -30.6805  -15.2411 C   0  0  0  0  0  0  0  0  0  0  0  0
   30.1383  -28.8600  -17.9654 C   0  0  0  0  0  0  0  0  0  0  0  0
   31.1291  -29.7192  -17.5339 O   0  0  0  0  0  0  0  0  0  0  0  0
   30.0706  -28.6940  -19.2314 O   0  0  0  0  0  0  0  0  0  0  0  0
  2  4  1  0
  2  1  1  6
  3  2  1  0
  4  5  2  0
  6  7  1  0
  8 10  1  0
  8  9  1  6
  8  7  1  0
 10 11  1  1
 11  4  1  0
 12 14  1  0
 12 10  1  0
 13 12  2  0
 15 14  1  0
 15 16  1  6
 17 16  1  0
 18 17  2  0
 19 18  1  0
 20 19  2  0
 20 21  1  0
 21 22  2  0
 22 17  1  0
 23 24  1  0
 23 15  1  0
 25 23  2  0
M  END
$$$$
