LRK.pdb
     RDKit          3D

 29 28  0  0  1  0  0  0  0  0999 V2000
    7.6053  -12.2569   27.7845 C   0  0  0  0  0  0  0  0  0  0  0  0
    6.7641  -13.2365   27.0175 C   0  0  1  0  0  0  0  0  0  0  0  0
    5.7974  -12.4730   26.1270 C   0  0  0  0  0  0  0  0  0  0  0  0
    7.6120  -14.1616   26.1834 C   0  0  0  0  0  0  0  0  0  0  0  0
    6.7613  -15.2166   25.5755 C   0  0  2  0  0  0  0  0  0  0  0  0
    6.0197  -15.9879   26.5304 N   0  0  0  0  0  0  0  0  0  0  0  0
    7.5676  -16.1862   24.7539 C   0  0  0  0  0  0  0  0  0  0  0  0
    8.0899  -17.2145   25.2557 O   0  0  0  0  0  0  0  0  0  0  0  0
    7.1362  -13.4497   18.4756 N   0  0  0  0  0  0  0  0  0  0  0  0
    8.4617  -12.9587   18.5562 C   0  0  0  0  0  0  0  0  0  0  0  0
    8.7539  -11.6908   18.5341 N   0  0  0  0  0  0  0  0  0  0  0  0
    9.5519  -13.8925   18.6684 N   0  0  0  0  0  0  0  0  0  0  0  0
    9.3160  -15.2133   19.1966 C   0  0  0  0  0  0  0  0  0  0  0  0
    8.8310  -15.1471   20.6271 C   0  0  0  0  0  0  0  0  0  0  0  0
    8.7235  -16.5343   21.1600 C   0  0  0  0  0  0  0  0  0  0  0  0
    8.8172  -16.6691   22.6431 C   0  0  2  0  0  0  0  0  0  0  0  0
    7.7746  -15.9776   23.3617 N   0  0  0  0  0  0  0  0  0  0  0  0
   10.1828  -16.3652   23.1215 C   0  0  0  0  0  0  0  0  0  0  0  0
   10.3091  -15.5022   24.0214 O   0  0  0  0  0  0  0  0  0  0  0  0
    9.7682  -11.4551   18.6079 N   0  0  0  0  0  0  0  0  0  0  0  0
   11.3576  -16.9894   22.6229 C   0  0  1  0  0  0  0  0  0  0  0  0
   12.5407  -17.2351   23.4250 C   0  0  0  0  0  0  0  0  0  0  0  0
   12.1819  -18.2182   24.4867 C   0  0  0  0  0  0  0  0  0  0  0  0
   13.3385  -18.6207   25.3620 C   0  0  0  0  0  0  0  0  0  0  0  0
   12.9234  -19.5131   26.4998 C   0  0  0  0  0  0  0  0  0  0  0  0
   14.1993  -19.8704   27.2630 N   0  0  0  0  0  0  0  0  0  0  0  0
   13.8640  -20.6596   28.4164 C   0  0  0  0  0  0  0  0  0  0  0  0
   13.6296  -17.6621   22.5376 O   0  0  0  0  0  0  0  0  0  0  0  0
   13.5046  -18.5644   21.6644 O   0  0  0  0  0  0  0  0  0  0  0  0
  2  1  1  6
  2  3  1  0
  4  2  1  0
  5  4  1  0
  5  6  1  1
  7  8  2  0
  7  5  1  0
  9 10  1  0
 10 12  1  0
 11 10  2  0
 12 13  1  0
 13 14  1  0
 16 15  1  6
 15 14  1  0
 16 17  1  0
 17  7  1  0
 18 16  1  0
 19 18  2  0
 20 18  1  0
 21 27  1  0
 21 20  1  0
 21 22  1  6
 23 22  1  0
 24 23  1  0
 25 24  1  0
 26 25  1  0
 27 29  1  0
 28 27  2  0
M  END
$$$$
