LRK.pdb
     RDKit          3D

 29 28  0  0  1  0  0  0  0  0999 V2000
    7.1383  -11.7161   19.9665 C   0  0  0  0  0  0  0  0  0  0  0  0
    7.1648  -13.1447   19.5040 C   0  0  1  0  0  0  0  0  0  0  0  0
    7.7527  -13.2042   18.1036 C   0  0  0  0  0  0  0  0  0  0  0  0
    7.9668  -14.0148   20.4369 C   0  0  0  0  0  0  0  0  0  0  0  0
    7.8580  -15.4365   20.0210 C   0  0  2  0  0  0  0  0  0  0  0  0
    6.5289  -15.9681   20.1080 N   0  0  0  0  0  0  0  0  0  0  0  0
    8.7475  -16.3325   20.8403 C   0  0  0  0  0  0  0  0  0  0  0  0
    8.4170  -16.7370   21.9846 O   0  0  0  0  0  0  0  0  0  0  0  0
   14.5059  -20.7498   23.3199 N   0  0  0  0  0  0  0  0  0  0  0  0
   15.0422  -21.0962   22.0563 C   0  0  0  0  0  0  0  0  0  0  0  0
   15.5075  -22.2799   21.7805 N   0  0  0  0  0  0  0  0  0  0  0  0
   15.0830  -20.1040   21.0137 N   0  0  0  0  0  0  0  0  0  0  0  0
   13.8788  -19.7638   20.2971 C   0  0  0  0  0  0  0  0  0  0  0  0
   12.8591  -19.1331   21.2181 C   0  0  0  0  0  0  0  0  0  0  0  0
   11.9974  -18.2160   20.4206 C   0  0  0  0  0  0  0  0  0  0  0  0
   10.9308  -17.5017   21.1814 C   0  0  2  0  0  0  0  0  0  0  0  0
   10.0116  -16.7635   20.3496 N   0  0  0  0  0  0  0  0  0  0  0  0
   11.5049  -16.7132   22.2926 C   0  0  0  0  0  0  0  0  0  0  0  0
   12.0780  -15.6351   22.0103 O   0  0  0  0  0  0  0  0  0  0  0  0
   15.8077  -22.4331   20.7924 N   0  0  0  0  0  0  0  0  0  0  0  0
   11.4476  -17.1036   23.6575 C   0  0  2  0  0  0  0  0  0  0  0  0
   12.0073  -16.3207   24.7425 C   0  0  0  0  0  0  0  0  0  0  0  0
   10.9709  -16.2018   25.8076 C   0  0  0  0  0  0  0  0  0  0  0  0
   11.4516  -15.5045   27.0520 C   0  0  0  0  0  0  0  0  0  0  0  0
   10.3996  -15.4400   28.1254 C   0  0  0  0  0  0  0  0  0  0  0  0
   11.0321  -14.7163   29.3145 N   0  0  0  0  0  0  0  0  0  0  0  0
   10.0488  -14.5396   30.3477 C   0  0  0  0  0  0  0  0  0  0  0  0
   13.2619  -16.9481   25.1761 O   0  0  0  0  0  0  0  0  0  0  0  0
   13.4121  -18.1948   25.2991 O   0  0  0  0  0  0  0  0  0  0  0  0
  2  1  1  1
  2  3  1  0
  4  2  1  0
  5  4  1  0
  5  6  1  1
  7  8  2  0
  7  5  1  0
  9 10  1  0
 10 12  1  0
 11 10  2  0
 12 13  1  0
 13 14  1  0
 16 15  1  6
 15 14  1  0
 16 17  1  0
 17  7  1  0
 18 16  1  0
 19 18  2  0
 20 18  1  0
 21 27  1  0
 21 20  1  0
 21 22  1  1
 23 22  1  0
 24 23  1  0
 25 24  1  0
 26 25  1  0
 27 29  1  0
 28 27  2  0
M  END
$$$$
