LRK.pdb
     RDKit          3D

 29 28  0  0  1  0  0  0  0  0999 V2000
    6.6780  -12.3800   18.8705 C   0  0  0  0  0  0  0  0  0  0  0  0
    8.0426  -13.0037   18.9355 C   0  0  1  0  0  0  0  0  0  0  0  0
    9.0418  -11.9666   19.4217 C   0  0  0  0  0  0  0  0  0  0  0  0
    8.0609  -14.2037   19.8467 C   0  0  0  0  0  0  0  0  0  0  0  0
    9.4605  -14.5361   20.2168 C   0  0  2  0  0  0  0  0  0  0  0  0
   10.2350  -15.0765   19.1375 N   0  0  0  0  0  0  0  0  0  0  0  0
    9.5236  -15.5281   21.3469 C   0  0  0  0  0  0  0  0  0  0  0  0
    8.8641  -15.3764   22.4071 O   0  0  0  0  0  0  0  0  0  0  0  0
   10.9402  -20.3949   17.5473 N   0  0  0  0  0  0  0  0  0  0  0  0
    9.9836  -21.3659   17.9298 C   0  0  0  0  0  0  0  0  0  0  0  0
    9.2825  -22.0507   17.0736 N   0  0  0  0  0  0  0  0  0  0  0  0
    9.7622  -21.6218   19.3294 N   0  0  0  0  0  0  0  0  0  0  0  0
   10.5685  -20.9517   20.3193 C   0  0  0  0  0  0  0  0  0  0  0  0
    9.9277  -19.6525   20.7522 C   0  0  0  0  0  0  0  0  0  0  0  0
   10.7558  -19.0480   21.8332 C   0  0  0  0  0  0  0  0  0  0  0  0
   10.3306  -17.6951   22.2973 C   0  0  2  0  0  0  0  0  0  0  0  0
   10.3402  -16.6903   21.2619 N   0  0  0  0  0  0  0  0  0  0  0  0
   11.0522  -17.3013   23.5263 C   0  0  0  0  0  0  0  0  0  0  0  0
   12.2832  -17.0842   23.4380 O   0  0  0  0  0  0  0  0  0  0  0  0
    8.6391  -22.7659   17.4791 N   0  0  0  0  0  0  0  0  0  0  0  0
   10.4362  -17.1560   24.7983 C   0  0  2  0  0  0  0  0  0  0  0  0
   11.1513  -16.7685   25.9991 C   0  0  0  0  0  0  0  0  0  0  0  0
   10.2150  -15.9949   26.8638 C   0  0  0  0  0  0  0  0  0  0  0  0
   10.8338  -15.5003   28.1438 C   0  0  0  0  0  0  0  0  0  0  0  0
    9.8607  -14.7422   29.0049 C   0  0  0  0  0  0  0  0  0  0  0  0
   10.6255  -14.3175   30.2590 N   0  0  0  0  0  0  0  0  0  0  0  0
    9.7760  -13.5076   31.0884 C   0  0  0  0  0  0  0  0  0  0  0  0
   11.7075  -17.9747   26.6245 O   0  0  0  0  0  0  0  0  0  0  0  0
   11.1493  -19.1052   26.5778 O   0  0  0  0  0  0  0  0  0  0  0  0
  2  1  1  1
  2  3  1  0
  4  2  1  0
  5  4  1  0
  5  6  1  6
  7  8  2  0
  7  5  1  0
  9 10  1  0
 10 12  1  0
 11 10  2  0
 12 13  1  0
 13 14  1  0
 16 15  1  6
 15 14  1  0
 16 17  1  0
 17  7  1  0
 18 16  1  0
 19 18  2  0
 20 18  1  0
 21 27  1  0
 21 20  1  0
 21 22  1  6
 23 22  1  0
 24 23  1  0
 25 24  1  0
 26 25  1  0
 27 29  1  0
 28 27  2  0
M  END
$$$$
