LRK.pdb
     RDKit          3D

 29 28  0  0  1  0  0  0  0  0999 V2000
    7.2923  -11.7263   27.7906 C   0  0  0  0  0  0  0  0  0  0  0  0
    6.5184  -12.8761   27.2121 C   0  0  1  0  0  0  0  0  0  0  0  0
    5.3187  -12.3363   26.4507 C   0  0  0  0  0  0  0  0  0  0  0  0
    7.3731  -13.7160   26.2986 C   0  0  0  0  0  0  0  0  0  0  0  0
    6.5530  -14.7936   25.6882 C   0  0  2  0  0  0  0  0  0  0  0  0
    6.3343  -15.9179   26.5512 N   0  0  0  0  0  0  0  0  0  0  0  0
    7.1702  -15.3217   24.4212 C   0  0  0  0  0  0  0  0  0  0  0  0
    7.9125  -16.3371   24.4121 O   0  0  0  0  0  0  0  0  0  0  0  0
    8.2732  -13.1529   16.8173 N   0  0  0  0  0  0  0  0  0  0  0  0
    8.8215  -14.4466   16.6439 C   0  0  0  0  0  0  0  0  0  0  0  0
    9.6007  -14.7625   15.6506 N   0  0  0  0  0  0  0  0  0  0  0  0
    8.5130  -15.4755   17.6028 N   0  0  0  0  0  0  0  0  0  0  0  0
    7.7022  -15.1657   18.7543 C   0  0  0  0  0  0  0  0  0  0  0  0
    8.4288  -14.2302   19.6938 C   0  0  0  0  0  0  0  0  0  0  0  0
    7.5758  -14.0000   20.8934 C   0  0  0  0  0  0  0  0  0  0  0  0
    7.7705  -14.9566   22.0219 C   0  0  2  0  0  0  0  0  0  0  0  0
    6.9372  -14.6881   23.1687 N   0  0  0  0  0  0  0  0  0  0  0  0
    9.2047  -15.1180   22.3433 C   0  0  0  0  0  0  0  0  0  0  0  0
    9.8108  -14.1329   22.8255 O   0  0  0  0  0  0  0  0  0  0  0  0
    9.9188  -15.7563   15.6186 N   0  0  0  0  0  0  0  0  0  0  0  0
    9.9357  -16.3187   22.1376 C   0  0  2  0  0  0  0  0  0  0  0  0
   11.3436  -16.4678   22.4527 C   0  0  0  0  0  0  0  0  0  0  0  0
   11.5482  -17.8336   23.0142 C   0  0  0  0  0  0  0  0  0  0  0  0
   11.3485  -17.9174   24.5039 C   0  0  0  0  0  0  0  0  0  0  0  0
   11.6264  -19.2908   25.0513 C   0  0  0  0  0  0  0  0  0  0  0  0
   11.2376  -19.2590   26.5297 N   0  0  0  0  0  0  0  0  0  0  0  0
   11.4570  -20.5545   27.1120 C   0  0  0  0  0  0  0  0  0  0  0  0
   12.1283  -16.1777   21.2462 O   0  0  0  0  0  0  0  0  0  0  0  0
   11.6695  -16.2777   20.0751 O   0  0  0  0  0  0  0  0  0  0  0  0
  2  1  1  6
  2  3  1  0
  4  2  1  0
  5  4  1  0
  5  6  1  1
  7  8  2  0
  7  5  1  0
  9 10  1  0
 10 12  1  0
 11 10  2  0
 12 13  1  0
 13 14  1  0
 16 15  1  6
 15 14  1  0
 16 17  1  0
 17  7  1  0
 18 16  1  0
 19 18  2  0
 20 18  1  0
 21 27  1  0
 21 20  1  0
 21 22  1  6
 23 22  1  0
 24 23  1  0
 25 24  1  0
 26 25  1  0
 27 29  1  0
 28 27  2  0
M  END
$$$$
