LRK.pdb
     RDKit          3D

 29 28  0  0  1  0  0  0  0  0999 V2000
    7.4732  -12.1012   27.6512 C   0  0  0  0  0  0  0  0  0  0  0  0
    6.7728  -13.3552   27.2128 C   0  0  1  0  0  0  0  0  0  0  0  0
    5.6957  -12.9969   26.2019 C   0  0  0  0  0  0  0  0  0  0  0  0
    7.7350  -14.3464   26.6108 C   0  0  0  0  0  0  0  0  0  0  0  0
    6.9871  -15.5009   26.0506 C   0  0  2  0  0  0  0  0  0  0  0  0
    6.6803  -16.5181   27.0139 N   0  0  0  0  0  0  0  0  0  0  0  0
    7.7369  -16.1663   24.9279 C   0  0  0  0  0  0  0  0  0  0  0  0
    8.4900  -17.1550   25.1210 O   0  0  0  0  0  0  0  0  0  0  0  0
    6.8512  -13.4177   18.1068 N   0  0  0  0  0  0  0  0  0  0  0  0
    8.2631  -13.3161   18.1288 C   0  0  0  0  0  0  0  0  0  0  0  0
    8.8992  -12.1953   17.9473 N   0  0  0  0  0  0  0  0  0  0  0  0
    9.0499  -14.4992   18.3620 N   0  0  0  0  0  0  0  0  0  0  0  0
    8.4035  -15.7270   18.7544 C   0  0  0  0  0  0  0  0  0  0  0  0
    8.9608  -16.2396   20.0630 C   0  0  0  0  0  0  0  0  0  0  0  0
    8.1118  -15.7301   21.1763 C   0  0  0  0  0  0  0  0  0  0  0  0
    8.4909  -16.1894   22.5445 C   0  0  2  0  0  0  0  0  0  0  0  0
    7.6237  -15.6999   23.5885 N   0  0  0  0  0  0  0  0  0  0  0  0
    9.9297  -15.9675   22.8024 C   0  0  0  0  0  0  0  0  0  0  0  0
   10.2843  -14.8348   23.2045 O   0  0  0  0  0  0  0  0  0  0  0  0
    9.9397  -12.2641   17.8990 N   0  0  0  0  0  0  0  0  0  0  0  0
   10.9323  -16.9576   22.6209 C   0  0  2  0  0  0  0  0  0  0  0  0
   12.3333  -16.7512   22.9344 C   0  0  0  0  0  0  0  0  0  0  0  0
   12.9342  -18.0773   23.2551 C   0  0  0  0  0  0  0  0  0  0  0  0
   13.5538  -18.1515   24.6249 C   0  0  0  0  0  0  0  0  0  0  0  0
   14.0966  -19.5178   24.9442 C   0  0  0  0  0  0  0  0  0  0  0  0
   14.5743  -19.4700   26.3959 N   0  0  0  0  0  0  0  0  0  0  0  0
   15.0915  -20.7566   26.7739 C   0  0  0  0  0  0  0  0  0  0  0  0
   12.9669  -16.0468   21.8128 O   0  0  0  0  0  0  0  0  0  0  0  0
   12.5995  -16.1739   20.6124 O   0  0  0  0  0  0  0  0  0  0  0  0
  2  1  1  6
  2  3  1  0
  4  2  1  0
  5  4  1  0
  5  6  1  1
  7  8  2  0
  7  5  1  0
  9 10  1  0
 10 12  1  0
 11 10  2  0
 12 13  1  0
 13 14  1  0
 16 15  1  6
 15 14  1  0
 16 17  1  0
 17  7  1  0
 18 16  1  0
 19 18  2  0
 20 18  1  0
 21 27  1  0
 21 20  1  0
 21 22  1  6
 23 22  1  0
 24 23  1  0
 25 24  1  0
 26 25  1  0
 27 29  1  0
 28 27  2  0
M  END
$$$$
