LRK.pdb
     RDKit          3D

 29 28  0  0  1  0  0  0  0  0999 V2000
    6.5152  -12.5003   18.7761 C   0  0  0  0  0  0  0  0  0  0  0  0
    7.9329  -12.9809   18.6559 C   0  0  1  0  0  0  0  0  0  0  0  0
    8.8744  -11.8688   19.0888 C   0  0  0  0  0  0  0  0  0  0  0  0
    8.1733  -14.2130   19.4893 C   0  0  0  0  0  0  0  0  0  0  0  0
    9.6312  -14.4063   19.6971 C   0  0  2  0  0  0  0  0  0  0  0  0
   10.3417  -14.7914   18.5123 N   0  0  0  0  0  0  0  0  0  0  0  0
    9.9175  -15.4496   20.7435 C   0  0  0  0  0  0  0  0  0  0  0  0
    9.3184  -15.4690   21.8493 O   0  0  0  0  0  0  0  0  0  0  0  0
   13.4573  -21.7349   17.8886 N   0  0  0  0  0  0  0  0  0  0  0  0
   12.3756  -21.2336   17.1251 C   0  0  0  0  0  0  0  0  0  0  0  0
   11.9269  -21.8216   16.0543 N   0  0  0  0  0  0  0  0  0  0  0  0
   11.7283  -20.0155   17.5379 N   0  0  0  0  0  0  0  0  0  0  0  0
   12.2426  -19.2730   18.6619 C   0  0  0  0  0  0  0  0  0  0  0  0
   11.3080  -19.3655   19.8468 C   0  0  0  0  0  0  0  0  0  0  0  0
   11.9238  -18.6483   20.9984 C   0  0  0  0  0  0  0  0  0  0  0  0
   11.1596  -17.4765   21.5173 C   0  0  2  0  0  0  0  0  0  0  0  0
   10.8872  -16.4671   20.5230 N   0  0  0  0  0  0  0  0  0  0  0  0
   11.7662  -16.9512   22.7592 C   0  0  0  0  0  0  0  0  0  0  0  0
   12.8312  -16.2984   22.6596 O   0  0  0  0  0  0  0  0  0  0  0  0
   11.1478  -21.3345   15.5589 N   0  0  0  0  0  0  0  0  0  0  0  0
   11.2170  -17.1427   24.0554 C   0  0  2  0  0  0  0  0  0  0  0  0
   11.8338  -16.6489   25.2717 C   0  0  0  0  0  0  0  0  0  0  0  0
   10.7550  -16.1178   26.1530 C   0  0  0  0  0  0  0  0  0  0  0  0
   11.2474  -15.6063   27.4803 C   0  0  0  0  0  0  0  0  0  0  0  0
   10.1315  -15.1322   28.3708 C   0  0  0  0  0  0  0  0  0  0  0  0
   10.7815  -14.6571   29.6707 N   0  0  0  0  0  0  0  0  0  0  0  0
    9.7671  -14.1700   30.5648 C   0  0  0  0  0  0  0  0  0  0  0  0
   12.6332  -17.7282   25.8646 O   0  0  0  0  0  0  0  0  0  0  0  0
   12.3701  -18.9533   25.7165 O   0  0  0  0  0  0  0  0  0  0  0  0
  2  1  1  1
  2  3  1  0
  4  2  1  0
  5  4  1  0
  5  6  1  6
  7  8  2  0
  7  5  1  0
  9 10  1  0
 10 12  1  0
 11 10  2  0
 12 13  1  0
 13 14  1  0
 16 15  1  6
 15 14  1  0
 16 17  1  0
 17  7  1  0
 18 16  1  0
 19 18  2  0
 20 18  1  0
 21 27  1  0
 21 20  1  0
 21 22  1  6
 23 22  1  0
 24 23  1  0
 25 24  1  0
 26 25  1  0
 27 29  1  0
 28 27  2  0
M  END
$$$$
