LRK.pdb
     RDKit          3D

 29 28  0  0  1  0  0  0  0  0999 V2000
    5.1086  -11.3609   26.4325 C   0  0  0  0  0  0  0  0  0  0  0  0
    6.3550  -12.1813   26.2625 C   0  0  1  0  0  0  0  0  0  0  0  0
    7.1699  -12.1208   27.5441 C   0  0  0  0  0  0  0  0  0  0  0  0
    6.0339  -13.6139   25.9232 C   0  0  0  0  0  0  0  0  0  0  0  0
    7.2902  -14.3742   25.6994 C   0  0  2  0  0  0  0  0  0  0  0  0
    8.4813  -13.6203   25.9632 N   0  0  0  0  0  0  0  0  0  0  0  0
    7.3943  -14.8867   24.2881 C   0  0  0  0  0  0  0  0  0  0  0  0
    6.8546  -15.9638   23.9267 O   0  0  0  0  0  0  0  0  0  0  0  0
    9.9707  -15.0711   17.0405 N   0  0  0  0  0  0  0  0  0  0  0  0
    8.7784  -14.5943   16.4444 C   0  0  0  0  0  0  0  0  0  0  0  0
    8.4175  -14.8987   15.2317 N   0  0  0  0  0  0  0  0  0  0  0  0
    7.9106  -13.7297   17.2012 N   0  0  0  0  0  0  0  0  0  0  0  0
    8.3270  -13.2460   18.4943 C   0  0  0  0  0  0  0  0  0  0  0  0
    8.3576  -14.3666   19.5088 C   0  0  0  0  0  0  0  0  0  0  0  0
    8.3457  -13.7741   20.8757 C   0  0  0  0  0  0  0  0  0  0  0  0
    8.4046  -14.7471   22.0056 C   0  0  2  0  0  0  0  0  0  0  0  0
    8.1149  -14.1670   23.2945 N   0  0  0  0  0  0  0  0  0  0  0  0
    9.6549  -15.5354   21.9665 C   0  0  0  0  0  0  0  0  0  0  0  0
   10.6836  -15.0263   22.4694 O   0  0  0  0  0  0  0  0  0  0  0  0
    7.5135  -14.4888   14.9083 N   0  0  0  0  0  0  0  0  0  0  0  0
    9.7606  -16.8310   21.3933 C   0  0  2  0  0  0  0  0  0  0  0  0
   10.9657  -17.6366   21.4420 C   0  0  0  0  0  0  0  0  0  0  0  0
   10.5619  -19.0592   21.6311 C   0  0  0  0  0  0  0  0  0  0  0  0
   11.4707  -19.8353   22.5465 C   0  0  0  0  0  0  0  0  0  0  0  0
   10.9675  -21.2256   22.8234 C   0  0  0  0  0  0  0  0  0  0  0  0
   11.9971  -21.8890   23.7387 N   0  0  0  0  0  0  0  0  0  0  0  0
   11.5159  -23.1804   24.1464 C   0  0  0  0  0  0  0  0  0  0  0  0
   11.7522  -17.3792   20.2292 O   0  0  0  0  0  0  0  0  0  0  0  0
   11.2471  -16.9934   19.1392 O   0  0  0  0  0  0  0  0  0  0  0  0
  2  1  1  1
  2  3  1  0
  4  2  1  0
  5  4  1  0
  5  6  1  6
  7  8  2  0
  7  5  1  0
  9 10  1  0
 10 12  1  0
 11 10  2  0
 12 13  1  0
 13 14  1  0
 16 15  1  6
 15 14  1  0
 16 17  1  0
 17  7  1  0
 18 16  1  0
 19 18  2  0
 20 18  1  0
 21 27  1  0
 21 20  1  0
 21 22  1  1
 23 22  1  0
 24 23  1  0
 25 24  1  0
 26 25  1  0
 27 29  1  0
 28 27  2  0
M  END
$$$$
