LRK.pdb
     RDKit          3D

 29 28  0  0  1  0  0  0  0  0999 V2000
    5.0522  -11.6290   27.4384 C   0  0  0  0  0  0  0  0  0  0  0  0
    6.0307  -11.8034   26.3126 C   0  0  1  0  0  0  0  0  0  0  0  0
    7.2494  -10.9329   26.5724 C   0  0  0  0  0  0  0  0  0  0  0  0
    6.4490  -13.2429   26.1594 C   0  0  0  0  0  0  0  0  0  0  0  0
    7.6461  -13.3311   25.2846 C   0  0  2  0  0  0  0  0  0  0  0  0
    7.5043  -12.6447   24.0334 N   0  0  0  0  0  0  0  0  0  0  0  0
    8.0085  -14.7573   24.9683 C   0  0  0  0  0  0  0  0  0  0  0  0
    7.9252  -15.6739   25.8255 O   0  0  0  0  0  0  0  0  0  0  0  0
    7.1034  -14.0654   18.5906 N   0  0  0  0  0  0  0  0  0  0  0  0
    8.4692  -14.1767   18.2350 C   0  0  0  0  0  0  0  0  0  0  0  0
    9.0758  -13.3227   17.4627 N   0  0  0  0  0  0  0  0  0  0  0  0
    9.2404  -15.2815   18.7428 N   0  0  0  0  0  0  0  0  0  0  0  0
    8.6147  -16.2659   19.5905 C   0  0  0  0  0  0  0  0  0  0  0  0
    8.4826  -15.7564   21.0078 C   0  0  0  0  0  0  0  0  0  0  0  0
    9.0521  -16.7730   21.9362 C   0  0  0  0  0  0  0  0  0  0  0  0
    8.9131  -16.4735   23.3914 C   0  0  2  0  0  0  0  0  0  0  0  0
    8.4649  -15.1314   23.6736 N   0  0  0  0  0  0  0  0  0  0  0  0
   10.1257  -16.8735   24.1368 C   0  0  0  0  0  0  0  0  0  0  0  0
   11.1227  -16.1163   24.0821 O   0  0  0  0  0  0  0  0  0  0  0  0
   10.0908  -13.5001   17.2952 N   0  0  0  0  0  0  0  0  0  0  0  0
   10.2292  -18.0621   24.9082 C   0  0  1  0  0  0  0  0  0  0  0  0
   11.3542  -18.3654   25.7719 C   0  0  0  0  0  0  0  0  0  0  0  0
   10.8615  -19.2253   26.8856 C   0  0  0  0  0  0  0  0  0  0  0  0
   11.9351  -19.6446   27.8540 C   0  0  0  0  0  0  0  0  0  0  0  0
   11.3972  -20.4491   29.0057 C   0  0  0  0  0  0  0  0  0  0  0  0
   12.5902  -20.7791   29.9033 N   0  0  0  0  0  0  0  0  0  0  0  0
   12.1261  -21.4223   31.1019 C   0  0  0  0  0  0  0  0  0  0  0  0
   12.4209  -18.9652   24.9608 O   0  0  0  0  0  0  0  0  0  0  0  0
   13.6469  -18.8781   25.2462 O   0  0  0  0  0  0  0  0  0  0  0  0
  2  1  1  1
  2  3  1  0
  4  2  1  0
  5  4  1  0
  5  6  1  6
  7  8  2  0
  7  5  1  0
  9 10  1  0
 10 12  1  0
 11 10  2  0
 12 13  1  0
 13 14  1  0
 16 15  1  6
 15 14  1  0
 16 17  1  0
 17  7  1  0
 18 16  1  0
 19 18  2  0
 20 18  1  0
 21 27  1  0
 21 20  1  0
 21 22  1  6
 23 22  1  0
 24 23  1  0
 25 24  1  0
 26 25  1  0
 27 29  1  0
 28 27  2  0
M  END
$$$$
