LRK.pdb
     RDKit          3D

 29 28  0  0  1  0  0  0  0  0999 V2000
    5.1103  -11.8350   27.1885 C   0  0  0  0  0  0  0  0  0  0  0  0
    6.2192  -11.9110   26.1785 C   0  0  1  0  0  0  0  0  0  0  0  0
    7.3848  -11.0586   26.6534 C   0  0  0  0  0  0  0  0  0  0  0  0
    6.6744  -13.3308   25.9605 C   0  0  0  0  0  0  0  0  0  0  0  0
    7.8562  -13.3503   25.0609 C   0  0  2  0  0  0  0  0  0  0  0  0
    7.6854  -12.5861   23.8594 N   0  0  0  0  0  0  0  0  0  0  0  0
    8.2256  -14.7493   24.6468 C   0  0  0  0  0  0  0  0  0  0  0  0
    7.9815  -15.7475   25.3722 O   0  0  0  0  0  0  0  0  0  0  0  0
    8.0859  -12.8501   17.2246 N   0  0  0  0  0  0  0  0  0  0  0  0
    8.0957  -14.1217   17.8470 C   0  0  0  0  0  0  0  0  0  0  0  0
    8.5541  -15.1938   17.2690 N   0  0  0  0  0  0  0  0  0  0  0  0
    7.5774  -14.2544   19.1838 N   0  0  0  0  0  0  0  0  0  0  0  0
    7.7896  -15.4764   19.9193 C   0  0  0  0  0  0  0  0  0  0  0  0
    9.0947  -15.4314   20.6814 C   0  0  0  0  0  0  0  0  0  0  0  0
    9.1678  -16.6216   21.5745 C   0  0  0  0  0  0  0  0  0  0  0  0
    9.2933  -16.3322   23.0330 C   0  0  2  0  0  0  0  0  0  0  0  0
    8.8728  -15.0033   23.4054 N   0  0  0  0  0  0  0  0  0  0  0  0
   10.6323  -16.7045   23.5376 C   0  0  0  0  0  0  0  0  0  0  0  0
   11.4438  -17.2091   22.7269 O   0  0  0  0  0  0  0  0  0  0  0  0
    8.4821  -16.0763   17.8220 N   0  0  0  0  0  0  0  0  0  0  0  0
   11.0530  -16.5266   24.8829 C   0  0  2  0  0  0  0  0  0  0  0  0
   11.6844  -17.5664   25.6727 C   0  0  0  0  0  0  0  0  0  0  0  0
   10.6392  -18.1900   26.5338 C   0  0  0  0  0  0  0  0  0  0  0  0
   11.1090  -19.4131   27.2751 C   0  0  0  0  0  0  0  0  0  0  0  0
   10.9126  -19.3024   28.7624 C   0  0  0  0  0  0  0  0  0  0  0  0
   10.9477  -20.7276   29.3152 N   0  0  0  0  0  0  0  0  0  0  0  0
   12.2903  -21.0578   29.7073 C   0  0  0  0  0  0  0  0  0  0  0  0
   12.3658  -18.4976   24.7649 O   0  0  0  0  0  0  0  0  0  0  0  0
   13.5736  -18.8392   24.8940 O   0  0  0  0  0  0  0  0  0  0  0  0
  2  1  1  1
  2  3  1  0
  4  2  1  0
  5  4  1  0
  5  6  1  6
  7  8  2  0
  7  5  1  0
  9 10  1  0
 10 12  1  0
 11 10  2  0
 12 13  1  0
 13 14  1  0
 16 15  1  6
 15 14  1  0
 16 17  1  0
 17  7  1  0
 18 16  1  0
 19 18  2  0
 20 18  1  0
 21 27  1  0
 21 20  1  0
 21 22  1  1
 23 22  1  0
 24 23  1  0
 25 24  1  0
 26 25  1  0
 27 29  1  0
 28 27  2  0
M  END
$$$$
