LRK.pdb
     RDKit          3D

 29 28  0  0  1  0  0  0  0  0999 V2000
    6.3575  -12.7197   19.4584 C   0  0  0  0  0  0  0  0  0  0  0  0
    7.8206  -13.0135   19.2904 C   0  0  1  0  0  0  0  0  0  0  0  0
    8.6244  -11.7886   19.6955 C   0  0  0  0  0  0  0  0  0  0  0  0
    8.2452  -14.2032   20.1120 C   0  0  0  0  0  0  0  0  0  0  0  0
    9.7277  -14.2835   20.1567 C   0  0  2  0  0  0  0  0  0  0  0  0
   10.3562  -14.1556   18.8740 N   0  0  0  0  0  0  0  0  0  0  0  0
   10.2036  -15.5798   20.7554 C   0  0  0  0  0  0  0  0  0  0  0  0
    9.6157  -16.1237   21.7253 O   0  0  0  0  0  0  0  0  0  0  0  0
   11.8403  -22.6164   18.6703 N   0  0  0  0  0  0  0  0  0  0  0  0
   13.1126  -22.8575   19.2425 C   0  0  0  0  0  0  0  0  0  0  0  0
   13.5139  -24.0383   19.6146 N   0  0  0  0  0  0  0  0  0  0  0  0
   14.0199  -21.7552   19.4297 N   0  0  0  0  0  0  0  0  0  0  0  0
   13.6201  -20.4225   19.0514 C   0  0  0  0  0  0  0  0  0  0  0  0
   12.8616  -19.7452   20.1703 C   0  0  0  0  0  0  0  0  0  0  0  0
   12.4944  -18.3688   19.7341 C   0  0  0  0  0  0  0  0  0  0  0  0
   11.7398  -17.5520   20.7291 C   0  0  2  0  0  0  0  0  0  0  0  0
   11.3495  -16.2504   20.2439 N   0  0  0  0  0  0  0  0  0  0  0  0
   12.4341  -17.5256   22.0342 C   0  0  0  0  0  0  0  0  0  0  0  0
   13.4662  -16.8218   22.1340 O   0  0  0  0  0  0  0  0  0  0  0  0
   14.4616  -24.0817   20.0502 N   0  0  0  0  0  0  0  0  0  0  0  0
   12.0040  -18.2492   23.1787 C   0  0  2  0  0  0  0  0  0  0  0  0
   12.6699  -18.1893   24.4658 C   0  0  0  0  0  0  0  0  0  0  0  0
   11.8212  -18.9090   25.4579 C   0  0  0  0  0  0  0  0  0  0  0  0
   12.4485  -19.0352   26.8204 C   0  0  0  0  0  0  0  0  0  0  0  0
   11.5380  -19.6931   27.8209 C   0  0  0  0  0  0  0  0  0  0  0  0
   12.2335  -19.5904   29.1787 N   0  0  0  0  0  0  0  0  0  0  0  0
   11.3576  -20.0841   30.2057 C   0  0  0  0  0  0  0  0  0  0  0  0
   14.0281  -18.7267   24.3175 O   0  0  0  0  0  0  0  0  0  0  0  0
   15.0320  -18.2625   24.9247 O   0  0  0  0  0  0  0  0  0  0  0  0
  2  1  1  1
  2  3  1  0
  4  2  1  0
  5  4  1  0
  5  6  1  6
  7  8  2  0
  7  5  1  0
  9 10  1  0
 10 12  1  0
 11 10  2  0
 12 13  1  0
 13 14  1  0
 16 15  1  6
 15 14  1  0
 16 17  1  0
 17  7  1  0
 18 16  1  0
 19 18  2  0
 20 18  1  0
 21 27  1  0
 21 20  1  0
 21 22  1  6
 23 22  1  0
 24 23  1  0
 25 24  1  0
 26 25  1  0
 27 29  1  0
 28 27  2  0
M  END
$$$$
