LRK.pdb
     RDKit          3D

 29 28  0  0  1  0  0  0  0  0999 V2000
    6.3440  -12.4196   18.7426 C   0  0  0  0  0  0  0  0  0  0  0  0
    7.6739  -13.1021   18.8873 C   0  0  1  0  0  0  0  0  0  0  0  0
    8.7615  -12.0494   19.0275 C   0  0  0  0  0  0  0  0  0  0  0  0
    7.6960  -14.0273   20.0764 C   0  0  0  0  0  0  0  0  0  0  0  0
    9.0533  -14.6082   20.2398 C   0  0  2  0  0  0  0  0  0  0  0  0
    9.5287  -15.3102   19.0831 N   0  0  0  0  0  0  0  0  0  0  0  0
    9.1196  -15.5673   21.3978 C   0  0  0  0  0  0  0  0  0  0  0  0
    8.7136  -15.2567   22.5470 O   0  0  0  0  0  0  0  0  0  0  0  0
   11.6891  -20.1509   18.0255 N   0  0  0  0  0  0  0  0  0  0  0  0
   12.8001  -20.7216   18.6919 C   0  0  0  0  0  0  0  0  0  0  0  0
   13.9337  -20.9692   18.1026 N   0  0  0  0  0  0  0  0  0  0  0  0
   12.6891  -21.0507   20.0892 N   0  0  0  0  0  0  0  0  0  0  0  0
   11.4452  -20.8285   20.7838 C   0  0  0  0  0  0  0  0  0  0  0  0
   11.2574  -19.3631   21.1052 C   0  0  0  0  0  0  0  0  0  0  0  0
   10.0283  -19.2090   21.9330 C   0  0  0  0  0  0  0  0  0  0  0  0
    9.6882  -17.8134   22.3369 C   0  0  2  0  0  0  0  0  0  0  0  0
    9.6496  -16.8782   21.2389 N   0  0  0  0  0  0  0  0  0  0  0  0
   10.5186  -17.3704   23.4772 C   0  0  0  0  0  0  0  0  0  0  0  0
   11.6777  -16.9612   23.2330 O   0  0  0  0  0  0  0  0  0  0  0  0
   14.6601  -21.4365   18.6889 N   0  0  0  0  0  0  0  0  0  0  0  0
   10.0838  -17.3819   24.8297 C   0  0  1  0  0  0  0  0  0  0  0  0
   10.9035  -16.9419   25.9424 C   0  0  0  0  0  0  0  0  0  0  0  0
   10.0805  -16.0328   26.7901 C   0  0  0  0  0  0  0  0  0  0  0  0
   10.7953  -15.5259   28.0141 C   0  0  0  0  0  0  0  0  0  0  0  0
    9.9618  -14.5658   28.8181 C   0  0  0  0  0  0  0  0  0  0  0  0
   10.8209  -14.1295   30.0055 N   0  0  0  0  0  0  0  0  0  0  0  0
   10.0849  -13.1965   30.8137 C   0  0  0  0  0  0  0  0  0  0  0  0
   11.4241  -18.1248   26.6391 O   0  0  0  0  0  0  0  0  0  0  0  0
   10.8310  -19.2382   26.6614 O   0  0  0  0  0  0  0  0  0  0  0  0
  2  1  1  1
  2  3  1  0
  4  2  1  0
  5  4  1  0
  5  6  1  6
  7  8  2  0
  7  5  1  0
  9 10  1  0
 10 12  1  0
 11 10  2  0
 12 13  1  0
 13 14  1  0
 16 15  1  6
 15 14  1  0
 16 17  1  0
 17  7  1  0
 18 16  1  0
 19 18  2  0
 20 18  1  0
 21 27  1  0
 21 20  1  0
 21 22  1  1
 23 22  1  0
 24 23  1  0
 25 24  1  0
 26 25  1  0
 27 29  1  0
 28 27  2  0
M  END
$$$$
