LRK.pdb
     RDKit          3D

 29 28  0  0  1  0  0  0  0  0999 V2000
    7.1715  -11.8351   27.7718 C   0  0  0  0  0  0  0  0  0  0  0  0
    6.8336  -12.4426   26.4406 C   0  0  1  0  0  0  0  0  0  0  0  0
    7.1935  -11.4595   25.3386 C   0  0  0  0  0  0  0  0  0  0  0  0
    7.5589  -13.7458   26.2256 C   0  0  0  0  0  0  0  0  0  0  0  0
    7.2685  -14.2675   24.8656 C   0  0  2  0  0  0  0  0  0  0  0  0
    5.9088  -14.6841   24.6803 N   0  0  0  0  0  0  0  0  0  0  0  0
    8.1428  -15.4412   24.5143 C   0  0  0  0  0  0  0  0  0  0  0  0
    8.2609  -16.4374   25.2730 O   0  0  0  0  0  0  0  0  0  0  0  0
    9.2394  -19.3383   18.0806 N   0  0  0  0  0  0  0  0  0  0  0  0
   10.4910  -19.9067   18.4191 C   0  0  0  0  0  0  0  0  0  0  0  0
   10.8060  -21.1422   18.1579 N   0  0  0  0  0  0  0  0  0  0  0  0
   11.4756  -19.0940   19.0849 N   0  0  0  0  0  0  0  0  0  0  0  0
   11.1065  -17.8027   19.6098 C   0  0  0  0  0  0  0  0  0  0  0  0
   10.8568  -17.8736   21.0993 C   0  0  0  0  0  0  0  0  0  0  0  0
   10.0346  -16.6984   21.5025 C   0  0  0  0  0  0  0  0  0  0  0  0
    9.7274  -16.5898   22.9587 C   0  0  2  0  0  0  0  0  0  0  0  0
    8.8792  -15.4728   23.2973 N   0  0  0  0  0  0  0  0  0  0  0  0
   10.9588  -16.6800   23.7721 C   0  0  0  0  0  0  0  0  0  0  0  0
   11.6653  -15.6507   23.8805 O   0  0  0  0  0  0  0  0  0  0  0  0
   11.7889  -21.4181   18.3758 N   0  0  0  0  0  0  0  0  0  0  0  0
   11.3893  -17.8605   24.4351 C   0  0  2  0  0  0  0  0  0  0  0  0
   12.5471  -17.9171   25.3069 C   0  0  0  0  0  0  0  0  0  0  0  0
   12.3655  -19.0653   26.2404 C   0  0  0  0  0  0  0  0  0  0  0  0
   12.0600  -18.6579   27.6570 C   0  0  0  0  0  0  0  0  0  0  0  0
   11.7398  -19.8308   28.5429 C   0  0  0  0  0  0  0  0  0  0  0  0
   11.4428  -19.2620   29.9308 N   0  0  0  0  0  0  0  0  0  0  0  0
   11.0246  -20.3231   30.8053 C   0  0  0  0  0  0  0  0  0  0  0  0
   13.7566  -17.9873   24.4777 O   0  0  0  0  0  0  0  0  0  0  0  0
   13.7623  -18.4025   23.2862 O   0  0  0  0  0  0  0  0  0  0  0  0
  2  1  1  1
  2  3  1  0
  4  2  1  0
  5  4  1  0
  5  6  1  1
  7  8  2  0
  7  5  1  0
  9 10  1  0
 10 12  1  0
 11 10  2  0
 12 13  1  0
 13 14  1  0
 16 15  1  6
 15 14  1  0
 16 17  1  0
 17  7  1  0
 18 16  1  0
 19 18  2  0
 20 18  1  0
 21 27  1  0
 21 20  1  0
 21 22  1  6
 23 22  1  0
 24 23  1  0
 25 24  1  0
 26 25  1  0
 27 29  1  0
 28 27  2  0
M  END
$$$$
