MIW.pdb
     RDKit          3D

 31 32  0  0  1  0  0  0  0  0999 V2000
   19.3833  -15.7689  -14.4823 C   0  0  0  0  0  0  0  0  0  0  0  0
   20.8728  -16.1698  -13.5188 S   0  0  0  0  0  0  0  0  0  0  0  0
   21.9891  -17.1477  -14.5847 C   0  0  0  0  0  0  0  0  0  0  0  0
   23.1885  -17.5572  -13.7595 C   0  0  0  0  0  0  0  0  0  0  0  0
   24.1985  -18.2949  -14.5717 C   0  0  2  0  0  0  0  0  0  0  0  0
   23.6821  -18.7545  -15.8371 N   0  0  0  0  0  0  0  0  0  0  0  0
   24.8179  -19.4476  -13.8184 C   0  0  0  0  0  0  0  0  0  0  0  0
   24.2344  -20.5359  -13.7447 O   0  0  0  0  0  0  0  0  0  0  0  0
   29.4343  -21.3706  -15.1968 C   0  0  0  0  0  0  0  0  0  0  0  0
   28.0554  -21.0204  -14.6322 C   0  0  0  0  0  0  0  0  0  0  0  0
   28.1456  -20.7350  -13.1548 C   0  0  2  0  0  0  0  0  0  0  0  0
   28.7122  -21.9620  -12.4828 C   0  0  0  0  0  0  0  0  0  0  0  0
   26.8634  -20.2788  -12.5249 C   0  0  2  0  0  0  0  0  0  0  0  0
   26.0725  -19.3147  -13.1808 N   0  0  0  0  0  0  0  0  0  0  0  0
   26.8794  -20.1831  -11.0529 C   0  0  0  0  0  0  0  0  0  0  0  0
   27.6945  -19.4696  -10.4125 O   0  0  0  0  0  0  0  0  0  0  0  0
   25.9467  -20.9138  -10.2650 N   0  0  0  0  0  0  0  0  0  0  0  0
   25.9380  -20.8118   -8.7961 C   0  0  1  0  0  0  0  0  0  0  0  0
   25.8816  -19.3929   -8.3738 C   0  0  0  0  0  0  0  0  0  0  0  0
   27.0320  -18.9984   -7.5550 C   0  0  0  0  0  0  0  0  0  0  0  0
   27.8549  -17.8884   -7.6871 C   0  0  0  0  0  0  0  0  0  0  0  0
   28.8316  -17.8869   -6.7690 N   0  0  0  0  0  0  0  0  0  0  0  0
   28.6525  -19.0061   -6.0224 C   0  0  0  0  0  0  0  0  0  0  0  0
   29.3770  -19.4607   -4.9398 C   0  0  0  0  0  0  0  0  0  0  0  0
   29.0108  -20.6187   -4.3057 C   0  0  0  0  0  0  0  0  0  0  0  0
   27.9212  -21.3448   -4.7345 C   0  0  0  0  0  0  0  0  0  0  0  0
   27.2148  -20.8738   -5.8151 C   0  0  0  0  0  0  0  0  0  0  0  0
   27.5617  -19.7105   -6.4731 C   0  0  0  0  0  0  0  0  0  0  0  0
   24.9110  -21.6855   -8.2312 C   0  0  0  0  0  0  0  0  0  0  0  0
   23.8815  -21.9805   -8.9384 O   0  0  0  0  0  0  0  0  0  0  0  0
   24.9221  -22.2603   -6.9747 O   0  0  0  0  0  0  0  0  0  0  0  0
  2  1  1  0
  3  2  1  0
  4  3  1  0
  5  4  1  0
  5  6  1  6
  7  5  1  0
  8  7  2  0
  9 10  1  0
 11 13  1  0
 11 10  1  0
 11 12  1  1
 13 14  1  6
 14  7  1  0
 15 13  1  0
 15 17  1  0
 16 15  2  0
 18 17  1  0
 18 29  1  0
 18 19  1  6
 20 19  1  0
 20 21  2  0
 22 21  1  0
 23 22  1  0
 24 23  2  0
 25 24  1  0
 26 25  2  0
 26 27  1  0
 27 28  2  0
 28 23  1  0
 28 20  1  0
 29 31  1  0
 30 29  2  0
M  END
$$$$
