MIW.pdb
     RDKit          3D

 31 32  0  0  1  0  0  0  0  0999 V2000
   29.0727  -18.1008  -15.2389 C   0  0  0  0  0  0  0  0  0  0  0  0
   28.4078  -17.6974  -16.8829 S   0  0  0  0  0  0  0  0  0  0  0  0
   27.9203  -19.2604  -17.6943 C   0  0  0  0  0  0  0  0  0  0  0  0
   26.7898  -19.8717  -16.8971 C   0  0  0  0  0  0  0  0  0  0  0  0
   27.2870  -20.6103  -15.7007 C   0  0  2  0  0  0  0  0  0  0  0  0
   28.1631  -21.7058  -16.0345 N   0  0  0  0  0  0  0  0  0  0  0  0
   26.1665  -21.0983  -14.8140 C   0  0  0  0  0  0  0  0  0  0  0  0
   25.5394  -22.1250  -15.1016 O   0  0  0  0  0  0  0  0  0  0  0  0
   26.4386  -20.9347   -9.2914 C   0  0  0  0  0  0  0  0  0  0  0  0
   26.2297  -21.1938  -10.7854 C   0  0  0  0  0  0  0  0  0  0  0  0
   24.9758  -20.5121  -11.2702 C   0  0  2  0  0  0  0  0  0  0  0  0
   23.8190  -21.0473  -10.4619 C   0  0  0  0  0  0  0  0  0  0  0  0
   24.7372  -20.6149  -12.7472 C   0  0  2  0  0  0  0  0  0  0  0  0
   25.8060  -20.3991  -13.6395 N   0  0  0  0  0  0  0  0  0  0  0  0
   23.4229  -20.1325  -13.2120 C   0  0  0  0  0  0  0  0  0  0  0  0
   22.9255  -19.0301  -12.8644 O   0  0  0  0  0  0  0  0  0  0  0  0
   22.6329  -20.9134  -14.1014 N   0  0  0  0  0  0  0  0  0  0  0  0
   21.3036  -20.4610  -14.5445 C   0  0  1  0  0  0  0  0  0  0  0  0
   21.2291  -20.4372  -16.0240 C   0  0  0  0  0  0  0  0  0  0  0  0
   19.9323  -19.9656  -16.5194 C   0  0  0  0  0  0  0  0  0  0  0  0
   19.4527  -18.6658  -16.6033 C   0  0  0  0  0  0  0  0  0  0  0  0
   18.1990  -18.6325  -17.0763 N   0  0  0  0  0  0  0  0  0  0  0  0
   17.8463  -19.9226  -17.3080 C   0  0  0  0  0  0  0  0  0  0  0  0
   16.6669  -20.4298  -17.8133 C   0  0  0  0  0  0  0  0  0  0  0  0
   16.5212  -21.7803  -17.9925 C   0  0  0  0  0  0  0  0  0  0  0  0
   17.5414  -22.6495  -17.6736 C   0  0  0  0  0  0  0  0  0  0  0  0
   18.7068  -22.1223  -17.1710 C   0  0  0  0  0  0  0  0  0  0  0  0
   18.8808  -20.7660  -16.9797 C   0  0  0  0  0  0  0  0  0  0  0  0
   20.2549  -21.2210  -13.8663 C   0  0  0  0  0  0  0  0  0  0  0  0
   20.4938  -22.4271  -13.4988 O   0  0  0  0  0  0  0  0  0  0  0  0
   18.9855  -20.7721  -13.5560 O   0  0  0  0  0  0  0  0  0  0  0  0
  2  1  1  0
  3  2  1  0
  4  3  1  0
  5  4  1  0
  5  6  1  6
  7  5  1  0
  8  7  2  0
  9 10  1  0
 11 13  1  0
 11 10  1  0
 11 12  1  1
 13 14  1  6
 14  7  1  0
 15 13  1  0
 15 17  1  0
 16 15  2  0
 18 17  1  0
 18 29  1  0
 18 19  1  6
 20 19  1  0
 20 21  2  0
 22 21  1  0
 23 22  1  0
 24 23  2  0
 25 24  1  0
 26 25  2  0
 26 27  1  0
 27 28  2  0
 28 23  1  0
 28 20  1  0
 29 31  1  0
 30 29  2  0
M  END
$$$$
