MIW.pdb
     RDKit          3D

 31 32  0  0  1  0  0  0  0  0999 V2000
   26.3244  -18.0215  -18.8139 C   0  0  0  0  0  0  0  0  0  0  0  0
   27.6781  -17.5051  -17.7146 S   0  0  0  0  0  0  0  0  0  0  0  0
   28.2669  -18.9804  -16.8116 C   0  0  0  0  0  0  0  0  0  0  0  0
   27.2263  -19.3449  -15.7764 C   0  0  0  0  0  0  0  0  0  0  0  0
   27.6635  -20.4883  -14.9249 C   0  0  2  0  0  0  0  0  0  0  0  0
   28.3998  -21.4901  -15.6554 N   0  0  0  0  0  0  0  0  0  0  0  0
   26.5157  -21.1308  -14.1835 C   0  0  0  0  0  0  0  0  0  0  0  0
   26.0617  -22.2210  -14.5515 O   0  0  0  0  0  0  0  0  0  0  0  0
   26.6699  -20.7243   -8.8627 C   0  0  0  0  0  0  0  0  0  0  0  0
   26.2268  -21.4554  -10.1324 C   0  0  0  0  0  0  0  0  0  0  0  0
   25.0169  -20.7863  -10.7330 C   0  0  2  0  0  0  0  0  0  0  0  0
   23.7999  -21.2858   -9.9931 C   0  0  0  0  0  0  0  0  0  0  0  0
   24.8869  -20.9428  -12.2188 C   0  0  2  0  0  0  0  0  0  0  0  0
   25.9326  -20.5074  -13.0567 N   0  0  0  0  0  0  0  0  0  0  0  0
   23.5276  -20.7531  -12.7595 C   0  0  0  0  0  0  0  0  0  0  0  0
   22.5021  -21.2871  -12.2626 O   0  0  0  0  0  0  0  0  0  0  0  0
   23.3052  -19.9334  -13.9012 N   0  0  0  0  0  0  0  0  0  0  0  0
   21.9543  -19.7376  -14.4531 C   0  0  1  0  0  0  0  0  0  0  0  0
   21.8621  -18.4345  -15.1520 C   0  0  0  0  0  0  0  0  0  0  0  0
   23.1554  -17.7514  -15.2521 C   0  0  0  0  0  0  0  0  0  0  0  0
   24.1708  -17.6671  -14.3094 C   0  0  0  0  0  0  0  0  0  0  0  0
   25.1922  -16.9196  -14.7506 N   0  0  0  0  0  0  0  0  0  0  0  0
   24.8494  -16.5061  -15.9971 C   0  0  0  0  0  0  0  0  0  0  0  0
   25.5614  -15.7295  -16.8878 C   0  0  0  0  0  0  0  0  0  0  0  0
   25.0370  -15.4426  -18.1206 C   0  0  0  0  0  0  0  0  0  0  0  0
   23.7987  -15.9203  -18.4902 C   0  0  0  0  0  0  0  0  0  0  0  0
   23.1069  -16.6910  -17.5869 C   0  0  0  0  0  0  0  0  0  0  0  0
   23.6109  -16.9953  -16.3379 C   0  0  0  0  0  0  0  0  0  0  0  0
   21.5472  -20.9070  -15.2302 C   0  0  0  0  0  0  0  0  0  0  0  0
   20.3472  -20.9729  -15.6804 O   0  0  0  0  0  0  0  0  0  0  0  0
   22.3378  -21.9925  -15.5558 O   0  0  0  0  0  0  0  0  0  0  0  0
  2  1  1  0
  3  2  1  0
  4  3  1  0
  5  4  1  0
  5  6  1  6
  7  5  1  0
  8  7  2  0
  9 10  1  0
 11 13  1  0
 11 10  1  0
 11 12  1  1
 13 14  1  6
 14  7  1  0
 15 13  1  0
 15 17  1  0
 16 15  2  0
 18 17  1  0
 18 29  1  0
 18 19  1  6
 20 19  1  0
 20 21  2  0
 22 21  1  0
 23 22  1  0
 24 23  2  0
 25 24  1  0
 26 25  2  0
 26 27  1  0
 27 28  2  0
 28 23  1  0
 28 20  1  0
 29 31  1  0
 30 29  2  0
M  END
$$$$
