MIW.pdb
     RDKit          3D

 31 32  0  0  1  0  0  0  0  0999 V2000
   24.5107  -21.8102  -19.5711 C   0  0  0  0  0  0  0  0  0  0  0  0
   25.3920  -23.2295  -20.2896 S   0  0  0  0  0  0  0  0  0  0  0  0
   27.1609  -23.0729  -19.8594 C   0  0  0  0  0  0  0  0  0  0  0  0
   27.2670  -22.8979  -18.3609 C   0  0  0  0  0  0  0  0  0  0  0  0
   28.3801  -21.9797  -17.9842 C   0  0  2  0  0  0  0  0  0  0  0  0
   29.6799  -22.4838  -18.3521 N   0  0  0  0  0  0  0  0  0  0  0  0
   28.3630  -21.6194  -16.5180 C   0  0  0  0  0  0  0  0  0  0  0  0
   29.1136  -22.1950  -15.7208 O   0  0  0  0  0  0  0  0  0  0  0  0
   26.3116  -16.3904  -14.4445 C   0  0  0  0  0  0  0  0  0  0  0  0
   26.1475  -17.8797  -14.7571 C   0  0  0  0  0  0  0  0  0  0  0  0
   27.4367  -18.6186  -14.5036 C   0  0  2  0  0  0  0  0  0  0  0  0
   28.5115  -17.9695  -15.3410 C   0  0  0  0  0  0  0  0  0  0  0  0
   27.3623  -20.1010  -14.7176 C   0  0  2  0  0  0  0  0  0  0  0  0
   27.4942  -20.6216  -16.0203 N   0  0  0  0  0  0  0  0  0  0  0  0
   26.4143  -20.8204  -13.8460 C   0  0  0  0  0  0  0  0  0  0  0  0
   25.4086  -21.4417  -14.2777 O   0  0  0  0  0  0  0  0  0  0  0  0
   26.5977  -20.8470  -12.4351 N   0  0  0  0  0  0  0  0  0  0  0  0
   25.7112  -21.6335  -11.5614 C   0  0  1  0  0  0  0  0  0  0  0  0
   26.4363  -22.0753  -10.3473 C   0  0  0  0  0  0  0  0  0  0  0  0
   26.4525  -21.0561   -9.2936 C   0  0  0  0  0  0  0  0  0  0  0  0
   25.4669  -20.1400   -8.9531 C   0  0  0  0  0  0  0  0  0  0  0  0
   25.8626  -19.3385   -7.9542 N   0  0  0  0  0  0  0  0  0  0  0  0
   27.1216  -19.7289   -7.6304 C   0  0  0  0  0  0  0  0  0  0  0  0
   27.9661  -19.2385   -6.6558 C   0  0  0  0  0  0  0  0  0  0  0  0
   29.2046  -19.7962   -6.4761 C   0  0  0  0  0  0  0  0  0  0  0  0
   29.6261  -20.8483   -7.2595 C   0  0  0  0  0  0  0  0  0  0  0  0
   28.7689  -21.3200   -8.2246 C   0  0  0  0  0  0  0  0  0  0  0  0
   27.5158  -20.7767   -8.4278 C   0  0  0  0  0  0  0  0  0  0  0  0
   24.4583  -20.9168  -11.3293 C   0  0  0  0  0  0  0  0  0  0  0  0
   24.4110  -19.6526  -11.5450 O   0  0  0  0  0  0  0  0  0  0  0  0
   23.2674  -21.4647  -10.8926 O   0  0  0  0  0  0  0  0  0  0  0  0
  2  1  1  0
  3  2  1  0
  4  3  1  0
  5  4  1  0
  5  6  1  1
  7  5  1  0
  8  7  2  0
  9 10  1  0
 11 13  1  0
 11 10  1  0
 11 12  1  6
 13 14  1  6
 14  7  1  0
 15 13  1  0
 15 17  1  0
 16 15  2  0
 18 17  1  0
 18 29  1  0
 18 19  1  1
 20 19  1  0
 20 21  2  0
 22 21  1  0
 23 22  1  0
 24 23  2  0
 25 24  1  0
 26 25  2  0
 26 27  1  0
 27 28  2  0
 28 23  1  0
 28 20  1  0
 29 31  1  0
 30 29  2  0
M  END
$$$$
