MIW.pdb
     RDKit          3D

 31 32  0  0  1  0  0  0  0  0999 V2000
   14.2451  -15.2408  -19.8306 C   0  0  0  0  0  0  0  0  0  0  0  0
   14.9701  -14.0686  -18.6441 S   0  0  0  0  0  0  0  0  0  0  0  0
   16.7860  -14.2659  -18.6927 C   0  0  0  0  0  0  0  0  0  0  0  0
   17.4003  -13.1798  -17.8380 C   0  0  0  0  0  0  0  0  0  0  0  0
   18.8833  -13.3103  -17.7515 C   0  0  2  0  0  0  0  0  0  0  0  0
   19.3094  -14.5528  -17.1568 N   0  0  0  0  0  0  0  0  0  0  0  0
   19.5264  -12.1480  -17.0334 C   0  0  0  0  0  0  0  0  0  0  0  0
   19.7290  -12.1973  -15.8142 O   0  0  0  0  0  0  0  0  0  0  0  0
   23.3951  -10.0013  -19.6001 C   0  0  0  0  0  0  0  0  0  0  0  0
   22.7741  -10.2661  -18.2264 C   0  0  0  0  0  0  0  0  0  0  0  0
   21.7141   -9.2396  -17.9185 C   0  0  2  0  0  0  0  0  0  0  0  0
   22.3607   -8.1364  -17.1167 C   0  0  0  0  0  0  0  0  0  0  0  0
   20.4866   -9.7862  -17.2525 C   0  0  2  0  0  0  0  0  0  0  0  0
   19.9109  -10.9800  -17.7307 N   0  0  0  0  0  0  0  0  0  0  0  0
   19.5276   -8.7771  -16.7646 C   0  0  0  0  0  0  0  0  0  0  0  0
   18.4881   -8.4468  -17.3922 O   0  0  0  0  0  0  0  0  0  0  0  0
   19.7385   -8.1105  -15.5253 N   0  0  0  0  0  0  0  0  0  0  0  0
   18.7177   -7.2183  -14.9511 C   0  0  1  0  0  0  0  0  0  0  0  0
   17.4665   -7.9649  -14.6822 C   0  0  0  0  0  0  0  0  0  0  0  0
   17.4817   -8.6497  -13.3860 C   0  0  0  0  0  0  0  0  0  0  0  0
   17.8243   -8.1457  -12.1390 C   0  0  0  0  0  0  0  0  0  0  0  0
   17.7526   -9.0890  -11.1893 N   0  0  0  0  0  0  0  0  0  0  0  0
   17.3582  -10.2275  -11.8142 C   0  0  0  0  0  0  0  0  0  0  0  0
   17.1175  -11.4782  -11.2837 C   0  0  0  0  0  0  0  0  0  0  0  0
   16.6992  -12.4996  -12.0955 C   0  0  0  0  0  0  0  0  0  0  0  0
   16.5130  -12.2980  -13.4456 C   0  0  0  0  0  0  0  0  0  0  0  0
   16.7595  -11.0447  -13.9525 C   0  0  0  0  0  0  0  0  0  0  0  0
   17.1823   -9.9975  -13.1579 C   0  0  0  0  0  0  0  0  0  0  0  0
   19.2699   -6.4734  -13.8209 C   0  0  0  0  0  0  0  0  0  0  0  0
   20.3988   -6.8315  -13.3266 O   0  0  0  0  0  0  0  0  0  0  0  0
   18.6982   -5.3793  -13.2003 O   0  0  0  0  0  0  0  0  0  0  0  0
  2  1  1  0
  3  2  1  0
  4  3  1  0
  5  4  1  0
  5  6  1  1
  7  5  1  0
  8  7  2  0
  9 10  1  0
 11 13  1  0
 11 10  1  0
 11 12  1  1
 13 14  1  6
 14  7  1  0
 15 13  1  0
 15 17  1  0
 16 15  2  0
 18 17  1  0
 18 29  1  0
 18 19  1  1
 20 19  1  0
 20 21  2  0
 22 21  1  0
 23 22  1  0
 24 23  2  0
 25 24  1  0
 26 25  2  0
 26 27  1  0
 27 28  2  0
 28 23  1  0
 28 20  1  0
 29 31  1  0
 30 29  2  0
M  END
$$$$
