MIW.pdb
     RDKit          3D

 31 32  0  0  1  0  0  0  0  0999 V2000
   26.4479  -15.9969  -15.5693 C   0  0  0  0  0  0  0  0  0  0  0  0
   27.7745  -16.5797  -16.6682 S   0  0  0  0  0  0  0  0  0  0  0  0
   28.3591  -18.1936  -16.0419 C   0  0  0  0  0  0  0  0  0  0  0  0
   27.2130  -18.8584  -15.3126 C   0  0  0  0  0  0  0  0  0  0  0  0
   27.6454  -20.0995  -14.6080 C   0  0  2  0  0  0  0  0  0  0  0  0
   28.2760  -21.0572  -15.4823 N   0  0  0  0  0  0  0  0  0  0  0  0
   26.5180  -20.7581  -13.8497 C   0  0  0  0  0  0  0  0  0  0  0  0
   25.9355  -21.7428  -14.3200 O   0  0  0  0  0  0  0  0  0  0  0  0
   26.6135  -21.0619   -8.3027 C   0  0  0  0  0  0  0  0  0  0  0  0
   26.4451  -21.2947   -9.8061 C   0  0  0  0  0  0  0  0  0  0  0  0
   25.1599  -20.6778  -10.2961 C   0  0  2  0  0  0  0  0  0  0  0  0
   24.0178  -21.3904   -9.6136 C   0  0  0  0  0  0  0  0  0  0  0  0
   25.0067  -20.6497  -11.7876 C   0  0  2  0  0  0  0  0  0  0  0  0
   26.1003  -20.2698  -12.5907 N   0  0  0  0  0  0  0  0  0  0  0  0
   23.6848  -20.2190  -12.2809 C   0  0  0  0  0  0  0  0  0  0  0  0
   23.2078  -19.0724  -12.0774 O   0  0  0  0  0  0  0  0  0  0  0  0
   22.8631  -21.1051  -13.0322 N   0  0  0  0  0  0  0  0  0  0  0  0
   21.7964  -20.6006  -13.9127 C   0  0  1  0  0  0  0  0  0  0  0  0
   22.3324  -19.5863  -14.8502 C   0  0  0  0  0  0  0  0  0  0  0  0
   21.2965  -19.0028  -15.7081 C   0  0  0  0  0  0  0  0  0  0  0  0
   20.2937  -18.1034  -15.3734 C   0  0  0  0  0  0  0  0  0  0  0  0
   19.5079  -17.8279  -16.4239 N   0  0  0  0  0  0  0  0  0  0  0  0
   19.9962  -18.5515  -17.4633 C   0  0  0  0  0  0  0  0  0  0  0  0
   19.5586  -18.6100  -18.7704 C   0  0  0  0  0  0  0  0  0  0  0  0
   20.2149  -19.3971  -19.6797 C   0  0  0  0  0  0  0  0  0  0  0  0
   21.3148  -20.1390  -19.3082 C   0  0  0  0  0  0  0  0  0  0  0  0
   21.7324  -20.0662  -18.0010 C   0  0  0  0  0  0  0  0  0  0  0  0
   21.0899  -19.2818  -17.0637 C   0  0  0  0  0  0  0  0  0  0  0  0
   21.0723  -21.7135  -14.5246 C   0  0  0  0  0  0  0  0  0  0  0  0
   21.7346  -22.6980  -15.0136 O   0  0  0  0  0  0  0  0  0  0  0  0
   19.7008  -21.8380  -14.6374 O   0  0  0  0  0  0  0  0  0  0  0  0
  2  1  1  0
  3  2  1  0
  4  3  1  0
  5  4  1  0
  5  6  1  6
  7  5  1  0
  8  7  2  0
  9 10  1  0
 11 13  1  0
 11 10  1  0
 11 12  1  1
 13 14  1  6
 14  7  1  0
 15 13  1  0
 15 17  1  0
 16 15  2  0
 18 17  1  0
 18 29  1  0
 18 19  1  6
 20 19  1  0
 20 21  2  0
 22 21  1  0
 23 22  1  0
 24 23  2  0
 25 24  1  0
 26 25  2  0
 26 27  1  0
 27 28  2  0
 28 23  1  0
 28 20  1  0
 29 31  1  0
 30 29  2  0
M  END
$$$$
