MIW.pdb
     RDKit          3D

 31 32  0  0  1  0  0  0  0  0999 V2000
   27.1831  -16.6733  -16.6908 C   0  0  0  0  0  0  0  0  0  0  0  0
   28.5872  -17.7512  -17.1079 S   0  0  0  0  0  0  0  0  0  0  0  0
   27.9223  -19.2865  -17.8425 C   0  0  0  0  0  0  0  0  0  0  0  0
   26.8858  -19.8502  -16.8964 C   0  0  0  0  0  0  0  0  0  0  0  0
   27.5098  -20.5944  -15.7647 C   0  0  2  0  0  0  0  0  0  0  0  0
   28.3160  -21.7095  -16.1957 N   0  0  0  0  0  0  0  0  0  0  0  0
   26.4960  -21.0551  -14.7450 C   0  0  0  0  0  0  0  0  0  0  0  0
   25.8724  -22.1103  -14.9114 O   0  0  0  0  0  0  0  0  0  0  0  0
   27.7137  -21.0348   -9.5087 C   0  0  0  0  0  0  0  0  0  0  0  0
   27.1861  -21.2474  -10.9297 C   0  0  0  0  0  0  0  0  0  0  0  0
   25.8580  -20.5576  -11.1096 C   0  0  2  0  0  0  0  0  0  0  0  0
   24.8803  -21.1824  -10.1442 C   0  0  0  0  0  0  0  0  0  0  0  0
   25.3429  -20.5465  -12.5180 C   0  0  2  0  0  0  0  0  0  0  0  0
   26.2337  -20.2975  -13.5808 N   0  0  0  0  0  0  0  0  0  0  0  0
   23.9861  -19.9944  -12.6922 C   0  0  0  0  0  0  0  0  0  0  0  0
   23.6915  -18.7921  -12.4653 O   0  0  0  0  0  0  0  0  0  0  0  0
   22.9155  -20.8188  -13.1384 N   0  0  0  0  0  0  0  0  0  0  0  0
   21.5914  -20.2546  -13.4490 C   0  0  1  0  0  0  0  0  0  0  0  0
   21.7218  -19.0929  -14.3593 C   0  0  0  0  0  0  0  0  0  0  0  0
   21.3646  -19.4144  -15.7444 C   0  0  0  0  0  0  0  0  0  0  0  0
   20.2444  -20.0801  -16.2225 C   0  0  0  0  0  0  0  0  0  0  0  0
   20.2859  -20.2207  -17.5549 N   0  0  0  0  0  0  0  0  0  0  0  0
   21.4441  -19.6417  -17.9618 C   0  0  0  0  0  0  0  0  0  0  0  0
   21.9512  -19.5017  -19.2373 C   0  0  0  0  0  0  0  0  0  0  0  0
   23.1432  -18.8560  -19.4354 C   0  0  0  0  0  0  0  0  0  0  0  0
   23.8519  -18.3391  -18.3729 C   0  0  0  0  0  0  0  0  0  0  0  0
   23.3284  -18.4909  -17.1114 C   0  0  0  0  0  0  0  0  0  0  0  0
   22.1299  -19.1374  -16.8827 C   0  0  0  0  0  0  0  0  0  0  0  0
   20.6792  -21.3089  -13.8889 C   0  0  0  0  0  0  0  0  0  0  0  0
   21.1634  -22.3910  -14.3804 O   0  0  0  0  0  0  0  0  0  0  0  0
   19.2991  -21.2784  -13.8293 O   0  0  0  0  0  0  0  0  0  0  0  0
  2  1  1  0
  3  2  1  0
  4  3  1  0
  5  4  1  0
  5  6  1  6
  7  5  1  0
  8  7  2  0
  9 10  1  0
 11 13  1  0
 11 10  1  0
 11 12  1  1
 13 14  1  6
 14  7  1  0
 15 13  1  0
 15 17  1  0
 16 15  2  0
 18 17  1  0
 18 29  1  0
 18 19  1  6
 20 19  1  0
 20 21  2  0
 22 21  1  0
 23 22  1  0
 24 23  2  0
 25 24  1  0
 26 25  2  0
 26 27  1  0
 27 28  2  0
 28 23  1  0
 28 20  1  0
 29 31  1  0
 30 29  2  0
M  END
$$$$
