MIW.pdb
     RDKit          3D

 31 32  0  0  1  0  0  0  0  0999 V2000
   26.5135  -16.4358  -16.2202 C   0  0  0  0  0  0  0  0  0  0  0  0
   27.7625  -17.1491  -17.3331 S   0  0  0  0  0  0  0  0  0  0  0  0
   28.3063  -18.7431  -16.6246 C   0  0  0  0  0  0  0  0  0  0  0  0
   27.1471  -19.3358  -15.8550 C   0  0  0  0  0  0  0  0  0  0  0  0
   27.5448  -20.5615  -15.1043 C   0  0  2  0  0  0  0  0  0  0  0  0
   27.9838  -21.6341  -15.9621 N   0  0  0  0  0  0  0  0  0  0  0  0
   26.4569  -21.0533  -14.1799 C   0  0  0  0  0  0  0  0  0  0  0  0
   25.7479  -22.0151  -14.4997 O   0  0  0  0  0  0  0  0  0  0  0  0
   27.1564  -21.1876   -8.7071 C   0  0  0  0  0  0  0  0  0  0  0  0
   26.7482  -21.4619  -10.1565 C   0  0  0  0  0  0  0  0  0  0  0  0
   25.5318  -20.6519  -10.5258 C   0  0  2  0  0  0  0  0  0  0  0  0
   24.3825  -21.1329   -9.6739 C   0  0  0  0  0  0  0  0  0  0  0  0
   25.1987  -20.6519  -11.9880 C   0  0  2  0  0  0  0  0  0  0  0  0
   26.2207  -20.4314  -12.9326 N   0  0  0  0  0  0  0  0  0  0  0  0
   23.8846  -20.0808  -12.3387 C   0  0  0  0  0  0  0  0  0  0  0  0
   23.6687  -18.8449  -12.4371 O   0  0  0  0  0  0  0  0  0  0  0  0
   22.7668  -20.9248  -12.5899 N   0  0  0  0  0  0  0  0  0  0  0  0
   21.4615  -20.3707  -12.9864 C   0  0  1  0  0  0  0  0  0  0  0  0
   21.6090  -19.4851  -14.1649 C   0  0  0  0  0  0  0  0  0  0  0  0
   22.0961  -20.1955  -15.3513 C   0  0  0  0  0  0  0  0  0  0  0  0
   21.8990  -21.5205  -15.7147 C   0  0  0  0  0  0  0  0  0  0  0  0
   22.5360  -21.8186  -16.8558 N   0  0  0  0  0  0  0  0  0  0  0  0
   23.1598  -20.6798  -17.2511 C   0  0  0  0  0  0  0  0  0  0  0  0
   23.9322  -20.4489  -18.3707 C   0  0  0  0  0  0  0  0  0  0  0  0
   24.4576  -19.2041  -18.5977 C   0  0  0  0  0  0  0  0  0  0  0  0
   24.2262  -18.1685  -17.7190 C   0  0  0  0  0  0  0  0  0  0  0  0
   23.4548  -18.4214  -16.6101 C   0  0  0  0  0  0  0  0  0  0  0  0
   22.9133  -19.6660  -16.3562 C   0  0  0  0  0  0  0  0  0  0  0  0
   20.4720  -21.4394  -13.1129 C   0  0  0  0  0  0  0  0  0  0  0  0
   19.2367  -21.1327  -13.2770 O   0  0  0  0  0  0  0  0  0  0  0  0
   20.7219  -22.7979  -13.0815 O   0  0  0  0  0  0  0  0  0  0  0  0
  2  1  1  0
  3  2  1  0
  4  3  1  0
  5  4  1  0
  5  6  1  6
  7  5  1  0
  8  7  2  0
  9 10  1  0
 11 13  1  0
 11 10  1  0
 11 12  1  1
 13 14  1  6
 14  7  1  0
 15 13  1  0
 15 17  1  0
 16 15  2  0
 18 17  1  0
 18 29  1  0
 18 19  1  6
 20 19  1  0
 20 21  2  0
 22 21  1  0
 23 22  1  0
 24 23  2  0
 25 24  1  0
 26 25  2  0
 26 27  1  0
 27 28  2  0
 28 23  1  0
 28 20  1  0
 29 31  1  0
 30 29  2  0
M  END
$$$$
