MIW.pdb
     RDKit          3D

 31 32  0  0  1  0  0  0  0  0999 V2000
   27.8904  -25.4557  -26.0683 C   0  0  0  0  0  0  0  0  0  0  0  0
   27.8758  -26.2986  -24.4569 S   0  0  0  0  0  0  0  0  0  0  0  0
   29.1046  -27.6497  -24.5148 C   0  0  0  0  0  0  0  0  0  0  0  0
   29.0407  -28.4003  -23.2034 C   0  0  0  0  0  0  0  0  0  0  0  0
   30.2629  -28.1838  -22.3768 C   0  0  2  0  0  0  0  0  0  0  0  0
   31.3977  -28.9480  -22.8319 N   0  0  0  0  0  0  0  0  0  0  0  0
   30.0228  -28.4422  -20.9086 C   0  0  0  0  0  0  0  0  0  0  0  0
   30.1196  -29.5861  -20.4481 O   0  0  0  0  0  0  0  0  0  0  0  0
   31.1154  -24.5334  -16.9126 C   0  0  0  0  0  0  0  0  0  0  0  0
   30.9468  -25.7273  -17.8554 C   0  0  0  0  0  0  0  0  0  0  0  0
   29.5384  -26.2602  -17.7873 C   0  0  2  0  0  0  0  0  0  0  0  0
   29.2275  -26.5556  -16.3402 C   0  0  0  0  0  0  0  0  0  0  0  0
   29.2682  -27.4337  -18.6812 C   0  0  2  0  0  0  0  0  0  0  0  0
   29.6826  -27.3908  -20.0272 N   0  0  0  0  0  0  0  0  0  0  0  0
   27.9937  -28.1355  -18.4378 C   0  0  0  0  0  0  0  0  0  0  0  0
   26.8936  -27.7654  -18.9240 O   0  0  0  0  0  0  0  0  0  0  0  0
   27.9467  -29.2979  -17.6184 N   0  0  0  0  0  0  0  0  0  0  0  0
   26.6913  -30.0381  -17.4089 C   0  0  1  0  0  0  0  0  0  0  0  0
   25.9674  -30.2072  -18.6904 C   0  0  0  0  0  0  0  0  0  0  0  0
   24.6603  -30.8499  -18.5234 C   0  0  0  0  0  0  0  0  0  0  0  0
   23.5252  -30.3628  -17.8902 C   0  0  0  0  0  0  0  0  0  0  0  0
   22.5287  -31.2592  -17.9065 N   0  0  0  0  0  0  0  0  0  0  0  0
   23.0092  -32.3491  -18.5573 C   0  0  0  0  0  0  0  0  0  0  0  0
   22.3769  -33.5382  -18.8571 C   0  0  0  0  0  0  0  0  0  0  0  0
   23.0428  -34.5142  -19.5507 C   0  0  0  0  0  0  0  0  0  0  0  0
   24.3457  -34.3276  -19.9580 C   0  0  0  0  0  0  0  0  0  0  0  0
   24.9559  -33.1360  -19.6478 C   0  0  0  0  0  0  0  0  0  0  0  0
   24.3091  -32.1356  -18.9497 C   0  0  0  0  0  0  0  0  0  0  0  0
   26.9430  -31.2640  -16.6532 C   0  0  0  0  0  0  0  0  0  0  0  0
   25.9510  -32.0005  -16.3062 O   0  0  0  0  0  0  0  0  0  0  0  0
   28.1759  -31.7463  -16.2575 O   0  0  0  0  0  0  0  0  0  0  0  0
  2  1  1  0
  3  2  1  0
  4  3  1  0
  5  4  1  0
  5  6  1  6
  7  5  1  0
  8  7  2  0
  9 10  1  0
 11 13  1  0
 11 10  1  0
 11 12  1  1
 13 14  1  6
 14  7  1  0
 15 13  1  0
 15 17  1  0
 16 15  2  0
 18 17  1  0
 18 29  1  0
 18 19  1  6
 20 19  1  0
 20 21  2  0
 22 21  1  0
 23 22  1  0
 24 23  2  0
 25 24  1  0
 26 25  2  0
 26 27  1  0
 27 28  2  0
 28 23  1  0
 28 20  1  0
 29 31  1  0
 30 29  2  0
M  END
$$$$
