MIW.pdb
     RDKit          3D

 31 32  0  0  1  0  0  0  0  0999 V2000
   17.1275  -23.0697  -12.5512 C   0  0  0  0  0  0  0  0  0  0  0  0
   16.4799  -23.9394  -11.0911 S   0  0  0  0  0  0  0  0  0  0  0  0
   17.8084  -25.0086  -10.4349 C   0  0  0  0  0  0  0  0  0  0  0  0
   17.2452  -25.8016   -9.2767 C   0  0  0  0  0  0  0  0  0  0  0  0
   18.2834  -26.6516   -8.6259 C   0  0  2  0  0  0  0  0  0  0  0  0
   18.7840  -27.6941   -9.4871 N   0  0  0  0  0  0  0  0  0  0  0  0
   17.8115  -27.2445   -7.3198 C   0  0  0  0  0  0  0  0  0  0  0  0
   17.2029  -26.5489   -6.4977 O   0  0  0  0  0  0  0  0  0  0  0  0
   17.0957  -32.2747   -8.0136 C   0  0  0  0  0  0  0  0  0  0  0  0
   16.4738  -31.2410   -7.0716 C   0  0  0  0  0  0  0  0  0  0  0  0
   17.4615  -30.8323   -6.0087 C   0  0  2  0  0  0  0  0  0  0  0  0
   17.0326  -31.4728   -4.7111 C   0  0  0  0  0  0  0  0  0  0  0  0
   17.6634  -29.3522   -5.8763 C   0  0  2  0  0  0  0  0  0  0  0  0
   18.0515  -28.6011   -7.0035 N   0  0  0  0  0  0  0  0  0  0  0  0
   18.2370  -28.9030   -4.5936 C   0  0  0  0  0  0  0  0  0  0  0  0
   19.4696  -28.7318   -4.4064 O   0  0  0  0  0  0  0  0  0  0  0  0
   17.3995  -28.6340   -3.4751 N   0  0  0  0  0  0  0  0  0  0  0  0
   17.9520  -28.1287   -2.2074 C   0  0  1  0  0  0  0  0  0  0  0  0
   18.3384  -26.7045   -2.3397 C   0  0  0  0  0  0  0  0  0  0  0  0
   17.1822  -25.8125   -2.4696 C   0  0  0  0  0  0  0  0  0  0  0  0
   16.1553  -25.5809   -1.5650 C   0  0  0  0  0  0  0  0  0  0  0  0
   15.2503  -24.7224   -2.0558 N   0  0  0  0  0  0  0  0  0  0  0  0
   15.6833  -24.3826   -3.2965 C   0  0  0  0  0  0  0  0  0  0  0  0
   15.1225  -23.5159   -4.2119 C   0  0  0  0  0  0  0  0  0  0  0  0
   15.7398  -23.2934   -5.4146 C   0  0  0  0  0  0  0  0  0  0  0  0
   16.9224  -23.9263   -5.7295 C   0  0  0  0  0  0  0  0  0  0  0  0
   17.4625  -24.7859   -4.8032 C   0  0  0  0  0  0  0  0  0  0  0  0
   16.8617  -25.0291   -3.5840 C   0  0  0  0  0  0  0  0  0  0  0  0
   17.0532  -28.4442   -1.0984 C   0  0  0  0  0  0  0  0  0  0  0  0
   15.8572  -28.8336   -1.3532 O   0  0  0  0  0  0  0  0  0  0  0  0
   17.3548  -28.3755    0.2482 O   0  0  0  0  0  0  0  0  0  0  0  0
  2  1  1  0
  3  2  1  0
  4  3  1  0
  5  4  1  0
  5  6  1  6
  7  5  1  0
  8  7  2  0
  9 10  1  0
 11 13  1  0
 11 10  1  0
 11 12  1  1
 13 14  1  6
 14  7  1  0
 15 13  1  0
 15 17  1  0
 16 15  2  0
 18 17  1  0
 18 29  1  0
 18 19  1  6
 20 19  1  0
 20 21  2  0
 22 21  1  0
 23 22  1  0
 24 23  2  0
 25 24  1  0
 26 25  2  0
 26 27  1  0
 27 28  2  0
 28 23  1  0
 28 20  1  0
 29 31  1  0
 30 29  2  0
M  END
$$$$
