MIW.pdb
     RDKit          3D

 31 32  0  0  1  0  0  0  0  0999 V2000
   19.6272  -18.3551  -13.2504 C   0  0  0  0  0  0  0  0  0  0  0  0
   20.1653  -16.7056  -13.7953 S   0  0  0  0  0  0  0  0  0  0  0  0
   21.1455  -16.9073  -15.3240 C   0  0  0  0  0  0  0  0  0  0  0  0
   22.3432  -17.7737  -15.0041 C   0  0  0  0  0  0  0  0  0  0  0  0
   23.2381  -17.9459  -16.1845 C   0  0  2  0  0  0  0  0  0  0  0  0
   22.5423  -18.4051  -17.3611 N   0  0  0  0  0  0  0  0  0  0  0  0
   24.4124  -18.8496  -15.8945 C   0  0  0  0  0  0  0  0  0  0  0  0
   24.2587  -20.0746  -15.8186 O   0  0  0  0  0  0  0  0  0  0  0  0
   29.5184  -18.0294  -17.9697 C   0  0  0  0  0  0  0  0  0  0  0  0
   28.1371  -18.3893  -17.4171 C   0  0  0  0  0  0  0  0  0  0  0  0
   28.1998  -18.5867  -15.9240 C   0  0  2  0  0  0  0  0  0  0  0  0
   29.2897  -19.5907  -15.6377 C   0  0  0  0  0  0  0  0  0  0  0  0
   26.8954  -18.9612  -15.2858 C   0  0  2  0  0  0  0  0  0  0  0  0
   25.7102  -18.3233  -15.7027 N   0  0  0  0  0  0  0  0  0  0  0  0
   26.9630  -19.2846  -13.8481 C   0  0  0  0  0  0  0  0  0  0  0  0
   27.5072  -18.5381  -12.9935 O   0  0  0  0  0  0  0  0  0  0  0  0
   26.3995  -20.4905  -13.3451 N   0  0  0  0  0  0  0  0  0  0  0  0
   26.4071  -20.7982  -11.9052 C   0  0  1  0  0  0  0  0  0  0  0  0
   25.8670  -19.6588  -11.1273 C   0  0  0  0  0  0  0  0  0  0  0  0
   25.7082  -19.9685   -9.7031 C   0  0  0  0  0  0  0  0  0  0  0  0
   24.5837  -20.4293   -9.0325 C   0  0  0  0  0  0  0  0  0  0  0  0
   24.8127  -20.5602   -7.7182 N   0  0  0  0  0  0  0  0  0  0  0  0
   26.1011  -20.1831   -7.5180 C   0  0  0  0  0  0  0  0  0  0  0  0
   26.8318  -20.1521   -6.3480 C   0  0  0  0  0  0  0  0  0  0  0  0
   28.1428  -19.7549   -6.3675 C   0  0  0  0  0  0  0  0  0  0  0  0
   28.7507  -19.3819   -7.5464 C   0  0  0  0  0  0  0  0  0  0  0  0
   28.0037  -19.4196   -8.6993 C   0  0  0  0  0  0  0  0  0  0  0  0
   26.6808  -19.8152   -8.7087 C   0  0  0  0  0  0  0  0  0  0  0  0
   25.7766  -22.0938  -11.6580 C   0  0  0  0  0  0  0  0  0  0  0  0
   26.3515  -22.9303  -10.8728 O   0  0  0  0  0  0  0  0  0  0  0  0
   24.5809  -22.5396  -12.1879 O   0  0  0  0  0  0  0  0  0  0  0  0
  2  1  1  0
  3  2  1  0
  4  3  1  0
  5  4  1  0
  5  6  1  6
  7  5  1  0
  8  7  2  0
  9 10  1  0
 11 13  1  0
 11 10  1  0
 11 12  1  6
 13 14  1  1
 14  7  1  0
 15 13  1  0
 15 17  1  0
 16 15  2  0
 18 17  1  0
 18 29  1  0
 18 19  1  1
 20 19  1  0
 20 21  2  0
 22 21  1  0
 23 22  1  0
 24 23  2  0
 25 24  1  0
 26 25  2  0
 26 27  1  0
 27 28  2  0
 28 23  1  0
 28 20  1  0
 29 31  1  0
 30 29  2  0
M  END
$$$$
