MIW.pdb
     RDKit          3D

 31 32  0  0  1  0  0  0  0  0999 V2000
   17.7553  -16.8172  -12.7968 C   0  0  0  0  0  0  0  0  0  0  0  0
   19.1849  -17.6531  -12.0453 S   0  0  0  0  0  0  0  0  0  0  0  0
   19.8995  -18.7814  -13.2923 C   0  0  0  0  0  0  0  0  0  0  0  0
   21.0217  -19.5558  -12.6379 C   0  0  0  0  0  0  0  0  0  0  0  0
   21.6925  -20.4817  -13.5953 C   0  0  2  0  0  0  0  0  0  0  0  0
   20.8200  -21.5198  -14.0856 N   0  0  0  0  0  0  0  0  0  0  0  0
   22.9507  -21.0922  -13.0260 C   0  0  0  0  0  0  0  0  0  0  0  0
   22.9019  -22.1492  -12.3853 O   0  0  0  0  0  0  0  0  0  0  0  0
   26.9914  -22.5933  -15.9386 C   0  0  0  0  0  0  0  0  0  0  0  0
   25.9226  -22.2592  -14.8950 C   0  0  0  0  0  0  0  0  0  0  0  0
   26.4833  -21.3413  -13.8389 C   0  0  2  0  0  0  0  0  0  0  0  0
   27.6853  -22.0207  -13.2295 C   0  0  0  0  0  0  0  0  0  0  0  0
   25.4925  -20.8964  -12.8048 C   0  0  2  0  0  0  0  0  0  0  0  0
   24.2097  -20.4758  -13.2082 N   0  0  0  0  0  0  0  0  0  0  0  0
   26.0607  -20.1672  -11.6552 C   0  0  0  0  0  0  0  0  0  0  0  0
   26.3515  -18.9432  -11.6845 O   0  0  0  0  0  0  0  0  0  0  0  0
   26.3136  -20.8325  -10.4230 N   0  0  0  0  0  0  0  0  0  0  0  0
   27.1348  -20.2112   -9.3706 C   0  0  1  0  0  0  0  0  0  0  0  0
   26.4000  -20.1866   -8.0843 C   0  0  0  0  0  0  0  0  0  0  0  0
   27.1196  -19.4606   -7.0334 C   0  0  0  0  0  0  0  0  0  0  0  0
   27.3218  -18.0938   -6.9015 C   0  0  0  0  0  0  0  0  0  0  0  0
   28.0663  -17.8073   -5.8243 N   0  0  0  0  0  0  0  0  0  0  0  0
   28.3587  -18.9960   -5.2379 C   0  0  0  0  0  0  0  0  0  0  0  0
   29.0823  -19.2512   -4.0912 C   0  0  0  0  0  0  0  0  0  0  0  0
   29.2432  -20.5393   -3.6532 C   0  0  0  0  0  0  0  0  0  0  0  0
   28.6899  -21.5950   -4.3444 C   0  0  0  0  0  0  0  0  0  0  0  0
   27.9740  -21.3175   -5.4841 C   0  0  0  0  0  0  0  0  0  0  0  0
   27.7965  -20.0293   -5.9487 C   0  0  0  0  0  0  0  0  0  0  0  0
   28.4626  -20.8217   -9.3338 C   0  0  0  0  0  0  0  0  0  0  0  0
   28.6074  -22.0306   -9.7396 O   0  0  0  0  0  0  0  0  0  0  0  0
   29.6302  -20.2228   -8.9011 O   0  0  0  0  0  0  0  0  0  0  0  0
  2  1  1  0
  3  2  1  0
  4  3  1  0
  5  4  1  0
  5  6  1  1
  7  5  1  0
  8  7  2  0
  9 10  1  0
 11 13  1  0
 11 10  1  0
 11 12  1  1
 13 14  1  6
 14  7  1  0
 15 13  1  0
 15 17  1  0
 16 15  2  0
 18 17  1  0
 18 29  1  0
 18 19  1  1
 20 19  1  0
 20 21  2  0
 22 21  1  0
 23 22  1  0
 24 23  2  0
 25 24  1  0
 26 25  2  0
 26 27  1  0
 27 28  2  0
 28 23  1  0
 28 20  1  0
 29 31  1  0
 30 29  2  0
M  END
$$$$
