YYY.pdb
     RDKit          3D

 37 39  0  0  1  0  0  0  0  0999 V2000
    5.0872  -23.7587   29.8088 O   0  0  0  0  0  0  0  0  0  0  0  0
    5.6769  -22.8558   28.9067 C   0  0  0  0  0  0  0  0  0  0  0  0
    7.0557  -22.8031   28.8320 C   0  0  0  0  0  0  0  0  0  0  0  0
    7.6595  -21.9223   27.9516 C   0  0  0  0  0  0  0  0  0  0  0  0
    6.9163  -21.0859   27.1371 C   0  0  0  0  0  0  0  0  0  0  0  0
    7.5578  -20.1520   26.2051 C   0  0  0  0  0  0  0  0  0  0  0  0
    7.0303  -20.3412   24.8035 C   0  0  2  0  0  0  0  0  0  0  0  0
    7.2456  -21.6878   24.3199 N   0  0  0  0  0  0  0  0  0  0  0  0
    7.5892  -19.3265   23.8755 C   0  0  0  0  0  0  0  0  0  0  0  0
    8.6555  -19.6096   23.2760 O   0  0  0  0  0  0  0  0  0  0  0  0
    5.5445  -21.1714   27.2439 C   0  0  0  0  0  0  0  0  0  0  0  0
    4.9198  -22.0415   28.1140 C   0  0  0  0  0  0  0  0  0  0  0  0
    8.8730  -11.6317   19.7793 O   0  0  0  0  0  0  0  0  0  0  0  0
    8.3104  -12.6561   20.5319 C   0  0  0  0  0  0  0  0  0  0  0  0
    8.0887  -12.4225   21.8676 C   0  0  0  0  0  0  0  0  0  0  0  0
    7.5246  -13.4503   22.6210 C   0  0  0  0  0  0  0  0  0  0  0  0
    7.1835  -14.6684   22.1013 C   0  0  0  0  0  0  0  0  0  0  0  0
    6.5793  -15.7563   22.8748 C   0  0  0  0  0  0  0  0  0  0  0  0
    7.5544  -16.9240   23.1324 C   0  0  2  0  0  0  0  0  0  0  0  0
    6.9378  -18.0788   23.6755 N   0  0  0  0  0  0  0  0  0  0  0  0
    8.6904  -16.3757   23.8923 C   0  0  0  0  0  0  0  0  0  0  0  0
    9.5726  -15.7163   23.2576 O   0  0  0  0  0  0  0  0  0  0  0  0
    7.4425  -14.8279   20.7267 C   0  0  0  0  0  0  0  0  0  0  0  0
    7.9906  -13.8637   19.9401 C   0  0  0  0  0  0  0  0  0  0  0  0
    4.7967  -11.8824   25.9579 O   0  0  0  0  0  0  0  0  0  0  0  0
    5.9333  -12.6284   26.2470 C   0  0  0  0  0  0  0  0  0  0  0  0
    5.8115  -13.9348   26.6430 C   0  0  0  0  0  0  0  0  0  0  0  0
    6.9598  -14.6821   26.9328 C   0  0  0  0  0  0  0  0  0  0  0  0
    8.2125  -14.1395   26.8309 C   0  0  0  0  0  0  0  0  0  0  0  0
    9.3936  -14.9460   27.1362 C   0  0  0  0  0  0  0  0  0  0  0  0
    9.9250  -15.7688   25.9966 C   0  0  2  0  0  0  0  0  0  0  0  0
    8.9087  -16.5079   25.2826 N   0  0  0  0  0  0  0  0  0  0  0  0
   10.9863  -16.7039   26.4047 C   0  0  0  0  0  0  0  0  0  0  0  0
   10.8858  -18.0532   26.1304 O   0  0  0  0  0  0  0  0  0  0  0  0
    8.3462  -12.8347   26.4363 C   0  0  0  0  0  0  0  0  0  0  0  0
    7.2136  -12.0947   26.1495 C   0  0  0  0  0  0  0  0  0  0  0  0
   11.9943  -16.2853   27.0066 O   0  0  0  0  0  0  0  0  0  0  0  0
  2  1  1  0
  3  2  2  0
  4  3  1  0
  5 11  1  0
  5  4  2  0
  6  5  1  0
  7  6  1  0
  7  8  1  6
  9  7  1  0
 10  9  2  0
 11 12  2  0
 12  2  1  0
 13 14  1  0
 14 24  2  0
 14 15  1  0
 15 16  2  0
 16 17  1  0
 17 18  1  0
 19 18  1  1
 19 20  1  0
 20  9  1  0
 21 19  1  0
 21 32  1  0
 22 21  2  0
 23 17  2  0
 24 23  1  0
 25 26  1  0
 26 36  2  0
 27 26  1  0
 27 28  2  0
 28 29  1  0
 29 35  2  0
 29 30  1  0
 31 32  1  0
 31 33  1  0
 31 30  1  1
 33 37  2  0
 33 34  1  0
 36 35  1  0
M  END
$$$$
