YYY.pdb
     RDKit          3D

 37 39  0  0  1  0  0  0  0  0999 V2000
    5.6315  -12.2355   17.4972 O   0  0  0  0  0  0  0  0  0  0  0  0
    6.7122  -12.8317   18.1706 C   0  0  0  0  0  0  0  0  0  0  0  0
    7.9041  -12.1372   18.2509 C   0  0  0  0  0  0  0  0  0  0  0  0
    8.9822  -12.7033   18.9087 C   0  0  0  0  0  0  0  0  0  0  0  0
    8.9006  -13.9552   19.4930 C   0  0  0  0  0  0  0  0  0  0  0  0
   10.0447  -14.5544   20.1889 C   0  0  0  0  0  0  0  0  0  0  0  0
   11.1734  -14.8367   19.2271 C   0  0  2  0  0  0  0  0  0  0  0  0
   10.7231  -15.5661   18.0613 N   0  0  0  0  0  0  0  0  0  0  0  0
   12.3008  -15.5236   19.9055 C   0  0  0  0  0  0  0  0  0  0  0  0
   12.3069  -16.7791   19.8990 O   0  0  0  0  0  0  0  0  0  0  0  0
    7.6933  -14.6127   19.3893 C   0  0  0  0  0  0  0  0  0  0  0  0
    6.6046  -14.0688   18.7387 C   0  0  0  0  0  0  0  0  0  0  0  0
   17.4047  -15.3348   15.7061 O   0  0  0  0  0  0  0  0  0  0  0  0
   17.0054  -15.1993   17.0308 C   0  0  0  0  0  0  0  0  0  0  0  0
   16.5230  -13.9771   17.4327 C   0  0  0  0  0  0  0  0  0  0  0  0
   16.1230  -13.8426   18.7608 C   0  0  0  0  0  0  0  0  0  0  0  0
   16.1860  -14.8575   19.6754 C   0  0  0  0  0  0  0  0  0  0  0  0
   15.7596  -14.7381   21.0721 C   0  0  0  0  0  0  0  0  0  0  0  0
   14.3665  -15.3496   21.3294 C   0  0  2  0  0  0  0  0  0  0  0  0
   13.3351  -14.7827   20.5397 N   0  0  0  0  0  0  0  0  0  0  0  0
   14.1526  -15.3340   22.7862 C   0  0  0  0  0  0  0  0  0  0  0  0
   14.7269  -14.4261   23.4658 O   0  0  0  0  0  0  0  0  0  0  0  0
   16.6917  -16.0764   19.1848 C   0  0  0  0  0  0  0  0  0  0  0  0
   17.0975  -16.2690   17.9015 C   0  0  0  0  0  0  0  0  0  0  0  0
   10.4644  -15.4932   30.7808 O   0  0  0  0  0  0  0  0  0  0  0  0
   10.7552  -15.5879   29.4249 C   0  0  0  0  0  0  0  0  0  0  0  0
   11.0351  -14.4559   28.7048 C   0  0  0  0  0  0  0  0  0  0  0  0
   11.3277  -14.5567   27.3391 C   0  0  0  0  0  0  0  0  0  0  0  0
   11.3420  -15.7656   26.6967 C   0  0  0  0  0  0  0  0  0  0  0  0
   11.6553  -15.8400   25.2702 C   0  0  0  0  0  0  0  0  0  0  0  0
   13.0990  -16.0929   24.9391 C   0  0  2  0  0  0  0  0  0  0  0  0
   13.3596  -16.2412   23.5252 N   0  0  0  0  0  0  0  0  0  0  0  0
   13.6581  -17.2580   25.6444 C   0  0  0  0  0  0  0  0  0  0  0  0
   14.2636  -17.1166   26.8771 O   0  0  0  0  0  0  0  0  0  0  0  0
   11.0635  -16.9034   27.4063 C   0  0  0  0  0  0  0  0  0  0  0  0
   10.7743  -16.8063   28.7553 C   0  0  0  0  0  0  0  0  0  0  0  0
   13.5907  -18.3927   25.1333 O   0  0  0  0  0  0  0  0  0  0  0  0
  2  1  1  0
  3  2  2  0
  4  3  1  0
  5 11  1  0
  5  4  2  0
  6  5  1  0
  7  6  1  0
  7  8  1  6
  9  7  1  0
 10  9  2  0
 11 12  2  0
 12  2  1  0
 13 14  1  0
 14 24  2  0
 14 15  1  0
 15 16  2  0
 16 17  1  0
 17 18  1  0
 19 18  1  1
 19 20  1  0
 20  9  1  0
 21 19  1  0
 21 32  1  0
 22 21  2  0
 23 17  2  0
 24 23  1  0
 25 26  1  0
 26 36  2  0
 27 26  1  0
 27 28  2  0
 28 29  1  0
 29 35  2  0
 29 30  1  0
 31 32  1  0
 31 33  1  0
 31 30  1  6
 33 37  2  0
 33 34  1  0
 36 35  1  0
M  END
$$$$
