YYY.pdb
     RDKit          3D

 37 39  0  0  1  0  0  0  0  0999 V2000
    7.5190  -12.1723   16.9358 O   0  0  0  0  0  0  0  0  0  0  0  0
    7.5541  -12.8280   18.1789 C   0  0  0  0  0  0  0  0  0  0  0  0
    8.7842  -13.1263   18.7335 C   0  0  0  0  0  0  0  0  0  0  0  0
    8.8444  -13.7715   19.9564 C   0  0  0  0  0  0  0  0  0  0  0  0
    7.6990  -14.1296   20.6457 C   0  0  0  0  0  0  0  0  0  0  0  0
    7.7646  -14.8145   21.9414 C   0  0  0  0  0  0  0  0  0  0  0  0
    7.9365  -16.3028   21.7566 C   0  0  2  0  0  0  0  0  0  0  0  0
    6.7855  -16.9071   21.1213 N   0  0  0  0  0  0  0  0  0  0  0  0
    8.2716  -16.9702   23.0394 C   0  0  0  0  0  0  0  0  0  0  0  0
    7.3206  -17.3865   23.7456 O   0  0  0  0  0  0  0  0  0  0  0  0
    6.4937  -13.8129   20.0564 C   0  0  0  0  0  0  0  0  0  0  0  0
    6.4083  -13.1701   18.8383 C   0  0  0  0  0  0  0  0  0  0  0  0
   12.4085  -21.6043   29.1882 O   0  0  0  0  0  0  0  0  0  0  0  0
   12.0928  -20.9136   28.0238 C   0  0  0  0  0  0  0  0  0  0  0  0
   13.0104  -20.0092   27.5466 C   0  0  0  0  0  0  0  0  0  0  0  0
   12.6927  -19.3175   26.3792 C   0  0  0  0  0  0  0  0  0  0  0  0
   11.5238  -19.4932   25.6913 C   0  0  0  0  0  0  0  0  0  0  0  0
   11.1776  -18.7839   24.4568 C   0  0  0  0  0  0  0  0  0  0  0  0
   10.0320  -17.7682   24.6485 C   0  0  2  0  0  0  0  0  0  0  0  0
    9.6229  -17.1302   23.4509 N   0  0  0  0  0  0  0  0  0  0  0  0
   10.4252  -16.8808   25.7559 C   0  0  0  0  0  0  0  0  0  0  0  0
   11.3282  -16.0135   25.5362 O   0  0  0  0  0  0  0  0  0  0  0  0
   10.6377  -20.4366   26.2454 C   0  0  0  0  0  0  0  0  0  0  0  0
   10.8909  -21.1416   27.3801 C   0  0  0  0  0  0  0  0  0  0  0  0
    6.2749  -12.1150   24.9648 O   0  0  0  0  0  0  0  0  0  0  0  0
    7.0032  -12.8676   25.8787 C   0  0  0  0  0  0  0  0  0  0  0  0
    8.0504  -12.2971   26.5542 C   0  0  0  0  0  0  0  0  0  0  0  0
    8.7808  -13.0595   27.4740 C   0  0  0  0  0  0  0  0  0  0  0  0
    8.4756  -14.3712   27.7200 C   0  0  0  0  0  0  0  0  0  0  0  0
    9.2539  -15.1411   28.6896 C   0  0  0  0  0  0  0  0  0  0  0  0
   10.3435  -15.9971   28.1082 C   0  0  2  0  0  0  0  0  0  0  0  0
    9.8938  -16.8915   27.0657 N   0  0  0  0  0  0  0  0  0  0  0  0
   11.0642  -16.7833   29.1230 C   0  0  0  0  0  0  0  0  0  0  0  0
   11.7341  -16.1610   30.1574 O   0  0  0  0  0  0  0  0  0  0  0  0
    7.4312  -14.9517   27.0506 C   0  0  0  0  0  0  0  0  0  0  0  0
    6.7084  -14.2007   26.1417 C   0  0  0  0  0  0  0  0  0  0  0  0
   11.0780  -18.0280   29.0594 O   0  0  0  0  0  0  0  0  0  0  0  0
  2  1  1  0
  3  2  2  0
  4  3  1  0
  5 11  1  0
  5  4  2  0
  6  5  1  0
  7  6  1  0
  7  8  1  1
  9  7  1  0
 10  9  2  0
 11 12  2  0
 12  2  1  0
 13 14  1  0
 14 24  2  0
 14 15  1  0
 15 16  2  0
 16 17  1  0
 17 18  1  0
 19 18  1  6
 19 20  1  0
 20  9  1  0
 21 19  1  0
 21 32  1  0
 22 21  2  0
 23 17  2  0
 24 23  1  0
 25 26  1  0
 26 36  2  0
 27 26  1  0
 27 28  2  0
 28 29  1  0
 29 35  2  0
 29 30  1  0
 31 32  1  0
 31 33  1  0
 31 30  1  1
 33 37  2  0
 33 34  1  0
 36 35  1  0
M  END
$$$$
