YYY.pdb
     RDKit          3D

 37 39  0  0  1  0  0  0  0  0999 V2000
    8.5781  -13.3869   14.4566 O   0  0  0  0  0  0  0  0  0  0  0  0
    8.4896  -13.7330   15.8164 C   0  0  0  0  0  0  0  0  0  0  0  0
    7.4260  -13.2479   16.5533 C   0  0  0  0  0  0  0  0  0  0  0  0
    7.3173  -13.5749   17.8936 C   0  0  0  0  0  0  0  0  0  0  0  0
    8.2506  -14.3802   18.5227 C   0  0  0  0  0  0  0  0  0  0  0  0
    8.1345  -14.7250   19.9440 C   0  0  0  0  0  0  0  0  0  0  0  0
    8.1229  -16.2221   20.1366 C   0  0  2  0  0  0  0  0  0  0  0  0
    7.1053  -16.8646   19.3332 N   0  0  0  0  0  0  0  0  0  0  0  0
    7.9995  -16.5802   21.5718 C   0  0  0  0  0  0  0  0  0  0  0  0
    7.0142  -16.1255   22.2032 O   0  0  0  0  0  0  0  0  0  0  0  0
    9.2950  -14.8423   17.7505 C   0  0  0  0  0  0  0  0  0  0  0  0
    9.4246  -14.5299   16.4126 C   0  0  0  0  0  0  0  0  0  0  0  0
    4.2250  -21.1943   20.8734 O   0  0  0  0  0  0  0  0  0  0  0  0
    5.3128  -20.7285   21.6029 C   0  0  0  0  0  0  0  0  0  0  0  0
    6.5260  -20.6473   20.9629 C   0  0  0  0  0  0  0  0  0  0  0  0
    7.6157  -20.1801   21.6953 C   0  0  0  0  0  0  0  0  0  0  0  0
    7.5380  -19.8016   23.0071 C   0  0  0  0  0  0  0  0  0  0  0  0
    8.6696  -19.2974   23.7896 C   0  0  0  0  0  0  0  0  0  0  0  0
    8.9290  -17.7923   23.5697 C   0  0  2  0  0  0  0  0  0  0  0  0
    8.9653  -17.4085   22.2058 N   0  0  0  0  0  0  0  0  0  0  0  0
   10.1087  -17.4372   24.3764 C   0  0  0  0  0  0  0  0  0  0  0  0
   10.7508  -18.3763   24.9435 O   0  0  0  0  0  0  0  0  0  0  0  0
    6.2611  -19.9147   23.5894 C   0  0  0  0  0  0  0  0  0  0  0  0
    5.1614  -20.3632   22.9275 C   0  0  0  0  0  0  0  0  0  0  0  0
    5.6039  -11.0752   27.8700 O   0  0  0  0  0  0  0  0  0  0  0  0
    6.3527  -11.9475   27.0888 C   0  0  0  0  0  0  0  0  0  0  0  0
    7.6697  -11.6725   26.8274 C   0  0  0  0  0  0  0  0  0  0  0  0
    8.4199  -12.5546   26.0400 C   0  0  0  0  0  0  0  0  0  0  0  0
    7.8697  -13.6948   25.5188 C   0  0  0  0  0  0  0  0  0  0  0  0
    8.6794  -14.5993   24.7034 C   0  0  0  0  0  0  0  0  0  0  0  0
    9.9157  -15.1351   25.3685 C   0  0  2  0  0  0  0  0  0  0  0  0
   10.6135  -16.1346   24.5918 N   0  0  0  0  0  0  0  0  0  0  0  0
    9.6593  -15.6792   26.7122 C   0  0  0  0  0  0  0  0  0  0  0  0
    9.1971  -16.9696   26.8779 O   0  0  0  0  0  0  0  0  0  0  0  0
    6.5544  -13.9795   25.7733 C   0  0  0  0  0  0  0  0  0  0  0  0
    5.8115  -13.1098   26.5507 C   0  0  0  0  0  0  0  0  0  0  0  0
    9.8577  -14.9764   27.7222 O   0  0  0  0  0  0  0  0  0  0  0  0
  2  1  1  0
  3  2  2  0
  4  3  1  0
  5 11  1  0
  5  4  2  0
  6  5  1  0
  7  6  1  0
  7  8  1  6
  9  7  1  0
 10  9  2  0
 11 12  2  0
 12  2  1  0
 13 14  1  0
 14 24  2  0
 14 15  1  0
 15 16  2  0
 16 17  1  0
 17 18  1  0
 19 18  1  6
 19 20  1  0
 20  9  1  0
 21 19  1  0
 21 32  1  0
 22 21  2  0
 23 17  2  0
 24 23  1  0
 25 26  1  0
 26 36  2  0
 27 26  1  0
 27 28  2  0
 28 29  1  0
 29 35  2  0
 29 30  1  0
 31 32  1  0
 31 33  1  0
 31 30  1  6
 33 37  2  0
 33 34  1  0
 36 35  1  0
M  END
$$$$
