YYY.pdb
     RDKit          3D

 37 39  0  0  1  0  0  0  0  0999 V2000
    7.6801  -13.2759   15.4865 O   0  0  0  0  0  0  0  0  0  0  0  0
    7.5744  -13.6043   16.8494 C   0  0  0  0  0  0  0  0  0  0  0  0
    8.1581  -14.7755   17.2934 C   0  0  0  0  0  0  0  0  0  0  0  0
    8.0676  -15.1202   18.6307 C   0  0  0  0  0  0  0  0  0  0  0  0
    7.4039  -14.3195   19.5437 C   0  0  0  0  0  0  0  0  0  0  0  0
    7.3078  -14.6869   20.9608 C   0  0  0  0  0  0  0  0  0  0  0  0
    6.7484  -16.0799   21.1200 C   0  0  2  0  0  0  0  0  0  0  0  0
    5.3329  -16.1331   20.8248 N   0  0  0  0  0  0  0  0  0  0  0  0
    7.0523  -16.6327   22.4636 C   0  0  0  0  0  0  0  0  0  0  0  0
    6.2988  -16.3045   23.4128 O   0  0  0  0  0  0  0  0  0  0  0  0
    6.8366  -13.1607   19.0581 C   0  0  0  0  0  0  0  0  0  0  0  0
    6.9137  -12.7959   17.7295 C   0  0  0  0  0  0  0  0  0  0  0  0
    4.1949  -22.3033   24.1866 O   0  0  0  0  0  0  0  0  0  0  0  0
    5.3699  -21.5607   24.1707 C   0  0  0  0  0  0  0  0  0  0  0  0
    5.9127  -21.1942   25.3786 C   0  0  0  0  0  0  0  0  0  0  0  0
    7.0907  -20.4499   25.3613 C   0  0  0  0  0  0  0  0  0  0  0  0
    7.7276  -20.0700   24.2122 C   0  0  0  0  0  0  0  0  0  0  0  0
    8.9721  -19.2976   24.1745 C   0  0  0  0  0  0  0  0  0  0  0  0
    8.7382  -17.7929   23.9253 C   0  0  2  0  0  0  0  0  0  0  0  0
    8.1587  -17.5023   22.6650 N   0  0  0  0  0  0  0  0  0  0  0  0
   10.0029  -17.1045   24.2333 C   0  0  0  0  0  0  0  0  0  0  0  0
   10.9460  -17.1768   23.3841 O   0  0  0  0  0  0  0  0  0  0  0  0
    7.1079  -20.4846   23.0179 C   0  0  0  0  0  0  0  0  0  0  0  0
    5.9597  -21.2111   22.9703 C   0  0  0  0  0  0  0  0  0  0  0  0
    9.4461  -16.6681   31.6205 O   0  0  0  0  0  0  0  0  0  0  0  0
    9.9621  -16.1859   30.4233 C   0  0  0  0  0  0  0  0  0  0  0  0
    9.1781  -15.4212   29.5994 C   0  0  0  0  0  0  0  0  0  0  0  0
    9.7028  -14.9376   28.3944 C   0  0  0  0  0  0  0  0  0  0  0  0
   10.9889  -15.2099   28.0125 C   0  0  0  0  0  0  0  0  0  0  0  0
   11.5105  -14.6874   26.7501 C   0  0  0  0  0  0  0  0  0  0  0  0
   11.5377  -15.6652   25.6094 C   0  0  2  0  0  0  0  0  0  0  0  0
   10.2856  -16.3557   25.3984 N   0  0  0  0  0  0  0  0  0  0  0  0
   12.6110  -16.6655   25.7313 C   0  0  0  0  0  0  0  0  0  0  0  0
   13.9370  -16.2822   25.7591 O   0  0  0  0  0  0  0  0  0  0  0  0
   11.7814  -15.9733   28.8280 C   0  0  0  0  0  0  0  0  0  0  0  0
   11.2654  -16.4519   30.0185 C   0  0  0  0  0  0  0  0  0  0  0  0
   12.3329  -17.8778   25.8111 O   0  0  0  0  0  0  0  0  0  0  0  0
  2  1  1  0
  3  2  2  0
  4  3  1  0
  5 11  1  0
  5  4  2  0
  6  5  1  0
  7  6  1  0
  7  8  1  1
  9  7  1  0
 10  9  2  0
 11 12  2  0
 12  2  1  0
 13 14  1  0
 14 24  2  0
 14 15  1  0
 15 16  2  0
 16 17  1  0
 17 18  1  0
 19 18  1  6
 19 20  1  0
 20  9  1  0
 21 19  1  0
 21 32  1  0
 22 21  2  0
 23 17  2  0
 24 23  1  0
 25 26  1  0
 26 36  2  0
 27 26  1  0
 27 28  2  0
 28 29  1  0
 29 35  2  0
 29 30  1  0
 31 32  1  0
 31 33  1  0
 31 30  1  1
 33 37  2  0
 33 34  1  0
 36 35  1  0
M  END
$$$$
