YYY.pdb
     RDKit          3D

 37 39  0  0  1  0  0  0  0  0999 V2000
    6.1734  -13.5394   17.6475 O   0  0  0  0  0  0  0  0  0  0  0  0
    7.4454  -13.9371   18.0950 C   0  0  0  0  0  0  0  0  0  0  0  0
    8.1720  -13.0628   18.8807 C   0  0  0  0  0  0  0  0  0  0  0  0
    9.4267  -13.4317   19.3334 C   0  0  0  0  0  0  0  0  0  0  0  0
    9.9796  -14.6610   19.0193 C   0  0  0  0  0  0  0  0  0  0  0  0
   11.3103  -15.0501   19.4991 C   0  0  0  0  0  0  0  0  0  0  0  0
   11.2098  -16.1196   20.5595 C   0  0  2  0  0  0  0  0  0  0  0  0
   10.4256  -17.2518   20.1156 N   0  0  0  0  0  0  0  0  0  0  0  0
   10.7010  -15.5645   21.8387 C   0  0  0  0  0  0  0  0  0  0  0  0
   11.2901  -14.5630   22.3145 O   0  0  0  0  0  0  0  0  0  0  0  0
    9.2207  -15.5020   18.2336 C   0  0  0  0  0  0  0  0  0  0  0  0
    7.9676  -15.1565   17.7706 C   0  0  0  0  0  0  0  0  0  0  0  0
    5.5793  -12.4804   28.0638 O   0  0  0  0  0  0  0  0  0  0  0  0
    6.0464  -13.2243   26.9863 C   0  0  0  0  0  0  0  0  0  0  0  0
    6.9010  -12.6078   26.1046 C   0  0  0  0  0  0  0  0  0  0  0  0
    7.3686  -13.3546   25.0248 C   0  0  0  0  0  0  0  0  0  0  0  0
    7.0224  -14.6587   24.8018 C   0  0  0  0  0  0  0  0  0  0  0  0
    7.5126  -15.4628   23.6792 C   0  0  0  0  0  0  0  0  0  0  0  0
    9.0387  -15.6868   23.7219 C   0  0  2  0  0  0  0  0  0  0  0  0
    9.5862  -16.1492   22.4992 N   0  0  0  0  0  0  0  0  0  0  0  0
    9.3195  -16.5080   24.9115 C   0  0  0  0  0  0  0  0  0  0  0  0
    8.3382  -16.8710   25.6335 O   0  0  0  0  0  0  0  0  0  0  0  0
    6.1436  -15.2166   25.7498 C   0  0  0  0  0  0  0  0  0  0  0  0
    5.6539  -14.5395   26.8224 C   0  0  0  0  0  0  0  0  0  0  0  0
    9.9575  -11.7351   28.1121 O   0  0  0  0  0  0  0  0  0  0  0  0
   10.0569  -13.1191   28.0296 C   0  0  0  0  0  0  0  0  0  0  0  0
   11.2736  -13.7046   27.7946 C   0  0  0  0  0  0  0  0  0  0  0  0
   11.3683  -15.0993   27.7126 C   0  0  0  0  0  0  0  0  0  0  0  0
   10.2695  -15.9022   27.8618 C   0  0  0  0  0  0  0  0  0  0  0  0
   10.4003  -17.3561   27.7752 C   0  0  0  0  0  0  0  0  0  0  0  0
   10.7778  -17.8904   26.4224 C   0  0  2  0  0  0  0  0  0  0  0  0
   10.5919  -16.9448   25.3452 N   0  0  0  0  0  0  0  0  0  0  0  0
   10.0771  -19.1385   26.0779 C   0  0  0  0  0  0  0  0  0  0  0  0
    9.4541  -19.2869   24.8548 O   0  0  0  0  0  0  0  0  0  0  0  0
    9.0485  -15.3279   28.0968 C   0  0  0  0  0  0  0  0  0  0  0  0
    8.9525  -13.9506   28.1782 C   0  0  0  0  0  0  0  0  0  0  0  0
   10.0379  -20.0815   26.8919 O   0  0  0  0  0  0  0  0  0  0  0  0
  2  1  1  0
  3  2  2  0
  4  3  1  0
  5 11  1  0
  5  4  2  0
  6  5  1  0
  7  6  1  0
  7  8  1  6
  9  7  1  0
 10  9  2  0
 11 12  2  0
 12  2  1  0
 13 14  1  0
 14 24  2  0
 14 15  1  0
 15 16  2  0
 16 17  1  0
 17 18  1  0
 19 18  1  6
 19 20  1  0
 20  9  1  0
 21 19  1  0
 21 32  1  0
 22 21  2  0
 23 17  2  0
 24 23  1  0
 25 26  1  0
 26 36  2  0
 27 26  1  0
 27 28  2  0
 28 29  1  0
 29 35  2  0
 29 30  1  0
 31 32  1  0
 31 33  1  0
 31 30  1  1
 33 37  2  0
 33 34  1  0
 36 35  1  0
M  END
$$$$
