YYY.pdb
     RDKit          3D

 37 39  0  0  1  0  0  0  0  0999 V2000
    8.5685  -22.5927   15.9027 O   0  0  0  0  0  0  0  0  0  0  0  0
    9.0637  -21.4304   16.5194 C   0  0  0  0  0  0  0  0  0  0  0  0
    8.3366  -20.2610   16.4041 C   0  0  0  0  0  0  0  0  0  0  0  0
    8.8036  -19.1037   17.0025 C   0  0  0  0  0  0  0  0  0  0  0  0
    9.9876  -19.0835   17.7189 C   0  0  0  0  0  0  0  0  0  0  0  0
   10.4818  -17.8556   18.3516 C   0  0  0  0  0  0  0  0  0  0  0  0
   10.2031  -17.8636   19.8352 C   0  0  2  0  0  0  0  0  0  0  0  0
    8.8992  -18.4124   20.1393 N   0  0  0  0  0  0  0  0  0  0  0  0
   10.3840  -16.5136   20.4251 C   0  0  0  0  0  0  0  0  0  0  0  0
   11.5079  -15.9684   20.2991 O   0  0  0  0  0  0  0  0  0  0  0  0
   10.6807  -20.2717   17.8088 C   0  0  0  0  0  0  0  0  0  0  0  0
   10.2353  -21.4380   17.2209 C   0  0  0  0  0  0  0  0  0  0  0  0
    7.2824  -12.6693   16.1597 O   0  0  0  0  0  0  0  0  0  0  0  0
    7.5355  -12.9109   17.5051 C   0  0  0  0  0  0  0  0  0  0  0  0
    6.5046  -13.3941   18.2743 C   0  0  0  0  0  0  0  0  0  0  0  0
    6.7596  -13.6360   19.6229 C   0  0  0  0  0  0  0  0  0  0  0  0
    7.9740  -13.4186   20.2129 C   0  0  0  0  0  0  0  0  0  0  0  0
    8.2639  -13.6776   21.6257 C   0  0  0  0  0  0  0  0  0  0  0  0
    9.4450  -14.6496   21.8282 C   0  0  2  0  0  0  0  0  0  0  0  0
    9.3199  -15.8641   21.1084 N   0  0  0  0  0  0  0  0  0  0  0  0
    9.6554  -14.7736   23.2804 C   0  0  0  0  0  0  0  0  0  0  0  0
    8.9008  -14.1041   24.0539 O   0  0  0  0  0  0  0  0  0  0  0  0
    8.9765  -12.9232   19.3574 C   0  0  0  0  0  0  0  0  0  0  0  0
    8.7887  -12.6676   18.0353 C   0  0  0  0  0  0  0  0  0  0  0  0
   10.5036  -15.7950   31.7675 O   0  0  0  0  0  0  0  0  0  0  0  0
   10.2941  -15.7566   30.3939 C   0  0  0  0  0  0  0  0  0  0  0  0
   10.1692  -16.9249   29.6882 C   0  0  0  0  0  0  0  0  0  0  0  0
    9.9580  -16.8807   28.3046 C   0  0  0  0  0  0  0  0  0  0  0  0
    9.8720  -15.6923   27.6304 C   0  0  0  0  0  0  0  0  0  0  0  0
    9.6467  -15.6777   26.1856 C   0  0  0  0  0  0  0  0  0  0  0  0
   10.8810  -15.5284   25.3417 C   0  0  2  0  0  0  0  0  0  0  0  0
   10.6286  -15.5753   23.9193 N   0  0  0  0  0  0  0  0  0  0  0  0
   11.9254  -16.5140   25.6660 C   0  0  0  0  0  0  0  0  0  0  0  0
   12.3479  -17.4337   24.7270 O   0  0  0  0  0  0  0  0  0  0  0  0
    9.9956  -14.5186   28.3255 C   0  0  0  0  0  0  0  0  0  0  0  0
   10.2042  -14.5597   29.6920 C   0  0  0  0  0  0  0  0  0  0  0  0
   12.4434  -16.5295   26.7995 O   0  0  0  0  0  0  0  0  0  0  0  0
  2  1  1  0
  3  2  2  0
  4  3  1  0
  5 11  1  0
  5  4  2  0
  6  5  1  0
  7  6  1  0
  7  8  1  6
  9  7  1  0
 10  9  2  0
 11 12  2  0
 12  2  1  0
 13 14  1  0
 14 24  2  0
 14 15  1  0
 15 16  2  0
 16 17  1  0
 17 18  1  0
 19 18  1  1
 19 20  1  0
 20  9  1  0
 21 19  1  0
 21 32  1  0
 22 21  2  0
 23 17  2  0
 24 23  1  0
 25 26  1  0
 26 36  2  0
 27 26  1  0
 27 28  2  0
 28 29  1  0
 29 35  2  0
 29 30  1  0
 31 32  1  0
 31 33  1  0
 31 30  1  1
 33 37  2  0
 33 34  1  0
 36 35  1  0
M  END
$$$$
