YYY.pdb
     RDKit          3D

 37 39  0  0  1  0  0  0  0  0999 V2000
    0.1989  -20.1475   20.8503 O   0  0  0  0  0  0  0  0  0  0  0  0
    1.4661  -19.6443   21.1929 C   0  0  0  0  0  0  0  0  0  0  0  0
    2.0490  -20.0700   22.3713 C   0  0  0  0  0  0  0  0  0  0  0  0
    3.2960  -19.5888   22.7301 C   0  0  0  0  0  0  0  0  0  0  0  0
    3.9819  -18.6860   21.9364 C   0  0  0  0  0  0  0  0  0  0  0  0
    5.3033  -18.1759   22.3188 C   0  0  0  0  0  0  0  0  0  0  0  0
    6.3047  -18.3871   21.2091 C   0  0  2  0  0  0  0  0  0  0  0  0
    6.3995  -19.7779   20.8213 N   0  0  0  0  0  0  0  0  0  0  0  0
    7.6306  -17.8225   21.5647 C   0  0  0  0  0  0  0  0  0  0  0  0
    8.5679  -18.6290   21.7825 O   0  0  0  0  0  0  0  0  0  0  0  0
    3.3641  -18.2882   20.7700 C   0  0  0  0  0  0  0  0  0  0  0  0
    2.1216  -18.7540   20.3913 C   0  0  0  0  0  0  0  0  0  0  0  0
    8.3827  -13.0319   16.4367 O   0  0  0  0  0  0  0  0  0  0  0  0
    8.5432  -13.3382   17.7831 C   0  0  0  0  0  0  0  0  0  0  0  0
    9.6523  -14.0628   18.1476 C   0  0  0  0  0  0  0  0  0  0  0  0
    9.8121  -14.3691   19.4977 C   0  0  0  0  0  0  0  0  0  0  0  0
    8.9280  -13.9873   20.4688 C   0  0  0  0  0  0  0  0  0  0  0  0
    9.0851  -14.2900   21.8938 C   0  0  0  0  0  0  0  0  0  0  0  0
    8.9793  -15.7980   22.2029 C   0  0  2  0  0  0  0  0  0  0  0  0
    7.8283  -16.4177   21.6552 N   0  0  0  0  0  0  0  0  0  0  0  0
    9.1727  -15.9539   23.6543 C   0  0  0  0  0  0  0  0  0  0  0  0
   10.1915  -15.4088   24.1844 O   0  0  0  0  0  0  0  0  0  0  0  0
    7.8190  -13.2489   20.0137 C   0  0  0  0  0  0  0  0  0  0  0  0
    7.6083  -12.9196   18.7114 C   0  0  0  0  0  0  0  0  0  0  0  0
    5.8977  -10.8193   26.3661 O   0  0  0  0  0  0  0  0  0  0  0  0
    6.2375  -12.1640   26.4576 C   0  0  0  0  0  0  0  0  0  0  0  0
    7.4304  -12.5310   27.0238 C   0  0  0  0  0  0  0  0  0  0  0  0
    7.7679  -13.8871   27.1137 C   0  0  0  0  0  0  0  0  0  0  0  0
    6.9320  -14.8659   26.6475 C   0  0  0  0  0  0  0  0  0  0  0  0
    7.3097  -16.2743   26.7591 C   0  0  0  0  0  0  0  0  0  0  0  0
    8.5233  -16.6810   25.9718 C   0  0  2  0  0  0  0  0  0  0  0  0
    8.3276  -16.6608   24.5398 N   0  0  0  0  0  0  0  0  0  0  0  0
    9.0449  -18.0030   26.3558 C   0  0  0  0  0  0  0  0  0  0  0  0
    9.3945  -18.2742   27.6636 O   0  0  0  0  0  0  0  0  0  0  0  0
    5.7374  -14.5107   26.0795 C   0  0  0  0  0  0  0  0  0  0  0  0
    5.4019  -13.1720   25.9897 C   0  0  0  0  0  0  0  0  0  0  0  0
    9.1779  -18.8984   25.4991 O   0  0  0  0  0  0  0  0  0  0  0  0
  2  1  1  0
  3  2  2  0
  4  3  1  0
  5 11  1  0
  5  4  2  0
  6  5  1  0
  7  6  1  0
  7  8  1  1
  9  7  1  0
 10  9  2  0
 11 12  2  0
 12  2  1  0
 13 14  1  0
 14 24  2  0
 14 15  1  0
 15 16  2  0
 16 17  1  0
 17 18  1  0
 19 18  1  1
 19 20  1  0
 20  9  1  0
 21 19  1  0
 21 32  1  0
 22 21  2  0
 23 17  2  0
 24 23  1  0
 25 26  1  0
 26 36  2  0
 27 26  1  0
 27 28  2  0
 28 29  1  0
 29 35  2  0
 29 30  1  0
 31 32  1  0
 31 33  1  0
 31 30  1  1
 33 37  2  0
 33 34  1  0
 36 35  1  0
M  END
$$$$
