YYY.pdb
     RDKit          3D

 37 39  0  0  1  0  0  0  0  0999 V2000
   15.2250  -18.9743   10.5944 O   0  0  0  0  0  0  0  0  0  0  0  0
   14.7740  -18.6174   11.8772 C   0  0  0  0  0  0  0  0  0  0  0  0
   13.9206  -19.4785   12.5403 C   0  0  0  0  0  0  0  0  0  0  0  0
   13.4631  -19.1490   13.8042 C   0  0  0  0  0  0  0  0  0  0  0  0
   13.8386  -17.9723   14.4285 C   0  0  0  0  0  0  0  0  0  0  0  0
   13.3518  -17.6239   15.7679 C   0  0  0  0  0  0  0  0  0  0  0  0
   11.8814  -17.2840   15.7359 C   0  0  2  0  0  0  0  0  0  0  0  0
   11.6026  -16.1622   14.8655 N   0  0  0  0  0  0  0  0  0  0  0  0
   11.3485  -17.0658   17.1039 C   0  0  0  0  0  0  0  0  0  0  0  0
   11.2226  -15.8803   17.4980 O   0  0  0  0  0  0  0  0  0  0  0  0
   14.6909  -17.1427   13.7315 C   0  0  0  0  0  0  0  0  0  0  0  0
   15.1603  -17.4497   12.4707 C   0  0  0  0  0  0  0  0  0  0  0  0
    9.8740  -24.4197   18.8643 O   0  0  0  0  0  0  0  0  0  0  0  0
    9.7202  -23.0500   19.0446 C   0  0  0  0  0  0  0  0  0  0  0  0
    9.5905  -22.2666   17.9233 C   0  0  0  0  0  0  0  0  0  0  0  0
    9.4363  -20.8936   18.1055 C   0  0  0  0  0  0  0  0  0  0  0  0
    9.4075  -20.2930   19.3338 C   0  0  0  0  0  0  0  0  0  0  0  0
    9.2349  -18.8534   19.5452 C   0  0  0  0  0  0  0  0  0  0  0  0
   10.5204  -18.0468   19.2666 C   0  0  2  0  0  0  0  0  0  0  0  0
   10.9947  -18.1628   17.9360 N   0  0  0  0  0  0  0  0  0  0  0  0
   11.4801  -18.3865   20.3305 C   0  0  0  0  0  0  0  0  0  0  0  0
   12.3540  -19.2767   20.0865 O   0  0  0  0  0  0  0  0  0  0  0  0
    9.5469  -21.1642   20.4309 C   0  0  0  0  0  0  0  0  0  0  0  0
    9.7005  -22.5104   20.3172 C   0  0  0  0  0  0  0  0  0  0  0  0
   16.1233  -13.8943   17.5104 O   0  0  0  0  0  0  0  0  0  0  0  0
   15.1187  -14.2869   18.3871 C   0  0  0  0  0  0  0  0  0  0  0  0
   14.0897  -13.4291   18.6764 C   0  0  0  0  0  0  0  0  0  0  0  0
   13.0799  -13.8295   19.5601 C   0  0  0  0  0  0  0  0  0  0  0  0
   13.0916  -15.0653   20.1489 C   0  0  0  0  0  0  0  0  0  0  0  0
   12.0208  -15.4570   21.0646 C   0  0  0  0  0  0  0  0  0  0  0  0
   12.3196  -16.6438   21.9366 C   0  0  2  0  0  0  0  0  0  0  0  0
   11.5336  -17.8154   21.6225 N   0  0  0  0  0  0  0  0  0  0  0  0
   12.1789  -16.3553   23.3733 C   0  0  0  0  0  0  0  0  0  0  0  0
   13.0064  -15.4430   23.9972 O   0  0  0  0  0  0  0  0  0  0  0  0
   14.1152  -15.9307   19.8673 C   0  0  0  0  0  0  0  0  0  0  0  0
   15.1135  -15.5375   18.9948 C   0  0  0  0  0  0  0  0  0  0  0  0
   11.3056  -16.9352   24.0474 O   0  0  0  0  0  0  0  0  0  0  0  0
  2  1  1  0
  3  2  2  0
  4  3  1  0
  5 11  1  0
  5  4  2  0
  6  5  1  0
  7  6  1  0
  7  8  1  6
  9  7  1  0
 10  9  2  0
 11 12  2  0
 12  2  1  0
 13 14  1  0
 14 24  2  0
 14 15  1  0
 15 16  2  0
 16 17  1  0
 17 18  1  0
 19 18  1  6
 19 20  1  0
 20  9  1  0
 21 19  1  0
 21 32  1  0
 22 21  2  0
 23 17  2  0
 24 23  1  0
 25 26  1  0
 26 36  2  0
 27 26  1  0
 27 28  2  0
 28 29  1  0
 29 35  2  0
 29 30  1  0
 31 32  1  0
 31 33  1  0
 31 30  1  6
 33 37  2  0
 33 34  1  0
 36 35  1  0
M  END
$$$$
