LYQ.pdb
     RDKit          3D

 30 30  0  0  1  0  0  0  0  0999 V2000
   17.4463  -12.1981  -18.5671 C   0  0  0  0  0  0  0  0  0  0  0  0
   18.9428  -12.1714  -18.3838 C   0  0  1  0  0  0  0  0  0  0  0  0
   19.5561  -11.9558  -19.7519 C   0  0  0  0  0  0  0  0  0  0  0  0
   19.3821  -11.1281  -17.3865 C   0  0  0  0  0  0  0  0  0  0  0  0
   20.8771  -10.9993  -17.3171 C   0  0  2  0  0  0  0  0  0  0  0  0
   21.3694  -12.0615  -16.4644 N   0  0  0  0  0  0  0  0  0  0  0  0
   21.2360   -9.7167  -16.7098 C   0  0  0  0  0  0  0  0  0  0  0  0
   21.1449   -9.5278  -15.4668 O   0  0  0  0  0  0  0  0  0  0  0  0
   26.9256  -11.2876  -15.2223 O   0  0  0  0  0  0  0  0  0  0  0  0
   26.1106  -10.2643  -15.6909 C   0  0  0  0  0  0  0  0  0  0  0  0
   25.7453  -10.1832  -17.0242 C   0  0  0  0  0  0  0  0  0  0  0  0
   24.9373   -9.1708  -17.4952 C   0  0  0  0  0  0  0  0  0  0  0  0
   24.4512   -8.1840  -16.6554 C   0  0  0  0  0  0  0  0  0  0  0  0
   23.5839   -7.0848  -17.1354 C   0  0  0  0  0  0  0  0  0  0  0  0
   22.1452   -7.3594  -16.8661 C   0  0  2  0  0  0  0  0  0  0  0  0
   21.7055   -8.6115  -17.4699 N   0  0  0  0  0  0  0  0  0  0  0  0
   21.2204   -6.2540  -17.2003 C   0  0  0  0  0  0  0  0  0  0  0  0
   20.9544   -5.8816  -18.3693 O   0  0  0  0  0  0  0  0  0  0  0  0
   24.8332   -8.2887  -15.3199 C   0  0  0  0  0  0  0  0  0  0  0  0
   25.6390   -9.2934  -14.8357 C   0  0  0  0  0  0  0  0  0  0  0  0
   16.0630   -4.6229  -14.0539 N   0  0  0  0  0  0  0  0  0  0  0  0
   16.1612   -5.3600  -15.2637 C   0  0  0  0  0  0  0  0  0  0  0  0
   15.1956   -6.0953  -15.5678 O   0  0  0  0  0  0  0  0  0  0  0  0
   17.3340   -5.2746  -16.1312 C   0  0  0  0  0  0  0  0  0  0  0  0
   18.4309   -4.3775  -15.6541 C   0  0  0  0  0  0  0  0  0  0  0  0
   19.6726   -4.3931  -16.4991 C   0  0  2  0  0  0  0  0  0  0  0  0
   20.5420   -5.5079  -16.1671 N   0  0  0  0  0  0  0  0  0  0  0  0
   20.4402   -3.1403  -16.2408 C   0  0  0  0  0  0  0  0  0  0  0  0
   21.7390   -3.1574  -15.7397 O   0  0  0  0  0  0  0  0  0  0  0  0
   19.9183   -2.0319  -16.4754 O   0  0  0  0  0  0  0  0  0  0  0  0
  2  1  1  6
  2  3  1  0
  4  2  1  0
  5  4  1  0
  5  6  1  1
  7  5  1  0
  7  8  2  0
  9 10  1  0
 10 11  2  0
 11 12  1  0
 13 12  2  0
 13 14  1  0
 15 14  1  6
 15 16  1  0
 16  7  1  0
 17 15  1  0
 18 17  2  0
 19 13  1  0
 20 10  1  0
 20 19  2  0
 21 22  1  0
 22 23  2  0
 22 24  1  0
 24 25  1  0
 26 25  1  1
 26 27  1  0
 27 17  1  0
 28 29  1  0
 28 26  1  0
 30 28  2  0
M  END
$$$$
