LYQ.pdb
     RDKit          3D

 30 30  0  0  1  0  0  0  0  0999 V2000
   30.1923  -23.3900  -16.3405 C   0  0  0  0  0  0  0  0  0  0  0  0
   28.8382  -22.9762  -16.8590 C   0  0  1  0  0  0  0  0  0  0  0  0
   28.4837  -23.9233  -17.9866 C   0  0  0  0  0  0  0  0  0  0  0  0
   27.7888  -22.9548  -15.7753 C   0  0  0  0  0  0  0  0  0  0  0  0
   26.4492  -22.5081  -16.2875 C   0  0  2  0  0  0  0  0  0  0  0  0
   26.6143  -21.1834  -16.8494 N   0  0  0  0  0  0  0  0  0  0  0  0
   25.4980  -22.4231  -15.1781 C   0  0  0  0  0  0  0  0  0  0  0  0
   25.2701  -23.4106  -14.4285 O   0  0  0  0  0  0  0  0  0  0  0  0
   26.8168  -20.9460   -8.1055 O   0  0  0  0  0  0  0  0  0  0  0  0
   26.1391  -20.6930   -9.2921 C   0  0  0  0  0  0  0  0  0  0  0  0
   26.8021  -20.6389  -10.5066 C   0  0  0  0  0  0  0  0  0  0  0  0
   26.1357  -20.3884  -11.6869 C   0  0  0  0  0  0  0  0  0  0  0  0
   24.7680  -20.1783  -11.7142 C   0  0  0  0  0  0  0  0  0  0  0  0
   24.0284  -19.9054  -12.9669 C   0  0  0  0  0  0  0  0  0  0  0  0
   23.8283  -21.1431  -13.7704 C   0  0  2  0  0  0  0  0  0  0  0  0
   24.7761  -21.2373  -14.8742 N   0  0  0  0  0  0  0  0  0  0  0  0
   22.4434  -21.3732  -14.2372 C   0  0  0  0  0  0  0  0  0  0  0  0
   21.9535  -20.8697  -15.2777 O   0  0  0  0  0  0  0  0  0  0  0  0
   24.1255  -20.2380  -10.4797 C   0  0  0  0  0  0  0  0  0  0  0  0
   24.7775  -20.4871   -9.2940 C   0  0  0  0  0  0  0  0  0  0  0  0
   16.0338  -24.1722  -11.9105 N   0  0  0  0  0  0  0  0  0  0  0  0
   17.2494  -24.5017  -12.5664 C   0  0  0  0  0  0  0  0  0  0  0  0
   17.6872  -25.6638  -12.4139 O   0  0  0  0  0  0  0  0  0  0  0  0
   17.9726  -23.5360  -13.3909 C   0  0  0  0  0  0  0  0  0  0  0  0
   19.3745  -23.2389  -12.9644 C   0  0  0  0  0  0  0  0  0  0  0  0
   20.1500  -22.3639  -13.9073 C   0  0  2  0  0  0  0  0  0  0  0  0
   21.5365  -22.2206  -13.4999 N   0  0  0  0  0  0  0  0  0  0  0  0
   19.5430  -21.0012  -13.9008 C   0  0  0  0  0  0  0  0  0  0  0  0
   19.6319  -20.1561  -12.7980 O   0  0  0  0  0  0  0  0  0  0  0  0
   18.9321  -20.5879  -14.9067 O   0  0  0  0  0  0  0  0  0  0  0  0
  2  1  1  1
  2  3  1  0
  4  2  1  0
  5  4  1  0
  5  6  1  1
  7  5  1  0
  7  8  2  0
  9 10  1  0
 10 11  2  0
 11 12  1  0
 13 12  2  0
 13 14  1  0
 15 14  1  6
 15 16  1  0
 16  7  1  0
 17 15  1  0
 18 17  2  0
 19 13  1  0
 20 10  1  0
 20 19  2  0
 21 22  1  0
 22 23  2  0
 22 24  1  0
 24 25  1  0
 26 25  1  1
 26 27  1  0
 27 17  1  0
 28 29  1  0
 28 26  1  0
 30 28  2  0
M  END
$$$$
