LYQ.pdb
     RDKit          3D

 30 30  0  0  1  0  0  0  0  0999 V2000
   26.9477  -16.5238  -20.3779 C   0  0  0  0  0  0  0  0  0  0  0  0
   27.7413  -17.6932  -19.8521 C   0  0  1  0  0  0  0  0  0  0  0  0
   29.0968  -17.1611  -19.4353 C   0  0  0  0  0  0  0  0  0  0  0  0
   27.0348  -18.4095  -18.7279 C   0  0  0  0  0  0  0  0  0  0  0  0
   27.8862  -19.4826  -18.1114 C   0  0  2  0  0  0  0  0  0  0  0  0
   28.0063  -20.5556  -19.0768 N   0  0  0  0  0  0  0  0  0  0  0  0
   27.2285  -20.0103  -16.9148 C   0  0  0  0  0  0  0  0  0  0  0  0
   26.2632  -20.8170  -16.9952 O   0  0  0  0  0  0  0  0  0  0  0  0
   24.6557  -20.9356   -8.4755 O   0  0  0  0  0  0  0  0  0  0  0  0
   25.4030  -20.6821   -9.6193 C   0  0  0  0  0  0  0  0  0  0  0  0
   25.5998  -19.3926  -10.0841 C   0  0  0  0  0  0  0  0  0  0  0  0
   26.3399  -19.1346  -11.2178 C   0  0  0  0  0  0  0  0  0  0  0  0
   26.9235  -20.1553  -11.9480 C   0  0  0  0  0  0  0  0  0  0  0  0
   27.7211  -19.9062  -13.1697 C   0  0  0  0  0  0  0  0  0  0  0  0
   26.9079  -20.0816  -14.4049 C   0  0  2  0  0  0  0  0  0  0  0  0
   27.6278  -19.6539  -15.5984 N   0  0  0  0  0  0  0  0  0  0  0  0
   25.5548  -19.4852  -14.3573 C   0  0  0  0  0  0  0  0  0  0  0  0
   25.2960  -18.2915  -14.6475 O   0  0  0  0  0  0  0  0  0  0  0  0
   26.7104  -21.4423  -11.4592 C   0  0  0  0  0  0  0  0  0  0  0  0
   25.9741  -21.7147  -10.3293 C   0  0  0  0  0  0  0  0  0  0  0  0
   20.6881  -20.3957  -17.1090 N   0  0  0  0  0  0  0  0  0  0  0  0
   20.3392  -19.2536  -16.3406 C   0  0  0  0  0  0  0  0  0  0  0  0
   19.2068  -18.7572  -16.5319 O   0  0  0  0  0  0  0  0  0  0  0  0
   21.2525  -18.6691  -15.3611 C   0  0  0  0  0  0  0  0  0  0  0  0
   22.6203  -19.2707  -15.3081 C   0  0  0  0  0  0  0  0  0  0  0  0
   23.0778  -19.6808  -13.9376 C   0  0  2  0  0  0  0  0  0  0  0  0
   24.4068  -20.2656  -13.9605 N   0  0  0  0  0  0  0  0  0  0  0  0
   22.1448  -20.7212  -13.4154 C   0  0  0  0  0  0  0  0  0  0  0  0
   20.9383  -20.3938  -12.8027 O   0  0  0  0  0  0  0  0  0  0  0  0
   22.4378  -21.9290  -13.5221 O   0  0  0  0  0  0  0  0  0  0  0  0
  2  1  1  1
  2  3  1  0
  4  2  1  0
  5  4  1  0
  5  6  1  6
  7  5  1  0
  7  8  2  0
  9 10  1  0
 10 11  2  0
 11 12  1  0
 13 12  2  0
 13 14  1  0
 15 14  1  1
 15 16  1  0
 16  7  1  0
 17 15  1  0
 18 17  2  0
 19 13  1  0
 20 10  1  0
 20 19  2  0
 21 22  1  0
 22 23  2  0
 22 24  1  0
 24 25  1  0
 26 25  1  6
 26 27  1  0
 27 17  1  0
 28 29  1  0
 28 26  1  0
 30 28  2  0
M  END
$$$$
