LYQ.pdb
     RDKit          3D

 30 30  0  0  1  0  0  0  0  0999 V2000
   23.6374  -24.0179  -16.3689 C   0  0  0  0  0  0  0  0  0  0  0  0
   23.6401  -25.3440  -15.6512 C   0  0  1  0  0  0  0  0  0  0  0  0
   24.7493  -25.2915  -14.6210 C   0  0  0  0  0  0  0  0  0  0  0  0
   22.3008  -25.6691  -15.0373 C   0  0  0  0  0  0  0  0  0  0  0  0
   22.3438  -26.9178  -14.2034 C   0  0  2  0  0  0  0  0  0  0  0  0
   22.4228  -28.0463  -15.1078 N   0  0  0  0  0  0  0  0  0  0  0  0
   21.1098  -27.0361  -13.4250 C   0  0  0  0  0  0  0  0  0  0  0  0
   20.0499  -27.4895  -13.9351 O   0  0  0  0  0  0  0  0  0  0  0  0
   20.6109  -33.1308  -11.5354 O   0  0  0  0  0  0  0  0  0  0  0  0
   20.4658  -31.7953  -11.1796 C   0  0  0  0  0  0  0  0  0  0  0  0
   21.5447  -31.0386  -10.7543 C   0  0  0  0  0  0  0  0  0  0  0  0
   21.4074  -29.7136  -10.4000 C   0  0  0  0  0  0  0  0  0  0  0  0
   20.1808  -29.0747  -10.4528 C   0  0  0  0  0  0  0  0  0  0  0  0
   20.0052  -27.6540  -10.0762 C   0  0  0  0  0  0  0  0  0  0  0  0
   19.8045  -26.7873  -11.2704 C   0  0  2  0  0  0  0  0  0  0  0  0
   21.0233  -26.6531  -12.0592 N   0  0  0  0  0  0  0  0  0  0  0  0
   19.2013  -25.4650  -10.9939 C   0  0  0  0  0  0  0  0  0  0  0  0
   19.7084  -24.5986  -10.2400 O   0  0  0  0  0  0  0  0  0  0  0  0
   19.1125  -29.8580  -10.8838 C   0  0  0  0  0  0  0  0  0  0  0  0
   19.2347  -31.1812  -11.2405 C   0  0  0  0  0  0  0  0  0  0  0  0
   16.0421  -21.3764  -14.0784 N   0  0  0  0  0  0  0  0  0  0  0  0
   16.8705  -22.4130  -14.5838 C   0  0  0  0  0  0  0  0  0  0  0  0
   16.7761  -22.6807  -15.8023 O   0  0  0  0  0  0  0  0  0  0  0  0
   17.8021  -23.1473  -13.7304 C   0  0  0  0  0  0  0  0  0  0  0  0
   17.8350  -22.7301  -12.2949 C   0  0  0  0  0  0  0  0  0  0  0  0
   17.3631  -23.7731  -11.3226 C   0  0  2  0  0  0  0  0  0  0  0  0
   17.9481  -25.0741  -11.5945 N   0  0  0  0  0  0  0  0  0  0  0  0
   15.8842  -23.9152  -11.4572 C   0  0  0  0  0  0  0  0  0  0  0  0
   15.0106  -22.8687  -11.1744 O   0  0  0  0  0  0  0  0  0  0  0  0
   15.3956  -24.9993  -11.8341 O   0  0  0  0  0  0  0  0  0  0  0  0
  2  1  1  1
  2  3  1  0
  4  2  1  0
  5  4  1  0
  5  6  1  6
  7  5  1  0
  7  8  2  0
  9 10  1  0
 10 11  2  0
 11 12  1  0
 13 12  2  0
 13 14  1  0
 15 14  1  1
 15 16  1  0
 16  7  1  0
 17 15  1  0
 18 17  2  0
 19 13  1  0
 20 10  1  0
 20 19  2  0
 21 22  1  0
 22 23  2  0
 22 24  1  0
 24 25  1  0
 26 25  1  6
 26 27  1  0
 27 17  1  0
 28 29  1  0
 28 26  1  0
 30 28  2  0
M  END
$$$$
