LYQ.pdb
     RDKit          3D

 30 30  0  0  1  0  0  0  0  0999 V2000
   14.3582  -11.2560  -16.1615 C   0  0  0  0  0  0  0  0  0  0  0  0
   15.8257  -10.9378  -16.2996 C   0  0  1  0  0  0  0  0  0  0  0  0
   15.9464   -9.8217  -17.3166 C   0  0  0  0  0  0  0  0  0  0  0  0
   16.4647  -10.5838  -14.9796 C   0  0  0  0  0  0  0  0  0  0  0  0
   17.8687  -10.0757  -15.1438 C   0  0  2  0  0  0  0  0  0  0  0  0
   18.7570  -11.2185  -15.0946 N   0  0  0  0  0  0  0  0  0  0  0  0
   18.2049   -9.1821  -14.0342 C   0  0  0  0  0  0  0  0  0  0  0  0
   18.4250   -9.6253  -12.8748 O   0  0  0  0  0  0  0  0  0  0  0  0
   24.3091   -8.9099  -15.2587 O   0  0  0  0  0  0  0  0  0  0  0  0
   23.2054   -8.1949  -14.8094 C   0  0  0  0  0  0  0  0  0  0  0  0
   22.9577   -8.0200  -13.4582 C   0  0  0  0  0  0  0  0  0  0  0  0
   21.8649   -7.3120  -13.0062 C   0  0  0  0  0  0  0  0  0  0  0  0
   20.9603   -6.7406  -13.8842 C   0  0  0  0  0  0  0  0  0  0  0  0
   19.7779   -5.9774  -13.4256 C   0  0  0  0  0  0  0  0  0  0  0  0
   18.6391   -6.8752  -13.0867 C   0  0  2  0  0  0  0  0  0  0  0  0
   18.3048   -7.7727  -14.1861 N   0  0  0  0  0  0  0  0  0  0  0  0
   17.4319   -6.1930  -12.5710 C   0  0  0  0  0  0  0  0  0  0  0  0
   16.5549   -5.6611  -13.2949 O   0  0  0  0  0  0  0  0  0  0  0  0
   21.2325   -6.9312  -15.2370 C   0  0  0  0  0  0  0  0  0  0  0  0
   22.3191   -7.6353  -15.7025 C   0  0  0  0  0  0  0  0  0  0  0  0
   15.1258   -6.2198   -6.4419 N   0  0  0  0  0  0  0  0  0  0  0  0
   14.2145   -5.4728   -7.2342 C   0  0  0  0  0  0  0  0  0  0  0  0
   13.1787   -5.0506   -6.6735 O   0  0  0  0  0  0  0  0  0  0  0  0
   14.4604   -5.1976   -8.6481 C   0  0  0  0  0  0  0  0  0  0  0  0
   15.6909   -5.8197   -9.2265 C   0  0  0  0  0  0  0  0  0  0  0  0
   15.9751   -5.4492  -10.6540 C   0  0  2  0  0  0  0  0  0  0  0  0
   17.1775   -6.0925  -11.1535 N   0  0  0  0  0  0  0  0  0  0  0  0
   16.1971   -3.9759  -10.7286 C   0  0  0  0  0  0  0  0  0  0  0  0
   15.1631   -3.0839  -10.9996 O   0  0  0  0  0  0  0  0  0  0  0  0
   17.3392   -3.5092  -10.5451 O   0  0  0  0  0  0  0  0  0  0  0  0
  2  1  1  1
  2  3  1  0
  4  2  1  0
  5  4  1  0
  5  6  1  1
  7  5  1  0
  7  8  2  0
  9 10  1  0
 10 11  2  0
 11 12  1  0
 13 12  2  0
 13 14  1  0
 15 14  1  6
 15 16  1  0
 16  7  1  0
 17 15  1  0
 18 17  2  0
 19 13  1  0
 20 10  1  0
 20 19  2  0
 21 22  1  0
 22 23  2  0
 22 24  1  0
 24 25  1  0
 26 25  1  1
 26 27  1  0
 27 17  1  0
 28 29  1  0
 28 26  1  0
 30 28  2  0
M  END
$$$$
