LYQ.pdb
     RDKit          3D

 30 30  0  0  1  0  0  0  0  0999 V2000
   28.3977  -10.2420  -16.1971 C   0  0  0  0  0  0  0  0  0  0  0  0
   27.1034  -10.8026  -16.7305 C   0  0  1  0  0  0  0  0  0  0  0  0
   27.1018  -12.2868  -16.4280 C   0  0  0  0  0  0  0  0  0  0  0  0
   25.8948  -10.0995  -16.1641 C   0  0  0  0  0  0  0  0  0  0  0  0
   24.6064  -10.7160  -16.6293 C   0  0  2  0  0  0  0  0  0  0  0  0
   24.7184  -10.9417  -18.0555 N   0  0  0  0  0  0  0  0  0  0  0  0
   23.4998   -9.7868  -16.3949 C   0  0  0  0  0  0  0  0  0  0  0  0
   23.1834   -9.4191  -15.2315 O   0  0  0  0  0  0  0  0  0  0  0  0
   23.4235   -2.5206  -14.9721 O   0  0  0  0  0  0  0  0  0  0  0  0
   23.0418   -3.6217  -15.7292 C   0  0  0  0  0  0  0  0  0  0  0  0
   21.7155   -4.0074  -15.8277 C   0  0  0  0  0  0  0  0  0  0  0  0
   21.3305   -5.0984  -16.5769 C   0  0  0  0  0  0  0  0  0  0  0  0
   22.2542   -5.8626  -17.2685 C   0  0  0  0  0  0  0  0  0  0  0  0
   21.8682   -7.0399  -18.0783 C   0  0  0  0  0  0  0  0  0  0  0  0
   21.6712   -8.2503  -17.2335 C   0  0  2  0  0  0  0  0  0  0  0  0
   22.7169   -9.2432  -17.4490 N   0  0  0  0  0  0  0  0  0  0  0  0
   20.3282   -8.8650  -17.3182 C   0  0  0  0  0  0  0  0  0  0  0  0
   19.8896   -9.4732  -18.3251 O   0  0  0  0  0  0  0  0  0  0  0  0
   23.5808   -5.4534  -17.1528 C   0  0  0  0  0  0  0  0  0  0  0  0
   23.9795   -4.3668  -16.4088 C   0  0  0  0  0  0  0  0  0  0  0  0
   17.2923  -12.5415  -13.6028 N   0  0  0  0  0  0  0  0  0  0  0  0
   17.9070  -12.7773  -14.8610 C   0  0  0  0  0  0  0  0  0  0  0  0
   18.2265  -13.9563  -15.1317 O   0  0  0  0  0  0  0  0  0  0  0  0
   18.1629  -11.6992  -15.8136 C   0  0  0  0  0  0  0  0  0  0  0  0
   17.6809  -10.3439  -15.4058 C   0  0  0  0  0  0  0  0  0  0  0  0
   18.0277   -9.2364  -16.3592 C   0  0  2  0  0  0  0  0  0  0  0  0
   19.4053   -8.8021  -16.2098 N   0  0  0  0  0  0  0  0  0  0  0  0
   17.1578   -8.0616  -16.0613 C   0  0  0  0  0  0  0  0  0  0  0  0
   17.6804   -6.8380  -15.6515 O   0  0  0  0  0  0  0  0  0  0  0  0
   15.9197   -8.1594  -16.1774 O   0  0  0  0  0  0  0  0  0  0  0  0
  2  1  1  1
  2  3  1  0
  4  2  1  0
  5  4  1  0
  5  6  1  6
  7  5  1  0
  7  8  2  0
  9 10  1  0
 10 11  2  0
 11 12  1  0
 13 12  2  0
 13 14  1  0
 15 14  1  6
 15 16  1  0
 16  7  1  0
 17 15  1  0
 18 17  2  0
 19 13  1  0
 20 10  1  0
 20 19  2  0
 21 22  1  0
 22 23  2  0
 22 24  1  0
 24 25  1  0
 26 25  1  1
 26 27  1  0
 27 17  1  0
 28 29  1  0
 28 26  1  0
 30 28  2  0
M  END
$$$$
