LYQ.pdb
     RDKit          3D

 30 30  0  0  1  0  0  0  0  0999 V2000
   27.2407  -19.3348   -6.7818 C   0  0  0  0  0  0  0  0  0  0  0  0
   27.2113  -20.3146   -7.9276 C   0  0  1  0  0  0  0  0  0  0  0  0
   27.9368  -21.5619   -7.4668 C   0  0  0  0  0  0  0  0  0  0  0  0
   25.8084  -20.6071   -8.3991 C   0  0  0  0  0  0  0  0  0  0  0  0
   25.7876  -21.2999   -9.7318 C   0  0  2  0  0  0  0  0  0  0  0  0
   27.0642  -21.9627   -9.9012 N   0  0  0  0  0  0  0  0  0  0  0  0
   25.6355  -20.3120  -10.8012 C   0  0  0  0  0  0  0  0  0  0  0  0
   24.6660  -19.5065  -10.8209 O   0  0  0  0  0  0  0  0  0  0  0  0
   26.7023  -15.9570  -18.4623 O   0  0  0  0  0  0  0  0  0  0  0  0
   26.9226  -16.6851  -17.2994 C   0  0  0  0  0  0  0  0  0  0  0  0
   26.8859  -16.0849  -16.0520 C   0  0  0  0  0  0  0  0  0  0  0  0
   27.1035  -16.8016  -14.8949 C   0  0  0  0  0  0  0  0  0  0  0  0
   27.3700  -18.1594  -14.9250 C   0  0  0  0  0  0  0  0  0  0  0  0
   27.6094  -18.9520  -13.6981 C   0  0  0  0  0  0  0  0  0  0  0  0
   26.3346  -19.3268  -13.0257 C   0  0  2  0  0  0  0  0  0  0  0  0
   26.5579  -20.1949  -11.8758 N   0  0  0  0  0  0  0  0  0  0  0  0
   25.2926  -19.8821  -13.9172 C   0  0  0  0  0  0  0  0  0  0  0  0
   25.0317  -21.1052  -14.0262 O   0  0  0  0  0  0  0  0  0  0  0  0
   27.4012  -18.7384  -16.1916 C   0  0  0  0  0  0  0  0  0  0  0  0
   27.1859  -18.0357  -17.3547 C   0  0  0  0  0  0  0  0  0  0  0  0
   20.3103  -20.4326  -12.1195 N   0  0  0  0  0  0  0  0  0  0  0  0
   20.8604  -21.4585  -12.9327 C   0  0  0  0  0  0  0  0  0  0  0  0
   20.4981  -22.6330  -12.6985 O   0  0  0  0  0  0  0  0  0  0  0  0
   21.8113  -21.1726  -14.0048 C   0  0  0  0  0  0  0  0  0  0  0  0
   22.2190  -19.7411  -14.1468 C   0  0  0  0  0  0  0  0  0  0  0  0
   23.1968  -19.4693  -15.2541 C   0  0  2  0  0  0  0  0  0  0  0  0
   24.4820  -19.0224  -14.7467 N   0  0  0  0  0  0  0  0  0  0  0  0
   22.6540  -18.3755  -16.1111 C   0  0  0  0  0  0  0  0  0  0  0  0
   21.7064  -18.6127  -17.1030 O   0  0  0  0  0  0  0  0  0  0  0  0
   23.0499  -17.2038  -15.9486 O   0  0  0  0  0  0  0  0  0  0  0  0
  2  1  1  1
  2  3  1  0
  4  2  1  0
  5  4  1  0
  5  6  1  6
  7  5  1  0
  7  8  2  0
  9 10  1  0
 10 11  2  0
 11 12  1  0
 13 12  2  0
 13 14  1  0
 15 14  1  6
 15 16  1  0
 16  7  1  0
 17 15  1  0
 18 17  2  0
 19 13  1  0
 20 10  1  0
 20 19  2  0
 21 22  1  0
 22 23  2  0
 22 24  1  0
 24 25  1  0
 26 25  1  1
 26 27  1  0
 27 17  1  0
 28 29  1  0
 28 26  1  0
 30 28  2  0
M  END
$$$$
