LYQ.pdb
     RDKit          3D

 30 30  0  0  1  0  0  0  0  0999 V2000
   24.5370  -31.2220   -8.8865 C   0  0  0  0  0  0  0  0  0  0  0  0
   25.1817  -32.5302   -8.5033 C   0  0  1  0  0  0  0  0  0  0  0  0
   26.4609  -32.6491   -9.3058 C   0  0  0  0  0  0  0  0  0  0  0  0
   25.4230  -32.6397   -7.0181 C   0  0  0  0  0  0  0  0  0  0  0  0
   26.1666  -33.8925   -6.6521 C   0  0  2  0  0  0  0  0  0  0  0  0
   25.4424  -35.0127   -7.2164 N   0  0  0  0  0  0  0  0  0  0  0  0
   26.1921  -34.0460   -5.1966 C   0  0  0  0  0  0  0  0  0  0  0  0
   26.8000  -33.2250   -4.4581 O   0  0  0  0  0  0  0  0  0  0  0  0
   20.4596  -31.6797   -2.3499 O   0  0  0  0  0  0  0  0  0  0  0  0
   21.4147  -32.6885   -2.3830 C   0  0  0  0  0  0  0  0  0  0  0  0
   22.2331  -32.9460   -1.2960 C   0  0  0  0  0  0  0  0  0  0  0  0
   23.1823  -33.9451   -1.3225 C   0  0  0  0  0  0  0  0  0  0  0  0
   23.3630  -34.7409   -2.4403 C   0  0  0  0  0  0  0  0  0  0  0  0
   24.3760  -35.8187   -2.4960 C   0  0  0  0  0  0  0  0  0  0  0  0
   25.6561  -35.3428   -3.0897 C   0  0  2  0  0  0  0  0  0  0  0  0
   25.5419  -35.1167   -4.5255 N   0  0  0  0  0  0  0  0  0  0  0  0
   26.8418  -36.1694   -2.7739 C   0  0  0  0  0  0  0  0  0  0  0  0
   27.4903  -36.8309   -3.6211 O   0  0  0  0  0  0  0  0  0  0  0  0
   22.5274  -34.4613   -3.5193 C   0  0  0  0  0  0  0  0  0  0  0  0
   21.5759  -33.4676   -3.5070 C   0  0  0  0  0  0  0  0  0  0  0  0
   33.0586  -36.0849   -0.2282 N   0  0  0  0  0  0  0  0  0  0  0  0
   32.2061  -36.1038   -1.3637 C   0  0  0  0  0  0  0  0  0  0  0  0
   32.4626  -35.2999   -2.2875 O   0  0  0  0  0  0  0  0  0  0  0  0
   31.0714  -37.0187   -1.4668 C   0  0  0  0  0  0  0  0  0  0  0  0
   29.7600  -36.3906   -1.8149 C   0  0  0  0  0  0  0  0  0  0  0  0
   28.5670  -37.0005   -1.1360 C   0  0  2  0  0  0  0  0  0  0  0  0
   27.3453  -36.2706   -1.4247 N   0  0  0  0  0  0  0  0  0  0  0  0
   28.7786  -36.9447    0.3396 C   0  0  0  0  0  0  0  0  0  0  0  0
   29.7932  -37.6598    0.9700 O   0  0  0  0  0  0  0  0  0  0  0  0
   28.0323  -36.2400    1.0485 O   0  0  0  0  0  0  0  0  0  0  0  0
  2  1  1  1
  2  3  1  0
  4  2  1  0
  5  4  1  0
  5  6  1  6
  7  5  1  0
  7  8  2  0
  9 10  1  0
 10 11  2  0
 11 12  1  0
 13 12  2  0
 13 14  1  0
 15 14  1  6
 15 16  1  0
 16  7  1  0
 17 15  1  0
 18 17  2  0
 19 13  1  0
 20 10  1  0
 20 19  2  0
 21 22  1  0
 22 23  2  0
 22 24  1  0
 24 25  1  0
 26 25  1  6
 26 27  1  0
 27 17  1  0
 28 29  1  0
 28 26  1  0
 30 28  2  0
M  END
$$$$
