LYQ.pdb
     RDKit          3D

 30 30  0  0  1  0  0  0  0  0999 V2000
   27.8297  -18.8491   -6.0990 C   0  0  0  0  0  0  0  0  0  0  0  0
   27.7488  -19.9671   -7.1077 C   0  0  1  0  0  0  0  0  0  0  0  0
   28.2490  -21.2224   -6.4233 C   0  0  0  0  0  0  0  0  0  0  0  0
   26.3595  -20.1346   -7.6712 C   0  0  0  0  0  0  0  0  0  0  0  0
   26.3261  -21.0873   -8.8322 C   0  0  2  0  0  0  0  0  0  0  0  0
   27.6642  -21.6136   -9.0058 N   0  0  0  0  0  0  0  0  0  0  0  0
   25.9512  -20.3692  -10.0514 C   0  0  0  0  0  0  0  0  0  0  0  0
   24.8752  -19.7169  -10.1274 O   0  0  0  0  0  0  0  0  0  0  0  0
   26.3547  -16.3378  -17.9245 O   0  0  0  0  0  0  0  0  0  0  0  0
   26.6711  -17.0002  -16.7445 C   0  0  0  0  0  0  0  0  0  0  0  0
   27.0010  -18.3451  -16.7358 C   0  0  0  0  0  0  0  0  0  0  0  0
   27.3158  -19.0078  -15.5690 C   0  0  0  0  0  0  0  0  0  0  0  0
   27.3171  -18.3584  -14.3467 C   0  0  0  0  0  0  0  0  0  0  0  0
   27.6492  -19.0465  -13.0790 C   0  0  0  0  0  0  0  0  0  0  0  0
   26.4338  -19.5886  -12.4106 C   0  0  2  0  0  0  0  0  0  0  0  0
   26.7638  -20.3584  -11.2172 N   0  0  0  0  0  0  0  0  0  0  0  0
   25.5139  -20.3411  -13.2917 C   0  0  0  0  0  0  0  0  0  0  0  0
   25.6064  -21.5706  -13.5279 O   0  0  0  0  0  0  0  0  0  0  0  0
   26.9820  -17.0068  -14.3832 C   0  0  0  0  0  0  0  0  0  0  0  0
   26.6657  -16.3325  -15.5401 C   0  0  0  0  0  0  0  0  0  0  0  0
   20.2389  -22.8025  -13.4887 N   0  0  0  0  0  0  0  0  0  0  0  0
   20.5380  -21.6110  -12.7766 C   0  0  0  0  0  0  0  0  0  0  0  0
   19.6814  -21.1979  -11.9635 O   0  0  0  0  0  0  0  0  0  0  0  0
   21.7905  -20.8841  -12.9717 C   0  0  0  0  0  0  0  0  0  0  0  0
   22.7206  -21.4553  -13.9936 C   0  0  0  0  0  0  0  0  0  0  0  0
   23.4886  -20.4379  -14.7880 C   0  0  2  0  0  0  0  0  0  0  0  0
   24.4137  -19.6861  -13.9586 N   0  0  0  0  0  0  0  0  0  0  0  0
   22.5233  -19.4619  -15.3720 C   0  0  0  0  0  0  0  0  0  0  0  0
   21.6021  -19.8262  -16.3502 O   0  0  0  0  0  0  0  0  0  0  0  0
   22.5263  -18.2764  -14.9839 O   0  0  0  0  0  0  0  0  0  0  0  0
  2  1  1  1
  2  3  1  0
  4  2  1  0
  5  4  1  0
  5  6  1  6
  7  5  1  0
  7  8  2  0
  9 10  1  0
 10 11  2  0
 11 12  1  0
 13 12  2  0
 13 14  1  0
 15 14  1  6
 15 16  1  0
 16  7  1  0
 17 15  1  0
 18 17  2  0
 19 13  1  0
 20 10  1  0
 20 19  2  0
 21 22  1  0
 22 23  2  0
 22 24  1  0
 24 25  1  0
 26 25  1  1
 26 27  1  0
 27 17  1  0
 28 29  1  0
 28 26  1  0
 30 28  2  0
M  END
$$$$
