LYQ.pdb
     RDKit          3D

 30 30  0  0  1  0  0  0  0  0999 V2000
   27.2618  -17.9119  -17.2203 C   0  0  0  0  0  0  0  0  0  0  0  0
   27.7669  -18.7985  -16.1101 C   0  0  1  0  0  0  0  0  0  0  0  0
   28.6605  -17.9479  -15.2313 C   0  0  0  0  0  0  0  0  0  0  0  0
   26.6460  -19.4453  -15.3347 C   0  0  0  0  0  0  0  0  0  0  0  0
   27.1509  -20.2877  -14.1981 C   0  0  2  0  0  0  0  0  0  0  0  0
   27.8201  -21.4384  -14.7690 N   0  0  0  0  0  0  0  0  0  0  0  0
   26.0232  -20.7620  -13.3942 C   0  0  0  0  0  0  0  0  0  0  0  0
   25.5208  -21.9041  -13.5731 O   0  0  0  0  0  0  0  0  0  0  0  0
   29.1094  -20.7735   -7.3799 O   0  0  0  0  0  0  0  0  0  0  0  0
   27.9290  -20.5334   -8.0729 C   0  0  0  0  0  0  0  0  0  0  0  0
   27.1421  -19.4271   -7.8002 C   0  0  0  0  0  0  0  0  0  0  0  0
   25.9703  -19.1834   -8.4839 C   0  0  0  0  0  0  0  0  0  0  0  0
   25.5232  -20.0357   -9.4785 C   0  0  0  0  0  0  0  0  0  0  0  0
   24.2680  -19.7988  -10.2263 C   0  0  0  0  0  0  0  0  0  0  0  0
   24.2975  -20.4387  -11.5707 C   0  0  2  0  0  0  0  0  0  0  0  0
   25.4258  -19.9777  -12.3708 N   0  0  0  0  0  0  0  0  0  0  0  0
   23.0336  -20.3549  -12.3352 C   0  0  0  0  0  0  0  0  0  0  0  0
   22.7422  -19.4213  -13.1222 O   0  0  0  0  0  0  0  0  0  0  0  0
   26.3328  -21.1404   -9.7330 C   0  0  0  0  0  0  0  0  0  0  0  0
   27.5046  -21.3962   -9.0588 C   0  0  0  0  0  0  0  0  0  0  0  0
   19.8281  -25.2331  -14.5352 N   0  0  0  0  0  0  0  0  0  0  0  0
   20.8808  -24.4649  -15.0992 C   0  0  0  0  0  0  0  0  0  0  0  0
   21.5087  -24.9679  -16.0574 O   0  0  0  0  0  0  0  0  0  0  0  0
   21.2296  -23.1386  -14.5948 C   0  0  0  0  0  0  0  0  0  0  0  0
   20.3419  -22.5982  -13.5199 C   0  0  0  0  0  0  0  0  0  0  0  0
   20.7703  -21.2754  -12.9518 C   0  0  2  0  0  0  0  0  0  0  0  0
   22.0208  -21.3773  -12.2205 N   0  0  0  0  0  0  0  0  0  0  0  0
   19.7301  -20.8112  -11.9886 C   0  0  0  0  0  0  0  0  0  0  0  0
   18.4608  -20.4163  -12.4025 O   0  0  0  0  0  0  0  0  0  0  0  0
   19.9871  -20.7686  -10.7687 O   0  0  0  0  0  0  0  0  0  0  0  0
  2  1  1  6
  2  3  1  0
  4  2  1  0
  5  4  1  0
  5  6  1  6
  7  5  1  0
  7  8  2  0
  9 10  1  0
 10 11  2  0
 11 12  1  0
 13 12  2  0
 13 14  1  0
 15 14  1  1
 15 16  1  0
 16  7  1  0
 17 15  1  0
 18 17  2  0
 19 13  1  0
 20 10  1  0
 20 19  2  0
 21 22  1  0
 22 23  2  0
 22 24  1  0
 24 25  1  0
 26 25  1  1
 26 27  1  0
 27 17  1  0
 28 29  1  0
 28 26  1  0
 30 28  2  0
M  END
$$$$
