LYQ.pdb
     RDKit          3D

 30 30  0  0  1  0  0  0  0  0999 V2000
   23.8484  -32.2316   -7.3282 C   0  0  0  0  0  0  0  0  0  0  0  0
   25.0790  -32.6862   -8.0716 C   0  0  1  0  0  0  0  0  0  0  0  0
   25.8120  -31.4405   -8.5249 C   0  0  0  0  0  0  0  0  0  0  0  0
   25.9505  -33.5952   -7.2408 C   0  0  0  0  0  0  0  0  0  0  0  0
   27.2062  -33.9960   -7.9611 C   0  0  2  0  0  0  0  0  0  0  0  0
   26.8421  -34.9728   -8.9665 N   0  0  0  0  0  0  0  0  0  0  0  0
   28.1363  -34.6254   -7.0222 C   0  0  0  0  0  0  0  0  0  0  0  0
   28.0191  -35.8358   -6.6903 O   0  0  0  0  0  0  0  0  0  0  0  0
   35.3418  -36.8540   -2.5260 O   0  0  0  0  0  0  0  0  0  0  0  0
   34.4188  -36.1629   -3.3016 C   0  0  0  0  0  0  0  0  0  0  0  0
   33.8074  -35.0086   -2.8420 C   0  0  0  0  0  0  0  0  0  0  0  0
   32.8911  -34.3187   -3.6063 C   0  0  0  0  0  0  0  0  0  0  0  0
   32.5374  -34.7483   -4.8736 C   0  0  0  0  0  0  0  0  0  0  0  0
   31.5551  -34.0278   -5.7142 C   0  0  0  0  0  0  0  0  0  0  0  0
   30.1747  -34.5530   -5.5230 C   0  0  2  0  0  0  0  0  0  0  0  0
   29.2205  -33.9243   -6.4285 N   0  0  0  0  0  0  0  0  0  0  0  0
   29.6801  -34.5296   -4.1289 C   0  0  0  0  0  0  0  0  0  0  0  0
   29.3068  -33.4932   -3.5268 O   0  0  0  0  0  0  0  0  0  0  0  0
   33.1665  -35.9113   -5.3119 C   0  0  0  0  0  0  0  0  0  0  0  0
   34.0828  -36.6101   -4.5600 C   0  0  0  0  0  0  0  0  0  0  0  0
   26.8620  -37.4864    0.7951 N   0  0  0  0  0  0  0  0  0  0  0  0
   26.1445  -36.8531   -0.2539 C   0  0  0  0  0  0  0  0  0  0  0  0
   24.9340  -36.6073   -0.0546 O   0  0  0  0  0  0  0  0  0  0  0  0
   26.7781  -36.4947   -1.5210 C   0  0  0  0  0  0  0  0  0  0  0  0
   28.2234  -36.8555   -1.6495 C   0  0  0  0  0  0  0  0  0  0  0  0
   29.1360  -35.7057   -1.9677 C   0  0  2  0  0  0  0  0  0  0  0  0
   29.5925  -35.7394   -3.3458 N   0  0  0  0  0  0  0  0  0  0  0  0
   30.3443  -35.8019   -1.0981 C   0  0  0  0  0  0  0  0  0  0  0  0
   30.3180  -35.4486    0.2483 O   0  0  0  0  0  0  0  0  0  0  0  0
   31.4224  -36.2099   -1.5747 O   0  0  0  0  0  0  0  0  0  0  0  0
  2  1  1  1
  2  3  1  0
  4  2  1  0
  5  4  1  0
  5  6  1  6
  7  5  1  0
  7  8  2  0
  9 10  1  0
 10 11  2  0
 11 12  1  0
 13 12  2  0
 13 14  1  0
 15 14  1  1
 15 16  1  0
 16  7  1  0
 17 15  1  0
 18 17  2  0
 19 13  1  0
 20 10  1  0
 20 19  2  0
 21 22  1  0
 22 23  2  0
 22 24  1  0
 24 25  1  0
 26 25  1  6
 26 27  1  0
 27 17  1  0
 28 29  1  0
 28 26  1  0
 30 28  2  0
M  END
$$$$
