QAV.pdb
     RDKit          3D

 22 21  0  0  1  0  0  0  0  0999 V2000
    8.3135  -12.2400   19.0568 N   0  0  0  0  0  0  0  0  0  0  0  0
    7.7857  -13.3541   18.3222 C   0  0  0  0  0  0  0  0  0  0  0  0
    7.9353  -13.3217   17.0868 O   0  0  0  0  0  0  0  0  0  0  0  0
    7.1221  -14.4178   19.0673 C   0  0  0  0  0  0  0  0  0  0  0  0
    7.1231  -14.2927   20.5619 C   0  0  0  0  0  0  0  0  0  0  0  0
    7.9871  -15.3235   21.1815 C   0  0  2  0  0  0  0  0  0  0  0  0
    7.7891  -16.6302   20.6246 N   0  0  0  0  0  0  0  0  0  0  0  0
    7.8120  -15.4164   22.6577 C   0  0  0  0  0  0  0  0  0  0  0  0
    7.7405  -14.3703   23.3469 O   0  0  0  0  0  0  0  0  0  0  0  0
    7.0492  -18.0877   25.1354 C   0  0  0  0  0  0  0  0  0  0  0  0
    7.5643  -16.6878   24.7922 C   0  0  2  0  0  0  0  0  0  0  0  0
    7.7184  -16.6537   23.3512 N   0  0  0  0  0  0  0  0  0  0  0  0
    8.8204  -16.3891   25.5050 C   0  0  0  0  0  0  0  0  0  0  0  0
    9.8930  -16.7587   24.9632 O   0  0  0  0  0  0  0  0  0  0  0  0
    8.9475  -14.0613   29.1923 C   0  0  0  0  0  0  0  0  0  0  0  0
   10.0286  -14.1238   28.1409 C   0  0  2  0  0  0  0  0  0  0  0  0
    9.7775  -13.0553   27.1012 C   0  0  0  0  0  0  0  0  0  0  0  0
   10.1026  -15.5066   27.4923 C   0  0  2  0  0  0  0  0  0  0  0  0
    8.9015  -15.7202   26.7472 N   0  0  0  0  0  0  0  0  0  0  0  0
   10.3402  -16.5493   28.5168 C   0  0  0  0  0  0  0  0  0  0  0  0
    9.3930  -17.2800   28.8958 O   0  0  0  0  0  0  0  0  0  0  0  0
   11.5893  -16.7513   29.0814 O   0  0  0  0  0  0  0  0  0  0  0  0
  1  2  1  0
  2  3  2  0
  2  4  1  0
  4  5  1  0
  5  6  1  0
  6  8  1  0
  6  7  1  6
  8  9  2  0
 11 10  1  1
 11 13  1  0
 12  8  1  0
 12 11  1  0
 13 14  2  0
 16 15  1  1
 16 18  1  0
 17 16  1  0
 18 20  1  0
 18 19  1  1
 19 13  1  0
 20 21  2  0
 20 22  1  0
M  END
$$$$
