QAV.pdb
     RDKit          3D

 22 21  0  0  1  0  0  0  0  0999 V2000
   10.4749  -12.5417   20.3322 N   0  0  0  0  0  0  0  0  0  0  0  0
    9.2834  -12.9195   19.6275 C   0  0  0  0  0  0  0  0  0  0  0  0
    9.4146  -13.1700   18.4152 O   0  0  0  0  0  0  0  0  0  0  0  0
    8.0311  -12.9753   20.3729 C   0  0  0  0  0  0  0  0  0  0  0  0
    7.0116  -13.9687   19.9002 C   0  0  0  0  0  0  0  0  0  0  0  0
    7.4251  -15.3524   20.2278 C   0  0  2  0  0  0  0  0  0  0  0  0
    6.6139  -16.3469   19.5876 N   0  0  0  0  0  0  0  0  0  0  0  0
    7.4264  -15.6263   21.6918 C   0  0  0  0  0  0  0  0  0  0  0  0
    6.3788  -15.4574   22.3614 O   0  0  0  0  0  0  0  0  0  0  0  0
    9.0339  -17.9581   23.7915 C   0  0  0  0  0  0  0  0  0  0  0  0
    8.4752  -16.5332   23.7682 C   0  0  2  0  0  0  0  0  0  0  0  0
    8.5755  -16.0801   22.3949 N   0  0  0  0  0  0  0  0  0  0  0  0
    9.1989  -15.6582   24.7093 C   0  0  0  0  0  0  0  0  0  0  0  0
   10.3284  -15.2365   24.3528 O   0  0  0  0  0  0  0  0  0  0  0  0
    7.2788  -13.8844   28.0974 C   0  0  0  0  0  0  0  0  0  0  0  0
    8.4895  -13.3325   27.3849 C   0  0  2  0  0  0  0  0  0  0  0  0
    8.0391  -12.4812   26.2195 C   0  0  0  0  0  0  0  0  0  0  0  0
    9.4221  -14.4491   26.9140 C   0  0  2  0  0  0  0  0  0  0  0  0
    8.7137  -15.2631   25.9765 N   0  0  0  0  0  0  0  0  0  0  0  0
    9.9397  -15.2164   28.0701 C   0  0  0  0  0  0  0  0  0  0  0  0
    9.5027  -16.3700   28.3003 O   0  0  0  0  0  0  0  0  0  0  0  0
   10.9037  -14.6996   28.9207 O   0  0  0  0  0  0  0  0  0  0  0  0
  1  2  1  0
  2  3  2  0
  2  4  1  0
  4  5  1  0
  5  6  1  0
  6  8  1  0
  6  7  1  6
  8  9  2  0
 11 10  1  6
 11 13  1  0
 12  8  1  0
 12 11  1  0
 13 14  2  0
 16 15  1  6
 16 18  1  0
 17 16  1  0
 18 20  1  0
 18 19  1  6
 19 13  1  0
 20 21  2  0
 20 22  1  0
M  END
$$$$
