QAV.pdb
     RDKit          3D

 22 21  0  0  1  0  0  0  0  0999 V2000
   15.3281  -18.6552   21.6330 N   0  0  0  0  0  0  0  0  0  0  0  0
   14.6341  -17.4025   21.7256 C   0  0  0  0  0  0  0  0  0  0  0  0
   15.1083  -16.5656   22.5157 O   0  0  0  0  0  0  0  0  0  0  0  0
   13.4443  -17.2122   20.9039 C   0  0  0  0  0  0  0  0  0  0  0  0
   12.3382  -18.2093   21.0821 C   0  0  0  0  0  0  0  0  0  0  0  0
   11.0237  -17.6095   20.7576 C   0  0  2  0  0  0  0  0  0  0  0  0
   11.0983  -16.6225   19.7197 N   0  0  0  0  0  0  0  0  0  0  0  0
   10.3605  -16.9914   21.9393 C   0  0  0  0  0  0  0  0  0  0  0  0
   10.3866  -15.7463   22.0921 O   0  0  0  0  0  0  0  0  0  0  0  0
    7.8513  -18.0928   24.4222 C   0  0  0  0  0  0  0  0  0  0  0  0
    8.9206  -17.0924   23.9766 C   0  0  2  0  0  0  0  0  0  0  0  0
    9.6809  -17.7492   22.9316 N   0  0  0  0  0  0  0  0  0  0  0  0
    9.7629  -16.6674   25.1103 C   0  0  0  0  0  0  0  0  0  0  0  0
   10.8726  -17.2414   25.2515 O   0  0  0  0  0  0  0  0  0  0  0  0
   10.5343  -13.2841   28.7080 C   0  0  0  0  0  0  0  0  0  0  0  0
    9.6506  -13.8987   27.6498 C   0  0  2  0  0  0  0  0  0  0  0  0
    8.2739  -14.1400   28.2263 C   0  0  0  0  0  0  0  0  0  0  0  0
   10.2467  -15.1969   27.1042 C   0  0  2  0  0  0  0  0  0  0  0  0
    9.4113  -15.6659   26.0433 N   0  0  0  0  0  0  0  0  0  0  0  0
   10.4131  -16.1895   28.1906 C   0  0  0  0  0  0  0  0  0  0  0  0
   11.3539  -16.0650   29.0117 O   0  0  0  0  0  0  0  0  0  0  0  0
    9.5550  -17.2675   28.3365 O   0  0  0  0  0  0  0  0  0  0  0  0
  1  2  1  0
  2  3  2  0
  2  4  1  0
  4  5  1  0
  5  6  1  0
  6  8  1  0
  6  7  1  6
  8  9  2  0
 11 10  1  1
 11 13  1  0
 12  8  1  0
 12 11  1  0
 13 14  2  0
 16 15  1  1
 16 18  1  0
 17 16  1  0
 18 20  1  0
 18 19  1  6
 19 13  1  0
 20 21  2  0
 20 22  1  0
M  END
$$$$
