QAV.pdb
     RDKit          3D

 22 21  0  0  1  0  0  0  0  0999 V2000
   12.4549  -20.3501   22.6336 N   0  0  0  0  0  0  0  0  0  0  0  0
   11.3864  -20.0645   21.7193 C   0  0  0  0  0  0  0  0  0  0  0  0
   10.3371  -20.7158   21.8753 O   0  0  0  0  0  0  0  0  0  0  0  0
   11.6106  -19.0534   20.6925 C   0  0  0  0  0  0  0  0  0  0  0  0
   11.2793  -17.6375   21.0601 C   0  0  0  0  0  0  0  0  0  0  0  0
    9.8195  -17.3980   20.9929 C   0  0  2  0  0  0  0  0  0  0  0  0
    9.4480  -16.4861   19.9501 N   0  0  0  0  0  0  0  0  0  0  0  0
    9.2550  -16.8921   22.2750 C   0  0  0  0  0  0  0  0  0  0  0  0
    9.3679  -15.6786   22.5734 O   0  0  0  0  0  0  0  0  0  0  0  0
    7.0347  -18.2256   24.9548 C   0  0  0  0  0  0  0  0  0  0  0  0
    8.0102  -17.1738   24.4210 C   0  0  2  0  0  0  0  0  0  0  0  0
    8.5773  -17.7253   23.2062 N   0  0  0  0  0  0  0  0  0  0  0  0
    9.0367  -16.8362   25.4247 C   0  0  0  0  0  0  0  0  0  0  0  0
   10.1381  -17.4377   25.3483 O   0  0  0  0  0  0  0  0  0  0  0  0
    8.7881  -13.2504   27.4088 C   0  0  0  0  0  0  0  0  0  0  0  0
    9.3278  -14.3719   28.2626 C   0  0  2  0  0  0  0  0  0  0  0  0
   10.3993  -13.8300   29.1812 C   0  0  0  0  0  0  0  0  0  0  0  0
    9.8725  -15.5169   27.4079 C   0  0  2  0  0  0  0  0  0  0  0  0
    8.8692  -15.8891   26.4601 N   0  0  0  0  0  0  0  0  0  0  0  0
   10.3050  -16.6449   28.2646 C   0  0  0  0  0  0  0  0  0  0  0  0
    9.4765  -17.5236   28.6057 O   0  0  0  0  0  0  0  0  0  0  0  0
   11.6110  -16.7681   28.7105 O   0  0  0  0  0  0  0  0  0  0  0  0
  1  2  1  0
  2  3  2  0
  2  4  1  0
  4  5  1  0
  5  6  1  0
  6  8  1  0
  6  7  1  6
  8  9  2  0
 11 10  1  1
 11 13  1  0
 12  8  1  0
 12 11  1  0
 13 14  2  0
 16 15  1  6
 16 18  1  0
 17 16  1  0
 18 20  1  0
 18 19  1  6
 19 13  1  0
 20 21  2  0
 20 22  1  0
M  END
$$$$
