QAV.pdb
     RDKit          3D

 22 21  0  0  1  0  0  0  0  0999 V2000
    9.8157  -18.9954   16.5451 N   0  0  0  0  0  0  0  0  0  0  0  0
    8.7124  -18.1654   16.9363 C   0  0  0  0  0  0  0  0  0  0  0  0
    8.4701  -17.1879   16.2045 O   0  0  0  0  0  0  0  0  0  0  0  0
    7.9759  -18.5229   18.1432 C   0  0  0  0  0  0  0  0  0  0  0  0
    7.7446  -17.4254   19.1390 C   0  0  0  0  0  0  0  0  0  0  0  0
    8.4348  -17.7127   20.4173 C   0  0  2  0  0  0  0  0  0  0  0  0
    8.6164  -19.1156   20.6537 N   0  0  0  0  0  0  0  0  0  0  0  0
    7.7373  -17.1295   21.5970 C   0  0  0  0  0  0  0  0  0  0  0  0
    7.3048  -15.9525   21.5501 O   0  0  0  0  0  0  0  0  0  0  0  0
    6.4337  -18.3817   24.8571 C   0  0  0  0  0  0  0  0  0  0  0  0
    6.8241  -17.2376   23.9183 C   0  0  2  0  0  0  0  0  0  0  0  0
    7.5266  -17.8466   22.8061 N   0  0  0  0  0  0  0  0  0  0  0  0
    7.6365  -16.2242   24.6169 C   0  0  0  0  0  0  0  0  0  0  0  0
    8.8860  -16.3111   24.5078 O   0  0  0  0  0  0  0  0  0  0  0  0
    6.2055  -12.4772   25.4395 C   0  0  0  0  0  0  0  0  0  0  0  0
    6.9594  -13.0935   26.5927 C   0  0  2  0  0  0  0  0  0  0  0  0
    7.7382  -12.0167   27.3136 C   0  0  0  0  0  0  0  0  0  0  0  0
    7.8881  -14.2137   26.1226 C   0  0  2  0  0  0  0  0  0  0  0  0
    7.1112  -15.1686   25.3959 N   0  0  0  0  0  0  0  0  0  0  0  0
    8.6079  -14.8090   27.2718 C   0  0  0  0  0  0  0  0  0  0  0  0
    8.1187  -15.7969   27.8715 O   0  0  0  0  0  0  0  0  0  0  0  0
    9.8206  -14.3078   27.7167 O   0  0  0  0  0  0  0  0  0  0  0  0
  1  2  1  0
  2  3  2  0
  2  4  1  0
  4  5  1  0
  5  6  1  0
  6  8  1  0
  6  7  1  1
  8  9  2  0
 11 10  1  1
 11 13  1  0
 12  8  1  0
 12 11  1  0
 13 14  2  0
 16 15  1  6
 16 18  1  0
 17 16  1  0
 18 20  1  0
 18 19  1  1
 19 13  1  0
 20 21  2  0
 20 22  1  0
M  END
$$$$
