QAV.pdb
     RDKit          3D

 22 21  0  0  1  0  0  0  0  0999 V2000
   11.3805  -18.8013   16.9499 N   0  0  0  0  0  0  0  0  0  0  0  0
   10.6613  -18.0650   17.9499 C   0  0  0  0  0  0  0  0  0  0  0  0
   11.2727  -17.1245   18.4897 O   0  0  0  0  0  0  0  0  0  0  0  0
    9.2942  -18.4718   18.2543 C   0  0  0  0  0  0  0  0  0  0  0  0
    8.5182  -17.5810   19.1784 C   0  0  0  0  0  0  0  0  0  0  0  0
    9.0726  -17.6260   20.5509 C   0  0  2  0  0  0  0  0  0  0  0  0
    9.4081  -18.9537   20.9771 N   0  0  0  0  0  0  0  0  0  0  0  0
    8.1595  -17.0295   21.5652 C   0  0  0  0  0  0  0  0  0  0  0  0
    7.5783  -15.9441   21.3232 O   0  0  0  0  0  0  0  0  0  0  0  0
    6.6771  -18.0285   24.8344 C   0  0  0  0  0  0  0  0  0  0  0  0
    7.0880  -16.9592   23.8192 C   0  0  2  0  0  0  0  0  0  0  0  0
    7.9003  -17.6333   22.8256 N   0  0  0  0  0  0  0  0  0  0  0  0
    7.7988  -15.8444   24.4728 C   0  0  0  0  0  0  0  0  0  0  0  0
    9.0524  -15.9168   24.5346 O   0  0  0  0  0  0  0  0  0  0  0  0
    7.5554  -11.2355   26.3733 C   0  0  0  0  0  0  0  0  0  0  0  0
    6.8649  -12.4779   25.8653 C   0  0  2  0  0  0  0  0  0  0  0  0
    5.7469  -12.8512   26.8121 C   0  0  0  0  0  0  0  0  0  0  0  0
    7.8466  -13.6384   25.6989 C   0  0  2  0  0  0  0  0  0  0  0  0
    7.1723  -14.7073   25.0310 N   0  0  0  0  0  0  0  0  0  0  0  0
    8.4063  -14.0381   27.0104 C   0  0  0  0  0  0  0  0  0  0  0  0
    9.2532  -13.3060   27.5775 O   0  0  0  0  0  0  0  0  0  0  0  0
    8.0235  -15.2089   27.6448 O   0  0  0  0  0  0  0  0  0  0  0  0
  1  2  1  0
  2  3  2  0
  2  4  1  0
  4  5  1  0
  5  6  1  0
  6  8  1  0
  6  7  1  1
  8  9  2  0
 11 10  1  1
 11 13  1  0
 12  8  1  0
 12 11  1  0
 13 14  2  0
 16 15  1  1
 16 18  1  0
 17 16  1  0
 18 20  1  0
 18 19  1  1
 19 13  1  0
 20 21  2  0
 20 22  1  0
M  END
$$$$
