QAV.pdb
     RDKit          3D

 22 21  0  0  1  0  0  0  0  0999 V2000
    9.2171  -12.6753   18.1854 N   0  0  0  0  0  0  0  0  0  0  0  0
    8.4373  -13.6125   17.4285 C   0  0  0  0  0  0  0  0  0  0  0  0
    8.9069  -13.9615   16.3298 O   0  0  0  0  0  0  0  0  0  0  0  0
    7.1739  -14.0721   17.9939 C   0  0  0  0  0  0  0  0  0  0  0  0
    7.0422  -14.0060   19.4865 C   0  0  0  0  0  0  0  0  0  0  0  0
    8.1241  -14.7687   20.1504 C   0  0  2  0  0  0  0  0  0  0  0  0
    8.4013  -16.0218   19.5102 N   0  0  0  0  0  0  0  0  0  0  0  0
    7.8480  -15.0337   21.5898 C   0  0  0  0  0  0  0  0  0  0  0  0
    7.0461  -14.3017   22.2188 O   0  0  0  0  0  0  0  0  0  0  0  0
    8.6826  -17.7285   24.0367 C   0  0  0  0  0  0  0  0  0  0  0  0
    8.0920  -16.3592   23.6916 C   0  0  2  0  0  0  0  0  0  0  0  0
    8.4557  -16.0958   22.3132 N   0  0  0  0  0  0  0  0  0  0  0  0
    8.5773  -15.3176   24.6161 C   0  0  0  0  0  0  0  0  0  0  0  0
    9.7533  -14.9040   24.4531 O   0  0  0  0  0  0  0  0  0  0  0  0
    5.9196  -13.2424   27.2280 C   0  0  0  0  0  0  0  0  0  0  0  0
    7.2340  -12.6872   26.7356 C   0  0  2  0  0  0  0  0  0  0  0  0
    7.0165  -11.9839   25.4151 C   0  0  0  0  0  0  0  0  0  0  0  0
    8.2917  -13.7832   26.6001 C   0  0  2  0  0  0  0  0  0  0  0  0
    7.8166  -14.7555   25.6661 N   0  0  0  0  0  0  0  0  0  0  0  0
    8.6125  -14.3628   27.9246 C   0  0  0  0  0  0  0  0  0  0  0  0
    8.2137  -15.5167   28.2147 O   0  0  0  0  0  0  0  0  0  0  0  0
    9.3482  -13.6673   28.8705 O   0  0  0  0  0  0  0  0  0  0  0  0
  1  2  1  0
  2  3  2  0
  2  4  1  0
  4  5  1  0
  5  6  1  0
  6  8  1  0
  6  7  1  6
  8  9  2  0
 11 10  1  1
 11 13  1  0
 12  8  1  0
 12 11  1  0
 13 14  2  0
 16 15  1  6
 16 18  1  0
 17 16  1  0
 18 20  1  0
 18 19  1  6
 19 13  1  0
 20 21  2  0
 20 22  1  0
M  END
$$$$
