QAV.pdb
     RDKit          3D

 22 21  0  0  1  0  0  0  0  0999 V2000
    7.6626  -12.7193   17.2896 N   0  0  0  0  0  0  0  0  0  0  0  0
    7.9416  -14.0556   16.8473 C   0  0  0  0  0  0  0  0  0  0  0  0
    7.9069  -14.2490   15.6180 O   0  0  0  0  0  0  0  0  0  0  0  0
    8.2349  -15.0676   17.8557 C   0  0  0  0  0  0  0  0  0  0  0  0
    8.1831  -14.6240   19.2875 C   0  0  0  0  0  0  0  0  0  0  0  0
    8.5606  -15.7273   20.2003 C   0  0  2  0  0  0  0  0  0  0  0  0
    8.1972  -17.0204   19.6977 N   0  0  0  0  0  0  0  0  0  0  0  0
    7.9778  -15.5781   21.5628 C   0  0  0  0  0  0  0  0  0  0  0  0
    7.6189  -14.4468   21.9700 O   0  0  0  0  0  0  0  0  0  0  0  0
    6.9913  -17.8733   24.3486 C   0  0  0  0  0  0  0  0  0  0  0  0
    7.1939  -16.4763   23.7566 C   0  0  2  0  0  0  0  0  0  0  0  0
    7.7990  -16.6712   22.4538 N   0  0  0  0  0  0  0  0  0  0  0  0
    8.0155  -15.6320   24.6439 C   0  0  0  0  0  0  0  0  0  0  0  0
    9.2641  -15.7536   24.5623 O   0  0  0  0  0  0  0  0  0  0  0  0
    6.1972  -12.7572   27.2710 C   0  0  0  0  0  0  0  0  0  0  0  0
    7.5619  -12.5603   26.6570 C   0  0  2  0  0  0  0  0  0  0  0  0
    7.4185  -11.8209   25.3461 C   0  0  0  0  0  0  0  0  0  0  0  0
    8.2843  -13.8927   26.4535 C   0  0  2  0  0  0  0  0  0  0  0  0
    7.4996  -14.7014   25.5739 N   0  0  0  0  0  0  0  0  0  0  0  0
    8.5488  -14.5450   27.7564 C   0  0  0  0  0  0  0  0  0  0  0  0
    7.8718  -15.5427   28.1043 O   0  0  0  0  0  0  0  0  0  0  0  0
    9.5315  -14.0875   28.6194 O   0  0  0  0  0  0  0  0  0  0  0  0
  1  2  1  0
  2  3  2  0
  2  4  1  0
  4  5  1  0
  5  6  1  0
  6  8  1  0
  6  7  1  6
  8  9  2  0
 11 10  1  1
 11 13  1  0
 12  8  1  0
 12 11  1  0
 13 14  2  0
 16 15  1  6
 16 18  1  0
 17 16  1  0
 18 20  1  0
 18 19  1  6
 19 13  1  0
 20 21  2  0
 20 22  1  0
M  END
$$$$
