QAV.pdb
     RDKit          3D

 22 21  0  0  1  0  0  0  0  0999 V2000
   13.2902  -14.7126   18.2937 N   0  0  0  0  0  0  0  0  0  0  0  0
   12.5796  -14.0777   19.3666 C   0  0  0  0  0  0  0  0  0  0  0  0
   13.2660  -13.6879   20.3292 O   0  0  0  0  0  0  0  0  0  0  0  0
   11.1320  -13.9446   19.2500 C   0  0  0  0  0  0  0  0  0  0  0  0
   10.3139  -15.1400   19.6393 C   0  0  0  0  0  0  0  0  0  0  0  0
    8.8680  -14.8773   19.4575 C   0  0  2  0  0  0  0  0  0  0  0  0
    8.6039  -13.6584   18.7494 N   0  0  0  0  0  0  0  0  0  0  0  0
    8.1191  -14.8384   20.7443 C   0  0  0  0  0  0  0  0  0  0  0  0
    7.6688  -13.7489   21.1742 O   0  0  0  0  0  0  0  0  0  0  0  0
    6.6919  -17.3441   23.1043 C   0  0  0  0  0  0  0  0  0  0  0  0
    7.0951  -15.9097   22.7537 C   0  0  2  0  0  0  0  0  0  0  0  0
    7.8775  -15.9938   21.5362 N   0  0  0  0  0  0  0  0  0  0  0  0
    7.8338  -15.2746   23.8609 C   0  0  0  0  0  0  0  0  0  0  0  0
    9.0789  -15.4458   23.8968 O   0  0  0  0  0  0  0  0  0  0  0  0
    6.5689  -11.8245   25.3735 C   0  0  0  0  0  0  0  0  0  0  0  0
    7.0788  -12.7132   26.4818 C   0  0  2  0  0  0  0  0  0  0  0  0
    7.8448  -11.8766   27.4813 C   0  0  0  0  0  0  0  0  0  0  0  0
    7.9514  -13.8452   25.9382 C   0  0  2  0  0  0  0  0  0  0  0  0
    7.2429  -14.4916   24.8782 N   0  0  0  0  0  0  0  0  0  0  0  0
    8.3363  -14.7733   27.0262 C   0  0  0  0  0  0  0  0  0  0  0  0
    9.1944  -14.4226   27.8719 O   0  0  0  0  0  0  0  0  0  0  0  0
    7.7752  -16.0344   27.1469 O   0  0  0  0  0  0  0  0  0  0  0  0
  1  2  1  0
  2  3  2  0
  2  4  1  0
  4  5  1  0
  5  6  1  0
  6  8  1  0
  6  7  1  1
  8  9  2  0
 11 10  1  1
 11 13  1  0
 12  8  1  0
 12 11  1  0
 13 14  2  0
 16 15  1  6
 16 18  1  0
 17 16  1  0
 18 20  1  0
 18 19  1  6
 19 13  1  0
 20 21  2  0
 20 22  1  0
M  END
$$$$
