QAV.pdb
     RDKit          3D

 22 21  0  0  1  0  0  0  0  0999 V2000
   12.1674  -16.1091   18.7889 N   0  0  0  0  0  0  0  0  0  0  0  0
   10.9391  -16.5487   18.1911 C   0  0  0  0  0  0  0  0  0  0  0  0
   11.0215  -17.0178   17.0410 O   0  0  0  0  0  0  0  0  0  0  0  0
    9.7094  -16.4097   18.9628 C   0  0  0  0  0  0  0  0  0  0  0  0
    9.8505  -15.8962   20.3649 C   0  0  0  0  0  0  0  0  0  0  0  0
   10.0194  -17.0108   21.3252 C   0  0  2  0  0  0  0  0  0  0  0  0
    9.4041  -18.2290   20.8846 N   0  0  0  0  0  0  0  0  0  0  0  0
    9.4967  -16.6911   22.6828 C   0  0  0  0  0  0  0  0  0  0  0  0
    9.6902  -15.5540   23.1766 O   0  0  0  0  0  0  0  0  0  0  0  0
    7.3576  -18.4194   25.2216 C   0  0  0  0  0  0  0  0  0  0  0  0
    8.1900  -17.2279   24.7415 C   0  0  2  0  0  0  0  0  0  0  0  0
    8.7717  -17.6233   23.4739 N   0  0  0  0  0  0  0  0  0  0  0  0
    9.2073  -16.8478   25.7393 C   0  0  0  0  0  0  0  0  0  0  0  0
   10.3523  -17.3523   25.6168 O   0  0  0  0  0  0  0  0  0  0  0  0
    9.1497  -13.2225   27.5055 C   0  0  0  0  0  0  0  0  0  0  0  0
    9.4785  -14.3153   28.4934 C   0  0  2  0  0  0  0  0  0  0  0  0
   10.5179  -13.8114   29.4689 C   0  0  0  0  0  0  0  0  0  0  0  0
    9.9636  -15.5827   27.7887 C   0  0  2  0  0  0  0  0  0  0  0  0
    8.9856  -15.9610   26.8172 N   0  0  0  0  0  0  0  0  0  0  0  0
   10.2419  -16.6518   28.7751 C   0  0  0  0  0  0  0  0  0  0  0  0
   11.3349  -16.6638   29.3914 O   0  0  0  0  0  0  0  0  0  0  0  0
    9.3258  -17.6551   29.0470 O   0  0  0  0  0  0  0  0  0  0  0  0
  1  2  1  0
  2  3  2  0
  2  4  1  0
  4  5  1  0
  5  6  1  0
  6  8  1  0
  6  7  1  6
  8  9  2  0
 11 10  1  1
 11 13  1  0
 12  8  1  0
 12 11  1  0
 13 14  2  0
 16 15  1  6
 16 18  1  0
 17 16  1  0
 18 20  1  0
 18 19  1  6
 19 13  1  0
 20 21  2  0
 20 22  1  0
M  END
$$$$
