QAV.pdb
     RDKit          3D

 22 21  0  0  1  0  0  0  0  0999 V2000
   12.8754  -15.5663   18.6878 N   0  0  0  0  0  0  0  0  0  0  0  0
   12.1791  -14.6440   19.5386 C   0  0  0  0  0  0  0  0  0  0  0  0
   12.4454  -14.7040   20.7531 O   0  0  0  0  0  0  0  0  0  0  0  0
   11.2259  -13.7263   18.9250 C   0  0  0  0  0  0  0  0  0  0  0  0
   10.0454  -13.3268   19.7595 C   0  0  0  0  0  0  0  0  0  0  0  0
    8.9676  -14.3390   19.6756 C   0  0  2  0  0  0  0  0  0  0  0  0
    8.0382  -14.0822   18.6139 N   0  0  0  0  0  0  0  0  0  0  0  0
    8.1983  -14.4736   20.9438 C   0  0  0  0  0  0  0  0  0  0  0  0
    7.3162  -13.6296   21.2338 O   0  0  0  0  0  0  0  0  0  0  0  0
    7.3769  -17.1013   23.3381 C   0  0  0  0  0  0  0  0  0  0  0  0
    7.6349  -15.6126   23.0931 C   0  0  2  0  0  0  0  0  0  0  0  0
    8.4097  -15.5305   21.8706 N   0  0  0  0  0  0  0  0  0  0  0  0
    8.3193  -14.9909   24.2421 C   0  0  0  0  0  0  0  0  0  0  0  0
    9.5753  -15.0435   24.2630 O   0  0  0  0  0  0  0  0  0  0  0  0
    6.1045  -12.8251   27.1777 C   0  0  0  0  0  0  0  0  0  0  0  0
    7.5520  -12.5231   26.8747 C   0  0  2  0  0  0  0  0  0  0  0  0
    7.6271  -11.4675   25.7949 C   0  0  0  0  0  0  0  0  0  0  0  0
    8.3136  -13.7820   26.4582 C   0  0  2  0  0  0  0  0  0  0  0  0
    7.6652  -14.3439   25.3148 N   0  0  0  0  0  0  0  0  0  0  0  0
    8.4102  -14.7300   27.5917 C   0  0  0  0  0  0  0  0  0  0  0  0
    7.6680  -15.7413   27.6252 O   0  0  0  0  0  0  0  0  0  0  0  0
    9.3038  -14.5389   28.6333 O   0  0  0  0  0  0  0  0  0  0  0  0
  1  2  1  0
  2  3  2  0
  2  4  1  0
  4  5  1  0
  5  6  1  0
  6  8  1  0
  6  7  1  6
  8  9  2  0
 11 10  1  1
 11 13  1  0
 12  8  1  0
 12 11  1  0
 13 14  2  0
 16 15  1  6
 16 18  1  0
 17 16  1  0
 18 20  1  0
 18 19  1  6
 19 13  1  0
 20 21  2  0
 20 22  1  0
M  END
$$$$
