QAV.pdb
     RDKit          3D

 22 21  0  0  1  0  0  0  0  0999 V2000
   12.6064  -19.0233   23.3633 N   0  0  0  0  0  0  0  0  0  0  0  0
   12.2460  -19.9766   22.3530 C   0  0  0  0  0  0  0  0  0  0  0  0
   12.6450  -21.1429   22.5268 O   0  0  0  0  0  0  0  0  0  0  0  0
   11.4576  -19.5118   21.2176 C   0  0  0  0  0  0  0  0  0  0  0  0
   11.0481  -18.0689   21.2297 C   0  0  0  0  0  0  0  0  0  0  0  0
    9.5739  -17.9338   21.1922 C   0  0  2  0  0  0  0  0  0  0  0  0
    9.1110  -17.1418   20.0899 N   0  0  0  0  0  0  0  0  0  0  0  0
    9.0121  -17.3583   22.4458 C   0  0  0  0  0  0  0  0  0  0  0  0
    9.0408  -16.1180   22.6333 O   0  0  0  0  0  0  0  0  0  0  0  0
    7.0128  -18.5757   25.3420 C   0  0  0  0  0  0  0  0  0  0  0  0
    7.9413  -17.5460   24.6935 C   0  0  2  0  0  0  0  0  0  0  0  0
    8.4293  -18.1525   23.4706 N   0  0  0  0  0  0  0  0  0  0  0  0
    9.0306  -17.1555   25.6078 C   0  0  0  0  0  0  0  0  0  0  0  0
   10.1153  -17.7842   25.5145 O   0  0  0  0  0  0  0  0  0  0  0  0
    9.2489  -13.3492   26.9293 C   0  0  0  0  0  0  0  0  0  0  0  0
    9.6359  -14.3327   28.0068 C   0  0  2  0  0  0  0  0  0  0  0  0
   10.7800  -13.7643   28.8152 C   0  0  0  0  0  0  0  0  0  0  0  0
   10.0097  -15.6935   27.4178 C   0  0  2  0  0  0  0  0  0  0  0  0
    8.9402  -16.1297   26.5757 N   0  0  0  0  0  0  0  0  0  0  0  0
   10.3261  -16.6576   28.4964 C   0  0  0  0  0  0  0  0  0  0  0  0
    9.4174  -17.3773   28.9772 O   0  0  0  0  0  0  0  0  0  0  0  0
   11.6083  -16.7968   29.0026 O   0  0  0  0  0  0  0  0  0  0  0  0
  1  2  1  0
  2  3  2  0
  2  4  1  0
  4  5  1  0
  5  6  1  0
  6  8  1  0
  6  7  1  6
  8  9  2  0
 11 10  1  1
 11 13  1  0
 12  8  1  0
 12 11  1  0
 13 14  2  0
 16 15  1  6
 16 18  1  0
 17 16  1  0
 18 20  1  0
 18 19  1  1
 19 13  1  0
 20 21  2  0
 20 22  1  0
M  END
$$$$
