QAV.pdb
     RDKit          3D

 22 21  0  0  1  0  0  0  0  0999 V2000
    7.8291  -12.8691   16.7007 N   0  0  0  0  0  0  0  0  0  0  0  0
    7.8038  -14.2822   16.4519 C   0  0  0  0  0  0  0  0  0  0  0  0
    7.5588  -14.6327   15.2828 O   0  0  0  0  0  0  0  0  0  0  0  0
    8.0582  -15.1829   17.5703 C   0  0  0  0  0  0  0  0  0  0  0  0
    8.3019  -14.5442   18.9053 C   0  0  0  0  0  0  0  0  0  0  0  0
    8.7976  -15.5359   19.8870 C   0  0  2  0  0  0  0  0  0  0  0  0
    8.7392  -16.8840   19.4010 N   0  0  0  0  0  0  0  0  0  0  0  0
    8.0716  -15.4789   21.1863 C   0  0  0  0  0  0  0  0  0  0  0  0
    7.5779  -14.3949   21.5807 O   0  0  0  0  0  0  0  0  0  0  0  0
    6.9767  -17.9378   23.7823 C   0  0  0  0  0  0  0  0  0  0  0  0
    7.1589  -16.5067   23.2706 C   0  0  2  0  0  0  0  0  0  0  0  0
    7.9000  -16.6106   22.0291 N   0  0  0  0  0  0  0  0  0  0  0  0
    7.8402  -15.6628   24.2699 C   0  0  0  0  0  0  0  0  0  0  0  0
    9.0966  -15.6291   24.2363 O   0  0  0  0  0  0  0  0  0  0  0  0
    6.2050  -12.2366   25.5937 C   0  0  0  0  0  0  0  0  0  0  0  0
    6.8117  -13.0313   26.7244 C   0  0  2  0  0  0  0  0  0  0  0  0
    7.4504  -12.0842   27.7148 C   0  0  0  0  0  0  0  0  0  0  0  0
    7.8302  -14.0503   26.2121 C   0  0  2  0  0  0  0  0  0  0  0  0
    7.1829  -14.8938   25.2566 N   0  0  0  0  0  0  0  0  0  0  0  0
    8.4238  -14.8043   27.3401 C   0  0  0  0  0  0  0  0  0  0  0  0
    7.8913  -15.8731   27.7259 O   0  0  0  0  0  0  0  0  0  0  0  0
    9.5632  -14.3665   27.9957 O   0  0  0  0  0  0  0  0  0  0  0  0
  1  2  1  0
  2  3  2  0
  2  4  1  0
  4  5  1  0
  5  6  1  0
  6  8  1  0
  6  7  1  6
  8  9  2  0
 11 10  1  1
 11 13  1  0
 12  8  1  0
 12 11  1  0
 13 14  2  0
 16 15  1  6
 16 18  1  0
 17 16  1  0
 18 20  1  0
 18 19  1  6
 19 13  1  0
 20 21  2  0
 20 22  1  0
M  END
$$$$
