ATS.pdb
     RDKit          3D

 19 18  0  0  1  0  0  0  0  0999 V2000
   28.2082  -18.8751  -15.0188 C   0  0  0  0  0  0  0  0  0  0  0  0
   28.4234  -20.2339  -14.4190 C   0  0  2  0  0  0  0  0  0  0  0  0
   28.9056  -21.1300  -15.4520 N   0  0  0  0  0  0  0  0  0  0  0  0
   27.1343  -20.7458  -13.8572 C   0  0  0  0  0  0  0  0  0  0  0  0
   26.3968  -21.4601  -14.5738 O   0  0  0  0  0  0  0  0  0  0  0  0
   24.1084  -21.0679   -9.9131 C   0  0  0  0  0  0  0  0  0  0  0  0
   25.4324  -20.7132  -10.5492 C   0  0  1  0  0  0  0  0  0  0  0  0
   26.4884  -21.4032   -9.9557 O   0  0  0  0  0  0  0  0  0  0  0  0
   25.4109  -20.8811  -12.0451 C   0  0  2  0  0  0  0  0  0  0  0  0
   26.6964  -20.4635  -12.5430 N   0  0  0  0  0  0  0  0  0  0  0  0
   24.3534  -20.1407  -12.7177 C   0  0  0  0  0  0  0  0  0  0  0  0
   24.6678  -19.1653  -13.4452 O   0  0  0  0  0  0  0  0  0  0  0  0
   21.8789  -20.9837  -16.0801 O   0  0  0  0  0  0  0  0  0  0  0  0
   22.6487  -21.1602  -14.9332 C   0  0  0  0  0  0  0  0  0  0  0  0
   22.1052  -20.3328  -13.7850 C   0  0  2  0  0  0  0  0  0  0  0  0
   22.9641  -20.4287  -12.6233 N   0  0  0  0  0  0  0  0  0  0  0  0
   20.7058  -20.7160  -13.4741 C   0  0  0  0  0  0  0  0  0  0  0  0
   19.6914  -20.2199  -14.2812 O   0  0  0  0  0  0  0  0  0  0  0  0
   20.4159  -21.4587  -12.5248 O   0  0  0  0  0  0  0  0  0  0  0  0
  2  3  1  0
  2  1  1  6
  4  2  1  0
  5  4  2  0
  7  6  1  1
  7  8  1  0
  7  9  1  0
  9 11  1  0
  9 10  1  6
 10  4  1  0
 11 12  2  0
 15 14  1  6
 14 13  1  0
 16 15  1  0
 16 11  1  0
 17 18  1  0
 17 15  1  0
 19 17  2  0
M  END
$$$$
