ATS.pdb
     RDKit          3D

 19 18  0  0  1  0  0  0  0  0999 V2000
   18.5144  -11.3846  -17.4820 C   0  0  0  0  0  0  0  0  0  0  0  0
   19.9027  -11.9316  -17.3221 C   0  0  2  0  0  0  0  0  0  0  0  0
   19.8146  -13.3370  -16.9761 N   0  0  0  0  0  0  0  0  0  0  0  0
   20.6176  -11.1818  -16.2421 C   0  0  0  0  0  0  0  0  0  0  0  0
   20.2484  -11.3222  -15.0540 O   0  0  0  0  0  0  0  0  0  0  0  0
   24.0279  -11.4347  -15.0882 C   0  0  0  0  0  0  0  0  0  0  0  0
   23.8253   -9.9893  -15.4796 C   0  0  1  0  0  0  0  0  0  0  0  0
   24.4249   -9.7002  -16.7046 O   0  0  0  0  0  0  0  0  0  0  0  0
   22.3754   -9.5857  -15.4454 C   0  0  2  0  0  0  0  0  0  0  0  0
   21.7027  -10.3108  -16.4925 N   0  0  0  0  0  0  0  0  0  0  0  0
   22.1454   -8.1572  -15.6038 C   0  0  0  0  0  0  0  0  0  0  0  0
   21.9174   -7.7061  -16.7545 O   0  0  0  0  0  0  0  0  0  0  0  0
   19.6120   -5.9338  -14.2309 O   0  0  0  0  0  0  0  0  0  0  0  0
   20.4968   -5.5459  -15.2339 C   0  0  0  0  0  0  0  0  0  0  0  0
   21.9319   -5.7983  -14.8157 C   0  0  2  0  0  0  0  0  0  0  0  0
   22.1558   -7.2038  -14.5488 N   0  0  0  0  0  0  0  0  0  0  0  0
   22.3020   -4.9474  -13.6577 C   0  0  0  0  0  0  0  0  0  0  0  0
   22.2725   -3.5689  -13.8163 O   0  0  0  0  0  0  0  0  0  0  0  0
   22.6339   -5.4241  -12.5625 O   0  0  0  0  0  0  0  0  0  0  0  0
  2  3  1  0
  2  1  1  1
  4  2  1  0
  5  4  2  0
  7  6  1  6
  7  8  1  0
  7  9  1  0
  9 11  1  0
  9 10  1  6
 10  4  1  0
 11 12  2  0
 15 14  1  1
 14 13  1  0
 16 15  1  0
 16 11  1  0
 17 18  1  0
 17 15  1  0
 19 17  2  0
M  END
$$$$
