ATS.pdb
     RDKit          3D

 19 18  0  0  1  0  0  0  0  0999 V2000
   18.9889   -8.5259  -18.4281 C   0  0  0  0  0  0  0  0  0  0  0  0
   19.9317   -8.8588  -17.3089 C   0  0  2  0  0  0  0  0  0  0  0  0
   19.5041  -10.0986  -16.6905 N   0  0  0  0  0  0  0  0  0  0  0  0
   19.9248   -7.7537  -16.2998 C   0  0  0  0  0  0  0  0  0  0  0  0
   18.9298   -7.6152  -15.5525 O   0  0  0  0  0  0  0  0  0  0  0  0
   22.4507   -4.6912  -13.4704 C   0  0  0  0  0  0  0  0  0  0  0  0
   22.1946   -5.9191  -14.3131 C   0  0  1  0  0  0  0  0  0  0  0  0
   22.1593   -7.0765  -13.5367 O   0  0  0  0  0  0  0  0  0  0  0  0
   20.9700   -5.7743  -15.1766 C   0  0  2  0  0  0  0  0  0  0  0  0
   20.9952   -6.8439  -16.1410 N   0  0  0  0  0  0  0  0  0  0  0  0
   20.8640   -4.4928  -15.8589 C   0  0  0  0  0  0  0  0  0  0  0  0
   21.6342   -4.2568  -16.8236 O   0  0  0  0  0  0  0  0  0  0  0  0
   17.6791   -2.6601  -17.0018 O   0  0  0  0  0  0  0  0  0  0  0  0
   18.5008   -1.7018  -16.4137 C   0  0  0  0  0  0  0  0  0  0  0  0
   19.9184   -2.2198  -16.2709 C   0  0  2  0  0  0  0  0  0  0  0  0
   19.9457   -3.4599  -15.5240 N   0  0  0  0  0  0  0  0  0  0  0  0
   20.7990   -1.1889  -15.6680 C   0  0  0  0  0  0  0  0  0  0  0  0
   20.9868    0.0020  -16.3556 O   0  0  0  0  0  0  0  0  0  0  0  0
   21.3677   -1.3557  -14.5791 O   0  0  0  0  0  0  0  0  0  0  0  0
  2  3  1  0
  2  1  1  6
  4  2  1  0
  5  4  2  0
  7  6  1  1
  7  8  1  0
  7  9  1  0
  9 11  1  0
  9 10  1  6
 10  4  1  0
 11 12  2  0
 15 14  1  1
 14 13  1  0
 16 15  1  0
 16 11  1  0
 17 18  1  0
 17 15  1  0
 19 17  2  0
M  END
$$$$
