ATS.pdb
     RDKit          3D

 19 18  0  0  1  0  0  0  0  0999 V2000
   18.1474  -10.7872  -18.6730 C   0  0  0  0  0  0  0  0  0  0  0  0
   19.1960  -11.6049  -17.9772 C   0  0  2  0  0  0  0  0  0  0  0  0
   18.5883  -12.8281  -17.4903 N   0  0  0  0  0  0  0  0  0  0  0  0
   19.7656  -10.8252  -16.8340 C   0  0  0  0  0  0  0  0  0  0  0  0
   19.1176  -10.7463  -15.7655 O   0  0  0  0  0  0  0  0  0  0  0  0
   23.0221  -11.5751  -15.2377 C   0  0  0  0  0  0  0  0  0  0  0  0
   23.0205  -10.1153  -15.6278 C   0  0  1  0  0  0  0  0  0  0  0  0
   23.7751   -9.8903  -16.7782 O   0  0  0  0  0  0  0  0  0  0  0  0
   21.6275   -9.5557  -15.7414 C   0  0  2  0  0  0  0  0  0  0  0  0
   21.0131  -10.1628  -16.8941 N   0  0  0  0  0  0  0  0  0  0  0  0
   21.5699   -8.1056  -15.8539 C   0  0  0  0  0  0  0  0  0  0  0  0
   21.6217   -7.5860  -16.9971 O   0  0  0  0  0  0  0  0  0  0  0  0
   20.2560   -3.8015  -15.4193 O   0  0  0  0  0  0  0  0  0  0  0  0
   20.1744   -5.1807  -15.2449 C   0  0  0  0  0  0  0  0  0  0  0  0
   21.5424   -5.7722  -14.9676 C   0  0  2  0  0  0  0  0  0  0  0  0
   21.4577   -7.2028  -14.7609 N   0  0  0  0  0  0  0  0  0  0  0  0
   22.1938   -5.0838  -13.8258 C   0  0  0  0  0  0  0  0  0  0  0  0
   22.7373   -3.8245  -14.0383 O   0  0  0  0  0  0  0  0  0  0  0  0
   22.2676   -5.5929  -12.6980 O   0  0  0  0  0  0  0  0  0  0  0  0
  2  3  1  0
  2  1  1  1
  4  2  1  0
  5  4  2  0
  7  6  1  6
  7  8  1  0
  7  9  1  0
  9 11  1  0
  9 10  1  6
 10  4  1  0
 11 12  2  0
 15 14  1  1
 14 13  1  0
 16 15  1  0
 16 11  1  0
 17 18  1  0
 17 15  1  0
 19 17  2  0
M  END
$$$$
