ATS.pdb
     RDKit          3D

 19 18  0  0  1  0  0  0  0  0999 V2000
   17.6852  -11.5806  -14.8371 C   0  0  0  0  0  0  0  0  0  0  0  0
   16.9883  -11.7197  -13.5153 C   0  0  2  0  0  0  0  0  0  0  0  0
   16.0324  -12.8065  -13.6027 N   0  0  0  0  0  0  0  0  0  0  0  0
   16.2834  -10.4426  -13.1813 C   0  0  0  0  0  0  0  0  0  0  0  0
   15.2774  -10.1081  -13.8475 O   0  0  0  0  0  0  0  0  0  0  0  0
   14.9841   -9.3515   -9.7414 C   0  0  0  0  0  0  0  0  0  0  0  0
   15.9003   -8.2933  -10.3108 C   0  0  1  0  0  0  0  0  0  0  0  0
   17.1541   -8.3179   -9.7018 O   0  0  0  0  0  0  0  0  0  0  0  0
   15.9940   -8.3660  -11.8116 C   0  0  2  0  0  0  0  0  0  0  0  0
   16.6962   -9.5800  -12.1400 N   0  0  0  0  0  0  0  0  0  0  0  0
   16.6573   -7.2264  -12.4280 C   0  0  0  0  0  0  0  0  0  0  0  0
   17.6009   -7.4384  -13.2307 O   0  0  0  0  0  0  0  0  0  0  0  0
   17.0036   -4.0944  -15.3379 O   0  0  0  0  0  0  0  0  0  0  0  0
   16.5502   -5.1230  -14.5161 C   0  0  0  0  0  0  0  0  0  0  0  0
   16.8394   -4.8183  -13.0595 C   0  0  2  0  0  0  0  0  0  0  0  0
   16.3258   -5.8627  -12.1982 N   0  0  0  0  0  0  0  0  0  0  0  0
   16.3145   -3.4818  -12.6853 C   0  0  0  0  0  0  0  0  0  0  0  0
   17.1446   -2.3803  -12.8404 O   0  0  0  0  0  0  0  0  0  0  0  0
   15.1683   -3.3187  -12.2423 O   0  0  0  0  0  0  0  0  0  0  0  0
  2  3  1  0
  2  1  1  6
  4  2  1  0
  5  4  2  0
  7  6  1  1
  7  8  1  0
  7  9  1  0
  9 11  1  0
  9 10  1  1
 10  4  1  0
 11 12  2  0
 15 14  1  6
 14 13  1  0
 16 15  1  0
 16 11  1  0
 17 18  1  0
 17 15  1  0
 19 17  2  0
M  END
$$$$
