ATS.pdb
     RDKit          3D

 19 18  0  0  1  0  0  0  0  0999 V2000
   17.0247   -9.1179  -17.7534 C   0  0  0  0  0  0  0  0  0  0  0  0
   17.9468  -10.2710  -17.4844 C   0  0  2  0  0  0  0  0  0  0  0  0
   17.1576  -11.4133  -17.0663 N   0  0  0  0  0  0  0  0  0  0  0  0
   18.9184   -9.8981  -16.4091 C   0  0  0  0  0  0  0  0  0  0  0  0
   18.5016   -9.7324  -15.2401 O   0  0  0  0  0  0  0  0  0  0  0  0
   23.5359   -9.7031  -14.7688 C   0  0  0  0  0  0  0  0  0  0  0  0
   22.4630  -10.1202  -15.7479 C   0  0  1  0  0  0  0  0  0  0  0  0
   22.1986  -11.4867  -15.6684 O   0  0  0  0  0  0  0  0  0  0  0  0
   21.2146   -9.2894  -15.6158 C   0  0  2  0  0  0  0  0  0  0  0  0
   20.3012   -9.7198  -16.6430 N   0  0  0  0  0  0  0  0  0  0  0  0
   21.4346   -7.8540  -15.7165 C   0  0  0  0  0  0  0  0  0  0  0  0
   21.2982   -7.2992  -16.8360 O   0  0  0  0  0  0  0  0  0  0  0  0
   20.3045   -3.6967  -15.1516 O   0  0  0  0  0  0  0  0  0  0  0  0
   20.3660   -5.0878  -15.1357 C   0  0  0  0  0  0  0  0  0  0  0  0
   21.7612   -5.5630  -14.7809 C   0  0  2  0  0  0  0  0  0  0  0  0
   21.7986   -7.0032  -14.6368 N   0  0  0  0  0  0  0  0  0  0  0  0
   22.2625   -4.8703  -13.5682 C   0  0  0  0  0  0  0  0  0  0  0  0
   22.1953   -5.5370  -12.3528 O   0  0  0  0  0  0  0  0  0  0  0  0
   22.7355   -3.7250  -13.6054 O   0  0  0  0  0  0  0  0  0  0  0  0
  2  3  1  0
  2  1  1  1
  4  2  1  0
  5  4  2  0
  7  6  1  1
  7  8  1  0
  7  9  1  0
  9 11  1  0
  9 10  1  6
 10  4  1  0
 11 12  2  0
 15 14  1  1
 14 13  1  0
 16 15  1  0
 16 11  1  0
 17 18  1  0
 17 15  1  0
 19 17  2  0
M  END
$$$$
