ATS.pdb
     RDKit          3D

 19 18  0  0  1  0  0  0  0  0999 V2000
   16.3001  -11.0662  -14.5322 C   0  0  0  0  0  0  0  0  0  0  0  0
   17.1043  -11.1913  -15.7932 C   0  0  2  0  0  0  0  0  0  0  0  0
   17.1253  -12.5834  -16.1982 N   0  0  0  0  0  0  0  0  0  0  0  0
   18.4993  -10.7071  -15.5503 C   0  0  0  0  0  0  0  0  0  0  0  0
   19.2403  -11.3463  -14.7693 O   0  0  0  0  0  0  0  0  0  0  0  0
   20.5985   -8.5631  -18.3513 C   0  0  0  0  0  0  0  0  0  0  0  0
   21.1710   -9.3121  -17.1704 C   0  0  1  0  0  0  0  0  0  0  0  0
   22.5261   -9.0354  -16.9948 O   0  0  0  0  0  0  0  0  0  0  0  0
   20.3758   -9.0884  -15.9118 C   0  0  2  0  0  0  0  0  0  0  0  0
   19.0350   -9.5509  -16.1627 N   0  0  0  0  0  0  0  0  0  0  0  0
   20.3474   -7.7060  -15.4569 C   0  0  0  0  0  0  0  0  0  0  0  0
   19.3627   -6.9887  -15.7658 O   0  0  0  0  0  0  0  0  0  0  0  0
   21.8017   -6.3074  -12.0149 O   0  0  0  0  0  0  0  0  0  0  0  0
   22.0838   -5.4125  -13.0439 C   0  0  0  0  0  0  0  0  0  0  0  0
   21.2248   -5.6990  -14.2598 C   0  0  2  0  0  0  0  0  0  0  0  0
   21.3572   -7.0795  -14.6759 N   0  0  0  0  0  0  0  0  0  0  0  0
   21.5366   -4.7547  -15.3611 C   0  0  0  0  0  0  0  0  0  0  0  0
   21.0868   -3.4460  -15.2547 O   0  0  0  0  0  0  0  0  0  0  0  0
   22.1805   -5.0942  -16.3645 O   0  0  0  0  0  0  0  0  0  0  0  0
  2  3  1  0
  2  1  1  1
  4  2  1  0
  5  4  2  0
  7  6  1  6
  7  8  1  0
  7  9  1  0
  9 11  1  0
  9 10  1  6
 10  4  1  0
 11 12  2  0
 15 14  1  1
 14 13  1  0
 16 15  1  0
 16 11  1  0
 17 18  1  0
 17 15  1  0
 19 17  2  0
M  END
$$$$
