ATS.pdb
     RDKit          3D

 19 18  0  0  1  0  0  0  0  0999 V2000
   13.9660  -11.5819  -12.2507 C   0  0  0  0  0  0  0  0  0  0  0  0
   15.0966  -11.2368  -13.1752 C   0  0  2  0  0  0  0  0  0  0  0  0
   15.8168  -12.4508  -13.5068 N   0  0  0  0  0  0  0  0  0  0  0  0
   16.0146  -10.2630  -12.5056 C   0  0  0  0  0  0  0  0  0  0  0  0
   16.8128  -10.6763  -11.6340 O   0  0  0  0  0  0  0  0  0  0  0  0
   17.0726   -6.7814  -14.3799 C   0  0  0  0  0  0  0  0  0  0  0  0
   17.8427   -7.4109  -13.2424 C   0  0  1  0  0  0  0  0  0  0  0  0
   18.8014   -6.5396  -12.7272 O   0  0  0  0  0  0  0  0  0  0  0  0
   16.9361   -7.9582  -12.1723 C   0  0  2  0  0  0  0  0  0  0  0  0
   16.0311   -8.8818  -12.8069 N   0  0  0  0  0  0  0  0  0  0  0  0
   16.1839   -6.9453  -11.4464 C   0  0  0  0  0  0  0  0  0  0  0  0
   15.0881   -6.5520  -11.9198 O   0  0  0  0  0  0  0  0  0  0  0  0
   15.4755   -6.4422   -7.5693 O   0  0  0  0  0  0  0  0  0  0  0  0
   15.9635   -5.2612   -8.1227 C   0  0  0  0  0  0  0  0  0  0  0  0
   15.8178   -5.2710   -9.6316 C   0  0  2  0  0  0  0  0  0  0  0  0
   16.5869   -6.3469  -10.2210 N   0  0  0  0  0  0  0  0  0  0  0  0
   16.1789   -3.9511  -10.2056 C   0  0  0  0  0  0  0  0  0  0  0  0
   15.3542   -2.8675   -9.9373 O   0  0  0  0  0  0  0  0  0  0  0  0
   17.1849   -3.7866  -10.9110 O   0  0  0  0  0  0  0  0  0  0  0  0
  2  3  1  0
  2  1  1  1
  4  2  1  0
  5  4  2  0
  7  6  1  6
  7  8  1  0
  7  9  1  0
  9 11  1  0
  9 10  1  6
 10  4  1  0
 11 12  2  0
 15 14  1  1
 14 13  1  0
 16 15  1  0
 16 11  1  0
 17 18  1  0
 17 15  1  0
 19 17  2  0
M  END
$$$$
