ATS.pdb
     RDKit          3D

 19 18  0  0  1  0  0  0  0  0999 V2000
   16.1229   -8.3411  -17.0762 C   0  0  0  0  0  0  0  0  0  0  0  0
   16.5760   -9.5112  -16.2529 C   0  0  2  0  0  0  0  0  0  0  0  0
   15.4917   -9.9163  -15.3795 N   0  0  0  0  0  0  0  0  0  0  0  0
   17.7707   -9.1219  -15.4400 C   0  0  0  0  0  0  0  0  0  0  0  0
   17.6003   -8.5517  -14.3384 O   0  0  0  0  0  0  0  0  0  0  0  0
   22.6958   -9.3706  -14.8455 C   0  0  0  0  0  0  0  0  0  0  0  0
   21.3832   -9.8521  -15.4190 C   0  0  1  0  0  0  0  0  0  0  0  0
   21.1130  -11.1686  -15.0480 O   0  0  0  0  0  0  0  0  0  0  0  0
   20.2434   -8.9234  -15.0957 C   0  0  2  0  0  0  0  0  0  0  0  0
   19.1006   -9.3657  -15.8528 N   0  0  0  0  0  0  0  0  0  0  0  0
   20.5128   -7.5209  -15.3770 C   0  0  0  0  0  0  0  0  0  0  0  0
   20.5801   -7.1473  -16.5751 O   0  0  0  0  0  0  0  0  0  0  0  0
   20.0597   -2.9339  -14.8632 O   0  0  0  0  0  0  0  0  0  0  0  0
   19.8070   -4.2429  -14.4611 C   0  0  0  0  0  0  0  0  0  0  0  0
   20.9841   -5.1432  -14.7809 C   0  0  2  0  0  0  0  0  0  0  0  0
   20.7114   -6.5118  -14.3949 N   0  0  0  0  0  0  0  0  0  0  0  0
   22.2280   -4.6276  -14.1574 C   0  0  0  0  0  0  0  0  0  0  0  0
   22.8588   -3.5403  -14.7457 O   0  0  0  0  0  0  0  0  0  0  0  0
   22.7177   -5.1325  -13.1366 O   0  0  0  0  0  0  0  0  0  0  0  0
  2  3  1  0
  2  1  1  1
  4  2  1  0
  5  4  2  0
  7  6  1  1
  7  8  1  0
  7  9  1  0
  9 11  1  0
  9 10  1  6
 10  4  1  0
 11 12  2  0
 15 14  1  1
 14 13  1  0
 16 15  1  0
 16 11  1  0
 17 18  1  0
 17 15  1  0
 19 17  2  0
M  END
$$$$
