ATS.pdb
     RDKit          3D

 19 18  0  0  1  0  0  0  0  0999 V2000
   29.9560  -22.3180  -17.6912 C   0  0  0  0  0  0  0  0  0  0  0  0
   29.9659  -23.6912  -17.0859 C   0  0  2  0  0  0  0  0  0  0  0  0
   31.2341  -24.3261  -17.3875 N   0  0  0  0  0  0  0  0  0  0  0  0
   28.8408  -24.4990  -17.6525 C   0  0  0  0  0  0  0  0  0  0  0  0
   28.9506  -24.9745  -18.8056 O   0  0  0  0  0  0  0  0  0  0  0  0
   27.5588  -27.6553  -16.3649 C   0  0  0  0  0  0  0  0  0  0  0  0
   26.3835  -26.7099  -16.4556 C   0  0  1  0  0  0  0  0  0  0  0  0
   26.0297  -26.2089  -15.2036 O   0  0  0  0  0  0  0  0  0  0  0  0
   26.6069  -25.6156  -17.4651 C   0  0  2  0  0  0  0  0  0  0  0  0
   27.6429  -24.7588  -16.9480 N   0  0  0  0  0  0  0  0  0  0  0  0
   25.4204  -24.8303  -17.7724 C   0  0  0  0  0  0  0  0  0  0  0  0
   25.2967  -23.6936  -17.2506 O   0  0  0  0  0  0  0  0  0  0  0  0
   23.1626  -24.7133  -21.2091 O   0  0  0  0  0  0  0  0  0  0  0  0
   22.4107  -24.8552  -20.0456 C   0  0  0  0  0  0  0  0  0  0  0  0
   23.2012  -24.4048  -18.8330 C   0  0  2  0  0  0  0  0  0  0  0  0
   24.3640  -25.2434  -18.6300 N   0  0  0  0  0  0  0  0  0  0  0  0
   22.3366  -24.3533  -17.6282 C   0  0  0  0  0  0  0  0  0  0  0  0
   21.5440  -23.2307  -17.4329 O   0  0  0  0  0  0  0  0  0  0  0  0
   22.2997  -25.2727  -16.7976 O   0  0  0  0  0  0  0  0  0  0  0  0
  2  3  1  0
  2  1  1  6
  4  2  1  0
  5  4  2  0
  7  6  1  1
  7  8  1  0
  7  9  1  0
  9 11  1  0
  9 10  1  1
 10  4  1  0
 11 12  2  0
 15 14  1  6
 14 13  1  0
 16 15  1  0
 16 11  1  0
 17 18  1  0
 17 15  1  0
 19 17  2  0
M  END
$$$$
