ATS.pdb
     RDKit          3D

 19 18  0  0  1  0  0  0  0  0999 V2000
   27.2656  -18.9023  -15.7820 C   0  0  0  0  0  0  0  0  0  0  0  0
   27.8934  -19.8985  -14.8517 C   0  0  2  0  0  0  0  0  0  0  0  0
   28.8725  -20.6739  -15.5883 N   0  0  0  0  0  0  0  0  0  0  0  0
   26.8380  -20.8016  -14.2950 C   0  0  0  0  0  0  0  0  0  0  0  0
   26.7010  -21.9497  -14.7756 O   0  0  0  0  0  0  0  0  0  0  0  0
   26.3253  -21.3476  -10.5252 C   0  0  0  0  0  0  0  0  0  0  0  0
   24.9914  -21.0688  -11.1783 C   0  0  1  0  0  0  0  0  0  0  0  0
   24.5287  -19.7892  -10.8750 O   0  0  0  0  0  0  0  0  0  0  0  0
   25.0153  -21.3299  -12.6607 C   0  0  2  0  0  0  0  0  0  0  0  0
   25.9742  -20.4252  -13.2410 N   0  0  0  0  0  0  0  0  0  0  0  0
   23.7260  -21.1761  -13.3187 C   0  0  0  0  0  0  0  0  0  0  0  0
   23.3993  -20.0414  -13.7493 O   0  0  0  0  0  0  0  0  0  0  0  0
   19.5338  -22.9191  -15.0756 O   0  0  0  0  0  0  0  0  0  0  0  0
   20.7819  -23.2020  -14.5265 C   0  0  0  0  0  0  0  0  0  0  0  0
   21.4635  -21.9338  -14.0520 C   0  0  2  0  0  0  0  0  0  0  0  0
   22.7808  -22.2187  -13.5227 N   0  0  0  0  0  0  0  0  0  0  0  0
   20.6148  -21.2135  -13.0709 C   0  0  0  0  0  0  0  0  0  0  0  0
   19.5639  -20.4428  -13.5486 O   0  0  0  0  0  0  0  0  0  0  0  0
   20.8124  -21.2773  -11.8488 O   0  0  0  0  0  0  0  0  0  0  0  0
  2  3  1  0
  2  1  1  6
  4  2  1  0
  5  4  2  0
  7  6  1  6
  7  8  1  0
  7  9  1  0
  9 11  1  0
  9 10  1  6
 10  4  1  0
 11 12  2  0
 15 14  1  1
 14 13  1  0
 16 15  1  0
 16 11  1  0
 17 18  1  0
 17 15  1  0
 19 17  2  0
M  END
$$$$
