ATS.pdb
     RDKit          3D

 19 18  0  0  1  0  0  0  0  0999 V2000
   17.2234  -10.2389  -17.3573 C   0  0  0  0  0  0  0  0  0  0  0  0
   18.4579  -10.9888  -16.9499 C   0  0  2  0  0  0  0  0  0  0  0  0
   18.0653  -12.2694  -16.3948 N   0  0  0  0  0  0  0  0  0  0  0  0
   19.2133  -10.1974  -15.9289 C   0  0  0  0  0  0  0  0  0  0  0  0
   18.8095  -10.1862  -14.7437 O   0  0  0  0  0  0  0  0  0  0  0  0
   22.5444  -10.9677  -15.0129 C   0  0  0  0  0  0  0  0  0  0  0  0
   22.5690   -9.4899  -15.3274 C   0  0  1  0  0  0  0  0  0  0  0  0
   23.1685   -9.2372  -16.5604 O   0  0  0  0  0  0  0  0  0  0  0  0
   21.2066   -8.8592  -15.2160 C   0  0  2  0  0  0  0  0  0  0  0  0
   20.3748   -9.4507  -16.2323 N   0  0  0  0  0  0  0  0  0  0  0  0
   21.2025   -7.4100  -15.3523 C   0  0  0  0  0  0  0  0  0  0  0  0
   20.6836   -6.9013  -16.3777 O   0  0  0  0  0  0  0  0  0  0  0  0
   19.8352   -3.3814  -14.7102 O   0  0  0  0  0  0  0  0  0  0  0  0
   20.0437   -4.7514  -14.5730 C   0  0  0  0  0  0  0  0  0  0  0  0
   21.5251   -5.0718  -14.5400 C   0  0  2  0  0  0  0  0  0  0  0  0
   21.7457   -6.4967  -14.4072 N   0  0  0  0  0  0  0  0  0  0  0  0
   22.2081   -4.3022  -13.4708 C   0  0  0  0  0  0  0  0  0  0  0  0
   22.4170   -2.9441  -13.6667 O   0  0  0  0  0  0  0  0  0  0  0  0
   22.5949   -4.8287  -12.4173 O   0  0  0  0  0  0  0  0  0  0  0  0
  2  3  1  0
  2  1  1  1
  4  2  1  0
  5  4  2  0
  7  6  1  6
  7  8  1  0
  7  9  1  0
  9 11  1  0
  9 10  1  6
 10  4  1  0
 11 12  2  0
 15 14  1  1
 14 13  1  0
 16 15  1  0
 16 11  1  0
 17 18  1  0
 17 15  1  0
 19 17  2  0
M  END
$$$$
