ATS.pdb
     RDKit          3D

 19 18  0  0  1  0  0  0  0  0999 V2000
   16.2014   -9.4540  -15.5520 C   0  0  0  0  0  0  0  0  0  0  0  0
   17.0279  -10.1521  -16.5921 C   0  0  2  0  0  0  0  0  0  0  0  0
   17.0501  -11.5715  -16.2964 N   0  0  0  0  0  0  0  0  0  0  0  0
   18.4203   -9.6040  -16.5794 C   0  0  0  0  0  0  0  0  0  0  0  0
   19.2877  -10.1568  -15.8654 O   0  0  0  0  0  0  0  0  0  0  0  0
   21.7135   -6.4397  -18.5241 C   0  0  0  0  0  0  0  0  0  0  0  0
   20.4234   -7.2258  -18.5568 C   0  0  1  0  0  0  0  0  0  0  0  0
   20.3936   -8.1194  -19.6265 O   0  0  0  0  0  0  0  0  0  0  0  0
   20.1315   -7.8999  -17.2427 C   0  0  2  0  0  0  0  0  0  0  0  0
   18.8168   -8.4802  -17.3401 N   0  0  0  0  0  0  0  0  0  0  0  0
   20.2007   -7.0181  -16.0867 C   0  0  0  0  0  0  0  0  0  0  0  0
   19.3088   -6.1449  -15.9389 O   0  0  0  0  0  0  0  0  0  0  0  0
   20.6452   -7.6577  -12.3466 O   0  0  0  0  0  0  0  0  0  0  0  0
   21.5934   -6.7008  -12.6994 C   0  0  0  0  0  0  0  0  0  0  0  0
   21.2495   -6.0649  -14.0319 C   0  0  2  0  0  0  0  0  0  0  0  0
   21.2105   -7.0566  -15.0862 N   0  0  0  0  0  0  0  0  0  0  0  0
   22.1857   -4.9573  -14.3457 C   0  0  0  0  0  0  0  0  0  0  0  0
   22.1739   -3.8332  -13.5316 O   0  0  0  0  0  0  0  0  0  0  0  0
   22.9715   -5.0032  -15.3035 O   0  0  0  0  0  0  0  0  0  0  0  0
  2  3  1  0
  2  1  1  1
  4  2  1  0
  5  4  2  0
  7  6  1  1
  7  8  1  0
  7  9  1  0
  9 11  1  0
  9 10  1  6
 10  4  1  0
 11 12  2  0
 15 14  1  1
 14 13  1  0
 16 15  1  0
 16 11  1  0
 17 18  1  0
 17 15  1  0
 19 17  2  0
M  END
$$$$
