WMN.pdb
     RDKit          3D

 31 32  0  0  1  0  0  0  0  0999 V2000
   10.3935  -15.1398   21.5593 N   0  0  0  0  0  0  0  0  0  0  0  0
    9.0745  -15.3501   22.0888 C   0  0  1  0  0  0  0  0  0  0  0  0
    8.3176  -16.4019   21.3415 C   0  0  0  0  0  0  0  0  0  0  0  0
    7.8330  -15.8605   20.0422 C   0  0  0  0  0  0  0  0  0  0  0  0
    7.1632  -16.5670   19.0515 C   0  0  0  0  0  0  0  0  0  0  0  0
    6.8901  -15.6931   18.0782 N   0  0  0  0  0  0  0  0  0  0  0  0
    7.3435  -14.4690   18.3826 C   0  0  0  0  0  0  0  0  0  0  0  0
    7.3017  -13.2768   17.6975 C   0  0  0  0  0  0  0  0  0  0  0  0
    7.8696  -12.1212   18.2434 C   0  0  0  0  0  0  0  0  0  0  0  0
    8.4776  -12.1741   19.4785 C   0  0  0  0  0  0  0  0  0  0  0  0
    8.5018  -13.3893   20.1406 C   0  0  0  0  0  0  0  0  0  0  0  0
    7.9470  -14.5514   19.6263 C   0  0  0  0  0  0  0  0  0  0  0  0
    9.1816  -15.6675   23.5392 C   0  0  0  0  0  0  0  0  0  0  0  0
   10.3013  -15.8796   24.0690 O   0  0  0  0  0  0  0  0  0  0  0  0
    7.5344  -11.3372   27.0812 C   0  0  0  0  0  0  0  0  0  0  0  0
    7.8812  -13.1015   27.0720 S   0  0  0  0  0  0  0  0  0  0  0  0
    6.5012  -14.0497   26.3196 C   0  0  0  0  0  0  0  0  0  0  0  0
    6.7794  -15.5243   26.3832 C   0  0  0  0  0  0  0  0  0  0  0  0
    8.0929  -15.9278   25.8062 C   0  0  2  0  0  0  0  0  0  0  0  0
    8.0085  -15.7321   24.3313 N   0  0  0  0  0  0  0  0  0  0  0  0
    8.5400  -17.2901   26.0560 C   0  0  0  0  0  0  0  0  0  0  0  0
    7.7202  -18.2451   25.8067 O   0  0  0  0  0  0  0  0  0  0  0  0
   10.9962  -21.6552   27.4517 N   0  0  0  0  0  0  0  0  0  0  0  0
   11.8865  -20.8276   26.7317 C   0  0  0  0  0  0  0  0  0  0  0  0
   12.9956  -21.2855   26.3813 O   0  0  0  0  0  0  0  0  0  0  0  0
   11.5158  -19.4540   26.4009 C   0  0  0  0  0  0  0  0  0  0  0  0
   10.1061  -19.1012   26.8240 C   0  0  2  0  0  0  0  0  0  0  0  0
    9.7863  -17.7205   26.5446 N   0  0  0  0  0  0  0  0  0  0  0  0
    9.9653  -19.3150   28.2863 C   0  0  0  0  0  0  0  0  0  0  0  0
    9.7832  -18.3603   29.0771 O   0  0  0  0  0  0  0  0  0  0  0  0
   10.0460  -20.6426   28.7450 O   0  0  0  0  0  0  0  0  0  0  0  0
  2  3  1  0
  2  1  1  6
  2 13  1  0
  3  4  1  0
  4 12  1  0
  4  5  2  0
  5  6  1  0
  7  6  1  0
  7  8  2  0
  9  8  1  0
 10  9  2  0
 11 12  2  0
 11 10  1  0
 12  7  1  0
 13 14  2  0
 16 15  1  0
 16 17  1  0
 19 18  1  1
 18 17  1  0
 19 21  1  0
 20 13  1  0
 20 19  1  0
 21 22  2  0
 23 24  1  0
 24 25  2  0
 24 26  1  0
 27 26  1  1
 27 29  1  0
 28 27  1  0
 28 21  1  0
 29 30  2  0
 29 31  1  0
M  END
$$$$
