WMN.pdb
     RDKit          3D

 31 32  0  0  1  0  0  0  0  0999 V2000
    6.3093  -18.3861   24.2886 N   0  0  0  0  0  0  0  0  0  0  0  0
    6.7409  -17.0157   24.2792 C   0  0  1  0  0  0  0  0  0  0  0  0
    7.7117  -16.7126   25.3761 C   0  0  0  0  0  0  0  0  0  0  0  0
    7.1658  -15.6520   26.2667 C   0  0  0  0  0  0  0  0  0  0  0  0
    6.1771  -15.8101   27.2294 C   0  0  0  0  0  0  0  0  0  0  0  0
    6.0173  -14.6180   27.8115 N   0  0  0  0  0  0  0  0  0  0  0  0
    6.8421  -13.7038   27.2816 C   0  0  0  0  0  0  0  0  0  0  0  0
    7.0260  -12.3670   27.5493 C   0  0  0  0  0  0  0  0  0  0  0  0
    7.9644  -11.6191   26.8309 C   0  0  0  0  0  0  0  0  0  0  0  0
    8.7131  -12.2240   25.8453 C   0  0  0  0  0  0  0  0  0  0  0  0
    8.5030  -13.5702   25.6019 C   0  0  0  0  0  0  0  0  0  0  0  0
    7.5814  -14.3382   26.2974 C   0  0  0  0  0  0  0  0  0  0  0  0
    7.3005  -16.6951   22.9376 C   0  0  0  0  0  0  0  0  0  0  0  0
    7.8556  -17.5843   22.2443 O   0  0  0  0  0  0  0  0  0  0  0  0
    7.8306  -13.1538   16.5678 C   0  0  0  0  0  0  0  0  0  0  0  0
    7.4274  -14.0016   18.1013 S   0  0  0  0  0  0  0  0  0  0  0  0
    7.9945  -13.0456   19.5623 C   0  0  0  0  0  0  0  0  0  0  0  0
    7.3992  -13.6065   20.8219 C   0  0  0  0  0  0  0  0  0  0  0  0
    7.7886  -15.0156   21.1119 C   0  0  2  0  0  0  0  0  0  0  0  0
    7.2074  -15.3728   22.4367 N   0  0  0  0  0  0  0  0  0  0  0  0
    9.2114  -15.3199   21.1461 C   0  0  0  0  0  0  0  0  0  0  0  0
    9.8409  -15.1190   22.2459 O   0  0  0  0  0  0  0  0  0  0  0  0
   12.9981  -19.3371   21.5845 N   0  0  0  0  0  0  0  0  0  0  0  0
   12.7952  -17.9423   21.4873 C   0  0  0  0  0  0  0  0  0  0  0  0
   13.7830  -17.1780   21.5385 O   0  0  0  0  0  0  0  0  0  0  0  0
   11.4482  -17.4000   21.3291 C   0  0  0  0  0  0  0  0  0  0  0  0
   11.3713  -16.2914   20.3015 C   0  0  2  0  0  0  0  0  0  0  0  0
   10.0183  -15.8232   20.1103 N   0  0  0  0  0  0  0  0  0  0  0  0
   11.8675  -16.7972   18.9969 C   0  0  0  0  0  0  0  0  0  0  0  0
   13.0096  -16.5090   18.5699 O   0  0  0  0  0  0  0  0  0  0  0  0
   10.9939  -17.6176   18.2597 O   0  0  0  0  0  0  0  0  0  0  0  0
  2  3  1  0
  2  1  1  6
  2 13  1  0
  3  4  1  0
  4 12  1  0
  4  5  2  0
  5  6  1  0
  7  6  1  0
  7  8  2  0
  9  8  1  0
 10  9  2  0
 11 12  2  0
 11 10  1  0
 12  7  1  0
 13 14  2  0
 16 15  1  0
 16 17  1  0
 19 18  1  1
 18 17  1  0
 19 21  1  0
 20 13  1  0
 20 19  1  0
 21 22  2  0
 23 24  1  0
 24 25  2  0
 24 26  1  0
 27 26  1  1
 27 29  1  0
 28 27  1  0
 28 21  1  0
 29 30  2  0
 29 31  1  0
M  END
$$$$
