WMN.pdb
     RDKit          3D

 31 32  0  0  1  0  0  0  0  0999 V2000
    8.1426  -17.2415   20.9601 N   0  0  0  0  0  0  0  0  0  0  0  0
    7.3260  -17.0322   22.1235 C   0  0  1  0  0  0  0  0  0  0  0  0
    6.5885  -18.2664   22.5363 C   0  0  0  0  0  0  0  0  0  0  0  0
    5.4426  -18.5113   21.6181 C   0  0  0  0  0  0  0  0  0  0  0  0
    4.6182  -19.6291   21.6062 C   0  0  0  0  0  0  0  0  0  0  0  0
    3.7088  -19.4221   20.6493 N   0  0  0  0  0  0  0  0  0  0  0  0
    3.8986  -18.2405   20.0456 C   0  0  0  0  0  0  0  0  0  0  0  0
    3.2292  -17.6146   19.0195 C   0  0  0  0  0  0  0  0  0  0  0  0
    3.6441  -16.3611   18.5584 C   0  0  0  0  0  0  0  0  0  0  0  0
    4.7329  -15.7448   19.1350 C   0  0  0  0  0  0  0  0  0  0  0  0
    5.3831  -16.4021   20.1650 C   0  0  0  0  0  0  0  0  0  0  0  0
    4.9955  -17.6440   20.6445 C   0  0  0  0  0  0  0  0  0  0  0  0
    8.1783  -16.5006   23.2221 C   0  0  0  0  0  0  0  0  0  0  0  0
    9.4293  -16.4697   23.1065 O   0  0  0  0  0  0  0  0  0  0  0  0
    9.5995  -12.4190   29.3221 C   0  0  0  0  0  0  0  0  0  0  0  0
    8.8748  -12.9118   27.7519 S   0  0  0  0  0  0  0  0  0  0  0  0
    8.1227  -14.5829   27.8584 C   0  0  0  0  0  0  0  0  0  0  0  0
    7.4705  -14.9506   26.5563 C   0  0  0  0  0  0  0  0  0  0  0  0
    8.4027  -15.5136   25.5389 C   0  0  2  0  0  0  0  0  0  0  0  0
    7.5729  -16.0251   24.4118 N   0  0  0  0  0  0  0  0  0  0  0  0
    9.2900  -16.5842   25.9686 C   0  0  0  0  0  0  0  0  0  0  0  0
    8.7586  -17.6965   26.3244 O   0  0  0  0  0  0  0  0  0  0  0  0
   12.2337  -18.0839   24.0249 N   0  0  0  0  0  0  0  0  0  0  0  0
   13.2593  -17.7419   24.9345 C   0  0  0  0  0  0  0  0  0  0  0  0
   14.4360  -17.6558   24.5217 O   0  0  0  0  0  0  0  0  0  0  0  0
   12.9485  -17.4922   26.3397 C   0  0  0  0  0  0  0  0  0  0  0  0
   11.4740  -17.6247   26.6543 C   0  0  2  0  0  0  0  0  0  0  0  0
   10.6939  -16.5713   26.0473 N   0  0  0  0  0  0  0  0  0  0  0  0
   11.2777  -17.5485   28.1239 C   0  0  0  0  0  0  0  0  0  0  0  0
   11.0541  -18.5711   28.8125 O   0  0  0  0  0  0  0  0  0  0  0  0
   11.3545  -16.2716   28.7098 O   0  0  0  0  0  0  0  0  0  0  0  0
  2  3  1  0
  2  1  1  6
  2 13  1  0
  3  4  1  0
  4 12  1  0
  4  5  2  0
  5  6  1  0
  7  6  1  0
  7  8  2  0
  9  8  1  0
 10  9  2  0
 11 12  2  0
 11 10  1  0
 12  7  1  0
 13 14  2  0
 16 15  1  0
 16 17  1  0
 19 18  1  1
 18 17  1  0
 19 21  1  0
 20 13  1  0
 20 19  1  0
 21 22  2  0
 23 24  1  0
 24 25  2  0
 24 26  1  0
 27 26  1  1
 27 29  1  0
 28 27  1  0
 28 21  1  0
 29 30  2  0
 29 31  1  0
M  END
$$$$
