WMN.pdb
     RDKit          3D

 31 32  0  0  1  0  0  0  0  0999 V2000
    5.8793  -18.1759   24.3521 N   0  0  0  0  0  0  0  0  0  0  0  0
    6.7189  -17.0118   24.2873 C   0  0  1  0  0  0  0  0  0  0  0  0
    7.4193  -16.7371   25.5802 C   0  0  0  0  0  0  0  0  0  0  0  0
    6.8069  -15.5607   26.2562 C   0  0  0  0  0  0  0  0  0  0  0  0
    5.7416  -15.5824   27.1473 C   0  0  0  0  0  0  0  0  0  0  0  0
    5.5399  -14.3187   27.5316 N   0  0  0  0  0  0  0  0  0  0  0  0
    6.4098  -13.4865   26.9420 C   0  0  0  0  0  0  0  0  0  0  0  0
    6.5772  -12.1235   27.0233 C   0  0  0  0  0  0  0  0  0  0  0  0
    7.5750  -11.4828   26.2817 C   0  0  0  0  0  0  0  0  0  0  0  0
    8.3995  -12.2209   25.4612 C   0  0  0  0  0  0  0  0  0  0  0  0
    8.2040  -13.5899   25.4031 C   0  0  0  0  0  0  0  0  0  0  0  0
    7.2247  -14.2537   26.1264 C   0  0  0  0  0  0  0  0  0  0  0  0
    7.6770  -17.1700   23.1590 C   0  0  0  0  0  0  0  0  0  0  0  0
    8.0561  -18.3112   22.7938 O   0  0  0  0  0  0  0  0  0  0  0  0
    8.4647  -11.6089   20.1706 C   0  0  0  0  0  0  0  0  0  0  0  0
    7.6043  -12.8328   19.1731 S   0  0  0  0  0  0  0  0  0  0  0  0
    7.5471  -14.4620   20.0171 C   0  0  0  0  0  0  0  0  0  0  0  0
    8.9058  -14.8326   20.5388 C   0  0  0  0  0  0  0  0  0  0  0  0
    8.9596  -16.1499   21.2337 C   0  0  2  0  0  0  0  0  0  0  0  0
    8.1679  -16.0215   22.4897 N   0  0  0  0  0  0  0  0  0  0  0  0
   10.2751  -16.6672   21.5800 C   0  0  0  0  0  0  0  0  0  0  0  0
   10.7984  -16.2818   22.6863 O   0  0  0  0  0  0  0  0  0  0  0  0
   14.6033  -20.5942   21.5124 N   0  0  0  0  0  0  0  0  0  0  0  0
   14.3072  -19.4661   20.7148 C   0  0  0  0  0  0  0  0  0  0  0  0
   15.2461  -18.7691   20.2729 O   0  0  0  0  0  0  0  0  0  0  0  0
   12.9215  -19.1186   20.4106 C   0  0  0  0  0  0  0  0  0  0  0  0
   12.3857  -18.0000   21.2780 C   0  0  2  0  0  0  0  0  0  0  0  0
   11.0773  -17.5623   20.8502 N   0  0  0  0  0  0  0  0  0  0  0  0
   13.3041  -16.8363   21.1997 C   0  0  0  0  0  0  0  0  0  0  0  0
   14.1079  -16.5682   22.1227 O   0  0  0  0  0  0  0  0  0  0  0  0
   13.2305  -16.0459   20.0381 O   0  0  0  0  0  0  0  0  0  0  0  0
  2  3  1  0
  2  1  1  1
  2 13  1  0
  3  4  1  0
  4 12  1  0
  4  5  2  0
  5  6  1  0
  7  6  1  0
  7  8  2  0
  9  8  1  0
 10  9  2  0
 11 12  2  0
 11 10  1  0
 12  7  1  0
 13 14  2  0
 16 15  1  0
 16 17  1  0
 19 18  1  1
 18 17  1  0
 19 21  1  0
 20 13  1  0
 20 19  1  0
 21 22  2  0
 23 24  1  0
 24 25  2  0
 24 26  1  0
 27 26  1  6
 27 29  1  0
 28 27  1  0
 28 21  1  0
 29 30  2  0
 29 31  1  0
M  END
$$$$
