WMN.pdb
     RDKit          3D

 31 32  0  0  1  0  0  0  0  0999 V2000
    6.5771  -17.5660   25.5080 N   0  0  0  0  0  0  0  0  0  0  0  0
    7.1962  -16.4000   24.9410 C   0  0  1  0  0  0  0  0  0  0  0  0
    8.4951  -16.0619   25.6014 C   0  0  0  0  0  0  0  0  0  0  0  0
    8.2920  -14.9922   26.6166 C   0  0  0  0  0  0  0  0  0  0  0  0
    8.6768  -15.0359   27.9506 C   0  0  0  0  0  0  0  0  0  0  0  0
    8.3306  -13.8616   28.4860 N   0  0  0  0  0  0  0  0  0  0  0  0
    7.7467  -13.0667   27.5784 C   0  0  0  0  0  0  0  0  0  0  0  0
    7.2287  -11.7953   27.6678 C   0  0  0  0  0  0  0  0  0  0  0  0
    6.6530  -11.1805   26.5513 C   0  0  0  0  0  0  0  0  0  0  0  0
    6.6027  -11.8517   25.3493 C   0  0  0  0  0  0  0  0  0  0  0  0
    7.1331  -13.1289   25.2942 C   0  0  0  0  0  0  0  0  0  0  0  0
    7.7109  -13.7645   26.3828 C   0  0  0  0  0  0  0  0  0  0  0  0
    7.3545  -16.6024   23.4748 C   0  0  0  0  0  0  0  0  0  0  0  0
    7.2700  -17.7513   22.9724 O   0  0  0  0  0  0  0  0  0  0  0  0
    8.0722  -11.4133   19.6091 C   0  0  0  0  0  0  0  0  0  0  0  0
    7.9321  -12.6871   18.3477 S   0  0  0  0  0  0  0  0  0  0  0  0
    8.1437  -14.3636   19.0648 C   0  0  0  0  0  0  0  0  0  0  0  0
    7.8411  -14.3489   20.5358 C   0  0  0  0  0  0  0  0  0  0  0  0
    7.9622  -15.6766   21.2019 C   0  0  2  0  0  0  0  0  0  0  0  0
    7.6041  -15.4879   22.6360 N   0  0  0  0  0  0  0  0  0  0  0  0
    9.2586  -16.3356   21.1432 C   0  0  0  0  0  0  0  0  0  0  0  0
    9.3662  -17.3820   20.4087 O   0  0  0  0  0  0  0  0  0  0  0  0
   12.5325  -13.2625   20.2552 N   0  0  0  0  0  0  0  0  0  0  0  0
   12.6276  -14.6678   20.1446 C   0  0  0  0  0  0  0  0  0  0  0  0
   12.5532  -15.1963   19.0142 O   0  0  0  0  0  0  0  0  0  0  0  0
   12.8104  -15.4927   21.3360 C   0  0  0  0  0  0  0  0  0  0  0  0
   11.7388  -16.5495   21.4967 C   0  0  2  0  0  0  0  0  0  0  0  0
   10.4493  -15.9720   21.7969 N   0  0  0  0  0  0  0  0  0  0  0  0
   12.1056  -17.4531   22.6160 C   0  0  0  0  0  0  0  0  0  0  0  0
   13.2045  -18.0542   22.6444 O   0  0  0  0  0  0  0  0  0  0  0  0
   11.1599  -17.6040   23.6468 O   0  0  0  0  0  0  0  0  0  0  0  0
  2  3  1  0
  2  1  1  1
  2 13  1  0
  3  4  1  0
  4 12  1  0
  4  5  2  0
  5  6  1  0
  7  6  1  0
  7  8  2  0
  9  8  1  0
 10  9  2  0
 11 12  2  0
 11 10  1  0
 12  7  1  0
 13 14  2  0
 16 15  1  0
 16 17  1  0
 19 18  1  6
 18 17  1  0
 19 21  1  0
 20 13  1  0
 20 19  1  0
 21 22  2  0
 23 24  1  0
 24 25  2  0
 24 26  1  0
 27 26  1  1
 27 29  1  0
 28 27  1  0
 28 21  1  0
 29 30  2  0
 29 31  1  0
M  END
$$$$
