WMN.pdb
     RDKit          3D

 31 32  0  0  1  0  0  0  0  0999 V2000
    7.7928  -17.2951   21.0166 N   0  0  0  0  0  0  0  0  0  0  0  0
    9.1973  -17.3092   21.3191 C   0  0  1  0  0  0  0  0  0  0  0  0
   10.0266  -16.7243   20.2201 C   0  0  0  0  0  0  0  0  0  0  0  0
    9.4610  -15.4161   19.7904 C   0  0  0  0  0  0  0  0  0  0  0  0
    9.7408  -14.7439   18.6076 C   0  0  0  0  0  0  0  0  0  0  0  0
    8.9983  -13.6330   18.6153 N   0  0  0  0  0  0  0  0  0  0  0  0
    8.2591  -13.5501   19.7304 C   0  0  0  0  0  0  0  0  0  0  0  0
    7.3671  -12.6009   20.1733 C   0  0  0  0  0  0  0  0  0  0  0  0
    6.7221  -12.7495   21.4053 C   0  0  0  0  0  0  0  0  0  0  0  0
    6.9803  -13.8555   22.1850 C   0  0  0  0  0  0  0  0  0  0  0  0
    7.8828  -14.7910   21.7094 C   0  0  0  0  0  0  0  0  0  0  0  0
    8.5371  -14.6723   20.4926 C   0  0  0  0  0  0  0  0  0  0  0  0
    9.4189  -16.6102   22.6146 C   0  0  0  0  0  0  0  0  0  0  0  0
   10.3545  -15.7813   22.7450 O   0  0  0  0  0  0  0  0  0  0  0  0
    9.8808  -12.4635   26.8491 C   0  0  0  0  0  0  0  0  0  0  0  0
    8.1520  -12.8985   26.6139 S   0  0  0  0  0  0  0  0  0  0  0  0
    7.8968  -14.7122   26.7370 C   0  0  0  0  0  0  0  0  0  0  0  0
    7.7970  -15.3238   25.3689 C   0  0  0  0  0  0  0  0  0  0  0  0
    8.8587  -16.3240   25.0634 C   0  0  2  0  0  0  0  0  0  0  0  0
    8.5666  -16.8829   23.7133 N   0  0  0  0  0  0  0  0  0  0  0  0
    9.0121  -17.4365   25.9891 C   0  0  0  0  0  0  0  0  0  0  0  0
    8.2498  -18.4565   25.8317 O   0  0  0  0  0  0  0  0  0  0  0  0
   13.1456  -20.4620   25.2677 N   0  0  0  0  0  0  0  0  0  0  0  0
   13.0707  -19.3727   26.1642 C   0  0  0  0  0  0  0  0  0  0  0  0
   13.9476  -19.2482   27.0463 O   0  0  0  0  0  0  0  0  0  0  0  0
   11.9822  -18.4040   26.0619 C   0  0  0  0  0  0  0  0  0  0  0  0
   10.9373  -18.5685   27.1444 C   0  0  2  0  0  0  0  0  0  0  0  0
    9.9105  -17.5557   27.0643 N   0  0  0  0  0  0  0  0  0  0  0  0
   11.5873  -18.4547   28.4742 C   0  0  0  0  0  0  0  0  0  0  0  0
   11.6569  -19.4289   29.2590 O   0  0  0  0  0  0  0  0  0  0  0  0
   12.1233  -17.1990   28.8141 O   0  0  0  0  0  0  0  0  0  0  0  0
  2  3  1  0
  2  1  1  6
  2 13  1  0
  3  4  1  0
  4 12  1  0
  4  5  2  0
  5  6  1  0
  7  6  1  0
  7  8  2  0
  9  8  1  0
 10  9  2  0
 11 12  2  0
 11 10  1  0
 12  7  1  0
 13 14  2  0
 16 15  1  0
 16 17  1  0
 19 18  1  1
 18 17  1  0
 19 21  1  0
 20 13  1  0
 20 19  1  0
 21 22  2  0
 23 24  1  0
 24 25  2  0
 24 26  1  0
 27 26  1  6
 27 29  1  0
 28 27  1  0
 28 21  1  0
 29 30  2  0
 29 31  1  0
M  END
$$$$
