WMN.pdb
     RDKit          3D

 31 32  0  0  1  0  0  0  0  0999 V2000
    8.4573  -17.1776   21.9774 N   0  0  0  0  0  0  0  0  0  0  0  0
    8.2748  -15.7621   22.1433 C   0  0  1  0  0  0  0  0  0  0  0  0
    6.9239  -15.3016   21.6955 C   0  0  0  0  0  0  0  0  0  0  0  0
    6.9490  -14.9711   20.2442 C   0  0  0  0  0  0  0  0  0  0  0  0
    6.4514  -15.7538   19.2103 C   0  0  0  0  0  0  0  0  0  0  0  0
    6.6529  -15.0678   18.0815 N   0  0  0  0  0  0  0  0  0  0  0  0
    7.2497  -13.8928   18.3267 C   0  0  0  0  0  0  0  0  0  0  0  0
    7.6538  -12.8757   17.4932 C   0  0  0  0  0  0  0  0  0  0  0  0
    8.2755  -11.7349   18.0110 C   0  0  0  0  0  0  0  0  0  0  0  0
    8.4868  -11.6259   19.3679 C   0  0  0  0  0  0  0  0  0  0  0  0
    8.0678  -12.6672   20.1777 C   0  0  0  0  0  0  0  0  0  0  0  0
    7.4481  -13.8098   19.6947 C   0  0  0  0  0  0  0  0  0  0  0  0
    8.5412  -15.4045   23.5635 C   0  0  0  0  0  0  0  0  0  0  0  0
    8.6458  -14.2021   23.9141 O   0  0  0  0  0  0  0  0  0  0  0  0
    7.2932  -12.3047   27.4523 C   0  0  0  0  0  0  0  0  0  0  0  0
    6.3289  -13.7962   27.1720 S   0  0  0  0  0  0  0  0  0  0  0  0
    7.2244  -14.9771   26.0888 C   0  0  0  0  0  0  0  0  0  0  0  0
    8.6283  -15.1826   26.5814 C   0  0  0  0  0  0  0  0  0  0  0  0
    9.4119  -16.1850   25.8053 C   0  0  2  0  0  0  0  0  0  0  0  0
    8.6794  -16.4306   24.5310 N   0  0  0  0  0  0  0  0  0  0  0  0
    9.6603  -17.4716   26.4385 C   0  0  0  0  0  0  0  0  0  0  0  0
    8.6520  -18.2311   26.6682 O   0  0  0  0  0  0  0  0  0  0  0  0
   13.9217  -18.9332   25.7468 N   0  0  0  0  0  0  0  0  0  0  0  0
   12.8875  -19.8259   26.1069 C   0  0  0  0  0  0  0  0  0  0  0  0
   12.4095  -20.5869   25.2380 O   0  0  0  0  0  0  0  0  0  0  0  0
   12.3830  -19.8592   27.4773 C   0  0  0  0  0  0  0  0  0  0  0  0
   11.0145  -19.2290   27.6218 C   0  0  2  0  0  0  0  0  0  0  0  0
   10.8909  -18.0184   26.8435 N   0  0  0  0  0  0  0  0  0  0  0  0
   10.7832  -18.8809   29.0463 C   0  0  0  0  0  0  0  0  0  0  0  0
   10.7422  -19.7577   29.9404 O   0  0  0  0  0  0  0  0  0  0  0  0
   10.6116  -17.5173   29.3474 O   0  0  0  0  0  0  0  0  0  0  0  0
  2  3  1  0
  2  1  1  1
  2 13  1  0
  3  4  1  0
  4 12  1  0
  4  5  2  0
  5  6  1  0
  7  6  1  0
  7  8  2  0
  9  8  1  0
 10  9  2  0
 11 12  2  0
 11 10  1  0
 12  7  1  0
 13 14  2  0
 16 15  1  0
 16 17  1  0
 19 18  1  1
 18 17  1  0
 19 21  1  0
 20 13  1  0
 20 19  1  0
 21 22  2  0
 23 24  1  0
 24 25  2  0
 24 26  1  0
 27 26  1  1
 27 29  1  0
 28 27  1  0
 28 21  1  0
 29 30  2  0
 29 31  1  0
M  END
$$$$
