WMN.pdb
     RDKit          3D

 31 32  0  0  1  0  0  0  0  0999 V2000
    9.2345  -17.5598   25.6764 N   0  0  0  0  0  0  0  0  0  0  0  0
    7.8026  -17.6605   25.7381 C   0  0  1  0  0  0  0  0  0  0  0  0
    7.2606  -17.3090   27.0873 C   0  0  0  0  0  0  0  0  0  0  0  0
    8.3767  -17.0719   28.0434 C   0  0  0  0  0  0  0  0  0  0  0  0
    9.0903  -18.0413   28.7365 C   0  0  0  0  0  0  0  0  0  0  0  0
   10.0142  -17.3950   29.4535 N   0  0  0  0  0  0  0  0  0  0  0  0
    9.9377  -16.0702   29.2640 C   0  0  0  0  0  0  0  0  0  0  0  0
   10.6627  -15.0238   29.7856 C   0  0  0  0  0  0  0  0  0  0  0  0
   10.3692  -13.7046   29.4257 C   0  0  0  0  0  0  0  0  0  0  0  0
    9.3450  -13.4473   28.5410 C   0  0  0  0  0  0  0  0  0  0  0  0
    8.6361  -14.5231   28.0352 C   0  0  0  0  0  0  0  0  0  0  0  0
    8.9036  -15.8414   28.3719 C   0  0  0  0  0  0  0  0  0  0  0  0
    7.2126  -16.8147   24.6647 C   0  0  0  0  0  0  0  0  0  0  0  0
    6.0028  -16.9334   24.3457 O   0  0  0  0  0  0  0  0  0  0  0  0
    6.6730  -11.9056   26.2916 C   0  0  0  0  0  0  0  0  0  0  0  0
    6.4608  -13.2709   25.1408 S   0  0  0  0  0  0  0  0  0  0  0  0
    7.7792  -13.2791   23.8636 C   0  0  0  0  0  0  0  0  0  0  0  0
    7.3196  -14.0145   22.6373 C   0  0  0  0  0  0  0  0  0  0  0  0
    7.7163  -15.4505   22.5964 C   0  0  2  0  0  0  0  0  0  0  0  0
    8.0237  -15.8658   23.9942 N   0  0  0  0  0  0  0  0  0  0  0  0
    8.8537  -15.8038   21.7600 C   0  0  0  0  0  0  0  0  0  0  0  0
    8.8496  -15.4014   20.5417 O   0  0  0  0  0  0  0  0  0  0  0  0
   12.6205  -15.6173   23.4579 N   0  0  0  0  0  0  0  0  0  0  0  0
   12.6222  -15.7833   22.0548 C   0  0  0  0  0  0  0  0  0  0  0  0
   12.9030  -14.8072   21.3262 O   0  0  0  0  0  0  0  0  0  0  0  0
   12.2997  -17.0792   21.4630 C   0  0  0  0  0  0  0  0  0  0  0  0
   10.8261  -17.2426   21.1584 C   0  0  2  0  0  0  0  0  0  0  0  0
    9.9953  -16.5454   22.1124 N   0  0  0  0  0  0  0  0  0  0  0  0
   10.4715  -18.6832   21.2121 C   0  0  0  0  0  0  0  0  0  0  0  0
    9.6122  -19.1207   22.0121 O   0  0  0  0  0  0  0  0  0  0  0  0
   11.1466  -19.5374   20.3209 O   0  0  0  0  0  0  0  0  0  0  0  0
  2  3  1  0
  2  1  1  1
  2 13  1  0
  3  4  1  0
  4 12  1  0
  4  5  2  0
  5  6  1  0
  7  6  1  0
  7  8  2  0
  9  8  1  0
 10  9  2  0
 11 12  2  0
 11 10  1  0
 12  7  1  0
 13 14  2  0
 16 15  1  0
 16 17  1  0
 19 18  1  1
 18 17  1  0
 19 21  1  0
 20 13  1  0
 20 19  1  0
 21 22  2  0
 23 24  1  0
 24 25  2  0
 24 26  1  0
 27 26  1  1
 27 29  1  0
 28 27  1  0
 28 21  1  0
 29 30  2  0
 29 31  1  0
M  END
$$$$
