WMN.pdb
     RDKit          3D

 31 32  0  0  1  0  0  0  0  0999 V2000
    6.6098  -18.4180   25.6906 N   0  0  0  0  0  0  0  0  0  0  0  0
    7.1282  -17.1370   25.2976 C   0  0  1  0  0  0  0  0  0  0  0  0
    8.4975  -16.8806   25.8425 C   0  0  0  0  0  0  0  0  0  0  0  0
    8.4484  -15.8042   26.8696 C   0  0  0  0  0  0  0  0  0  0  0  0
    8.6518  -15.9559   28.2352 C   0  0  0  0  0  0  0  0  0  0  0  0
    8.5470  -14.7377   28.7741 N   0  0  0  0  0  0  0  0  0  0  0  0
    8.2884  -13.8130   27.8389 C   0  0  0  0  0  0  0  0  0  0  0  0
    8.0945  -12.4534   27.9196 C   0  0  0  0  0  0  0  0  0  0  0  0
    7.8235  -11.7030   26.7708 C   0  0  0  0  0  0  0  0  0  0  0  0
    7.7494  -12.3284   25.5456 C   0  0  0  0  0  0  0  0  0  0  0  0
    7.9497  -13.6972   25.5001 C   0  0  0  0  0  0  0  0  0  0  0  0
    8.2208  -14.4678   26.6205 C   0  0  0  0  0  0  0  0  0  0  0  0
    7.0934  -17.0371   23.8128 C   0  0  0  0  0  0  0  0  0  0  0  0
    7.2900  -18.0508   23.0963 O   0  0  0  0  0  0  0  0  0  0  0  0
    8.1846  -11.9846   18.0456 C   0  0  0  0  0  0  0  0  0  0  0  0
    8.0824  -12.5370   19.7537 S   0  0  0  0  0  0  0  0  0  0  0  0
    6.7968  -13.8307   19.9616 C   0  0  0  0  0  0  0  0  0  0  0  0
    6.6470  -14.1959   21.4108 C   0  0  0  0  0  0  0  0  0  0  0  0
    7.0396  -15.5963   21.7358 C   0  0  2  0  0  0  0  0  0  0  0  0
    6.8367  -15.7855   23.2000 N   0  0  0  0  0  0  0  0  0  0  0  0
    8.4005  -15.9987   21.4129 C   0  0  0  0  0  0  0  0  0  0  0  0
    8.5666  -16.8358   20.4548 O   0  0  0  0  0  0  0  0  0  0  0  0
   13.5030  -16.2662   20.5821 N   0  0  0  0  0  0  0  0  0  0  0  0
   12.9423  -14.9792   20.4225 C   0  0  0  0  0  0  0  0  0  0  0  0
   13.6042  -14.0946   19.8376 O   0  0  0  0  0  0  0  0  0  0  0  0
   11.6062  -14.6859   20.9345 C   0  0  0  0  0  0  0  0  0  0  0  0
   10.9111  -15.9007   21.5105 C   0  0  2  0  0  0  0  0  0  0  0  0
    9.5980  -15.5821   22.0210 N   0  0  0  0  0  0  0  0  0  0  0  0
   11.7183  -16.4407   22.6334 C   0  0  0  0  0  0  0  0  0  0  0  0
   12.7712  -17.0903   22.4351 O   0  0  0  0  0  0  0  0  0  0  0  0
   11.2455  -16.1889   23.9344 O   0  0  0  0  0  0  0  0  0  0  0  0
  2  3  1  0
  2  1  1  6
  2 13  1  0
  3  4  1  0
  4 12  1  0
  4  5  2  0
  5  6  1  0
  7  6  1  0
  7  8  2  0
  9  8  1  0
 10  9  2  0
 11 12  2  0
 11 10  1  0
 12  7  1  0
 13 14  2  0
 16 15  1  0
 16 17  1  0
 19 18  1  1
 18 17  1  0
 19 21  1  0
 20 13  1  0
 20 19  1  0
 21 22  2  0
 23 24  1  0
 24 25  2  0
 24 26  1  0
 27 26  1  1
 27 29  1  0
 28 27  1  0
 28 21  1  0
 29 30  2  0
 29 31  1  0
M  END
$$$$
