WMN.pdb
     RDKit          3D

 31 32  0  0  1  0  0  0  0  0999 V2000
    8.2707  -17.2154   25.1487 N   0  0  0  0  0  0  0  0  0  0  0  0
    7.5286  -16.3002   24.3264 C   0  0  1  0  0  0  0  0  0  0  0  0
    7.7664  -14.8714   24.6998 C   0  0  0  0  0  0  0  0  0  0  0  0
    8.1012  -14.7676   26.1467 C   0  0  0  0  0  0  0  0  0  0  0  0
    8.9306  -15.6187   26.8655 C   0  0  0  0  0  0  0  0  0  0  0  0
    8.9757  -15.1433   28.1135 N   0  0  0  0  0  0  0  0  0  0  0  0
    8.2260  -14.0395   28.2406 C   0  0  0  0  0  0  0  0  0  0  0  0
    7.9659  -13.2241   29.3176 C   0  0  0  0  0  0  0  0  0  0  0  0
    7.1221  -12.1166   29.1853 C   0  0  0  0  0  0  0  0  0  0  0  0
    6.5444  -11.8370   27.9664 C   0  0  0  0  0  0  0  0  0  0  0  0
    6.8274  -12.6775   26.9037 C   0  0  0  0  0  0  0  0  0  0  0  0
    7.6600  -13.7819   27.0032 C   0  0  0  0  0  0  0  0  0  0  0  0
    7.8539  -16.5626   22.8977 C   0  0  0  0  0  0  0  0  0  0  0  0
    8.1459  -17.7212   22.5080 O   0  0  0  0  0  0  0  0  0  0  0  0
    8.4109  -11.7146   19.1634 C   0  0  0  0  0  0  0  0  0  0  0  0
    8.8760  -13.1451   18.1782 S   0  0  0  0  0  0  0  0  0  0  0  0
    7.6511  -14.5015   18.3502 C   0  0  0  0  0  0  0  0  0  0  0  0
    7.2519  -14.6712   19.7881 C   0  0  0  0  0  0  0  0  0  0  0  0
    7.9850  -15.7517   20.5065 C   0  0  2  0  0  0  0  0  0  0  0  0
    7.8351  -15.4945   21.9667 N   0  0  0  0  0  0  0  0  0  0  0  0
    9.4036  -15.9002   20.2175 C   0  0  0  0  0  0  0  0  0  0  0  0
    9.7355  -16.3804   19.0749 O   0  0  0  0  0  0  0  0  0  0  0  0
   12.1627  -15.0871   18.2110 N   0  0  0  0  0  0  0  0  0  0  0  0
   12.8679  -14.4111   19.2317 C   0  0  0  0  0  0  0  0  0  0  0  0
   13.5401  -13.3984   18.9399 O   0  0  0  0  0  0  0  0  0  0  0  0
   12.8123  -14.8895   20.6107 C   0  0  0  0  0  0  0  0  0  0  0  0
   11.8453  -16.0381   20.8021 C   0  0  2  0  0  0  0  0  0  0  0  0
   10.4973  -15.5771   21.0403 N   0  0  0  0  0  0  0  0  0  0  0  0
   12.2664  -16.8426   21.9766 C   0  0  0  0  0  0  0  0  0  0  0  0
   12.2781  -16.3625   23.1339 O   0  0  0  0  0  0  0  0  0  0  0  0
   12.6530  -18.1727   21.7300 O   0  0  0  0  0  0  0  0  0  0  0  0
  2  3  1  0
  2  1  1  1
  2 13  1  0
  3  4  1  0
  4 12  1  0
  4  5  2  0
  5  6  1  0
  7  6  1  0
  7  8  2  0
  9  8  1  0
 10  9  2  0
 11 12  2  0
 11 10  1  0
 12  7  1  0
 13 14  2  0
 16 15  1  0
 16 17  1  0
 19 18  1  6
 18 17  1  0
 19 21  1  0
 20 13  1  0
 20 19  1  0
 21 22  2  0
 23 24  1  0
 24 25  2  0
 24 26  1  0
 27 26  1  1
 27 29  1  0
 28 27  1  0
 28 21  1  0
 29 30  2  0
 29 31  1  0
M  END
$$$$
