VHP.pdb
     RDKit          3D

 25 26  0  0  1  0  0  0  0  0999 V2000
   27.2105  -17.5669  -13.7919 C   0  0  0  0  0  0  0  0  0  0  0  0
   27.8679  -18.9517  -13.7650 C   0  0  2  0  0  0  0  0  0  0  0  0
   28.3263  -19.2231  -15.1680 C   0  0  0  0  0  0  0  0  0  0  0  0
   26.8050  -19.9004  -13.2734 C   0  0  2  0  0  0  0  0  0  0  0  0
   25.7023  -19.7800  -14.2445 N   0  0  0  0  0  0  0  0  0  0  0  0
   26.2598  -19.5424  -11.9426 C   0  0  0  0  0  0  0  0  0  0  0  0
   25.3788  -18.6232  -11.8110 O   0  0  0  0  0  0  0  0  0  0  0  0
   26.6588  -20.1713  -10.7467 N   0  0  0  0  0  0  0  0  0  0  0  0
   25.8903  -19.9559   -9.4554 C   0  0  1  0  0  0  0  0  0  0  0  0
   24.8629  -21.0534   -9.5787 C   0  0  0  0  0  0  0  0  0  0  0  0
   23.8100  -21.1531   -8.5939 C   0  0  0  0  0  0  0  0  0  0  0  0
   23.3696  -20.4262   -7.5308 C   0  0  0  0  0  0  0  0  0  0  0  0
   22.2703  -20.9602   -6.9802 N   0  0  0  0  0  0  0  0  0  0  0  0
   22.0054  -22.0495   -7.7105 C   0  0  0  0  0  0  0  0  0  0  0  0
   22.8929  -22.1888   -8.6665 N   0  0  0  0  0  0  0  0  0  0  0  0
   26.9040  -20.3805   -8.4264 C   0  0  0  0  0  0  0  0  0  0  0  0
   27.6209  -21.4003   -8.7635 O   0  0  0  0  0  0  0  0  0  0  0  0
   27.1719  -19.8279   -7.1865 N   0  0  0  0  0  0  0  0  0  0  0  0
   26.6355  -18.6909   -6.4552 C   0  0  0  0  0  0  0  0  0  0  0  0
   27.9255  -18.0860   -5.8967 C   0  0  0  0  0  0  0  0  0  0  0  0
   28.5903  -19.3160   -5.3469 C   0  0  0  0  0  0  0  0  0  0  0  0
   28.1950  -20.4041   -6.2833 C   0  0  1  0  0  0  0  0  0  0  0  0
   27.6322  -21.5536   -5.5512 C   0  0  0  0  0  0  0  0  0  0  0  0
   26.4343  -21.8781   -5.6784 O   0  0  0  0  0  0  0  0  0  0  0  0
   28.4530  -22.2775   -4.7126 O   0  0  0  0  0  0  0  0  0  0  0  0
  2  3  1  6
  2  1  1  0
  4  2  1  0
  4  5  1  6
  6  7  2  0
  6  4  1  0
  8  6  1  0
  9 10  1  6
  9  8  1  0
 11 10  1  0
 11 15  1  0
 12 11  2  0
 13 12  1  0
 13 14  1  0
 14 15  2  0
 16  9  1  0
 17 16  2  0
 18 19  1  0
 18 16  1  0
 20 19  1  0
 21 22  1  0
 21 20  1  0
 22 18  1  0
 23 25  1  0
 22 23  1  1
 24 23  2  0
M  END
$$$$
