VHP.pdb
     RDKit          3D

 25 26  0  0  1  0  0  0  0  0999 V2000
   23.5252  -22.7868  -20.8371 C   0  0  0  0  0  0  0  0  0  0  0  0
   24.1181  -21.6469  -20.0008 C   0  0  2  0  0  0  0  0  0  0  0  0
   25.5145  -22.0700  -19.6495 C   0  0  0  0  0  0  0  0  0  0  0  0
   23.2063  -21.4947  -18.8105 C   0  0  2  0  0  0  0  0  0  0  0  0
   21.9389  -20.9792  -19.3596 N   0  0  0  0  0  0  0  0  0  0  0  0
   23.6885  -20.5070  -17.8163 C   0  0  0  0  0  0  0  0  0  0  0  0
   23.7175  -19.2555  -18.0833 O   0  0  0  0  0  0  0  0  0  0  0  0
   24.1416  -20.8600  -16.5298 N   0  0  0  0  0  0  0  0  0  0  0  0
   24.4362  -19.7984  -15.4855 C   0  0  1  0  0  0  0  0  0  0  0  0
   23.0289  -19.4125  -15.1036 C   0  0  0  0  0  0  0  0  0  0  0  0
   22.4982  -18.1420  -15.5423 C   0  0  0  0  0  0  0  0  0  0  0  0
   22.9379  -17.0759  -16.2653 C   0  0  0  0  0  0  0  0  0  0  0  0
   21.9782  -16.1555  -16.4341 N   0  0  0  0  0  0  0  0  0  0  0  0
   20.9046  -16.6481  -15.8059 C   0  0  0  0  0  0  0  0  0  0  0  0
   21.1794  -17.8147  -15.2723 N   0  0  0  0  0  0  0  0  0  0  0  0
   25.0117  -20.6263  -14.3674 C   0  0  0  0  0  0  0  0  0  0  0  0
   24.4780  -21.7942  -14.2305 O   0  0  0  0  0  0  0  0  0  0  0  0
   26.0271  -20.3105  -13.4821 N   0  0  0  0  0  0  0  0  0  0  0  0
   26.8675  -19.1388  -13.2923 C   0  0  0  0  0  0  0  0  0  0  0  0
   28.2258  -19.8051  -13.0626 C   0  0  0  0  0  0  0  0  0  0  0  0
   27.8505  -20.8540  -12.0546 C   0  0  0  0  0  0  0  0  0  0  0  0
   26.4703  -21.2615  -12.4363 C   0  0  1  0  0  0  0  0  0  0  0  0
   25.5603  -21.1976  -11.2778 C   0  0  0  0  0  0  0  0  0  0  0  0
   24.7225  -20.2804  -11.1628 O   0  0  0  0  0  0  0  0  0  0  0  0
   25.6443  -22.1745  -10.3085 O   0  0  0  0  0  0  0  0  0  0  0  0
  2  3  1  1
  2  1  1  0
  4  2  1  0
  4  5  1  6
  6  7  2  0
  6  4  1  0
  8  6  1  0
  9 10  1  1
  9  8  1  0
 11 10  1  0
 11 15  1  0
 12 11  2  0
 13 12  1  0
 13 14  1  0
 14 15  2  0
 16  9  1  0
 17 16  2  0
 18 19  1  0
 18 16  1  0
 20 19  1  0
 21 22  1  0
 21 20  1  0
 22 18  1  0
 23 25  1  0
 22 23  1  1
 24 23  2  0
M  END
$$$$
