VHP.pdb
     RDKit          3D

 25 26  0  0  1  0  0  0  0  0999 V2000
   27.3671  -11.5055  -16.8326 C   0  0  0  0  0  0  0  0  0  0  0  0
   26.8231  -11.9095  -15.4574 C   0  0  2  0  0  0  0  0  0  0  0  0
   27.7961  -12.9074  -14.9007 C   0  0  0  0  0  0  0  0  0  0  0  0
   25.4472  -12.4704  -15.7096 C   0  0  2  0  0  0  0  0  0  0  0  0
   25.6640  -13.6546  -16.5607 N   0  0  0  0  0  0  0  0  0  0  0  0
   24.5588  -11.5490  -16.4566 C   0  0  0  0  0  0  0  0  0  0  0  0
   24.1645  -11.8226  -17.6433 O   0  0  0  0  0  0  0  0  0  0  0  0
   24.0894  -10.3289  -15.9314 N   0  0  0  0  0  0  0  0  0  0  0  0
   23.1095   -9.4680  -16.7081 C   0  0  1  0  0  0  0  0  0  0  0  0
   21.8565  -10.2925  -16.5482 C   0  0  0  0  0  0  0  0  0  0  0  0
   20.5964   -9.7665  -17.0211 C   0  0  0  0  0  0  0  0  0  0  0  0
   20.1772   -8.9084  -17.9910 C   0  0  0  0  0  0  0  0  0  0  0  0
   18.8405   -8.8215  -18.0387 N   0  0  0  0  0  0  0  0  0  0  0  0
   18.4004   -9.6436  -17.0792 C   0  0  0  0  0  0  0  0  0  0  0  0
   19.4094  -10.2135  -16.4641 N   0  0  0  0  0  0  0  0  0  0  0  0
   22.9913   -8.2629  -15.8134 C   0  0  0  0  0  0  0  0  0  0  0  0
   23.1846   -8.5007  -14.5590 O   0  0  0  0  0  0  0  0  0  0  0  0
   22.7134   -6.9502  -16.1510 N   0  0  0  0  0  0  0  0  0  0  0  0
   22.4531   -6.2691  -17.4095 C   0  0  0  0  0  0  0  0  0  0  0  0
   23.2825   -4.9979  -17.2144 C   0  0  0  0  0  0  0  0  0  0  0  0
   22.8501   -4.5969  -15.8326 C   0  0  0  0  0  0  0  0  0  0  0  0
   22.6209   -5.8863  -15.1243 C   0  0  1  0  0  0  0  0  0  0  0  0
   21.2903   -5.9121  -14.4895 C   0  0  0  0  0  0  0  0  0  0  0  0
   21.0520   -5.2509  -13.4588 O   0  0  0  0  0  0  0  0  0  0  0  0
   20.2969   -6.6846  -15.0530 O   0  0  0  0  0  0  0  0  0  0  0  0
  2  3  1  6
  2  1  1  0
  4  2  1  0
  4  5  1  6
  6  7  2  0
  6  4  1  0
  8  6  1  0
  9 10  1  1
  9  8  1  0
 11 10  1  0
 11 15  1  0
 12 11  2  0
 13 12  1  0
 13 14  1  0
 14 15  2  0
 16  9  1  0
 17 16  2  0
 18 19  1  0
 18 16  1  0
 20 19  1  0
 21 22  1  0
 21 20  1  0
 22 18  1  0
 23 25  1  0
 22 23  1  6
 24 23  2  0
M  END
$$$$
