VHP.pdb
     RDKit          3D

 25 26  0  0  1  0  0  0  0  0999 V2000
   22.7193  -38.2077  -11.9129 C   0  0  0  0  0  0  0  0  0  0  0  0
   23.1087  -38.0906  -13.3911 C   0  0  2  0  0  0  0  0  0  0  0  0
   24.6007  -38.2434  -13.4427 C   0  0  0  0  0  0  0  0  0  0  0  0
   22.6154  -36.7389  -13.8391 C   0  0  2  0  0  0  0  0  0  0  0  0
   22.9405  -36.6667  -15.2753 N   0  0  0  0  0  0  0  0  0  0  0  0
   23.3034  -35.6065  -13.1753 C   0  0  0  0  0  0  0  0  0  0  0  0
   24.3738  -35.1015  -13.6629 O   0  0  0  0  0  0  0  0  0  0  0  0
   22.8437  -35.0110  -11.9840 N   0  0  0  0  0  0  0  0  0  0  0  0
   23.5707  -33.8286  -11.3693 C   0  0  1  0  0  0  0  0  0  0  0  0
   22.4347  -32.8396  -11.2875 C   0  0  0  0  0  0  0  0  0  0  0  0
   22.6652  -31.5423  -10.6940 C   0  0  0  0  0  0  0  0  0  0  0  0
   23.7206  -30.8609  -10.1701 C   0  0  0  0  0  0  0  0  0  0  0  0
   23.3811  -29.6169   -9.8040 N   0  0  0  0  0  0  0  0  0  0  0  0
   22.0819  -29.5048  -10.1033 C   0  0  0  0  0  0  0  0  0  0  0  0
   21.6334  -30.6203  -10.6282 N   0  0  0  0  0  0  0  0  0  0  0  0
   23.8485  -34.3347   -9.9788 C   0  0  0  0  0  0  0  0  0  0  0  0
   23.0432  -35.2573   -9.5691 O   0  0  0  0  0  0  0  0  0  0  0  0
   24.8421  -33.9536   -9.0945 N   0  0  0  0  0  0  0  0  0  0  0  0
   25.9021  -32.9587   -9.1409 C   0  0  0  0  0  0  0  0  0  0  0  0
   27.0622  -33.7607   -8.5469 C   0  0  0  0  0  0  0  0  0  0  0  0
   26.3957  -34.3545   -7.3385 C   0  0  0  0  0  0  0  0  0  0  0  0
   24.9908  -34.5965   -7.7682 C   0  0  1  0  0  0  0  0  0  0  0  0
   24.0360  -34.0070   -6.8118 C   0  0  0  0  0  0  0  0  0  0  0  0
   23.3042  -33.0497   -7.1347 O   0  0  0  0  0  0  0  0  0  0  0  0
   23.9576  -34.5304   -5.5386 O   0  0  0  0  0  0  0  0  0  0  0  0
  2  3  1  1
  2  1  1  0
  4  2  1  0
  4  5  1  6
  6  7  2  0
  6  4  1  0
  8  6  1  0
  9 10  1  1
  9  8  1  0
 11 10  1  0
 11 15  1  0
 12 11  2  0
 13 12  1  0
 13 14  1  0
 14 15  2  0
 16  9  1  0
 17 16  2  0
 18 19  1  0
 18 16  1  0
 20 19  1  0
 21 22  1  0
 21 20  1  0
 22 18  1  0
 23 25  1  0
 22 23  1  1
 24 23  2  0
M  END
$$$$
