VHP.pdb
     RDKit          3D

 25 26  0  0  1  0  0  0  0  0999 V2000
   21.2288  -19.1308  -18.1420 C   0  0  0  0  0  0  0  0  0  0  0  0
   22.4793  -19.2822  -17.2681 C   0  0  2  0  0  0  0  0  0  0  0  0
   22.6319  -20.7526  -17.0094 C   0  0  0  0  0  0  0  0  0  0  0  0
   22.2145  -18.4663  -16.0288 C   0  0  2  0  0  0  0  0  0  0  0  0
   22.0590  -17.0801  -16.5062 N   0  0  0  0  0  0  0  0  0  0  0  0
   23.3376  -18.4747  -15.0619 C   0  0  0  0  0  0  0  0  0  0  0  0
   24.4121  -17.8159  -15.2858 O   0  0  0  0  0  0  0  0  0  0  0  0
   23.3111  -19.1912  -13.8491 N   0  0  0  0  0  0  0  0  0  0  0  0
   24.5089  -19.1956  -12.9166 C   0  0  1  0  0  0  0  0  0  0  0  0
   23.8177  -19.4856  -11.6077 C   0  0  0  0  0  0  0  0  0  0  0  0
   24.6118  -19.7581  -10.4315 C   0  0  0  0  0  0  0  0  0  0  0  0
   25.9344  -19.8435  -10.1215 C   0  0  0  0  0  0  0  0  0  0  0  0
   26.1286  -20.0679   -8.8143 N   0  0  0  0  0  0  0  0  0  0  0  0
   24.9025  -20.1248   -8.2816 C   0  0  0  0  0  0  0  0  0  0  0  0
   23.9905  -19.9458   -9.2076 N   0  0  0  0  0  0  0  0  0  0  0  0
   25.2257  -20.4461  -13.3517 C   0  0  0  0  0  0  0  0  0  0  0  0
   24.4635  -21.3562  -13.8598 O   0  0  0  0  0  0  0  0  0  0  0  0
   26.5751  -20.7448  -13.2872 N   0  0  0  0  0  0  0  0  0  0  0  0
   27.7387  -20.0362  -12.7778 C   0  0  0  0  0  0  0  0  0  0  0  0
   28.7466  -20.3181  -13.8943 C   0  0  0  0  0  0  0  0  0  0  0  0
   28.5604  -21.7990  -14.0654 C   0  0  0  0  0  0  0  0  0  0  0  0
   27.1130  -22.0263  -13.8000 C   0  0  1  0  0  0  0  0  0  0  0  0
   26.9195  -23.0915  -12.7989 C   0  0  0  0  0  0  0  0  0  0  0  0
   26.4941  -22.8346  -11.6547 O   0  0  0  0  0  0  0  0  0  0  0  0
   27.2171  -24.3930  -13.1433 O   0  0  0  0  0  0  0  0  0  0  0  0
  2  3  1  1
  2  1  1  0
  4  2  1  0
  4  5  1  6
  6  7  2  0
  6  4  1  0
  8  6  1  0
  9 10  1  1
  9  8  1  0
 11 10  1  0
 11 15  1  0
 12 11  2  0
 13 12  1  0
 13 14  1  0
 14 15  2  0
 16  9  1  0
 17 16  2  0
 18 19  1  0
 18 16  1  0
 20 19  1  0
 21 22  1  0
 21 20  1  0
 22 18  1  0
 23 25  1  0
 22 23  1  1
 24 23  2  0
M  END
$$$$
