VHP.pdb
     RDKit          3D

 25 26  0  0  1  0  0  0  0  0999 V2000
   28.3612  -22.0745  -16.0901 C   0  0  0  0  0  0  0  0  0  0  0  0
   27.1848  -22.8435  -16.7026 C   0  0  2  0  0  0  0  0  0  0  0  0
   27.7674  -23.7031  -17.7861 C   0  0  0  0  0  0  0  0  0  0  0  0
   26.2251  -21.7944  -17.2023 C   0  0  2  0  0  0  0  0  0  0  0  0
   26.9712  -21.0493  -18.2326 N   0  0  0  0  0  0  0  0  0  0  0  0
   25.8182  -20.8195  -16.1629 C   0  0  0  0  0  0  0  0  0  0  0  0
   26.4342  -19.7067  -16.0182 O   0  0  0  0  0  0  0  0  0  0  0  0
   24.7466  -21.0358  -15.2741 N   0  0  0  0  0  0  0  0  0  0  0  0
   24.3350  -19.9728  -14.2715 C   0  0  1  0  0  0  0  0  0  0  0  0
   23.0422  -19.5125  -14.8975 C   0  0  0  0  0  0  0  0  0  0  0  0
   23.0695  -18.4638  -15.8914 C   0  0  0  0  0  0  0  0  0  0  0  0
   24.0107  -17.6822  -16.4879 C   0  0  0  0  0  0  0  0  0  0  0  0
   23.4786  -16.8850  -17.4250 N   0  0  0  0  0  0  0  0  0  0  0  0
   22.1708  -17.1673  -17.4251 C   0  0  0  0  0  0  0  0  0  0  0  0
   21.9002  -18.0918  -16.5345 N   0  0  0  0  0  0  0  0  0  0  0  0
   23.9968  -20.8095  -13.0663 C   0  0  0  0  0  0  0  0  0  0  0  0
   23.5456  -21.9887  -13.3370 O   0  0  0  0  0  0  0  0  0  0  0  0
   24.1093  -20.4911  -11.7245 N   0  0  0  0  0  0  0  0  0  0  0  0
   24.6307  -19.3401  -11.0044 C   0  0  0  0  0  0  0  0  0  0  0  0
   25.3977  -20.0396   -9.8800 C   0  0  0  0  0  0  0  0  0  0  0  0
   24.3690  -21.0349   -9.4234 C   0  0  0  0  0  0  0  0  0  0  0  0
   23.6389  -21.4132  -10.6647 C   0  0  1  0  0  0  0  0  0  0  0  0
   22.1821  -21.2740  -10.4850 C   0  0  0  0  0  0  0  0  0  0  0  0
   21.5457  -20.3577  -11.0433 O   0  0  0  0  0  0  0  0  0  0  0  0
   21.5192  -22.1785   -9.6827 O   0  0  0  0  0  0  0  0  0  0  0  0
  2  3  1  6
  2  1  1  0
  4  2  1  0
  4  5  1  6
  6  7  2  0
  6  4  1  0
  8  6  1  0
  9 10  1  6
  9  8  1  0
 11 10  1  0
 11 15  1  0
 12 11  2  0
 13 12  1  0
 13 14  1  0
 14 15  2  0
 16  9  1  0
 17 16  2  0
 18 19  1  0
 18 16  1  0
 20 19  1  0
 21 22  1  0
 21 20  1  0
 22 18  1  0
 23 25  1  0
 22 23  1  1
 24 23  2  0
M  END
$$$$
