VHP.pdb
     RDKit          3D

 25 26  0  0  1  0  0  0  0  0999 V2000
   26.8783  -20.5298   -8.2927 C   0  0  0  0  0  0  0  0  0  0  0  0
   26.2927  -20.1875   -9.6677 C   0  0  2  0  0  0  0  0  0  0  0  0
   24.8157  -20.0187   -9.4616 C   0  0  0  0  0  0  0  0  0  0  0  0
   26.6580  -21.3403  -10.5672 C   0  0  2  0  0  0  0  0  0  0  0  0
   28.1302  -21.4083  -10.5274 N   0  0  0  0  0  0  0  0  0  0  0  0
   26.2656  -21.1364  -11.9817 C   0  0  0  0  0  0  0  0  0  0  0  0
   27.1433  -21.0599  -12.9103 O   0  0  0  0  0  0  0  0  0  0  0  0
   24.9273  -21.0142  -12.4050 N   0  0  0  0  0  0  0  0  0  0  0  0
   24.5794  -20.9106  -13.8790 C   0  0  1  0  0  0  0  0  0  0  0  0
   24.9468  -22.3020  -14.3307 C   0  0  0  0  0  0  0  0  0  0  0  0
   24.7484  -22.6744  -15.7128 C   0  0  0  0  0  0  0  0  0  0  0  0
   23.8080  -23.3377  -16.4397 C   0  0  0  0  0  0  0  0  0  0  0  0
   24.0989  -23.3433  -17.7482 N   0  0  0  0  0  0  0  0  0  0  0  0
   25.2485  -22.6673  -17.8554 C   0  0  0  0  0  0  0  0  0  0  0  0
   25.6546  -22.2614  -16.6758 N   0  0  0  0  0  0  0  0  0  0  0  0
   23.0774  -20.8187  -13.8288 C   0  0  0  0  0  0  0  0  0  0  0  0
   22.5299  -21.4564  -12.8485 O   0  0  0  0  0  0  0  0  0  0  0  0
   22.2162  -20.1460  -14.6775 N   0  0  0  0  0  0  0  0  0  0  0  0
   22.3891  -19.4587  -15.9476 C   0  0  0  0  0  0  0  0  0  0  0  0
   21.5329  -18.2130  -15.7084 C   0  0  0  0  0  0  0  0  0  0  0  0
   20.2860  -18.8393  -15.1516 C   0  0  0  0  0  0  0  0  0  0  0  0
   20.7726  -20.0118  -14.3735 C   0  0  1  0  0  0  0  0  0  0  0  0
   20.0579  -21.2405  -14.7656 C   0  0  0  0  0  0  0  0  0  0  0  0
   20.5700  -22.0647  -15.5497 O   0  0  0  0  0  0  0  0  0  0  0  0
   18.8004  -21.4742  -14.2508 O   0  0  0  0  0  0  0  0  0  0  0  0
  2  3  1  1
  2  1  1  0
  4  2  1  0
  4  5  1  6
  6  7  2  0
  6  4  1  0
  8  6  1  0
  9 10  1  6
  9  8  1  0
 11 10  1  0
 11 15  1  0
 12 11  2  0
 13 12  1  0
 13 14  1  0
 14 15  2  0
 16  9  1  0
 17 16  2  0
 18 19  1  0
 18 16  1  0
 20 19  1  0
 21 22  1  0
 21 20  1  0
 22 18  1  0
 23 25  1  0
 22 23  1  6
 24 23  2  0
M  END
$$$$
