VHP.pdb
     RDKit          3D

 25 26  0  0  1  0  0  0  0  0999 V2000
   44.9790   -3.8570   -6.1754 C   0  0  0  0  0  0  0  0  0  0  0  0
   44.2883   -3.7271   -7.5380 C   0  0  2  0  0  0  0  0  0  0  0  0
   44.5458   -2.3239   -8.0040 C   0  0  0  0  0  0  0  0  0  0  0  0
   42.8335   -4.0333   -7.2909 C   0  0  2  0  0  0  0  0  0  0  0  0
   42.4038   -3.0622   -6.2681 N   0  0  0  0  0  0  0  0  0  0  0  0
   42.5981   -5.3877   -6.7373 C   0  0  0  0  0  0  0  0  0  0  0  0
   42.2823   -5.5576   -5.5085 O   0  0  0  0  0  0  0  0  0  0  0  0
   42.7006   -6.5664   -7.5023 N   0  0  0  0  0  0  0  0  0  0  0  0
   42.3145   -7.9137   -6.9191 C   0  0  1  0  0  0  0  0  0  0  0  0
   40.9705   -8.1054   -7.5764 C   0  0  0  0  0  0  0  0  0  0  0  0
   40.0785   -9.1289   -7.0814 C   0  0  0  0  0  0  0  0  0  0  0  0
   40.0358   -9.9858   -6.0247 C   0  0  0  0  0  0  0  0  0  0  0  0
   38.9049  -10.7053   -6.0092 N   0  0  0  0  0  0  0  0  0  0  0  0
   38.2131  -10.2956   -7.0786 C   0  0  0  0  0  0  0  0  0  0  0  0
   38.8773   -9.3693   -7.7282 N   0  0  0  0  0  0  0  0  0  0  0  0
   43.2991   -8.8293   -7.5966 C   0  0  0  0  0  0  0  0  0  0  0  0
   43.7937   -8.3705   -8.6977 O   0  0  0  0  0  0  0  0  0  0  0  0
   43.7445  -10.0777   -7.1997 N   0  0  0  0  0  0  0  0  0  0  0  0
   43.4601  -10.9301   -6.0561 C   0  0  0  0  0  0  0  0  0  0  0  0
   44.8701  -11.4180   -5.7156 C   0  0  0  0  0  0  0  0  0  0  0  0
   45.3579  -11.8213   -7.0781 C   0  0  0  0  0  0  0  0  0  0  0  0
   44.7196  -10.8478   -8.0064 C   0  0  1  0  0  0  0  0  0  0  0  0
   44.0269  -11.5423   -9.1072 C   0  0  0  0  0  0  0  0  0  0  0  0
   42.7815  -11.5929   -9.1585 O   0  0  0  0  0  0  0  0  0  0  0  0
   44.7785  -12.1444  -10.0941 O   0  0  0  0  0  0  0  0  0  0  0  0
  2  3  1  1
  2  1  1  0
  4  2  1  0
  4  5  1  1
  6  7  2  0
  6  4  1  0
  8  6  1  0
  9 10  1  6
  9  8  1  0
 11 10  1  0
 11 15  1  0
 12 11  2  0
 13 12  1  0
 13 14  1  0
 14 15  2  0
 16  9  1  0
 17 16  2  0
 18 19  1  0
 18 16  1  0
 20 19  1  0
 21 22  1  0
 21 20  1  0
 22 18  1  0
 23 25  1  0
 22 23  1  6
 24 23  2  0
M  END
$$$$
