VHP.pdb
     RDKit          3D

 25 26  0  0  1  0  0  0  0  0999 V2000
   19.0063  -22.9809  -17.4835 C   0  0  0  0  0  0  0  0  0  0  0  0
   20.4009  -22.9381  -16.8481 C   0  0  2  0  0  0  0  0  0  0  0  0
   20.1842  -22.7001  -15.3822 C   0  0  0  0  0  0  0  0  0  0  0  0
   21.1359  -21.8237  -17.5476 C   0  0  2  0  0  0  0  0  0  0  0  0
   21.2338  -22.2510  -18.9552 N   0  0  0  0  0  0  0  0  0  0  0  0
   22.5182  -21.6224  -17.0524 C   0  0  0  0  0  0  0  0  0  0  0  0
   23.4284  -22.5009  -17.2474 O   0  0  0  0  0  0  0  0  0  0  0  0
   22.9288  -20.4750  -16.3452 N   0  0  0  0  0  0  0  0  0  0  0  0
   24.3425  -20.3528  -15.8057 C   0  0  1  0  0  0  0  0  0  0  0  0
   24.5869  -18.8844  -16.0490 C   0  0  0  0  0  0  0  0  0  0  0  0
   25.7796  -18.2663  -15.5163 C   0  0  0  0  0  0  0  0  0  0  0  0
   26.8819  -18.6634  -14.8237 C   0  0  0  0  0  0  0  0  0  0  0  0
   27.7443  -17.6549  -14.6342 N   0  0  0  0  0  0  0  0  0  0  0  0
   27.1783  -16.5938  -15.2207 C   0  0  0  0  0  0  0  0  0  0  0  0
   26.0229  -16.9223  -15.7483 N   0  0  0  0  0  0  0  0  0  0  0  0
   24.1203  -20.5496  -14.3297 C   0  0  0  0  0  0  0  0  0  0  0  0
   22.9390  -20.2338  -13.9146 O   0  0  0  0  0  0  0  0  0  0  0  0
   24.9986  -21.0236  -13.3714 N   0  0  0  0  0  0  0  0  0  0  0  0
   26.3985  -21.4172  -13.3972 C   0  0  0  0  0  0  0  0  0  0  0  0
   26.3460  -22.6874  -12.5452 C   0  0  0  0  0  0  0  0  0  0  0  0
   25.5377  -22.2009  -11.3760 C   0  0  0  0  0  0  0  0  0  0  0  0
   24.5798  -21.2248  -11.9647 C   0  0  1  0  0  0  0  0  0  0  0  0
   24.6181  -19.9421  -11.2385 C   0  0  0  0  0  0  0  0  0  0  0  0
   25.1871  -18.9421  -11.7207 O   0  0  0  0  0  0  0  0  0  0  0  0
   24.0108  -19.8560  -10.0036 O   0  0  0  0  0  0  0  0  0  0  0  0
  2  3  1  1
  2  1  1  0
  4  2  1  0
  4  5  1  6
  6  7  2  0
  6  4  1  0
  8  6  1  0
  9 10  1  1
  9  8  1  0
 11 10  1  0
 11 15  1  0
 12 11  2  0
 13 12  1  0
 13 14  1  0
 14 15  2  0
 16  9  1  0
 17 16  2  0
 18 19  1  0
 18 16  1  0
 20 19  1  0
 21 22  1  0
 21 20  1  0
 22 18  1  0
 23 25  1  0
 22 23  1  1
 24 23  2  0
M  END
$$$$
