VHP.pdb
     RDKit          3D

 25 26  0  0  1  0  0  0  0  0999 V2000
   28.8211  -19.3189  -18.0769 C   0  0  0  0  0  0  0  0  0  0  0  0
   27.4110  -19.8019  -17.7178 C   0  0  2  0  0  0  0  0  0  0  0  0
   26.4800  -18.6857  -18.0918 C   0  0  0  0  0  0  0  0  0  0  0  0
   27.4445  -20.1030  -16.2415 C   0  0  2  0  0  0  0  0  0  0  0  0
   28.4314  -21.1880  -16.0920 N   0  0  0  0  0  0  0  0  0  0  0  0
   26.1557  -20.6049  -15.7090 C   0  0  0  0  0  0  0  0  0  0  0  0
   25.8258  -21.8368  -15.8193 O   0  0  0  0  0  0  0  0  0  0  0  0
   25.2151  -19.7848  -15.0550 N   0  0  0  0  0  0  0  0  0  0  0  0
   23.9769  -20.3775  -14.4071 C   0  0  1  0  0  0  0  0  0  0  0  0
   24.0137  -19.6659  -13.0777 C   0  0  0  0  0  0  0  0  0  0  0  0
   24.4429  -20.3850  -11.9000 C   0  0  0  0  0  0  0  0  0  0  0  0
   24.9020  -21.6326  -11.6080 C   0  0  0  0  0  0  0  0  0  0  0  0
   25.2266  -21.7561  -10.3133 N   0  0  0  0  0  0  0  0  0  0  0  0
   24.9696  -20.5603   -9.7710 C   0  0  0  0  0  0  0  0  0  0  0  0
   24.5082  -19.7335  -10.6792 N   0  0  0  0  0  0  0  0  0  0  0  0
   22.8795  -19.7625  -15.2343 C   0  0  0  0  0  0  0  0  0  0  0  0
   23.1665  -18.6098  -15.7407 O   0  0  0  0  0  0  0  0  0  0  0  0
   21.6231  -20.2629  -15.5266 N   0  0  0  0  0  0  0  0  0  0  0  0
   20.9236  -21.4898  -15.1792 C   0  0  0  0  0  0  0  0  0  0  0  0
   20.2817  -21.8345  -16.5249 C   0  0  0  0  0  0  0  0  0  0  0  0
   19.6950  -20.5030  -16.8988 C   0  0  0  0  0  0  0  0  0  0  0  0
   20.6585  -19.5053  -16.3574 C   0  0  1  0  0  0  0  0  0  0  0  0
   19.9680  -18.4954  -15.5343 C   0  0  0  0  0  0  0  0  0  0  0  0
   20.1147  -18.4594  -14.2960 O   0  0  0  0  0  0  0  0  0  0  0  0
   19.1466  -17.5776  -16.1541 O   0  0  0  0  0  0  0  0  0  0  0  0
  2  3  1  1
  2  1  1  0
  4  2  1  0
  4  5  1  6
  6  7  2  0
  6  4  1  0
  8  6  1  0
  9 10  1  1
  9  8  1  0
 11 10  1  0
 11 15  1  0
 12 11  2  0
 13 12  1  0
 13 14  1  0
 14 15  2  0
 16  9  1  0
 17 16  2  0
 18 19  1  0
 18 16  1  0
 20 19  1  0
 21 22  1  0
 21 20  1  0
 22 18  1  0
 23 25  1  0
 22 23  1  1
 24 23  2  0
M  END
$$$$
