VHP.pdb
     RDKit          3D

 25 26  0  0  1  0  0  0  0  0999 V2000
   20.2343  -12.7945  -18.1284 C   0  0  0  0  0  0  0  0  0  0  0  0
   20.6984  -12.1470  -19.4384 C   0  0  2  0  0  0  0  0  0  0  0  0
   21.6245  -13.1343  -20.0863 C   0  0  0  0  0  0  0  0  0  0  0  0
   21.3617  -10.8527  -19.0432 C   0  0  2  0  0  0  0  0  0  0  0  0
   22.5143  -11.2483  -18.2134 N   0  0  0  0  0  0  0  0  0  0  0  0
   20.5030   -9.9754  -18.2130 C   0  0  0  0  0  0  0  0  0  0  0  0
   19.4387   -9.4457  -18.6875 O   0  0  0  0  0  0  0  0  0  0  0  0
   20.7843   -9.6632  -16.8682 N   0  0  0  0  0  0  0  0  0  0  0  0
   19.8592   -8.7689  -16.0626 C   0  0  1  0  0  0  0  0  0  0  0  0
   19.5369   -9.6945  -14.9161 C   0  0  0  0  0  0  0  0  0  0  0  0
   18.3480  -10.5136  -14.9787 C   0  0  0  0  0  0  0  0  0  0  0  0
   18.0566  -11.8416  -15.0431 C   0  0  0  0  0  0  0  0  0  0  0  0
   16.7354  -12.0660  -15.0143 N   0  0  0  0  0  0  0  0  0  0  0  0
   16.1749  -10.8542  -14.9281 C   0  0  0  0  0  0  0  0  0  0  0  0
   17.0976   -9.9218  -14.9049 N   0  0  0  0  0  0  0  0  0  0  0  0
   20.8155   -7.7203  -15.5598 C   0  0  0  0  0  0  0  0  0  0  0  0
   22.0169   -8.1429  -15.3468 O   0  0  0  0  0  0  0  0  0  0  0  0
   20.5845   -6.3801  -15.3048 N   0  0  0  0  0  0  0  0  0  0  0  0
   19.4298   -5.5104  -15.4650 C   0  0  0  0  0  0  0  0  0  0  0  0
   20.1004   -4.2612  -16.0410 C   0  0  0  0  0  0  0  0  0  0  0  0
   21.2562   -4.1080  -15.0936 C   0  0  0  0  0  0  0  0  0  0  0  0
   21.6371   -5.5035  -14.7407 C   0  0  1  0  0  0  0  0  0  0  0  0
   21.7094   -5.6786  -13.2784 C   0  0  0  0  0  0  0  0  0  0  0  0
   22.6006   -5.1248  -12.6036 O   0  0  0  0  0  0  0  0  0  0  0  0
   20.7699   -6.4713  -12.6539 O   0  0  0  0  0  0  0  0  0  0  0  0
  2  3  1  1
  2  1  1  0
  4  2  1  0
  4  5  1  1
  6  7  2  0
  6  4  1  0
  8  6  1  0
  9 10  1  1
  9  8  1  0
 11 10  1  0
 11 15  1  0
 12 11  2  0
 13 12  1  0
 13 14  1  0
 14 15  2  0
 16  9  1  0
 17 16  2  0
 18 19  1  0
 18 16  1  0
 20 19  1  0
 21 22  1  0
 21 20  1  0
 22 18  1  0
 23 25  1  0
 22 23  1  1
 24 23  2  0
M  END
$$$$
