YGN.pdb
     RDKit          3D

 25 25  0  0  1  0  0  0  0  0999 V2000
   24.3900  -21.8053   -6.9328 O   0  0  0  0  0  0  0  0  0  0  0  0
   24.7003  -21.3764   -8.2369 C   0  0  0  0  0  0  0  0  0  0  0  0
   23.6861  -21.1699   -9.1497 C   0  0  0  0  0  0  0  0  0  0  0  0
   24.0272  -20.7524  -10.4099 C   0  0  0  0  0  0  0  0  0  0  0  0
   25.3197  -20.5274  -10.8177 C   0  0  0  0  0  0  0  0  0  0  0  0
   25.6832  -20.0740  -12.1857 C   0  0  0  0  0  0  0  0  0  0  0  0
   25.0187  -21.0201  -13.1642 C   0  0  2  0  0  0  0  0  0  0  0  0
   25.8948  -22.1528  -13.3447 N   0  0  0  0  0  0  0  0  0  0  0  0
   24.8115  -20.3565  -14.4873 C   0  0  0  0  0  0  0  0  0  0  0  0
   25.7416  -20.3141  -15.3324 O   0  0  0  0  0  0  0  0  0  0  0  0
   26.3201  -20.7465   -9.8675 C   0  0  0  0  0  0  0  0  0  0  0  0
   26.0039  -21.1659   -8.5955 C   0  0  0  0  0  0  0  0  0  0  0  0
   23.5728  -19.7561  -14.8367 N   0  0  0  0  0  0  0  0  0  0  0  0
   23.4190  -19.1620  -16.1304 C   0  0  0  0  0  0  0  0  0  0  0  0
   22.1639  -18.4580  -16.3684 C   0  0  0  0  0  0  0  0  0  0  0  0
   21.1868  -18.6367  -15.5589 O   0  0  0  0  0  0  0  0  0  0  0  0
   20.0042  -13.8815  -19.6586 N   0  0  0  0  0  0  0  0  0  0  0  0
   19.6293  -15.1867  -19.1586 C   0  0  0  0  0  0  0  0  0  0  0  0
   18.4212  -15.4181  -19.0248 O   0  0  0  0  0  0  0  0  0  0  0  0
   20.7076  -16.1172  -18.8552 C   0  0  0  0  0  0  0  0  0  0  0  0
   20.5529  -16.9089  -17.5777 C   0  0  2  0  0  0  0  0  0  0  0  0
   21.8750  -17.5678  -17.4202 N   0  0  0  0  0  0  0  0  0  0  0  0
   19.5171  -17.9447  -17.7862 C   0  0  0  0  0  0  0  0  0  0  0  0
   19.8035  -18.9287  -18.5028 O   0  0  0  0  0  0  0  0  0  0  0  0
   18.2711  -17.8656  -17.2279 O   0  0  0  0  0  0  0  0  0  0  0  0
  2  1  1  0
  3  2  2  0
  4  5  2  0
  4  3  1  0
  5 11  1  0
  6  5  1  0
  7  6  1  0
  7  8  1  6
  9 13  1  0
  9  7  1  0
 10  9  2  0
 11 12  2  0
 12  2  1  0
 14 15  1  0
 14 13  1  0
 15 16  2  0
 18 17  1  0
 18 20  1  0
 19 18  2  0
 21 20  1  6
 22 21  1  0
 22 15  1  0
 23 25  1  0
 23 21  1  0
 24 23  2  0
M  END
$$$$
