YGN.pdb
     RDKit          3D

 25 25  0  0  1  0  0  0  0  0999 V2000
   29.1477  -20.1814   -3.8793 O   0  0  0  0  0  0  0  0  0  0  0  0
   28.6762  -20.0448   -5.1984 C   0  0  0  0  0  0  0  0  0  0  0  0
   29.4967  -20.3773   -6.2570 C   0  0  0  0  0  0  0  0  0  0  0  0
   29.0026  -20.2309   -7.5272 C   0  0  0  0  0  0  0  0  0  0  0  0
   27.7382  -19.7727   -7.8082 C   0  0  0  0  0  0  0  0  0  0  0  0
   27.2079  -19.6168   -9.1879 C   0  0  0  0  0  0  0  0  0  0  0  0
   26.3220  -20.8133   -9.4668 C   0  0  2  0  0  0  0  0  0  0  0  0
   27.1724  -21.9745   -9.5751 N   0  0  0  0  0  0  0  0  0  0  0  0
   25.5817  -20.6377  -10.7532 C   0  0  0  0  0  0  0  0  0  0  0  0
   24.4685  -20.0532  -10.7741 O   0  0  0  0  0  0  0  0  0  0  0  0
   26.9359  -19.4459   -6.7123 C   0  0  0  0  0  0  0  0  0  0  0  0
   27.4084  -19.5838   -5.4271 C   0  0  0  0  0  0  0  0  0  0  0  0
   26.0995  -21.1178  -11.9854 N   0  0  0  0  0  0  0  0  0  0  0  0
   25.5476  -22.3047  -12.5659 C   0  0  0  0  0  0  0  0  0  0  0  0
   24.3608  -22.1223  -13.3939 C   0  0  0  0  0  0  0  0  0  0  0  0
   23.8991  -23.1223  -14.0488 O   0  0  0  0  0  0  0  0  0  0  0  0
   19.9194  -22.2680  -12.5249 N   0  0  0  0  0  0  0  0  0  0  0  0
   20.7983  -21.7762  -11.4858 C   0  0  0  0  0  0  0  0  0  0  0  0
   20.4932  -22.0342  -10.3147 O   0  0  0  0  0  0  0  0  0  0  0  0
   21.9681  -21.0186  -11.9080 C   0  0  0  0  0  0  0  0  0  0  0  0
   22.1506  -20.8684  -13.4004 C   0  0  2  0  0  0  0  0  0  0  0  0
   23.6244  -20.9360  -13.5742 N   0  0  0  0  0  0  0  0  0  0  0  0
   21.6765  -19.5255  -13.8016 C   0  0  0  0  0  0  0  0  0  0  0  0
   22.5091  -18.5932  -13.8385 O   0  0  0  0  0  0  0  0  0  0  0  0
   20.3738  -19.2706  -14.1313 O   0  0  0  0  0  0  0  0  0  0  0  0
  2  1  1  0
  3  2  2  0
  4  5  2  0
  4  3  1  0
  5 11  1  0
  6  5  1  0
  7  6  1  0
  7  8  1  6
  9 13  1  0
  9  7  1  0
 10  9  2  0
 11 12  2  0
 12  2  1  0
 14 15  1  0
 14 13  1  0
 15 16  2  0
 18 17  1  0
 18 20  1  0
 19 18  2  0
 21 20  1  1
 22 21  1  0
 22 15  1  0
 23 25  1  0
 23 21  1  0
 24 23  2  0
M  END
$$$$
