YGN.pdb
     RDKit          3D

 25 25  0  0  1  0  0  0  0  0999 V2000
   25.9423  -18.3359  -14.3906 O   0  0  0  0  0  0  0  0  0  0  0  0
   25.3440  -17.2374  -15.0358 C   0  0  0  0  0  0  0  0  0  0  0  0
   24.5967  -17.4379  -16.1785 C   0  0  0  0  0  0  0  0  0  0  0  0
   24.0295  -16.3439  -16.7789 C   0  0  0  0  0  0  0  0  0  0  0  0
   24.1613  -15.0594  -16.3096 C   0  0  0  0  0  0  0  0  0  0  0  0
   23.5432  -13.8771  -16.9648 C   0  0  0  0  0  0  0  0  0  0  0  0
   22.3016  -13.5225  -16.1732 C   0  0  2  0  0  0  0  0  0  0  0  0
   21.4013  -14.6488  -16.2391 N   0  0  0  0  0  0  0  0  0  0  0  0
   21.6211  -12.3279  -16.7594 C   0  0  0  0  0  0  0  0  0  0  0  0
   21.1277  -12.3776  -17.9149 O   0  0  0  0  0  0  0  0  0  0  0  0
   24.9245  -14.8943  -15.1511 C   0  0  0  0  0  0  0  0  0  0  0  0
   25.5045  -15.9764  -14.5295 C   0  0  0  0  0  0  0  0  0  0  0  0
   21.5071  -11.1064  -16.0438 N   0  0  0  0  0  0  0  0  0  0  0  0
   20.8735   -9.9830  -16.6659 C   0  0  0  0  0  0  0  0  0  0  0  0
   20.8885   -8.7367  -15.9082 C   0  0  0  0  0  0  0  0  0  0  0  0
   21.3086   -8.7492  -14.6977 O   0  0  0  0  0  0  0  0  0  0  0  0
   21.9832   -4.0529  -18.3026 N   0  0  0  0  0  0  0  0  0  0  0  0
   21.9095   -5.0287  -17.2365 C   0  0  0  0  0  0  0  0  0  0  0  0
   22.9193   -5.7100  -17.0194 O   0  0  0  0  0  0  0  0  0  0  0  0
   20.6513   -5.1254  -16.5096 C   0  0  0  0  0  0  0  0  0  0  0  0
   20.5573   -6.2498  -15.5047 C   0  0  2  0  0  0  0  0  0  0  0  0
   20.4826   -7.4651  -16.3559 N   0  0  0  0  0  0  0  0  0  0  0  0
   19.2914   -6.1065  -14.7524 C   0  0  0  0  0  0  0  0  0  0  0  0
   19.2113   -5.1932  -13.9020 O   0  0  0  0  0  0  0  0  0  0  0  0
   18.2166   -6.9282  -14.9527 O   0  0  0  0  0  0  0  0  0  0  0  0
  2  1  1  0
  3  2  2  0
  4  5  2  0
  4  3  1  0
  5 11  1  0
  6  5  1  0
  7  6  1  0
  7  8  1  6
  9 13  1  0
  9  7  1  0
 10  9  2  0
 11 12  2  0
 12  2  1  0
 14 15  1  0
 14 13  1  0
 15 16  2  0
 18 17  1  0
 18 20  1  0
 19 18  2  0
 21 20  1  6
 22 21  1  0
 22 15  1  0
 23 25  1  0
 23 21  1  0
 24 23  2  0
M  END
$$$$
