YGN.pdb
     RDKit          3D

 25 25  0  0  1  0  0  0  0  0999 V2000
   29.0406  -18.5901   -2.9413 O   0  0  0  0  0  0  0  0  0  0  0  0
   28.7635  -19.1031   -4.2223 C   0  0  0  0  0  0  0  0  0  0  0  0
   28.3065  -18.2593   -5.2140 C   0  0  0  0  0  0  0  0  0  0  0  0
   28.0475  -18.7954   -6.4487 C   0  0  0  0  0  0  0  0  0  0  0  0
   28.2163  -20.1236   -6.7569 C   0  0  0  0  0  0  0  0  0  0  0  0
   27.9343  -20.6988   -8.0980 C   0  0  0  0  0  0  0  0  0  0  0  0
   26.5978  -20.1487   -8.5511 C   0  0  2  0  0  0  0  0  0  0  0  0
   25.5866  -20.6562   -7.6550 N   0  0  0  0  0  0  0  0  0  0  0  0
   26.2806  -20.6008   -9.9399 C   0  0  0  0  0  0  0  0  0  0  0  0
   27.0127  -20.2615  -10.9042 O   0  0  0  0  0  0  0  0  0  0  0  0
   28.6802  -20.9478   -5.7287 C   0  0  0  0  0  0  0  0  0  0  0  0
   28.9476  -20.4341   -4.4803 C   0  0  0  0  0  0  0  0  0  0  0  0
   25.1549  -21.4199  -10.2206 N   0  0  0  0  0  0  0  0  0  0  0  0
   24.8440  -21.7468  -11.5796 C   0  0  0  0  0  0  0  0  0  0  0  0
   23.8022  -20.9442  -12.2107 C   0  0  0  0  0  0  0  0  0  0  0  0
   23.1700  -20.0801  -11.5068 O   0  0  0  0  0  0  0  0  0  0  0  0
   22.9485  -17.4721  -15.8480 N   0  0  0  0  0  0  0  0  0  0  0  0
   24.2296  -17.8198  -15.2719 C   0  0  0  0  0  0  0  0  0  0  0  0
   25.1810  -17.0636  -15.5046 O   0  0  0  0  0  0  0  0  0  0  0  0
   24.2895  -19.0315  -14.4665 C   0  0  0  0  0  0  0  0  0  0  0  0
   22.9915  -19.7920  -14.3255 C   0  0  2  0  0  0  0  0  0  0  0  0
   23.3834  -20.9994  -13.5537 N   0  0  0  0  0  0  0  0  0  0  0  0
   22.5367  -20.2041  -15.6718 C   0  0  0  0  0  0  0  0  0  0  0  0
   21.9933  -19.3442  -16.3992 O   0  0  0  0  0  0  0  0  0  0  0  0
   22.6889  -21.4785  -16.1445 O   0  0  0  0  0  0  0  0  0  0  0  0
  2  1  1  0
  3  2  2  0
  4  5  2  0
  4  3  1  0
  5 11  1  0
  6  5  1  0
  7  6  1  0
  7  8  1  1
  9 13  1  0
  9  7  1  0
 10  9  2  0
 11 12  2  0
 12  2  1  0
 14 15  1  0
 14 13  1  0
 15 16  2  0
 18 17  1  0
 18 20  1  0
 19 18  2  0
 21 20  1  6
 22 21  1  0
 22 15  1  0
 23 25  1  0
 23 21  1  0
 24 23  2  0
M  END
$$$$
