YGN.pdb
     RDKit          3D

 25 25  0  0  1  0  0  0  0  0999 V2000
   30.6400  -11.5510  -17.0118 O   0  0  0  0  0  0  0  0  0  0  0  0
   29.7479  -12.5995  -16.7188 C   0  0  0  0  0  0  0  0  0  0  0  0
   28.6658  -12.3680  -15.8943 C   0  0  0  0  0  0  0  0  0  0  0  0
   27.8191  -13.4135  -15.6319 C   0  0  0  0  0  0  0  0  0  0  0  0
   27.9846  -14.6786  -16.1417 C   0  0  0  0  0  0  0  0  0  0  0  0
   27.0624  -15.8081  -15.8539 C   0  0  0  0  0  0  0  0  0  0  0  0
   26.3185  -16.1190  -17.1361 C   0  0  2  0  0  0  0  0  0  0  0  0
   25.4941  -14.9777  -17.4541 N   0  0  0  0  0  0  0  0  0  0  0  0
   25.4386  -17.3147  -16.9631 C   0  0  0  0  0  0  0  0  0  0  0  0
   25.9258  -18.4204  -16.6153 O   0  0  0  0  0  0  0  0  0  0  0  0
   29.0904  -14.8761  -16.9721 C   0  0  0  0  0  0  0  0  0  0  0  0
   29.9555  -13.8428  -17.2511 C   0  0  0  0  0  0  0  0  0  0  0  0
   24.0369  -17.2493  -17.1822 N   0  0  0  0  0  0  0  0  0  0  0  0
   23.2498  -18.4394  -17.0621 C   0  0  0  0  0  0  0  0  0  0  0  0
   21.9394  -18.2824  -16.4410 C   0  0  0  0  0  0  0  0  0  0  0  0
   21.6065  -17.1378  -15.9708 O   0  0  0  0  0  0  0  0  0  0  0  0
   16.4727  -18.4311  -17.3520 N   0  0  0  0  0  0  0  0  0  0  0  0
   17.2394  -19.2457  -16.4340 C   0  0  0  0  0  0  0  0  0  0  0  0
   16.6430  -19.7144  -15.4565 O   0  0  0  0  0  0  0  0  0  0  0  0
   18.6492  -19.4443  -16.7399 C   0  0  0  0  0  0  0  0  0  0  0  0
   19.6227  -18.9931  -15.6761 C   0  0  2  0  0  0  0  0  0  0  0  0
   20.9490  -19.2709  -16.2847 N   0  0  0  0  0  0  0  0  0  0  0  0
   19.4485  -19.8497  -14.4823 C   0  0  0  0  0  0  0  0  0  0  0  0
   20.0433  -20.9493  -14.4540 O   0  0  0  0  0  0  0  0  0  0  0  0
   18.6691  -19.4848  -13.4192 O   0  0  0  0  0  0  0  0  0  0  0  0
  2  1  1  0
  3  2  2  0
  4  5  2  0
  4  3  1  0
  5 11  1  0
  6  5  1  0
  7  6  1  0
  7  8  1  1
  9 13  1  0
  9  7  1  0
 10  9  2  0
 11 12  2  0
 12  2  1  0
 14 15  1  0
 14 13  1  0
 15 16  2  0
 18 17  1  0
 18 20  1  0
 19 18  2  0
 21 20  1  6
 22 21  1  0
 22 15  1  0
 23 25  1  0
 23 21  1  0
 24 23  2  0
M  END
$$$$
