YGN.pdb
     RDKit          3D

 25 25  0  0  1  0  0  0  0  0999 V2000
   17.3490  -18.6612  -16.0863 O   0  0  0  0  0  0  0  0  0  0  0  0
   18.0216  -17.4712  -16.4214 C   0  0  0  0  0  0  0  0  0  0  0  0
   18.6130  -16.7159  -15.4293 C   0  0  0  0  0  0  0  0  0  0  0  0
   19.2590  -15.5633  -15.7942 C   0  0  0  0  0  0  0  0  0  0  0  0
   19.3522  -15.1158  -17.0898 C   0  0  0  0  0  0  0  0  0  0  0  0
   20.0546  -13.8652  -17.4793 C   0  0  0  0  0  0  0  0  0  0  0  0
   19.1634  -12.7067  -17.0822 C   0  0  2  0  0  0  0  0  0  0  0  0
   17.9513  -12.7973  -17.8606 N   0  0  0  0  0  0  0  0  0  0  0  0
   19.8276  -11.4006  -17.3765 C   0  0  0  0  0  0  0  0  0  0  0  0
   20.9401  -11.1202  -16.8619 O   0  0  0  0  0  0  0  0  0  0  0  0
   18.7419  -15.9056  -18.0673 C   0  0  0  0  0  0  0  0  0  0  0  0
   18.0872  -17.0672  -17.7270 C   0  0  0  0  0  0  0  0  0  0  0  0
   19.2358  -10.4381  -18.2370 N   0  0  0  0  0  0  0  0  0  0  0  0
   19.8513   -9.1537  -18.3851 C   0  0  0  0  0  0  0  0  0  0  0  0
   19.1495   -8.0311  -17.7730 C   0  0  0  0  0  0  0  0  0  0  0  0
   19.6374   -6.8522  -17.8925 O   0  0  0  0  0  0  0  0  0  0  0  0
   15.7149   -4.6972  -15.8613 N   0  0  0  0  0  0  0  0  0  0  0  0
   15.0616   -5.8301  -16.4808 C   0  0  0  0  0  0  0  0  0  0  0  0
   13.8561   -5.7200  -16.7375 O   0  0  0  0  0  0  0  0  0  0  0  0
   15.8800   -7.0043  -16.7494 C   0  0  0  0  0  0  0  0  0  0  0  0
   17.3456   -6.8769  -16.4052 C   0  0  2  0  0  0  0  0  0  0  0  0
   17.9516   -8.0782  -17.0349 N   0  0  0  0  0  0  0  0  0  0  0  0
   17.4960   -6.9718  -14.9363 C   0  0  0  0  0  0  0  0  0  0  0  0
   17.9866   -8.0191  -14.4606 O   0  0  0  0  0  0  0  0  0  0  0  0
   17.1225   -5.9649  -14.0894 O   0  0  0  0  0  0  0  0  0  0  0  0
  2  1  1  0
  3  2  2  0
  4  5  2  0
  4  3  1  0
  5 11  1  0
  6  5  1  0
  7  6  1  0
  7  8  1  6
  9 13  1  0
  9  7  1  0
 10  9  2  0
 11 12  2  0
 12  2  1  0
 14 15  1  0
 14 13  1  0
 15 16  2  0
 18 17  1  0
 18 20  1  0
 19 18  2  0
 21 20  1  1
 22 21  1  0
 22 15  1  0
 23 25  1  0
 23 21  1  0
 24 23  2  0
M  END
$$$$
