YGN.pdb
     RDKit          3D

 25 25  0  0  1  0  0  0  0  0999 V2000
   30.7508  -13.6117  -18.0515 O   0  0  0  0  0  0  0  0  0  0  0  0
   29.7050  -12.9837  -17.3494 C   0  0  0  0  0  0  0  0  0  0  0  0
   28.6983  -13.7464  -16.7935 C   0  0  0  0  0  0  0  0  0  0  0  0
   27.6969  -13.0993  -16.1172 C   0  0  0  0  0  0  0  0  0  0  0  0
   27.6367  -11.7357  -15.9604 C   0  0  0  0  0  0  0  0  0  0  0  0
   26.5484  -11.0398  -15.2253 C   0  0  0  0  0  0  0  0  0  0  0  0
   25.3110  -11.0940  -16.0970 C   0  0  2  0  0  0  0  0  0  0  0  0
   25.6219  -10.4359  -17.3435 N   0  0  0  0  0  0  0  0  0  0  0  0
   24.1713  -10.3788  -15.4466 C   0  0  0  0  0  0  0  0  0  0  0  0
   23.7215  -10.7692  -14.3392 O   0  0  0  0  0  0  0  0  0  0  0  0
   28.6724  -10.9958  -16.5363 C   0  0  0  0  0  0  0  0  0  0  0  0
   29.6894  -11.6216  -17.2204 C   0  0  0  0  0  0  0  0  0  0  0  0
   23.5599   -9.2457  -16.0461 N   0  0  0  0  0  0  0  0  0  0  0  0
   22.5381   -8.5386  -15.3346 C   0  0  0  0  0  0  0  0  0  0  0  0
   22.7797   -7.1181  -15.1074 C   0  0  0  0  0  0  0  0  0  0  0  0
   23.9222   -6.6245  -15.4122 O   0  0  0  0  0  0  0  0  0  0  0  0
   22.5565   -2.5607  -17.6911 N   0  0  0  0  0  0  0  0  0  0  0  0
   22.4793   -2.9455  -16.2983 C   0  0  0  0  0  0  0  0  0  0  0  0
   22.6274   -2.0536  -15.4536 O   0  0  0  0  0  0  0  0  0  0  0  0
   22.2336   -4.3516  -16.0098 C   0  0  0  0  0  0  0  0  0  0  0  0
   22.1582   -4.7190  -14.5461 C   0  0  2  0  0  0  0  0  0  0  0  0
   21.8787   -6.1778  -14.5726 N   0  0  0  0  0  0  0  0  0  0  0  0
   21.0056   -4.0156  -13.9411 C   0  0  0  0  0  0  0  0  0  0  0  0
   19.8641   -4.4950  -14.1172 O   0  0  0  0  0  0  0  0  0  0  0  0
   21.1430   -2.8725  -13.2030 O   0  0  0  0  0  0  0  0  0  0  0  0
  2  1  1  0
  3  2  2  0
  4  5  2  0
  4  3  1  0
  5 11  1  0
  6  5  1  0
  7  6  1  0
  7  8  1  6
  9 13  1  0
  9  7  1  0
 10  9  2  0
 11 12  2  0
 12  2  1  0
 14 15  1  0
 14 13  1  0
 15 16  2  0
 18 17  1  0
 18 20  1  0
 19 18  2  0
 21 20  1  6
 22 21  1  0
 22 15  1  0
 23 25  1  0
 23 21  1  0
 24 23  2  0
M  END
$$$$
