YGN.pdb
     RDKit          3D

 25 25  0  0  1  0  0  0  0  0999 V2000
   22.0908  -21.4877   -7.3042 O   0  0  0  0  0  0  0  0  0  0  0  0
   22.4674  -21.4105   -8.6582 C   0  0  0  0  0  0  0  0  0  0  0  0
   21.5280  -21.6326   -9.6443 C   0  0  0  0  0  0  0  0  0  0  0  0
   21.9322  -21.5488  -10.9514 C   0  0  0  0  0  0  0  0  0  0  0  0
   23.2180  -21.2567  -11.3373 C   0  0  0  0  0  0  0  0  0  0  0  0
   23.6501  -21.1666  -12.7566 C   0  0  0  0  0  0  0  0  0  0  0  0
   23.6174  -19.7029  -13.1444 C   0  0  2  0  0  0  0  0  0  0  0  0
   22.2402  -19.2716  -13.1190 N   0  0  0  0  0  0  0  0  0  0  0  0
   24.1574  -19.5067  -14.5241 C   0  0  0  0  0  0  0  0  0  0  0  0
   25.3004  -19.9335  -14.8286 O   0  0  0  0  0  0  0  0  0  0  0  0
   24.1419  -21.0379  -10.3125 C   0  0  0  0  0  0  0  0  0  0  0  0
   23.7612  -21.1162   -8.9923 C   0  0  0  0  0  0  0  0  0  0  0  0
   23.4109  -18.8395  -15.5313 N   0  0  0  0  0  0  0  0  0  0  0  0
   22.9860  -19.5660  -16.6898 C   0  0  0  0  0  0  0  0  0  0  0  0
   24.0201  -19.8682  -17.6730 C   0  0  0  0  0  0  0  0  0  0  0  0
   24.0598  -19.1938  -18.7619 O   0  0  0  0  0  0  0  0  0  0  0  0
   27.9631  -21.7723  -15.5680 N   0  0  0  0  0  0  0  0  0  0  0  0
   27.8812  -21.1460  -16.8700 C   0  0  0  0  0  0  0  0  0  0  0  0
   28.4561  -20.0600  -17.0150 O   0  0  0  0  0  0  0  0  0  0  0  0
   27.1281  -21.8487  -17.8994 C   0  0  0  0  0  0  0  0  0  0  0  0
   26.0725  -21.0358  -18.6120 C   0  0  2  0  0  0  0  0  0  0  0  0
   25.0251  -20.8493  -17.5752 N   0  0  0  0  0  0  0  0  0  0  0  0
   25.5193  -21.8466  -19.7192 C   0  0  0  0  0  0  0  0  0  0  0  0
   24.5265  -22.5690  -19.4818 O   0  0  0  0  0  0  0  0  0  0  0  0
   26.0489  -21.8332  -20.9801 O   0  0  0  0  0  0  0  0  0  0  0  0
  2  1  1  0
  3  2  2  0
  4  5  2  0
  4  3  1  0
  5 11  1  0
  6  5  1  0
  7  6  1  0
  7  8  1  6
  9 13  1  0
  9  7  1  0
 10  9  2  0
 11 12  2  0
 12  2  1  0
 14 15  1  0
 14 13  1  0
 15 16  2  0
 18 17  1  0
 18 20  1  0
 19 18  2  0
 21 20  1  1
 22 21  1  0
 22 15  1  0
 23 25  1  0
 23 21  1  0
 24 23  2  0
M  END
$$$$
