YGN.pdb
     RDKit          3D

 25 25  0  0  1  0  0  0  0  0999 V2000
   23.5665  -21.2889   -8.1572 O   0  0  0  0  0  0  0  0  0  0  0  0
   24.4700  -21.2331   -9.2349 C   0  0  0  0  0  0  0  0  0  0  0  0
   24.1645  -21.8729  -10.4189 C   0  0  0  0  0  0  0  0  0  0  0  0
   25.0691  -21.7963  -11.4459 C   0  0  0  0  0  0  0  0  0  0  0  0
   26.2622  -21.1198  -11.3657 C   0  0  0  0  0  0  0  0  0  0  0  0
   27.2388  -21.0399  -12.4832 C   0  0  0  0  0  0  0  0  0  0  0  0
   26.4445  -20.8973  -13.7650 C   0  0  2  0  0  0  0  0  0  0  0  0
   26.3119  -22.2106  -14.3487 N   0  0  0  0  0  0  0  0  0  0  0  0
   27.1556  -20.0095  -14.7345 C   0  0  0  0  0  0  0  0  0  0  0  0
   28.2414  -20.3727  -15.2543 O   0  0  0  0  0  0  0  0  0  0  0  0
   26.5381  -20.4844  -10.1525 C   0  0  0  0  0  0  0  0  0  0  0  0
   25.6464  -20.5463   -9.1061 C   0  0  0  0  0  0  0  0  0  0  0  0
   26.6395  -18.7382  -15.1013 N   0  0  0  0  0  0  0  0  0  0  0  0
   27.3667  -17.9244  -16.0282 C   0  0  0  0  0  0  0  0  0  0  0  0
   26.7649  -16.6387  -16.3633 C   0  0  0  0  0  0  0  0  0  0  0  0
   25.6760  -16.2912  -15.7839 O   0  0  0  0  0  0  0  0  0  0  0  0
   27.5877  -12.0042  -20.3748 N   0  0  0  0  0  0  0  0  0  0  0  0
   26.8670  -12.5634  -19.2515 C   0  0  0  0  0  0  0  0  0  0  0  0
   25.8815  -11.9379  -18.8408 O   0  0  0  0  0  0  0  0  0  0  0  0
   27.3641  -13.8161  -18.6999 C   0  0  0  0  0  0  0  0  0  0  0  0
   26.4711  -14.4865  -17.6820 C   0  0  2  0  0  0  0  0  0  0  0  0
   27.2482  -15.6879  -17.2823 N   0  0  0  0  0  0  0  0  0  0  0  0
   25.2262  -14.9167  -18.3560 C   0  0  0  0  0  0  0  0  0  0  0  0
   24.1734  -14.2904  -18.1051 O   0  0  0  0  0  0  0  0  0  0  0  0
   25.1868  -15.9635  -19.2354 O   0  0  0  0  0  0  0  0  0  0  0  0
  2  1  1  0
  3  2  2  0
  4  5  2  0
  4  3  1  0
  5 11  1  0
  6  5  1  0
  7  6  1  0
  7  8  1  6
  9 13  1  0
  9  7  1  0
 10  9  2  0
 11 12  2  0
 12  2  1  0
 14 15  1  0
 14 13  1  0
 15 16  2  0
 18 17  1  0
 18 20  1  0
 19 18  2  0
 21 20  1  6
 22 21  1  0
 22 15  1  0
 23 25  1  0
 23 21  1  0
 24 23  2  0
M  END
$$$$
