GTQ.pdb
     RDKit          3D

 21 20  0  0  1  0  0  0  0  0999 V2000
   25.6264  -20.8323   -9.1493 N   0  0  0  0  0  0  0  0  0  0  0  0
   24.4864  -21.1810   -9.9763 C   0  0  0  0  0  0  0  0  0  0  0  0
   24.7197  -20.5961  -11.3219 C   0  0  0  0  0  0  0  0  0  0  0  0
   25.5536  -19.6783  -11.5166 O   0  0  0  0  0  0  0  0  0  0  0  0
   25.6477  -22.5711  -14.3856 C   0  0  0  0  0  0  0  0  0  0  0  0
   24.4329  -21.7757  -14.6997 C   0  0  1  0  0  0  0  0  0  0  0  0
   23.3163  -22.5999  -14.4972 O   0  0  0  0  0  0  0  0  0  0  0  0
   24.2488  -20.5762  -13.7989 C   0  0  2  0  0  0  0  0  0  0  0  0
   23.9975  -21.0602  -12.4555 N   0  0  0  0  0  0  0  0  0  0  0  0
   23.0708  -19.7659  -14.2009 C   0  0  0  0  0  0  0  0  0  0  0  0
   21.9265  -19.9292  -13.6684 O   0  0  0  0  0  0  0  0  0  0  0  0
   23.0439  -14.7564  -18.0588 N   0  0  0  0  0  0  0  0  0  0  0  0
   21.6603  -14.8746  -17.7371 C   0  0  0  0  0  0  0  0  0  0  0  0
   20.8976  -14.0053  -18.2584 O   0  0  0  0  0  0  0  0  0  0  0  0
   21.1524  -15.9525  -16.8456 C   0  0  0  0  0  0  0  0  0  0  0  0
   22.3276  -16.7993  -16.4527 C   0  0  0  0  0  0  0  0  0  0  0  0
   21.9692  -17.9797  -15.5925 C   0  0  2  0  0  0  0  0  0  0  0  0
   23.1314  -18.7540  -15.2031 N   0  0  0  0  0  0  0  0  0  0  0  0
   20.9375  -18.8412  -16.1755 C   0  0  0  0  0  0  0  0  0  0  0  0
   19.7319  -18.6843  -15.9071 O   0  0  0  0  0  0  0  0  0  0  0  0
   21.2822  -19.8536  -17.0421 O   0  0  0  0  0  0  0  0  0  0  0  0
  1  2  1  0
  2  3  1  0
  3  4  2  0
  6  5  1  1
  6  8  1  0
  7  6  1  0
  8 10  1  0
  8  9  1  1
  9  3  1  0
 10 11  2  0
 10 18  1  0
 12 13  1  0
 13 14  2  0
 13 15  1  0
 15 16  1  0
 17 16  1  6
 17 19  1  0
 18 17  1  0
 19 20  2  0
 19 21  1  0
M  END
$$$$
