GTQ.pdb
     RDKit          3D

 21 20  0  0  1  0  0  0  0  0999 V2000
   25.2364  -13.2266  -15.7462 N   0  0  0  0  0  0  0  0  0  0  0  0
   25.6673  -14.3457  -14.9294 C   0  0  0  0  0  0  0  0  0  0  0  0
   25.0595  -15.5736  -15.5039 C   0  0  0  0  0  0  0  0  0  0  0  0
   24.2683  -15.5354  -16.4776 O   0  0  0  0  0  0  0  0  0  0  0  0
   25.3767  -20.5060  -15.7883 C   0  0  0  0  0  0  0  0  0  0  0  0
   25.8612  -19.1570  -15.3979 C   0  0  1  0  0  0  0  0  0  0  0  0
   26.8881  -18.7973  -16.2829 O   0  0  0  0  0  0  0  0  0  0  0  0
   24.8045  -18.0821  -15.5086 C   0  0  2  0  0  0  0  0  0  0  0  0
   25.3553  -16.8559  -14.9652 N   0  0  0  0  0  0  0  0  0  0  0  0
   23.5994  -18.4150  -14.7068 C   0  0  0  0  0  0  0  0  0  0  0  0
   23.6441  -18.5359  -13.4407 O   0  0  0  0  0  0  0  0  0  0  0  0
   18.3256  -17.7725  -18.3705 N   0  0  0  0  0  0  0  0  0  0  0  0
   19.0087  -17.5321  -17.1427 C   0  0  0  0  0  0  0  0  0  0  0  0
   19.3970  -16.3395  -16.9530 O   0  0  0  0  0  0  0  0  0  0  0  0
   19.2464  -18.6176  -16.1527 C   0  0  0  0  0  0  0  0  0  0  0  0
   19.9575  -18.0067  -14.9807 C   0  0  0  0  0  0  0  0  0  0  0  0
   21.1236  -18.8164  -14.4843 C   0  0  2  0  0  0  0  0  0  0  0  0
   22.3145  -18.6222  -15.2880 N   0  0  0  0  0  0  0  0  0  0  0  0
   20.8254  -20.2421  -14.3263 C   0  0  0  0  0  0  0  0  0  0  0  0
   21.3464  -21.1005  -15.0626 O   0  0  0  0  0  0  0  0  0  0  0  0
   19.9535  -20.6684  -13.3502 O   0  0  0  0  0  0  0  0  0  0  0  0
  1  2  1  0
  2  3  1  0
  3  4  2  0
  6  5  1  6
  6  8  1  0
  7  6  1  0
  8 10  1  0
  8  9  1  1
  9  3  1  0
 10 11  2  0
 10 18  1  0
 12 13  1  0
 13 14  2  0
 13 15  1  0
 15 16  1  0
 17 16  1  6
 17 19  1  0
 18 17  1  0
 19 20  2  0
 19 21  1  0
M  END
$$$$
