GTQ.pdb
     RDKit          3D

 21 20  0  0  1  0  0  0  0  0999 V2000
   13.7628  -13.2232  -13.7244 N   0  0  0  0  0  0  0  0  0  0  0  0
   13.6630  -11.7854  -13.5579 C   0  0  0  0  0  0  0  0  0  0  0  0
   14.6694  -11.3862  -12.5406 C   0  0  0  0  0  0  0  0  0  0  0  0
   14.8406  -12.0340  -11.4792 O   0  0  0  0  0  0  0  0  0  0  0  0
   18.3598  -10.6579  -13.0329 C   0  0  0  0  0  0  0  0  0  0  0  0
   17.7313   -9.4627  -12.4135 C   0  0  1  0  0  0  0  0  0  0  0  0
   17.4478   -8.5477  -13.4379 O   0  0  0  0  0  0  0  0  0  0  0  0
   16.4171   -9.7598  -11.7290 C   0  0  2  0  0  0  0  0  0  0  0  0
   15.4880  -10.2395  -12.7335 N   0  0  0  0  0  0  0  0  0  0  0  0
   15.8233   -8.5371  -11.1303 C   0  0  0  0  0  0  0  0  0  0  0  0
   14.9953   -7.8090  -11.7658 O   0  0  0  0  0  0  0  0  0  0  0  0
   12.6600   -4.6195   -6.9465 N   0  0  0  0  0  0  0  0  0  0  0  0
   13.4676   -5.7926   -7.0069 C   0  0  0  0  0  0  0  0  0  0  0  0
   12.8400   -6.8947   -6.9865 O   0  0  0  0  0  0  0  0  0  0  0  0
   14.9517   -5.7188   -7.0884 C   0  0  0  0  0  0  0  0  0  0  0  0
   15.4281   -6.9864   -7.7355 C   0  0  0  0  0  0  0  0  0  0  0  0
   15.5266   -6.9072   -9.2342 C   0  0  2  0  0  0  0  0  0  0  0  0
   16.1323   -8.0907   -9.8124 N   0  0  0  0  0  0  0  0  0  0  0  0
   16.1870   -5.6919   -9.7172 C   0  0  0  0  0  0  0  0  0  0  0  0
   15.5861   -4.6027   -9.7696 O   0  0  0  0  0  0  0  0  0  0  0  0
   17.5003   -5.7280  -10.1279 O   0  0  0  0  0  0  0  0  0  0  0  0
  1  2  1  0
  2  3  1  0
  3  4  2  0
  6  5  1  6
  6  8  1  0
  7  6  1  0
  8 10  1  0
  8  9  1  6
  9  3  1  0
 10 11  2  0
 10 18  1  0
 12 13  1  0
 13 14  2  0
 13 15  1  0
 15 16  1  0
 17 16  1  1
 17 19  1  0
 18 17  1  0
 19 20  2  0
 19 21  1  0
M  END
$$$$
