GTQ.pdb
     RDKit          3D

 21 20  0  0  1  0  0  0  0  0999 V2000
   25.7596  -14.3700  -18.9328 N   0  0  0  0  0  0  0  0  0  0  0  0
   25.2874  -13.0362  -19.2538 C   0  0  0  0  0  0  0  0  0  0  0  0
   24.8243  -12.4133  -17.9871 C   0  0  0  0  0  0  0  0  0  0  0  0
   24.1002  -13.0271  -17.1658 O   0  0  0  0  0  0  0  0  0  0  0  0
   26.9789  -10.7230  -15.3544 C   0  0  0  0  0  0  0  0  0  0  0  0
   25.9371   -9.7614  -15.7982 C   0  0  1  0  0  0  0  0  0  0  0  0
   26.5061   -8.9342  -16.7776 O   0  0  0  0  0  0  0  0  0  0  0  0
   24.7400  -10.4240  -16.4400 C   0  0  2  0  0  0  0  0  0  0  0  0
   25.1887  -11.0801  -17.6527 N   0  0  0  0  0  0  0  0  0  0  0  0
   23.7103   -9.4291  -16.8347 C   0  0  0  0  0  0  0  0  0  0  0  0
   23.7509   -8.8243  -17.9538 O   0  0  0  0  0  0  0  0  0  0  0  0
   16.7541   -7.7784  -16.0686 N   0  0  0  0  0  0  0  0  0  0  0  0
   17.8630   -8.3527  -16.7559 C   0  0  0  0  0  0  0  0  0  0  0  0
   17.6526   -9.4823  -17.2933 O   0  0  0  0  0  0  0  0  0  0  0  0
   19.1797   -7.6634  -16.8326 C   0  0  0  0  0  0  0  0  0  0  0  0
   20.2297   -8.6580  -16.4316 C   0  0  0  0  0  0  0  0  0  0  0  0
   21.6228   -8.0926  -16.3917 C   0  0  2  0  0  0  0  0  0  0  0  0
   22.6096   -9.0794  -15.9992 N   0  0  0  0  0  0  0  0  0  0  0  0
   21.7427   -6.8799  -15.5783 C   0  0  0  0  0  0  0  0  0  0  0  0
   22.4284   -6.8595  -14.5393 O   0  0  0  0  0  0  0  0  0  0  0  0
   21.0931   -5.7244  -15.9490 O   0  0  0  0  0  0  0  0  0  0  0  0
  1  2  1  0
  2  3  1  0
  3  4  2  0
  6  5  1  6
  6  8  1  0
  7  6  1  0
  8 10  1  0
  8  9  1  6
  9  3  1  0
 10 11  2  0
 10 18  1  0
 12 13  1  0
 13 14  2  0
 13 15  1  0
 15 16  1  0
 17 16  1  1
 17 19  1  0
 18 17  1  0
 19 20  2  0
 19 21  1  0
M  END
$$$$
