GTQ.pdb
     RDKit          3D

 21 20  0  0  1  0  0  0  0  0999 V2000
   22.4291  -18.1896  -15.1697 N   0  0  0  0  0  0  0  0  0  0  0  0
   22.7492  -17.2415  -16.2203 C   0  0  0  0  0  0  0  0  0  0  0  0
   23.2819  -16.0185  -15.5663 C   0  0  0  0  0  0  0  0  0  0  0  0
   23.2043  -15.8351  -14.3270 O   0  0  0  0  0  0  0  0  0  0  0  0
   26.8431  -14.8412  -15.9012 C   0  0  0  0  0  0  0  0  0  0  0  0
   25.9421  -13.7301  -16.3020 C   0  0  1  0  0  0  0  0  0  0  0  0
   25.7988  -13.7757  -17.6965 O   0  0  0  0  0  0  0  0  0  0  0  0
   24.5502  -13.8450  -15.7246 C   0  0  2  0  0  0  0  0  0  0  0  0
   23.9085  -14.9956  -16.3300 N   0  0  0  0  0  0  0  0  0  0  0  0
   23.7217  -12.6570  -16.0534 C   0  0  0  0  0  0  0  0  0  0  0  0
   22.8581  -12.6749  -16.9881 O   0  0  0  0  0  0  0  0  0  0  0  0
   21.1429   -8.6918  -12.8993 N   0  0  0  0  0  0  0  0  0  0  0  0
   21.2495   -7.8039  -14.0093 C   0  0  0  0  0  0  0  0  0  0  0  0
   20.3637   -6.8985  -14.0771 O   0  0  0  0  0  0  0  0  0  0  0  0
   22.3343   -7.9386  -15.0192 C   0  0  0  0  0  0  0  0  0  0  0  0
   23.1185   -9.1704  -14.6721 C   0  0  0  0  0  0  0  0  0  0  0  0
   23.0296  -10.2614  -15.7035 C   0  0  2  0  0  0  0  0  0  0  0  0
   23.8293  -11.4193  -15.3546 N   0  0  0  0  0  0  0  0  0  0  0  0
   23.3279   -9.8100  -17.0649 C   0  0  0  0  0  0  0  0  0  0  0  0
   24.4811   -9.8683  -17.5309 O   0  0  0  0  0  0  0  0  0  0  0  0
   22.3293   -9.3063  -17.8674 O   0  0  0  0  0  0  0  0  0  0  0  0
  1  2  1  0
  2  3  1  0
  3  4  2  0
  6  5  1  1
  6  8  1  0
  7  6  1  0
  8 10  1  0
  8  9  1  6
  9  3  1  0
 10 11  2  0
 10 18  1  0
 12 13  1  0
 13 14  2  0
 13 15  1  0
 15 16  1  0
 17 16  1  1
 17 19  1  0
 18 17  1  0
 19 20  2  0
 19 21  1  0
M  END
$$$$
