GTQ.pdb
     RDKit          3D

 21 20  0  0  1  0  0  0  0  0999 V2000
   17.5622  -12.4320  -16.1266 N   0  0  0  0  0  0  0  0  0  0  0  0
   17.2357  -11.1264  -15.5845 C   0  0  0  0  0  0  0  0  0  0  0  0
   18.3844  -10.2284  -15.8693 C   0  0  0  0  0  0  0  0  0  0  0  0
   19.5750  -10.6097  -15.7570 O   0  0  0  0  0  0  0  0  0  0  0  0
   19.0497   -8.5597  -19.0412 C   0  0  0  0  0  0  0  0  0  0  0  0
   19.0486   -7.4813  -18.0195 C   0  0  1  0  0  0  0  0  0  0  0  0
   17.7830   -6.8770  -18.0349 O   0  0  0  0  0  0  0  0  0  0  0  0
   19.2653   -7.9853  -16.6113 C   0  0  2  0  0  0  0  0  0  0  0  0
   18.1758   -8.8849  -16.2857 N   0  0  0  0  0  0  0  0  0  0  0  0
   19.2304   -6.8778  -15.6223 C   0  0  0  0  0  0  0  0  0  0  0  0
   18.1407   -6.3241  -15.2682 O   0  0  0  0  0  0  0  0  0  0  0  0
   20.5648   -6.0683  -10.0515 N   0  0  0  0  0  0  0  0  0  0  0  0
   20.4986   -7.1819  -10.9388 C   0  0  0  0  0  0  0  0  0  0  0  0
   20.5429   -8.3254  -10.3915 O   0  0  0  0  0  0  0  0  0  0  0  0
   20.3849   -7.0043  -12.4120 C   0  0  0  0  0  0  0  0  0  0  0  0
   20.4190   -5.5296  -12.6890 C   0  0  0  0  0  0  0  0  0  0  0  0
   20.3707   -5.1818  -14.1514 C   0  0  2  0  0  0  0  0  0  0  0  0
   20.4025   -6.3562  -15.0009 N   0  0  0  0  0  0  0  0  0  0  0  0
   21.3904   -4.2124  -14.5599 C   0  0  0  0  0  0  0  0  0  0  0  0
   22.2431   -4.4910  -15.4233 O   0  0  0  0  0  0  0  0  0  0  0  0
   21.4286   -2.9591  -13.9920 O   0  0  0  0  0  0  0  0  0  0  0  0
  1  2  1  0
  2  3  1  0
  3  4  2  0
  6  5  1  6
  6  8  1  0
  7  6  1  0
  8 10  1  0
  8  9  1  1
  9  3  1  0
 10 11  2  0
 10 18  1  0
 12 13  1  0
 13 14  2  0
 13 15  1  0
 15 16  1  0
 17 16  1  1
 17 19  1  0
 18 17  1  0
 19 20  2  0
 19 21  1  0
M  END
$$$$
