GTQ.pdb
     RDKit          3D

 21 20  0  0  1  0  0  0  0  0999 V2000
   21.8390  -13.7748  -18.2152 N   0  0  0  0  0  0  0  0  0  0  0  0
   21.8634  -12.3397  -18.4269 C   0  0  0  0  0  0  0  0  0  0  0  0
   22.2067  -11.7059  -17.1278 C   0  0  0  0  0  0  0  0  0  0  0  0
   21.7383  -12.1177  -16.0385 O   0  0  0  0  0  0  0  0  0  0  0  0
   25.3646  -11.3199  -15.4164 C   0  0  0  0  0  0  0  0  0  0  0  0
   24.8515   -9.9358  -15.5836 C   0  0  1  0  0  0  0  0  0  0  0  0
   25.4741   -9.3808  -16.7112 O   0  0  0  0  0  0  0  0  0  0  0  0
   23.3637   -9.8719  -15.8410 C   0  0  2  0  0  0  0  0  0  0  0  0
   23.0907  -10.5937  -17.0686 N   0  0  0  0  0  0  0  0  0  0  0  0
   22.9027   -8.4744  -16.0421 C   0  0  0  0  0  0  0  0  0  0  0  0
   22.6214   -8.0165  -17.1956 O   0  0  0  0  0  0  0  0  0  0  0  0
   19.6045   -3.4212  -17.8738 N   0  0  0  0  0  0  0  0  0  0  0  0
   19.8353   -4.7047  -17.2982 C   0  0  0  0  0  0  0  0  0  0  0  0
   19.7093   -5.6917  -18.0850 O   0  0  0  0  0  0  0  0  0  0  0  0
   20.2002   -4.8663  -15.8645 C   0  0  0  0  0  0  0  0  0  0  0  0
   20.8074   -6.2300  -15.7081 C   0  0  0  0  0  0  0  0  0  0  0  0
   22.2122   -6.2149  -15.1714 C   0  0  2  0  0  0  0  0  0  0  0  0
   22.7419   -7.5493  -14.9696 N   0  0  0  0  0  0  0  0  0  0  0  0
   22.3724   -5.4000  -13.9644 C   0  0  0  0  0  0  0  0  0  0  0  0
   22.5265   -5.9211  -12.8442 O   0  0  0  0  0  0  0  0  0  0  0  0
   22.3559   -4.0259  -14.0434 O   0  0  0  0  0  0  0  0  0  0  0  0
  1  2  1  0
  2  3  1  0
  3  4  2  0
  6  5  1  6
  6  8  1  0
  7  6  1  0
  8 10  1  0
  8  9  1  6
  9  3  1  0
 10 11  2  0
 10 18  1  0
 12 13  1  0
 13 14  2  0
 13 15  1  0
 15 16  1  0
 17 16  1  1
 17 19  1  0
 18 17  1  0
 19 20  2  0
 19 21  1  0
M  END
$$$$
