GTQ.pdb
     RDKit          3D

 21 20  0  0  1  0  0  0  0  0999 V2000
   15.7530  -13.5036  -15.9117 N   0  0  0  0  0  0  0  0  0  0  0  0
   16.2238  -12.5621  -14.9133 C   0  0  0  0  0  0  0  0  0  0  0  0
   17.0695  -11.5606  -15.6126 C   0  0  0  0  0  0  0  0  0  0  0  0
   17.6956  -11.8329  -16.6658 O   0  0  0  0  0  0  0  0  0  0  0  0
   15.8803   -8.0272  -16.6114 C   0  0  0  0  0  0  0  0  0  0  0  0
   17.1099   -7.9410  -15.7823 C   0  0  1  0  0  0  0  0  0  0  0  0
   16.7163   -7.7487  -14.4499 O   0  0  0  0  0  0  0  0  0  0  0  0
   17.9416   -9.2026  -15.8052 C   0  0  2  0  0  0  0  0  0  0  0  0
   17.2033  -10.2378  -15.1084 N   0  0  0  0  0  0  0  0  0  0  0  0
   19.2289   -9.0224  -15.0866 C   0  0  0  0  0  0  0  0  0  0  0  0
   19.3295   -9.1954  -13.8298 O   0  0  0  0  0  0  0  0  0  0  0  0
   24.8069  -10.2743  -17.2938 N   0  0  0  0  0  0  0  0  0  0  0  0
   25.1486   -9.8199  -15.9866 C   0  0  0  0  0  0  0  0  0  0  0  0
   26.3571   -9.9928  -15.6420 O   0  0  0  0  0  0  0  0  0  0  0  0
   24.1446   -9.1846  -15.0905 C   0  0  0  0  0  0  0  0  0  0  0  0
   22.8266   -9.2068  -15.8081 C   0  0  0  0  0  0  0  0  0  0  0  0
   21.7040   -8.5615  -15.0431 C   0  0  2  0  0  0  0  0  0  0  0  0
   20.4371   -8.6461  -15.7428 N   0  0  0  0  0  0  0  0  0  0  0  0
   21.9858   -7.1828  -14.6354 C   0  0  0  0  0  0  0  0  0  0  0  0
   21.4964   -6.2125  -15.2429 O   0  0  0  0  0  0  0  0  0  0  0  0
   22.8066   -6.9274  -13.5603 O   0  0  0  0  0  0  0  0  0  0  0  0
  1  2  1  0
  2  3  1  0
  3  4  2  0
  6  5  1  6
  6  8  1  0
  7  6  1  0
  8 10  1  0
  8  9  1  1
  9  3  1  0
 10 11  2  0
 10 18  1  0
 12 13  1  0
 13 14  2  0
 13 15  1  0
 15 16  1  0
 17 16  1  6
 17 19  1  0
 18 17  1  0
 19 20  2  0
 19 21  1  0
M  END
$$$$
