GTQ.pdb
     RDKit          3D

 21 20  0  0  1  0  0  0  0  0999 V2000
   21.8996  -17.2229  -17.0859 N   0  0  0  0  0  0  0  0  0  0  0  0
   21.8839  -15.8992  -17.6798 C   0  0  0  0  0  0  0  0  0  0  0  0
   22.1045  -14.9196  -16.5848 C   0  0  0  0  0  0  0  0  0  0  0  0
   21.5618  -15.0411  -15.4595 O   0  0  0  0  0  0  0  0  0  0  0  0
   25.3830  -13.9740  -15.1335 C   0  0  0  0  0  0  0  0  0  0  0  0
   24.7293  -12.7175  -15.5818 C   0  0  1  0  0  0  0  0  0  0  0  0
   25.2227  -12.4088  -16.8579 O   0  0  0  0  0  0  0  0  0  0  0  0
   23.2289  -12.8351  -15.7197 C   0  0  2  0  0  0  0  0  0  0  0  0
   22.9503  -13.7920  -16.7728 N   0  0  0  0  0  0  0  0  0  0  0  0
   22.6140  -11.5453  -16.1250 C   0  0  0  0  0  0  0  0  0  0  0  0
   22.1639  -11.3525  -17.2996 O   0  0  0  0  0  0  0  0  0  0  0  0
   20.2016   -8.9973  -18.6804 N   0  0  0  0  0  0  0  0  0  0  0  0
   19.5558   -8.0643  -17.8177 C   0  0  0  0  0  0  0  0  0  0  0  0
   18.9335   -7.1210  -18.3939 O   0  0  0  0  0  0  0  0  0  0  0  0
   19.6136   -8.1968  -16.3365 C   0  0  0  0  0  0  0  0  0  0  0  0
   20.3767   -9.4520  -16.0288 C   0  0  0  0  0  0  0  0  0  0  0  0
   21.8054   -9.2140  -15.6236 C   0  0  2  0  0  0  0  0  0  0  0  0
   22.4825  -10.4368  -15.2385 N   0  0  0  0  0  0  0  0  0  0  0  0
   21.9613   -8.1830  -14.5945 C   0  0  0  0  0  0  0  0  0  0  0  0
   21.9133   -8.4623  -13.3821 O   0  0  0  0  0  0  0  0  0  0  0  0
   22.1665   -6.8689  -14.9492 O   0  0  0  0  0  0  0  0  0  0  0  0
  1  2  1  0
  2  3  1  0
  3  4  2  0
  6  5  1  6
  6  8  1  0
  7  6  1  0
  8 10  1  0
  8  9  1  6
  9  3  1  0
 10 11  2  0
 10 18  1  0
 12 13  1  0
 13 14  2  0
 13 15  1  0
 15 16  1  0
 17 16  1  1
 17 19  1  0
 18 17  1  0
 19 20  2  0
 19 21  1  0
M  END
$$$$
