GTQ.pdb
     RDKit          3D

 21 20  0  0  1  0  0  0  0  0999 V2000
   23.9274  -20.2645  -15.5632 N   0  0  0  0  0  0  0  0  0  0  0  0
   22.9965  -19.3339  -16.1736 C   0  0  0  0  0  0  0  0  0  0  0  0
   23.1599  -18.0277  -15.4848 C   0  0  0  0  0  0  0  0  0  0  0  0
   22.8426  -17.8619  -14.2818 O   0  0  0  0  0  0  0  0  0  0  0  0
   26.2172  -15.8459  -14.9555 C   0  0  0  0  0  0  0  0  0  0  0  0
   25.2152  -15.1007  -15.7604 C   0  0  1  0  0  0  0  0  0  0  0  0
   25.5187  -15.3006  -17.1151 O   0  0  0  0  0  0  0  0  0  0  0  0
   23.7991  -15.5898  -15.5622 C   0  0  2  0  0  0  0  0  0  0  0  0
   23.6893  -16.9008  -16.1718 N   0  0  0  0  0  0  0  0  0  0  0  0
   22.8155  -14.7071  -16.2398 C   0  0  0  0  0  0  0  0  0  0  0  0
   22.2580  -15.0350  -17.3359 O   0  0  0  0  0  0  0  0  0  0  0  0
   17.5615  -13.2953  -15.0333 N   0  0  0  0  0  0  0  0  0  0  0  0
   17.7140  -12.2776  -16.0197 C   0  0  0  0  0  0  0  0  0  0  0  0
   16.6522  -11.6670  -16.3495 O   0  0  0  0  0  0  0  0  0  0  0  0
   19.0386  -11.9590  -16.6186 C   0  0  0  0  0  0  0  0  0  0  0  0
   20.0562  -12.8328  -15.9451 C   0  0  0  0  0  0  0  0  0  0  0  0
   21.4689  -12.5853  -16.3977 C   0  0  2  0  0  0  0  0  0  0  0  0
   22.4249  -13.4386  -15.7198 N   0  0  0  0  0  0  0  0  0  0  0  0
   21.8742  -11.1796  -16.3194 C   0  0  0  0  0  0  0  0  0  0  0  0
   22.7701  -10.8040  -15.5407 O   0  0  0  0  0  0  0  0  0  0  0  0
   21.2670  -10.2333  -17.1135 O   0  0  0  0  0  0  0  0  0  0  0  0
  1  2  1  0
  2  3  1  0
  3  4  2  0
  6  5  1  1
  6  8  1  0
  7  6  1  0
  8 10  1  0
  8  9  1  6
  9  3  1  0
 10 11  2  0
 10 18  1  0
 12 13  1  0
 13 14  2  0
 13 15  1  0
 15 16  1  0
 17 16  1  1
 17 19  1  0
 18 17  1  0
 19 20  2  0
 19 21  1  0
M  END
$$$$
