GTQ.pdb
     RDKit          3D

 21 20  0  0  1  0  0  0  0  0999 V2000
   15.8705  -14.9743  -15.9927 N   0  0  0  0  0  0  0  0  0  0  0  0
   15.5647  -13.5617  -16.1193 C   0  0  0  0  0  0  0  0  0  0  0  0
   16.4029  -12.8366  -15.1300 C   0  0  0  0  0  0  0  0  0  0  0  0
   16.5448  -13.2404  -13.9500 O   0  0  0  0  0  0  0  0  0  0  0  0
   20.0633  -11.6952  -15.5210 C   0  0  0  0  0  0  0  0  0  0  0  0
   19.1909  -10.5257  -15.2414 C   0  0  1  0  0  0  0  0  0  0  0  0
   18.8359   -9.9516  -16.4709 O   0  0  0  0  0  0  0  0  0  0  0  0
   17.8976  -10.8905  -14.5498 C   0  0  2  0  0  0  0  0  0  0  0  0
   17.0854  -11.6413  -15.4873 N   0  0  0  0  0  0  0  0  0  0  0  0
   17.1224   -9.6829  -14.1668 C   0  0  0  0  0  0  0  0  0  0  0  0
   16.2348   -9.1817  -14.9286 O   0  0  0  0  0  0  0  0  0  0  0  0
   15.9722   -7.7611   -8.3707 N   0  0  0  0  0  0  0  0  0  0  0  0
   15.2455   -6.7937   -9.1244 C   0  0  0  0  0  0  0  0  0  0  0  0
   14.5098   -6.0102   -8.4506 O   0  0  0  0  0  0  0  0  0  0  0  0
   15.3498   -6.7157  -10.6069 C   0  0  0  0  0  0  0  0  0  0  0  0
   16.1890   -7.8753  -11.0582 C   0  0  0  0  0  0  0  0  0  0  0  0
   16.4872   -7.8760  -12.5323 C   0  0  2  0  0  0  0  0  0  0  0  0
   17.3115   -9.0004  -12.9297 N   0  0  0  0  0  0  0  0  0  0  0  0
   17.0522   -6.6148  -13.0189 C   0  0  0  0  0  0  0  0  0  0  0  0
   18.2807   -6.4608  -13.1500 O   0  0  0  0  0  0  0  0  0  0  0  0
   16.2284   -5.5615  -13.3455 O   0  0  0  0  0  0  0  0  0  0  0  0
  1  2  1  0
  2  3  1  0
  3  4  2  0
  6  5  1  6
  6  8  1  0
  7  6  1  0
  8 10  1  0
  8  9  1  6
  9  3  1  0
 10 11  2  0
 10 18  1  0
 12 13  1  0
 13 14  2  0
 13 15  1  0
 15 16  1  0
 17 16  1  1
 17 19  1  0
 18 17  1  0
 19 20  2  0
 19 21  1  0
M  END
$$$$
