GTQ.pdb
     RDKit          3D

 21 20  0  0  1  0  0  0  0  0999 V2000
   24.3876  -15.9623  -17.9766 N   0  0  0  0  0  0  0  0  0  0  0  0
   24.5706  -14.5914  -18.4149 C   0  0  0  0  0  0  0  0  0  0  0  0
   24.3755  -13.7174  -17.2296 C   0  0  0  0  0  0  0  0  0  0  0  0
   23.5606  -13.9996  -16.3176 O   0  0  0  0  0  0  0  0  0  0  0  0
   27.3585  -11.6940  -15.3974 C   0  0  0  0  0  0  0  0  0  0  0  0
   26.2047  -10.8334  -15.7647 C   0  0  1  0  0  0  0  0  0  0  0  0
   26.4998  -10.2208  -16.9914 O   0  0  0  0  0  0  0  0  0  0  0  0
   24.9200  -11.6029  -15.9684 C   0  0  2  0  0  0  0  0  0  0  0  0
   25.1147  -12.5116  -17.0813 N   0  0  0  0  0  0  0  0  0  0  0  0
   23.7945  -10.7031  -16.3283 C   0  0  0  0  0  0  0  0  0  0  0  0
   23.5682  -10.3543  -17.5311 O   0  0  0  0  0  0  0  0  0  0  0  0
   17.0734   -9.2854  -14.5951 N   0  0  0  0  0  0  0  0  0  0  0  0
   18.0480   -9.7866  -15.5066 C   0  0  0  0  0  0  0  0  0  0  0  0
   17.7856  -10.9122  -16.0292 O   0  0  0  0  0  0  0  0  0  0  0  0
   19.2911   -9.0302  -15.8187 C   0  0  0  0  0  0  0  0  0  0  0  0
   20.4523   -9.8912  -15.4152 C   0  0  0  0  0  0  0  0  0  0  0  0
   21.7952   -9.2931  -15.7326 C   0  0  2  0  0  0  0  0  0  0  0  0
   22.8915  -10.1674  -15.3643 N   0  0  0  0  0  0  0  0  0  0  0  0
   21.9873   -7.9506  -15.1785 C   0  0  0  0  0  0  0  0  0  0  0  0
   21.5141   -6.9433  -15.7366 O   0  0  0  0  0  0  0  0  0  0  0  0
   22.7029   -7.7715  -14.0162 O   0  0  0  0  0  0  0  0  0  0  0  0
  1  2  1  0
  2  3  1  0
  3  4  2  0
  6  5  1  6
  6  8  1  0
  7  6  1  0
  8 10  1  0
  8  9  1  6
  9  3  1  0
 10 11  2  0
 10 18  1  0
 12 13  1  0
 13 14  2  0
 13 15  1  0
 15 16  1  0
 17 16  1  1
 17 19  1  0
 18 17  1  0
 19 20  2  0
 19 21  1  0
M  END
$$$$
