KAT.pdb
     RDKit          3D

 22 21  0  0  1  0  0  0  0  0999 V2000
   19.6852  -11.9236  -17.0419 N   0  0  0  0  0  0  0  0  0  0  0  0
   18.8537  -10.7559  -16.8365 C   0  0  1  0  0  0  0  0  0  0  0  0
   17.4618  -11.1402  -16.3745 C   0  0  0  0  0  0  0  0  0  0  0  0
   16.9616  -12.2420  -17.2442 C   0  0  0  0  0  0  0  0  0  0  0  0
   16.9568  -13.5943  -16.6299 C   0  0  0  0  0  0  0  0  0  0  0  0
   16.3336  -14.6747  -17.4414 C   0  0  0  0  0  0  0  0  0  0  0  0
   16.3227  -15.9595  -16.7716 N   0  0  0  0  0  0  0  0  0  0  0  0
   19.5373   -9.8197  -15.9543 C   0  0  0  0  0  0  0  0  0  0  0  0
   18.9250   -8.8038  -15.5441 O   0  0  0  0  0  0  0  0  0  0  0  0
   22.8452   -9.6508  -14.0718 C   0  0  0  0  0  0  0  0  0  0  0  0
   21.5038   -9.1162  -14.5445 C   0  0  2  0  0  0  0  0  0  0  0  0
   20.8819   -9.9679  -15.5066 N   0  0  0  0  0  0  0  0  0  0  0  0
   21.7160   -7.7347  -15.0394 C   0  0  0  0  0  0  0  0  0  0  0  0
   22.3555   -7.5108  -16.1000 O   0  0  0  0  0  0  0  0  0  0  0  0
   19.3717   -5.2762  -16.2442 C   0  0  0  0  0  0  0  0  0  0  0  0
   20.0478   -4.6152  -15.0861 C   0  0  1  0  0  0  0  0  0  0  0  0
   19.2422   -4.7560  -13.9581 O   0  0  0  0  0  0  0  0  0  0  0  0
   21.4183   -5.2404  -14.8056 C   0  0  2  0  0  0  0  0  0  0  0  0
   21.2085   -6.6062  -14.3402 N   0  0  0  0  0  0  0  0  0  0  0  0
   22.1668   -4.4665  -13.8115 C   0  0  0  0  0  0  0  0  0  0  0  0
   22.6919   -3.1970  -14.0371 O   0  0  0  0  0  0  0  0  0  0  0  0
   22.3584   -4.9647  -12.6723 O   0  0  0  0  0  0  0  0  0  0  0  0
  2  1  1  1
  2  8  1  0
  3  2  1  0
  4  3  1  0
  5  4  1  0
  6  5  1  0
  7  6  1  0
  8  9  2  0
 11 10  1  6
 12  8  1  0
 12 11  1  0
 13 19  1  0
 13 11  1  0
 14 13  2  0
 16 15  1  6
 17 16  1  0
 18 19  1  1
 18 16  1  0
 20 21  1  0
 20 18  1  0
 22 20  2  0
M  END
$$$$
