KAT.pdb
     RDKit          3D

 22 21  0  0  1  0  0  0  0  0999 V2000
   25.7730  -18.3761  -19.9264 N   0  0  0  0  0  0  0  0  0  0  0  0
   25.4022  -19.7759  -19.9198 C   0  0  1  0  0  0  0  0  0  0  0  0
   26.6108  -20.6710  -20.1115 C   0  0  0  0  0  0  0  0  0  0  0  0
   27.4705  -20.0839  -21.1777 C   0  0  0  0  0  0  0  0  0  0  0  0
   28.7232  -20.8250  -21.4742 C   0  0  0  0  0  0  0  0  0  0  0  0
   29.6363  -20.1890  -22.4621 C   0  0  0  0  0  0  0  0  0  0  0  0
   30.8079  -20.9892  -22.7561 N   0  0  0  0  0  0  0  0  0  0  0  0
   24.6272  -20.0693  -18.7218 C   0  0  0  0  0  0  0  0  0  0  0  0
   24.2649  -21.2501  -18.4988 O   0  0  0  0  0  0  0  0  0  0  0  0
   23.6118  -18.2981  -15.5230 C   0  0  0  0  0  0  0  0  0  0  0  0
   23.5113  -19.4005  -16.5637 C   0  0  2  0  0  0  0  0  0  0  0  0
   24.2363  -19.0977  -17.7556 N   0  0  0  0  0  0  0  0  0  0  0  0
   22.0725  -19.6634  -16.8072 C   0  0  0  0  0  0  0  0  0  0  0  0
   21.3918  -18.9250  -17.5655 O   0  0  0  0  0  0  0  0  0  0  0  0
   20.7510  -23.0719  -17.8692 C   0  0  0  0  0  0  0  0  0  0  0  0
   19.9352  -22.6186  -16.7012 C   0  0  1  0  0  0  0  0  0  0  0  0
   20.4107  -23.2476  -15.5525 O   0  0  0  0  0  0  0  0  0  0  0  0
   20.0196  -21.1003  -16.5139 C   0  0  2  0  0  0  0  0  0  0  0  0
   21.4009  -20.7572  -16.1969 N   0  0  0  0  0  0  0  0  0  0  0  0
   19.1181  -20.6403  -15.4540 C   0  0  0  0  0  0  0  0  0  0  0  0
   17.7306  -20.6065  -15.5627 O   0  0  0  0  0  0  0  0  0  0  0  0
   19.6111  -20.2458  -14.3659 O   0  0  0  0  0  0  0  0  0  0  0  0
  2  1  1  1
  2  8  1  0
  3  2  1  0
  4  3  1  0
  5  4  1  0
  6  5  1  0
  7  6  1  0
  8  9  2  0
 11 10  1  1
 12  8  1  0
 12 11  1  0
 13 19  1  0
 13 11  1  0
 14 13  2  0
 16 15  1  6
 17 16  1  0
 18 19  1  1
 18 16  1  0
 20 21  1  0
 20 18  1  0
 22 20  2  0
M  END
$$$$
