KAT.pdb
     RDKit          3D

 22 21  0  0  1  0  0  0  0  0999 V2000
   27.7860  -21.4743  -19.0334 N   0  0  0  0  0  0  0  0  0  0  0  0
   27.5181  -20.3511  -18.1594 C   0  0  1  0  0  0  0  0  0  0  0  0
   26.5760  -19.3559  -18.8077 C   0  0  0  0  0  0  0  0  0  0  0  0
   27.2632  -18.7491  -19.9825 C   0  0  0  0  0  0  0  0  0  0  0  0
   26.5195  -17.6645  -20.6728 C   0  0  0  0  0  0  0  0  0  0  0  0
   27.1993  -17.0567  -21.8488 C   0  0  0  0  0  0  0  0  0  0  0  0
   26.3786  -16.0873  -22.5460 N   0  0  0  0  0  0  0  0  0  0  0  0
   27.0695  -20.8390  -16.8622 C   0  0  0  0  0  0  0  0  0  0  0  0
   26.2368  -21.7769  -16.8134 O   0  0  0  0  0  0  0  0  0  0  0  0
   27.6197  -19.9899  -13.1824 C   0  0  0  0  0  0  0  0  0  0  0  0
   26.8973  -20.6275  -14.3572 C   0  0  2  0  0  0  0  0  0  0  0  0
   27.5116  -20.3238  -15.6095 N   0  0  0  0  0  0  0  0  0  0  0  0
   25.4743  -20.2165  -14.2907 C   0  0  0  0  0  0  0  0  0  0  0  0
   25.0814  -19.1346  -14.7997 O   0  0  0  0  0  0  0  0  0  0  0  0
   22.5641  -23.0978  -13.9496 C   0  0  0  0  0  0  0  0  0  0  0  0
   22.3180  -21.7142  -14.4600 C   0  0  1  0  0  0  0  0  0  0  0  0
   20.9527  -21.4466  -14.3859 O   0  0  0  0  0  0  0  0  0  0  0  0
   23.0798  -20.6696  -13.6377 C   0  0  2  0  0  0  0  0  0  0  0  0
   24.4944  -21.0233  -13.6514 N   0  0  0  0  0  0  0  0  0  0  0  0
   22.5790  -20.6013  -12.2622 C   0  0  0  0  0  0  0  0  0  0  0  0
   21.3499  -20.0569  -11.8999 O   0  0  0  0  0  0  0  0  0  0  0  0
   23.2919  -21.0597  -11.3325 O   0  0  0  0  0  0  0  0  0  0  0  0
  2  1  1  6
  2  8  1  0
  3  2  1  0
  4  3  1  0
  5  4  1  0
  6  5  1  0
  7  6  1  0
  8  9  2  0
 11 10  1  1
 12  8  1  0
 12 11  1  0
 13 19  1  0
 13 11  1  0
 14 13  2  0
 16 15  1  1
 17 16  1  0
 18 19  1  1
 18 16  1  0
 20 21  1  0
 20 18  1  0
 22 20  2  0
M  END
$$$$
