KAT.pdb
     RDKit          3D

 22 21  0  0  1  0  0  0  0  0999 V2000
   17.5732  -11.9011  -15.5873 N   0  0  0  0  0  0  0  0  0  0  0  0
   16.2698  -11.3680  -15.9250 C   0  0  1  0  0  0  0  0  0  0  0  0
   15.1751  -12.3912  -15.6947 C   0  0  0  0  0  0  0  0  0  0  0  0
   15.7917  -13.7476  -15.6725 C   0  0  0  0  0  0  0  0  0  0  0  0
   14.8702  -14.8676  -15.3520 C   0  0  0  0  0  0  0  0  0  0  0  0
   15.4895  -16.2188  -15.2808 C   0  0  0  0  0  0  0  0  0  0  0  0
   14.5321  -17.2737  -15.0162 N   0  0  0  0  0  0  0  0  0  0  0  0
   16.0631  -10.1064  -15.2266 C   0  0  0  0  0  0  0  0  0  0  0  0
   14.9966   -9.4706  -15.4100 O   0  0  0  0  0  0  0  0  0  0  0  0
   17.3540   -8.1581  -12.3182 C   0  0  0  0  0  0  0  0  0  0  0  0
   16.8502   -8.2222  -13.7502 C   0  0  2  0  0  0  0  0  0  0  0  0
   16.9993   -9.5195  -14.3270 N   0  0  0  0  0  0  0  0  0  0  0  0
   17.5392   -7.1589  -14.5205 C   0  0  0  0  0  0  0  0  0  0  0  0
   18.7327   -7.2926  -14.8968 O   0  0  0  0  0  0  0  0  0  0  0  0
   16.1174   -5.4906  -17.6890 C   0  0  0  0  0  0  0  0  0  0  0  0
   16.4842   -4.4237  -16.7080 C   0  0  1  0  0  0  0  0  0  0  0  0
   15.3343   -4.0260  -16.0291 O   0  0  0  0  0  0  0  0  0  0  0  0
   17.5176   -4.9257  -15.6941 C   0  0  2  0  0  0  0  0  0  0  0  0
   16.8845   -5.9458  -14.8666 N   0  0  0  0  0  0  0  0  0  0  0  0
   18.0279   -3.8318  -14.8631 C   0  0  0  0  0  0  0  0  0  0  0  0
   18.9634   -2.8927  -15.2887 O   0  0  0  0  0  0  0  0  0  0  0  0
   17.6051   -3.7164  -13.6839 O   0  0  0  0  0  0  0  0  0  0  0  0
  2  1  1  1
  2  8  1  0
  3  2  1  0
  4  3  1  0
  5  4  1  0
  6  5  1  0
  7  6  1  0
  8  9  2  0
 11 10  1  1
 12  8  1  0
 12 11  1  0
 13 19  1  0
 13 11  1  0
 14 13  2  0
 16 15  1  6
 17 16  1  0
 18 19  1  1
 18 16  1  0
 20 21  1  0
 20 18  1  0
 22 20  2  0
M  END
$$$$
