KAT.pdb
     RDKit          3D

 22 21  0  0  1  0  0  0  0  0999 V2000
   16.7980  -11.6007  -16.2847 N   0  0  0  0  0  0  0  0  0  0  0  0
   16.2959  -10.2503  -16.1387 C   0  0  1  0  0  0  0  0  0  0  0  0
   15.4869  -10.0936  -14.8661 C   0  0  0  0  0  0  0  0  0  0  0  0
   14.2037  -10.8340  -15.0264 C   0  0  0  0  0  0  0  0  0  0  0  0
   13.1941  -10.6087  -13.9605 C   0  0  0  0  0  0  0  0  0  0  0  0
   11.8741  -11.2640  -14.1666 C   0  0  0  0  0  0  0  0  0  0  0  0
   10.9151  -10.9592  -13.1242 N   0  0  0  0  0  0  0  0  0  0  0  0
   17.3965   -9.3045  -16.2658 C   0  0  0  0  0  0  0  0  0  0  0  0
   18.5775   -9.7245  -16.2007 O   0  0  0  0  0  0  0  0  0  0  0  0
   17.8923   -5.6389  -17.1421 C   0  0  0  0  0  0  0  0  0  0  0  0
   18.3214   -6.9809  -16.5735 C   0  0  2  0  0  0  0  0  0  0  0  0
   17.2369   -7.9026  -16.4638 N   0  0  0  0  0  0  0  0  0  0  0  0
   19.0046   -6.7278  -15.2821 C   0  0  0  0  0  0  0  0  0  0  0  0
   18.3551   -6.6105  -14.2105 O   0  0  0  0  0  0  0  0  0  0  0  0
   21.7473   -8.9359  -13.9714 C   0  0  0  0  0  0  0  0  0  0  0  0
   22.2635   -7.5334  -13.9314 C   0  0  1  0  0  0  0  0  0  0  0  0
   23.0582   -7.3172  -15.0552 O   0  0  0  0  0  0  0  0  0  0  0  0
   21.1190   -6.5147  -13.9223 C   0  0  2  0  0  0  0  0  0  0  0  0
   20.4181   -6.6067  -15.1977 N   0  0  0  0  0  0  0  0  0  0  0  0
   21.6152   -5.1533  -13.7040 C   0  0  0  0  0  0  0  0  0  0  0  0
   22.1232   -4.6869  -12.4946 O   0  0  0  0  0  0  0  0  0  0  0  0
   21.5892   -4.3364  -14.6604 O   0  0  0  0  0  0  0  0  0  0  0  0
  2  1  1  1
  2  8  1  0
  3  2  1  0
  4  3  1  0
  5  4  1  0
  6  5  1  0
  7  6  1  0
  8  9  2  0
 11 10  1  1
 12  8  1  0
 12 11  1  0
 13 19  1  0
 13 11  1  0
 14 13  2  0
 16 15  1  6
 17 16  1  0
 18 19  1  6
 18 16  1  0
 20 21  1  0
 20 18  1  0
 22 20  2  0
M  END
$$$$
