KAT.pdb
     RDKit          3D

 22 21  0  0  1  0  0  0  0  0999 V2000
   18.2769  -12.7993  -15.3783 N   0  0  0  0  0  0  0  0  0  0  0  0
   18.9400  -11.8064  -16.1978 C   0  0  1  0  0  0  0  0  0  0  0  0
   18.2912  -11.6909  -17.5632 C   0  0  0  0  0  0  0  0  0  0  0  0
   18.0535  -13.0635  -18.0922 C   0  0  0  0  0  0  0  0  0  0  0  0
   17.4372  -13.1345  -19.4419 C   0  0  0  0  0  0  0  0  0  0  0  0
   17.1691  -14.5023  -19.9628 C   0  0  0  0  0  0  0  0  0  0  0  0
   16.4156  -14.5056  -21.2004 N   0  0  0  0  0  0  0  0  0  0  0  0
   19.0221  -10.5481  -15.4684 C   0  0  0  0  0  0  0  0  0  0  0  0
   17.9794  -10.0579  -14.9705 O   0  0  0  0  0  0  0  0  0  0  0  0
   21.6106   -8.2148  -14.0234 C   0  0  0  0  0  0  0  0  0  0  0  0
   20.2741   -8.5067  -14.6845 C   0  0  2  0  0  0  0  0  0  0  0  0
   20.2233   -9.8084  -15.2684 N   0  0  0  0  0  0  0  0  0  0  0  0
   20.0031   -7.4205  -15.6567 C   0  0  0  0  0  0  0  0  0  0  0  0
   20.5152   -7.4288  -16.8063 O   0  0  0  0  0  0  0  0  0  0  0  0
   16.5535   -6.2131  -16.7457 C   0  0  0  0  0  0  0  0  0  0  0  0
   17.3201   -5.0325  -16.2422 C   0  0  1  0  0  0  0  0  0  0  0  0
   16.9457   -4.7857  -14.9231 O   0  0  0  0  0  0  0  0  0  0  0  0
   18.8312   -5.2801  -16.2975 C   0  0  2  0  0  0  0  0  0  0  0  0
   19.1561   -6.3257  -15.3344 N   0  0  0  0  0  0  0  0  0  0  0  0
   19.5854   -4.0581  -16.0055 C   0  0  0  0  0  0  0  0  0  0  0  0
   19.6595   -2.9586  -16.8563 O   0  0  0  0  0  0  0  0  0  0  0  0
   20.2145   -3.9773  -14.9191 O   0  0  0  0  0  0  0  0  0  0  0  0
  2  1  1  1
  2  8  1  0
  3  2  1  0
  4  3  1  0
  5  4  1  0
  6  5  1  0
  7  6  1  0
  8  9  2  0
 11 10  1  6
 12  8  1  0
 12 11  1  0
 13 19  1  0
 13 11  1  0
 14 13  2  0
 16 15  1  1
 17 16  1  0
 18 19  1  1
 18 16  1  0
 20 21  1  0
 20 18  1  0
 22 20  2  0
M  END
$$$$
