KAT.pdb
     RDKit          3D

 22 21  0  0  1  0  0  0  0  0999 V2000
   19.0221  -13.6765  -20.3847 N   0  0  0  0  0  0  0  0  0  0  0  0
   18.3304  -12.6600  -19.6196 C   0  0  1  0  0  0  0  0  0  0  0  0
   17.4598  -13.2738  -18.5408 C   0  0  0  0  0  0  0  0  0  0  0  0
   16.3919  -14.0806  -19.1961 C   0  0  0  0  0  0  0  0  0  0  0  0
   15.4481  -14.7657  -18.2763 C   0  0  0  0  0  0  0  0  0  0  0  0
   14.4025  -15.6036  -18.9236 C   0  0  0  0  0  0  0  0  0  0  0  0
   13.4961  -14.8427  -19.7595 N   0  0  0  0  0  0  0  0  0  0  0  0
   19.2915  -11.6830  -19.1259 C   0  0  0  0  0  0  0  0  0  0  0  0
   20.4297  -12.0696  -18.7650 O   0  0  0  0  0  0  0  0  0  0  0  0
   19.5821   -7.9032  -18.8084 C   0  0  0  0  0  0  0  0  0  0  0  0
   19.9748   -9.3388  -18.5032 C   0  0  2  0  0  0  0  0  0  0  0  0
   19.0374  -10.2852  -19.0167 N   0  0  0  0  0  0  0  0  0  0  0  0
   20.1745   -9.4518  -17.0383 C   0  0  0  0  0  0  0  0  0  0  0  0
   19.2310   -9.7804  -16.2729 O   0  0  0  0  0  0  0  0  0  0  0  0
   23.2329  -10.1052  -13.2620 C   0  0  0  0  0  0  0  0  0  0  0  0
   22.9629   -9.9798  -14.7272 C   0  0  1  0  0  0  0  0  0  0  0  0
   22.9049  -11.2565  -15.2821 O   0  0  0  0  0  0  0  0  0  0  0  0
   21.6389   -9.2560  -14.9933 C   0  0  2  0  0  0  0  0  0  0  0  0
   21.4359   -9.1950  -16.4360 N   0  0  0  0  0  0  0  0  0  0  0  0
   21.6390   -7.9092  -14.4155 C   0  0  0  0  0  0  0  0  0  0  0  0
   22.1587   -6.7832  -15.0480 O   0  0  0  0  0  0  0  0  0  0  0  0
   21.1411   -7.7382  -13.2729 O   0  0  0  0  0  0  0  0  0  0  0  0
  2  1  1  1
  2  8  1  0
  3  2  1  0
  4  3  1  0
  5  4  1  0
  6  5  1  0
  7  6  1  0
  8  9  2  0
 11 10  1  1
 12  8  1  0
 12 11  1  0
 13 19  1  0
 13 11  1  0
 14 13  2  0
 16 15  1  1
 17 16  1  0
 18 19  1  6
 18 16  1  0
 20 21  1  0
 20 18  1  0
 22 20  2  0
M  END
$$$$
