KAT.pdb
     RDKit          3D

 22 21  0  0  1  0  0  0  0  0999 V2000
   17.9274  -11.6271  -18.6063 N   0  0  0  0  0  0  0  0  0  0  0  0
   18.6617  -11.3944  -17.3800 C   0  0  1  0  0  0  0  0  0  0  0  0
   20.0304  -12.0449  -17.4208 C   0  0  0  0  0  0  0  0  0  0  0  0
   19.8519  -13.5127  -17.6055 C   0  0  0  0  0  0  0  0  0  0  0  0
   21.1023  -14.2962  -17.7755 C   0  0  0  0  0  0  0  0  0  0  0  0
   20.9302  -15.7616  -17.9681 C   0  0  0  0  0  0  0  0  0  0  0  0
   22.1842  -16.4870  -17.9901 N   0  0  0  0  0  0  0  0  0  0  0  0
   18.6884   -9.9668  -17.0912 C   0  0  0  0  0  0  0  0  0  0  0  0
   18.9531   -9.1586  -18.0143 O   0  0  0  0  0  0  0  0  0  0  0  0
   17.4853   -7.5683  -14.4791 C   0  0  0  0  0  0  0  0  0  0  0  0
   18.4964   -8.0000  -15.5279 C   0  0  2  0  0  0  0  0  0  0  0  0
   18.4311   -9.3977  -15.8106 N   0  0  0  0  0  0  0  0  0  0  0  0
   19.8369   -7.5590  -15.0728 C   0  0  0  0  0  0  0  0  0  0  0  0
   20.5754   -8.3124  -14.3866 O   0  0  0  0  0  0  0  0  0  0  0  0
   23.3690   -4.0387  -15.3437 C   0  0  0  0  0  0  0  0  0  0  0  0
   21.9988   -4.5258  -15.6910 C   0  0  1  0  0  0  0  0  0  0  0  0
   21.9457   -4.7718  -17.0614 O   0  0  0  0  0  0  0  0  0  0  0  0
   21.6535   -5.8136  -14.9359 C   0  0  2  0  0  0  0  0  0  0  0  0
   20.3454   -6.2704  -15.3904 N   0  0  0  0  0  0  0  0  0  0  0  0
   21.6496   -5.5999  -13.4862 C   0  0  0  0  0  0  0  0  0  0  0  0
   22.7350   -5.8533  -12.6519 O   0  0  0  0  0  0  0  0  0  0  0  0
   20.6058   -5.1586  -12.9399 O   0  0  0  0  0  0  0  0  0  0  0  0
  2  1  1  6
  2  8  1  0
  3  2  1  0
  4  3  1  0
  5  4  1  0
  6  5  1  0
  7  6  1  0
  8  9  2  0
 11 10  1  1
 12  8  1  0
 12 11  1  0
 13 19  1  0
 13 11  1  0
 14 13  2  0
 16 15  1  1
 17 16  1  0
 18 19  1  6
 18 16  1  0
 20 21  1  0
 20 18  1  0
 22 20  2  0
M  END
$$$$
