KAT.pdb
     RDKit          3D

 22 21  0  0  1  0  0  0  0  0999 V2000
   16.6877  -14.3836  -15.9030 N   0  0  0  0  0  0  0  0  0  0  0  0
   16.0901  -13.0813  -15.6930 C   0  0  1  0  0  0  0  0  0  0  0  0
   15.5215  -12.9508  -14.2938 C   0  0  0  0  0  0  0  0  0  0  0  0
   14.4144  -13.9361  -14.1386 C   0  0  0  0  0  0  0  0  0  0  0  0
   13.0475  -13.4121  -14.3904 C   0  0  0  0  0  0  0  0  0  0  0  0
   12.1197  -13.4309  -13.2272 C   0  0  0  0  0  0  0  0  0  0  0  0
   10.9041  -14.1787  -13.4770 N   0  0  0  0  0  0  0  0  0  0  0  0
   17.0483  -12.0426  -16.0465 C   0  0  0  0  0  0  0  0  0  0  0  0
   18.2628  -12.2104  -15.7776 O   0  0  0  0  0  0  0  0  0  0  0  0
   17.0608   -8.7986  -18.0375 C   0  0  0  0  0  0  0  0  0  0  0  0
   17.6649   -9.8474  -17.1190 C   0  0  2  0  0  0  0  0  0  0  0  0
   16.7095  -10.8177  -16.6907 N   0  0  0  0  0  0  0  0  0  0  0  0
   18.3216   -9.1395  -15.9938 C   0  0  0  0  0  0  0  0  0  0  0  0
   17.7159   -8.9286  -14.9109 O   0  0  0  0  0  0  0  0  0  0  0  0
   22.4084   -8.0284  -16.3692 C   0  0  0  0  0  0  0  0  0  0  0  0
   21.8112   -8.3230  -15.0307 C   0  0  1  0  0  0  0  0  0  0  0  0
   22.4826   -7.5738  -14.0668 O   0  0  0  0  0  0  0  0  0  0  0  0
   20.3205   -7.9707  -14.9921 C   0  0  2  0  0  0  0  0  0  0  0  0
   19.6595   -8.6693  -16.0881 N   0  0  0  0  0  0  0  0  0  0  0  0
   20.1088   -6.5247  -15.1006 C   0  0  0  0  0  0  0  0  0  0  0  0
   20.2617   -5.6272  -14.0473 O   0  0  0  0  0  0  0  0  0  0  0  0
   19.7658   -6.0424  -16.2107 O   0  0  0  0  0  0  0  0  0  0  0  0
  2  1  1  1
  2  8  1  0
  3  2  1  0
  4  3  1  0
  5  4  1  0
  6  5  1  0
  7  6  1  0
  8  9  2  0
 11 10  1  6
 12  8  1  0
 12 11  1  0
 13 19  1  0
 13 11  1  0
 14 13  2  0
 16 15  1  6
 17 16  1  0
 18 19  1  6
 18 16  1  0
 20 21  1  0
 20 18  1  0
 22 20  2  0
M  END
$$$$
