KAT.pdb
     RDKit          3D

 22 21  0  0  1  0  0  0  0  0999 V2000
   20.6072  -11.9327  -18.1747 N   0  0  0  0  0  0  0  0  0  0  0  0
   19.6217  -10.9394  -17.8014 C   0  0  1  0  0  0  0  0  0  0  0  0
   18.2525  -11.5612  -17.6088 C   0  0  0  0  0  0  0  0  0  0  0  0
   18.0092  -12.5242  -18.7196 C   0  0  0  0  0  0  0  0  0  0  0  0
   17.4298  -13.8325  -18.3209 C   0  0  0  0  0  0  0  0  0  0  0  0
   17.0703  -14.7509  -19.4351 C   0  0  0  0  0  0  0  0  0  0  0  0
   16.6138  -16.0491  -18.9819 N   0  0  0  0  0  0  0  0  0  0  0  0
   20.1012  -10.1853  -16.6510 C   0  0  0  0  0  0  0  0  0  0  0  0
   19.3530   -9.3255  -16.1253 O   0  0  0  0  0  0  0  0  0  0  0  0
   23.1786  -10.1215  -14.3995 C   0  0  0  0  0  0  0  0  0  0  0  0
   21.8374   -9.6254  -14.9128 C   0  0  2  0  0  0  0  0  0  0  0  0
   21.3861  -10.3491  -16.0575 N   0  0  0  0  0  0  0  0  0  0  0  0
   21.9563   -8.1673  -15.1542 C   0  0  0  0  0  0  0  0  0  0  0  0
   22.5323   -7.7189  -16.1794 O   0  0  0  0  0  0  0  0  0  0  0  0
   20.4646   -3.5938  -14.5278 C   0  0  0  0  0  0  0  0  0  0  0  0
   20.3088   -5.0801  -14.4862 C   0  0  1  0  0  0  0  0  0  0  0  0
   19.6684   -5.4953  -15.6519 O   0  0  0  0  0  0  0  0  0  0  0  0
   21.6661   -5.7833  -14.3812 C   0  0  2  0  0  0  0  0  0  0  0  0
   21.4269   -7.2150  -14.2417 N   0  0  0  0  0  0  0  0  0  0  0  0
   22.4449   -5.2780  -13.2474 C   0  0  0  0  0  0  0  0  0  0  0  0
   22.4897   -5.8819  -11.9938 O   0  0  0  0  0  0  0  0  0  0  0  0
   23.1250   -4.2302  -13.3963 O   0  0  0  0  0  0  0  0  0  0  0  0
  2  1  1  1
  2  8  1  0
  3  2  1  0
  4  3  1  0
  5  4  1  0
  6  5  1  0
  7  6  1  0
  8  9  2  0
 11 10  1  6
 12  8  1  0
 12 11  1  0
 13 19  1  0
 13 11  1  0
 14 13  2  0
 16 15  1  6
 17 16  1  0
 18 19  1  1
 18 16  1  0
 20 21  1  0
 20 18  1  0
 22 20  2  0
M  END
$$$$
