KAT.pdb
     RDKit          3D

 22 21  0  0  1  0  0  0  0  0999 V2000
   27.8930  -28.9062  -19.6089 N   0  0  0  0  0  0  0  0  0  0  0  0
   28.2061  -29.0171  -18.1993 C   0  0  1  0  0  0  0  0  0  0  0  0
   27.4318  -28.0052  -17.3777 C   0  0  0  0  0  0  0  0  0  0  0  0
   28.0150  -26.6549  -17.6172 C   0  0  0  0  0  0  0  0  0  0  0  0
   27.4929  -25.5665  -16.7518 C   0  0  0  0  0  0  0  0  0  0  0  0
   26.0233  -25.3398  -16.8077 C   0  0  0  0  0  0  0  0  0  0  0  0
   25.5764  -24.2678  -15.9415 N   0  0  0  0  0  0  0  0  0  0  0  0
   28.0283  -30.3969  -17.7676 C   0  0  0  0  0  0  0  0  0  0  0  0
   27.2471  -31.1440  -18.4054 O   0  0  0  0  0  0  0  0  0  0  0  0
   29.4783  -32.7523  -15.1454 C   0  0  0  0  0  0  0  0  0  0  0  0
   28.4885  -32.3299  -16.2179 C   0  0  2  0  0  0  0  0  0  0  0  0
   28.6877  -30.9837  -16.6490 N   0  0  0  0  0  0  0  0  0  0  0  0
   27.1228  -32.5794  -15.6971 C   0  0  0  0  0  0  0  0  0  0  0  0
   26.5963  -31.8135  -14.8485 O   0  0  0  0  0  0  0  0  0  0  0  0
   23.9407  -33.0500  -17.7493 C   0  0  0  0  0  0  0  0  0  0  0  0
   24.1121  -34.2474  -16.8706 C   0  0  1  0  0  0  0  0  0  0  0  0
   24.7063  -35.2655  -17.6133 O   0  0  0  0  0  0  0  0  0  0  0  0
   24.9929  -33.9311  -15.6574 C   0  0  2  0  0  0  0  0  0  0  0  0
   26.3508  -33.6908  -16.1316 N   0  0  0  0  0  0  0  0  0  0  0  0
   24.9737  -35.0245  -14.6819 C   0  0  0  0  0  0  0  0  0  0  0  0
   23.8678  -35.3687  -13.9095 O   0  0  0  0  0  0  0  0  0  0  0  0
   26.0158  -35.7096  -14.5165 O   0  0  0  0  0  0  0  0  0  0  0  0
  2  1  1  6
  2  8  1  0
  3  2  1  0
  4  3  1  0
  5  4  1  0
  6  5  1  0
  7  6  1  0
  8  9  2  0
 11 10  1  1
 12  8  1  0
 12 11  1  0
 13 19  1  0
 13 11  1  0
 14 13  2  0
 16 15  1  6
 17 16  1  0
 18 19  1  6
 18 16  1  0
 20 21  1  0
 20 18  1  0
 22 20  2  0
M  END
$$$$
