KAT.pdb
     RDKit          3D

 22 21  0  0  1  0  0  0  0  0999 V2000
   18.1696  -12.1358  -15.9801 N   0  0  0  0  0  0  0  0  0  0  0  0
   18.6734  -10.9368  -16.6171 C   0  0  1  0  0  0  0  0  0  0  0  0
   17.6038  -10.2610  -17.4524 C   0  0  0  0  0  0  0  0  0  0  0  0
   16.9976  -11.2774  -18.3580 C   0  0  0  0  0  0  0  0  0  0  0  0
   15.9492  -10.7723  -19.2811 C   0  0  0  0  0  0  0  0  0  0  0  0
   15.3203  -11.7878  -20.1685 C   0  0  0  0  0  0  0  0  0  0  0  0
   14.2071  -11.2665  -20.9354 N   0  0  0  0  0  0  0  0  0  0  0  0
   19.2827  -10.0720  -15.6157 C   0  0  0  0  0  0  0  0  0  0  0  0
   18.5455   -9.3902  -14.8628 O   0  0  0  0  0  0  0  0  0  0  0  0
   22.6769   -9.4579  -14.0643 C   0  0  0  0  0  0  0  0  0  0  0  0
   21.2769   -9.0353  -14.4764 C   0  0  2  0  0  0  0  0  0  0  0  0
   20.6867   -9.9335  -15.4159 N   0  0  0  0  0  0  0  0  0  0  0  0
   21.3527   -7.6399  -14.9721 C   0  0  0  0  0  0  0  0  0  0  0  0
   21.6951   -7.3839  -16.1558 O   0  0  0  0  0  0  0  0  0  0  0  0
   18.8473   -5.0192  -15.4361 C   0  0  0  0  0  0  0  0  0  0  0  0
   19.8321   -4.4611  -14.4594 C   0  0  1  0  0  0  0  0  0  0  0  0
   19.3374   -4.6466  -13.1702 O   0  0  0  0  0  0  0  0  0  0  0  0
   21.1940   -5.1528  -14.5790 C   0  0  2  0  0  0  0  0  0  0  0  0
   21.0433   -6.5336  -14.1352 N   0  0  0  0  0  0  0  0  0  0  0  0
   22.2158   -4.4650  -13.7851 C   0  0  0  0  0  0  0  0  0  0  0  0
   22.7515   -3.2200  -14.1033 O   0  0  0  0  0  0  0  0  0  0  0  0
   22.6510   -5.0196  -12.7432 O   0  0  0  0  0  0  0  0  0  0  0  0
  2  1  1  1
  2  8  1  0
  3  2  1  0
  4  3  1  0
  5  4  1  0
  6  5  1  0
  7  6  1  0
  8  9  2  0
 11 10  1  6
 12  8  1  0
 12 11  1  0
 13 19  1  0
 13 11  1  0
 14 13  2  0
 16 15  1  6
 17 16  1  0
 18 19  1  1
 18 16  1  0
 20 21  1  0
 20 18  1  0
 22 20  2  0
M  END
$$$$
