KAT.pdb
     RDKit          3D

 22 21  0  0  1  0  0  0  0  0999 V2000
   23.6557  -20.7063  -15.9392 N   0  0  0  0  0  0  0  0  0  0  0  0
   22.3749  -20.1483  -16.3205 C   0  0  1  0  0  0  0  0  0  0  0  0
   21.2665  -20.6252  -15.4027 C   0  0  0  0  0  0  0  0  0  0  0  0
   20.2534  -21.3501  -16.2205 C   0  0  0  0  0  0  0  0  0  0  0  0
   19.0766  -21.8669  -15.4760 C   0  0  0  0  0  0  0  0  0  0  0  0
   18.0024  -22.4804  -16.3031 C   0  0  0  0  0  0  0  0  0  0  0  0
   17.7242  -23.8576  -15.9495 N   0  0  0  0  0  0  0  0  0  0  0  0
   22.4846  -18.6991  -16.4198 C   0  0  0  0  0  0  0  0  0  0  0  0
   22.5099  -18.0119  -15.3698 O   0  0  0  0  0  0  0  0  0  0  0  0
   23.2682  -16.1100  -19.0719 C   0  0  0  0  0  0  0  0  0  0  0  0
   22.7078  -16.5604  -17.7334 C   0  0  2  0  0  0  0  0  0  0  0  0
   22.5681  -17.9784  -17.6460 N   0  0  0  0  0  0  0  0  0  0  0  0
   21.4350  -15.8340  -17.5080 C   0  0  0  0  0  0  0  0  0  0  0  0
   20.3357  -16.3022  -17.9034 O   0  0  0  0  0  0  0  0  0  0  0  0
   20.3337  -14.5485  -14.1003 C   0  0  0  0  0  0  0  0  0  0  0  0
   20.2394  -13.4094  -15.0639 C   0  0  1  0  0  0  0  0  0  0  0  0
   21.3722  -12.6104  -14.9239 O   0  0  0  0  0  0  0  0  0  0  0  0
   20.1503  -13.9051  -16.5110 C   0  0  2  0  0  0  0  0  0  0  0  0
   21.4002  -14.5811  -16.8380 N   0  0  0  0  0  0  0  0  0  0  0  0
   19.9032  -12.8003  -17.4415 C   0  0  0  0  0  0  0  0  0  0  0  0
   18.6979  -12.1105  -17.5396 O   0  0  0  0  0  0  0  0  0  0  0  0
   20.8290  -12.4357  -18.2113 O   0  0  0  0  0  0  0  0  0  0  0  0
  2  1  1  1
  2  8  1  0
  3  2  1  0
  4  3  1  0
  5  4  1  0
  6  5  1  0
  7  6  1  0
  8  9  2  0
 11 10  1  6
 12  8  1  0
 12 11  1  0
 13 19  1  0
 13 11  1  0
 14 13  2  0
 16 15  1  1
 17 16  1  0
 18 19  1  6
 18 16  1  0
 20 21  1  0
 20 18  1  0
 22 20  2  0
M  END
$$$$
