KHE.pdb
     RDKit          3D

 29 29  0  0  1  0  0  0  0  0999 V2000
    7.7513  -18.6742   17.0034 N   0  0  0  0  0  0  0  0  0  0  0  0
    9.1510  -18.4838   17.3345 C   0  0  1  0  0  0  0  0  0  0  0  0
    9.9649  -18.1662   16.0964 C   0  0  0  0  0  0  0  0  0  0  0  0
    9.1178  -18.5820   14.9061 C   0  0  0  0  0  0  0  0  0  0  0  0
    9.5170  -19.9564   14.3901 C   0  0  0  0  0  0  0  0  0  0  0  0
    8.7978  -20.2670   13.0928 C   0  0  0  0  0  0  0  0  0  0  0  0
    9.1915  -21.6019   12.6747 N   0  0  0  0  0  0  0  0  0  0  0  0
    9.3176  -17.4342   18.3762 C   0  0  0  0  0  0  0  0  0  0  0  0
    9.0647  -16.2439   18.0998 O   0  0  0  0  0  0  0  0  0  0  0  0
    9.7617  -17.7897   19.6803 N   0  0  0  0  0  0  0  0  0  0  0  0
    9.8229  -16.8101   20.7792 C   0  0  1  0  0  0  0  0  0  0  0  0
    8.4826  -16.2356   21.0458 C   0  0  0  0  0  0  0  0  0  0  0  0
    8.1983  -14.9342   20.4126 C   0  0  0  0  0  0  0  0  0  0  0  0
    9.0479  -14.1838   19.6109 C   0  0  0  0  0  0  0  0  0  0  0  0
    8.3645  -13.0825   19.2698 N   0  0  0  0  0  0  0  0  0  0  0  0
    7.1319  -13.1033   19.8155 C   0  0  0  0  0  0  0  0  0  0  0  0
    7.0601  -14.2427   20.5050 N   0  0  0  0  0  0  0  0  0  0  0  0
   10.4406  -17.4900   21.9651 C   0  0  0  0  0  0  0  0  0  0  0  0
   10.0611  -18.5916   22.3923 O   0  0  0  0  0  0  0  0  0  0  0  0
   11.5196  -16.8773   22.6694 N   0  0  0  0  0  0  0  0  0  0  0  0
   12.2240  -17.5328   23.7683 C   0  0  1  0  0  0  0  0  0  0  0  0
   13.6997  -17.3714   23.6291 C   0  0  0  0  0  0  0  0  0  0  0  0
   14.1032  -15.9331   23.5831 C   0  0  0  0  0  0  0  0  0  0  0  0
   15.5978  -15.8113   23.3916 C   0  0  0  0  0  0  0  0  0  0  0  0
   16.0537  -15.6268   22.2470 O   0  0  0  0  0  0  0  0  0  0  0  0
   11.7578  -17.0134   25.0680 C   0  0  0  0  0  0  0  0  0  0  0  0
   12.0675  -17.6090   26.2747 O   0  0  0  0  0  0  0  0  0  0  0  0
   16.4781  -15.8988   24.4513 O   0  0  0  0  0  0  0  0  0  0  0  0
   11.0297  -15.9684   25.1045 O   0  0  0  0  0  0  0  0  0  0  0  0
  2  1  1  6
  3  2  1  0
  4  5  1  0
  4  3  1  0
  6  7  1  0
  6  5  1  0
  8  2  1  0
  9  8  2  0
 10  8  1  0
 11 10  1  0
 12 13  1  0
 11 12  1  1
 13 14  2  0
 14 15  1  0
 16 15  1  0
 17 13  1  0
 17 16  2  0
 18 11  1  0
 18 19  2  0
 20 18  1  0
 21 20  1  0
 21 22  1  6
 23 22  1  0
 24 23  1  0
 24 25  2  0
 26 21  1  0
 27 26  1  0
 28 24  1  0
 29 26  2  0
M  END
$$$$
