KHE.pdb
     RDKit          3D

 29 29  0  0  1  0  0  0  0  0999 V2000
   10.4977  -16.5412   19.3895 N   0  0  0  0  0  0  0  0  0  0  0  0
    9.2055  -16.5165   20.0487 C   0  0  1  0  0  0  0  0  0  0  0  0
    8.5429  -17.8785   19.9988 C   0  0  0  0  0  0  0  0  0  0  0  0
    8.6542  -18.3589   18.5622 C   0  0  0  0  0  0  0  0  0  0  0  0
    8.9261  -19.8541   18.4932 C   0  0  0  0  0  0  0  0  0  0  0  0
    8.9942  -20.3165   17.0516 C   0  0  0  0  0  0  0  0  0  0  0  0
    9.3331  -21.7296   17.0534 N   0  0  0  0  0  0  0  0  0  0  0  0
    9.3267  -16.0241   21.4478 C   0  0  0  0  0  0  0  0  0  0  0  0
   10.3892  -16.2052   22.0766 O   0  0  0  0  0  0  0  0  0  0  0  0
    8.2351  -15.3491   22.0618 N   0  0  0  0  0  0  0  0  0  0  0  0
    8.3122  -14.8293   23.4383 C   0  0  1  0  0  0  0  0  0  0  0  0
    7.2603  -13.8120   23.6752 C   0  0  0  0  0  0  0  0  0  0  0  0
    7.1787  -13.2717   25.0453 C   0  0  0  0  0  0  0  0  0  0  0  0
    6.0516  -13.1864   25.8516 C   0  0  0  0  0  0  0  0  0  0  0  0
    6.4554  -12.6278   27.0009 N   0  0  0  0  0  0  0  0  0  0  0  0
    7.7757  -12.3586   26.9573 C   0  0  0  0  0  0  0  0  0  0  0  0
    8.1882  -12.7620   25.7548 N   0  0  0  0  0  0  0  0  0  0  0  0
    8.2486  -15.9999   24.3742 C   0  0  0  0  0  0  0  0  0  0  0  0
    7.6666  -17.0608   24.0991 O   0  0  0  0  0  0  0  0  0  0  0  0
    8.8723  -15.9360   25.6560 N   0  0  0  0  0  0  0  0  0  0  0  0
    9.6738  -17.0273   26.2038 C   0  0  1  0  0  0  0  0  0  0  0  0
   10.7727  -17.4048   25.2696 C   0  0  0  0  0  0  0  0  0  0  0  0
   11.0722  -18.8681   25.3204 C   0  0  0  0  0  0  0  0  0  0  0  0
   12.5656  -19.1012   25.2973 C   0  0  0  0  0  0  0  0  0  0  0  0
   13.3328  -18.1312   25.1466 O   0  0  0  0  0  0  0  0  0  0  0  0
   10.2109  -16.6635   27.5288 C   0  0  0  0  0  0  0  0  0  0  0  0
   10.6115  -15.3833   27.8562 O   0  0  0  0  0  0  0  0  0  0  0  0
   13.1089  -20.3623   25.4386 O   0  0  0  0  0  0  0  0  0  0  0  0
   10.3239  -17.5573   28.4299 O   0  0  0  0  0  0  0  0  0  0  0  0
  2  1  1  1
  3  2  1  0
  4  5  1  0
  4  3  1  0
  6  7  1  0
  6  5  1  0
  8  2  1  0
  9  8  2  0
 10  8  1  0
 11 10  1  0
 12 13  1  0
 11 12  1  1
 13 14  2  0
 14 15  1  0
 16 15  1  0
 17 13  1  0
 17 16  2  0
 18 11  1  0
 18 19  2  0
 20 18  1  0
 21 20  1  0
 21 22  1  6
 23 22  1  0
 24 23  1  0
 24 25  2  0
 26 21  1  0
 27 26  1  0
 28 24  1  0
 29 26  2  0
M  END
$$$$
