KHE.pdb
     RDKit          3D

 29 29  0  0  1  0  0  0  0  0999 V2000
    7.4114  -17.3437   19.8510 N   0  0  0  0  0  0  0  0  0  0  0  0
    8.7830  -16.8717   19.8820 C   0  0  1  0  0  0  0  0  0  0  0  0
    9.1469  -16.1712   18.5884 C   0  0  0  0  0  0  0  0  0  0  0  0
    8.8079  -17.1367   17.4659 C   0  0  0  0  0  0  0  0  0  0  0  0
    7.8848  -16.4973   16.4396 C   0  0  0  0  0  0  0  0  0  0  0  0
    7.5605  -17.4788   15.3314 C   0  0  0  0  0  0  0  0  0  0  0  0
    6.6337  -16.8296   14.4196 N   0  0  0  0  0  0  0  0  0  0  0  0
    9.0212  -15.9932   21.0593 C   0  0  0  0  0  0  0  0  0  0  0  0
   10.1269  -15.4314   21.1972 O   0  0  0  0  0  0  0  0  0  0  0  0
    7.9907  -15.7959   22.0202 N   0  0  0  0  0  0  0  0  0  0  0  0
    8.2081  -15.0139   23.2499 C   0  0  1  0  0  0  0  0  0  0  0  0
    6.9309  -14.4464   23.7441 C   0  0  0  0  0  0  0  0  0  0  0  0
    6.9938  -13.7390   25.0369 C   0  0  0  0  0  0  0  0  0  0  0  0
    6.2577  -14.0104   26.1824 C   0  0  0  0  0  0  0  0  0  0  0  0
    6.6470  -13.1129   27.0984 N   0  0  0  0  0  0  0  0  0  0  0  0
    7.5879  -12.2937   26.5874 C   0  0  0  0  0  0  0  0  0  0  0  0
    7.7783  -12.6997   25.3313 N   0  0  0  0  0  0  0  0  0  0  0  0
    8.9035  -15.9008   24.2398 C   0  0  0  0  0  0  0  0  0  0  0  0
    8.4580  -17.0024   24.5975 O   0  0  0  0  0  0  0  0  0  0  0  0
   10.1404  -15.4991   24.8270 N   0  0  0  0  0  0  0  0  0  0  0  0
   11.0097  -16.4203   25.5544 C   0  0  1  0  0  0  0  0  0  0  0  0
   12.4460  -16.1294   25.2798 C   0  0  0  0  0  0  0  0  0  0  0  0
   13.3546  -17.0869   25.9807 C   0  0  0  0  0  0  0  0  0  0  0  0
   14.7885  -16.8549   25.5618 C   0  0  0  0  0  0  0  0  0  0  0  0
   15.0600  -15.8902   24.8217 O   0  0  0  0  0  0  0  0  0  0  0  0
   10.7291  -16.3665   27.0018 C   0  0  0  0  0  0  0  0  0  0  0  0
    9.9005  -15.4230   27.5763 O   0  0  0  0  0  0  0  0  0  0  0  0
   15.8121  -17.6833   25.9760 O   0  0  0  0  0  0  0  0  0  0  0  0
   11.2689  -17.2185   27.7804 O   0  0  0  0  0  0  0  0  0  0  0  0
  2  1  1  6
  3  2  1  0
  4  5  1  0
  4  3  1  0
  6  7  1  0
  6  5  1  0
  8  2  1  0
  9  8  2  0
 10  8  1  0
 11 10  1  0
 12 13  1  0
 11 12  1  1
 13 14  2  0
 14 15  1  0
 16 15  1  0
 17 13  1  0
 17 16  2  0
 18 11  1  0
 18 19  2  0
 20 18  1  0
 21 20  1  0
 21 22  1  1
 23 22  1  0
 24 23  1  0
 24 25  2  0
 26 21  1  0
 27 26  1  0
 28 24  1  0
 29 26  2  0
M  END
$$$$
