KHE.pdb
     RDKit          3D

 29 29  0  0  1  0  0  0  0  0999 V2000
   10.6463  -16.4787   12.9286 N   0  0  0  0  0  0  0  0  0  0  0  0
   10.3459  -17.0983   14.2056 C   0  0  1  0  0  0  0  0  0  0  0  0
   11.2328  -18.3028   14.4482 C   0  0  0  0  0  0  0  0  0  0  0  0
   10.3157  -19.4312   14.8874 C   0  0  0  0  0  0  0  0  0  0  0  0
   11.0898  -20.7192   15.1245 C   0  0  0  0  0  0  0  0  0  0  0  0
   10.1538  -21.8310   15.5539 C   0  0  0  0  0  0  0  0  0  0  0  0
   10.9652  -22.9825   15.9108 N   0  0  0  0  0  0  0  0  0  0  0  0
   10.4525  -16.1145   15.3172 C   0  0  0  0  0  0  0  0  0  0  0  0
   11.5337  -15.5250   15.5188 O   0  0  0  0  0  0  0  0  0  0  0  0
    9.3249  -15.8488   16.1430 N   0  0  0  0  0  0  0  0  0  0  0  0
    9.3973  -14.9301   17.2926 C   0  0  1  0  0  0  0  0  0  0  0  0
    8.0387  -14.5435   17.7425 C   0  0  0  0  0  0  0  0  0  0  0  0
    7.9752  -13.6091   18.8820 C   0  0  0  0  0  0  0  0  0  0  0  0
    7.5400  -13.8819   20.1719 C   0  0  0  0  0  0  0  0  0  0  0  0
    7.6580  -12.7358   20.8565 N   0  0  0  0  0  0  0  0  0  0  0  0
    8.1439  -11.7596   20.0638 C   0  0  0  0  0  0  0  0  0  0  0  0
    8.3275  -12.3216   18.8682 N   0  0  0  0  0  0  0  0  0  0  0  0
   10.2253  -15.5902   18.3551 C   0  0  0  0  0  0  0  0  0  0  0  0
   10.1877  -16.8083   18.5888 O   0  0  0  0  0  0  0  0  0  0  0  0
   11.1137  -14.8195   19.1630 N   0  0  0  0  0  0  0  0  0  0  0  0
   11.9624  -15.4099   20.1947 C   0  0  1  0  0  0  0  0  0  0  0  0
   13.2830  -14.7208   20.2596 C   0  0  0  0  0  0  0  0  0  0  0  0
   14.1990  -15.3595   21.2529 C   0  0  0  0  0  0  0  0  0  0  0  0
   15.5452  -14.6717   21.2462 C   0  0  0  0  0  0  0  0  0  0  0  0
   16.0480  -14.3033   22.3249 O   0  0  0  0  0  0  0  0  0  0  0  0
   11.2865  -15.3772   21.5055 C   0  0  0  0  0  0  0  0  0  0  0  0
   11.5592  -16.2746   22.5190 O   0  0  0  0  0  0  0  0  0  0  0  0
   16.2384  -14.4376   20.0757 O   0  0  0  0  0  0  0  0  0  0  0  0
   10.4016  -14.4898   21.7362 O   0  0  0  0  0  0  0  0  0  0  0  0
  2  1  1  6
  3  2  1  0
  4  5  1  0
  4  3  1  0
  6  7  1  0
  6  5  1  0
  8  2  1  0
  9  8  2  0
 10  8  1  0
 11 10  1  0
 12 13  1  0
 11 12  1  1
 13 14  2  0
 14 15  1  0
 16 15  1  0
 17 13  1  0
 17 16  2  0
 18 11  1  0
 18 19  2  0
 20 18  1  0
 21 20  1  0
 21 22  1  1
 23 22  1  0
 24 23  1  0
 24 25  2  0
 26 21  1  0
 27 26  1  0
 28 24  1  0
 29 26  2  0
M  END
$$$$
