KHE.pdb
     RDKit          3D

 29 29  0  0  1  0  0  0  0  0999 V2000
    7.7630  -19.0176   19.8484 N   0  0  0  0  0  0  0  0  0  0  0  0
    9.2027  -18.9503   20.0145 C   0  0  1  0  0  0  0  0  0  0  0  0
    9.9098  -19.0421   18.6774 C   0  0  0  0  0  0  0  0  0  0  0  0
    8.8643  -19.4815   17.6669 C   0  0  0  0  0  0  0  0  0  0  0  0
    9.4376  -19.5365   16.2588 C   0  0  0  0  0  0  0  0  0  0  0  0
    8.3739  -19.9639   15.2677 C   0  0  0  0  0  0  0  0  0  0  0  0
    8.9705  -19.9531   13.9427 N   0  0  0  0  0  0  0  0  0  0  0  0
    9.6002  -17.7217   20.7542 C   0  0  0  0  0  0  0  0  0  0  0  0
   10.8096  -17.4759   20.9390 O   0  0  0  0  0  0  0  0  0  0  0  0
    8.6037  -16.8330   21.2455 N   0  0  0  0  0  0  0  0  0  0  0  0
    8.9396  -15.6679   22.0825 C   0  0  1  0  0  0  0  0  0  0  0  0
    7.9723  -14.5664   21.8621 C   0  0  0  0  0  0  0  0  0  0  0  0
    8.0050  -13.9325   20.5307 C   0  0  0  0  0  0  0  0  0  0  0  0
    6.9832  -13.2293   19.9070 C   0  0  0  0  0  0  0  0  0  0  0  0
    7.4659  -12.8444   18.7175 N   0  0  0  0  0  0  0  0  0  0  0  0
    8.7360  -13.2693   18.5630 C   0  0  0  0  0  0  0  0  0  0  0  0
    9.0364  -13.9281   19.6831 N   0  0  0  0  0  0  0  0  0  0  0  0
    9.0173  -16.1338   23.5062 C   0  0  0  0  0  0  0  0  0  0  0  0
    8.0166  -16.3730   24.1999 O   0  0  0  0  0  0  0  0  0  0  0  0
   10.2829  -16.3244   24.1370 N   0  0  0  0  0  0  0  0  0  0  0  0
   10.4382  -17.0253   25.4090 C   0  0  1  0  0  0  0  0  0  0  0  0
   10.6074  -18.4911   25.1945 C   0  0  0  0  0  0  0  0  0  0  0  0
   10.4897  -19.2603   26.4705 C   0  0  0  0  0  0  0  0  0  0  0  0
   10.8177  -20.7177   26.2390 C   0  0  0  0  0  0  0  0  0  0  0  0
   11.0934  -21.1062   25.0878 O   0  0  0  0  0  0  0  0  0  0  0  0
   11.5717  -16.4708   26.1732 C   0  0  0  0  0  0  0  0  0  0  0  0
   11.6904  -16.5918   27.5436 O   0  0  0  0  0  0  0  0  0  0  0  0
   10.8212  -21.6367   27.2690 O   0  0  0  0  0  0  0  0  0  0  0  0
   12.4964  -15.8422   25.5620 O   0  0  0  0  0  0  0  0  0  0  0  0
  2  1  1  6
  3  2  1  0
  4  5  1  0
  4  3  1  0
  6  7  1  0
  6  5  1  0
  8  2  1  0
  9  8  2  0
 10  8  1  0
 11 10  1  0
 12 13  1  0
 11 12  1  1
 13 14  2  0
 14 15  1  0
 16 15  1  0
 17 13  1  0
 17 16  2  0
 18 11  1  0
 18 19  2  0
 20 18  1  0
 21 20  1  0
 21 22  1  6
 23 22  1  0
 24 23  1  0
 24 25  2  0
 26 21  1  0
 27 26  1  0
 28 24  1  0
 29 26  2  0
M  END
$$$$
