KHE.pdb
     RDKit          3D

 29 29  0  0  1  0  0  0  0  0999 V2000
   10.1561  -18.8046   16.9853 N   0  0  0  0  0  0  0  0  0  0  0  0
    9.0862  -18.6422   17.9517 C   0  0  1  0  0  0  0  0  0  0  0  0
    8.4695  -19.9791   18.3106 C   0  0  0  0  0  0  0  0  0  0  0  0
    8.6368  -20.8711   17.0927 C   0  0  0  0  0  0  0  0  0  0  0  0
    7.9078  -22.1951   17.2663 C   0  0  0  0  0  0  0  0  0  0  0  0
    8.0866  -23.0658   16.0389 C   0  0  0  0  0  0  0  0  0  0  0  0
    7.2750  -24.2579   16.2172 N   0  0  0  0  0  0  0  0  0  0  0  0
    9.5633  -17.9229   19.1640 C   0  0  0  0  0  0  0  0  0  0  0  0
   10.7837  -17.8887   19.4218 O   0  0  0  0  0  0  0  0  0  0  0  0
    8.6298  -17.2772   20.0219 N   0  0  0  0  0  0  0  0  0  0  0  0
    9.0460  -16.6066   21.2661 C   0  0  1  0  0  0  0  0  0  0  0  0
    8.1042  -15.5164   21.6155 C   0  0  0  0  0  0  0  0  0  0  0  0
    8.1421  -14.3247   20.7472 C   0  0  0  0  0  0  0  0  0  0  0  0
    8.9747  -14.1016   19.6588 C   0  0  0  0  0  0  0  0  0  0  0  0
    8.6537  -12.8898   19.1847 N   0  0  0  0  0  0  0  0  0  0  0  0
    7.6643  -12.3421   19.9185 C   0  0  0  0  0  0  0  0  0  0  0  0
    7.3737  -13.2391   20.8618 N   0  0  0  0  0  0  0  0  0  0  0  0
    9.1829  -17.6565   22.3286 C   0  0  0  0  0  0  0  0  0  0  0  0
    8.2806  -18.4599   22.6123 O   0  0  0  0  0  0  0  0  0  0  0  0
   10.3917  -17.7746   23.0776 N   0  0  0  0  0  0  0  0  0  0  0  0
   10.5886  -18.7866   24.1122 C   0  0  1  0  0  0  0  0  0  0  0  0
   11.5084  -19.8612   23.6407 C   0  0  0  0  0  0  0  0  0  0  0  0
   12.8533  -19.3240   23.2713 C   0  0  0  0  0  0  0  0  0  0  0  0
   13.7240  -20.4249   22.7100 C   0  0  0  0  0  0  0  0  0  0  0  0
   14.4057  -21.1204   23.4870 O   0  0  0  0  0  0  0  0  0  0  0  0
   11.0926  -18.1695   25.3538 C   0  0  0  0  0  0  0  0  0  0  0  0
   11.2341  -18.8635   26.5391 O   0  0  0  0  0  0  0  0  0  0  0  0
   13.7879  -20.6850   21.3558 O   0  0  0  0  0  0  0  0  0  0  0  0
   11.4156  -16.9369   25.3588 O   0  0  0  0  0  0  0  0  0  0  0  0
  2  1  1  6
  3  2  1  0
  4  5  1  0
  4  3  1  0
  6  7  1  0
  6  5  1  0
  8  2  1  0
  9  8  2  0
 10  8  1  0
 11 10  1  0
 12 13  1  0
 11 12  1  1
 13 14  2  0
 14 15  1  0
 16 15  1  0
 17 13  1  0
 17 16  2  0
 18 11  1  0
 18 19  2  0
 20 18  1  0
 21 20  1  0
 21 22  1  6
 23 22  1  0
 24 23  1  0
 24 25  2  0
 26 21  1  0
 27 26  1  0
 28 24  1  0
 29 26  2  0
M  END
$$$$
