KHE.pdb
     RDKit          3D

 29 29  0  0  1  0  0  0  0  0999 V2000
    7.5454  -15.9523   19.3598 N   0  0  0  0  0  0  0  0  0  0  0  0
    7.9340  -14.8648   20.2380 C   0  0  1  0  0  0  0  0  0  0  0  0
    7.3499  -13.5487   19.7658 C   0  0  0  0  0  0  0  0  0  0  0  0
    6.9837  -13.7401   18.3041 C   0  0  0  0  0  0  0  0  0  0  0  0
    8.2107  -13.6685   17.4075 C   0  0  0  0  0  0  0  0  0  0  0  0
    7.8068  -13.7241   15.9479 C   0  0  0  0  0  0  0  0  0  0  0  0
    9.0207  -13.8082   15.1535 N   0  0  0  0  0  0  0  0  0  0  0  0
    7.5528  -15.1518   21.6477 C   0  0  0  0  0  0  0  0  0  0  0  0
    6.3666  -15.0101   22.0080 O   0  0  0  0  0  0  0  0  0  0  0  0
    8.5384  -15.5868   22.5770 N   0  0  0  0  0  0  0  0  0  0  0  0
    8.1885  -16.3526   23.7861 C   0  0  1  0  0  0  0  0  0  0  0  0
    7.3224  -17.5063   23.4448 C   0  0  0  0  0  0  0  0  0  0  0  0
    6.9702  -18.4041   24.5607 C   0  0  0  0  0  0  0  0  0  0  0  0
    6.4995  -18.0432   25.8161 C   0  0  0  0  0  0  0  0  0  0  0  0
    6.3222  -19.1867   26.4920 N   0  0  0  0  0  0  0  0  0  0  0  0
    6.6570  -20.2449   25.7267 C   0  0  0  0  0  0  0  0  0  0  0  0
    7.0471  -19.7369   24.5568 N   0  0  0  0  0  0  0  0  0  0  0  0
    9.4665  -16.7333   24.4731 C   0  0  0  0  0  0  0  0  0  0  0  0
   10.3884  -17.3417   23.9076 O   0  0  0  0  0  0  0  0  0  0  0  0
    9.6770  -16.4017   25.8448 N   0  0  0  0  0  0  0  0  0  0  0  0
   10.8911  -16.7639   26.5716 C   0  0  1  0  0  0  0  0  0  0  0  0
   10.8861  -16.1819   27.9443 C   0  0  0  0  0  0  0  0  0  0  0  0
   10.1837  -14.8635   27.9904 C   0  0  0  0  0  0  0  0  0  0  0  0
   10.1182  -14.3510   29.4111 C   0  0  0  0  0  0  0  0  0  0  0  0
   10.6273  -15.0245   30.3272 O   0  0  0  0  0  0  0  0  0  0  0  0
   11.0491  -18.2298   26.6218 C   0  0  0  0  0  0  0  0  0  0  0  0
   12.1986  -18.8510   27.0687 O   0  0  0  0  0  0  0  0  0  0  0  0
    9.5085  -13.1534   29.7267 O   0  0  0  0  0  0  0  0  0  0  0  0
   10.0943  -18.9801   26.2358 O   0  0  0  0  0  0  0  0  0  0  0  0
  2  1  1  6
  3  2  1  0
  4  5  1  0
  4  3  1  0
  6  7  1  0
  6  5  1  0
  8  2  1  0
  9  8  2  0
 10  8  1  0
 11 10  1  0
 12 13  1  0
 11 12  1  6
 13 14  2  0
 14 15  1  0
 16 15  1  0
 17 13  1  0
 17 16  2  0
 18 11  1  0
 18 19  2  0
 20 18  1  0
 21 20  1  0
 21 22  1  1
 23 22  1  0
 24 23  1  0
 24 25  2  0
 26 21  1  0
 27 26  1  0
 28 24  1  0
 29 26  2  0
M  END
$$$$
