KHE.pdb
     RDKit          3D

 29 29  0  0  1  0  0  0  0  0999 V2000
    8.6905  -19.0649   18.3349 N   0  0  0  0  0  0  0  0  0  0  0  0
    9.7889  -18.2395   17.8689 C   0  0  1  0  0  0  0  0  0  0  0  0
    9.4651  -17.6077   16.5301 C   0  0  0  0  0  0  0  0  0  0  0  0
    8.3651  -18.4523   15.9104 C   0  0  0  0  0  0  0  0  0  0  0  0
    7.9890  -17.9493   14.5247 C   0  0  0  0  0  0  0  0  0  0  0  0
    6.8780  -18.7949   13.9354 C   0  0  0  0  0  0  0  0  0  0  0  0
    6.6525  -18.3453   12.5721 N   0  0  0  0  0  0  0  0  0  0  0  0
   10.1522  -17.2097   18.8800 C   0  0  0  0  0  0  0  0  0  0  0  0
   11.0789  -16.4090   18.6408 O   0  0  0  0  0  0  0  0  0  0  0  0
    9.4434  -17.1405   20.1117 N   0  0  0  0  0  0  0  0  0  0  0  0
    9.7575  -16.1315   21.1384 C   0  0  1  0  0  0  0  0  0  0  0  0
    8.5475  -15.3547   21.4989 C   0  0  0  0  0  0  0  0  0  0  0  0
    7.9449  -14.5550   20.4160 C   0  0  0  0  0  0  0  0  0  0  0  0
    8.2255  -13.2356   20.0867 C   0  0  0  0  0  0  0  0  0  0  0  0
    7.4388  -12.9349   19.0443 N   0  0  0  0  0  0  0  0  0  0  0  0
    6.6802  -13.9958   18.7031 C   0  0  0  0  0  0  0  0  0  0  0  0
    7.0109  -14.9668   19.5556 N   0  0  0  0  0  0  0  0  0  0  0  0
   10.3935  -16.8402   22.2975 C   0  0  0  0  0  0  0  0  0  0  0  0
   10.1707  -18.0292   22.5740 O   0  0  0  0  0  0  0  0  0  0  0  0
   11.3055  -16.1533   23.1533 N   0  0  0  0  0  0  0  0  0  0  0  0
   12.4303  -16.8151   23.8092 C   0  0  1  0  0  0  0  0  0  0  0  0
   13.7260  -16.2072   23.3912 C   0  0  0  0  0  0  0  0  0  0  0  0
   14.8949  -16.8954   24.0186 C   0  0  0  0  0  0  0  0  0  0  0  0
   16.1891  -16.2809   23.5361 C   0  0  0  0  0  0  0  0  0  0  0  0
   17.1394  -16.1553   24.3318 O   0  0  0  0  0  0  0  0  0  0  0  0
   12.2766  -16.7704   25.2757 C   0  0  0  0  0  0  0  0  0  0  0  0
   11.2729  -16.0645   25.9091 O   0  0  0  0  0  0  0  0  0  0  0  0
   16.3515  -15.8521   22.2341 O   0  0  0  0  0  0  0  0  0  0  0  0
   13.0997  -17.4024   26.0151 O   0  0  0  0  0  0  0  0  0  0  0  0
  2  1  1  1
  3  2  1  0
  4  5  1  0
  4  3  1  0
  6  7  1  0
  6  5  1  0
  8  2  1  0
  9  8  2  0
 10  8  1  0
 11 10  1  0
 12 13  1  0
 11 12  1  1
 13 14  2  0
 14 15  1  0
 16 15  1  0
 17 13  1  0
 17 16  2  0
 18 11  1  0
 18 19  2  0
 20 18  1  0
 21 20  1  0
 21 22  1  1
 23 22  1  0
 24 23  1  0
 24 25  2  0
 26 21  1  0
 27 26  1  0
 28 24  1  0
 29 26  2  0
M  END
$$$$
