KHE.pdb
     RDKit          3D

 29 29  0  0  1  0  0  0  0  0999 V2000
    7.8629  -12.7723   17.3244 N   0  0  0  0  0  0  0  0  0  0  0  0
    7.9313  -14.1510   17.7712 C   0  0  1  0  0  0  0  0  0  0  0  0
    8.8669  -14.9608   16.8964 C   0  0  0  0  0  0  0  0  0  0  0  0
    8.1421  -15.1815   15.5799 C   0  0  0  0  0  0  0  0  0  0  0  0
    8.8784  -16.1787   14.6979 C   0  0  0  0  0  0  0  0  0  0  0  0
    8.1034  -16.4326   13.4206 C   0  0  0  0  0  0  0  0  0  0  0  0
    8.9091  -17.2984   12.5762 N   0  0  0  0  0  0  0  0  0  0  0  0
    8.3245  -14.2312   19.2042 C   0  0  0  0  0  0  0  0  0  0  0  0
    9.3188  -13.5947   19.6086 O   0  0  0  0  0  0  0  0  0  0  0  0
    7.5674  -15.0295   20.1064 N   0  0  0  0  0  0  0  0  0  0  0  0
    7.8624  -15.0714   21.5493 C   0  0  1  0  0  0  0  0  0  0  0  0
    6.6396  -15.3854   22.3264 C   0  0  0  0  0  0  0  0  0  0  0  0
    6.8315  -15.6155   23.7707 C   0  0  0  0  0  0  0  0  0  0  0  0
    6.7908  -16.8295   24.4431 C   0  0  0  0  0  0  0  0  0  0  0  0
    7.0160  -16.5496   25.7342 N   0  0  0  0  0  0  0  0  0  0  0  0
    7.1956  -15.2246   25.9063 C   0  0  0  0  0  0  0  0  0  0  0  0
    7.0780  -14.6826   24.6933 N   0  0  0  0  0  0  0  0  0  0  0  0
    8.9838  -16.0452   21.7595 C   0  0  0  0  0  0  0  0  0  0  0  0
    9.0736  -17.1223   21.1497 O   0  0  0  0  0  0  0  0  0  0  0  0
   10.0210  -15.7627   22.6978 N   0  0  0  0  0  0  0  0  0  0  0  0
   11.0689  -16.7225   23.0354 C   0  0  1  0  0  0  0  0  0  0  0  0
   12.4214  -16.1492   22.7802 C   0  0  0  0  0  0  0  0  0  0  0  0
   13.5117  -17.1022   23.1500 C   0  0  0  0  0  0  0  0  0  0  0  0
   14.8609  -16.5260   22.7854 C   0  0  0  0  0  0  0  0  0  0  0  0
   15.2657  -15.5026   23.3693 O   0  0  0  0  0  0  0  0  0  0  0  0
   10.9394  -17.1618   24.4378 C   0  0  0  0  0  0  0  0  0  0  0  0
   11.5274  -18.3115   24.9269 O   0  0  0  0  0  0  0  0  0  0  0  0
   15.6627  -17.1014   21.8203 O   0  0  0  0  0  0  0  0  0  0  0  0
   10.2535  -16.4655   25.2554 O   0  0  0  0  0  0  0  0  0  0  0  0
  2  1  1  6
  3  2  1  0
  4  5  1  0
  4  3  1  0
  6  7  1  0
  6  5  1  0
  8  2  1  0
  9  8  2  0
 10  8  1  0
 11 10  1  0
 12 13  1  0
 11 12  1  1
 13 14  2  0
 14 15  1  0
 16 15  1  0
 17 13  1  0
 17 16  2  0
 18 11  1  0
 18 19  2  0
 20 18  1  0
 21 20  1  0
 21 22  1  1
 23 22  1  0
 24 23  1  0
 24 25  2  0
 26 21  1  0
 27 26  1  0
 28 24  1  0
 29 26  2  0
M  END
$$$$
