KHE.pdb
     RDKit          3D

 29 29  0  0  1  0  0  0  0  0999 V2000
   13.4202  -15.6604   14.0768 N   0  0  0  0  0  0  0  0  0  0  0  0
   12.5735  -16.4363   14.9634 C   0  0  1  0  0  0  0  0  0  0  0  0
   13.2586  -17.7208   15.3841 C   0  0  0  0  0  0  0  0  0  0  0  0
   12.8604  -18.7746   14.3652 C   0  0  0  0  0  0  0  0  0  0  0  0
   13.4523  -20.1336   14.7076 C   0  0  0  0  0  0  0  0  0  0  0  0
   13.0590  -21.1626   13.6669 C   0  0  0  0  0  0  0  0  0  0  0  0
   13.2004  -20.5476   12.3579 N   0  0  0  0  0  0  0  0  0  0  0  0
   12.1558  -15.6332   16.1446 C   0  0  0  0  0  0  0  0  0  0  0  0
   13.0111  -14.9952   16.7916 O   0  0  0  0  0  0  0  0  0  0  0  0
   10.7870  -15.5942   16.5307 N   0  0  0  0  0  0  0  0  0  0  0  0
   10.3261  -14.8228   17.6984 C   0  0  1  0  0  0  0  0  0  0  0  0
    8.8641  -14.5874   17.6285 C   0  0  0  0  0  0  0  0  0  0  0  0
    8.2611  -13.9089   18.7911 C   0  0  0  0  0  0  0  0  0  0  0  0
    8.3324  -12.5593   19.1093 C   0  0  0  0  0  0  0  0  0  0  0  0
    7.6421  -12.4066   20.2478 N   0  0  0  0  0  0  0  0  0  0  0  0
    7.1422  -13.5889   20.6596 C   0  0  0  0  0  0  0  0  0  0  0  0
    7.5353  -14.4842   19.7525 N   0  0  0  0  0  0  0  0  0  0  0  0
   10.7667  -15.5527   18.9326 C   0  0  0  0  0  0  0  0  0  0  0  0
   10.7796  -16.7902   19.0236 O   0  0  0  0  0  0  0  0  0  0  0  0
   11.1996  -14.8304   20.0845 N   0  0  0  0  0  0  0  0  0  0  0  0
   11.4894  -15.4748   21.3628 C   0  0  1  0  0  0  0  0  0  0  0  0
   12.8510  -15.1103   21.8487 C   0  0  0  0  0  0  0  0  0  0  0  0
   13.8990  -16.0376   21.3239 C   0  0  0  0  0  0  0  0  0  0  0  0
   15.2635  -15.6324   21.8330 C   0  0  0  0  0  0  0  0  0  0  0  0
   15.7536  -14.5465   21.4686 O   0  0  0  0  0  0  0  0  0  0  0  0
   10.4628  -15.1286   22.3641 C   0  0  0  0  0  0  0  0  0  0  0  0
    9.4574  -14.2116   22.1296 O   0  0  0  0  0  0  0  0  0  0  0  0
   15.9876  -16.4326   22.6938 O   0  0  0  0  0  0  0  0  0  0  0  0
   10.4865  -15.6863   23.5096 O   0  0  0  0  0  0  0  0  0  0  0  0
  2  1  1  6
  3  2  1  0
  4  5  1  0
  4  3  1  0
  6  7  1  0
  6  5  1  0
  8  2  1  0
  9  8  2  0
 10  8  1  0
 11 10  1  0
 12 13  1  0
 11 12  1  1
 13 14  2  0
 14 15  1  0
 16 15  1  0
 17 13  1  0
 17 16  2  0
 18 11  1  0
 18 19  2  0
 20 18  1  0
 21 20  1  0
 21 22  1  1
 23 22  1  0
 24 23  1  0
 24 25  2  0
 26 21  1  0
 27 26  1  0
 28 24  1  0
 29 26  2  0
M  END
$$$$
