KHE.pdb
     RDKit          3D

 29 29  0  0  1  0  0  0  0  0999 V2000
   14.8503  -17.5895   11.3255 N   0  0  0  0  0  0  0  0  0  0  0  0
   16.1178  -18.1995   11.6812 C   0  0  1  0  0  0  0  0  0  0  0  0
   17.2554  -17.2070   11.5497 C   0  0  0  0  0  0  0  0  0  0  0  0
   17.2591  -16.7459   10.1024 C   0  0  0  0  0  0  0  0  0  0  0  0
   18.0333  -17.7067    9.2126 C   0  0  0  0  0  0  0  0  0  0  0  0
   18.4490  -17.0224    7.9259 C   0  0  0  0  0  0  0  0  0  0  0  0
   19.6525  -16.2553    8.1991 N   0  0  0  0  0  0  0  0  0  0  0  0
   16.0657  -18.7856   13.0481 C   0  0  0  0  0  0  0  0  0  0  0  0
   15.3341  -18.2665   13.9155 O   0  0  0  0  0  0  0  0  0  0  0  0
   16.8466  -19.9332   13.3606 N   0  0  0  0  0  0  0  0  0  0  0  0
   16.7731  -20.5941   14.6754 C   0  0  1  0  0  0  0  0  0  0  0  0
   16.5626  -22.0532   14.5187 C   0  0  0  0  0  0  0  0  0  0  0  0
   15.2194  -22.4696   14.0739 C   0  0  0  0  0  0  0  0  0  0  0  0
   14.7067  -22.4224   12.7844 C   0  0  0  0  0  0  0  0  0  0  0  0
   13.4558  -22.8972   12.8618 N   0  0  0  0  0  0  0  0  0  0  0  0
   13.1577  -23.2392   14.1313 C   0  0  0  0  0  0  0  0  0  0  0  0
   14.2508  -22.9679   14.8457 N   0  0  0  0  0  0  0  0  0  0  0  0
   18.0145  -20.2367   15.4378 C   0  0  0  0  0  0  0  0  0  0  0  0
   19.1512  -20.2676   14.9409 O   0  0  0  0  0  0  0  0  0  0  0  0
   17.9337  -19.8368   16.8051 N   0  0  0  0  0  0  0  0  0  0  0  0
   19.0799  -19.3232   17.5508 C   0  0  1  0  0  0  0  0  0  0  0  0
   18.6377  -18.5747   18.7620 C   0  0  0  0  0  0  0  0  0  0  0  0
   19.7837  -17.9237   19.4666 C   0  0  0  0  0  0  0  0  0  0  0  0
   19.3233  -17.3177   20.7728 C   0  0  0  0  0  0  0  0  0  0  0  0
   19.5685  -16.1195   21.0100 O   0  0  0  0  0  0  0  0  0  0  0  0
   19.9967  -20.4200   17.9152 C   0  0  0  0  0  0  0  0  0  0  0  0
   21.3703  -20.3223   17.8122 O   0  0  0  0  0  0  0  0  0  0  0  0
   18.6360  -18.0547   21.7161 O   0  0  0  0  0  0  0  0  0  0  0  0
   19.5220  -21.5218   18.3445 O   0  0  0  0  0  0  0  0  0  0  0  0
  2  1  1  1
  3  2  1  0
  4  5  1  0
  4  3  1  0
  6  7  1  0
  6  5  1  0
  8  2  1  0
  9  8  2  0
 10  8  1  0
 11 10  1  0
 12 13  1  0
 11 12  1  6
 13 14  2  0
 14 15  1  0
 16 15  1  0
 17 13  1  0
 17 16  2  0
 18 11  1  0
 18 19  2  0
 20 18  1  0
 21 20  1  0
 21 22  1  1
 23 22  1  0
 24 23  1  0
 24 25  2  0
 26 21  1  0
 27 26  1  0
 28 24  1  0
 29 26  2  0
M  END
$$$$
