KHE.pdb
     RDKit          3D

 29 29  0  0  1  0  0  0  0  0999 V2000
    7.3534  -15.3063   19.5880 N   0  0  0  0  0  0  0  0  0  0  0  0
    8.3313  -14.2412   19.7078 C   0  0  1  0  0  0  0  0  0  0  0  0
    7.8848  -13.0050   18.9537 C   0  0  0  0  0  0  0  0  0  0  0  0
    7.6130  -13.4464   17.5260 C   0  0  0  0  0  0  0  0  0  0  0  0
    8.8743  -13.3969   16.6769 C   0  0  0  0  0  0  0  0  0  0  0  0
    8.6030  -13.9415   15.2890 C   0  0  0  0  0  0  0  0  0  0  0  0
    9.8413  -13.8674   14.5322 N   0  0  0  0  0  0  0  0  0  0  0  0
    8.6149  -13.9318   21.1356 C   0  0  0  0  0  0  0  0  0  0  0  0
    9.4325  -13.0339   21.4226 O   0  0  0  0  0  0  0  0  0  0  0  0
    7.9540  -14.6572   22.1658 N   0  0  0  0  0  0  0  0  0  0  0  0
    8.2267  -14.4117   23.5928 C   0  0  1  0  0  0  0  0  0  0  0  0
    7.0707  -13.7484   24.2419 C   0  0  0  0  0  0  0  0  0  0  0  0
    7.1864  -13.5212   25.6947 C   0  0  0  0  0  0  0  0  0  0  0  0
    6.3401  -13.9897   26.6907 C   0  0  0  0  0  0  0  0  0  0  0  0
    6.8361  -13.5322   27.8486 N   0  0  0  0  0  0  0  0  0  0  0  0
    7.9482  -12.8020   27.6307 C   0  0  0  0  0  0  0  0  0  0  0  0
    8.1364  -12.8137   26.3104 N   0  0  0  0  0  0  0  0  0  0  0  0
    8.6072  -15.7210   24.2183 C   0  0  0  0  0  0  0  0  0  0  0  0
    7.8273  -16.6814   24.3151 O   0  0  0  0  0  0  0  0  0  0  0  0
    9.9193  -15.9179   24.7431 N   0  0  0  0  0  0  0  0  0  0  0  0
   10.3423  -17.1645   25.3758 C   0  0  1  0  0  0  0  0  0  0  0  0
   11.8023  -17.3948   25.1801 C   0  0  0  0  0  0  0  0  0  0  0  0
   12.2684  -18.6405   25.8619 C   0  0  0  0  0  0  0  0  0  0  0  0
   13.7459  -18.8511   25.6216 C   0  0  0  0  0  0  0  0  0  0  0  0
   14.5528  -17.9666   25.9664 O   0  0  0  0  0  0  0  0  0  0  0  0
    9.9971  -17.1628   26.8101 C   0  0  0  0  0  0  0  0  0  0  0  0
    9.8491  -16.0065   27.5503 O   0  0  0  0  0  0  0  0  0  0  0  0
   14.2317  -19.9990   25.0287 O   0  0  0  0  0  0  0  0  0  0  0  0
    9.8263  -18.2693   27.4185 O   0  0  0  0  0  0  0  0  0  0  0  0
  2  1  1  1
  3  2  1  0
  4  5  1  0
  4  3  1  0
  6  7  1  0
  6  5  1  0
  8  2  1  0
  9  8  2  0
 10  8  1  0
 11 10  1  0
 12 13  1  0
 11 12  1  1
 13 14  2  0
 14 15  1  0
 16 15  1  0
 17 13  1  0
 17 16  2  0
 18 11  1  0
 18 19  2  0
 20 18  1  0
 21 20  1  0
 21 22  1  1
 23 22  1  0
 24 23  1  0
 24 25  2  0
 26 21  1  0
 27 26  1  0
 28 24  1  0
 29 26  2  0
M  END
$$$$
