KHE.pdb
     RDKit          3D

 29 29  0  0  1  0  0  0  0  0999 V2000
    8.8851  -16.9993   17.6338 N   0  0  0  0  0  0  0  0  0  0  0  0
    8.7722  -17.8047   18.8353 C   0  0  1  0  0  0  0  0  0  0  0  0
    9.6422  -19.0422   18.7448 C   0  0  0  0  0  0  0  0  0  0  0  0
    8.6967  -20.2285   18.6692 C   0  0  0  0  0  0  0  0  0  0  0  0
    8.0320  -20.3263   17.3043 C   0  0  0  0  0  0  0  0  0  0  0  0
    7.2002  -21.5893   17.2070 C   0  0  0  0  0  0  0  0  0  0  0  0
    6.5696  -21.6066   15.8979 N   0  0  0  0  0  0  0  0  0  0  0  0
    9.0926  -17.0050   20.0488 C   0  0  0  0  0  0  0  0  0  0  0  0
   10.2824  -16.7470   20.3224 O   0  0  0  0  0  0  0  0  0  0  0  0
    8.0447  -16.5373   20.8900 N   0  0  0  0  0  0  0  0  0  0  0  0
    8.3060  -15.6862   22.0640 C   0  0  1  0  0  0  0  0  0  0  0  0
    7.0369  -15.1755   22.6353 C   0  0  0  0  0  0  0  0  0  0  0  0
    7.1590  -14.3616   23.8594 C   0  0  0  0  0  0  0  0  0  0  0  0
    8.3084  -14.1217   24.6004 C   0  0  0  0  0  0  0  0  0  0  0  0
    7.9381  -13.3362   25.6211 N   0  0  0  0  0  0  0  0  0  0  0  0
    6.6177  -13.0714   25.5588 C   0  0  0  0  0  0  0  0  0  0  0  0
    6.1711  -13.7088   24.4757 N   0  0  0  0  0  0  0  0  0  0  0  0
    9.1325  -16.4809   23.0311 C   0  0  0  0  0  0  0  0  0  0  0  0
    8.8848  -17.6595   23.3303 O   0  0  0  0  0  0  0  0  0  0  0  0
   10.2686  -15.8942   23.6643 N   0  0  0  0  0  0  0  0  0  0  0  0
   11.1821  -16.6518   24.5157 C   0  0  1  0  0  0  0  0  0  0  0  0
   12.5956  -16.2367   24.2857 C   0  0  0  0  0  0  0  0  0  0  0  0
   13.5589  -17.0809   25.0558 C   0  0  0  0  0  0  0  0  0  0  0  0
   14.9733  -16.5900   24.8468 C   0  0  0  0  0  0  0  0  0  0  0  0
   15.1670  -15.5439   24.1986 O   0  0  0  0  0  0  0  0  0  0  0  0
   10.8139  -16.5018   25.9363 C   0  0  0  0  0  0  0  0  0  0  0  0
   11.2023  -17.3941   26.9159 O   0  0  0  0  0  0  0  0  0  0  0  0
   16.0630  -17.2685   25.3544 O   0  0  0  0  0  0  0  0  0  0  0  0
   10.1001  -15.5112   26.3011 O   0  0  0  0  0  0  0  0  0  0  0  0
  2  1  1  6
  3  2  1  0
  4  5  1  0
  4  3  1  0
  6  7  1  0
  6  5  1  0
  8  2  1  0
  9  8  2  0
 10  8  1  0
 11 10  1  0
 12 13  1  0
 11 12  1  1
 13 14  2  0
 14 15  1  0
 16 15  1  0
 17 13  1  0
 17 16  2  0
 18 11  1  0
 18 19  2  0
 20 18  1  0
 21 20  1  0
 21 22  1  1
 23 22  1  0
 24 23  1  0
 24 25  2  0
 26 21  1  0
 27 26  1  0
 28 24  1  0
 29 26  2  0
M  END
$$$$
