KHE.pdb
     RDKit          3D

 29 29  0  0  1  0  0  0  0  0999 V2000
   13.2884  -20.7759   14.0211 N   0  0  0  0  0  0  0  0  0  0  0  0
   13.0528  -21.3679   15.3245 C   0  0  1  0  0  0  0  0  0  0  0  0
   14.2191  -22.2391   15.7455 C   0  0  0  0  0  0  0  0  0  0  0  0
   14.4199  -23.2556   14.6348 C   0  0  0  0  0  0  0  0  0  0  0  0
   13.6423  -24.5355   14.9024 C   0  0  0  0  0  0  0  0  0  0  0  0
   13.9888  -25.5933   13.8740 C   0  0  0  0  0  0  0  0  0  0  0  0
   13.2513  -26.7992   14.2107 N   0  0  0  0  0  0  0  0  0  0  0  0
   12.7619  -20.3229   16.3434 C   0  0  0  0  0  0  0  0  0  0  0  0
   13.5197  -19.3374   16.4513 O   0  0  0  0  0  0  0  0  0  0  0  0
   11.6236  -20.4493   17.1876 N   0  0  0  0  0  0  0  0  0  0  0  0
   11.2786  -19.4283   18.1922 C   0  0  1  0  0  0  0  0  0  0  0  0
    9.8149  -19.3937   18.4246 C   0  0  0  0  0  0  0  0  0  0  0  0
    9.0082  -18.7391   17.3775 C   0  0  0  0  0  0  0  0  0  0  0  0
    9.4714  -18.0507   16.2643 C   0  0  0  0  0  0  0  0  0  0  0  0
    8.3829  -17.6310   15.6046 N   0  0  0  0  0  0  0  0  0  0  0  0
    7.2625  -18.0200   16.2455 C   0  0  0  0  0  0  0  0  0  0  0  0
    7.6752  -18.6927   17.3207 N   0  0  0  0  0  0  0  0  0  0  0  0
   12.0842  -19.7089   19.4260 C   0  0  0  0  0  0  0  0  0  0  0  0
   12.2157  -20.8441   19.9096 O   0  0  0  0  0  0  0  0  0  0  0  0
   12.7491  -18.6494   20.1124 N   0  0  0  0  0  0  0  0  0  0  0  0
   13.6432  -18.8754   21.2450 C   0  0  1  0  0  0  0  0  0  0  0  0
   14.6738  -17.8017   21.3352 C   0  0  0  0  0  0  0  0  0  0  0  0
   15.5880  -18.0003   22.5007 C   0  0  0  0  0  0  0  0  0  0  0  0
   16.5740  -16.8585   22.5973 C   0  0  0  0  0  0  0  0  0  0  0  0
   16.1494  -15.6890   22.6617 O   0  0  0  0  0  0  0  0  0  0  0  0
   12.8760  -18.9755   22.5011 C   0  0  0  0  0  0  0  0  0  0  0  0
   13.3210  -19.6765   23.6045 O   0  0  0  0  0  0  0  0  0  0  0  0
   17.9375  -17.0723   22.6163 O   0  0  0  0  0  0  0  0  0  0  0  0
   11.7434  -18.3993   22.5954 O   0  0  0  0  0  0  0  0  0  0  0  0
  2  1  1  6
  3  2  1  0
  4  5  1  0
  4  3  1  0
  6  7  1  0
  6  5  1  0
  8  2  1  0
  9  8  2  0
 10  8  1  0
 11 10  1  0
 12 13  1  0
 11 12  1  1
 13 14  2  0
 14 15  1  0
 16 15  1  0
 17 13  1  0
 17 16  2  0
 18 11  1  0
 18 19  2  0
 20 18  1  0
 21 20  1  0
 21 22  1  1
 23 22  1  0
 24 23  1  0
 24 25  2  0
 26 21  1  0
 27 26  1  0
 28 24  1  0
 29 26  2  0
M  END
$$$$
