KHE.pdb
     RDKit          3D

 29 29  0  0  1  0  0  0  0  0999 V2000
    7.3819  -17.0346   20.2510 N   0  0  0  0  0  0  0  0  0  0  0  0
    8.7961  -16.9547   20.5653 C   0  0  1  0  0  0  0  0  0  0  0  0
    9.5798  -16.3767   19.4043 C   0  0  0  0  0  0  0  0  0  0  0  0
    9.0797  -17.0805   18.1546 C   0  0  0  0  0  0  0  0  0  0  0  0
    9.8134  -18.3927   17.9216 C   0  0  0  0  0  0  0  0  0  0  0  0
    9.3725  -19.0241   16.6164 C   0  0  0  0  0  0  0  0  0  0  0  0
   10.3680  -18.7021   15.6080 N   0  0  0  0  0  0  0  0  0  0  0  0
    9.0248  -16.1774   21.8136 C   0  0  0  0  0  0  0  0  0  0  0  0
   10.1910  -15.9432   22.1906 O   0  0  0  0  0  0  0  0  0  0  0  0
    7.9168  -15.7037   22.5701 N   0  0  0  0  0  0  0  0  0  0  0  0
    8.0897  -15.0082   23.8575 C   0  0  1  0  0  0  0  0  0  0  0  0
    6.7995  -14.4536   24.3322 C   0  0  0  0  0  0  0  0  0  0  0  0
    6.8621  -13.6129   25.5425 C   0  0  0  0  0  0  0  0  0  0  0  0
    7.9721  -13.3632   26.3383 C   0  0  0  0  0  0  0  0  0  0  0  0
    7.5537  -12.5524   27.3200 N   0  0  0  0  0  0  0  0  0  0  0  0
    6.2404  -12.2811   27.1814 C   0  0  0  0  0  0  0  0  0  0  0  0
    5.8475  -12.9403   26.0905 N   0  0  0  0  0  0  0  0  0  0  0  0
    8.7280  -15.9699   24.8155 C   0  0  0  0  0  0  0  0  0  0  0  0
    8.2811  -17.1058   25.0392 O   0  0  0  0  0  0  0  0  0  0  0  0
    9.9084  -15.6041   25.5289 N   0  0  0  0  0  0  0  0  0  0  0  0
   10.6215  -16.5261   26.4092 C   0  0  1  0  0  0  0  0  0  0  0  0
   11.9376  -16.9127   25.8250 C   0  0  0  0  0  0  0  0  0  0  0  0
   12.8757  -15.7521   25.7426 C   0  0  0  0  0  0  0  0  0  0  0  0
   14.1156  -16.1312   24.9653 C   0  0  0  0  0  0  0  0  0  0  0  0
   14.4216  -15.4798   23.9483 O   0  0  0  0  0  0  0  0  0  0  0  0
   10.7937  -15.9361   27.7503 C   0  0  0  0  0  0  0  0  0  0  0  0
   11.2198  -16.6609   28.8457 O   0  0  0  0  0  0  0  0  0  0  0  0
   14.9236  -17.1824   25.3490 O   0  0  0  0  0  0  0  0  0  0  0  0
   10.5395  -14.7009   27.9327 O   0  0  0  0  0  0  0  0  0  0  0  0
  2  1  1  6
  3  2  1  0
  4  5  1  0
  4  3  1  0
  6  7  1  0
  6  5  1  0
  8  2  1  0
  9  8  2  0
 10  8  1  0
 11 10  1  0
 12 13  1  0
 11 12  1  1
 13 14  2  0
 14 15  1  0
 16 15  1  0
 17 13  1  0
 17 16  2  0
 18 11  1  0
 18 19  2  0
 20 18  1  0
 21 20  1  0
 21 22  1  6
 23 22  1  0
 24 23  1  0
 24 25  2  0
 26 21  1  0
 27 26  1  0
 28 24  1  0
 29 26  2  0
M  END
$$$$
