KHE.pdb
     RDKit          3D

 29 29  0  0  1  0  0  0  0  0999 V2000
    9.8240  -19.3980   18.4014 N   0  0  0  0  0  0  0  0  0  0  0  0
   10.5745  -18.2758   17.8701 C   0  0  1  0  0  0  0  0  0  0  0  0
    9.9208  -17.7281   16.6174 C   0  0  0  0  0  0  0  0  0  0  0  0
    9.5651  -18.9287   15.7575 C   0  0  0  0  0  0  0  0  0  0  0  0
    8.9691  -18.5031   14.4241 C   0  0  0  0  0  0  0  0  0  0  0  0
    8.6060  -19.7166   13.5922 C   0  0  0  0  0  0  0  0  0  0  0  0
    8.1164  -19.2450   12.3078 N   0  0  0  0  0  0  0  0  0  0  0  0
   10.7505  -17.2138   18.8976 C   0  0  0  0  0  0  0  0  0  0  0  0
   11.4738  -16.2277   18.6493 O   0  0  0  0  0  0  0  0  0  0  0  0
   10.0947  -17.3247   20.1553 N   0  0  0  0  0  0  0  0  0  0  0  0
   10.2866  -16.3319   21.2270 C   0  0  1  0  0  0  0  0  0  0  0  0
    8.9833  -15.7906   21.6810 C   0  0  0  0  0  0  0  0  0  0  0  0
    8.4026  -14.7188   20.8506 C   0  0  0  0  0  0  0  0  0  0  0  0
    8.9852  -14.0899   19.7584 C   0  0  0  0  0  0  0  0  0  0  0  0
    8.0938  -13.1866   19.3277 N   0  0  0  0  0  0  0  0  0  0  0  0
    6.9837  -13.2162   20.0922 C   0  0  0  0  0  0  0  0  0  0  0  0
    7.2013  -14.1589   21.0103 N   0  0  0  0  0  0  0  0  0  0  0  0
   11.0880  -16.9820   22.3156 C   0  0  0  0  0  0  0  0  0  0  0  0
   10.8842  -18.1400   22.7123 O   0  0  0  0  0  0  0  0  0  0  0  0
   12.1466  -16.2721   22.9571 N   0  0  0  0  0  0  0  0  0  0  0  0
   13.2175  -16.9388   23.6932 C   0  0  1  0  0  0  0  0  0  0  0  0
   14.5095  -16.2122   23.5325 C   0  0  0  0  0  0  0  0  0  0  0  0
   15.6261  -16.8891   24.2596 C   0  0  0  0  0  0  0  0  0  0  0  0
   16.9092  -16.1056   24.1010 C   0  0  0  0  0  0  0  0  0  0  0  0
   17.9540  -16.5316   24.6293 O   0  0  0  0  0  0  0  0  0  0  0  0
   12.8629  -17.0734   25.1188 C   0  0  0  0  0  0  0  0  0  0  0  0
   13.4439  -18.0039   25.9574 O   0  0  0  0  0  0  0  0  0  0  0  0
   16.9596  -14.9264   23.3853 O   0  0  0  0  0  0  0  0  0  0  0  0
   11.9776  -16.3080   25.6229 O   0  0  0  0  0  0  0  0  0  0  0  0
  2  1  1  1
  3  2  1  0
  4  5  1  0
  4  3  1  0
  6  7  1  0
  6  5  1  0
  8  2  1  0
  9  8  2  0
 10  8  1  0
 11 10  1  0
 12 13  1  0
 11 12  1  1
 13 14  2  0
 14 15  1  0
 16 15  1  0
 17 13  1  0
 17 16  2  0
 18 11  1  0
 18 19  2  0
 20 18  1  0
 21 20  1  0
 21 22  1  1
 23 22  1  0
 24 23  1  0
 24 25  2  0
 26 21  1  0
 27 26  1  0
 28 24  1  0
 29 26  2  0
M  END
$$$$
