CQG.pdb
     RDKit          3D

 20 19  0  0  1  0  0  0  0  0999 V2000
   24.8709  -11.6156  -17.2721 N   0  0  0  0  0  0  0  0  0  0  0  0
   24.8067  -10.8135  -16.0657 C   0  0  1  0  0  0  0  0  0  0  0  0
   26.1277  -10.1209  -15.7993 C   0  0  0  0  0  0  0  0  0  0  0  0
   27.3492  -11.3083  -15.1859 S   0  0  0  0  0  0  0  0  0  0  0  0
   23.7317   -9.7706  -16.2272 C   0  0  0  0  0  0  0  0  0  0  0  0
   23.5925   -9.2491  -17.3494 O   0  0  0  0  0  0  0  0  0  0  0  0
   18.2091  -10.5203  -14.4162 N   0  0  0  0  0  0  0  0  0  0  0  0
   18.9376  -10.8405  -15.5884 C   0  0  0  0  0  0  0  0  0  0  0  0
   18.5077  -11.7490  -16.3350 O   0  0  0  0  0  0  0  0  0  0  0  0
   20.1652  -10.1103  -15.8996 C   0  0  0  0  0  0  0  0  0  0  0  0
   20.5686   -9.1271  -14.8393 C   0  0  0  0  0  0  0  0  0  0  0  0
   21.8352   -8.4675  -15.2709 C   0  0  2  0  0  0  0  0  0  0  0  0
   22.9226   -9.4124  -15.1327 N   0  0  0  0  0  0  0  0  0  0  0  0
   22.1765   -7.2401  -14.4916 C   0  0  0  0  0  0  0  0  0  0  0  0
   22.7240   -7.2744  -13.3608 O   0  0  0  0  0  0  0  0  0  0  0  0
   21.8929   -5.9288  -15.0008 N   0  0  0  0  0  0  0  0  0  0  0  0
   22.1176   -4.7369  -14.2485 C   0  0  0  0  0  0  0  0  0  0  0  0
   21.7394   -3.5001  -14.9668 C   0  0  0  0  0  0  0  0  0  0  0  0
   21.3832   -3.6324  -16.1672 O   0  0  0  0  0  0  0  0  0  0  0  0
   21.7490   -2.2434  -14.4281 O   0  0  0  0  0  0  0  0  0  0  0  0
  2  3  1  0
  2  1  1  6
  4  3  1  0
  5  6  2  0
  5  2  1  0
  7  8  1  0
  8 10  1  0
  9  8  2  0
 10 11  1  0
 12 11  1  1
 12 13  1  0
 13  5  1  0
 14 16  1  0
 14 12  1  0
 15 14  2  0
 17 16  1  0
 18 17  1  0
 19 18  2  0
 20 18  1  0
M  END
$$$$
