CQG.pdb
     RDKit          3D

 20 19  0  0  1  0  0  0  0  0999 V2000
   28.3519  -20.7342  -16.4370 N   0  0  0  0  0  0  0  0  0  0  0  0
   27.9147  -19.8003  -15.4173 C   0  0  1  0  0  0  0  0  0  0  0  0
   27.3233  -18.5512  -16.0381 C   0  0  0  0  0  0  0  0  0  0  0  0
   26.7489  -18.8949  -17.7204 S   0  0  0  0  0  0  0  0  0  0  0  0
   26.8676  -20.4639  -14.5616 C   0  0  0  0  0  0  0  0  0  0  0  0
   26.1938  -21.3780  -15.0727 O   0  0  0  0  0  0  0  0  0  0  0  0
   26.4263  -20.1261   -8.2141 N   0  0  0  0  0  0  0  0  0  0  0  0
   25.3177  -20.9017   -8.6346 C   0  0  0  0  0  0  0  0  0  0  0  0
   24.5818  -21.4209   -7.7648 O   0  0  0  0  0  0  0  0  0  0  0  0
   25.0580  -21.0785  -10.0623 C   0  0  0  0  0  0  0  0  0  0  0  0
   26.0915  -20.4443  -10.9474 C   0  0  0  0  0  0  0  0  0  0  0  0
   25.7099  -20.6972  -12.3673 C   0  0  2  0  0  0  0  0  0  0  0  0
   26.6735  -20.0490  -13.2307 N   0  0  0  0  0  0  0  0  0  0  0  0
   24.3477  -20.2021  -12.7272 C   0  0  0  0  0  0  0  0  0  0  0  0
   24.0954  -18.9929  -12.9593 O   0  0  0  0  0  0  0  0  0  0  0  0
   23.2304  -21.0968  -12.8299 N   0  0  0  0  0  0  0  0  0  0  0  0
   21.9056  -20.6559  -13.1257 C   0  0  0  0  0  0  0  0  0  0  0  0
   21.6146  -20.5769  -14.5741 C   0  0  0  0  0  0  0  0  0  0  0  0
   22.3018  -21.3153  -15.3277 O   0  0  0  0  0  0  0  0  0  0  0  0
   20.6674  -19.7717  -15.1434 O   0  0  0  0  0  0  0  0  0  0  0  0
  2  3  1  0
  2  1  1  6
  4  3  1  0
  5  6  2  0
  5  2  1  0
  7  8  1  0
  8 10  1  0
  9  8  2  0
 10 11  1  0
 12 11  1  1
 12 13  1  0
 13  5  1  0
 14 16  1  0
 14 12  1  0
 15 14  2  0
 17 16  1  0
 18 17  1  0
 19 18  2  0
 20 18  1  0
M  END
$$$$
