CQG.pdb
     RDKit          3D

 20 19  0  0  1  0  0  0  0  0999 V2000
   18.9654  -24.6040  -13.5505 N   0  0  0  0  0  0  0  0  0  0  0  0
   19.3115  -24.1557  -14.8855 C   0  0  1  0  0  0  0  0  0  0  0  0
   18.2637  -23.2076  -15.4322 C   0  0  0  0  0  0  0  0  0  0  0  0
   16.6850  -24.0682  -15.6452 S   0  0  0  0  0  0  0  0  0  0  0  0
   20.6373  -23.4424  -14.8346 C   0  0  0  0  0  0  0  0  0  0  0  0
   20.9545  -22.8816  -13.7691 O   0  0  0  0  0  0  0  0  0  0  0  0
   25.6273  -25.0069  -15.2451 N   0  0  0  0  0  0  0  0  0  0  0  0
   26.0385  -23.7917  -15.8464 C   0  0  0  0  0  0  0  0  0  0  0  0
   27.2136  -23.3988  -15.6670 O   0  0  0  0  0  0  0  0  0  0  0  0
   25.0909  -23.0283  -16.6566 C   0  0  0  0  0  0  0  0  0  0  0  0
   23.7258  -23.6481  -16.7341 C   0  0  0  0  0  0  0  0  0  0  0  0
   22.7877  -22.8153  -15.9266 C   0  0  2  0  0  0  0  0  0  0  0  0
   21.4747  -23.4228  -15.9657 N   0  0  0  0  0  0  0  0  0  0  0  0
   22.6674  -21.4041  -16.4002 C   0  0  0  0  0  0  0  0  0  0  0  0
   23.6153  -20.5803  -16.3522 O   0  0  0  0  0  0  0  0  0  0  0  0
   21.4394  -20.9014  -16.9465 N   0  0  0  0  0  0  0  0  0  0  0  0
   21.3160  -19.5966  -17.5114 C   0  0  0  0  0  0  0  0  0  0  0  0
   20.7232  -18.6030  -16.5894 C   0  0  0  0  0  0  0  0  0  0  0  0
   20.5395  -18.9766  -15.4011 O   0  0  0  0  0  0  0  0  0  0  0  0
   20.3663  -17.3279  -16.9307 O   0  0  0  0  0  0  0  0  0  0  0  0
  2  3  1  0
  2  1  1  1
  4  3  1  0
  5  6  2  0
  5  2  1  0
  7  8  1  0
  8 10  1  0
  9  8  2  0
 10 11  1  0
 12 11  1  6
 12 13  1  0
 13  5  1  0
 14 16  1  0
 14 12  1  0
 15 14  2  0
 17 16  1  0
 18 17  1  0
 19 18  2  0
 20 18  1  0
M  END
$$$$
