CQG.pdb
     RDKit          3D

 20 19  0  0  1  0  0  0  0  0999 V2000
   17.3187  -12.2608  -17.0829 N   0  0  0  0  0  0  0  0  0  0  0  0
   17.7728  -11.6761  -15.8359 C   0  0  1  0  0  0  0  0  0  0  0  0
   18.6718  -12.6328  -15.0795 C   0  0  0  0  0  0  0  0  0  0  0  0
   17.6890  -13.9403  -14.3029 S   0  0  0  0  0  0  0  0  0  0  0  0
   18.5424  -10.4166  -16.1369 C   0  0  0  0  0  0  0  0  0  0  0  0
   19.3173  -10.4284  -17.1114 O   0  0  0  0  0  0  0  0  0  0  0  0
   15.4300   -5.8394  -16.2348 N   0  0  0  0  0  0  0  0  0  0  0  0
   15.9110   -6.6670  -17.2794 C   0  0  0  0  0  0  0  0  0  0  0  0
   15.1843   -6.8552  -18.2814 O   0  0  0  0  0  0  0  0  0  0  0  0
   17.2340   -7.2787  -17.1671 C   0  0  0  0  0  0  0  0  0  0  0  0
   17.9240   -6.9910  -15.8653 C   0  0  0  0  0  0  0  0  0  0  0  0
   18.9944   -8.0112  -15.6680 C   0  0  2  0  0  0  0  0  0  0  0  0
   18.3759   -9.2753  -15.3302 N   0  0  0  0  0  0  0  0  0  0  0  0
   19.9731   -7.6646  -14.5946 C   0  0  0  0  0  0  0  0  0  0  0  0
   19.7202   -7.7849  -13.3694 O   0  0  0  0  0  0  0  0  0  0  0  0
   21.2813   -7.1655  -14.9091 N   0  0  0  0  0  0  0  0  0  0  0  0
   22.2526   -6.8475  -13.9129 C   0  0  0  0  0  0  0  0  0  0  0  0
   22.0751   -5.5053  -13.3163 C   0  0  0  0  0  0  0  0  0  0  0  0
   21.1113   -4.8199  -13.7484 O   0  0  0  0  0  0  0  0  0  0  0  0
   22.8707   -4.9650  -12.3444 O   0  0  0  0  0  0  0  0  0  0  0  0
  2  3  1  0
  2  1  1  6
  4  3  1  0
  5  6  2  0
  5  2  1  0
  7  8  1  0
  8 10  1  0
  9  8  2  0
 10 11  1  0
 12 11  1  1
 12 13  1  0
 13  5  1  0
 14 16  1  0
 14 12  1  0
 15 14  2  0
 17 16  1  0
 18 17  1  0
 19 18  2  0
 20 18  1  0
M  END
$$$$
