CQG.pdb
     RDKit          3D

 20 19  0  0  1  0  0  0  0  0999 V2000
   24.1619  -12.6049  -16.9457 N   0  0  0  0  0  0  0  0  0  0  0  0
   24.1125  -11.4788  -16.0333 C   0  0  1  0  0  0  0  0  0  0  0  0
   25.3858  -10.6609  -16.1057 C   0  0  0  0  0  0  0  0  0  0  0  0
   26.7675  -11.5805  -15.3822 S   0  0  0  0  0  0  0  0  0  0  0  0
   22.9455  -10.6004  -16.4017 C   0  0  0  0  0  0  0  0  0  0  0  0
   22.2631  -10.9261  -17.3911 O   0  0  0  0  0  0  0  0  0  0  0  0
   17.8708  -10.9478  -15.2850 N   0  0  0  0  0  0  0  0  0  0  0  0
   17.7886   -9.5872  -15.6716 C   0  0  0  0  0  0  0  0  0  0  0  0
   16.6587   -9.0838  -15.8657 O   0  0  0  0  0  0  0  0  0  0  0  0
   19.0133   -8.8059  -15.8344 C   0  0  0  0  0  0  0  0  0  0  0  0
   20.2690   -9.5961  -15.6052 C   0  0  0  0  0  0  0  0  0  0  0  0
   21.4364   -8.6980  -15.8420 C   0  0  2  0  0  0  0  0  0  0  0  0
   22.6538   -9.4539  -15.6392 N   0  0  0  0  0  0  0  0  0  0  0  0
   21.4720   -7.5006  -14.9502 C   0  0  0  0  0  0  0  0  0  0  0  0
   21.7265   -7.5667  -13.7212 O   0  0  0  0  0  0  0  0  0  0  0  0
   21.2126   -6.1834  -15.4572 N   0  0  0  0  0  0  0  0  0  0  0  0
   21.1586   -5.0260  -14.6238 C   0  0  0  0  0  0  0  0  0  0  0  0
   22.3663   -4.1757  -14.7081 C   0  0  0  0  0  0  0  0  0  0  0  0
   23.3097   -4.6064  -15.4222 O   0  0  0  0  0  0  0  0  0  0  0  0
   22.5282   -2.9742  -14.0757 O   0  0  0  0  0  0  0  0  0  0  0  0
  2  3  1  0
  2  1  1  6
  4  3  1  0
  5  6  2  0
  5  2  1  0
  7  8  1  0
  8 10  1  0
  9  8  2  0
 10 11  1  0
 12 11  1  1
 12 13  1  0
 13  5  1  0
 14 16  1  0
 14 12  1  0
 15 14  2  0
 17 16  1  0
 18 17  1  0
 19 18  2  0
 20 18  1  0
M  END
$$$$
