CQG.pdb
     RDKit          3D

 20 19  0  0  1  0  0  0  0  0999 V2000
   18.1016  -12.4973  -15.5381 N   0  0  0  0  0  0  0  0  0  0  0  0
   17.4888  -11.1886  -15.6596 C   0  0  1  0  0  0  0  0  0  0  0  0
   16.5252  -10.9287  -14.5198 C   0  0  0  0  0  0  0  0  0  0  0  0
   15.0459  -11.9574  -14.6982 S   0  0  0  0  0  0  0  0  0  0  0  0
   18.5682  -10.1381  -15.6365 C   0  0  0  0  0  0  0  0  0  0  0  0
   19.5749  -10.3551  -14.9365 O   0  0  0  0  0  0  0  0  0  0  0  0
   21.3135   -8.4559  -19.5378 N   0  0  0  0  0  0  0  0  0  0  0  0
   21.5835   -7.1708  -19.0058 C   0  0  0  0  0  0  0  0  0  0  0  0
   22.6643   -6.6120  -19.3012 O   0  0  0  0  0  0  0  0  0  0  0  0
   20.6037   -6.5294  -18.1308 C   0  0  0  0  0  0  0  0  0  0  0  0
   19.3765   -7.3590  -17.8875 C   0  0  0  0  0  0  0  0  0  0  0  0
   19.5206   -8.0297  -16.5627 C   0  0  2  0  0  0  0  0  0  0  0  0
   18.4234   -8.9574  -16.3889 N   0  0  0  0  0  0  0  0  0  0  0  0
   19.5289   -7.0884  -15.4034 C   0  0  0  0  0  0  0  0  0  0  0  0
   18.4815   -6.6903  -14.8342 O   0  0  0  0  0  0  0  0  0  0  0  0
   20.7568   -6.5766  -14.8651 N   0  0  0  0  0  0  0  0  0  0  0  0
   20.8097   -5.7288  -13.7183 C   0  0  0  0  0  0  0  0  0  0  0  0
   22.1731   -5.2584  -13.3888 C   0  0  0  0  0  0  0  0  0  0  0  0
   23.1130   -5.7231  -14.0860 O   0  0  0  0  0  0  0  0  0  0  0  0
   22.4801   -4.3690  -12.3967 O   0  0  0  0  0  0  0  0  0  0  0  0
  2  3  1  0
  2  1  1  1
  4  3  1  0
  5  6  2  0
  5  2  1  0
  7  8  1  0
  8 10  1  0
  9  8  2  0
 10 11  1  0
 12 11  1  6
 12 13  1  0
 13  5  1  0
 14 16  1  0
 14 12  1  0
 15 14  2  0
 17 16  1  0
 18 17  1  0
 19 18  2  0
 20 18  1  0
M  END
$$$$
