CQG.pdb
     RDKit          3D

 20 19  0  0  1  0  0  0  0  0999 V2000
   26.9429  -14.2184  -16.2331 N   0  0  0  0  0  0  0  0  0  0  0  0
   25.7329  -14.6854  -15.5843 C   0  0  1  0  0  0  0  0  0  0  0  0
   24.5043  -14.0336  -16.1853 C   0  0  0  0  0  0  0  0  0  0  0  0
   24.1914  -12.4332  -15.3985 S   0  0  0  0  0  0  0  0  0  0  0  0
   25.6288  -16.1782  -15.7577 C   0  0  0  0  0  0  0  0  0  0  0  0
   26.1373  -16.6812  -16.7770 O   0  0  0  0  0  0  0  0  0  0  0  0
   27.8559  -20.1693  -15.6186 N   0  0  0  0  0  0  0  0  0  0  0  0
   26.9487  -21.0252  -14.9464 C   0  0  0  0  0  0  0  0  0  0  0  0
   27.0289  -22.2594  -15.1411 O   0  0  0  0  0  0  0  0  0  0  0  0
   25.9466  -20.4551  -14.0476 C   0  0  0  0  0  0  0  0  0  0  0  0
   25.9936  -18.9570  -13.9628 C   0  0  0  0  0  0  0  0  0  0  0  0
   24.9462  -18.4044  -14.8701 C   0  0  2  0  0  0  0  0  0  0  0  0
   24.9740  -16.9598  -14.7875 N   0  0  0  0  0  0  0  0  0  0  0  0
   23.5623  -18.8672  -14.5526 C   0  0  0  0  0  0  0  0  0  0  0  0
   22.8737  -18.3843  -13.6186 O   0  0  0  0  0  0  0  0  0  0  0  0
   22.9303  -19.9087  -15.3110 N   0  0  0  0  0  0  0  0  0  0  0  0
   21.6676  -20.4719  -14.9570 C   0  0  0  0  0  0  0  0  0  0  0  0
   21.6595  -21.1271  -13.6306 C   0  0  0  0  0  0  0  0  0  0  0  0
   20.6778  -20.8746  -12.8837 O   0  0  0  0  0  0  0  0  0  0  0  0
   22.6271  -21.9740  -13.1656 O   0  0  0  0  0  0  0  0  0  0  0  0
  2  3  1  0
  2  1  1  6
  4  3  1  0
  5  6  2  0
  5  2  1  0
  7  8  1  0
  8 10  1  0
  9  8  2  0
 10 11  1  0
 12 11  1  1
 12 13  1  0
 13  5  1  0
 14 16  1  0
 14 12  1  0
 15 14  2  0
 17 16  1  0
 18 17  1  0
 19 18  2  0
 20 18  1  0
M  END
$$$$
