CQG.pdb
     RDKit          3D

 20 19  0  0  1  0  0  0  0  0999 V2000
   24.7603  -15.5641  -20.0006 N   0  0  0  0  0  0  0  0  0  0  0  0
   24.0278  -14.5496  -19.2675 C   0  0  1  0  0  0  0  0  0  0  0  0
   23.7175  -13.3564  -20.1481 C   0  0  0  0  0  0  0  0  0  0  0  0
   25.2282  -12.4215  -20.4976 S   0  0  0  0  0  0  0  0  0  0  0  0
   22.7341  -15.1413  -18.7721 C   0  0  0  0  0  0  0  0  0  0  0  0
   22.1018  -15.8848  -19.5454 O   0  0  0  0  0  0  0  0  0  0  0  0
   19.3445  -17.9056  -13.1600 N   0  0  0  0  0  0  0  0  0  0  0  0
   20.3106  -17.8630  -14.1955 C   0  0  0  0  0  0  0  0  0  0  0  0
   21.3144  -18.6067  -14.1130 O   0  0  0  0  0  0  0  0  0  0  0  0
   20.1174  -16.9599  -15.3287 C   0  0  0  0  0  0  0  0  0  0  0  0
   21.3819  -16.3008  -15.7982 C   0  0  0  0  0  0  0  0  0  0  0  0
   21.0490  -15.4235  -16.9581 C   0  0  2  0  0  0  0  0  0  0  0  0
   22.2734  -14.8502  -17.4744 N   0  0  0  0  0  0  0  0  0  0  0  0
   20.1108  -14.3097  -16.6272 C   0  0  0  0  0  0  0  0  0  0  0  0
   20.4845  -13.2285  -16.1067 O   0  0  0  0  0  0  0  0  0  0  0  0
   18.7040  -14.4147  -16.8904 N   0  0  0  0  0  0  0  0  0  0  0  0
   17.7845  -13.3522  -16.6399 C   0  0  0  0  0  0  0  0  0  0  0  0
   17.3565  -13.2569  -15.2270 C   0  0  0  0  0  0  0  0  0  0  0  0
   17.8250  -14.1184  -14.4373 O   0  0  0  0  0  0  0  0  0  0  0  0
   16.5019  -12.3145  -14.7258 O   0  0  0  0  0  0  0  0  0  0  0  0
  2  3  1  0
  2  1  1  6
  4  3  1  0
  5  6  2  0
  5  2  1  0
  7  8  1  0
  8 10  1  0
  9  8  2  0
 10 11  1  0
 12 11  1  1
 12 13  1  0
 13  5  1  0
 14 16  1  0
 14 12  1  0
 15 14  2  0
 17 16  1  0
 18 17  1  0
 19 18  2  0
 20 18  1  0
M  END
$$$$
