IAV.pdb
     RDKit          3D

 21 20  0  0  1  0  0  0  0  0999 V2000
   28.2261  -13.2609  -15.6888 C   0  0  0  0  0  0  0  0  0  0  0  0
   26.7497  -13.5276  -15.7185 C   0  0  0  0  0  0  0  0  0  0  0  0
   25.9244  -12.2864  -15.9253 C   0  0  2  0  0  0  0  0  0  0  0  0
   26.1892  -11.2655  -14.8548 C   0  0  0  0  0  0  0  0  0  0  0  0
   24.4644  -12.6505  -16.0512 C   0  0  2  0  0  0  0  0  0  0  0  0
   24.3453  -13.6736  -17.0558 N   0  0  0  0  0  0  0  0  0  0  0  0
   23.6299  -11.4649  -16.3780 C   0  0  0  0  0  0  0  0  0  0  0  0
   23.9576  -10.7739  -17.3765 O   0  0  0  0  0  0  0  0  0  0  0  0
   20.2142  -10.1390  -15.5911 C   0  0  0  0  0  0  0  0  0  0  0  0
   21.6748   -9.9399  -15.9086 C   0  0  2  0  0  0  0  0  0  0  0  0
   22.4873  -11.0794  -15.6195 N   0  0  0  0  0  0  0  0  0  0  0  0
   22.2072   -8.6842  -15.3008 C   0  0  0  0  0  0  0  0  0  0  0  0
   22.8266   -8.6400  -14.2309 O   0  0  0  0  0  0  0  0  0  0  0  0
   23.8165   -5.9000  -17.6114 C   0  0  0  0  0  0  0  0  0  0  0  0
   22.7791   -5.2686  -16.7196 C   0  0  2  0  0  0  0  0  0  0  0  0
   23.2666   -3.9251  -16.2200 C   0  0  0  0  0  0  0  0  0  0  0  0
   22.4970   -6.1929  -15.5463 C   0  0  2  0  0  0  0  0  0  0  0  0
   21.9820   -7.4693  -16.0048 N   0  0  0  0  0  0  0  0  0  0  0  0
   21.4620   -5.5693  -14.6979 C   0  0  0  0  0  0  0  0  0  0  0  0
   20.2585   -5.7157  -15.0039 O   0  0  0  0  0  0  0  0  0  0  0  0
   21.7974   -4.8336  -13.5822 O   0  0  0  0  0  0  0  0  0  0  0  0
  2  3  1  0
  2  1  1  0
  3  4  1  1
  5  3  1  0
  5  6  1  6
  7  5  1  0
  8  7  2  0
 10  9  1  1
 10 11  1  0
 11  7  1  0
 12 10  1  0
 12 13  2  0
 15 14  1  6
 15 17  1  0
 16 15  1  0
 17 18  1  6
 18 12  1  0
 19 17  1  0
 20 19  2  0
 21 19  1  0
M  END
$$$$
