IAV.pdb
     RDKit          3D

 21 20  0  0  1  0  0  0  0  0999 V2000
   31.2439  -22.0410  -20.0094 C   0  0  0  0  0  0  0  0  0  0  0  0
   30.6222  -20.7470  -19.5727 C   0  0  0  0  0  0  0  0  0  0  0  0
   29.2068  -20.9007  -19.0857 C   0  0  2  0  0  0  0  0  0  0  0  0
   28.6894  -19.6231  -18.4872 C   0  0  0  0  0  0  0  0  0  0  0  0
   29.1071  -22.0796  -18.1475 C   0  0  2  0  0  0  0  0  0  0  0  0
   28.8446  -23.2549  -18.9349 N   0  0  0  0  0  0  0  0  0  0  0  0
   28.0604  -21.8704  -17.1133 C   0  0  0  0  0  0  0  0  0  0  0  0
   26.8574  -21.9553  -17.4705 O   0  0  0  0  0  0  0  0  0  0  0  0
   27.9450  -21.0172  -13.3905 C   0  0  0  0  0  0  0  0  0  0  0  0
   27.3720  -21.2533  -14.7652 C   0  0  2  0  0  0  0  0  0  0  0  0
   28.3546  -21.5810  -15.7499 N   0  0  0  0  0  0  0  0  0  0  0  0
   26.4797  -20.1349  -15.1925 C   0  0  0  0  0  0  0  0  0  0  0  0
   26.8839  -19.0751  -15.6865 O   0  0  0  0  0  0  0  0  0  0  0  0
   23.5755  -20.4679  -17.5239 C   0  0  0  0  0  0  0  0  0  0  0  0
   24.0572  -19.1717  -16.9256 C   0  0  2  0  0  0  0  0  0  0  0  0
   25.4279  -18.8235  -17.4662 C   0  0  0  0  0  0  0  0  0  0  0  0
   24.1097  -19.3069  -15.4125 C   0  0  2  0  0  0  0  0  0  0  0  0
   25.0796  -20.3101  -15.0156 N   0  0  0  0  0  0  0  0  0  0  0  0
   22.7843  -19.7501  -14.9361 C   0  0  0  0  0  0  0  0  0  0  0  0
   22.6251  -20.9481  -14.6154 O   0  0  0  0  0  0  0  0  0  0  0  0
   21.7269  -18.8719  -14.8397 O   0  0  0  0  0  0  0  0  0  0  0  0
  2  3  1  0
  2  1  1  0
  3  4  1  1
  5  3  1  0
  5  6  1  6
  7  5  1  0
  8  7  2  0
 10  9  1  1
 10 11  1  0
 11  7  1  0
 12 10  1  0
 12 13  2  0
 15 14  1  6
 15 17  1  0
 16 15  1  0
 17 18  1  6
 18 12  1  0
 19 17  1  0
 20 19  2  0
 21 19  1  0
M  END
$$$$
