IAV.pdb
     RDKit          3D

 21 20  0  0  1  0  0  0  0  0999 V2000
   16.9055  -16.8355  -15.9211 C   0  0  0  0  0  0  0  0  0  0  0  0
   17.1372  -16.0551  -17.1816 C   0  0  0  0  0  0  0  0  0  0  0  0
   17.9141  -14.7853  -16.9617 C   0  0  2  0  0  0  0  0  0  0  0  0
   17.2488  -13.9032  -15.9431 C   0  0  0  0  0  0  0  0  0  0  0  0
   18.1567  -14.0916  -18.2808 C   0  0  2  0  0  0  0  0  0  0  0  0
   18.7825  -15.0330  -19.1709 N   0  0  0  0  0  0  0  0  0  0  0  0
   18.9822  -12.8672  -18.1128 C   0  0  0  0  0  0  0  0  0  0  0  0
   20.2036  -13.0145  -17.8509 O   0  0  0  0  0  0  0  0  0  0  0  0
   18.5266   -9.0987  -18.4542 C   0  0  0  0  0  0  0  0  0  0  0  0
   19.2062  -10.3573  -17.9769 C   0  0  2  0  0  0  0  0  0  0  0  0
   18.4586  -11.5480  -18.2337 N   0  0  0  0  0  0  0  0  0  0  0  0
   19.6401  -10.2460  -16.5525 C   0  0  0  0  0  0  0  0  0  0  0  0
   18.9340  -10.5584  -15.5859 O   0  0  0  0  0  0  0  0  0  0  0  0
   23.3186  -10.3293  -13.4440 C   0  0  0  0  0  0  0  0  0  0  0  0
   22.8265  -10.3812  -14.8671 C   0  0  2  0  0  0  0  0  0  0  0  0
   23.8459   -9.7566  -15.7962 C   0  0  0  0  0  0  0  0  0  0  0  0
   21.5031   -9.6400  -14.9674 C   0  0  2  0  0  0  0  0  0  0  0  0
   20.9488   -9.7485  -16.3036 N   0  0  0  0  0  0  0  0  0  0  0  0
   21.7467   -8.2091  -14.6967 C   0  0  0  0  0  0  0  0  0  0  0  0
   21.8819   -7.4245  -15.6609 O   0  0  0  0  0  0  0  0  0  0  0  0
   21.8270   -7.7270  -13.4084 O   0  0  0  0  0  0  0  0  0  0  0  0
  2  3  1  0
  2  1  1  0
  3  4  1  1
  5  3  1  0
  5  6  1  6
  7  5  1  0
  8  7  2  0
 10  9  1  1
 10 11  1  0
 11  7  1  0
 12 10  1  0
 12 13  2  0
 15 14  1  1
 15 17  1  0
 16 15  1  0
 17 18  1  6
 18 12  1  0
 19 17  1  0
 20 19  2  0
 21 19  1  0
M  END
$$$$
