IAV.pdb
     RDKit          3D

 21 20  0  0  1  0  0  0  0  0999 V2000
   20.9732  -19.4462  -19.3578 C   0  0  0  0  0  0  0  0  0  0  0  0
   21.7905  -18.6222  -18.4066 C   0  0  0  0  0  0  0  0  0  0  0  0
   22.6793  -19.4475  -17.5158 C   0  0  2  0  0  0  0  0  0  0  0  0
   21.8878  -20.4558  -16.7316 C   0  0  0  0  0  0  0  0  0  0  0  0
   23.5210  -18.5454  -16.6452 C   0  0  2  0  0  0  0  0  0  0  0  0
   24.2423  -17.6439  -17.5037 N   0  0  0  0  0  0  0  0  0  0  0  0
   24.4407  -19.3247  -15.7760 C   0  0  0  0  0  0  0  0  0  0  0  0
   23.9312  -20.1349  -14.9600 O   0  0  0  0  0  0  0  0  0  0  0  0
   28.2098  -19.5476  -15.1908 C   0  0  0  0  0  0  0  0  0  0  0  0
   26.7540  -19.7876  -14.8799 C   0  0  2  0  0  0  0  0  0  0  0  0
   25.8587  -19.1970  -15.8244 N   0  0  0  0  0  0  0  0  0  0  0  0
   26.4225  -19.4272  -13.4693 C   0  0  0  0  0  0  0  0  0  0  0  0
   26.1094  -18.2889  -13.0996 O   0  0  0  0  0  0  0  0  0  0  0  0
   23.7588  -20.5970  -11.5094 C   0  0  0  0  0  0  0  0  0  0  0  0
   24.9381  -21.0339  -10.6797 C   0  0  2  0  0  0  0  0  0  0  0  0
   24.6529  -20.8149   -9.2090 C   0  0  0  0  0  0  0  0  0  0  0  0
   26.1665  -20.2426  -11.0986 C   0  0  2  0  0  0  0  0  0  0  0  0
   26.4733  -20.4654  -12.4990 N   0  0  0  0  0  0  0  0  0  0  0  0
   27.3193  -20.7139  -10.3055 C   0  0  0  0  0  0  0  0  0  0  0  0
   28.0315  -21.6355  -10.7603 O   0  0  0  0  0  0  0  0  0  0  0  0
   27.6216  -20.1590   -9.0811 O   0  0  0  0  0  0  0  0  0  0  0  0
  2  3  1  0
  2  1  1  0
  3  4  1  1
  5  3  1  0
  5  6  1  6
  7  5  1  0
  8  7  2  0
 10  9  1  6
 10 11  1  0
 11  7  1  0
 12 10  1  0
 12 13  2  0
 15 14  1  6
 15 17  1  0
 16 15  1  0
 17 18  1  6
 18 12  1  0
 19 17  1  0
 20 19  2  0
 21 19  1  0
M  END
$$$$
