IAV.pdb
     RDKit          3D

 21 20  0  0  1  0  0  0  0  0999 V2000
   25.2345  -36.2464   -4.4927 C   0  0  0  0  0  0  0  0  0  0  0  0
   25.0450  -34.8182   -4.0734 C   0  0  0  0  0  0  0  0  0  0  0  0
   25.6007  -34.5198   -2.7072 C   0  0  2  0  0  0  0  0  0  0  0  0
   25.0524  -35.4621   -1.6729 C   0  0  0  0  0  0  0  0  0  0  0  0
   25.3788  -33.0662   -2.3640 C   0  0  2  0  0  0  0  0  0  0  0  0
   25.8106  -32.2730   -3.4841 N   0  0  0  0  0  0  0  0  0  0  0  0
   26.0903  -32.6825   -1.1168 C   0  0  0  0  0  0  0  0  0  0  0  0
   27.3468  -32.6377   -1.1482 O   0  0  0  0  0  0  0  0  0  0  0  0
   25.2834  -31.1657    2.2430 C   0  0  0  0  0  0  0  0  0  0  0  0
   26.0832  -32.0588    1.3284 C   0  0  2  0  0  0  0  0  0  0  0  0
   25.4206  -32.3662    0.1001 N   0  0  0  0  0  0  0  0  0  0  0  0
   26.5764  -33.2772    2.0370 C   0  0  0  0  0  0  0  0  0  0  0  0
   26.0009  -34.3721    2.0165 O   0  0  0  0  0  0  0  0  0  0  0  0
   30.1064  -32.8201    4.4862 C   0  0  0  0  0  0  0  0  0  0  0  0
   29.8597  -34.0777    3.6940 C   0  0  2  0  0  0  0  0  0  0  0  0
   30.5426  -33.9891    2.3457 C   0  0  0  0  0  0  0  0  0  0  0  0
   28.3628  -34.2698    3.5114 C   0  0  2  0  0  0  0  0  0  0  0  0
   27.7839  -33.1596    2.7786 N   0  0  0  0  0  0  0  0  0  0  0  0
   27.7299  -34.3069    4.8448 C   0  0  0  0  0  0  0  0  0  0  0  0
   27.1127  -33.2982    5.2509 O   0  0  0  0  0  0  0  0  0  0  0  0
   27.8073  -35.4268    5.6439 O   0  0  0  0  0  0  0  0  0  0  0  0
  2  3  1  0
  2  1  1  0
  3  4  1  1
  5  3  1  0
  5  6  1  6
  7  5  1  0
  8  7  2  0
 10  9  1  1
 10 11  1  0
 11  7  1  0
 12 10  1  0
 12 13  2  0
 15 14  1  1
 15 17  1  0
 16 15  1  0
 17 18  1  6
 18 12  1  0
 19 17  1  0
 20 19  2  0
 21 19  1  0
M  END
$$$$
