IAV.pdb
     RDKit          3D

 21 20  0  0  1  0  0  0  0  0999 V2000
   17.6304  -16.8386  -16.2487 C   0  0  0  0  0  0  0  0  0  0  0  0
   18.0710  -16.0934  -17.4743 C   0  0  0  0  0  0  0  0  0  0  0  0
   18.8153  -14.8231  -17.1636 C   0  0  2  0  0  0  0  0  0  0  0  0
   18.0149  -13.9226  -16.2654 C   0  0  0  0  0  0  0  0  0  0  0  0
   19.2500  -14.1512  -18.4441 C   0  0  2  0  0  0  0  0  0  0  0  0
   20.0439  -15.0894  -19.1923 N   0  0  0  0  0  0  0  0  0  0  0  0
   19.9971  -12.8944  -18.1776 C   0  0  0  0  0  0  0  0  0  0  0  0
   21.1110  -12.9851  -17.6005 O   0  0  0  0  0  0  0  0  0  0  0  0
   19.6111   -9.1802  -18.9469 C   0  0  0  0  0  0  0  0  0  0  0  0
   20.1716  -10.3773  -18.2213 C   0  0  2  0  0  0  0  0  0  0  0  0
   19.5141  -11.6049  -18.5424 N   0  0  0  0  0  0  0  0  0  0  0  0
   20.2618  -10.1403  -16.7498 C   0  0  0  0  0  0  0  0  0  0  0  0
   19.3373  -10.3517  -15.9554 O   0  0  0  0  0  0  0  0  0  0  0  0
   24.1242   -9.5597  -15.1491 C   0  0  0  0  0  0  0  0  0  0  0  0
   22.9493   -9.9797  -14.3046 C   0  0  2  0  0  0  0  0  0  0  0  0
   22.8020  -11.4864  -14.3254 C   0  0  0  0  0  0  0  0  0  0  0  0
   21.6871   -9.3226  -14.8392 C   0  0  2  0  0  0  0  0  0  0  0  0
   21.4920   -9.6403  -16.2412 N   0  0  0  0  0  0  0  0  0  0  0  0
   21.8388   -7.8582  -14.7272 C   0  0  0  0  0  0  0  0  0  0  0  0
   21.7997   -7.3298  -13.5946 O   0  0  0  0  0  0  0  0  0  0  0  0
   22.0214   -7.0692  -15.8420 O   0  0  0  0  0  0  0  0  0  0  0  0
  2  3  1  0
  2  1  1  0
  3  4  1  6
  5  3  1  0
  5  6  1  1
  7  5  1  0
  8  7  2  0
 10  9  1  6
 10 11  1  0
 11  7  1  0
 12 10  1  0
 12 13  2  0
 15 14  1  6
 15 17  1  0
 16 15  1  0
 17 18  1  6
 18 12  1  0
 19 17  1  0
 20 19  2  0
 21 19  1  0
M  END
$$$$
