IAV.pdb
     RDKit          3D

 21 20  0  0  1  0  0  0  0  0999 V2000
   19.6501  -17.8129  -18.7773 C   0  0  0  0  0  0  0  0  0  0  0  0
   18.7634  -16.6159  -18.9579 C   0  0  0  0  0  0  0  0  0  0  0  0
   19.4757  -15.3086  -18.7389 C   0  0  2  0  0  0  0  0  0  0  0  0
   20.8891  -15.5233  -18.2760 C   0  0  0  0  0  0  0  0  0  0  0  0
   18.6727  -14.4308  -17.8091 C   0  0  2  0  0  0  0  0  0  0  0  0
   17.3378  -14.3273  -18.3358 N   0  0  0  0  0  0  0  0  0  0  0  0
   19.2984  -13.0932  -17.6410 C   0  0  0  0  0  0  0  0  0  0  0  0
   20.4040  -13.0334  -17.0444 O   0  0  0  0  0  0  0  0  0  0  0  0
   18.5873   -9.5258  -18.7961 C   0  0  0  0  0  0  0  0  0  0  0  0
   19.3269  -10.6019  -18.0419 C   0  0  2  0  0  0  0  0  0  0  0  0
   18.7089  -11.8880  -18.1199 N   0  0  0  0  0  0  0  0  0  0  0  0
   19.6229  -10.1897  -16.6375 C   0  0  0  0  0  0  0  0  0  0  0  0
   18.8461  -10.3527  -15.6886 O   0  0  0  0  0  0  0  0  0  0  0  0
   22.8132  -11.1728  -14.9586 C   0  0  0  0  0  0  0  0  0  0  0  0
   22.7466   -9.6751  -14.8087 C   0  0  2  0  0  0  0  0  0  0  0  0
   23.1976   -9.2674  -13.4221 C   0  0  0  0  0  0  0  0  0  0  0  0
   21.3203   -9.2097  -15.0536 C   0  0  2  0  0  0  0  0  0  0  0  0
   20.8791   -9.5722  -16.3872 N   0  0  0  0  0  0  0  0  0  0  0  0
   21.2852   -7.7370  -14.9535 C   0  0  0  0  0  0  0  0  0  0  0  0
   21.3544   -7.2046  -13.8243 O   0  0  0  0  0  0  0  0  0  0  0  0
   21.1782   -6.9448  -16.0758 O   0  0  0  0  0  0  0  0  0  0  0  0
  2  3  1  0
  2  1  1  0
  3  4  1  1
  5  3  1  0
  5  6  1  6
  7  5  1  0
  8  7  2  0
 10  9  1  1
 10 11  1  0
 11  7  1  0
 12 10  1  0
 12 13  2  0
 15 14  1  1
 15 17  1  0
 16 15  1  0
 17 18  1  6
 18 12  1  0
 19 17  1  0
 20 19  2  0
 21 19  1  0
M  END
$$$$
