IAV.pdb
     RDKit          3D

 21 20  0  0  1  0  0  0  0  0999 V2000
   12.1297  -11.1676  -16.0778 C   0  0  0  0  0  0  0  0  0  0  0  0
   13.5581  -11.4510  -15.7160 C   0  0  0  0  0  0  0  0  0  0  0  0
   14.0474  -10.6431  -14.5446 C   0  0  2  0  0  0  0  0  0  0  0  0
   13.8781   -9.1692  -14.7842 C   0  0  0  0  0  0  0  0  0  0  0  0
   15.4666  -11.0308  -14.2047 C   0  0  2  0  0  0  0  0  0  0  0  0
   15.4880  -12.4417  -13.9237 N   0  0  0  0  0  0  0  0  0  0  0  0
   15.9929  -10.2387  -13.0626 C   0  0  0  0  0  0  0  0  0  0  0  0
   15.4352  -10.3798  -11.9442 O   0  0  0  0  0  0  0  0  0  0  0  0
   19.0107   -8.0554  -12.3275 C   0  0  0  0  0  0  0  0  0  0  0  0
   17.6087   -8.5592  -12.0946 C   0  0  2  0  0  0  0  0  0  0  0  0
   17.0892   -9.3361  -13.1758 N   0  0  0  0  0  0  0  0  0  0  0  0
   16.6870   -7.4597  -11.6810 C   0  0  0  0  0  0  0  0  0  0  0  0
   16.1118   -6.7023  -12.4722 O   0  0  0  0  0  0  0  0  0  0  0  0
   14.9710   -7.6948   -7.9000 C   0  0  0  0  0  0  0  0  0  0  0  0
   14.4592   -6.7758   -8.9787 C   0  0  2  0  0  0  0  0  0  0  0  0
   13.5286   -7.5266   -9.9075 C   0  0  0  0  0  0  0  0  0  0  0  0
   15.6365   -6.2137   -9.7588 C   0  0  2  0  0  0  0  0  0  0  0  0
   16.4641   -7.2813  -10.2879 N   0  0  0  0  0  0  0  0  0  0  0  0
   16.4688   -5.4142   -8.8380 C   0  0  0  0  0  0  0  0  0  0  0  0
   16.0445   -4.3054   -8.4456 O   0  0  0  0  0  0  0  0  0  0  0  0
   17.6970   -5.8661   -8.4066 O   0  0  0  0  0  0  0  0  0  0  0  0
  2  3  1  0
  2  1  1  0
  3  4  1  6
  5  3  1  0
  5  6  1  1
  7  5  1  0
  8  7  2  0
 10  9  1  6
 10 11  1  0
 11  7  1  0
 12 10  1  0
 12 13  2  0
 15 14  1  1
 15 17  1  0
 16 15  1  0
 17 18  1  1
 18 12  1  0
 19 17  1  0
 20 19  2  0
 21 19  1  0
M  END
$$$$
