IAV.pdb
     RDKit          3D

 21 20  0  0  1  0  0  0  0  0999 V2000
   22.6673  -21.0238  -19.8262 C   0  0  0  0  0  0  0  0  0  0  0  0
   23.7743  -20.0269  -19.6461 C   0  0  0  0  0  0  0  0  0  0  0  0
   23.2908  -18.6748  -19.1962 C   0  0  2  0  0  0  0  0  0  0  0  0
   22.2613  -18.1175  -20.1384 C   0  0  0  0  0  0  0  0  0  0  0  0
   24.4649  -17.7493  -18.9839 C   0  0  2  0  0  0  0  0  0  0  0  0
   25.4475  -18.4487  -18.1993 N   0  0  0  0  0  0  0  0  0  0  0  0
   24.0510  -16.4786  -18.3338 C   0  0  0  0  0  0  0  0  0  0  0  0
   22.8757  -16.0753  -18.5290 O   0  0  0  0  0  0  0  0  0  0  0  0
   25.6461  -13.8534  -16.0615 C   0  0  0  0  0  0  0  0  0  0  0  0
   24.5621  -14.4490  -16.9239 C   0  0  2  0  0  0  0  0  0  0  0  0
   24.9158  -15.7044  -17.5080 N   0  0  0  0  0  0  0  0  0  0  0  0
   24.0537  -13.4691  -17.9294 C   0  0  0  0  0  0  0  0  0  0  0  0
   24.5225  -13.3359  -19.0665 O   0  0  0  0  0  0  0  0  0  0  0  0
   20.6192  -13.3883  -19.1140 C   0  0  0  0  0  0  0  0  0  0  0  0
   20.8277  -12.0039  -18.5571 C   0  0  2  0  0  0  0  0  0  0  0  0
   20.1577  -10.9766  -19.4448 C   0  0  0  0  0  0  0  0  0  0  0  0
   22.3182  -11.7211  -18.4615 C   0  0  2  0  0  0  0  0  0  0  0  0
   22.9623  -12.6428  -17.5447 N   0  0  0  0  0  0  0  0  0  0  0  0
   22.5021  -10.3561  -17.9295 C   0  0  0  0  0  0  0  0  0  0  0  0
   22.6131  -10.1970  -16.6943 O   0  0  0  0  0  0  0  0  0  0  0  0
   22.5530   -9.2620  -18.7655 O   0  0  0  0  0  0  0  0  0  0  0  0
  2  3  1  0
  2  1  1  0
  3  4  1  6
  5  3  1  0
  5  6  1  1
  7  5  1  0
  8  7  2  0
 10  9  1  6
 10 11  1  0
 11  7  1  0
 12 10  1  0
 12 13  2  0
 15 14  1  6
 15 17  1  0
 16 15  1  0
 17 18  1  1
 18 12  1  0
 19 17  1  0
 20 19  2  0
 21 19  1  0
M  END
$$$$
