IAV.pdb
     RDKit          3D

 21 20  0  0  1  0  0  0  0  0999 V2000
   12.2976  -13.3357  -14.3464 C   0  0  0  0  0  0  0  0  0  0  0  0
   13.7810  -13.1105  -14.3221 C   0  0  0  0  0  0  0  0  0  0  0  0
   14.1933  -11.9513  -13.4557 C   0  0  2  0  0  0  0  0  0  0  0  0
   13.4480  -10.6988  -13.8218 C   0  0  0  0  0  0  0  0  0  0  0  0
   15.6933  -11.7833  -13.4950 C   0  0  2  0  0  0  0  0  0  0  0  0
   16.2924  -13.0478  -13.1596 N   0  0  0  0  0  0  0  0  0  0  0  0
   16.1484  -10.7039  -12.5803 C   0  0  0  0  0  0  0  0  0  0  0  0
   15.8783  -10.8186  -11.3573 O   0  0  0  0  0  0  0  0  0  0  0  0
   18.3610   -7.6166  -12.7732 C   0  0  0  0  0  0  0  0  0  0  0  0
   17.2975   -8.4959  -12.1652 C   0  0  2  0  0  0  0  0  0  0  0  0
   16.8692   -9.5571  -13.0212 N   0  0  0  0  0  0  0  0  0  0  0  0
   16.1580   -7.6948  -11.6271 C   0  0  0  0  0  0  0  0  0  0  0  0
   15.1235   -7.4490  -12.2595 O   0  0  0  0  0  0  0  0  0  0  0  0
   15.2485   -8.0056   -7.7187 C   0  0  0  0  0  0  0  0  0  0  0  0
   15.3446   -6.5599   -8.1320 C   0  0  2  0  0  0  0  0  0  0  0  0
   14.2560   -5.7502   -7.4599 C   0  0  0  0  0  0  0  0  0  0  0  0
   15.2137   -6.4607   -9.6432 C   0  0  2  0  0  0  0  0  0  0  0  0
   16.2809   -7.1880  -10.3043 N   0  0  0  0  0  0  0  0  0  0  0  0
   15.3305   -5.0408  -10.0306 C   0  0  0  0  0  0  0  0  0  0  0  0
   16.4684   -4.5484  -10.1922 O   0  0  0  0  0  0  0  0  0  0  0  0
   14.2143   -4.2544  -10.2160 O   0  0  0  0  0  0  0  0  0  0  0  0
  2  3  1  0
  2  1  1  0
  3  4  1  6
  5  3  1  0
  5  6  1  1
  7  5  1  0
  8  7  2  0
 10  9  1  6
 10 11  1  0
 11  7  1  0
 12 10  1  0
 12 13  2  0
 15 14  1  6
 15 17  1  0
 16 15  1  0
 17 18  1  6
 18 12  1  0
 19 17  1  0
 20 19  2  0
 21 19  1  0
M  END
$$$$
