IAV.pdb
     RDKit          3D

 21 20  0  0  1  0  0  0  0  0999 V2000
   16.3366  -29.3444   -3.6032 C   0  0  0  0  0  0  0  0  0  0  0  0
   16.4136  -27.9892   -4.2429 C   0  0  0  0  0  0  0  0  0  0  0  0
   16.1040  -26.8638   -3.2932 C   0  0  2  0  0  0  0  0  0  0  0  0
   14.7541  -27.0377   -2.6561 C   0  0  0  0  0  0  0  0  0  0  0  0
   16.2637  -25.5360   -3.9941 C   0  0  2  0  0  0  0  0  0  0  0  0
   17.6038  -25.4642   -4.5128 N   0  0  0  0  0  0  0  0  0  0  0  0
   15.9682  -24.3974   -3.0858 C   0  0  0  0  0  0  0  0  0  0  0  0
   16.8383  -24.0866   -2.2323 O   0  0  0  0  0  0  0  0  0  0  0  0
   13.3443  -21.6652   -2.7919 C   0  0  0  0  0  0  0  0  0  0  0  0
   14.4509  -22.5505   -2.2765 C   0  0  2  0  0  0  0  0  0  0  0  0
   14.7569  -23.6496   -3.1372 N   0  0  0  0  0  0  0  0  0  0  0  0
   14.2087  -22.9745   -0.8654 C   0  0  0  0  0  0  0  0  0  0  0  0
   13.7068  -24.0584   -0.5433 O   0  0  0  0  0  0  0  0  0  0  0  0
   15.8401  -23.0248    3.5747 C   0  0  0  0  0  0  0  0  0  0  0  0
   15.9175  -22.7670    2.0923 C   0  0  2  0  0  0  0  0  0  0  0  0
   16.8823  -21.6355    1.8077 C   0  0  0  0  0  0  0  0  0  0  0  0
   14.5328  -22.4182    1.5710 C   0  0  2  0  0  0  0  0  0  0  0  0
   14.5822  -22.0676    0.1642 N   0  0  0  0  0  0  0  0  0  0  0  0
   14.0377  -21.2401    2.3106 C   0  0  0  0  0  0  0  0  0  0  0  0
   14.1943  -20.1033    1.8142 O   0  0  0  0  0  0  0  0  0  0  0  0
   13.4102  -21.3714    3.5303 O   0  0  0  0  0  0  0  0  0  0  0  0
  2  3  1  0
  2  1  1  0
  3  4  1  6
  5  3  1  0
  5  6  1  1
  7  5  1  0
  8  7  2  0
 10  9  1  6
 10 11  1  0
 11  7  1  0
 12 10  1  0
 12 13  2  0
 15 14  1  1
 15 17  1  0
 16 15  1  0
 17 18  1  6
 18 12  1  0
 19 17  1  0
 20 19  2  0
 21 19  1  0
M  END
$$$$
