IAV.pdb
     RDKit          3D

 21 20  0  0  1  0  0  0  0  0999 V2000
   26.1593  -13.3795  -15.7031 C   0  0  0  0  0  0  0  0  0  0  0  0
   25.6215  -14.5874  -16.4127 C   0  0  0  0  0  0  0  0  0  0  0  0
   25.8177  -15.8662  -15.6442 C   0  0  2  0  0  0  0  0  0  0  0  0
   27.2637  -16.0828  -15.2973 C   0  0  0  0  0  0  0  0  0  0  0  0
   25.2080  -17.0228  -16.3994 C   0  0  2  0  0  0  0  0  0  0  0  0
   23.8409  -16.6886  -16.6987 N   0  0  0  0  0  0  0  0  0  0  0  0
   25.3041  -18.2912  -15.6307 C   0  0  0  0  0  0  0  0  0  0  0  0
   24.5830  -18.4132  -14.6075 O   0  0  0  0  0  0  0  0  0  0  0  0
   27.0312  -21.6674  -15.9932 C   0  0  0  0  0  0  0  0  0  0  0  0
   26.3155  -20.5709  -15.2454 C   0  0  2  0  0  0  0  0  0  0  0  0
   26.1669  -19.3641  -15.9964 N   0  0  0  0  0  0  0  0  0  0  0  0
   26.9128  -20.3397  -13.8966 C   0  0  0  0  0  0  0  0  0  0  0  0
   27.9171  -19.6469  -13.6923 O   0  0  0  0  0  0  0  0  0  0  0  0
   24.4935  -20.9654  -10.5350 C   0  0  0  0  0  0  0  0  0  0  0  0
   25.7757  -20.1744  -10.5222 C   0  0  2  0  0  0  0  0  0  0  0  0
   25.5202  -18.7562  -10.9868 C   0  0  0  0  0  0  0  0  0  0  0  0
   26.7900  -20.8488  -11.4315 C   0  0  2  0  0  0  0  0  0  0  0  0
   26.2790  -20.9597  -12.7848 N   0  0  0  0  0  0  0  0  0  0  0  0
   27.0323  -22.2159  -10.9293 C   0  0  0  0  0  0  0  0  0  0  0  0
   26.4900  -23.1804  -11.5116 O   0  0  0  0  0  0  0  0  0  0  0  0
   27.8405  -22.4454   -9.8371 O   0  0  0  0  0  0  0  0  0  0  0  0
  2  3  1  0
  2  1  1  0
  3  4  1  6
  5  3  1  0
  5  6  1  1
  7  5  1  0
  8  7  2  0
 10  9  1  6
 10 11  1  0
 11  7  1  0
 12 10  1  0
 12 13  2  0
 15 14  1  6
 15 17  1  0
 16 15  1  0
 17 18  1  6
 18 12  1  0
 19 17  1  0
 20 19  2  0
 21 19  1  0
M  END
$$$$
