IAV.pdb
     RDKit          3D

 21 20  0  0  1  0  0  0  0  0999 V2000
   18.3048  -15.2200  -16.0256 C   0  0  0  0  0  0  0  0  0  0  0  0
   17.8516  -14.1044  -16.9210 C   0  0  0  0  0  0  0  0  0  0  0  0
   18.4947  -12.7828  -16.5981 C   0  0  2  0  0  0  0  0  0  0  0  0
   18.2665  -12.3963  -15.1639 C   0  0  0  0  0  0  0  0  0  0  0  0
   18.0346  -11.7300  -17.5777 C   0  0  2  0  0  0  0  0  0  0  0  0
   18.2559  -12.2318  -18.9079 N   0  0  0  0  0  0  0  0  0  0  0  0
   18.7320  -10.4358  -17.3596 C   0  0  0  0  0  0  0  0  0  0  0  0
   19.9886  -10.4300  -17.4136 O   0  0  0  0  0  0  0  0  0  0  0  0
   17.7858   -6.7688  -17.0364 C   0  0  0  0  0  0  0  0  0  0  0  0
   18.6972   -7.9593  -16.8759 C   0  0  2  0  0  0  0  0  0  0  0  0
   18.0491   -9.2140  -17.0947 N   0  0  0  0  0  0  0  0  0  0  0  0
   19.4437   -7.9147  -15.5835 C   0  0  0  0  0  0  0  0  0  0  0  0
   18.9867   -8.3113  -14.5045 O   0  0  0  0  0  0  0  0  0  0  0  0
   23.6244   -7.7051  -15.7279 C   0  0  0  0  0  0  0  0  0  0  0  0
   22.8236   -8.1367  -14.5268 C   0  0  2  0  0  0  0  0  0  0  0  0
   22.4325   -9.5938  -14.6550 C   0  0  0  0  0  0  0  0  0  0  0  0
   21.5808   -7.2687  -14.4145 C   0  0  2  0  0  0  0  0  0  0  0  0
   20.7615   -7.3808  -15.6066 N   0  0  0  0  0  0  0  0  0  0  0  0
   22.0040   -5.8596  -14.2910 C   0  0  0  0  0  0  0  0  0  0  0  0
   21.8647   -5.0968  -15.2719 O   0  0  0  0  0  0  0  0  0  0  0  0
   22.5461   -5.3742  -13.1209 O   0  0  0  0  0  0  0  0  0  0  0  0
  2  3  1  0
  2  1  1  0
  3  4  1  1
  5  3  1  0
  5  6  1  6
  7  5  1  0
  8  7  2  0
 10  9  1  1
 10 11  1  0
 11  7  1  0
 12 10  1  0
 12 13  2  0
 15 14  1  6
 15 17  1  0
 16 15  1  0
 17 18  1  6
 18 12  1  0
 19 17  1  0
 20 19  2  0
 21 19  1  0
M  END
$$$$
