IAV.pdb
     RDKit          3D

 21 20  0  0  1  0  0  0  0  0999 V2000
   17.8738  -15.8831  -17.3363 C   0  0  0  0  0  0  0  0  0  0  0  0
   17.5957  -14.8625  -16.2721 C   0  0  0  0  0  0  0  0  0  0  0  0
   18.0113  -13.4692  -16.6599 C   0  0  2  0  0  0  0  0  0  0  0  0
   19.4687  -13.4108  -17.0216 C   0  0  0  0  0  0  0  0  0  0  0  0
   17.6292  -12.4934  -15.5728 C   0  0  2  0  0  0  0  0  0  0  0  0
   16.2014  -12.5504  -15.4044 N   0  0  0  0  0  0  0  0  0  0  0  0
   18.0871  -11.1150  -15.8876 C   0  0  0  0  0  0  0  0  0  0  0  0
   19.3261  -10.9090  -15.9538 O   0  0  0  0  0  0  0  0  0  0  0  0
   16.4945   -7.8257  -16.9596 C   0  0  0  0  0  0  0  0  0  0  0  0
   17.6108   -8.7011  -16.4483 C   0  0  2  0  0  0  0  0  0  0  0  0
   17.1957  -10.0274  -16.1153 N   0  0  0  0  0  0  0  0  0  0  0  0
   18.3703   -8.0415  -15.3448 C   0  0  0  0  0  0  0  0  0  0  0  0
   18.1548   -8.2354  -14.1421 O   0  0  0  0  0  0  0  0  0  0  0  0
   22.0078   -8.0911  -14.7880 C   0  0  0  0  0  0  0  0  0  0  0  0
   21.6815   -6.6318  -14.9722 C   0  0  2  0  0  0  0  0  0  0  0  0
   22.4930   -5.7890  -14.0113 C   0  0  0  0  0  0  0  0  0  0  0  0
   20.1960   -6.4160  -14.7322 C   0  0  2  0  0  0  0  0  0  0  0  0
   19.4034   -7.1357  -15.7113 N   0  0  0  0  0  0  0  0  0  0  0  0
   19.9016   -4.9773  -14.8855 C   0  0  0  0  0  0  0  0  0  0  0  0
   19.5892   -4.5397  -16.0143 O   0  0  0  0  0  0  0  0  0  0  0  0
   19.9648   -4.1147  -13.8129 O   0  0  0  0  0  0  0  0  0  0  0  0
  2  3  1  0
  2  1  1  0
  3  4  1  1
  5  3  1  0
  5  6  1  6
  7  5  1  0
  8  7  2  0
 10  9  1  1
 10 11  1  0
 11  7  1  0
 12 10  1  0
 12 13  2  0
 15 14  1  1
 15 17  1  0
 16 15  1  0
 17 18  1  6
 18 12  1  0
 19 17  1  0
 20 19  2  0
 21 19  1  0
M  END
$$$$
