IAV.pdb
     RDKit          3D

 21 20  0  0  1  0  0  0  0  0999 V2000
   18.6894  -13.5862  -19.7972 C   0  0  0  0  0  0  0  0  0  0  0  0
   20.0153  -12.9817  -19.4392 C   0  0  0  0  0  0  0  0  0  0  0  0
   19.9070  -11.8487  -18.4548 C   0  0  2  0  0  0  0  0  0  0  0  0
   18.9756  -10.7780  -18.9491 C   0  0  0  0  0  0  0  0  0  0  0  0
   21.2821  -11.3280  -18.1113 C   0  0  2  0  0  0  0  0  0  0  0  0
   22.1176  -12.4543  -17.7896 N   0  0  0  0  0  0  0  0  0  0  0  0
   21.2342  -10.3475  -16.9954 C   0  0  0  0  0  0  0  0  0  0  0  0
   20.5351   -9.3138  -17.1523 O   0  0  0  0  0  0  0  0  0  0  0  0
   22.3273  -10.2597  -13.3542 C   0  0  0  0  0  0  0  0  0  0  0  0
   21.8138   -9.6581  -14.6380 C   0  0  2  0  0  0  0  0  0  0  0  0
   21.9368  -10.5234  -15.7688 N   0  0  0  0  0  0  0  0  0  0  0  0
   22.3913   -8.3034  -14.8844 C   0  0  0  0  0  0  0  0  0  0  0  0
   23.4035   -8.0941  -15.5642 O   0  0  0  0  0  0  0  0  0  0  0  0
   19.8323   -5.1059  -14.7808 C   0  0  0  0  0  0  0  0  0  0  0  0
   21.2140   -5.0586  -15.3798 C   0  0  2  0  0  0  0  0  0  0  0  0
   21.2028   -5.6604  -16.7690 C   0  0  0  0  0  0  0  0  0  0  0  0
   22.1748   -5.8246  -14.4849 C   0  0  2  0  0  0  0  0  0  0  0  0
   21.7279   -7.1918  -14.2958 N   0  0  0  0  0  0  0  0  0  0  0  0
   22.2006   -5.1730  -13.1603 C   0  0  0  0  0  0  0  0  0  0  0  0
   21.5827   -5.7039  -12.2117 O   0  0  0  0  0  0  0  0  0  0  0  0
   22.8894   -3.9978  -12.9530 O   0  0  0  0  0  0  0  0  0  0  0  0
  2  3  1  0
  2  1  1  0
  3  4  1  6
  5  3  1  0
  5  6  1  1
  7  5  1  0
  8  7  2  0
 10  9  1  1
 10 11  1  0
 11  7  1  0
 12 10  1  0
 12 13  2  0
 15 14  1  1
 15 17  1  0
 16 15  1  0
 17 18  1  1
 18 12  1  0
 19 17  1  0
 20 19  2  0
 21 19  1  0
M  END
$$$$
