IAV.pdb
     RDKit          3D

 21 20  0  0  1  0  0  0  0  0999 V2000
   28.4468  -20.5372  -20.2661 C   0  0  0  0  0  0  0  0  0  0  0  0
   29.1619  -20.1463  -19.0062 C   0  0  0  0  0  0  0  0  0  0  0  0
   28.2641  -20.1079  -17.7992 C   0  0  2  0  0  0  0  0  0  0  0  0
   27.4325  -21.3550  -17.6926 C   0  0  0  0  0  0  0  0  0  0  0  0
   27.4399  -18.8428  -17.8070 C   0  0  2  0  0  0  0  0  0  0  0  0
   28.3421  -17.7234  -17.8631 N   0  0  0  0  0  0  0  0  0  0  0  0
   26.5452  -18.7639  -16.6229 C   0  0  0  0  0  0  0  0  0  0  0  0
   27.0598  -18.9266  -15.4868 O   0  0  0  0  0  0  0  0  0  0  0  0
   22.9284  -17.8590  -15.8747 C   0  0  0  0  0  0  0  0  0  0  0  0
   24.2481  -18.5361  -15.6031 C   0  0  2  0  0  0  0  0  0  0  0  0
   25.1456  -18.5149  -16.7150 N   0  0  0  0  0  0  0  0  0  0  0  0
   24.0616  -19.9064  -15.0400 C   0  0  0  0  0  0  0  0  0  0  0  0
   23.9282  -20.9264  -15.7272 O   0  0  0  0  0  0  0  0  0  0  0  0
   24.7794  -20.3495  -10.8548 C   0  0  0  0  0  0  0  0  0  0  0  0
   24.9666  -21.4553  -11.8610 C   0  0  2  0  0  0  0  0  0  0  0  0
   26.3578  -21.3920  -12.4550 C   0  0  0  0  0  0  0  0  0  0  0  0
   23.9223  -21.3180  -12.9570 C   0  0  2  0  0  0  0  0  0  0  0  0
   24.0373  -20.0348  -13.6240 N   0  0  0  0  0  0  0  0  0  0  0  0
   22.5834  -21.3844  -12.3382 C   0  0  0  0  0  0  0  0  0  0  0  0
   21.9746  -20.3196  -12.0954 O   0  0  0  0  0  0  0  0  0  0  0  0
   21.9973  -22.5917  -12.0260 O   0  0  0  0  0  0  0  0  0  0  0  0
  2  3  1  0
  2  1  1  0
  3  4  1  6
  5  3  1  0
  5  6  1  1
  7  5  1  0
  8  7  2  0
 10  9  1  6
 10 11  1  0
 11  7  1  0
 12 10  1  0
 12 13  2  0
 15 14  1  1
 15 17  1  0
 16 15  1  0
 17 18  1  1
 18 12  1  0
 19 17  1  0
 20 19  2  0
 21 19  1  0
M  END
$$$$
