PRD.pdb
     RDKit          3D

 27 27  0  0  1  0  0  0  0  0999 V2000
   26.9330  -12.9969  -16.7656 N   0  0  0  0  0  0  0  0  0  0  0  0
   28.1668  -12.3021  -16.9060 C   0  0  0  0  0  0  0  0  0  0  0  0
   28.0445  -11.0440  -16.0718 C   0  0  0  0  0  0  0  0  0  0  0  0
   27.1708  -11.5291  -14.9336 C   0  0  0  0  0  0  0  0  0  0  0  0
   26.1680  -12.3829  -15.7313 C   0  0  1  0  0  0  0  0  0  0  0  0
   25.1371  -11.4412  -16.2344 C   0  0  0  0  0  0  0  0  0  0  0  0
   25.2941  -10.8282  -17.3457 O   0  0  0  0  0  0  0  0  0  0  0  0
   16.6151  -12.6665  -17.5228 N   0  0  0  0  0  0  0  0  0  0  0  0
   16.8901  -11.3465  -17.9753 C   0  0  0  0  0  0  0  0  0  0  0  0
   16.0583  -10.6918  -18.7116 N   0  0  0  0  0  0  0  0  0  0  0  0
   18.1125  -10.6910  -17.6241 N   0  0  0  0  0  0  0  0  0  0  0  0
   19.2132  -11.3984  -17.0098 C   0  0  0  0  0  0  0  0  0  0  0  0
   20.4087  -10.4878  -16.8423 C   0  0  0  0  0  0  0  0  0  0  0  0
   21.5649  -11.2675  -16.2827 C   0  0  0  0  0  0  0  0  0  0  0  0
   22.7955  -10.4891  -16.1262 C   0  0  2  0  0  0  0  0  0  0  0  0
   23.9266  -11.1307  -15.5750 N   0  0  0  0  0  0  0  0  0  0  0  0
   22.4866   -9.2863  -15.2670 C   0  0  0  0  0  0  0  0  0  0  0  0
   23.0714   -9.1870  -14.1855 O   0  0  0  0  0  0  0  0  0  0  0  0
   16.2189   -9.7203  -18.9873 N   0  0  0  0  0  0  0  0  0  0  0  0
   21.5669   -8.2821  -15.6451 C   0  0  2  0  0  0  0  0  0  0  0  0
   21.4549   -7.0040  -15.0123 C   0  0  0  0  0  0  0  0  0  0  0  0
   22.7189   -6.2156  -14.9690 C   0  0  0  0  0  0  0  0  0  0  0  0
   22.5775   -4.9009  -14.3007 O   0  0  0  0  0  0  0  0  0  0  0  0
   23.3394   -3.9180  -14.5164 C   0  0  0  0  0  0  0  0  0  0  0  0
   20.4329   -6.2019  -15.7401 O   0  0  0  0  0  0  0  0  0  0  0  0
   19.4612   -5.4750  -15.0702 O   0  0  0  0  0  0  0  0  0  0  0  0
   21.5158   -4.7978  -13.3821 O   0  0  0  0  0  0  0  0  0  0  0  0
  1  2  1  0
  3  2  1  0
  4  3  1  0
  5  4  1  0
  5  1  1  0
  5  6  1  6
  7  6  2  0
  9  8  1  0
  9 10  2  0
 11  9  1  0
 12 13  1  0
 12 11  1  0
 14 13  1  0
 15 14  1  1
 15 16  1  0
 16  6  1  0
 17 15  1  0
 17 18  2  0
 19 17  1  0
 20 19  1  0
 20 21  1  6
 21 22  1  0
 22 26  1  0
 22 23  2  0
 24 20  1  0
 25 24  1  0
 27 24  2  0
M  END
$$$$
