PRD.pdb
     RDKit          3D

 27 27  0  0  1  0  0  0  0  0999 V2000
   27.7791  -19.3731  -16.6345 N   0  0  0  0  0  0  0  0  0  0  0  0
   28.8977  -20.1172  -16.1658 C   0  0  0  0  0  0  0  0  0  0  0  0
   28.6664  -21.5507  -16.5960 C   0  0  0  0  0  0  0  0  0  0  0  0
   27.9431  -21.3503  -17.9117 C   0  0  0  0  0  0  0  0  0  0  0  0
   27.0107  -20.1915  -17.5132 C   0  0  1  0  0  0  0  0  0  0  0  0
   25.8329  -20.8180  -16.8632 C   0  0  0  0  0  0  0  0  0  0  0  0
   25.0055  -21.5201  -17.5400 O   0  0  0  0  0  0  0  0  0  0  0  0
   25.8471  -20.7650   -8.6158 N   0  0  0  0  0  0  0  0  0  0  0  0
   24.6417  -20.8708   -9.3631 C   0  0  0  0  0  0  0  0  0  0  0  0
   23.4999  -20.5383   -8.8646 N   0  0  0  0  0  0  0  0  0  0  0  0
   24.6541  -21.3538  -10.7099 N   0  0  0  0  0  0  0  0  0  0  0  0
   25.8780  -21.7400  -11.3750 C   0  0  0  0  0  0  0  0  0  0  0  0
   25.8557  -21.3168  -12.8266 C   0  0  0  0  0  0  0  0  0  0  0  0
   24.5238  -21.6574  -13.4330 C   0  0  0  0  0  0  0  0  0  0  0  0
   24.3847  -21.2657  -14.8374 C   0  0  2  0  0  0  0  0  0  0  0  0
   25.5085  -20.7146  -15.4918 N   0  0  0  0  0  0  0  0  0  0  0  0
   23.2587  -20.2646  -14.9384 C   0  0  0  0  0  0  0  0  0  0  0  0
   23.4515  -19.1347  -14.4829 O   0  0  0  0  0  0  0  0  0  0  0  0
   22.6352  -20.5689   -9.4095 N   0  0  0  0  0  0  0  0  0  0  0  0
   22.0086  -20.5642  -15.5256 C   0  0  1  0  0  0  0  0  0  0  0  0
   20.9162  -19.6456  -15.6223 C   0  0  0  0  0  0  0  0  0  0  0  0
   20.0611  -19.8170  -16.8308 C   0  0  0  0  0  0  0  0  0  0  0  0
   20.7413  -19.4573  -18.0969 O   0  0  0  0  0  0  0  0  0  0  0  0
   21.8744  -18.9042  -18.1527 C   0  0  0  0  0  0  0  0  0  0  0  0
   20.0544  -19.8044  -14.4183 O   0  0  0  0  0  0  0  0  0  0  0  0
   19.0320  -18.9144  -14.1286 O   0  0  0  0  0  0  0  0  0  0  0  0
   20.0381  -19.7733  -19.2749 O   0  0  0  0  0  0  0  0  0  0  0  0
  1  2  1  0
  3  2  1  0
  4  3  1  0
  5  4  1  0
  5  1  1  0
  5  6  1  1
  7  6  2  0
  9  8  1  0
  9 10  2  0
 11  9  1  0
 12 13  1  0
 12 11  1  0
 14 13  1  0
 15 14  1  1
 15 16  1  0
 16  6  1  0
 17 15  1  0
 17 18  2  0
 19 17  1  0
 20 19  1  0
 20 21  1  1
 21 22  1  0
 22 26  1  0
 22 23  2  0
 24 20  1  0
 25 24  1  0
 27 24  2  0
M  END
$$$$
