PRD.pdb
     RDKit          3D

 27 27  0  0  1  0  0  0  0  0999 V2000
   26.5534  -19.7281  -15.8827 N   0  0  0  0  0  0  0  0  0  0  0  0
   27.4145  -18.9307  -15.0781 C   0  0  0  0  0  0  0  0  0  0  0  0
   27.7506  -19.7638  -13.8588 C   0  0  0  0  0  0  0  0  0  0  0  0
   27.7654  -21.1583  -14.4499 C   0  0  0  0  0  0  0  0  0  0  0  0
   26.5325  -21.0568  -15.3668 C   0  0  1  0  0  0  0  0  0  0  0  0
   25.3573  -21.3415  -14.5065 C   0  0  0  0  0  0  0  0  0  0  0  0
   25.2567  -22.4509  -13.8783 O   0  0  0  0  0  0  0  0  0  0  0  0
   23.6904  -20.9298   -9.1058 N   0  0  0  0  0  0  0  0  0  0  0  0
   22.3915  -20.8581   -8.5309 C   0  0  0  0  0  0  0  0  0  0  0  0
   22.0730  -21.5357   -7.4811 N   0  0  0  0  0  0  0  0  0  0  0  0
   21.3819  -20.0209   -9.1028 N   0  0  0  0  0  0  0  0  0  0  0  0
   21.6053  -19.2707  -10.3180 C   0  0  0  0  0  0  0  0  0  0  0  0
   21.7102  -20.1975  -11.5083 C   0  0  0  0  0  0  0  0  0  0  0  0
   22.9259  -19.8461  -12.3183 C   0  0  0  0  0  0  0  0  0  0  0  0
   23.1305  -20.6943  -13.4945 C   0  0  2  0  0  0  0  0  0  0  0  0
   24.2708  -20.4630  -14.2951 N   0  0  0  0  0  0  0  0  0  0  0  0
   21.9148  -20.5712  -14.3818 C   0  0  0  0  0  0  0  0  0  0  0  0
   21.7633  -19.5185  -15.0065 O   0  0  0  0  0  0  0  0  0  0  0  0
   21.1461  -21.4782   -7.0531 N   0  0  0  0  0  0  0  0  0  0  0  0
   20.9552  -21.5987  -14.5249 C   0  0  2  0  0  0  0  0  0  0  0  0
   19.7956  -21.5162  -15.3586 C   0  0  0  0  0  0  0  0  0  0  0  0
   19.2416  -22.8308  -15.7900 C   0  0  0  0  0  0  0  0  0  0  0  0
   20.0091  -23.4697  -16.8844 O   0  0  0  0  0  0  0  0  0  0  0  0
   20.9725  -22.9158  -17.4827 C   0  0  0  0  0  0  0  0  0  0  0  0
   18.7302  -20.7843  -14.6191 O   0  0  0  0  0  0  0  0  0  0  0  0
   17.7820  -20.0147  -15.2746 O   0  0  0  0  0  0  0  0  0  0  0  0
   19.5973  -24.7691  -17.2366 O   0  0  0  0  0  0  0  0  0  0  0  0
  1  2  1  0
  3  2  1  0
  4  3  1  0
  5  4  1  0
  5  1  1  0
  5  6  1  1
  7  6  2  0
  9  8  1  0
  9 10  2  0
 11  9  1  0
 12 13  1  0
 12 11  1  0
 14 13  1  0
 15 14  1  1
 15 16  1  0
 16  6  1  0
 17 15  1  0
 17 18  2  0
 19 17  1  0
 20 19  1  0
 20 21  1  6
 21 22  1  0
 22 26  1  0
 22 23  2  0
 24 20  1  0
 25 24  1  0
 27 24  2  0
M  END
$$$$
