PRD.pdb
     RDKit          3D

 27 27  0  0  1  0  0  0  0  0999 V2000
   28.1543  -19.4566  -18.6976 N   0  0  0  0  0  0  0  0  0  0  0  0
   27.3857  -18.5847  -19.5184 C   0  0  0  0  0  0  0  0  0  0  0  0
   26.6737  -17.6333  -18.5794 C   0  0  0  0  0  0  0  0  0  0  0  0
   27.6958  -17.4943  -17.4702 C   0  0  0  0  0  0  0  0  0  0  0  0
   28.1507  -18.9614  -17.3609 C   0  0  1  0  0  0  0  0  0  0  0  0
   27.1615  -19.6327  -16.4815 C   0  0  0  0  0  0  0  0  0  0  0  0
   26.3221  -20.4715  -16.9580 O   0  0  0  0  0  0  0  0  0  0  0  0
   25.6449  -19.9303   -7.8676 N   0  0  0  0  0  0  0  0  0  0  0  0
   24.9909  -21.0272   -8.4935 C   0  0  0  0  0  0  0  0  0  0  0  0
   23.8085  -21.4048   -8.1440 N   0  0  0  0  0  0  0  0  0  0  0  0
   25.6286  -21.7575   -9.5458 N   0  0  0  0  0  0  0  0  0  0  0  0
   26.5244  -21.1230  -10.4862 C   0  0  0  0  0  0  0  0  0  0  0  0
   25.8704  -20.9897  -11.8430 C   0  0  0  0  0  0  0  0  0  0  0  0
   26.8322  -20.3578  -12.8091 C   0  0  0  0  0  0  0  0  0  0  0  0
   26.3130  -20.2210  -14.1717 C   0  0  2  0  0  0  0  0  0  0  0  0
   27.0414  -19.4308  -15.0881 N   0  0  0  0  0  0  0  0  0  0  0  0
   24.9151  -19.6560  -14.0890 C   0  0  0  0  0  0  0  0  0  0  0  0
   24.7931  -18.4644  -13.7948 O   0  0  0  0  0  0  0  0  0  0  0  0
   23.3174  -22.1694   -8.6127 N   0  0  0  0  0  0  0  0  0  0  0  0
   23.7549  -20.4256  -14.3316 C   0  0  1  0  0  0  0  0  0  0  0  0
   22.4201  -19.9116  -14.3076 C   0  0  0  0  0  0  0  0  0  0  0  0
   21.5210  -20.4585  -15.3630 C   0  0  0  0  0  0  0  0  0  0  0  0
   20.8768  -19.4155  -16.1949 O   0  0  0  0  0  0  0  0  0  0  0  0
   21.0285  -18.1763  -16.0093 C   0  0  0  0  0  0  0  0  0  0  0  0
   21.8173  -20.2178  -12.9808 O   0  0  0  0  0  0  0  0  0  0  0  0
   20.7642  -19.4768  -12.4677 O   0  0  0  0  0  0  0  0  0  0  0  0
   20.0593  -19.8901  -17.2382 O   0  0  0  0  0  0  0  0  0  0  0  0
  1  2  1  0
  3  2  1  0
  4  3  1  0
  5  4  1  0
  5  1  1  0
  5  6  1  1
  7  6  2  0
  9  8  1  0
  9 10  2  0
 11  9  1  0
 12 13  1  0
 12 11  1  0
 14 13  1  0
 15 14  1  1
 15 16  1  0
 16  6  1  0
 17 15  1  0
 17 18  2  0
 19 17  1  0
 20 19  1  0
 20 21  1  6
 21 22  1  0
 22 26  1  0
 22 23  2  0
 24 20  1  0
 25 24  1  0
 27 24  2  0
M  END
$$$$
