PRD.pdb
     RDKit          3D

 27 27  0  0  1  0  0  0  0  0999 V2000
   22.8307  -11.7319  -15.1491 N   0  0  0  0  0  0  0  0  0  0  0  0
   23.8323  -11.7752  -16.1589 C   0  0  0  0  0  0  0  0  0  0  0  0
   24.2425  -10.3397  -16.4138 C   0  0  0  0  0  0  0  0  0  0  0  0
   24.0897   -9.7398  -15.0314 C   0  0  0  0  0  0  0  0  0  0  0  0
   22.7721  -10.4145  -14.6077 C   0  0  1  0  0  0  0  0  0  0  0  0
   21.6837   -9.5846  -15.1813 C   0  0  0  0  0  0  0  0  0  0  0  0
   21.9408   -8.6488  -16.0140 O   0  0  0  0  0  0  0  0  0  0  0  0
   13.7152  -12.7249  -15.0483 N   0  0  0  0  0  0  0  0  0  0  0  0
   14.7897  -13.3457  -15.7431 C   0  0  0  0  0  0  0  0  0  0  0  0
   14.6658  -14.5061  -16.2919 N   0  0  0  0  0  0  0  0  0  0  0  0
   16.0594  -12.6966  -15.8603 N   0  0  0  0  0  0  0  0  0  0  0  0
   16.2722  -11.3405  -15.4074 C   0  0  0  0  0  0  0  0  0  0  0  0
   17.7065  -10.9186  -15.6340 C   0  0  0  0  0  0  0  0  0  0  0  0
   17.8785   -9.4780  -15.2434 C   0  0  0  0  0  0  0  0  0  0  0  0
   19.2408   -8.9677  -15.4126 C   0  0  2  0  0  0  0  0  0  0  0  0
   20.3091   -9.7272  -14.8865 N   0  0  0  0  0  0  0  0  0  0  0  0
   19.3090   -7.5915  -14.7947 C   0  0  0  0  0  0  0  0  0  0  0  0
   19.4999   -7.5163  -13.5784 O   0  0  0  0  0  0  0  0  0  0  0  0
   15.4345  -14.9605  -16.7899 N   0  0  0  0  0  0  0  0  0  0  0  0
   19.1648   -6.4008  -15.5421 C   0  0  2  0  0  0  0  0  0  0  0  0
   19.2772   -5.0824  -14.9983 C   0  0  0  0  0  0  0  0  0  0  0  0
   20.6609   -4.5289  -14.9826 C   0  0  0  0  0  0  0  0  0  0  0  0
   20.7399   -3.1382  -14.4780 O   0  0  0  0  0  0  0  0  0  0  0  0
   19.7331   -2.4540  -14.1446 C   0  0  0  0  0  0  0  0  0  0  0  0
   18.4197   -4.1643  -15.7979 O   0  0  0  0  0  0  0  0  0  0  0  0
   17.8527   -3.0266  -15.2452 O   0  0  0  0  0  0  0  0  0  0  0  0
   22.0369   -2.5986  -14.3855 O   0  0  0  0  0  0  0  0  0  0  0  0
  1  2  1  0
  3  2  1  0
  4  3  1  0
  5  4  1  0
  5  1  1  0
  5  6  1  6
  7  6  2  0
  9  8  1  0
  9 10  2  0
 11  9  1  0
 12 13  1  0
 12 11  1  0
 14 13  1  0
 15 14  1  1
 15 16  1  0
 16  6  1  0
 17 15  1  0
 17 18  2  0
 19 17  1  0
 20 19  1  0
 20 21  1  6
 21 22  1  0
 22 26  1  0
 22 23  2  0
 24 20  1  0
 25 24  1  0
 27 24  2  0
M  END
$$$$
