PRD.pdb
     RDKit          3D

 27 27  0  0  1  0  0  0  0  0999 V2000
   25.3964  -18.0166  -18.1457 N   0  0  0  0  0  0  0  0  0  0  0  0
   24.2092  -17.6607  -18.8447 C   0  0  0  0  0  0  0  0  0  0  0  0
   23.1537  -17.4050  -17.7891 C   0  0  0  0  0  0  0  0  0  0  0  0
   23.9927  -16.8285  -16.6674 C   0  0  0  0  0  0  0  0  0  0  0  0
   25.2100  -17.7674  -16.7546 C   0  0  1  0  0  0  0  0  0  0  0  0
   24.8497  -18.9791  -15.9772 C   0  0  0  0  0  0  0  0  0  0  0  0
   24.4890  -20.0547  -16.5674 O   0  0  0  0  0  0  0  0  0  0  0  0
   30.3070  -19.9414  -11.2308 N   0  0  0  0  0  0  0  0  0  0  0  0
   29.5023  -21.1089  -11.1207 C   0  0  0  0  0  0  0  0  0  0  0  0
   29.7464  -22.0244  -10.2460 N   0  0  0  0  0  0  0  0  0  0  0  0
   28.3801  -21.3101  -11.9854 N   0  0  0  0  0  0  0  0  0  0  0  0
   28.0320  -20.3654  -13.0226 C   0  0  0  0  0  0  0  0  0  0  0  0
   26.7772  -19.6053  -12.6561 C   0  0  0  0  0  0  0  0  0  0  0  0
   25.5926  -20.5282  -12.7082 C   0  0  0  0  0  0  0  0  0  0  0  0
   24.6502  -20.2362  -13.7906 C   0  0  2  0  0  0  0  0  0  0  0  0
   24.8634  -19.0762  -14.5675 N   0  0  0  0  0  0  0  0  0  0  0  0
   23.2649  -20.1421  -13.1969 C   0  0  0  0  0  0  0  0  0  0  0  0
   22.8865  -19.0400  -12.7923 O   0  0  0  0  0  0  0  0  0  0  0  0
   29.2173  -22.8985  -10.2066 N   0  0  0  0  0  0  0  0  0  0  0  0
   22.3944  -21.2500  -13.0866 C   0  0  1  0  0  0  0  0  0  0  0  0
   20.9972  -21.2180  -13.3917 C   0  0  0  0  0  0  0  0  0  0  0  0
   20.6130  -20.2531  -14.4606 C   0  0  0  0  0  0  0  0  0  0  0  0
   19.6615  -19.2115  -14.0081 O   0  0  0  0  0  0  0  0  0  0  0  0
   19.3236  -19.0448  -12.8035 C   0  0  0  0  0  0  0  0  0  0  0  0
   20.5739  -22.5793  -13.8221 O   0  0  0  0  0  0  0  0  0  0  0  0
   19.3755  -23.1379  -13.4061 O   0  0  0  0  0  0  0  0  0  0  0  0
   19.1346  -18.3888  -15.0217 O   0  0  0  0  0  0  0  0  0  0  0  0
  1  2  1  0
  3  2  1  0
  4  3  1  0
  5  4  1  0
  5  1  1  0
  5  6  1  1
  7  6  2  0
  9  8  1  0
  9 10  2  0
 11  9  1  0
 12 13  1  0
 12 11  1  0
 14 13  1  0
 15 14  1  1
 15 16  1  0
 16  6  1  0
 17 15  1  0
 17 18  2  0
 19 17  1  0
 20 19  1  0
 20 21  1  1
 21 22  1  0
 22 26  1  0
 22 23  2  0
 24 20  1  0
 25 24  1  0
 27 24  2  0
M  END
$$$$
