PRD.pdb
     RDKit          3D

 27 27  0  0  1  0  0  0  0  0999 V2000
   44.5249  -11.8959   -8.2720 N   0  0  0  0  0  0  0  0  0  0  0  0
   43.9090  -12.3730   -7.0813 C   0  0  0  0  0  0  0  0  0  0  0  0
   44.9014  -13.3189   -6.4378 C   0  0  0  0  0  0  0  0  0  0  0  0
   46.2161  -12.6717   -6.8210 C   0  0  0  0  0  0  0  0  0  0  0  0
   45.8947  -12.2906   -8.2779 C   0  0  1  0  0  0  0  0  0  0  0  0
   46.1590  -13.5060   -9.0874 C   0  0  0  0  0  0  0  0  0  0  0  0
   47.3498  -13.8178   -9.4342 O   0  0  0  0  0  0  0  0  0  0  0  0
   42.4091  -21.3789   -9.3281 N   0  0  0  0  0  0  0  0  0  0  0  0
   43.1734  -20.5210   -8.4900 C   0  0  0  0  0  0  0  0  0  0  0  0
   43.2490  -20.7041   -7.2157 N   0  0  0  0  0  0  0  0  0  0  0  0
   43.8948  -19.4133   -9.0376 N   0  0  0  0  0  0  0  0  0  0  0  0
   43.8266  -19.0718  -10.4405 C   0  0  0  0  0  0  0  0  0  0  0  0
   44.8195  -17.9816  -10.7756 C   0  0  0  0  0  0  0  0  0  0  0  0
   44.5001  -16.7449   -9.9842 C   0  0  0  0  0  0  0  0  0  0  0  0
   45.3840  -15.6101  -10.2595 C   0  0  2  0  0  0  0  0  0  0  0  0
   45.1741  -14.4106   -9.5439 N   0  0  0  0  0  0  0  0  0  0  0  0
   45.2925  -15.2874  -11.7319 C   0  0  0  0  0  0  0  0  0  0  0  0
   45.5380  -16.1911  -12.5347 O   0  0  0  0  0  0  0  0  0  0  0  0
   43.8272  -20.1156   -6.6118 N   0  0  0  0  0  0  0  0  0  0  0  0
   44.9419  -14.0094  -12.2227 C   0  0  1  0  0  0  0  0  0  0  0  0
   44.9063  -13.6534  -13.6077 C   0  0  0  0  0  0  0  0  0  0  0  0
   44.1338  -12.4165  -13.9152 C   0  0  0  0  0  0  0  0  0  0  0  0
   44.1790  -12.0264  -15.3438 O   0  0  0  0  0  0  0  0  0  0  0  0
   44.0279  -12.8380  -16.2984 C   0  0  0  0  0  0  0  0  0  0  0  0
   46.3037  -13.4575  -14.0836 O   0  0  0  0  0  0  0  0  0  0  0  0
   46.6814  -13.7532  -15.3841 O   0  0  0  0  0  0  0  0  0  0  0  0
   44.4064  -10.6596  -15.5930 O   0  0  0  0  0  0  0  0  0  0  0  0
  1  2  1  0
  3  2  1  0
  4  3  1  0
  5  4  1  0
  5  1  1  0
  5  6  1  6
  7  6  2  0
  9  8  1  0
  9 10  2  0
 11  9  1  0
 12 13  1  0
 12 11  1  0
 14 13  1  0
 15 14  1  1
 15 16  1  0
 16  6  1  0
 17 15  1  0
 17 18  2  0
 19 17  1  0
 20 19  1  0
 20 21  1  6
 21 22  1  0
 22 26  1  0
 22 23  2  0
 24 20  1  0
 25 24  1  0
 27 24  2  0
M  END
$$$$
