PRD.pdb
     RDKit          3D

 27 27  0  0  1  0  0  0  0  0999 V2000
   28.4991  -18.1902  -17.7525 N   0  0  0  0  0  0  0  0  0  0  0  0
   28.0989  -17.6335  -18.9993 C   0  0  0  0  0  0  0  0  0  0  0  0
   26.7429  -17.0000  -18.7674 C   0  0  0  0  0  0  0  0  0  0  0  0
   26.8813  -16.5239  -17.3361 C   0  0  0  0  0  0  0  0  0  0  0  0
   27.6082  -17.7408  -16.7346 C   0  0  1  0  0  0  0  0  0  0  0  0
   26.5496  -18.7240  -16.3952 C   0  0  0  0  0  0  0  0  0  0  0  0
   26.2910  -19.7052  -17.1735 O   0  0  0  0  0  0  0  0  0  0  0  0
   26.6337  -20.5907   -9.1662 N   0  0  0  0  0  0  0  0  0  0  0  0
   25.3831  -20.8437   -9.7942 C   0  0  0  0  0  0  0  0  0  0  0  0
   24.2628  -20.6078   -9.2007 N   0  0  0  0  0  0  0  0  0  0  0  0
   25.3234  -21.3733  -11.1221 N   0  0  0  0  0  0  0  0  0  0  0  0
   26.5095  -21.5635  -11.9260 C   0  0  0  0  0  0  0  0  0  0  0  0
   26.4873  -20.6577  -13.1367 C   0  0  0  0  0  0  0  0  0  0  0  0
   25.0762  -20.2274  -13.4216 C   0  0  0  0  0  0  0  0  0  0  0  0
   24.8707  -19.6947  -14.7702 C   0  0  2  0  0  0  0  0  0  0  0  0
   25.7479  -18.6887  -15.2322 N   0  0  0  0  0  0  0  0  0  0  0  0
   23.4646  -19.1502  -14.8530 C   0  0  0  0  0  0  0  0  0  0  0  0
   23.2477  -18.0410  -14.3589 O   0  0  0  0  0  0  0  0  0  0  0  0
   23.3597  -20.7880   -9.6451 N   0  0  0  0  0  0  0  0  0  0  0  0
   22.3999  -19.8495  -15.4650 C   0  0  1  0  0  0  0  0  0  0  0  0
   21.0799  -19.3266  -15.6406 C   0  0  0  0  0  0  0  0  0  0  0  0
   20.3010  -19.9548  -16.7451 C   0  0  0  0  0  0  0  0  0  0  0  0
   19.8362  -18.9900  -17.7689 O   0  0  0  0  0  0  0  0  0  0  0  0
   20.0243  -17.7441  -17.6964 C   0  0  0  0  0  0  0  0  0  0  0  0
   20.3218  -19.5156  -14.3729 O   0  0  0  0  0  0  0  0  0  0  0  0
   20.6208  -20.5399  -13.4881 O   0  0  0  0  0  0  0  0  0  0  0  0
   19.1511  -19.5498  -18.8639 O   0  0  0  0  0  0  0  0  0  0  0  0
  1  2  1  0
  3  2  1  0
  4  3  1  0
  5  4  1  0
  5  1  1  0
  5  6  1  6
  7  6  2  0
  9  8  1  0
  9 10  2  0
 11  9  1  0
 12 13  1  0
 12 11  1  0
 14 13  1  0
 15 14  1  1
 15 16  1  0
 16  6  1  0
 17 15  1  0
 17 18  2  0
 19 17  1  0
 20 19  1  0
 20 21  1  6
 21 22  1  0
 22 26  1  0
 22 23  2  0
 24 20  1  0
 25 24  1  0
 27 24  2  0
M  END
$$$$
