PRD.pdb
     RDKit          3D

 27 27  0  0  1  0  0  0  0  0999 V2000
   17.6262  -16.0317    3.6461 N   0  0  0  0  0  0  0  0  0  0  0  0
   16.4523  -15.7239    2.9033 C   0  0  0  0  0  0  0  0  0  0  0  0
   16.5505  -14.2570    2.5397 C   0  0  0  0  0  0  0  0  0  0  0  0
   18.0463  -14.0972    2.3622 C   0  0  0  0  0  0  0  0  0  0  0  0
   18.5334  -14.9357    3.5583 C   0  0  1  0  0  0  0  0  0  0  0  0
   18.4906  -14.0335    4.7358 C   0  0  0  0  0  0  0  0  0  0  0  0
   19.2313  -12.9925    4.7928 O   0  0  0  0  0  0  0  0  0  0  0  0
   13.6434   -9.6505   10.0816 N   0  0  0  0  0  0  0  0  0  0  0  0
   13.4208  -10.2851    8.8285 C   0  0  0  0  0  0  0  0  0  0  0  0
   12.7045   -9.7385    7.9060 N   0  0  0  0  0  0  0  0  0  0  0  0
   13.9915  -11.5659    8.5437 N   0  0  0  0  0  0  0  0  0  0  0  0
   14.9215  -12.2086    9.4445 C   0  0  0  0  0  0  0  0  0  0  0  0
   16.3021  -12.2757    8.8313 C   0  0  0  0  0  0  0  0  0  0  0  0
   16.3010  -13.2487    7.6862 C   0  0  0  0  0  0  0  0  0  0  0  0
   17.5933  -13.3832    7.0104 C   0  0  2  0  0  0  0  0  0  0  0  0
   17.6681  -14.2139    5.8706 N   0  0  0  0  0  0  0  0  0  0  0  0
   18.6001  -13.8912    8.0147 C   0  0  0  0  0  0  0  0  0  0  0  0
   18.6935  -15.1115    8.1681 O   0  0  0  0  0  0  0  0  0  0  0  0
   12.5550  -10.1799    6.9959 N   0  0  0  0  0  0  0  0  0  0  0  0
   19.4295  -13.0378    8.7770 C   0  0  2  0  0  0  0  0  0  0  0  0
   20.4300  -13.4866    9.6956 C   0  0  0  0  0  0  0  0  0  0  0  0
   21.6351  -12.6139    9.7822 C   0  0  0  0  0  0  0  0  0  0  0  0
   22.6599  -13.1068   10.7318 O   0  0  0  0  0  0  0  0  0  0  0  0
   22.6347  -14.2531   11.2594 C   0  0  0  0  0  0  0  0  0  0  0  0
   19.8233  -13.5749   11.0527 O   0  0  0  0  0  0  0  0  0  0  0  0
   18.5786  -13.0335   11.3336 O   0  0  0  0  0  0  0  0  0  0  0  0
   23.6985  -12.2036   11.0272 O   0  0  0  0  0  0  0  0  0  0  0  0
  1  2  1  0
  3  2  1  0
  4  3  1  0
  5  4  1  0
  5  1  1  0
  5  6  1  1
  7  6  2  0
  9  8  1  0
  9 10  2  0
 11  9  1  0
 12 13  1  0
 12 11  1  0
 14 13  1  0
 15 14  1  1
 15 16  1  0
 16  6  1  0
 17 15  1  0
 17 18  2  0
 19 17  1  0
 20 19  1  0
 20 21  1  6
 21 22  1  0
 22 26  1  0
 22 23  2  0
 24 20  1  0
 25 24  1  0
 27 24  2  0
M  END
$$$$
