PRD.pdb
     RDKit          3D

 27 27  0  0  1  0  0  0  0  0999 V2000
   22.7021  -28.8738  -17.0882 N   0  0  0  0  0  0  0  0  0  0  0  0
   22.2834  -29.6821  -15.9946 C   0  0  0  0  0  0  0  0  0  0  0  0
   21.3918  -28.8090  -15.1365 C   0  0  0  0  0  0  0  0  0  0  0  0
   20.7318  -27.9398  -16.1868 C   0  0  0  0  0  0  0  0  0  0  0  0
   21.9500  -27.6630  -17.0871 C   0  0  1  0  0  0  0  0  0  0  0  0
   22.6657  -26.5197  -16.4681 C   0  0  0  0  0  0  0  0  0  0  0  0
   23.6571  -26.7128  -15.6837 O   0  0  0  0  0  0  0  0  0  0  0  0
   28.5653  -20.8473  -17.9359 N   0  0  0  0  0  0  0  0  0  0  0  0
   28.0616  -21.3678  -16.7120 C   0  0  0  0  0  0  0  0  0  0  0  0
   28.8352  -21.9021  -15.8293 N   0  0  0  0  0  0  0  0  0  0  0  0
   26.6633  -21.3149  -16.4131 N   0  0  0  0  0  0  0  0  0  0  0  0
   25.7141  -22.2195  -17.0214 C   0  0  0  0  0  0  0  0  0  0  0  0
   24.3093  -21.9191  -16.5496 C   0  0  0  0  0  0  0  0  0  0  0  0
   23.3601  -22.9466  -17.0983 C   0  0  0  0  0  0  0  0  0  0  0  0
   23.0524  -24.0371  -16.1704 C   0  0  2  0  0  0  0  0  0  0  0  0
   22.3483  -25.1570  -16.6653 N   0  0  0  0  0  0  0  0  0  0  0  0
   22.2572  -23.4673  -15.0201 C   0  0  0  0  0  0  0  0  0  0  0  0
   22.5537  -22.3390  -14.6194 O   0  0  0  0  0  0  0  0  0  0  0  0
   28.4765  -22.3136  -14.9648 N   0  0  0  0  0  0  0  0  0  0  0  0
   21.2006  -24.1637  -14.3910 C   0  0  1  0  0  0  0  0  0  0  0  0
   20.1415  -23.5417  -13.6576 C   0  0  0  0  0  0  0  0  0  0  0  0
   19.4313  -22.4535  -14.3876 C   0  0  0  0  0  0  0  0  0  0  0  0
   18.3673  -21.7988  -13.5913 O   0  0  0  0  0  0  0  0  0  0  0  0
   17.1709  -22.1991  -13.5544 C   0  0  0  0  0  0  0  0  0  0  0  0
   19.1421  -24.5831  -13.2914 O   0  0  0  0  0  0  0  0  0  0  0  0
   18.6470  -24.7000  -12.0021 O   0  0  0  0  0  0  0  0  0  0  0  0
   18.7694  -20.6698  -12.8526 O   0  0  0  0  0  0  0  0  0  0  0  0
  1  2  1  0
  3  2  1  0
  4  3  1  0
  5  4  1  0
  5  1  1  0
  5  6  1  1
  7  6  2  0
  9  8  1  0
  9 10  2  0
 11  9  1  0
 12 13  1  0
 12 11  1  0
 14 13  1  0
 15 14  1  6
 15 16  1  0
 16  6  1  0
 17 15  1  0
 17 18  2  0
 19 17  1  0
 20 19  1  0
 20 21  1  1
 21 22  1  0
 22 26  1  0
 22 23  2  0
 24 20  1  0
 25 24  1  0
 27 24  2  0
M  END
$$$$
