PRD.pdb
     RDKit          3D

 27 27  0  0  1  0  0  0  0  0999 V2000
   28.3948  -22.2568  -16.8980 N   0  0  0  0  0  0  0  0  0  0  0  0
   27.8932  -22.1137  -18.2218 C   0  0  0  0  0  0  0  0  0  0  0  0
   26.9214  -20.9526  -18.1861 C   0  0  0  0  0  0  0  0  0  0  0  0
   27.5654  -20.0616  -17.1441 C   0  0  0  0  0  0  0  0  0  0  0  0
   27.9870  -21.1329  -16.1216 C   0  0  1  0  0  0  0  0  0  0  0  0
   26.7904  -21.3928  -15.2833 C   0  0  0  0  0  0  0  0  0  0  0  0
   25.8986  -22.2312  -15.6538 O   0  0  0  0  0  0  0  0  0  0  0  0
   22.1318  -20.9204   -8.4841 N   0  0  0  0  0  0  0  0  0  0  0  0
   23.4817  -21.1147   -8.0810 C   0  0  0  0  0  0  0  0  0  0  0  0
   23.7893  -21.8288   -7.0522 N   0  0  0  0  0  0  0  0  0  0  0  0
   24.5580  -20.5192   -8.8119 N   0  0  0  0  0  0  0  0  0  0  0  0
   24.3296  -19.5546   -9.8639 C   0  0  0  0  0  0  0  0  0  0  0  0
   24.1472  -20.2472  -11.1957 C   0  0  0  0  0  0  0  0  0  0  0  0
   25.4899  -20.5243  -11.8106 C   0  0  0  0  0  0  0  0  0  0  0  0
   25.4292  -21.0404  -13.1798 C   0  0  2  0  0  0  0  0  0  0  0  0
   26.5147  -20.7740  -14.0432 N   0  0  0  0  0  0  0  0  0  0  0  0
   24.1802  -20.4984  -13.8330 C   0  0  0  0  0  0  0  0  0  0  0  0
   24.1657  -19.3049  -14.1439 O   0  0  0  0  0  0  0  0  0  0  0  0
   24.7572  -21.9729   -6.7558 N   0  0  0  0  0  0  0  0  0  0  0  0
   23.0412  -21.2913  -14.0998 C   0  0  1  0  0  0  0  0  0  0  0  0
   21.8855  -20.8387  -14.8110 C   0  0  0  0  0  0  0  0  0  0  0  0
   21.3072  -21.8319  -15.7599 C   0  0  0  0  0  0  0  0  0  0  0  0
   21.8789  -21.7540  -17.1245 O   0  0  0  0  0  0  0  0  0  0  0  0
   22.7298  -20.8927  -17.4812 C   0  0  0  0  0  0  0  0  0  0  0  0
   20.8326  -20.4741  -13.8230 O   0  0  0  0  0  0  0  0  0  0  0  0
   19.6706  -19.8197  -14.2009 O   0  0  0  0  0  0  0  0  0  0  0  0
   21.4110  -22.7203  -18.0350 O   0  0  0  0  0  0  0  0  0  0  0  0
  1  2  1  0
  3  2  1  0
  4  3  1  0
  5  4  1  0
  5  1  1  0
  5  6  1  1
  7  6  2  0
  9  8  1  0
  9 10  2  0
 11  9  1  0
 12 13  1  0
 12 11  1  0
 14 13  1  0
 15 14  1  1
 15 16  1  0
 16  6  1  0
 17 15  1  0
 17 18  2  0
 19 17  1  0
 20 19  1  0
 20 21  1  1
 21 22  1  0
 22 26  1  0
 22 23  2  0
 24 20  1  0
 25 24  1  0
 27 24  2  0
M  END
$$$$
