PRD.pdb
     RDKit          3D

 27 27  0  0  1  0  0  0  0  0999 V2000
   25.1032  -21.6834  -14.2742 N   0  0  0  0  0  0  0  0  0  0  0  0
   25.0456  -22.9224  -13.5770 C   0  0  0  0  0  0  0  0  0  0  0  0
   24.0876  -23.8031  -14.3517 C   0  0  0  0  0  0  0  0  0  0  0  0
   24.3470  -23.3429  -15.7713 C   0  0  0  0  0  0  0  0  0  0  0  0
   24.4451  -21.8252  -15.5307 C   0  0  1  0  0  0  0  0  0  0  0  0
   23.0499  -21.3192  -15.5309 C   0  0  0  0  0  0  0  0  0  0  0  0
   22.3507  -21.3216  -16.6016 O   0  0  0  0  0  0  0  0  0  0  0  0
   20.0533  -23.8850   -9.4420 N   0  0  0  0  0  0  0  0  0  0  0  0
   19.1678  -24.4334  -10.4104 C   0  0  0  0  0  0  0  0  0  0  0  0
   18.7908  -25.6659  -10.3679 N   0  0  0  0  0  0  0  0  0  0  0  0
   18.6571  -23.6274  -11.4766 N   0  0  0  0  0  0  0  0  0  0  0  0
   19.0630  -22.2524  -11.6608 C   0  0  0  0  0  0  0  0  0  0  0  0
   19.7791  -22.0772  -12.9810 C   0  0  0  0  0  0  0  0  0  0  0  0
   20.2761  -20.6646  -13.1042 C   0  0  0  0  0  0  0  0  0  0  0  0
   21.0204  -20.3943  -14.3362 C   0  0  2  0  0  0  0  0  0  0  0  0
   22.3707  -20.8030  -14.4044 N   0  0  0  0  0  0  0  0  0  0  0  0
   20.9778  -18.9075  -14.5963 C   0  0  0  0  0  0  0  0  0  0  0  0
   21.6847  -18.1805  -13.8939 O   0  0  0  0  0  0  0  0  0  0  0  0
   18.1779  -26.0753  -11.0766 N   0  0  0  0  0  0  0  0  0  0  0  0
   20.1720  -18.3209  -15.5982 C   0  0  2  0  0  0  0  0  0  0  0  0
   20.0979  -16.9168  -15.8617 C   0  0  0  0  0  0  0  0  0  0  0  0
   20.2259  -16.5433  -17.2988 C   0  0  0  0  0  0  0  0  0  0  0  0
   20.0434  -15.0956  -17.5559 O   0  0  0  0  0  0  0  0  0  0  0  0
   19.7991  -14.2476  -16.6536 C   0  0  0  0  0  0  0  0  0  0  0  0
   18.7889  -16.4090  -15.3655 O   0  0  0  0  0  0  0  0  0  0  0  0
   18.5951  -15.0734  -15.0495 O   0  0  0  0  0  0  0  0  0  0  0  0
   20.1598  -14.6985  -18.9015 O   0  0  0  0  0  0  0  0  0  0  0  0
  1  2  1  0
  3  2  1  0
  4  3  1  0
  5  4  1  0
  5  1  1  0
  5  6  1  1
  7  6  2  0
  9  8  1  0
  9 10  2  0
 11  9  1  0
 12 13  1  0
 12 11  1  0
 14 13  1  0
 15 14  1  1
 15 16  1  0
 16  6  1  0
 17 15  1  0
 17 18  2  0
 19 17  1  0
 20 19  1  0
 20 21  1  6
 21 22  1  0
 22 26  1  0
 22 23  2  0
 24 20  1  0
 25 24  1  0
 27 24  2  0
M  END
$$$$
