PRD.pdb
     RDKit          3D

 27 27  0  0  1  0  0  0  0  0999 V2000
   24.4611  -12.1128  -14.9984 N   0  0  0  0  0  0  0  0  0  0  0  0
   24.2180  -13.2406  -15.8312 C   0  0  0  0  0  0  0  0  0  0  0  0
   24.2065  -12.7243  -17.2549 C   0  0  0  0  0  0  0  0  0  0  0  0
   25.2285  -11.6093  -17.1721 C   0  0  0  0  0  0  0  0  0  0  0  0
   24.8314  -11.0034  -15.8134 C   0  0  1  0  0  0  0  0  0  0  0  0
   23.7108  -10.0711  -16.0922 C   0  0  0  0  0  0  0  0  0  0  0  0
   23.8590   -9.0885  -16.8970 O   0  0  0  0  0  0  0  0  0  0  0  0
   15.6488  -12.9421  -16.2092 N   0  0  0  0  0  0  0  0  0  0  0  0
   16.7170  -13.4780  -16.9803 C   0  0  0  0  0  0  0  0  0  0  0  0
   16.5891  -14.5694  -17.6550 N   0  0  0  0  0  0  0  0  0  0  0  0
   17.9845  -12.8165  -17.0364 N   0  0  0  0  0  0  0  0  0  0  0  0
   18.2521  -11.6072  -16.2912 C   0  0  0  0  0  0  0  0  0  0  0  0
   19.6654  -11.1283  -16.5364 C   0  0  0  0  0  0  0  0  0  0  0  0
   19.9612   -9.9496  -15.6528 C   0  0  0  0  0  0  0  0  0  0  0  0
   21.2919   -9.3702  -15.8489 C   0  0  2  0  0  0  0  0  0  0  0  0
   22.4184  -10.1593  -15.5277 N   0  0  0  0  0  0  0  0  0  0  0  0
   21.3767   -8.0989  -15.0384 C   0  0  0  0  0  0  0  0  0  0  0  0
   21.7113   -8.1929  -13.8549 O   0  0  0  0  0  0  0  0  0  0  0  0
   17.3488  -14.9554  -18.2203 N   0  0  0  0  0  0  0  0  0  0  0  0
   21.0923   -6.8216  -15.5722 C   0  0  1  0  0  0  0  0  0  0  0  0
   21.2145   -5.5937  -14.8484 C   0  0  0  0  0  0  0  0  0  0  0  0
   22.1859   -4.6221  -15.4260 C   0  0  0  0  0  0  0  0  0  0  0  0
   22.2413   -3.3325  -14.6987 O   0  0  0  0  0  0  0  0  0  0  0  0
   22.2160   -3.2342  -13.4407 C   0  0  0  0  0  0  0  0  0  0  0  0
   19.8784   -4.9382  -14.7966 O   0  0  0  0  0  0  0  0  0  0  0  0
   19.4940   -4.1453  -13.7266 O   0  0  0  0  0  0  0  0  0  0  0  0
   22.3264   -2.1829  -15.5069 O   0  0  0  0  0  0  0  0  0  0  0  0
  1  2  1  0
  3  2  1  0
  4  3  1  0
  5  4  1  0
  5  1  1  0
  5  6  1  6
  7  6  2  0
  9  8  1  0
  9 10  2  0
 11  9  1  0
 12 13  1  0
 12 11  1  0
 14 13  1  0
 15 14  1  1
 15 16  1  0
 16  6  1  0
 17 15  1  0
 17 18  2  0
 19 17  1  0
 20 19  1  0
 20 21  1  6
 21 22  1  0
 22 26  1  0
 22 23  2  0
 24 20  1  0
 25 24  1  0
 27 24  2  0
M  END
$$$$
