PRD.pdb
     RDKit          3D

 27 27  0  0  1  0  0  0  0  0999 V2000
   26.1761  -13.1163  -15.0390 N   0  0  0  0  0  0  0  0  0  0  0  0
   26.2008  -14.2458  -15.9041 C   0  0  0  0  0  0  0  0  0  0  0  0
   26.4859  -13.7126  -17.2927 C   0  0  0  0  0  0  0  0  0  0  0  0
   27.3911  -12.5397  -16.9777 C   0  0  0  0  0  0  0  0  0  0  0  0
   26.6554  -11.9763  -15.7479 C   0  0  1  0  0  0  0  0  0  0  0  0
   25.5743  -11.1092  -16.2787 C   0  0  0  0  0  0  0  0  0  0  0  0
   25.8459  -10.0854  -16.9952 O   0  0  0  0  0  0  0  0  0  0  0  0
   17.1540  -12.5393  -18.6885 N   0  0  0  0  0  0  0  0  0  0  0  0
   18.1483  -12.0688  -19.5900 C   0  0  0  0  0  0  0  0  0  0  0  0
   18.0473  -12.2383  -20.8643 N   0  0  0  0  0  0  0  0  0  0  0  0
   19.3077  -11.3817  -19.1093 N   0  0  0  0  0  0  0  0  0  0  0  0
   19.5397  -11.1623  -17.6996 C   0  0  0  0  0  0  0  0  0  0  0  0
   20.8032  -10.3603  -17.4828 C   0  0  0  0  0  0  0  0  0  0  0  0
   21.8738  -11.2462  -16.9114 C   0  0  0  0  0  0  0  0  0  0  0  0
   23.1277  -10.5537  -16.6063 C   0  0  2  0  0  0  0  0  0  0  0  0
   24.1919  -11.3068  -16.0628 N   0  0  0  0  0  0  0  0  0  0  0  0
   22.8237   -9.4297  -15.6448 C   0  0  0  0  0  0  0  0  0  0  0  0
   22.6340   -9.7211  -14.4613 O   0  0  0  0  0  0  0  0  0  0  0  0
   18.7268  -11.8515  -21.5233 N   0  0  0  0  0  0  0  0  0  0  0  0
   22.7483   -8.0747  -16.0390 C   0  0  2  0  0  0  0  0  0  0  0  0
   22.4525   -6.9879  -15.1570 C   0  0  0  0  0  0  0  0  0  0  0  0
   22.7322   -5.6352  -15.7167 C   0  0  0  0  0  0  0  0  0  0  0  0
   22.3908   -4.5273  -14.7942 O   0  0  0  0  0  0  0  0  0  0  0  0
   22.6037   -4.5582  -13.5505 C   0  0  0  0  0  0  0  0  0  0  0  0
   21.0096   -7.0501  -14.7942 O   0  0  0  0  0  0  0  0  0  0  0  0
   20.5686   -6.8001  -13.5041 O   0  0  0  0  0  0  0  0  0  0  0  0
   21.7971   -3.3999  -15.3928 O   0  0  0  0  0  0  0  0  0  0  0  0
  1  2  1  0
  3  2  1  0
  4  3  1  0
  5  4  1  0
  5  1  1  0
  5  6  1  6
  7  6  2  0
  9  8  1  0
  9 10  2  0
 11  9  1  0
 12 13  1  0
 12 11  1  0
 14 13  1  0
 15 14  1  1
 15 16  1  0
 16  6  1  0
 17 15  1  0
 17 18  2  0
 19 17  1  0
 20 19  1  0
 20 21  1  6
 21 22  1  0
 22 26  1  0
 22 23  2  0
 24 20  1  0
 25 24  1  0
 27 24  2  0
M  END
$$$$
