PRD.pdb
     RDKit          3D

 27 27  0  0  1  0  0  0  0  0999 V2000
   26.6320  -21.1998  -15.2274 N   0  0  0  0  0  0  0  0  0  0  0  0
   27.5877  -20.5215  -16.0344 C   0  0  0  0  0  0  0  0  0  0  0  0
   27.7758  -19.1533  -15.4127 C   0  0  0  0  0  0  0  0  0  0  0  0
   27.5941  -19.4703  -13.9428 C   0  0  0  0  0  0  0  0  0  0  0  0
   26.4058  -20.4447  -14.0397 C   0  0  1  0  0  0  0  0  0  0  0  0
   25.1868  -19.6002  -14.0959 C   0  0  0  0  0  0  0  0  0  0  0  0
   24.9062  -18.7883  -13.1486 O   0  0  0  0  0  0  0  0  0  0  0  0
   25.4010  -17.9366  -18.5209 N   0  0  0  0  0  0  0  0  0  0  0  0
   25.7164  -16.5583  -18.6741 C   0  0  0  0  0  0  0  0  0  0  0  0
   26.8201  -16.1682  -19.2149 N   0  0  0  0  0  0  0  0  0  0  0  0
   24.8091  -15.5449  -18.2302 N   0  0  0  0  0  0  0  0  0  0  0  0
   23.5527  -15.8665  -17.5918 C   0  0  0  0  0  0  0  0  0  0  0  0
   23.7801  -16.6979  -16.3494 C   0  0  0  0  0  0  0  0  0  0  0  0
   22.9222  -17.9304  -16.4006 C   0  0  0  0  0  0  0  0  0  0  0  0
   23.0729  -18.8163  -15.2442 C   0  0  2  0  0  0  0  0  0  0  0  0
   24.2453  -19.5982  -15.1496 N   0  0  0  0  0  0  0  0  0  0  0  0
   21.8914  -19.7562  -15.2130 C   0  0  0  0  0  0  0  0  0  0  0  0
   21.7963  -20.5902  -16.1168 O   0  0  0  0  0  0  0  0  0  0  0  0
   27.0374  -15.1801  -19.3633 N   0  0  0  0  0  0  0  0  0  0  0  0
   20.9020  -19.7208  -14.2045 C   0  0  1  0  0  0  0  0  0  0  0  0
   19.7433  -20.5592  -14.1742 C   0  0  0  0  0  0  0  0  0  0  0  0
   19.2894  -20.9483  -12.8090 C   0  0  0  0  0  0  0  0  0  0  0  0
   19.9926  -22.1326  -12.2630 O   0  0  0  0  0  0  0  0  0  0  0  0
   20.8633  -22.7877  -12.9001 C   0  0  0  0  0  0  0  0  0  0  0  0
   18.6237  -19.8464  -14.8494 O   0  0  0  0  0  0  0  0  0  0  0  0
   17.6731  -20.5219  -15.5986 O   0  0  0  0  0  0  0  0  0  0  0  0
   19.6301  -22.5042  -10.9545 O   0  0  0  0  0  0  0  0  0  0  0  0
  1  2  1  0
  3  2  1  0
  4  3  1  0
  5  4  1  0
  5  1  1  0
  5  6  1  6
  7  6  2  0
  9  8  1  0
  9 10  2  0
 11  9  1  0
 12 13  1  0
 12 11  1  0
 14 13  1  0
 15 14  1  6
 15 16  1  0
 16  6  1  0
 17 15  1  0
 17 18  2  0
 19 17  1  0
 20 19  1  0
 20 21  1  6
 21 22  1  0
 22 26  1  0
 22 23  2  0
 24 20  1  0
 25 24  1  0
 27 24  2  0
M  END
$$$$
