PRD.pdb
     RDKit          3D

 27 27  0  0  1  0  0  0  0  0999 V2000
   18.4274  -13.0047  -14.5122 N   0  0  0  0  0  0  0  0  0  0  0  0
   17.3934  -13.7947  -15.0880 C   0  0  0  0  0  0  0  0  0  0  0  0
   16.8568  -13.0035  -16.2627 C   0  0  0  0  0  0  0  0  0  0  0  0
   18.1104  -12.3013  -16.7420 C   0  0  0  0  0  0  0  0  0  0  0  0
   18.7181  -11.9130  -15.3815 C   0  0  1  0  0  0  0  0  0  0  0  0
   18.0570  -10.6451  -14.9841 C   0  0  0  0  0  0  0  0  0  0  0  0
   17.9438   -9.6764  -15.8112 O   0  0  0  0  0  0  0  0  0  0  0  0
   11.6977  -10.7920   -9.9550 N   0  0  0  0  0  0  0  0  0  0  0  0
   12.6855   -9.7981   -9.7118 C   0  0  0  0  0  0  0  0  0  0  0  0
   12.8324   -9.2533   -8.5523 N   0  0  0  0  0  0  0  0  0  0  0  0
   13.5618   -9.3643  -10.7564 N   0  0  0  0  0  0  0  0  0  0  0  0
   14.3423   -8.1524  -10.6489 C   0  0  0  0  0  0  0  0  0  0  0  0
   15.2282   -7.9762  -11.8616 C   0  0  0  0  0  0  0  0  0  0  0  0
   15.9605   -9.2575  -12.1445 C   0  0  0  0  0  0  0  0  0  0  0  0
   16.8738   -9.1883  -13.2872 C   0  0  2  0  0  0  0  0  0  0  0  0
   17.5057  -10.3784  -13.7106 N   0  0  0  0  0  0  0  0  0  0  0  0
   17.9551   -8.1842  -12.9666 C   0  0  0  0  0  0  0  0  0  0  0  0
   18.7873   -8.4897  -12.1089 O   0  0  0  0  0  0  0  0  0  0  0  0
   13.4827   -8.4814   -8.3890 N   0  0  0  0  0  0  0  0  0  0  0  0
   18.0524   -6.9245  -13.5999 C   0  0  1  0  0  0  0  0  0  0  0  0
   19.1284   -6.0012  -13.4095 C   0  0  0  0  0  0  0  0  0  0  0  0
   20.4641   -6.5005  -13.8428 C   0  0  0  0  0  0  0  0  0  0  0  0
   21.5573   -5.5194  -13.6501 O   0  0  0  0  0  0  0  0  0  0  0  0
   21.4933   -4.5448  -12.8507 C   0  0  0  0  0  0  0  0  0  0  0  0
   18.8281   -4.7583  -14.1727 O   0  0  0  0  0  0  0  0  0  0  0  0
   19.5233   -3.5795  -13.9530 O   0  0  0  0  0  0  0  0  0  0  0  0
   22.7104   -5.7344  -14.4286 O   0  0  0  0  0  0  0  0  0  0  0  0
  1  2  1  0
  3  2  1  0
  4  3  1  0
  5  4  1  0
  5  1  1  0
  5  6  1  1
  7  6  2  0
  9  8  1  0
  9 10  2  0
 11  9  1  0
 12 13  1  0
 12 11  1  0
 14 13  1  0
 15 14  1  1
 15 16  1  0
 16  6  1  0
 17 15  1  0
 17 18  2  0
 19 17  1  0
 20 19  1  0
 20 21  1  6
 21 22  1  0
 22 26  1  0
 22 23  2  0
 24 20  1  0
 25 24  1  0
 27 24  2  0
M  END
$$$$
