ATP.pdb
     RDKit          3D

 20 20  0  0  1  0  0  0  0  0999 V2000
   15.7311  -13.3879  -16.4924 C   0  0  0  0  0  0  0  0  0  0  0  0
   16.0642  -12.2008  -15.6205 C   0  0  2  0  0  0  0  0  0  0  0  0
   15.2864  -11.0811  -16.0653 N   0  0  0  0  0  0  0  0  0  0  0  0
   17.5349  -11.9199  -15.7588 C   0  0  0  0  0  0  0  0  0  0  0  0
   18.3944  -12.8073  -15.5482 O   0  0  0  0  0  0  0  0  0  0  0  0
   19.6221  -10.8626  -18.6032 C   0  0  0  0  0  0  0  0  0  0  0  0
   19.6574   -9.7188  -17.6388 C   0  0  1  0  0  0  0  0  0  0  0  0
   18.7623   -8.7060  -17.9699 O   0  0  0  0  0  0  0  0  0  0  0  0
   19.3921  -10.2684  -16.2479 C   0  0  2  0  0  0  0  0  0  0  0  0
   17.9663  -10.6240  -16.1357 N   0  0  0  0  0  0  0  0  0  0  0  0
   19.8073   -9.3893  -15.1631 C   0  0  0  0  0  0  0  0  0  0  0  0
   18.9481   -8.7868  -14.4734 O   0  0  0  0  0  0  0  0  0  0  0  0
   21.1825   -9.1953  -14.8608 N   0  0  0  0  0  0  0  0  0  0  0  0
   22.3516   -9.7346  -15.5180 C   0  0  0  0  0  0  0  0  0  0  0  0
   23.3105   -9.9908  -14.3619 C   0  0  0  0  0  0  0  0  0  0  0  0
   22.7517   -9.3032  -13.1649 C   0  0  0  0  0  0  0  0  0  0  0  0
   21.7127   -8.3846  -13.7510 C   0  0  1  0  0  0  0  0  0  0  0  0
   22.3863   -7.1575  -14.2289 C   0  0  0  0  0  0  0  0  0  0  0  0
   22.6099   -6.8759  -15.4328 O   0  0  0  0  0  0  0  0  0  0  0  0
   22.8312   -6.1979  -13.3066 O   0  0  0  0  0  0  0  0  0  0  0  0
  2  1  1  6
  3  2  1  0
  4  2  1  0
  4  5  2  0
  7  6  1  6
  7  9  1  0
  8  7  1  0
  9 10  1  6
  9 11  1  0
 10  4  1  0
 11 13  1  0
 12 11  2  0
 13 17  1  0
 13 14  1  0
 14 15  1  0
 16 15  1  0
 17 16  1  0
 18 20  1  0
 17 18  1  6
 19 18  2  0
M  END
$$$$
