ATP.pdb
     RDKit          3D

 20 20  0  0  1  0  0  0  0  0999 V2000
   14.2504   -7.3440  -15.9701 C   0  0  0  0  0  0  0  0  0  0  0  0
   14.9554   -8.1591  -17.0280 C   0  0  2  0  0  0  0  0  0  0  0  0
   14.1592   -9.3178  -17.3108 N   0  0  0  0  0  0  0  0  0  0  0  0
   16.3031   -8.5537  -16.4901 C   0  0  0  0  0  0  0  0  0  0  0  0
   16.4212   -9.4058  -15.5788 O   0  0  0  0  0  0  0  0  0  0  0  0
   19.4026   -9.8698  -18.1304 C   0  0  0  0  0  0  0  0  0  0  0  0
   19.7710   -8.5251  -17.5866 C   0  0  1  0  0  0  0  0  0  0  0  0
   19.7771   -7.5321  -18.5614 O   0  0  0  0  0  0  0  0  0  0  0  0
   18.8104   -8.1956  -16.4572 C   0  0  2  0  0  0  0  0  0  0  0  0
   17.4708   -7.9522  -17.0214 N   0  0  0  0  0  0  0  0  0  0  0  0
   19.2365   -7.0931  -15.6057 C   0  0  0  0  0  0  0  0  0  0  0  0
   18.5967   -6.0126  -15.6029 O   0  0  0  0  0  0  0  0  0  0  0  0
   20.3755   -7.2133  -14.7640 N   0  0  0  0  0  0  0  0  0  0  0  0
   21.2712   -8.3338  -14.5862 C   0  0  0  0  0  0  0  0  0  0  0  0
   21.5985   -8.2820  -13.0991 C   0  0  0  0  0  0  0  0  0  0  0  0
   21.1194   -6.9679  -12.5877 C   0  0  0  0  0  0  0  0  0  0  0  0
   20.8793   -6.1771  -13.8462 C   0  0  1  0  0  0  0  0  0  0  0  0
   22.1687   -5.6106  -14.2984 C   0  0  0  0  0  0  0  0  0  0  0  0
   22.7681   -4.6495  -13.7547 O   0  0  0  0  0  0  0  0  0  0  0  0
   22.8173   -6.1520  -15.4189 O   0  0  0  0  0  0  0  0  0  0  0  0
  2  1  1  1
  3  2  1  0
  4  2  1  0
  4  5  2  0
  7  6  1  6
  7  9  1  0
  8  7  1  0
  9 10  1  6
  9 11  1  0
 10  4  1  0
 11 13  1  0
 12 11  2  0
 13 17  1  0
 13 14  1  0
 14 15  1  0
 16 15  1  0
 17 16  1  0
 18 20  1  0
 17 18  1  6
 19 18  2  0
M  END
$$$$
