ATP.pdb
     RDKit          3D

 20 20  0  0  1  0  0  0  0  0999 V2000
   20.0166  -12.6025  -18.8060 C   0  0  0  0  0  0  0  0  0  0  0  0
   19.5854  -12.4613  -17.3656 C   0  0  2  0  0  0  0  0  0  0  0  0
   18.4399  -13.2974  -17.1528 N   0  0  0  0  0  0  0  0  0  0  0  0
   19.2467  -11.0168  -17.1207 C   0  0  0  0  0  0  0  0  0  0  0  0
   18.5164  -10.3720  -17.9090 O   0  0  0  0  0  0  0  0  0  0  0  0
   17.1722   -9.4534  -14.9503 C   0  0  0  0  0  0  0  0  0  0  0  0
   18.4882   -8.9099  -14.4894 C   0  0  1  0  0  0  0  0  0  0  0  0
   18.9930   -9.5853  -13.3824 O   0  0  0  0  0  0  0  0  0  0  0  0
   19.4525   -8.9563  -15.6619 C   0  0  2  0  0  0  0  0  0  0  0  0
   19.7619  -10.3631  -15.9740 N   0  0  0  0  0  0  0  0  0  0  0  0
   20.6671   -8.1742  -15.4748 C   0  0  0  0  0  0  0  0  0  0  0  0
   21.7859   -8.7432  -15.4365 O   0  0  0  0  0  0  0  0  0  0  0  0
   20.6157   -6.7608  -15.3339 N   0  0  0  0  0  0  0  0  0  0  0  0
   19.4949   -5.8625  -15.4954 C   0  0  0  0  0  0  0  0  0  0  0  0
   20.1278   -4.6311  -16.1314 C   0  0  0  0  0  0  0  0  0  0  0  0
   21.6045   -4.7827  -16.0118 C   0  0  0  0  0  0  0  0  0  0  0  0
   21.7548   -5.8881  -15.0008 C   0  0  1  0  0  0  0  0  0  0  0  0
   21.6340   -5.3060  -13.6464 C   0  0  0  0  0  0  0  0  0  0  0  0
   20.6239   -5.3996  -12.9051 O   0  0  0  0  0  0  0  0  0  0  0  0
   22.7032   -4.5816  -13.0973 O   0  0  0  0  0  0  0  0  0  0  0  0
  2  1  1  6
  3  2  1  0
  4  2  1  0
  4  5  2  0
  7  6  1  6
  7  9  1  0
  8  7  1  0
  9 10  1  1
  9 11  1  0
 10  4  1  0
 11 13  1  0
 12 11  2  0
 13 17  1  0
 13 14  1  0
 14 15  1  0
 16 15  1  0
 17 16  1  0
 18 20  1  0
 17 18  1  1
 19 18  2  0
M  END
$$$$
