ATP.pdb
     RDKit          3D

 20 20  0  0  1  0  0  0  0  0999 V2000
   19.1546  -12.9304  -15.4287 C   0  0  0  0  0  0  0  0  0  0  0  0
   18.0595  -11.9246  -15.6925 C   0  0  2  0  0  0  0  0  0  0  0  0
   17.2470  -12.4131  -16.7685 N   0  0  0  0  0  0  0  0  0  0  0  0
   18.7065  -10.6181  -16.0606 C   0  0  0  0  0  0  0  0  0  0  0  0
   19.3978  -10.4986  -17.0990 O   0  0  0  0  0  0  0  0  0  0  0  0
   17.1339   -7.5777  -16.9772 C   0  0  0  0  0  0  0  0  0  0  0  0
   17.8717   -7.2031  -15.7302 C   0  0  1  0  0  0  0  0  0  0  0  0
   17.0578   -7.2018  -14.6015 O   0  0  0  0  0  0  0  0  0  0  0  0
   19.0446   -8.1553  -15.5741 C   0  0  2  0  0  0  0  0  0  0  0  0
   18.5346   -9.4916  -15.2185 N   0  0  0  0  0  0  0  0  0  0  0  0
   20.0632   -7.7080  -14.6337 C   0  0  0  0  0  0  0  0  0  0  0  0
   20.1488   -8.2341  -13.4967 O   0  0  0  0  0  0  0  0  0  0  0  0
   20.9776   -6.6757  -14.9780 N   0  0  0  0  0  0  0  0  0  0  0  0
   21.1043   -5.9363  -16.2135 C   0  0  0  0  0  0  0  0  0  0  0  0
   22.6100   -5.7480  -16.3507 C   0  0  0  0  0  0  0  0  0  0  0  0
   23.2216   -6.1188  -15.0444 C   0  0  0  0  0  0  0  0  0  0  0  0
   22.0422   -6.1453  -14.1089 C   0  0  1  0  0  0  0  0  0  0  0  0
   21.7629   -4.7621  -13.6656 C   0  0  0  0  0  0  0  0  0  0  0  0
   22.4310   -4.1259  -12.8127 O   0  0  0  0  0  0  0  0  0  0  0  0
   20.6772   -4.0581  -14.2087 O   0  0  0  0  0  0  0  0  0  0  0  0
  2  1  1  6
  3  2  1  0
  4  2  1  0
  4  5  2  0
  7  6  1  6
  7  9  1  0
  8  7  1  0
  9 10  1  1
  9 11  1  0
 10  4  1  0
 11 13  1  0
 12 11  2  0
 13 17  1  0
 13 14  1  0
 14 15  1  0
 16 15  1  0
 17 16  1  0
 18 20  1  0
 17 18  1  6
 19 18  2  0
M  END
$$$$
