ATP.pdb
     RDKit          3D

 20 20  0  0  1  0  0  0  0  0999 V2000
   22.8757  -13.0906  -15.2956 C   0  0  0  0  0  0  0  0  0  0  0  0
   21.6748  -12.7948  -16.1621 C   0  0  2  0  0  0  0  0  0  0  0  0
   21.6668  -13.7228  -17.2553 N   0  0  0  0  0  0  0  0  0  0  0  0
   21.7974  -11.3814  -16.6605 C   0  0  0  0  0  0  0  0  0  0  0  0
   22.6568  -11.0595  -17.5139 O   0  0  0  0  0  0  0  0  0  0  0  0
   19.7314   -9.3447  -18.6359 C   0  0  0  0  0  0  0  0  0  0  0  0
   19.7299   -8.6136  -17.3300 C   0  0  1  0  0  0  0  0  0  0  0  0
   18.5967   -8.8757  -16.5662 O   0  0  0  0  0  0  0  0  0  0  0  0
   21.0034   -8.9772  -16.5864 C   0  0  2  0  0  0  0  0  0  0  0  0
   20.9242  -10.3851  -16.1579 N   0  0  0  0  0  0  0  0  0  0  0  0
   21.3203   -8.0988  -15.4684 C   0  0  0  0  0  0  0  0  0  0  0  0
   21.3171   -8.5436  -14.2941 O   0  0  0  0  0  0  0  0  0  0  0  0
   21.6394   -6.7297  -15.6780 N   0  0  0  0  0  0  0  0  0  0  0  0
   21.8332   -6.0118  -16.9176 C   0  0  0  0  0  0  0  0  0  0  0  0
   22.9583   -5.0407  -16.5822 C   0  0  0  0  0  0  0  0  0  0  0  0
   23.1244   -5.0523  -15.1023 C   0  0  0  0  0  0  0  0  0  0  0  0
   21.8681   -5.7288  -14.6217 C   0  0  1  0  0  0  0  0  0  0  0  0
   20.7855   -4.7225  -14.5629 C   0  0  0  0  0  0  0  0  0  0  0  0
   19.8925   -4.5677  -15.4330 O   0  0  0  0  0  0  0  0  0  0  0  0
   20.7027   -3.8456  -13.4705 O   0  0  0  0  0  0  0  0  0  0  0  0
  2  1  1  1
  3  2  1  0
  4  2  1  0
  4  5  2  0
  7  6  1  6
  7  9  1  0
  8  7  1  0
  9 10  1  1
  9 11  1  0
 10  4  1  0
 11 13  1  0
 12 11  2  0
 13 17  1  0
 13 14  1  0
 14 15  1  0
 16 15  1  0
 17 16  1  0
 18 20  1  0
 17 18  1  6
 19 18  2  0
M  END
$$$$
