ATP.pdb
     RDKit          3D

 20 20  0  0  1  0  0  0  0  0999 V2000
   16.8605  -11.8636  -14.4922 C   0  0  0  0  0  0  0  0  0  0  0  0
   17.5470  -11.8907  -15.8370 C   0  0  2  0  0  0  0  0  0  0  0  0
   17.9852  -13.2319  -16.0937 N   0  0  0  0  0  0  0  0  0  0  0  0
   18.7163  -10.9469  -15.7817 C   0  0  0  0  0  0  0  0  0  0  0  0
   19.7962  -11.2725  -15.2356 O   0  0  0  0  0  0  0  0  0  0  0  0
   20.4524   -9.3862  -18.6029 C   0  0  0  0  0  0  0  0  0  0  0  0
   19.9429   -8.2271  -17.8050 C   0  0  1  0  0  0  0  0  0  0  0  0
   18.7897   -7.6656  -18.3448 O   0  0  0  0  0  0  0  0  0  0  0  0
   19.7212   -8.6997  -16.3786 C   0  0  2  0  0  0  0  0  0  0  0  0
   18.6015   -9.6578  -16.3585 N   0  0  0  0  0  0  0  0  0  0  0  0
   19.5205   -7.6278  -15.4128 C   0  0  0  0  0  0  0  0  0  0  0  0
   18.4208   -7.5102  -14.8181 O   0  0  0  0  0  0  0  0  0  0  0  0
   20.5559   -6.6986  -15.1217 N   0  0  0  0  0  0  0  0  0  0  0  0
   21.9151   -6.6557  -15.6117 C   0  0  0  0  0  0  0  0  0  0  0  0
   22.7038   -6.1721  -14.4010 C   0  0  0  0  0  0  0  0  0  0  0  0
   21.7171   -5.6805  -13.3997 C   0  0  0  0  0  0  0  0  0  0  0  0
   20.4493   -5.5531  -14.2016 C   0  0  1  0  0  0  0  0  0  0  0  0
   20.4739   -4.2588  -14.9173 C   0  0  0  0  0  0  0  0  0  0  0  0
   20.7136   -4.1127  -16.1420 O   0  0  0  0  0  0  0  0  0  0  0  0
   20.2162   -3.0681  -14.2208 O   0  0  0  0  0  0  0  0  0  0  0  0
  2  1  1  1
  3  2  1  0
  4  2  1  0
  4  5  2  0
  7  6  1  6
  7  9  1  0
  8  7  1  0
  9 10  1  6
  9 11  1  0
 10  4  1  0
 11 13  1  0
 12 11  2  0
 13 17  1  0
 13 14  1  0
 14 15  1  0
 16 15  1  0
 17 16  1  0
 18 20  1  0
 17 18  1  6
 19 18  2  0
M  END
$$$$
