ATP.pdb
     RDKit          3D

 20 20  0  0  1  0  0  0  0  0999 V2000
   16.0855  -10.4204  -15.3978 C   0  0  0  0  0  0  0  0  0  0  0  0
   17.2517  -11.0644  -16.1089 C   0  0  2  0  0  0  0  0  0  0  0  0
   17.2151  -12.4746  -15.8513 N   0  0  0  0  0  0  0  0  0  0  0  0
   18.5176  -10.4549  -15.5730 C   0  0  0  0  0  0  0  0  0  0  0  0
   19.0232  -10.8382  -14.4922 O   0  0  0  0  0  0  0  0  0  0  0  0
   21.8614  -10.5145  -16.5635 C   0  0  0  0  0  0  0  0  0  0  0  0
   21.5318   -9.0637  -16.7259 C   0  0  1  0  0  0  0  0  0  0  0  0
   21.2551   -8.7176  -18.0450 O   0  0  0  0  0  0  0  0  0  0  0  0
   20.3676   -8.7404  -15.8056 C   0  0  2  0  0  0  0  0  0  0  0  0
   19.1592   -9.4229  -16.3017 N   0  0  0  0  0  0  0  0  0  0  0  0
   20.1310   -7.3163  -15.6104 C   0  0  0  0  0  0  0  0  0  0  0  0
   19.0641   -6.7915  -16.0142 O   0  0  0  0  0  0  0  0  0  0  0  0
   21.0927   -6.4944  -14.9625 N   0  0  0  0  0  0  0  0  0  0  0  0
   22.4046   -6.8371  -14.4617 C   0  0  0  0  0  0  0  0  0  0  0  0
   22.5187   -6.0023  -13.1922 C   0  0  0  0  0  0  0  0  0  0  0  0
   21.4040   -5.0148  -13.2121 C   0  0  0  0  0  0  0  0  0  0  0  0
   20.9251   -5.0672  -14.6385 C   0  0  1  0  0  0  0  0  0  0  0  0
   21.7998   -4.2023  -15.4600 C   0  0  0  0  0  0  0  0  0  0  0  0
   21.7637   -2.9465  -15.4806 O   0  0  0  0  0  0  0  0  0  0  0  0
   22.7641   -4.7783  -16.3012 O   0  0  0  0  0  0  0  0  0  0  0  0
  2  1  1  1
  3  2  1  0
  4  2  1  0
  4  5  2  0
  7  6  1  6
  7  9  1  0
  8  7  1  0
  9 10  1  6
  9 11  1  0
 10  4  1  0
 11 13  1  0
 12 11  2  0
 13 17  1  0
 13 14  1  0
 14 15  1  0
 16 15  1  0
 17 16  1  0
 18 20  1  0
 17 18  1  6
 19 18  2  0
M  END
$$$$
