ATP.pdb
     RDKit          3D

 20 20  0  0  1  0  0  0  0  0999 V2000
   15.6117   -6.6594   -7.5698 C   0  0  0  0  0  0  0  0  0  0  0  0
   14.8316   -7.0240   -8.8103 C   0  0  2  0  0  0  0  0  0  0  0  0
   13.9167   -8.0765   -8.4757 N   0  0  0  0  0  0  0  0  0  0  0  0
   15.8096   -7.4779   -9.8585 C   0  0  0  0  0  0  0  0  0  0  0  0
   16.2997   -8.6311   -9.8420 O   0  0  0  0  0  0  0  0  0  0  0  0
   15.6604   -8.0523  -13.4058 C   0  0  0  0  0  0  0  0  0  0  0  0
   16.5873   -6.8844  -13.2775 C   0  0  1  0  0  0  0  0  0  0  0  0
   15.9571   -5.6666  -13.5146 O   0  0  0  0  0  0  0  0  0  0  0  0
   17.2137   -6.9312  -11.8946 C   0  0  2  0  0  0  0  0  0  0  0  0
   16.1903   -6.5862  -10.8917 N   0  0  0  0  0  0  0  0  0  0  0  0
   18.4045   -6.1059  -11.7439 C   0  0  0  0  0  0  0  0  0  0  0  0
   18.3943   -5.1162  -10.9709 O   0  0  0  0  0  0  0  0  0  0  0  0
   19.5964   -6.3991  -12.4605 N   0  0  0  0  0  0  0  0  0  0  0  0
   19.8997   -7.5239  -13.3162 C   0  0  0  0  0  0  0  0  0  0  0  0
   21.3688   -7.7979  -13.0190 C   0  0  0  0  0  0  0  0  0  0  0  0
   21.8881   -6.6325  -12.2508 C   0  0  0  0  0  0  0  0  0  0  0  0
   20.8249   -5.5862  -12.4548 C   0  0  1  0  0  0  0  0  0  0  0  0
   21.0613   -4.9236  -13.7560 C   0  0  0  0  0  0  0  0  0  0  0  0
   21.9335   -4.0458  -13.9740 O   0  0  0  0  0  0  0  0  0  0  0  0
   20.2772   -5.2649  -14.8687 O   0  0  0  0  0  0  0  0  0  0  0  0
  2  1  1  1
  3  2  1  0
  4  2  1  0
  4  5  2  0
  7  6  1  1
  7  9  1  0
  8  7  1  0
  9 10  1  1
  9 11  1  0
 10  4  1  0
 11 13  1  0
 12 11  2  0
 13 17  1  0
 13 14  1  0
 14 15  1  0
 16 15  1  0
 17 16  1  0
 18 20  1  0
 17 18  1  6
 19 18  2  0
M  END
$$$$
