ATP.pdb
     RDKit          3D

 20 20  0  0  1  0  0  0  0  0999 V2000
   27.9884  -24.2814  -17.4518 C   0  0  0  0  0  0  0  0  0  0  0  0
   28.3334  -22.8316  -17.6959 C   0  0  2  0  0  0  0  0  0  0  0  0
   29.6674  -22.7664  -18.2182 N   0  0  0  0  0  0  0  0  0  0  0  0
   28.2357  -22.1027  -16.3844 C   0  0  0  0  0  0  0  0  0  0  0  0
   29.2144  -22.0198  -15.6060 O   0  0  0  0  0  0  0  0  0  0  0  0
   28.0119  -18.8205  -15.4968 C   0  0  0  0  0  0  0  0  0  0  0  0
   26.7040  -19.3154  -14.9637 C   0  0  1  0  0  0  0  0  0  0  0  0
   25.6333  -19.0208  -15.8023 O   0  0  0  0  0  0  0  0  0  0  0  0
   26.8306  -20.8092  -14.7203 C   0  0  2  0  0  0  0  0  0  0  0  0
   27.0117  -21.4930  -16.0134 N   0  0  0  0  0  0  0  0  0  0  0  0
   25.7325  -21.3916  -13.9607 C   0  0  0  0  0  0  0  0  0  0  0  0
   25.0523  -22.3274  -14.4489 O   0  0  0  0  0  0  0  0  0  0  0  0
   25.4084  -20.9197  -12.6598 N   0  0  0  0  0  0  0  0  0  0  0  0
   26.0826  -19.9326  -11.8471 C   0  0  0  0  0  0  0  0  0  0  0  0
   25.9397  -20.4904  -10.4364 C   0  0  0  0  0  0  0  0  0  0  0  0
   24.9382  -21.5910  -10.4968 C   0  0  0  0  0  0  0  0  0  0  0  0
   24.2793  -21.3819  -11.8343 C   0  0  1  0  0  0  0  0  0  0  0  0
   23.2350  -20.3448  -11.6866 C   0  0  0  0  0  0  0  0  0  0  0  0
   22.1265  -20.5086  -11.1182 O   0  0  0  0  0  0  0  0  0  0  0  0
   23.4475  -19.0579  -12.2044 O   0  0  0  0  0  0  0  0  0  0  0  0
  2  1  1  1
  3  2  1  0
  4  2  1  0
  4  5  2  0
  7  6  1  6
  7  9  1  0
  8  7  1  0
  9 10  1  6
  9 11  1  0
 10  4  1  0
 11 13  1  0
 12 11  2  0
 13 17  1  0
 13 14  1  0
 14 15  1  0
 16 15  1  0
 17 16  1  0
 18 20  1  0
 17 18  1  1
 19 18  2  0
M  END
$$$$
