ATP.pdb
     RDKit          3D

 20 20  0  0  1  0  0  0  0  0999 V2000
   23.2988  -15.7374  -20.7832 C   0  0  0  0  0  0  0  0  0  0  0  0
   22.7635  -15.0833  -19.5318 C   0  0  2  0  0  0  0  0  0  0  0  0
   21.5406  -14.4105  -19.8613 N   0  0  0  0  0  0  0  0  0  0  0  0
   23.7955  -14.1072  -19.0389 C   0  0  0  0  0  0  0  0  0  0  0  0
   24.8856  -14.4937  -18.5562 O   0  0  0  0  0  0  0  0  0  0  0  0
   25.8631  -11.7212  -20.7195 C   0  0  0  0  0  0  0  0  0  0  0  0
   24.9444  -10.8822  -19.8879 C   0  0  1  0  0  0  0  0  0  0  0  0
   23.8482  -10.4106  -20.6036 O   0  0  0  0  0  0  0  0  0  0  0  0
   24.5164  -11.7048  -18.6850 C   0  0  2  0  0  0  0  0  0  0  0  0
   23.5364  -12.7165  -19.1189 N   0  0  0  0  0  0  0  0  0  0  0  0
   24.0100  -10.9199  -17.5672 C   0  0  0  0  0  0  0  0  0  0  0  0
   22.7817  -10.9107  -17.3060 O   0  0  0  0  0  0  0  0  0  0  0  0
   24.8863  -10.1537  -16.7516 N   0  0  0  0  0  0  0  0  0  0  0  0
   26.3159   -9.9698  -16.8608 C   0  0  0  0  0  0  0  0  0  0  0  0
   26.7705   -9.9249  -15.4072 C   0  0  0  0  0  0  0  0  0  0  0  0
   25.5492   -9.7787  -14.5675 C   0  0  0  0  0  0  0  0  0  0  0  0
   24.4946   -9.3757  -15.5636 C   0  0  1  0  0  0  0  0  0  0  0  0
   24.5971   -7.9180  -15.7927 C   0  0  0  0  0  0  0  0  0  0  0  0
   25.1157   -7.3781  -16.8018 O   0  0  0  0  0  0  0  0  0  0  0  0
   24.0910   -7.0215  -14.8391 O   0  0  0  0  0  0  0  0  0  0  0  0
  2  1  1  6
  3  2  1  0
  4  2  1  0
  4  5  2  0
  7  6  1  6
  7  9  1  0
  8  7  1  0
  9 10  1  6
  9 11  1  0
 10  4  1  0
 11 13  1  0
 12 11  2  0
 13 17  1  0
 13 14  1  0
 14 15  1  0
 16 15  1  0
 17 16  1  0
 18 20  1  0
 17 18  1  6
 19 18  2  0
M  END
$$$$
