ATP.pdb
     RDKit          3D

 20 20  0  0  1  0  0  0  0  0999 V2000
   14.8097   -9.6916  -14.9078 C   0  0  0  0  0  0  0  0  0  0  0  0
   15.4820  -10.1898  -16.1649 C   0  0  2  0  0  0  0  0  0  0  0  0
   14.9986  -11.5111  -16.4426 N   0  0  0  0  0  0  0  0  0  0  0  0
   16.9664  -10.2022  -15.9252 C   0  0  0  0  0  0  0  0  0  0  0  0
   17.5262  -11.1519  -15.3292 O   0  0  0  0  0  0  0  0  0  0  0  0
   19.5926  -10.0570  -18.4424 C   0  0  0  0  0  0  0  0  0  0  0  0
   19.8550   -8.8539  -17.5919 C   0  0  1  0  0  0  0  0  0  0  0  0
   19.3976   -7.6739  -18.1705 O   0  0  0  0  0  0  0  0  0  0  0  0
   19.2228   -9.0928  -16.2317 C   0  0  2  0  0  0  0  0  0  0  0  0
   17.7568   -9.1182  -16.3811 N   0  0  0  0  0  0  0  0  0  0  0  0
   19.6354   -8.1496  -15.2011 C   0  0  0  0  0  0  0  0  0  0  0  0
   18.8037   -7.3490  -14.7071 O   0  0  0  0  0  0  0  0  0  0  0  0
   20.9770   -8.1142  -14.7330 N   0  0  0  0  0  0  0  0  0  0  0  0
   22.1060   -8.9296  -15.1202 C   0  0  0  0  0  0  0  0  0  0  0  0
   22.8602   -9.1200  -13.8101 C   0  0  0  0  0  0  0  0  0  0  0  0
   22.2885   -8.1572  -12.8282 C   0  0  0  0  0  0  0  0  0  0  0  0
   21.5016   -7.2103  -13.6948 C   0  0  1  0  0  0  0  0  0  0  0  0
   22.4292   -6.2012  -14.2508 C   0  0  0  0  0  0  0  0  0  0  0  0
   22.8915   -6.2079  -15.4191 O   0  0  0  0  0  0  0  0  0  0  0  0
   22.8591   -5.1298  -13.4529 O   0  0  0  0  0  0  0  0  0  0  0  0
  2  1  1  1
  3  2  1  0
  4  2  1  0
  4  5  2  0
  7  6  1  6
  7  9  1  0
  8  7  1  0
  9 10  1  6
  9 11  1  0
 10  4  1  0
 11 13  1  0
 12 11  2  0
 13 17  1  0
 13 14  1  0
 14 15  1  0
 16 15  1  0
 17 16  1  0
 18 20  1  0
 17 18  1  6
 19 18  2  0
M  END
$$$$
