ATP.pdb
     RDKit          3D

 20 20  0  0  1  0  0  0  0  0999 V2000
   16.8059  -14.3613  -16.0285 C   0  0  0  0  0  0  0  0  0  0  0  0
   17.9116  -14.6794  -17.0068 C   0  0  2  0  0  0  0  0  0  0  0  0
   18.0531  -16.1045  -17.0810 N   0  0  0  0  0  0  0  0  0  0  0  0
   19.1765  -14.0413  -16.5030 C   0  0  0  0  0  0  0  0  0  0  0  0
   19.7986  -14.5064  -15.5195 O   0  0  0  0  0  0  0  0  0  0  0  0
   22.1917  -13.0718  -18.6186 C   0  0  0  0  0  0  0  0  0  0  0  0
   21.7251  -11.8204  -17.9435 C   0  0  1  0  0  0  0  0  0  0  0  0
   20.9931  -10.9920  -18.7888 O   0  0  0  0  0  0  0  0  0  0  0  0
   20.9229  -12.2191  -16.7170 C   0  0  2  0  0  0  0  0  0  0  0  0
   19.6827  -12.8871  -17.1504 N   0  0  0  0  0  0  0  0  0  0  0  0
   20.6431  -11.1243  -15.7976 C   0  0  0  0  0  0  0  0  0  0  0  0
   19.4619  -10.7411  -15.6115 O   0  0  0  0  0  0  0  0  0  0  0  0
   21.6910  -10.4705  -15.0942 N   0  0  0  0  0  0  0  0  0  0  0  0
   23.1065  -10.7629  -15.0764 C   0  0  0  0  0  0  0  0  0  0  0  0
   23.5012  -10.4723  -13.6337 C   0  0  0  0  0  0  0  0  0  0  0  0
   22.3640   -9.7463  -13.0031 C   0  0  0  0  0  0  0  0  0  0  0  0
   21.5302   -9.3239  -14.1834 C   0  0  1  0  0  0  0  0  0  0  0  0
   22.1045   -8.0815  -14.7440 C   0  0  0  0  0  0  0  0  0  0  0  0
   22.0331   -6.9457  -14.2113 O   0  0  0  0  0  0  0  0  0  0  0  0
   22.7942   -8.1174  -15.9656 O   0  0  0  0  0  0  0  0  0  0  0  0
  2  1  1  1
  3  2  1  0
  4  2  1  0
  4  5  2  0
  7  6  1  6
  7  9  1  0
  8  7  1  0
  9 10  1  6
  9 11  1  0
 10  4  1  0
 11 13  1  0
 12 11  2  0
 13 17  1  0
 13 14  1  0
 14 15  1  0
 16 15  1  0
 17 16  1  0
 18 20  1  0
 17 18  1  6
 19 18  2  0
M  END
$$$$
