ATP.pdb
     RDKit          3D

 20 20  0  0  1  0  0  0  0  0999 V2000
   32.2665  -22.7131   -9.9074 C   0  0  0  0  0  0  0  0  0  0  0  0
   31.8100  -22.6878  -11.3466 C   0  0  2  0  0  0  0  0  0  0  0  0
   32.9460  -22.4089  -12.1762 N   0  0  0  0  0  0  0  0  0  0  0  0
   30.7685  -21.6122  -11.4857 C   0  0  0  0  0  0  0  0  0  0  0  0
   31.0775  -20.4356  -11.7869 O   0  0  0  0  0  0  0  0  0  0  0  0
   29.7695  -19.9281  -13.2386 C   0  0  0  0  0  0  0  0  0  0  0  0
   28.4308  -20.5684  -13.0447 C   0  0  1  0  0  0  0  0  0  0  0  0
   28.2159  -21.6407  -13.9051 O   0  0  0  0  0  0  0  0  0  0  0  0
   28.3162  -20.9863  -11.5890 C   0  0  2  0  0  0  0  0  0  0  0  0
   29.4040  -21.9291  -11.2727 N   0  0  0  0  0  0  0  0  0  0  0  0
   27.0168  -21.5310  -11.2187 C   0  0  0  0  0  0  0  0  0  0  0  0
   26.7855  -22.7584  -11.3483 O   0  0  0  0  0  0  0  0  0  0  0  0
   25.9894  -20.6940  -10.7049 N   0  0  0  0  0  0  0  0  0  0  0  0
   26.0015  -19.2690  -10.4630 C   0  0  0  0  0  0  0  0  0  0  0  0
   25.1788  -19.1278   -9.1884 C   0  0  0  0  0  0  0  0  0  0  0  0
   24.4985  -20.4321   -8.9560 C   0  0  0  0  0  0  0  0  0  0  0  0
   24.6520  -21.1389  -10.2764 C   0  0  1  0  0  0  0  0  0  0  0  0
   23.5881  -20.6664  -11.1890 C   0  0  0  0  0  0  0  0  0  0  0  0
   23.7569  -19.8751  -12.1503 O   0  0  0  0  0  0  0  0  0  0  0  0
   22.2671  -21.1057  -11.0119 O   0  0  0  0  0  0  0  0  0  0  0  0
  2  1  1  1
  3  2  1  0
  4  2  1  0
  4  5  2  0
  7  6  1  1
  7  9  1  0
  8  7  1  0
  9 10  1  6
  9 11  1  0
 10  4  1  0
 11 13  1  0
 12 11  2  0
 13 17  1  0
 13 14  1  0
 14 15  1  0
 16 15  1  0
 17 16  1  0
 18 20  1  0
 17 18  1  6
 19 18  2  0
M  END
$$$$
