YMI.pdb
     RDKit          3D

 29 29  0  0  1  0  0  0  0  0999 V2000
   18.6803  -22.6914  -10.8395 O   0  0  0  0  0  0  0  0  0  0  0  0
   19.9302  -22.1291  -11.1256 C   0  0  0  0  0  0  0  0  0  0  0  0
   20.8783  -22.8591  -11.8112 C   0  0  0  0  0  0  0  0  0  0  0  0
   22.1092  -22.2867  -12.0853 C   0  0  0  0  0  0  0  0  0  0  0  0
   22.4385  -21.0004  -11.6999 C   0  0  0  0  0  0  0  0  0  0  0  0
   23.7640  -20.4719  -12.0282 C   0  0  0  0  0  0  0  0  0  0  0  0
   24.9097  -21.2286  -11.3993 C   0  0  2  0  0  0  0  0  0  0  0  0
   24.8605  -21.0084   -9.9724 N   0  0  0  0  0  0  0  0  0  0  0  0
   26.1898  -20.6206  -11.8997 C   0  0  0  0  0  0  0  0  0  0  0  0
   26.8304  -19.7949  -11.1794 O   0  0  0  0  0  0  0  0  0  0  0  0
   21.4776  -20.2821  -11.0141 C   0  0  0  0  0  0  0  0  0  0  0  0
   20.2532  -20.8508  -10.7408 C   0  0  0  0  0  0  0  0  0  0  0  0
   30.7585  -22.8106  -10.8819 C   0  0  0  0  0  0  0  0  0  0  0  0
   30.4227  -21.1488  -10.2968 S   0  0  0  0  0  0  0  0  0  0  0  0
   29.3979  -20.2158  -11.5137 C   0  0  0  0  0  0  0  0  0  0  0  0
   28.8897  -21.1701  -12.5279 C   0  0  0  0  0  0  0  0  0  0  0  0
   27.9966  -20.5989  -13.5967 C   0  0  2  0  0  0  0  0  0  0  0  0
   26.6369  -21.0018  -13.1820 N   0  0  0  0  0  0  0  0  0  0  0  0
   28.2733  -21.0418  -14.9572 C   0  0  0  0  0  0  0  0  0  0  0  0
   28.0437  -22.2361  -15.2816 O   0  0  0  0  0  0  0  0  0  0  0  0
   24.4663  -20.9162  -17.4828 C   0  0  0  0  0  0  0  0  0  0  0  0
   25.9250  -21.1461  -17.5975 C   0  0  0  0  0  0  0  0  0  0  0  0
   26.8282  -20.0304  -17.2331 C   0  0  2  0  0  0  0  0  0  0  0  0
   26.3282  -18.7459  -17.8087 C   0  0  0  0  0  0  0  0  0  0  0  0
   28.2982  -20.2491  -17.3470 C   0  0  2  0  0  0  0  0  0  0  0  0
   28.7891  -20.1784  -15.9407 N   0  0  0  0  0  0  0  0  0  0  0  0
   29.0456  -19.2634  -18.1301 C   0  0  0  0  0  0  0  0  0  0  0  0
   29.4060  -19.5190  -19.2997 O   0  0  0  0  0  0  0  0  0  0  0  0
   29.3854  -18.0181  -17.6251 O   0  0  0  0  0  0  0  0  0  0  0  0
  1  2  1  0
  2  3  2  0
  3  4  1  0
  5  4  2  0
  5  6  1  0
  7  6  1  0
  7  8  1  1
  9  7  1  0
 10  9  2  0
 11  5  1  0
 12  2  1  0
 12 11  2  0
 14 15  1  0
 14 13  1  0
 17 16  1  1
 16 15  1  0
 17 18  1  0
 18  9  1  0
 19 26  1  0
 19 17  1  0
 20 19  2  0
 22 21  1  0
 22 23  1  0
 23 24  1  6
 25 23  1  0
 25 26  1  1
 27 25  1  0
 27 29  1  0
 28 27  2  0
M  END
$$$$
