YMI.pdb
     RDKit          3D

 29 29  0  0  1  0  0  0  0  0999 V2000
   29.5943  -15.2221  -18.5495 O   0  0  0  0  0  0  0  0  0  0  0  0
   28.8666  -16.1901  -17.8469 C   0  0  0  0  0  0  0  0  0  0  0  0
   28.5255  -15.9789  -16.5275 C   0  0  0  0  0  0  0  0  0  0  0  0
   27.8056  -16.9475  -15.8482 C   0  0  0  0  0  0  0  0  0  0  0  0
   27.4060  -18.1330  -16.4370 C   0  0  0  0  0  0  0  0  0  0  0  0
   26.6488  -19.1054  -15.6464 C   0  0  0  0  0  0  0  0  0  0  0  0
   27.5016  -20.1283  -14.9341 C   0  0  2  0  0  0  0  0  0  0  0  0
   28.0391  -21.0303  -15.9261 N   0  0  0  0  0  0  0  0  0  0  0  0
   26.6004  -20.9342  -14.0412 C   0  0  0  0  0  0  0  0  0  0  0  0
   25.9281  -21.9007  -14.5154 O   0  0  0  0  0  0  0  0  0  0  0  0
   27.7554  -18.3293  -17.7595 C   0  0  0  0  0  0  0  0  0  0  0  0
   28.4717  -17.3665  -18.4357 C   0  0  0  0  0  0  0  0  0  0  0  0
   27.2751  -20.3890   -7.8654 C   0  0  0  0  0  0  0  0  0  0  0  0
   25.4936  -20.5715   -7.7677 S   0  0  0  0  0  0  0  0  0  0  0  0
   24.7872  -21.0324   -9.4079 C   0  0  0  0  0  0  0  0  0  0  0  0
   25.7947  -20.7330  -10.4532 C   0  0  0  0  0  0  0  0  0  0  0  0
   25.4307  -21.1147  -11.8632 C   0  0  2  0  0  0  0  0  0  0  0  0
   26.5368  -20.5730  -12.6792 N   0  0  0  0  0  0  0  0  0  0  0  0
   24.1463  -20.6200  -12.3422 C   0  0  0  0  0  0  0  0  0  0  0  0
   24.0067  -19.3952  -12.5959 O   0  0  0  0  0  0  0  0  0  0  0  0
   20.0613  -21.5971  -16.4018 C   0  0  0  0  0  0  0  0  0  0  0  0
   20.2311  -21.1266  -15.0077 C   0  0  0  0  0  0  0  0  0  0  0  0
   21.5225  -21.4071  -14.3393 C   0  0  2  0  0  0  0  0  0  0  0  0
   21.9308  -22.8256  -14.5686 C   0  0  0  0  0  0  0  0  0  0  0  0
   21.7193  -20.9053  -12.9496 C   0  0  2  0  0  0  0  0  0  0  0  0
   23.0397  -21.4654  -12.5414 N   0  0  0  0  0  0  0  0  0  0  0  0
   20.7297  -21.3282  -11.9570 C   0  0  0  0  0  0  0  0  0  0  0  0
   20.9460  -22.3162  -11.2220 O   0  0  0  0  0  0  0  0  0  0  0  0
   19.5241  -20.6667  -11.7832 O   0  0  0  0  0  0  0  0  0  0  0  0
  1  2  1  0
  2  3  2  0
  3  4  1  0
  5  4  2  0
  5  6  1  0
  7  6  1  0
  7  8  1  6
  9  7  1  0
 10  9  2  0
 11  5  1  0
 12  2  1  0
 12 11  2  0
 14 15  1  0
 14 13  1  0
 17 16  1  1
 16 15  1  0
 17 18  1  0
 18  9  1  0
 19 26  1  0
 19 17  1  0
 20 19  2  0
 22 21  1  0
 22 23  1  0
 23 24  1  1
 25 23  1  0
 25 26  1  1
 27 25  1  0
 27 29  1  0
 28 27  2  0
M  END
$$$$
