YMI.pdb
     RDKit          3D

 29 29  0  0  1  0  0  0  0  0999 V2000
   25.4500  -13.8832  -20.7455 O   0  0  0  0  0  0  0  0  0  0  0  0
   25.5026  -14.8833  -19.7671 C   0  0  0  0  0  0  0  0  0  0  0  0
   26.5229  -14.8927  -18.8392 C   0  0  0  0  0  0  0  0  0  0  0  0
   26.5589  -15.8897  -17.8788 C   0  0  0  0  0  0  0  0  0  0  0  0
   25.6078  -16.8904  -17.8033 C   0  0  0  0  0  0  0  0  0  0  0  0
   25.7213  -17.9085  -16.7570 C   0  0  0  0  0  0  0  0  0  0  0  0
   26.9059  -18.8322  -16.9124 C   0  0  2  0  0  0  0  0  0  0  0  0
   26.6890  -19.6427  -18.0883 N   0  0  0  0  0  0  0  0  0  0  0  0
   26.9223  -19.7592  -15.7295 C   0  0  0  0  0  0  0  0  0  0  0  0
   26.0674  -20.6928  -15.6365 O   0  0  0  0  0  0  0  0  0  0  0  0
   24.5920  -16.8668  -18.7399 C   0  0  0  0  0  0  0  0  0  0  0  0
   24.5557  -15.8757  -19.6957 C   0  0  0  0  0  0  0  0  0  0  0  0
   31.6627  -21.3613   -9.6150 C   0  0  0  0  0  0  0  0  0  0  0  0
   31.3186  -20.7103  -11.2503 S   0  0  0  0  0  0  0  0  0  0  0  0
   29.5549  -20.9880  -11.7128 C   0  0  0  0  0  0  0  0  0  0  0  0
   29.2956  -20.3062  -13.0033 C   0  0  0  0  0  0  0  0  0  0  0  0
   27.8924  -20.4000  -13.5403 C   0  0  2  0  0  0  0  0  0  0  0  0
   27.9114  -19.5470  -14.7465 N   0  0  0  0  0  0  0  0  0  0  0  0
   26.8356  -19.9805  -12.6287 C   0  0  0  0  0  0  0  0  0  0  0  0
   26.5584  -18.7578  -12.5180 O   0  0  0  0  0  0  0  0  0  0  0  0
   21.2977  -20.0311  -11.7701 C   0  0  0  0  0  0  0  0  0  0  0  0
   22.5544  -20.0080  -10.9867 C   0  0  0  0  0  0  0  0  0  0  0  0
   23.7900  -20.4783  -11.6539 C   0  0  2  0  0  0  0  0  0  0  0  0
   23.5366  -21.7613  -12.3756 C   0  0  0  0  0  0  0  0  0  0  0  0
   25.0684  -20.4201  -10.8897 C   0  0  2  0  0  0  0  0  0  0  0  0
   26.0966  -20.8970  -11.8587 N   0  0  0  0  0  0  0  0  0  0  0  0
   25.1544  -21.2647   -9.6969 C   0  0  0  0  0  0  0  0  0  0  0  0
   25.6727  -22.4009   -9.7564 O   0  0  0  0  0  0  0  0  0  0  0  0
   24.6753  -20.8556   -8.4622 O   0  0  0  0  0  0  0  0  0  0  0  0
  1  2  1  0
  2  3  2  0
  3  4  1  0
  5  4  2  0
  5  6  1  0
  7  6  1  0
  7  8  1  6
  9  7  1  0
 10  9  2  0
 11  5  1  0
 12  2  1  0
 12 11  2  0
 14 15  1  0
 14 13  1  0
 17 16  1  1
 16 15  1  0
 17 18  1  0
 18  9  1  0
 19 26  1  0
 19 17  1  0
 20 19  2  0
 22 21  1  0
 22 23  1  0
 23 24  1  1
 25 23  1  0
 25 26  1  6
 27 25  1  0
 27 29  1  0
 28 27  2  0
M  END
$$$$
