YMI.pdb
     RDKit          3D

 29 29  0  0  1  0  0  0  0  0999 V2000
   25.3400  -30.8116  -16.2924 O   0  0  0  0  0  0  0  0  0  0  0  0
   26.2580  -29.8334  -16.6935 C   0  0  0  0  0  0  0  0  0  0  0  0
   27.6057  -30.0103  -16.4605 C   0  0  0  0  0  0  0  0  0  0  0  0
   28.4992  -29.0322  -16.8641 C   0  0  0  0  0  0  0  0  0  0  0  0
   28.1003  -27.8704  -17.4987 C   0  0  0  0  0  0  0  0  0  0  0  0
   29.1105  -26.8857  -17.8908 C   0  0  0  0  0  0  0  0  0  0  0  0
   29.5819  -25.9950  -16.7660 C   0  0  2  0  0  0  0  0  0  0  0  0
   28.7379  -24.8229  -16.7409 N   0  0  0  0  0  0  0  0  0  0  0  0
   30.9734  -25.5347  -17.0986 C   0  0  0  0  0  0  0  0  0  0  0  0
   31.1519  -24.4873  -17.7930 O   0  0  0  0  0  0  0  0  0  0  0  0
   26.7467  -27.7084  -17.7251 C   0  0  0  0  0  0  0  0  0  0  0  0
   25.8573  -28.6806  -17.3237 C   0  0  0  0  0  0  0  0  0  0  0  0
   36.1824  -24.7540  -13.2517 C   0  0  0  0  0  0  0  0  0  0  0  0
   34.5077  -25.2822  -12.8871 S   0  0  0  0  0  0  0  0  0  0  0  0
   33.4358  -25.1544  -14.3825 C   0  0  0  0  0  0  0  0  0  0  0  0
   34.0752  -25.9130  -15.4839 C   0  0  0  0  0  0  0  0  0  0  0  0
   33.4232  -25.8074  -16.8367 C   0  0  2  0  0  0  0  0  0  0  0  0
   32.0503  -26.3059  -16.6138 N   0  0  0  0  0  0  0  0  0  0  0  0
   34.0719  -26.5464  -17.9123 C   0  0  0  0  0  0  0  0  0  0  0  0
   33.8461  -27.7774  -18.0457 O   0  0  0  0  0  0  0  0  0  0  0  0
   33.6318  -25.0401  -22.7715 C   0  0  0  0  0  0  0  0  0  0  0  0
   33.9196  -25.8764  -21.5835 C   0  0  0  0  0  0  0  0  0  0  0  0
   35.3302  -25.9894  -21.1469 C   0  0  2  0  0  0  0  0  0  0  0  0
   36.2090  -26.3290  -22.3061 C   0  0  0  0  0  0  0  0  0  0  0  0
   35.6200  -26.7349  -19.8891 C   0  0  2  0  0  0  0  0  0  0  0  0
   34.9491  -25.9336  -18.8254 N   0  0  0  0  0  0  0  0  0  0  0  0
   37.0307  -26.8710  -19.5218 C   0  0  0  0  0  0  0  0  0  0  0  0
   37.6450  -25.9215  -18.9887 O   0  0  0  0  0  0  0  0  0  0  0  0
   37.7450  -28.0384  -19.7410 O   0  0  0  0  0  0  0  0  0  0  0  0
  1  2  1  0
  2  3  2  0
  3  4  1  0
  5  4  2  0
  5  6  1  0
  7  6  1  0
  7  8  1  6
  9  7  1  0
 10  9  2  0
 11  5  1  0
 12  2  1  0
 12 11  2  0
 14 15  1  0
 14 13  1  0
 17 16  1  1
 16 15  1  0
 17 18  1  0
 18  9  1  0
 19 26  1  0
 19 17  1  0
 20 19  2  0
 22 21  1  0
 22 23  1  0
 23 24  1  6
 25 23  1  0
 25 26  1  1
 27 25  1  0
 27 29  1  0
 28 27  2  0
M  END
$$$$
