YMI.pdb
     RDKit          3D

 29 29  0  0  1  0  0  0  0  0999 V2000
   14.4824  -13.4716  -17.9161 O   0  0  0  0  0  0  0  0  0  0  0  0
   15.0160  -12.6634  -16.9050 C   0  0  0  0  0  0  0  0  0  0  0  0
   14.7699  -11.3064  -16.8997 C   0  0  0  0  0  0  0  0  0  0  0  0
   15.3059  -10.5225  -15.8917 C   0  0  0  0  0  0  0  0  0  0  0  0
   16.0868  -11.0415  -14.8755 C   0  0  0  0  0  0  0  0  0  0  0  0
   16.6166  -10.1417  -13.8491 C   0  0  0  0  0  0  0  0  0  0  0  0
   17.8565   -9.3856  -14.2632 C   0  0  2  0  0  0  0  0  0  0  0  0
   18.9416  -10.3330  -14.3727 N   0  0  0  0  0  0  0  0  0  0  0  0
   18.2058   -8.4351  -13.1527 C   0  0  0  0  0  0  0  0  0  0  0  0
   18.6184   -8.8783  -12.0372 O   0  0  0  0  0  0  0  0  0  0  0  0
   16.3238  -12.4028  -14.8950 C   0  0  0  0  0  0  0  0  0  0  0  0
   15.7913  -13.1831  -15.8974 C   0  0  0  0  0  0  0  0  0  0  0  0
   23.3644   -5.4214  -14.5731 C   0  0  0  0  0  0  0  0  0  0  0  0
   21.8760   -4.6510  -13.9341 S   0  0  0  0  0  0  0  0  0  0  0  0
   20.7024   -5.9189  -13.2888 C   0  0  0  0  0  0  0  0  0  0  0  0
   19.4518   -5.2355  -12.8806 C   0  0  0  0  0  0  0  0  0  0  0  0
   18.3665   -6.1093  -12.3104 C   0  0  2  0  0  0  0  0  0  0  0  0
   18.0557   -7.0549  -13.4022 N   0  0  0  0  0  0  0  0  0  0  0  0
   17.1623   -5.4173  -11.8690 C   0  0  0  0  0  0  0  0  0  0  0  0
   16.2600   -5.1450  -12.7032 O   0  0  0  0  0  0  0  0  0  0  0  0
   12.7213   -5.5305   -8.2764 C   0  0  0  0  0  0  0  0  0  0  0  0
   13.9063   -4.6484   -8.3831 C   0  0  0  0  0  0  0  0  0  0  0  0
   15.0889   -5.1693   -9.1065 C   0  0  2  0  0  0  0  0  0  0  0  0
   16.0299   -5.8347   -8.1562 C   0  0  0  0  0  0  0  0  0  0  0  0
   15.7303   -4.2943  -10.1287 C   0  0  2  0  0  0  0  0  0  0  0  0
   16.9586   -5.0389  -10.5296 N   0  0  0  0  0  0  0  0  0  0  0  0
   16.1424   -2.9626   -9.6815 C   0  0  0  0  0  0  0  0  0  0  0  0
   17.3064   -2.7592   -9.2730 O   0  0  0  0  0  0  0  0  0  0  0  0
   15.2796   -1.8778   -9.6884 O   0  0  0  0  0  0  0  0  0  0  0  0
  1  2  1  0
  2  3  2  0
  3  4  1  0
  5  4  2  0
  5  6  1  0
  7  6  1  0
  7  8  1  1
  9  7  1  0
 10  9  2  0
 11  5  1  0
 12  2  1  0
 12 11  2  0
 14 15  1  0
 14 13  1  0
 17 16  1  6
 16 15  1  0
 17 18  1  0
 18  9  1  0
 19 26  1  0
 19 17  1  0
 20 19  2  0
 22 21  1  0
 22 23  1  0
 23 24  1  1
 25 23  1  0
 25 26  1  1
 27 25  1  0
 27 29  1  0
 28 27  2  0
M  END
$$$$
