YMI.pdb
     RDKit          3D

 29 29  0  0  1  0  0  0  0  0999 V2000
   16.6214  -23.3576  -11.5240 O   0  0  0  0  0  0  0  0  0  0  0  0
   17.8631  -22.9373  -12.0155 C   0  0  0  0  0  0  0  0  0  0  0  0
   18.8395  -22.4965  -11.1471 C   0  0  0  0  0  0  0  0  0  0  0  0
   20.0618  -22.0845  -11.6512 C   0  0  0  0  0  0  0  0  0  0  0  0
   20.3554  -22.0943  -13.0023 C   0  0  0  0  0  0  0  0  0  0  0  0
   21.6727  -21.6397  -13.4520 C   0  0  0  0  0  0  0  0  0  0  0  0
   22.0035  -20.2159  -13.0724 C   0  0  2  0  0  0  0  0  0  0  0  0
   20.9909  -19.3558  -13.6394 N   0  0  0  0  0  0  0  0  0  0  0  0
   23.3085  -19.8588  -13.7268 C   0  0  0  0  0  0  0  0  0  0  0  0
   23.5654  -18.6521  -14.0252 O   0  0  0  0  0  0  0  0  0  0  0  0
   19.3667  -22.5390  -13.8592 C   0  0  0  0  0  0  0  0  0  0  0  0
   18.1506  -22.9486  -13.3586 C   0  0  0  0  0  0  0  0  0  0  0  0
   24.7222  -21.2755   -9.0520 C   0  0  0  0  0  0  0  0  0  0  0  0
   26.2020  -20.3297   -9.4156 S   0  0  0  0  0  0  0  0  0  0  0  0
   26.6656  -20.4884  -11.1937 C   0  0  0  0  0  0  0  0  0  0  0  0
   25.4231  -20.6098  -11.9931 C   0  0  0  0  0  0  0  0  0  0  0  0
   25.5965  -20.7796  -13.4788 C   0  0  2  0  0  0  0  0  0  0  0  0
   24.2160  -20.9061  -13.9897 N   0  0  0  0  0  0  0  0  0  0  0  0
   26.4072  -21.9164  -13.8964 C   0  0  0  0  0  0  0  0  0  0  0  0
   26.1047  -23.0736  -13.5048 O   0  0  0  0  0  0  0  0  0  0  0  0
   24.9706  -22.3784  -18.8455 C   0  0  0  0  0  0  0  0  0  0  0  0
   26.2043  -22.7454  -18.1127 C   0  0  0  0  0  0  0  0  0  0  0  0
   26.3912  -22.1837  -16.7552 C   0  0  2  0  0  0  0  0  0  0  0  0
   26.0421  -20.7314  -16.7394 C   0  0  0  0  0  0  0  0  0  0  0  0
   27.6271  -22.5490  -16.0064 C   0  0  2  0  0  0  0  0  0  0  0  0
   27.5275  -21.7755  -14.7354 N   0  0  0  0  0  0  0  0  0  0  0  0
   28.9004  -22.2025  -16.6405 C   0  0  0  0  0  0  0  0  0  0  0  0
   29.6321  -23.0911  -17.1285 O   0  0  0  0  0  0  0  0  0  0  0  0
   29.3521  -20.8953  -16.7318 O   0  0  0  0  0  0  0  0  0  0  0  0
  1  2  1  0
  2  3  2  0
  3  4  1  0
  5  4  2  0
  5  6  1  0
  7  6  1  0
  7  8  1  6
  9  7  1  0
 10  9  2  0
 11  5  1  0
 12  2  1  0
 12 11  2  0
 14 15  1  0
 14 13  1  0
 17 16  1  1
 16 15  1  0
 17 18  1  0
 18  9  1  0
 19 26  1  0
 19 17  1  0
 20 19  2  0
 22 21  1  0
 22 23  1  0
 23 24  1  6
 25 23  1  0
 25 26  1  1
 27 25  1  0
 27 29  1  0
 28 27  2  0
M  END
$$$$
