YMI.pdb
     RDKit          3D

 29 29  0  0  1  0  0  0  0  0999 V2000
   28.6915  -14.6336  -18.3959 O   0  0  0  0  0  0  0  0  0  0  0  0
   28.1602  -15.6483  -17.5908 C   0  0  0  0  0  0  0  0  0  0  0  0
   27.5683  -16.7525  -18.1672 C   0  0  0  0  0  0  0  0  0  0  0  0
   27.0480  -17.7463  -17.3551 C   0  0  0  0  0  0  0  0  0  0  0  0
   27.0942  -17.6848  -15.9746 C   0  0  0  0  0  0  0  0  0  0  0  0
   26.5182  -18.7785  -15.1896 C   0  0  0  0  0  0  0  0  0  0  0  0
   27.5379  -19.6864  -14.5441 C   0  0  2  0  0  0  0  0  0  0  0  0
   28.1492  -20.4816  -15.5837 N   0  0  0  0  0  0  0  0  0  0  0  0
   26.8010  -20.6307  -13.6364 C   0  0  0  0  0  0  0  0  0  0  0  0
   26.3112  -21.7079  -14.0954 O   0  0  0  0  0  0  0  0  0  0  0  0
   27.6908  -16.5723  -15.4126 C   0  0  0  0  0  0  0  0  0  0  0  0
   28.2082  -15.5832  -16.2196 C   0  0  0  0  0  0  0  0  0  0  0  0
   27.5832  -20.3466   -7.5004 C   0  0  0  0  0  0  0  0  0  0  0  0
   25.8332  -20.7089   -7.3484 S   0  0  0  0  0  0  0  0  0  0  0  0
   25.0953  -21.0986   -8.9931 C   0  0  0  0  0  0  0  0  0  0  0  0
   26.0187  -20.6160  -10.0475 C   0  0  0  0  0  0  0  0  0  0  0  0
   25.6379  -20.9350  -11.4686 C   0  0  2  0  0  0  0  0  0  0  0  0
   26.6805  -20.2708  -12.2778 N   0  0  0  0  0  0  0  0  0  0  0  0
   24.3096  -20.5005  -11.8816 C   0  0  0  0  0  0  0  0  0  0  0  0
   24.0773  -19.2735  -12.0389 O   0  0  0  0  0  0  0  0  0  0  0  0
   20.3707  -21.5522  -16.0476 C   0  0  0  0  0  0  0  0  0  0  0  0
   20.4822  -21.1384  -14.6299 C   0  0  0  0  0  0  0  0  0  0  0  0
   21.7759  -21.3665  -13.9462 C   0  0  2  0  0  0  0  0  0  0  0  0
   22.2794  -22.7440  -14.2296 C   0  0  0  0  0  0  0  0  0  0  0  0
   21.9129  -20.9177  -12.5314 C   0  0  2  0  0  0  0  0  0  0  0  0
   23.2606  -21.4067  -12.1209 N   0  0  0  0  0  0  0  0  0  0  0  0
   20.9363  -21.4514  -11.5802 C   0  0  0  0  0  0  0  0  0  0  0  0
   19.8030  -20.9346  -11.4727 O   0  0  0  0  0  0  0  0  0  0  0  0
   21.2122  -22.5380  -10.7650 O   0  0  0  0  0  0  0  0  0  0  0  0
  1  2  1  0
  2  3  2  0
  3  4  1  0
  5  4  2  0
  5  6  1  0
  7  6  1  0
  7  8  1  6
  9  7  1  0
 10  9  2  0
 11  5  1  0
 12  2  1  0
 12 11  2  0
 14 15  1  0
 14 13  1  0
 17 16  1  1
 16 15  1  0
 17 18  1  0
 18  9  1  0
 19 26  1  0
 19 17  1  0
 20 19  2  0
 22 21  1  0
 22 23  1  0
 23 24  1  1
 25 23  1  0
 25 26  1  1
 27 25  1  0
 27 29  1  0
 28 27  2  0
M  END
$$$$
