YMI.pdb
     RDKit          3D

 29 29  0  0  1  0  0  0  0  0999 V2000
   24.3874  -34.0028  -26.8842 O   0  0  0  0  0  0  0  0  0  0  0  0
   24.4440  -33.3087  -25.6696 C   0  0  0  0  0  0  0  0  0  0  0  0
   23.7693  -32.1152  -25.5209 C   0  0  0  0  0  0  0  0  0  0  0  0
   23.8366  -31.4423  -24.3123 C   0  0  0  0  0  0  0  0  0  0  0  0
   24.5574  -31.9160  -23.2316 C   0  0  0  0  0  0  0  0  0  0  0  0
   24.5778  -31.1409  -21.9896 C   0  0  0  0  0  0  0  0  0  0  0  0
   24.3398  -31.9574  -20.7416 C   0  0  2  0  0  0  0  0  0  0  0  0
   22.9173  -32.1749  -20.6149 N   0  0  0  0  0  0  0  0  0  0  0  0
   24.7704  -31.1296  -19.5635 C   0  0  0  0  0  0  0  0  0  0  0  0
   23.9448  -30.3543  -18.9903 O   0  0  0  0  0  0  0  0  0  0  0  0
   25.2275  -33.1133  -23.3966 C   0  0  0  0  0  0  0  0  0  0  0  0
   25.1613  -33.7828  -24.5985 C   0  0  0  0  0  0  0  0  0  0  0  0
   27.4217  -32.3495  -13.3256 C   0  0  0  0  0  0  0  0  0  0  0  0
   28.3706  -32.4362  -14.8451 S   0  0  0  0  0  0  0  0  0  0  0  0
   28.0165  -30.9852  -15.9272 C   0  0  0  0  0  0  0  0  0  0  0  0
   27.4079  -31.4768  -17.1863 C   0  0  0  0  0  0  0  0  0  0  0  0
   26.5246  -30.5079  -17.9261 C   0  0  2  0  0  0  0  0  0  0  0  0
   26.1083  -31.2509  -19.1334 N   0  0  0  0  0  0  0  0  0  0  0  0
   27.1411  -29.2382  -18.2890 C   0  0  0  0  0  0  0  0  0  0  0  0
   27.8835  -29.1744  -19.3033 O   0  0  0  0  0  0  0  0  0  0  0  0
   25.7326  -23.3347  -17.5322 C   0  0  0  0  0  0  0  0  0  0  0  0
   26.7567  -24.3298  -17.9253 C   0  0  0  0  0  0  0  0  0  0  0  0
   26.4699  -25.7569  -17.6524 C   0  0  2  0  0  0  0  0  0  0  0  0
   25.8611  -25.9164  -16.2976 C   0  0  0  0  0  0  0  0  0  0  0  0
   27.5109  -26.7638  -18.0045 C   0  0  2  0  0  0  0  0  0  0  0  0
   26.9355  -28.0612  -17.5466 N   0  0  0  0  0  0  0  0  0  0  0  0
   28.8168  -26.6040  -17.3621 C   0  0  0  0  0  0  0  0  0  0  0  0
   29.0987  -27.2409  -16.3238 O   0  0  0  0  0  0  0  0  0  0  0  0
   29.7908  -25.7545  -17.8629 O   0  0  0  0  0  0  0  0  0  0  0  0
  1  2  1  0
  2  3  2  0
  3  4  1  0
  5  4  2  0
  5  6  1  0
  7  6  1  0
  7  8  1  1
  9  7  1  0
 10  9  2  0
 11  5  1  0
 12  2  1  0
 12 11  2  0
 14 15  1  0
 14 13  1  0
 17 16  1  6
 16 15  1  0
 17 18  1  0
 18  9  1  0
 19 26  1  0
 19 17  1  0
 20 19  2  0
 22 21  1  0
 22 23  1  0
 23 24  1  1
 25 23  1  0
 25 26  1  1
 27 25  1  0
 27 29  1  0
 28 27  2  0
M  END
$$$$
