YMI.pdb
     RDKit          3D

 29 29  0  0  1  0  0  0  0  0999 V2000
   27.6551  -13.6436  -17.2923 O   0  0  0  0  0  0  0  0  0  0  0  0
   27.3190  -14.8257  -16.6216 C   0  0  0  0  0  0  0  0  0  0  0  0
   26.5406  -15.7789  -17.2441 C   0  0  0  0  0  0  0  0  0  0  0  0
   26.2180  -16.9421  -16.5653 C   0  0  0  0  0  0  0  0  0  0  0  0
   26.6448  -17.1983  -15.2754 C   0  0  0  0  0  0  0  0  0  0  0  0
   26.2566  -18.4534  -14.6289 C   0  0  0  0  0  0  0  0  0  0  0  0
   27.4160  -19.2784  -14.1232 C   0  0  2  0  0  0  0  0  0  0  0  0
   28.1000  -19.8358  -15.2671 N   0  0  0  0  0  0  0  0  0  0  0  0
   26.8516  -20.4289  -13.3379 C   0  0  0  0  0  0  0  0  0  0  0  0
   26.3976  -21.4512  -13.9375 O   0  0  0  0  0  0  0  0  0  0  0  0
   27.4241  -16.2336  -14.6657 C   0  0  0  0  0  0  0  0  0  0  0  0
   27.7451  -15.0763  -15.3401 C   0  0  0  0  0  0  0  0  0  0  0  0
   27.1366  -19.6971   -7.1113 C   0  0  0  0  0  0  0  0  0  0  0  0
   25.9282  -21.0208   -7.0456 S   0  0  0  0  0  0  0  0  0  0  0  0
   25.2430  -21.3717   -8.7215 C   0  0  0  0  0  0  0  0  0  0  0  0
   26.1699  -20.8118   -9.7338 C   0  0  0  0  0  0  0  0  0  0  0  0
   25.8155  -21.0588  -11.1759 C   0  0  2  0  0  0  0  0  0  0  0  0
   26.8490  -20.3213  -11.9314 N   0  0  0  0  0  0  0  0  0  0  0  0
   24.4808  -20.6371  -11.5816 C   0  0  0  0  0  0  0  0  0  0  0  0
   24.2355  -19.4123  -11.7365 O   0  0  0  0  0  0  0  0  0  0  0  0
   20.5227  -21.8637  -15.7124 C   0  0  0  0  0  0  0  0  0  0  0  0
   20.6551  -21.3594  -14.3262 C   0  0  0  0  0  0  0  0  0  0  0  0
   21.9469  -21.5769  -13.6353 C   0  0  2  0  0  0  0  0  0  0  0  0
   22.4351  -22.9692  -13.8690 C   0  0  0  0  0  0  0  0  0  0  0  0
   22.0903  -21.0788  -12.2378 C   0  0  2  0  0  0  0  0  0  0  0  0
   23.4396  -21.5534  -11.8163 N   0  0  0  0  0  0  0  0  0  0  0  0
   21.1177  -21.5784  -11.2642 C   0  0  0  0  0  0  0  0  0  0  0  0
   21.4368  -22.4643  -10.4416 O   0  0  0  0  0  0  0  0  0  0  0  0
   19.8170  -21.1034  -11.2043 O   0  0  0  0  0  0  0  0  0  0  0  0
  1  2  1  0
  2  3  2  0
  3  4  1  0
  5  4  2  0
  5  6  1  0
  7  6  1  0
  7  8  1  6
  9  7  1  0
 10  9  2  0
 11  5  1  0
 12  2  1  0
 12 11  2  0
 14 15  1  0
 14 13  1  0
 17 16  1  1
 16 15  1  0
 17 18  1  0
 18  9  1  0
 19 26  1  0
 19 17  1  0
 20 19  2  0
 22 21  1  0
 22 23  1  0
 23 24  1  1
 25 23  1  0
 25 26  1  1
 27 25  1  0
 27 29  1  0
 28 27  2  0
M  END
$$$$
