YMI.pdb
     RDKit          3D

 29 29  0  0  1  0  0  0  0  0999 V2000
   29.8516  -15.2198  -18.8368 O   0  0  0  0  0  0  0  0  0  0  0  0
   29.0599  -16.1078  -18.0986 C   0  0  0  0  0  0  0  0  0  0  0  0
   28.2624  -17.0280  -18.7458 C   0  0  0  0  0  0  0  0  0  0  0  0
   27.4857  -17.8984  -17.9994 C   0  0  0  0  0  0  0  0  0  0  0  0
   27.4711  -17.8900  -16.6168 C   0  0  0  0  0  0  0  0  0  0  0  0
   26.6190  -18.8438  -15.9041 C   0  0  0  0  0  0  0  0  0  0  0  0
   27.3740  -19.8534  -15.0726 C   0  0  2  0  0  0  0  0  0  0  0  0
   28.0781  -20.7365  -15.9732 N   0  0  0  0  0  0  0  0  0  0  0  0
   26.3639  -20.6848  -14.3328 C   0  0  0  0  0  0  0  0  0  0  0  0
   25.8894  -21.7361  -14.8626 O   0  0  0  0  0  0  0  0  0  0  0  0
   28.2759  -16.9622  -15.9834 C   0  0  0  0  0  0  0  0  0  0  0  0
   29.0483  -16.0959  -16.7251 C   0  0  0  0  0  0  0  0  0  0  0  0
   25.4867  -20.2816   -7.9585 C   0  0  0  0  0  0  0  0  0  0  0  0
   26.9218  -21.1015   -8.6550 S   0  0  0  0  0  0  0  0  0  0  0  0
   26.6989  -21.3993  -10.4614 C   0  0  0  0  0  0  0  0  0  0  0  0
   25.3716  -20.8753  -10.8628 C   0  0  0  0  0  0  0  0  0  0  0  0
   24.9868  -21.0608  -12.3063 C   0  0  2  0  0  0  0  0  0  0  0  0
   25.9746  -20.2506  -13.0485 N   0  0  0  0  0  0  0  0  0  0  0  0
   23.6284  -20.6653  -12.6559 C   0  0  0  0  0  0  0  0  0  0  0  0
   23.3169  -19.4459  -12.6598 O   0  0  0  0  0  0  0  0  0  0  0  0
   19.3474  -22.2728  -16.5361 C   0  0  0  0  0  0  0  0  0  0  0  0
   19.6218  -21.6179  -15.2363 C   0  0  0  0  0  0  0  0  0  0  0  0
   20.9770  -21.7735  -14.6599 C   0  0  2  0  0  0  0  0  0  0  0  0
   21.4518  -23.1811  -14.8172 C   0  0  0  0  0  0  0  0  0  0  0  0
   21.2527  -21.1539  -13.3326 C   0  0  2  0  0  0  0  0  0  0  0  0
   22.6359  -21.6010  -12.9997 N   0  0  0  0  0  0  0  0  0  0  0  0
   20.3770  -21.5559  -12.2304 C   0  0  0  0  0  0  0  0  0  0  0  0
   19.2200  -21.0920  -12.1338 O   0  0  0  0  0  0  0  0  0  0  0  0
   20.7774  -22.4558  -11.2552 O   0  0  0  0  0  0  0  0  0  0  0  0
  1  2  1  0
  2  3  2  0
  3  4  1  0
  5  4  2  0
  5  6  1  0
  7  6  1  0
  7  8  1  6
  9  7  1  0
 10  9  2  0
 11  5  1  0
 12  2  1  0
 12 11  2  0
 14 15  1  0
 14 13  1  0
 17 16  1  1
 16 15  1  0
 17 18  1  0
 18  9  1  0
 19 26  1  0
 19 17  1  0
 20 19  2  0
 22 21  1  0
 22 23  1  0
 23 24  1  1
 25 23  1  0
 25 26  1  1
 27 25  1  0
 27 29  1  0
 28 27  2  0
M  END
$$$$
