YMI.pdb
     RDKit          3D

 29 29  0  0  1  0  0  0  0  0999 V2000
   30.2012  -16.1918  -19.0431 O   0  0  0  0  0  0  0  0  0  0  0  0
   29.4103  -16.9282  -18.1530 C   0  0  0  0  0  0  0  0  0  0  0  0
   28.2494  -17.5297  -18.5915 C   0  0  0  0  0  0  0  0  0  0  0  0
   27.4795  -18.2542  -17.6970 C   0  0  0  0  0  0  0  0  0  0  0  0
   27.8233  -18.4065  -16.3664 C   0  0  0  0  0  0  0  0  0  0  0  0
   26.9516  -19.1876  -15.4867 C   0  0  0  0  0  0  0  0  0  0  0  0
   27.5545  -20.4858  -15.0049 C   0  0  2  0  0  0  0  0  0  0  0  0
   27.6693  -21.3729  -16.1393 N   0  0  0  0  0  0  0  0  0  0  0  0
   26.5832  -21.1137  -14.0452 C   0  0  0  0  0  0  0  0  0  0  0  0
   25.8483  -22.0788  -14.4185 O   0  0  0  0  0  0  0  0  0  0  0  0
   28.9895  -17.7981  -15.9428 C   0  0  0  0  0  0  0  0  0  0  0  0
   29.7556  -17.0770  -16.8319 C   0  0  0  0  0  0  0  0  0  0  0  0
   27.3743  -19.6207   -8.0805 C   0  0  0  0  0  0  0  0  0  0  0  0
   25.9365  -20.6412   -7.7513 S   0  0  0  0  0  0  0  0  0  0  0  0
   25.0970  -21.1235   -9.3211 C   0  0  0  0  0  0  0  0  0  0  0  0
   25.9759  -20.7528  -10.4559 C   0  0  0  0  0  0  0  0  0  0  0  0
   25.4642  -21.0788  -11.8336 C   0  0  2  0  0  0  0  0  0  0  0  0
   26.5267  -20.5903  -12.7366 N   0  0  0  0  0  0  0  0  0  0  0  0
   24.1775  -20.4928  -12.1869 C   0  0  0  0  0  0  0  0  0  0  0  0
   24.0883  -19.2504  -12.3677 O   0  0  0  0  0  0  0  0  0  0  0  0
   20.5960  -23.1553  -15.4095 C   0  0  0  0  0  0  0  0  0  0  0  0
   20.9960  -22.6195  -14.0880 C   0  0  0  0  0  0  0  0  0  0  0  0
   21.3522  -21.1843  -14.0064 C   0  0  2  0  0  0  0  0  0  0  0  0
   22.2716  -20.8113  -15.1231 C   0  0  0  0  0  0  0  0  0  0  0  0
   21.7103  -20.6227  -12.6730 C   0  0  2  0  0  0  0  0  0  0  0  0
   23.0136  -21.2674  -12.3420 N   0  0  0  0  0  0  0  0  0  0  0  0
   20.7824  -20.9042  -11.5761 C   0  0  0  0  0  0  0  0  0  0  0  0
   19.6770  -20.3236  -11.5113 O   0  0  0  0  0  0  0  0  0  0  0  0
   21.0755  -21.8129  -10.5713 O   0  0  0  0  0  0  0  0  0  0  0  0
  1  2  1  0
  2  3  2  0
  3  4  1  0
  5  4  2  0
  5  6  1  0
  7  6  1  0
  7  8  1  6
  9  7  1  0
 10  9  2  0
 11  5  1  0
 12  2  1  0
 12 11  2  0
 14 15  1  0
 14 13  1  0
 17 16  1  1
 16 15  1  0
 17 18  1  0
 18  9  1  0
 19 26  1  0
 19 17  1  0
 20 19  2  0
 22 21  1  0
 22 23  1  0
 23 24  1  6
 25 23  1  0
 25 26  1  1
 27 25  1  0
 27 29  1  0
 28 27  2  0
M  END
$$$$
