YMI.pdb
     RDKit          3D

 29 29  0  0  1  0  0  0  0  0999 V2000
   17.1257  -14.5733  -15.9011 O   0  0  0  0  0  0  0  0  0  0  0  0
   17.9564  -15.5322  -15.3089 C   0  0  0  0  0  0  0  0  0  0  0  0
   17.5235  -16.2386  -14.2064 C   0  0  0  0  0  0  0  0  0  0  0  0
   18.3587  -17.1832  -13.6336 C   0  0  0  0  0  0  0  0  0  0  0  0
   19.6235  -17.4569  -14.1206 C   0  0  0  0  0  0  0  0  0  0  0  0
   20.4435  -18.4704  -13.4539 C   0  0  0  0  0  0  0  0  0  0  0  0
   20.6387  -19.7375  -14.2520 C   0  0  2  0  0  0  0  0  0  0  0  0
   19.3921  -20.4674  -14.2430 N   0  0  0  0  0  0  0  0  0  0  0  0
   21.6534  -20.5806  -13.5321 C   0  0  0  0  0  0  0  0  0  0  0  0
   21.2968  -21.3309  -12.5724 O   0  0  0  0  0  0  0  0  0  0  0  0
   20.0422  -16.7409  -15.2259 C   0  0  0  0  0  0  0  0  0  0  0  0
   19.2122  -15.8009  -15.7959 C   0  0  0  0  0  0  0  0  0  0  0  0
   26.4879  -22.6694  -16.9183 C   0  0  0  0  0  0  0  0  0  0  0  0
   26.3461  -23.8635  -15.5877 S   0  0  0  0  0  0  0  0  0  0  0  0
   25.7151  -23.0649  -14.0496 C   0  0  0  0  0  0  0  0  0  0  0  0
   24.6111  -22.1465  -14.4171 C   0  0  0  0  0  0  0  0  0  0  0  0
   23.9961  -21.3552  -13.2938 C   0  0  2  0  0  0  0  0  0  0  0  0
   22.9941  -20.5001  -13.9631 N   0  0  0  0  0  0  0  0  0  0  0  0
   24.9200  -20.5481  -12.5072 C   0  0  0  0  0  0  0  0  0  0  0  0
   25.3207  -19.4436  -12.9585 O   0  0  0  0  0  0  0  0  0  0  0  0
   26.9123  -19.5661   -6.8232 C   0  0  0  0  0  0  0  0  0  0  0  0
   27.2103  -19.5541   -8.2739 C   0  0  0  0  0  0  0  0  0  0  0  0
   26.2297  -20.1904   -9.1831 C   0  0  2  0  0  0  0  0  0  0  0  0
   25.6755  -21.4323   -8.5652 C   0  0  0  0  0  0  0  0  0  0  0  0
   26.5778  -20.2997  -10.6283 C   0  0  2  0  0  0  0  0  0  0  0  0
   25.3869  -20.9531  -11.2436 N   0  0  0  0  0  0  0  0  0  0  0  0
   27.7511  -21.1113  -10.9572 C   0  0  0  0  0  0  0  0  0  0  0  0
   27.6394  -22.3396  -11.1622 O   0  0  0  0  0  0  0  0  0  0  0  0
   29.0231  -20.5699  -11.0573 O   0  0  0  0  0  0  0  0  0  0  0  0
  1  2  1  0
  2  3  2  0
  3  4  1  0
  5  4  2  0
  5  6  1  0
  7  6  1  0
  7  8  1  1
  9  7  1  0
 10  9  2  0
 11  5  1  0
 12  2  1  0
 12 11  2  0
 14 15  1  0
 14 13  1  0
 17 16  1  6
 16 15  1  0
 17 18  1  0
 18  9  1  0
 19 26  1  0
 19 17  1  0
 20 19  2  0
 22 21  1  0
 22 23  1  0
 23 24  1  1
 25 23  1  0
 25 26  1  6
 27 25  1  0
 27 29  1  0
 28 27  2  0
M  END
$$$$
