YMI.pdb
     RDKit          3D

 29 29  0  0  1  0  0  0  0  0999 V2000
   29.4916  -15.4437  -18.1560 O   0  0  0  0  0  0  0  0  0  0  0  0
   28.7865  -16.3870  -17.3988 C   0  0  0  0  0  0  0  0  0  0  0  0
   28.5454  -16.1612  -16.0599 C   0  0  0  0  0  0  0  0  0  0  0  0
   27.8463  -17.1053  -15.3265 C   0  0  0  0  0  0  0  0  0  0  0  0
   27.3710  -18.2801  -15.8795 C   0  0  0  0  0  0  0  0  0  0  0  0
   26.6425  -19.2266  -15.0324 C   0  0  0  0  0  0  0  0  0  0  0  0
   27.5209  -20.0529  -14.1234 C   0  0  2  0  0  0  0  0  0  0  0  0
   28.2625  -20.9826  -14.9434 N   0  0  0  0  0  0  0  0  0  0  0  0
   26.6230  -20.8638  -13.2318 C   0  0  0  0  0  0  0  0  0  0  0  0
   26.0211  -21.8841  -13.6875 O   0  0  0  0  0  0  0  0  0  0  0  0
   27.6205  -18.4912  -17.2222 C   0  0  0  0  0  0  0  0  0  0  0  0
   28.3160  -17.5528  -17.9521 C   0  0  0  0  0  0  0  0  0  0  0  0
   26.7184  -18.9928   -7.1190 C   0  0  0  0  0  0  0  0  0  0  0  0
   27.1493  -20.7178   -7.3541 S   0  0  0  0  0  0  0  0  0  0  0  0
   27.0213  -21.1930   -9.1316 C   0  0  0  0  0  0  0  0  0  0  0  0
   25.7462  -20.6607   -9.6685 C   0  0  0  0  0  0  0  0  0  0  0  0
   25.4019  -21.0464  -11.0824 C   0  0  2  0  0  0  0  0  0  0  0  0
   26.4821  -20.4460  -11.8920 N   0  0  0  0  0  0  0  0  0  0  0  0
   24.0961  -20.6083  -11.5586 C   0  0  0  0  0  0  0  0  0  0  0  0
   23.9302  -19.4097  -11.9049 O   0  0  0  0  0  0  0  0  0  0  0  0
   20.7138  -21.5271  -15.9656 C   0  0  0  0  0  0  0  0  0  0  0  0
   20.6059  -21.1681  -14.5327 C   0  0  0  0  0  0  0  0  0  0  0  0
   21.7765  -21.4364  -13.6661 C   0  0  2  0  0  0  0  0  0  0  0  0
   22.2911  -22.8194  -13.8987 C   0  0  0  0  0  0  0  0  0  0  0  0
   21.7059  -21.0158  -12.2379 C   0  0  2  0  0  0  0  0  0  0  0  0
   22.9971  -21.4812  -11.6547 N   0  0  0  0  0  0  0  0  0  0  0  0
   20.6227  -21.5937  -11.4404 C   0  0  0  0  0  0  0  0  0  0  0  0
   19.4324  -21.2807  -11.6601 O   0  0  0  0  0  0  0  0  0  0  0  0
   20.8562  -22.5020  -10.4197 O   0  0  0  0  0  0  0  0  0  0  0  0
  1  2  1  0
  2  3  2  0
  3  4  1  0
  5  4  2  0
  5  6  1  0
  7  6  1  0
  7  8  1  6
  9  7  1  0
 10  9  2  0
 11  5  1  0
 12  2  1  0
 12 11  2  0
 14 15  1  0
 14 13  1  0
 17 16  1  1
 16 15  1  0
 17 18  1  0
 18  9  1  0
 19 26  1  0
 19 17  1  0
 20 19  2  0
 22 21  1  0
 22 23  1  0
 23 24  1  1
 25 23  1  0
 25 26  1  1
 27 25  1  0
 27 29  1  0
 28 27  2  0
M  END
$$$$
