YMI.pdb
     RDKit          3D

 29 29  0  0  1  0  0  0  0  0999 V2000
   28.4307  -16.6415  -18.4379 O   0  0  0  0  0  0  0  0  0  0  0  0
   27.9752  -17.2892  -17.2833 C   0  0  0  0  0  0  0  0  0  0  0  0
   26.9670  -18.2265  -17.3660 C   0  0  0  0  0  0  0  0  0  0  0  0
   26.5291  -18.8571  -16.2135 C   0  0  0  0  0  0  0  0  0  0  0  0
   27.0614  -18.5893  -14.9658 C   0  0  0  0  0  0  0  0  0  0  0  0
   26.5389  -19.2998  -13.7970 C   0  0  0  0  0  0  0  0  0  0  0  0
   27.4862  -20.3215  -13.2142 C   0  0  2  0  0  0  0  0  0  0  0  0
   27.6112  -21.4056  -14.1607 N   0  0  0  0  0  0  0  0  0  0  0  0
   26.8478  -20.8836  -11.9751 C   0  0  0  0  0  0  0  0  0  0  0  0
   26.0541  -21.8708  -12.0559 O   0  0  0  0  0  0  0  0  0  0  0  0
   28.0710  -17.6480  -14.8998 C   0  0  0  0  0  0  0  0  0  0  0  0
   28.5068  -17.0201  -16.0457 C   0  0  0  0  0  0  0  0  0  0  0  0
   27.3517  -20.0473   -4.1343 C   0  0  0  0  0  0  0  0  0  0  0  0
   27.8320  -19.6270   -5.8104 S   0  0  0  0  0  0  0  0  0  0  0  0
   26.6767  -20.3792   -7.0356 C   0  0  0  0  0  0  0  0  0  0  0  0
   27.1911  -20.1005   -8.3976 C   0  0  0  0  0  0  0  0  0  0  0  0
   26.4147  -20.6961   -9.5416 C   0  0  2  0  0  0  0  0  0  0  0  0
   27.1647  -20.2747  -10.7429 N   0  0  0  0  0  0  0  0  0  0  0  0
   25.0178  -20.2922   -9.6379 C   0  0  0  0  0  0  0  0  0  0  0  0
   24.7324  -19.0846   -9.8483 O   0  0  0  0  0  0  0  0  0  0  0  0
   22.5684  -21.3759  -13.5399 C   0  0  0  0  0  0  0  0  0  0  0  0
   22.8805  -20.7708  -12.2246 C   0  0  0  0  0  0  0  0  0  0  0  0
   22.1712  -21.3011  -11.0375 C   0  0  2  0  0  0  0  0  0  0  0  0
   20.7035  -21.3864  -11.3024 C   0  0  0  0  0  0  0  0  0  0  0  0
   22.5457  -20.7673   -9.6972 C   0  0  2  0  0  0  0  0  0  0  0  0
   23.9579  -21.2080   -9.5089 N   0  0  0  0  0  0  0  0  0  0  0  0
   21.7692  -21.2605   -8.5583 C   0  0  0  0  0  0  0  0  0  0  0  0
   22.1692  -22.2383   -7.8896 O   0  0  0  0  0  0  0  0  0  0  0  0
   20.5727  -20.6792   -8.1688 O   0  0  0  0  0  0  0  0  0  0  0  0
  1  2  1  0
  2  3  2  0
  3  4  1  0
  5  4  2  0
  5  6  1  0
  7  6  1  0
  7  8  1  6
  9  7  1  0
 10  9  2  0
 11  5  1  0
 12  2  1  0
 12 11  2  0
 14 15  1  0
 14 13  1  0
 17 16  1  1
 16 15  1  0
 17 18  1  0
 18  9  1  0
 19 26  1  0
 19 17  1  0
 20 19  2  0
 22 21  1  0
 22 23  1  0
 23 24  1  6
 25 23  1  0
 25 26  1  1
 27 25  1  0
 27 29  1  0
 28 27  2  0
M  END
$$$$
