PGN.pdb
     RDKit          3D

 20 20  0  0  1  0  0  0  0  0999 V2000
   27.5619  -11.6415  -17.8282 N   0  0  0  0  0  0  0  0  0  0  0  0
   28.5506  -11.1101  -16.9311 C   0  0  0  0  0  0  0  0  0  0  0  0
   28.4567  -11.9806  -15.6669 C   0  0  0  0  0  0  0  0  0  0  0  0
   26.9425  -12.2313  -15.6926 C   0  0  0  0  0  0  0  0  0  0  0  0
   26.7724  -12.6170  -17.1475 C   0  0  1  0  0  0  0  0  0  0  0  0
   25.3633  -12.6306  -17.5376 C   0  0  0  0  0  0  0  0  0  0  0  0
   24.5681  -13.4004  -16.9549 O   0  0  0  0  0  0  0  0  0  0  0  0
   24.8794  -11.7886  -18.5643 N   0  0  0  0  0  0  0  0  0  0  0  0
   23.4878  -11.7790  -19.0025 C   0  0  0  0  0  0  0  0  0  0  0  0
   22.6982  -10.7911  -18.2124 C   0  0  0  0  0  0  0  0  0  0  0  0
   21.5216  -10.5472  -18.5880 O   0  0  0  0  0  0  0  0  0  0  0  0
   20.9024   -7.4336  -14.7355 N   0  0  0  0  0  0  0  0  0  0  0  0
   21.5007   -8.5671  -14.1258 C   0  0  0  0  0  0  0  0  0  0  0  0
   21.4001   -8.7630  -12.8881 O   0  0  0  0  0  0  0  0  0  0  0  0
   22.2315   -9.4928  -14.9739 C   0  0  0  0  0  0  0  0  0  0  0  0
   22.3528   -9.1099  -16.4263 C   0  0  2  0  0  0  0  0  0  0  0  0
   23.1990  -10.1294  -17.0855 N   0  0  0  0  0  0  0  0  0  0  0  0
   22.9989   -7.7806  -16.6101 C   0  0  0  0  0  0  0  0  0  0  0  0
   24.2393   -7.7358  -16.7685 O   0  0  0  0  0  0  0  0  0  0  0  0
   22.2923   -6.6117  -16.6138 O   0  0  0  0  0  0  0  0  0  0  0  0
  1  2  1  0
  2  3  1  0
  4  3  1  0
  5  1  1  0
  5  4  1  0
  5  6  1  6
  7  6  2  0
  8  6  1  0
  9  8  1  0
 10  9  1  0
 10 17  1  0
 11 10  2  0
 13 12  1  0
 14 13  2  0
 15 13  1  0
 16 17  1  0
 16 15  1  1
 18 16  1  0
 19 18  2  0
 20 18  1  0
M  END
$$$$
