PGN.pdb
     RDKit          3D

 20 20  0  0  1  0  0  0  0  0999 V2000
   27.5077  -14.8394  -18.7797 N   0  0  0  0  0  0  0  0  0  0  0  0
   26.8373  -16.0977  -18.6011 C   0  0  0  0  0  0  0  0  0  0  0  0
   25.3977  -15.8596  -19.0869 C   0  0  0  0  0  0  0  0  0  0  0  0
   25.2543  -14.4034  -18.6228 C   0  0  0  0  0  0  0  0  0  0  0  0
   26.5581  -13.8388  -19.1477 C   0  0  1  0  0  0  0  0  0  0  0  0
   26.8319  -12.5146  -18.5912 C   0  0  0  0  0  0  0  0  0  0  0  0
   26.3921  -11.4975  -19.1713 O   0  0  0  0  0  0  0  0  0  0  0  0
   27.5868  -12.3598  -17.4066 N   0  0  0  0  0  0  0  0  0  0  0  0
   27.8625  -11.0634  -16.7968 C   0  0  0  0  0  0  0  0  0  0  0  0
   26.6308  -10.5122  -16.1620 C   0  0  0  0  0  0  0  0  0  0  0  0
   26.3322  -10.9221  -15.0098 O   0  0  0  0  0  0  0  0  0  0  0  0
   22.3619   -7.7303  -15.0954 N   0  0  0  0  0  0  0  0  0  0  0  0
   23.1354   -7.0290  -16.0568 C   0  0  0  0  0  0  0  0  0  0  0  0
   22.8286   -5.8604  -16.4043 O   0  0  0  0  0  0  0  0  0  0  0  0
   24.2907   -7.7009  -16.6259 C   0  0  0  0  0  0  0  0  0  0  0  0
   24.6462   -9.0362  -16.0248 C   0  0  2  0  0  0  0  0  0  0  0  0
   25.8005   -9.5709  -16.7810 N   0  0  0  0  0  0  0  0  0  0  0  0
   23.5306  -10.0181  -16.1247 C   0  0  0  0  0  0  0  0  0  0  0  0
   22.6456  -10.0092  -15.2401 O   0  0  0  0  0  0  0  0  0  0  0  0
   23.4353  -10.9246  -17.1420 O   0  0  0  0  0  0  0  0  0  0  0  0
  1  2  1  0
  2  3  1  0
  4  3  1  0
  5  1  1  0
  5  4  1  0
  5  6  1  1
  7  6  2  0
  8  6  1  0
  9  8  1  0
 10  9  1  0
 10 17  1  0
 11 10  2  0
 13 12  1  0
 14 13  2  0
 15 13  1  0
 16 17  1  0
 16 15  1  6
 18 16  1  0
 19 18  2  0
 20 18  1  0
M  END
$$$$
