PGN.pdb
     RDKit          3D

 20 20  0  0  1  0  0  0  0  0999 V2000
   26.9031  -19.7635  -16.4085 N   0  0  0  0  0  0  0  0  0  0  0  0
   27.4140  -18.4836  -16.0019 C   0  0  0  0  0  0  0  0  0  0  0  0
   28.4188  -18.7893  -14.8786 C   0  0  0  0  0  0  0  0  0  0  0  0
   27.6855  -19.9858  -14.2565 C   0  0  0  0  0  0  0  0  0  0  0  0
   27.3695  -20.7721  -15.5120 C   0  0  1  0  0  0  0  0  0  0  0  0
   26.4033  -21.8376  -15.2486 C   0  0  0  0  0  0  0  0  0  0  0  0
   26.6743  -22.7236  -14.4084 O   0  0  0  0  0  0  0  0  0  0  0  0
   25.1647  -21.8874  -15.9272 N   0  0  0  0  0  0  0  0  0  0  0  0
   24.0977  -22.8192  -15.5783 C   0  0  0  0  0  0  0  0  0  0  0  0
   23.2819  -22.2812  -14.4518 C   0  0  0  0  0  0  0  0  0  0  0  0
   22.2389  -22.9094  -14.1319 O   0  0  0  0  0  0  0  0  0  0  0  0
   25.1460  -21.1264  -10.0471 N   0  0  0  0  0  0  0  0  0  0  0  0
   23.7985  -20.9005  -10.4314 C   0  0  0  0  0  0  0  0  0  0  0  0
   22.8490  -21.4187   -9.7910 O   0  0  0  0  0  0  0  0  0  0  0  0
   23.5501  -20.0534  -11.5851 C   0  0  0  0  0  0  0  0  0  0  0  0
   22.7032  -20.6510  -12.6788 C   0  0  2  0  0  0  0  0  0  0  0  0
   23.6182  -21.1230  -13.7419 N   0  0  0  0  0  0  0  0  0  0  0  0
   21.7678  -19.6587  -13.2779 C   0  0  0  0  0  0  0  0  0  0  0  0
   22.1218  -19.0539  -14.3146 O   0  0  0  0  0  0  0  0  0  0  0  0
   20.5416  -19.3846  -12.7421 O   0  0  0  0  0  0  0  0  0  0  0  0
  1  2  1  0
  2  3  1  0
  4  3  1  0
  5  1  1  0
  5  4  1  0
  5  6  1  1
  7  6  2  0
  8  6  1  0
  9  8  1  0
 10  9  1  0
 10 17  1  0
 11 10  2  0
 13 12  1  0
 14 13  2  0
 15 13  1  0
 16 17  1  0
 16 15  1  1
 18 16  1  0
 19 18  2  0
 20 18  1  0
M  END
$$$$
