PGN.pdb
     RDKit          3D

 20 20  0  0  1  0  0  0  0  0999 V2000
   20.0621  -11.5578  -18.2642 N   0  0  0  0  0  0  0  0  0  0  0  0
   21.2281  -12.2724  -18.7050 C   0  0  0  0  0  0  0  0  0  0  0  0
   21.6212  -13.1715  -17.5209 C   0  0  0  0  0  0  0  0  0  0  0  0
   21.2153  -12.2199  -16.3868 C   0  0  0  0  0  0  0  0  0  0  0  0
   19.8415  -11.8109  -16.8764 C   0  0  1  0  0  0  0  0  0  0  0  0
   19.3251  -10.6647  -16.1297 C   0  0  0  0  0  0  0  0  0  0  0  0
   19.0658  -10.7865  -14.9121 O   0  0  0  0  0  0  0  0  0  0  0  0
   19.1117   -9.4170  -16.7580 N   0  0  0  0  0  0  0  0  0  0  0  0
   18.6335   -8.2350  -16.0490 C   0  0  0  0  0  0  0  0  0  0  0  0
   19.6932   -7.1866  -16.0071 C   0  0  0  0  0  0  0  0  0  0  0  0
   20.5405   -7.1729  -16.9381 O   0  0  0  0  0  0  0  0  0  0  0  0
   22.3585   -2.8556  -15.2829 N   0  0  0  0  0  0  0  0  0  0  0  0
   21.0059   -2.6783  -14.8912 C   0  0  0  0  0  0  0  0  0  0  0  0
   20.5585   -1.5369  -14.6134 O   0  0  0  0  0  0  0  0  0  0  0  0
   20.1553   -3.8538  -14.8216 C   0  0  0  0  0  0  0  0  0  0  0  0
   20.8224   -5.1751  -15.1045 C   0  0  2  0  0  0  0  0  0  0  0  0
   19.7886   -6.2281  -14.9919 N   0  0  0  0  0  0  0  0  0  0  0  0
   21.9067   -5.4828  -14.1309 C   0  0  0  0  0  0  0  0  0  0  0  0
   22.9192   -4.7477  -14.1118 O   0  0  0  0  0  0  0  0  0  0  0  0
   21.8390   -6.5324  -13.2595 O   0  0  0  0  0  0  0  0  0  0  0  0
  1  2  1  0
  2  3  1  0
  4  3  1  0
  5  1  1  0
  5  4  1  0
  5  6  1  1
  7  6  2  0
  8  6  1  0
  9  8  1  0
 10  9  1  0
 10 17  1  0
 11 10  2  0
 13 12  1  0
 14 13  2  0
 15 13  1  0
 16 17  1  0
 16 15  1  1
 18 16  1  0
 19 18  2  0
 20 18  1  0
M  END
$$$$
