PGN.pdb
     RDKit          3D

 20 20  0  0  1  0  0  0  0  0999 V2000
   19.9484  -11.9893  -16.6817 N   0  0  0  0  0  0  0  0  0  0  0  0
   18.7893  -11.8474  -17.5190 C   0  0  0  0  0  0  0  0  0  0  0  0
   19.3001  -11.1723  -18.8029 C   0  0  0  0  0  0  0  0  0  0  0  0
   20.3731  -10.2807  -18.1626 C   0  0  0  0  0  0  0  0  0  0  0  0
   21.0513  -11.2989  -17.2695 C   0  0  1  0  0  0  0  0  0  0  0  0
   21.9434  -10.6569  -16.3051 C   0  0  0  0  0  0  0  0  0  0  0  0
   22.9810  -10.0863  -16.7079 O   0  0  0  0  0  0  0  0  0  0  0  0
   21.6564  -10.6684  -14.9214 N   0  0  0  0  0  0  0  0  0  0  0  0
   22.4653   -9.9673  -13.9302 C   0  0  0  0  0  0  0  0  0  0  0  0
   21.9718   -8.5722  -13.7455 C   0  0  0  0  0  0  0  0  0  0  0  0
   21.6682   -8.2080  -12.5793 O   0  0  0  0  0  0  0  0  0  0  0  0
   20.8119   -3.5727  -14.2346 N   0  0  0  0  0  0  0  0  0  0  0  0
   22.0181   -3.9114  -14.9014 C   0  0  0  0  0  0  0  0  0  0  0  0
   22.7880   -3.0181  -15.3368 O   0  0  0  0  0  0  0  0  0  0  0  0
   22.3360   -5.3194  -15.0649 C   0  0  0  0  0  0  0  0  0  0  0  0
   21.3413   -6.2964  -14.4932 C   0  0  2  0  0  0  0  0  0  0  0  0
   21.8319   -7.6592  -14.7969 N   0  0  0  0  0  0  0  0  0  0  0  0
   19.9875   -6.1452  -15.0958 C   0  0  0  0  0  0  0  0  0  0  0  0
   19.8347   -6.4368  -16.3030 O   0  0  0  0  0  0  0  0  0  0  0  0
   18.9089   -5.7031  -14.3838 O   0  0  0  0  0  0  0  0  0  0  0  0
  1  2  1  0
  2  3  1  0
  4  3  1  0
  5  1  1  0
  5  4  1  0
  5  6  1  1
  7  6  2  0
  8  6  1  0
  9  8  1  0
 10  9  1  0
 10 17  1  0
 11 10  2  0
 13 12  1  0
 14 13  2  0
 15 13  1  0
 16 17  1  0
 16 15  1  6
 18 16  1  0
 19 18  2  0
 20 18  1  0
M  END
$$$$
