PGN.pdb
     RDKit          3D

 20 20  0  0  1  0  0  0  0  0999 V2000
   26.9693  -18.8325  -14.2205 N   0  0  0  0  0  0  0  0  0  0  0  0
   27.7208  -19.1132  -13.0284 C   0  0  0  0  0  0  0  0  0  0  0  0
   28.7940  -20.1274  -13.4583 C   0  0  0  0  0  0  0  0  0  0  0  0
   27.9627  -20.8885  -14.5004 C   0  0  0  0  0  0  0  0  0  0  0  0
   27.3766  -19.7185  -15.2633 C   0  0  1  0  0  0  0  0  0  0  0  0
   26.2941  -20.1441  -16.1494 C   0  0  0  0  0  0  0  0  0  0  0  0
   26.5069  -21.0349  -17.0013 O   0  0  0  0  0  0  0  0  0  0  0  0
   25.0071  -19.5668  -16.0631 N   0  0  0  0  0  0  0  0  0  0  0  0
   23.7876  -20.2682  -16.4495 C   0  0  0  0  0  0  0  0  0  0  0  0
   23.1208  -20.8553  -15.2518 C   0  0  0  0  0  0  0  0  0  0  0  0
   22.1283  -21.6057  -15.4430 O   0  0  0  0  0  0  0  0  0  0  0  0
   25.9675  -21.2187  -10.9118 N   0  0  0  0  0  0  0  0  0  0  0  0
   24.8615  -21.8016  -11.5839 C   0  0  0  0  0  0  0  0  0  0  0  0
   24.9713  -22.9100  -12.1667 O   0  0  0  0  0  0  0  0  0  0  0  0
   23.6008  -21.0800  -11.5775 C   0  0  0  0  0  0  0  0  0  0  0  0
   22.7625  -21.1950  -12.8244 C   0  0  2  0  0  0  0  0  0  0  0  0
   23.5424  -20.6131  -13.9394 N   0  0  0  0  0  0  0  0  0  0  0  0
   21.4789  -20.4473  -12.7156 C   0  0  0  0  0  0  0  0  0  0  0  0
   21.4509  -19.2513  -13.0826 O   0  0  0  0  0  0  0  0  0  0  0  0
   20.3339  -21.0147  -12.2333 O   0  0  0  0  0  0  0  0  0  0  0  0
  1  2  1  0
  2  3  1  0
  4  3  1  0
  5  1  1  0
  5  4  1  0
  5  6  1  1
  7  6  2  0
  8  6  1  0
  9  8  1  0
 10  9  1  0
 10 17  1  0
 11 10  2  0
 13 12  1  0
 14 13  2  0
 15 13  1  0
 16 17  1  0
 16 15  1  1
 18 16  1  0
 19 18  2  0
 20 18  1  0
M  END
$$$$
