PGN.pdb
     RDKit          3D

 20 20  0  0  1  0  0  0  0  0999 V2000
   26.5490  -16.7022  -19.0498 N   0  0  0  0  0  0  0  0  0  0  0  0
   26.6435  -15.8990  -20.2375 C   0  0  0  0  0  0  0  0  0  0  0  0
   28.1469  -15.8191  -20.5512 C   0  0  0  0  0  0  0  0  0  0  0  0
   28.6655  -15.8023  -19.1065 C   0  0  0  0  0  0  0  0  0  0  0  0
   27.8568  -16.9468  -18.5318 C   0  0  1  0  0  0  0  0  0  0  0  0
   27.9307  -16.9759  -17.0717 C   0  0  0  0  0  0  0  0  0  0  0  0
   29.0328  -17.1688  -16.5125 O   0  0  0  0  0  0  0  0  0  0  0  0
   26.7776  -16.7901  -16.2761 N   0  0  0  0  0  0  0  0  0  0  0  0
   26.7913  -16.8571  -14.8188 C   0  0  0  0  0  0  0  0  0  0  0  0
   26.4194  -18.2248  -14.3552 C   0  0  0  0  0  0  0  0  0  0  0  0
   26.4859  -19.1645  -15.1903 O   0  0  0  0  0  0  0  0  0  0  0  0
   26.1262  -22.4053  -11.3544 N   0  0  0  0  0  0  0  0  0  0  0  0
   26.3220  -21.2699  -10.5256 C   0  0  0  0  0  0  0  0  0  0  0  0
   26.5054  -21.3975   -9.2885 O   0  0  0  0  0  0  0  0  0  0  0  0
   26.3047  -19.9580  -11.1492 C   0  0  0  0  0  0  0  0  0  0  0  0
   25.9498  -19.9222  -12.6132 C   0  0  2  0  0  0  0  0  0  0  0  0
   26.0041  -18.5091  -13.0493 N   0  0  0  0  0  0  0  0  0  0  0  0
   24.5772  -20.4372  -12.8767 C   0  0  0  0  0  0  0  0  0  0  0  0
   23.6249  -19.6255  -12.8806 O   0  0  0  0  0  0  0  0  0  0  0  0
   24.3181  -21.7570  -13.1146 O   0  0  0  0  0  0  0  0  0  0  0  0
  1  2  1  0
  2  3  1  0
  4  3  1  0
  5  1  1  0
  5  4  1  0
  5  6  1  1
  7  6  2  0
  8  6  1  0
  9  8  1  0
 10  9  1  0
 10 17  1  0
 11 10  2  0
 13 12  1  0
 14 13  2  0
 15 13  1  0
 16 17  1  0
 16 15  1  1
 18 16  1  0
 19 18  2  0
 20 18  1  0
M  END
$$$$
