PGN.pdb
     RDKit          3D

 20 20  0  0  1  0  0  0  0  0999 V2000
   30.1937  -22.0285  -12.2094 N   0  0  0  0  0  0  0  0  0  0  0  0
   31.4171  -22.0197  -11.4558 C   0  0  0  0  0  0  0  0  0  0  0  0
   31.0033  -21.6545  -10.0204 C   0  0  0  0  0  0  0  0  0  0  0  0
   29.8583  -20.6926  -10.3668 C   0  0  0  0  0  0  0  0  0  0  0  0
   29.1297  -21.5251  -11.4014 C   0  0  1  0  0  0  0  0  0  0  0  0
   28.1429  -20.7305  -12.1312 C   0  0  0  0  0  0  0  0  0  0  0  0
   27.2080  -20.1815  -11.5074 O   0  0  0  0  0  0  0  0  0  0  0  0
   28.2237  -20.5698  -13.5329 N   0  0  0  0  0  0  0  0  0  0  0  0
   27.2542  -19.8031  -14.3080 C   0  0  0  0  0  0  0  0  0  0  0  0
   25.8879  -20.3805  -14.1535 C   0  0  0  0  0  0  0  0  0  0  0  0
   25.6360  -21.4577  -14.7544 O   0  0  0  0  0  0  0  0  0  0  0  0
   24.7409  -21.6061  -10.8832 N   0  0  0  0  0  0  0  0  0  0  0  0
   23.6669  -20.7005  -10.6812 C   0  0  0  0  0  0  0  0  0  0  0  0
   23.2632  -20.4257   -9.5228 O   0  0  0  0  0  0  0  0  0  0  0  0
   23.0495  -20.1012  -11.8517 C   0  0  0  0  0  0  0  0  0  0  0  0
   23.6115  -20.5174  -13.1865 C   0  0  2  0  0  0  0  0  0  0  0  0
   24.8838  -19.7868  -13.3804 N   0  0  0  0  0  0  0  0  0  0  0  0
   22.7027  -20.1753  -14.3159 C   0  0  0  0  0  0  0  0  0  0  0  0
   22.8939  -19.1038  -14.9333 O   0  0  0  0  0  0  0  0  0  0  0  0
   21.6722  -20.9836  -14.7037 O   0  0  0  0  0  0  0  0  0  0  0  0
  1  2  1  0
  2  3  1  0
  4  3  1  0
  5  1  1  0
  5  4  1  0
  5  6  1  6
  7  6  2  0
  8  6  1  0
  9  8  1  0
 10  9  1  0
 10 17  1  0
 11 10  2  0
 13 12  1  0
 14 13  2  0
 15 13  1  0
 16 17  1  0
 16 15  1  1
 18 16  1  0
 19 18  2  0
 20 18  1  0
M  END
$$$$
