PGN.pdb
     RDKit          3D

 20 20  0  0  1  0  0  0  0  0999 V2000
   25.1119  -16.0737  -16.5052 N   0  0  0  0  0  0  0  0  0  0  0  0
   26.3433  -16.7611  -16.7804 C   0  0  0  0  0  0  0  0  0  0  0  0
   27.2743  -16.4041  -15.6096 C   0  0  0  0  0  0  0  0  0  0  0  0
   26.7853  -14.9674  -15.3788 C   0  0  0  0  0  0  0  0  0  0  0  0
   25.2890  -15.2027  -15.3878 C   0  0  1  0  0  0  0  0  0  0  0  0
   24.5488  -13.9451  -15.4809 C   0  0  0  0  0  0  0  0  0  0  0  0
   24.6606  -13.0935  -14.5716 O   0  0  0  0  0  0  0  0  0  0  0  0
   23.7057  -13.6712  -16.5815 N   0  0  0  0  0  0  0  0  0  0  0  0
   22.9334  -12.4403  -16.7114 C   0  0  0  0  0  0  0  0  0  0  0  0
   21.5066  -12.7485  -17.0164 C   0  0  0  0  0  0  0  0  0  0  0  0
   21.2587  -13.3924  -18.0694 O   0  0  0  0  0  0  0  0  0  0  0  0
   15.9991  -13.0745  -14.3629 N   0  0  0  0  0  0  0  0  0  0  0  0
   16.8695  -13.2549  -15.4693 C   0  0  0  0  0  0  0  0  0  0  0  0
   16.4446  -13.7250  -16.5550 O   0  0  0  0  0  0  0  0  0  0  0  0
   18.2639  -12.8803  -15.3097 C   0  0  0  0  0  0  0  0  0  0  0  0
   19.0686  -12.7567  -16.5777 C   0  0  2  0  0  0  0  0  0  0  0  0
   20.4420  -12.3592  -16.1956 N   0  0  0  0  0  0  0  0  0  0  0  0
   18.5234  -11.7189  -17.4965 C   0  0  0  0  0  0  0  0  0  0  0  0
   17.9877  -12.0887  -18.5652 O   0  0  0  0  0  0  0  0  0  0  0  0
   18.5839  -10.3830  -17.2184 O   0  0  0  0  0  0  0  0  0  0  0  0
  1  2  1  0
  2  3  1  0
  4  3  1  0
  5  1  1  0
  5  4  1  0
  5  6  1  6
  7  6  2  0
  8  6  1  0
  9  8  1  0
 10  9  1  0
 10 17  1  0
 11 10  2  0
 13 12  1  0
 14 13  2  0
 15 13  1  0
 16 17  1  0
 16 15  1  1
 18 16  1  0
 19 18  2  0
 20 18  1  0
M  END
$$$$
