WFW.pdb
     RDKit          3D

 40 44  0  0  1  0  0  0  0  0999 V2000
    8.7180  -17.8050   18.1800 N   0  0  0  0  0  0  0  0  0  0  0  0
    9.4302  -18.4093   19.2784 C   0  0  1  0  0  0  0  0  0  0  0  0
   10.8251  -18.7650   18.7863 C   0  0  0  0  0  0  0  0  0  0  0  0
   10.7866  -19.8607   17.8059 C   0  0  0  0  0  0  0  0  0  0  0  0
   10.9240  -19.6705   16.4289 C   0  0  0  0  0  0  0  0  0  0  0  0
   10.8465  -20.8610   15.8207 N   0  0  0  0  0  0  0  0  0  0  0  0
   10.6628  -21.8300   16.7467 C   0  0  0  0  0  0  0  0  0  0  0  0
   10.5293  -23.1916   16.6014 C   0  0  0  0  0  0  0  0  0  0  0  0
   10.3521  -23.9345   17.7597 C   0  0  0  0  0  0  0  0  0  0  0  0
   10.3109  -23.3337   19.0103 C   0  0  0  0  0  0  0  0  0  0  0  0
   10.4471  -21.9667   19.1325 C   0  0  0  0  0  0  0  0  0  0  0  0
   10.6241  -21.2165   17.9871 C   0  0  0  0  0  0  0  0  0  0  0  0
    9.4931  -17.4508   20.4035 C   0  0  0  0  0  0  0  0  0  0  0  0
   10.3864  -16.5532   20.4597 O   0  0  0  0  0  0  0  0  0  0  0  0
    8.5365  -17.5345   21.4405 N   0  0  0  0  0  0  0  0  0  0  0  0
    8.5192  -16.5977   22.5421 C   0  0  1  0  0  0  0  0  0  0  0  0
    7.2937  -15.7657   22.5719 C   0  0  0  0  0  0  0  0  0  0  0  0
    7.2652  -14.8937   23.7724 C   0  0  0  0  0  0  0  0  0  0  0  0
    6.7199  -15.3277   24.9562 C   0  0  0  0  0  0  0  0  0  0  0  0
    6.7096  -14.4925   26.0629 C   0  0  0  0  0  0  0  0  0  0  0  0
    7.2391  -13.2114   26.0181 C   0  0  0  0  0  0  0  0  0  0  0  0
    7.7814  -12.7884   24.8296 C   0  0  0  0  0  0  0  0  0  0  0  0
    7.7944  -13.6194   23.7201 C   0  0  0  0  0  0  0  0  0  0  0  0
    8.8050  -17.3202   23.7945 C   0  0  0  0  0  0  0  0  0  0  0  0
    7.9565  -17.3078   24.7168 O   0  0  0  0  0  0  0  0  0  0  0  0
    9.9959  -18.0498   24.0517 N   0  0  0  0  0  0  0  0  0  0  0  0
   10.9566  -17.6497   25.0614 C   0  0  1  0  0  0  0  0  0  0  0  0
   10.7338  -16.1896   25.3929 C   0  0  0  0  0  0  0  0  0  0  0  0
   10.6216  -15.9666   26.8492 C   0  0  0  0  0  0  0  0  0  0  0  0
   10.8644  -16.8865   27.8464 C   0  0  0  0  0  0  0  0  0  0  0  0
   10.6503  -16.2608   29.0160 N   0  0  0  0  0  0  0  0  0  0  0  0
   10.2804  -14.9761   28.7863 C   0  0  0  0  0  0  0  0  0  0  0  0
    9.9409  -13.9002   29.5957 C   0  0  0  0  0  0  0  0  0  0  0  0
    9.5919  -12.6726   29.0797 C   0  0  0  0  0  0  0  0  0  0  0  0
    9.5767  -12.4975   27.7057 C   0  0  0  0  0  0  0  0  0  0  0  0
    9.9076  -13.5411   26.8687 C   0  0  0  0  0  0  0  0  0  0  0  0
   10.2560  -14.7704   27.4268 C   0  0  0  0  0  0  0  0  0  0  0  0
   10.8038  -18.4755   26.2977 C   0  0  0  0  0  0  0  0  0  0  0  0
    9.5263  -18.8651   26.6566 O   0  0  0  0  0  0  0  0  0  0  0  0
   11.7588  -18.8342   27.0253 O   0  0  0  0  0  0  0  0  0  0  0  0
  2  1  1  6
  2  3  1  0
  4  3  1  0
  5  4  2  0
  6  5  1  0
  7  6  1  0
  7 12  2  0
  8  7  1  0
  9  8  2  0
  9 10  1  0
 10 11  2  0
 11 12  1  0
 12  4  1  0
 13 15  1  0
 13  2  1  0
 14 13  2  0
 16 24  1  0
 16 17  1  1
 16 15  1  0
 18 17  1  0
 18 23  1  0
 19 18  2  0
 20 19  1  0
 20 21  2  0
 21 22  1  0
 22 23  2  0
 24 25  2  0
 26 27  1  0
 26 24  1  0
 27 38  1  0
 27 28  1  1
 29 30  2  0
 29 28  1  0
 31 30  1  0
 32 37  2  0
 32 31  1  0
 33 32  1  0
 34 33  2  0
 34 35  1  0
 35 36  2  0
 36 37  1  0
 37 29  1  0
 38 40  2  0
 38 39  1  0
M  END
$$$$
