WFW.pdb
     RDKit          3D

 40 44  0  0  1  0  0  0  0  0999 V2000
   10.4235  -17.5495   18.1596 N   0  0  0  0  0  0  0  0  0  0  0  0
    9.6594  -18.0918   19.2554 C   0  0  1  0  0  0  0  0  0  0  0  0
   10.2288  -19.4641   19.5827 C   0  0  0  0  0  0  0  0  0  0  0  0
    9.7785  -20.4778   18.6168 C   0  0  0  0  0  0  0  0  0  0  0  0
   10.6079  -21.0396   17.6432 C   0  0  0  0  0  0  0  0  0  0  0  0
    9.8980  -21.9251   16.9326 N   0  0  0  0  0  0  0  0  0  0  0  0
    8.6300  -21.9680   17.4021 C   0  0  0  0  0  0  0  0  0  0  0  0
    7.5513  -22.7195   16.9962 C   0  0  0  0  0  0  0  0  0  0  0  0
    6.3620  -22.5397   17.6876 C   0  0  0  0  0  0  0  0  0  0  0  0
    6.2620  -21.6424   18.7420 C   0  0  0  0  0  0  0  0  0  0  0  0
    7.3564  -20.8993   19.1321 C   0  0  0  0  0  0  0  0  0  0  0  0
    8.5456  -21.0694   18.4518 C   0  0  0  0  0  0  0  0  0  0  0  0
    9.7638  -17.1831   20.4180 C   0  0  0  0  0  0  0  0  0  0  0  0
   10.8501  -16.5958   20.7040 O   0  0  0  0  0  0  0  0  0  0  0  0
    8.6284  -16.9621   21.2300 N   0  0  0  0  0  0  0  0  0  0  0  0
    8.6668  -16.0779   22.3737 C   0  0  1  0  0  0  0  0  0  0  0  0
    7.3480  -15.4774   22.6826 C   0  0  0  0  0  0  0  0  0  0  0  0
    7.4186  -14.6173   23.8898 C   0  0  0  0  0  0  0  0  0  0  0  0
    7.0876  -15.1027   25.1315 C   0  0  0  0  0  0  0  0  0  0  0  0
    7.1658  -14.2772   26.2428 C   0  0  0  0  0  0  0  0  0  0  0  0
    7.5731  -12.9550   26.1452 C   0  0  0  0  0  0  0  0  0  0  0  0
    7.9013  -12.4808   24.8991 C   0  0  0  0  0  0  0  0  0  0  0  0
    7.8251  -13.3019   23.7847 C   0  0  0  0  0  0  0  0  0  0  0  0
    9.3061  -16.7769   23.5028 C   0  0  0  0  0  0  0  0  0  0  0  0
    8.9741  -17.9578   23.7600 O   0  0  0  0  0  0  0  0  0  0  0  0
   10.2948  -16.2081   24.3488 N   0  0  0  0  0  0  0  0  0  0  0  0
   11.3654  -16.9893   24.9370 C   0  0  1  0  0  0  0  0  0  0  0  0
   12.1132  -16.1217   25.9266 C   0  0  0  0  0  0  0  0  0  0  0  0
   11.3285  -15.8878   27.1565 C   0  0  0  0  0  0  0  0  0  0  0  0
   10.9158  -16.8377   28.0658 C   0  0  0  0  0  0  0  0  0  0  0  0
   10.2415  -16.1890   29.0301 N   0  0  0  0  0  0  0  0  0  0  0  0
   10.2167  -14.8607   28.7562 C   0  0  0  0  0  0  0  0  0  0  0  0
    9.6754  -13.7464   29.3834 C   0  0  0  0  0  0  0  0  0  0  0  0
    9.8021  -12.4770   28.8661 C   0  0  0  0  0  0  0  0  0  0  0  0
   10.4923  -12.2977   27.6785 C   0  0  0  0  0  0  0  0  0  0  0  0
   11.0443  -13.3787   27.0259 C   0  0  0  0  0  0  0  0  0  0  0  0
   10.8961  -14.6498   27.5793 C   0  0  0  0  0  0  0  0  0  0  0  0
   10.8230  -18.1950   25.6339 C   0  0  0  0  0  0  0  0  0  0  0  0
    9.4493  -18.3492   25.6762 O   0  0  0  0  0  0  0  0  0  0  0  0
   11.5344  -19.0703   26.1798 O   0  0  0  0  0  0  0  0  0  0  0  0
  2  1  1  6
  2  3  1  0
  4  3  1  0
  5  4  2  0
  6  5  1  0
  7  6  1  0
  7 12  2  0
  8  7  1  0
  9  8  2  0
  9 10  1  0
 10 11  2  0
 11 12  1  0
 12  4  1  0
 13 15  1  0
 13  2  1  0
 14 13  2  0
 16 24  1  0
 16 17  1  1
 16 15  1  0
 18 17  1  0
 18 23  1  0
 19 18  2  0
 20 19  1  0
 20 21  2  0
 21 22  1  0
 22 23  2  0
 24 25  2  0
 26 27  1  0
 26 24  1  0
 27 38  1  0
 27 28  1  1
 29 30  2  0
 29 28  1  0
 31 30  1  0
 32 37  2  0
 32 31  1  0
 33 32  1  0
 34 33  2  0
 34 35  1  0
 35 36  2  0
 36 37  1  0
 37 29  1  0
 38 40  2  0
 38 39  1  0
M  END
$$$$
