WFW.pdb
     RDKit          3D

 40 44  0  0  1  0  0  0  0  0999 V2000
    8.8488  -18.4112   20.0815 N   0  0  0  0  0  0  0  0  0  0  0  0
    8.6470  -17.0126   19.7950 C   0  0  1  0  0  0  0  0  0  0  0  0
    7.8767  -16.9142   18.4867 C   0  0  0  0  0  0  0  0  0  0  0  0
    7.8907  -15.5425   17.9562 C   0  0  0  0  0  0  0  0  0  0  0  0
    7.8106  -15.2398   16.5948 C   0  0  0  0  0  0  0  0  0  0  0  0
    7.8458  -13.9093   16.4475 N   0  0  0  0  0  0  0  0  0  0  0  0
    7.9462  -13.3230   17.6625 C   0  0  0  0  0  0  0  0  0  0  0  0
    8.0124  -11.9937   18.0109 C   0  0  0  0  0  0  0  0  0  0  0  0
    8.1105  -11.7009   19.3635 C   0  0  0  0  0  0  0  0  0  0  0  0
    8.1406  -12.7022   20.3244 C   0  0  0  0  0  0  0  0  0  0  0  0
    8.0728  -14.0285   19.9524 C   0  0  0  0  0  0  0  0  0  0  0  0
    7.9750  -14.3326   18.6092 C   0  0  0  0  0  0  0  0  0  0  0  0
    7.8894  -16.3931   20.9044 C   0  0  0  0  0  0  0  0  0  0  0  0
    7.3299  -15.2631   20.7744 O   0  0  0  0  0  0  0  0  0  0  0  0
    7.7845  -17.0743   22.1383 N   0  0  0  0  0  0  0  0  0  0  0  0
    7.9952  -16.4038   23.4021 C   0  0  1  0  0  0  0  0  0  0  0  0
    6.8916  -16.6281   24.3647 C   0  0  0  0  0  0  0  0  0  0  0  0
    6.8444  -15.5545   25.3881 C   0  0  0  0  0  0  0  0  0  0  0  0
    6.8576  -15.8474   26.7301 C   0  0  0  0  0  0  0  0  0  0  0  0
    6.8157  -14.8237   27.6643 C   0  0  0  0  0  0  0  0  0  0  0  0
    6.7598  -13.4903   27.2870 C   0  0  0  0  0  0  0  0  0  0  0  0
    6.7470  -13.2095   25.9430 C   0  0  0  0  0  0  0  0  0  0  0  0
    6.7888  -14.2291   25.0047 C   0  0  0  0  0  0  0  0  0  0  0  0
    9.3362  -16.7432   23.9108 C   0  0  0  0  0  0  0  0  0  0  0  0
   10.3293  -16.0993   23.4988 O   0  0  0  0  0  0  0  0  0  0  0  0
    9.6053  -17.7688   24.8556 N   0  0  0  0  0  0  0  0  0  0  0  0
   10.9428  -18.0628   25.3322 C   0  0  1  0  0  0  0  0  0  0  0  0
   11.4785  -16.8472   26.0578 C   0  0  0  0  0  0  0  0  0  0  0  0
   10.7831  -16.6217   27.3418 C   0  0  0  0  0  0  0  0  0  0  0  0
   10.3669  -17.5847   28.2356 C   0  0  0  0  0  0  0  0  0  0  0  0
    9.7915  -16.9404   29.2647 N   0  0  0  0  0  0  0  0  0  0  0  0
    9.8323  -15.6022   29.0467 C   0  0  0  0  0  0  0  0  0  0  0  0
    9.3984  -14.4866   29.7502 C   0  0  0  0  0  0  0  0  0  0  0  0
    9.5723  -13.2053   29.2778 C   0  0  0  0  0  0  0  0  0  0  0  0
   10.2014  -13.0150   28.0585 C   0  0  0  0  0  0  0  0  0  0  0  0
   10.6466  -14.0969   27.3302 C   0  0  0  0  0  0  0  0  0  0  0  0
   10.4533  -15.3802   27.8399 C   0  0  0  0  0  0  0  0  0  0  0  0
   10.9316  -19.2368   26.2572 C   0  0  0  0  0  0  0  0  0  0  0  0
   12.1510  -19.7318   26.6822 O   0  0  0  0  0  0  0  0  0  0  0  0
    9.8890  -19.7970   26.6685 O   0  0  0  0  0  0  0  0  0  0  0  0
  2  1  1  1
  2  3  1  0
  4  3  1  0
  5  4  2  0
  6  5  1  0
  7  6  1  0
  7 12  2  0
  8  7  1  0
  9  8  2  0
  9 10  1  0
 10 11  2  0
 11 12  1  0
 12  4  1  0
 13 15  1  0
 13  2  1  0
 14 13  2  0
 16 24  1  0
 16 17  1  1
 16 15  1  0
 18 17  1  0
 18 23  1  0
 19 18  2  0
 20 19  1  0
 20 21  2  0
 21 22  1  0
 22 23  2  0
 24 25  2  0
 26 27  1  0
 26 24  1  0
 27 38  1  0
 27 28  1  1
 29 30  2  0
 29 28  1  0
 31 30  1  0
 32 37  2  0
 32 31  1  0
 33 32  1  0
 34 33  2  0
 34 35  1  0
 35 36  2  0
 36 37  1  0
 37 29  1  0
 38 40  2  0
 38 39  1  0
M  END
$$$$
