WFW.pdb
     RDKit          3D

 40 44  0  0  1  0  0  0  0  0999 V2000
    4.6896  -20.6027   23.1021 N   0  0  0  0  0  0  0  0  0  0  0  0
    5.5534  -20.2636   24.2056 C   0  0  1  0  0  0  0  0  0  0  0  0
    6.7680  -21.1775   24.1409 C   0  0  0  0  0  0  0  0  0  0  0  0
    6.9966  -21.8599   25.4235 C   0  0  0  0  0  0  0  0  0  0  0  0
    6.6307  -23.1854   25.6695 C   0  0  0  0  0  0  0  0  0  0  0  0
    6.9779  -23.5016   26.9236 N   0  0  0  0  0  0  0  0  0  0  0  0
    7.5598  -22.4327   27.5141 C   0  0  0  0  0  0  0  0  0  0  0  0
    8.0744  -22.2814   28.7811 C   0  0  0  0  0  0  0  0  0  0  0  0
    8.6163  -21.0440   29.0975 C   0  0  0  0  0  0  0  0  0  0  0  0
    8.6396  -20.0035   28.1790 C   0  0  0  0  0  0  0  0  0  0  0  0
    8.1181  -20.1775   26.9141 C   0  0  0  0  0  0  0  0  0  0  0  0
    7.5760  -21.4044   26.5873 C   0  0  0  0  0  0  0  0  0  0  0  0
    5.9516  -18.8434   24.0931 C   0  0  0  0  0  0  0  0  0  0  0  0
    6.0997  -18.2845   22.9650 O   0  0  0  0  0  0  0  0  0  0  0  0
    6.1721  -18.0894   25.2679 N   0  0  0  0  0  0  0  0  0  0  0  0
    6.5684  -16.6995   25.2213 C   0  0  1  0  0  0  0  0  0  0  0  0
    6.3540  -15.9955   26.5072 C   0  0  0  0  0  0  0  0  0  0  0  0
    6.6852  -14.5535   26.3923 C   0  0  0  0  0  0  0  0  0  0  0  0
    5.7605  -13.6431   25.9416 C   0  0  0  0  0  0  0  0  0  0  0  0
    6.0967  -12.3013   25.8474 C   0  0  0  0  0  0  0  0  0  0  0  0
    7.3553  -11.8356   26.1975 C   0  0  0  0  0  0  0  0  0  0  0  0
    8.2713  -12.7547   26.6466 C   0  0  0  0  0  0  0  0  0  0  0  0
    7.9405  -14.0974   26.7430 C   0  0  0  0  0  0  0  0  0  0  0  0
    7.9392  -16.6061   24.6880 C   0  0  0  0  0  0  0  0  0  0  0  0
    8.8512  -17.2816   25.2197 O   0  0  0  0  0  0  0  0  0  0  0  0
    8.3248  -15.7910   23.5909 N   0  0  0  0  0  0  0  0  0  0  0  0
    9.6945  -15.7045   23.1231 C   0  0  1  0  0  0  0  0  0  0  0  0
    9.9477  -14.3006   22.6169 C   0  0  0  0  0  0  0  0  0  0  0  0
    8.7958  -13.7736   21.8563 C   0  0  0  0  0  0  0  0  0  0  0  0
    7.4769  -13.7649   22.2559 C   0  0  0  0  0  0  0  0  0  0  0  0
    6.7727  -13.1879   21.2677 N   0  0  0  0  0  0  0  0  0  0  0  0
    7.6070  -12.8333   20.2587 C   0  0  0  0  0  0  0  0  0  0  0  0
    7.4375  -12.2226   19.0232 C   0  0  0  0  0  0  0  0  0  0  0  0
    8.4916  -11.9798   18.1718 C   0  0  0  0  0  0  0  0  0  0  0  0
    9.7689  -12.3552   18.5546 C   0  0  0  0  0  0  0  0  0  0  0  0
    9.9782  -12.9637   19.7732 C   0  0  0  0  0  0  0  0  0  0  0  0
    8.8868  -13.1938   20.6098 C   0  0  0  0  0  0  0  0  0  0  0  0
   10.6536  -16.0232   24.2242 C   0  0  0  0  0  0  0  0  0  0  0  0
   11.9987  -16.0819   23.9080 O   0  0  0  0  0  0  0  0  0  0  0  0
   10.3140  -16.2398   25.4108 O   0  0  0  0  0  0  0  0  0  0  0  0
  2  1  1  6
  2  3  1  0
  4  3  1  0
  5  4  2  0
  6  5  1  0
  7  6  1  0
  7 12  2  0
  8  7  1  0
  9  8  2  0
  9 10  1  0
 10 11  2  0
 11 12  1  0
 12  4  1  0
 13 15  1  0
 13  2  1  0
 14 13  2  0
 16 24  1  0
 16 17  1  1
 16 15  1  0
 18 17  1  0
 18 23  1  0
 19 18  2  0
 20 19  1  0
 20 21  2  0
 21 22  1  0
 22 23  2  0
 24 25  2  0
 26 27  1  0
 26 24  1  0
 27 38  1  0
 27 28  1  1
 29 30  2  0
 29 28  1  0
 31 30  1  0
 32 37  2  0
 32 31  1  0
 33 32  1  0
 34 33  2  0
 34 35  1  0
 35 36  2  0
 36 37  1  0
 37 29  1  0
 38 40  2  0
 38 39  1  0
M  END
$$$$
