WFW.pdb
     RDKit          3D

 40 44  0  0  1  0  0  0  0  0999 V2000
    8.8432  -16.2601   21.2784 N   0  0  0  0  0  0  0  0  0  0  0  0
    7.5352  -15.8959   21.7634 C   0  0  1  0  0  0  0  0  0  0  0  0
    6.5557  -16.0420   20.6084 C   0  0  0  0  0  0  0  0  0  0  0  0
    6.8465  -15.0831   19.5319 C   0  0  0  0  0  0  0  0  0  0  0  0
    6.4540  -15.2694   18.2043 C   0  0  0  0  0  0  0  0  0  0  0  0
    6.8683  -14.2205   17.4823 N   0  0  0  0  0  0  0  0  0  0  0  0
    7.5200  -13.3486   18.2855 C   0  0  0  0  0  0  0  0  0  0  0  0
    8.1139  -12.1412   17.9986 C   0  0  0  0  0  0  0  0  0  0  0  0
    8.7114  -11.4664   19.0533 C   0  0  0  0  0  0  0  0  0  0  0  0
    8.7114  -11.9839   20.3414 C   0  0  0  0  0  0  0  0  0  0  0  0
    8.1097  -13.1963   20.6063 C   0  0  0  0  0  0  0  0  0  0  0  0
    7.5118  -13.8774   19.5648 C   0  0  0  0  0  0  0  0  0  0  0  0
    7.1675  -16.7859   22.8864 C   0  0  0  0  0  0  0  0  0  0  0  0
    5.9568  -17.0508   23.1525 O   0  0  0  0  0  0  0  0  0  0  0  0
    8.1868  -17.3560   23.6822 N   0  0  0  0  0  0  0  0  0  0  0  0
    8.1913  -17.2323   25.1230 C   0  0  1  0  0  0  0  0  0  0  0  0
    6.9295  -17.6969   25.7453 C   0  0  0  0  0  0  0  0  0  0  0  0
    7.0086  -17.6422   27.2261 C   0  0  0  0  0  0  0  0  0  0  0  0
    6.5560  -16.5493   27.9245 C   0  0  0  0  0  0  0  0  0  0  0  0
    6.6396  -16.5267   29.3084 C   0  0  0  0  0  0  0  0  0  0  0  0
    7.1732  -17.5862   30.0268 C   0  0  0  0  0  0  0  0  0  0  0  0
    7.6224  -18.6732   29.3182 C   0  0  0  0  0  0  0  0  0  0  0  0
    7.5411  -18.7011   27.9346 C   0  0  0  0  0  0  0  0  0  0  0  0
    9.4115  -17.8624   25.6578 C   0  0  0  0  0  0  0  0  0  0  0  0
    9.4556  -18.1834   26.8685 O   0  0  0  0  0  0  0  0  0  0  0  0
   10.5755  -18.1440   24.8946 N   0  0  0  0  0  0  0  0  0  0  0  0
   11.7151  -17.2487   24.8455 C   0  0  1  0  0  0  0  0  0  0  0  0
   11.2109  -15.8254   24.7385 C   0  0  0  0  0  0  0  0  0  0  0  0
   10.7929  -15.2894   26.0504 C   0  0  0  0  0  0  0  0  0  0  0  0
   11.4139  -15.4972   27.2630 C   0  0  0  0  0  0  0  0  0  0  0  0
   10.7076  -14.8216   28.1849 N   0  0  0  0  0  0  0  0  0  0  0  0
    9.6614  -14.1952   27.5906 C   0  0  0  0  0  0  0  0  0  0  0  0
    8.6289  -13.3829   28.0402 C   0  0  0  0  0  0  0  0  0  0  0  0
    7.6721  -12.8722   27.1923 C   0  0  0  0  0  0  0  0  0  0  0  0
    7.7356  -13.1752   25.8422 C   0  0  0  0  0  0  0  0  0  0  0  0
    8.7452  -13.9780   25.3571 C   0  0  0  0  0  0  0  0  0  0  0  0
    9.6970  -14.4775   26.2452 C   0  0  0  0  0  0  0  0  0  0  0  0
   12.5581  -17.3932   26.0711 C   0  0  0  0  0  0  0  0  0  0  0  0
   12.0633  -18.1689   27.1037 O   0  0  0  0  0  0  0  0  0  0  0  0
   13.6806  -16.8563   26.2190 O   0  0  0  0  0  0  0  0  0  0  0  0
  2  1  1  6
  2  3  1  0
  4  3  1  0
  5  4  2  0
  6  5  1  0
  7  6  1  0
  7 12  2  0
  8  7  1  0
  9  8  2  0
  9 10  1  0
 10 11  2  0
 11 12  1  0
 12  4  1  0
 13 15  1  0
 13  2  1  0
 14 13  2  0
 16 24  1  0
 16 17  1  1
 16 15  1  0
 18 17  1  0
 18 23  1  0
 19 18  2  0
 20 19  1  0
 20 21  2  0
 21 22  1  0
 22 23  2  0
 24 25  2  0
 26 27  1  0
 26 24  1  0
 27 38  1  0
 27 28  1  1
 29 30  2  0
 29 28  1  0
 31 30  1  0
 32 37  2  0
 32 31  1  0
 33 32  1  0
 34 33  2  0
 34 35  1  0
 35 36  2  0
 36 37  1  0
 37 29  1  0
 38 40  2  0
 38 39  1  0
M  END
$$$$
