WFW.pdb
     RDKit          3D

 40 44  0  0  1  0  0  0  0  0999 V2000
    6.9209  -21.5648   21.9704 N   0  0  0  0  0  0  0  0  0  0  0  0
    7.2072  -20.4839   22.8806 C   0  0  1  0  0  0  0  0  0  0  0  0
    8.3352  -20.9357   23.7961 C   0  0  0  0  0  0  0  0  0  0  0  0
    7.8731  -21.0883   25.1841 C   0  0  0  0  0  0  0  0  0  0  0  0
    7.2317  -22.2329   25.6635 C   0  0  0  0  0  0  0  0  0  0  0  0
    6.9453  -22.0542   26.9593 N   0  0  0  0  0  0  0  0  0  0  0  0
    7.3746  -20.8331   27.3524 C   0  0  0  0  0  0  0  0  0  0  0  0
    7.3051  -20.2130   28.5787 C   0  0  0  0  0  0  0  0  0  0  0  0
    7.8446  -18.9382   28.6717 C   0  0  0  0  0  0  0  0  0  0  0  0
    8.4288  -18.3138   27.5782 C   0  0  0  0  0  0  0  0  0  0  0  0
    8.4876  -18.9543   26.3582 C   0  0  0  0  0  0  0  0  0  0  0  0
    7.9542  -20.2233   26.2530 C   0  0  0  0  0  0  0  0  0  0  0  0
    7.6002  -19.2866   22.1058 C   0  0  0  0  0  0  0  0  0  0  0  0
    8.4791  -19.3468   21.1943 O   0  0  0  0  0  0  0  0  0  0  0  0
    6.9833  -18.0461   22.3850 N   0  0  0  0  0  0  0  0  0  0  0  0
    7.4124  -16.8191   21.7514 C   0  0  1  0  0  0  0  0  0  0  0  0
    6.3468  -15.7907   21.7060 C   0  0  0  0  0  0  0  0  0  0  0  0
    6.8219  -14.5537   21.0379 C   0  0  0  0  0  0  0  0  0  0  0  0
    6.9146  -13.3652   21.7204 C   0  0  0  0  0  0  0  0  0  0  0  0
    7.3647  -12.2255   21.0714 C   0  0  0  0  0  0  0  0  0  0  0  0
    7.7314  -12.2414   19.7340 C   0  0  0  0  0  0  0  0  0  0  0  0
    7.6346  -13.4349   19.0620 C   0  0  0  0  0  0  0  0  0  0  0  0
    7.1853  -14.5774   19.7059 C   0  0  0  0  0  0  0  0  0  0  0  0
    8.6744  -16.3730   22.3684 C   0  0  0  0  0  0  0  0  0  0  0  0
    9.4046  -15.5616   21.7526 O   0  0  0  0  0  0  0  0  0  0  0  0
    9.1465  -16.7982   23.6384 N   0  0  0  0  0  0  0  0  0  0  0  0
   10.3013  -16.2040   24.2834 C   0  0  1  0  0  0  0  0  0  0  0  0
    9.9980  -14.7512   24.5810 C   0  0  0  0  0  0  0  0  0  0  0  0
    8.6475  -14.5771   25.1546 C   0  0  0  0  0  0  0  0  0  0  0  0
    7.6698  -15.5413   25.2722 C   0  0  0  0  0  0  0  0  0  0  0  0
    6.6104  -14.9550   25.8547 N   0  0  0  0  0  0  0  0  0  0  0  0
    6.8906  -13.6521   26.1073 C   0  0  0  0  0  0  0  0  0  0  0  0
    6.1893  -12.5970   26.6756 C   0  0  0  0  0  0  0  0  0  0  0  0
    6.7326  -11.3391   26.8082 C   0  0  0  0  0  0  0  0  0  0  0  0
    8.0236  -11.1107   26.3610 C   0  0  0  0  0  0  0  0  0  0  0  0
    8.7523  -12.1323   25.7913 C   0  0  0  0  0  0  0  0  0  0  0  0
    8.1697  -13.3936   25.6735 C   0  0  0  0  0  0  0  0  0  0  0  0
   10.6281  -16.9205   25.5537 C   0  0  0  0  0  0  0  0  0  0  0  0
   11.8186  -16.6039   26.1822 O   0  0  0  0  0  0  0  0  0  0  0  0
    9.8920  -17.7868   26.0810 O   0  0  0  0  0  0  0  0  0  0  0  0
  2  1  1  6
  2  3  1  0
  4  3  1  0
  5  4  2  0
  6  5  1  0
  7  6  1  0
  7 12  2  0
  8  7  1  0
  9  8  2  0
  9 10  1  0
 10 11  2  0
 11 12  1  0
 12  4  1  0
 13 15  1  0
 13  2  1  0
 14 13  2  0
 16 24  1  0
 16 17  1  1
 16 15  1  0
 18 17  1  0
 18 23  1  0
 19 18  2  0
 20 19  1  0
 20 21  2  0
 21 22  1  0
 22 23  2  0
 24 25  2  0
 26 27  1  0
 26 24  1  0
 27 38  1  0
 27 28  1  1
 29 30  2  0
 29 28  1  0
 31 30  1  0
 32 37  2  0
 32 31  1  0
 33 32  1  0
 34 33  2  0
 34 35  1  0
 35 36  2  0
 36 37  1  0
 37 29  1  0
 38 40  2  0
 38 39  1  0
M  END
$$$$
