WFW.pdb
     RDKit          3D

 40 44  0  0  1  0  0  0  0  0999 V2000
    9.4119  -18.9573   19.6313 N   0  0  0  0  0  0  0  0  0  0  0  0
    9.0638  -17.6911   20.2263 C   0  0  1  0  0  0  0  0  0  0  0  0
    7.5639  -17.6955   20.4808 C   0  0  0  0  0  0  0  0  0  0  0  0
    7.0050  -16.3362   20.4265 C   0  0  0  0  0  0  0  0  0  0  0  0
    5.6548  -16.0468   20.6379 C   0  0  0  0  0  0  0  0  0  0  0  0
    5.4753  -14.7249   20.5222 N   0  0  0  0  0  0  0  0  0  0  0  0
    6.6582  -14.1313   20.2422 C   0  0  0  0  0  0  0  0  0  0  0  0
    6.9677  -12.8061   20.0398 C   0  0  0  0  0  0  0  0  0  0  0  0
    8.2941  -12.5031   19.7680 C   0  0  0  0  0  0  0  0  0  0  0  0
    9.2673  -13.4907   19.7027 C   0  0  0  0  0  0  0  0  0  0  0  0
    8.9345  -14.8132   19.9092 C   0  0  0  0  0  0  0  0  0  0  0  0
    7.6178  -15.1273   20.1804 C   0  0  0  0  0  0  0  0  0  0  0  0
    9.8156  -17.5240   21.4895 C   0  0  0  0  0  0  0  0  0  0  0  0
   10.4024  -18.5007   22.0450 O   0  0  0  0  0  0  0  0  0  0  0  0
    9.8836  -16.2478   22.0927 N   0  0  0  0  0  0  0  0  0  0  0  0
   10.7112  -15.9927   23.2508 C   0  0  1  0  0  0  0  0  0  0  0  0
   10.6191  -14.5931   23.7281 C   0  0  0  0  0  0  0  0  0  0  0  0
    9.2480  -14.2746   24.1981 C   0  0  0  0  0  0  0  0  0  0  0  0
    8.1569  -14.4427   23.3806 C   0  0  0  0  0  0  0  0  0  0  0  0
    6.8869  -14.1399   23.8474 C   0  0  0  0  0  0  0  0  0  0  0  0
    6.6734  -13.6647   25.1327 C   0  0  0  0  0  0  0  0  0  0  0  0
    7.7714  -13.5006   25.9408 C   0  0  0  0  0  0  0  0  0  0  0  0
    9.0434  -13.8019   25.4793 C   0  0  0  0  0  0  0  0  0  0  0  0
   10.4338  -17.0139   24.2767 C   0  0  0  0  0  0  0  0  0  0  0  0
    9.2691  -17.4608   24.3976 O   0  0  0  0  0  0  0  0  0  0  0  0
   11.4032  -17.5490   25.1659 N   0  0  0  0  0  0  0  0  0  0  0  0
   11.0776  -18.5354   26.1776 C   0  0  1  0  0  0  0  0  0  0  0  0
    9.8658  -18.0585   26.9493 C   0  0  0  0  0  0  0  0  0  0  0  0
   10.2387  -17.1489   28.0524 C   0  0  0  0  0  0  0  0  0  0  0  0
   10.9229  -17.4818   29.2015 C   0  0  0  0  0  0  0  0  0  0  0  0
   11.0524  -16.3538   29.9201 N   0  0  0  0  0  0  0  0  0  0  0  0
   10.4710  -15.3216   29.2594 C   0  0  0  0  0  0  0  0  0  0  0  0
   10.3037  -13.9682   29.5205 C   0  0  0  0  0  0  0  0  0  0  0  0
    9.6496  -13.1262   28.6497 C   0  0  0  0  0  0  0  0  0  0  0  0
    9.1378  -13.6405   27.4697 C   0  0  0  0  0  0  0  0  0  0  0  0
    9.2836  -14.9787   27.1743 C   0  0  0  0  0  0  0  0  0  0  0  0
    9.9520  -15.8016   28.0799 C   0  0  0  0  0  0  0  0  0  0  0  0
   10.7866  -19.8616   25.5530 C   0  0  0  0  0  0  0  0  0  0  0  0
   10.6642  -20.9542   26.3919 O   0  0  0  0  0  0  0  0  0  0  0  0
   10.6478  -20.0425   24.3208 O   0  0  0  0  0  0  0  0  0  0  0  0
  2  1  1  1
  2  3  1  0
  4  3  1  0
  5  4  2  0
  6  5  1  0
  7  6  1  0
  7 12  2  0
  8  7  1  0
  9  8  2  0
  9 10  1  0
 10 11  2  0
 11 12  1  0
 12  4  1  0
 13 15  1  0
 13  2  1  0
 14 13  2  0
 16 24  1  0
 16 17  1  1
 16 15  1  0
 18 17  1  0
 18 23  1  0
 19 18  2  0
 20 19  1  0
 20 21  2  0
 21 22  1  0
 22 23  2  0
 24 25  2  0
 26 27  1  0
 26 24  1  0
 27 38  1  0
 27 28  1  6
 29 30  2  0
 29 28  1  0
 31 30  1  0
 32 37  2  0
 32 31  1  0
 33 32  1  0
 34 33  2  0
 34 35  1  0
 35 36  2  0
 36 37  1  0
 37 29  1  0
 38 40  2  0
 38 39  1  0
M  END
$$$$
