WFW.pdb
     RDKit          3D

 40 44  0  0  1  0  0  0  0  0999 V2000
    5.9663  -19.2752   22.5374 N   0  0  0  0  0  0  0  0  0  0  0  0
    6.7476  -18.0749   22.7038 C   0  0  1  0  0  0  0  0  0  0  0  0
    7.2458  -18.0419   24.1409 C   0  0  0  0  0  0  0  0  0  0  0  0
    6.8411  -16.8028   24.8221 C   0  0  0  0  0  0  0  0  0  0  0  0
    5.9023  -16.7605   25.8556 C   0  0  0  0  0  0  0  0  0  0  0  0
    5.7626  -15.4909   26.2578 N   0  0  0  0  0  0  0  0  0  0  0  0
    6.5754  -14.6938   25.5271 C   0  0  0  0  0  0  0  0  0  0  0  0
    6.7757  -13.3335   25.5785 C   0  0  0  0  0  0  0  0  0  0  0  0
    7.6921  -12.7972   24.6856 C   0  0  0  0  0  0  0  0  0  0  0  0
    8.3777  -13.5949   23.7797 C   0  0  0  0  0  0  0  0  0  0  0  0
    8.1613  -14.9566   23.7457 C   0  0  0  0  0  0  0  0  0  0  0  0
    7.2517  -15.5021   24.6294 C   0  0  0  0  0  0  0  0  0  0  0  0
    7.8787  -18.0947   21.7506 C   0  0  0  0  0  0  0  0  0  0  0  0
    8.5184  -19.1609   21.5041 O   0  0  0  0  0  0  0  0  0  0  0  0
    8.2569  -16.8997   21.0977 N   0  0  0  0  0  0  0  0  0  0  0  0
    9.5384  -16.7588   20.4428 C   0  0  1  0  0  0  0  0  0  0  0  0
    9.5502  -15.6827   19.4245 C   0  0  0  0  0  0  0  0  0  0  0  0
    8.7199  -14.5293   19.8518 C   0  0  0  0  0  0  0  0  0  0  0  0
    7.3484  -14.5766   19.7912 C   0  0  0  0  0  0  0  0  0  0  0  0
    6.5976  -13.4850   20.2001 C   0  0  0  0  0  0  0  0  0  0  0  0
    7.1911  -12.3255   20.6765 C   0  0  0  0  0  0  0  0  0  0  0  0
    8.5627  -12.2897   20.7325 C   0  0  0  0  0  0  0  0  0  0  0  0
    9.3181  -13.3783   20.3252 C   0  0  0  0  0  0  0  0  0  0  0  0
   10.5941  -16.6518   21.4657 C   0  0  0  0  0  0  0  0  0  0  0  0
   11.7599  -16.3543   21.1148 O   0  0  0  0  0  0  0  0  0  0  0  0
   10.3956  -16.8642   22.8557 N   0  0  0  0  0  0  0  0  0  0  0  0
   11.2928  -16.3351   23.8645 C   0  0  1  0  0  0  0  0  0  0  0  0
   10.4803  -15.5597   24.8794 C   0  0  0  0  0  0  0  0  0  0  0  0
   10.7143  -16.0420   26.2562 C   0  0  0  0  0  0  0  0  0  0  0  0
   11.3166  -17.2253   26.6254 C   0  0  0  0  0  0  0  0  0  0  0  0
   11.3294  -17.2552   27.9686 N   0  0  0  0  0  0  0  0  0  0  0  0
   10.7540  -16.1278   28.4565 C   0  0  0  0  0  0  0  0  0  0  0  0
   10.4981  -15.6370   29.7299 C   0  0  0  0  0  0  0  0  0  0  0  0
    9.8772  -14.4266   29.9408 C   0  0  0  0  0  0  0  0  0  0  0  0
    9.4915  -13.6664   28.8489 C   0  0  0  0  0  0  0  0  0  0  0  0
    9.7281  -14.1191   27.5689 C   0  0  0  0  0  0  0  0  0  0  0  0
   10.3593  -15.3499   27.3934 C   0  0  0  0  0  0  0  0  0  0  0  0
   12.0330  -17.4383   24.5492 C   0  0  0  0  0  0  0  0  0  0  0  0
   11.6268  -18.7365   24.2994 O   0  0  0  0  0  0  0  0  0  0  0  0
   12.9945  -17.2588   25.3324 O   0  0  0  0  0  0  0  0  0  0  0  0
  2  1  1  1
  2  3  1  0
  4  3  1  0
  5  4  2  0
  6  5  1  0
  7  6  1  0
  7 12  2  0
  8  7  1  0
  9  8  2  0
  9 10  1  0
 10 11  2  0
 11 12  1  0
 12  4  1  0
 13 15  1  0
 13  2  1  0
 14 13  2  0
 16 24  1  0
 16 17  1  1
 16 15  1  0
 18 17  1  0
 18 23  1  0
 19 18  2  0
 20 19  1  0
 20 21  2  0
 21 22  1  0
 22 23  2  0
 24 25  2  0
 26 27  1  0
 26 24  1  0
 27 38  1  0
 27 28  1  1
 29 30  2  0
 29 28  1  0
 31 30  1  0
 32 37  2  0
 32 31  1  0
 33 32  1  0
 34 33  2  0
 34 35  1  0
 35 36  2  0
 36 37  1  0
 37 29  1  0
 38 40  2  0
 38 39  1  0
M  END
$$$$
