WFW.pdb
     RDKit          3D

 40 44  0  0  1  0  0  0  0  0999 V2000
    6.9651  -21.0554   21.9773 N   0  0  0  0  0  0  0  0  0  0  0  0
    6.7607  -19.6472   21.7453 C   0  0  1  0  0  0  0  0  0  0  0  0
    5.9879  -19.0897   22.9313 C   0  0  0  0  0  0  0  0  0  0  0  0
    4.5565  -19.4152   22.8416 C   0  0  0  0  0  0  0  0  0  0  0  0
    3.8715  -20.1597   23.8050 C   0  0  0  0  0  0  0  0  0  0  0  0
    2.5913  -20.2745   23.4294 N   0  0  0  0  0  0  0  0  0  0  0  0
    2.4066  -19.6326   22.2530 C   0  0  0  0  0  0  0  0  0  0  0  0
    1.2741  -19.4777   21.4873 C   0  0  0  0  0  0  0  0  0  0  0  0
    1.4026  -18.7524   20.3116 C   0  0  0  0  0  0  0  0  0  0  0  0
    2.6181  -18.2063   19.9228 C   0  0  0  0  0  0  0  0  0  0  0  0
    3.7408  -18.3739   20.7061 C   0  0  0  0  0  0  0  0  0  0  0  0
    3.6256  -19.0939   21.8784 C   0  0  0  0  0  0  0  0  0  0  0  0
    8.0745  -18.9811   21.6079 C   0  0  0  0  0  0  0  0  0  0  0  0
    9.1594  -19.6197   21.7559 O   0  0  0  0  0  0  0  0  0  0  0  0
    8.1246  -17.6018   21.3040 N   0  0  0  0  0  0  0  0  0  0  0  0
    9.3727  -16.9234   21.0333 C   0  0  1  0  0  0  0  0  0  0  0  0
    9.2315  -15.8296   20.0441 C   0  0  0  0  0  0  0  0  0  0  0  0
    8.3805  -14.7342   20.5717 C   0  0  0  0  0  0  0  0  0  0  0  0
    7.0201  -14.8824   20.6909 C   0  0  0  0  0  0  0  0  0  0  0  0
    6.2499  -13.8431   21.1901 C   0  0  0  0  0  0  0  0  0  0  0  0
    6.8126  -12.6371   21.5806 C   0  0  0  0  0  0  0  0  0  0  0  0
    8.1733  -12.5004   21.4569 C   0  0  0  0  0  0  0  0  0  0  0  0
    8.9481  -13.5363   20.9585 C   0  0  0  0  0  0  0  0  0  0  0  0
    9.9920  -16.5246   22.3099 C   0  0  0  0  0  0  0  0  0  0  0  0
   10.8773  -15.6374   22.3110 O   0  0  0  0  0  0  0  0  0  0  0  0
    9.6607  -17.0775   23.5753 N   0  0  0  0  0  0  0  0  0  0  0  0
   10.2960  -16.6505   24.8068 C   0  0  1  0  0  0  0  0  0  0  0  0
    9.8374  -15.2442   25.1282 C   0  0  0  0  0  0  0  0  0  0  0  0
    8.4175  -15.2077   25.5353 C   0  0  0  0  0  0  0  0  0  0  0  0
    7.5176  -16.2504   25.4867 C   0  0  0  0  0  0  0  0  0  0  0  0
    6.3498  -15.7814   25.9574 N   0  0  0  0  0  0  0  0  0  0  0  0
    6.4864  -14.4762   26.3006 C   0  0  0  0  0  0  0  0  0  0  0  0
    5.6349  -13.5117   26.8227 C   0  0  0  0  0  0  0  0  0  0  0  0
    6.0500  -12.2242   27.0779 C   0  0  0  0  0  0  0  0  0  0  0  0
    7.3618  -11.8716   26.8064 C   0  0  0  0  0  0  0  0  0  0  0  0
    8.2377  -12.8005   26.2878 C   0  0  0  0  0  0  0  0  0  0  0  0
    7.7822  -14.0952   26.0422 C   0  0  0  0  0  0  0  0  0  0  0  0
    9.9405  -17.5657   25.9336 C   0  0  0  0  0  0  0  0  0  0  0  0
    9.0864  -18.6189   25.6613 O   0  0  0  0  0  0  0  0  0  0  0  0
   10.3673  -17.4368   27.1047 O   0  0  0  0  0  0  0  0  0  0  0  0
  2  1  1  1
  2  3  1  0
  4  3  1  0
  5  4  2  0
  6  5  1  0
  7  6  1  0
  7 12  2  0
  8  7  1  0
  9  8  2  0
  9 10  1  0
 10 11  2  0
 11 12  1  0
 12  4  1  0
 13 15  1  0
 13  2  1  0
 14 13  2  0
 16 24  1  0
 16 17  1  6
 16 15  1  0
 18 17  1  0
 18 23  1  0
 19 18  2  0
 20 19  1  0
 20 21  2  0
 21 22  1  0
 22 23  2  0
 24 25  2  0
 26 27  1  0
 26 24  1  0
 27 38  1  0
 27 28  1  1
 29 30  2  0
 29 28  1  0
 31 30  1  0
 32 37  2  0
 32 31  1  0
 33 32  1  0
 34 33  2  0
 34 35  1  0
 35 36  2  0
 36 37  1  0
 37 29  1  0
 38 40  2  0
 38 39  1  0
M  END
$$$$
