WFW.pdb
     RDKit          3D

 40 44  0  0  1  0  0  0  0  0999 V2000
    7.4032  -20.0631   22.0050 N   0  0  0  0  0  0  0  0  0  0  0  0
    7.2481  -18.6361   21.8698 C   0  0  1  0  0  0  0  0  0  0  0  0
    6.3323  -18.1616   22.9882 C   0  0  0  0  0  0  0  0  0  0  0  0
    4.9486  -18.6141   22.7789 C   0  0  0  0  0  0  0  0  0  0  0  0
    4.2045  -19.2968   23.7441 C   0  0  0  0  0  0  0  0  0  0  0  0
    2.9909  -19.5612   23.2437 N   0  0  0  0  0  0  0  0  0  0  0  0
    2.9072  -19.0777   21.9830 C   0  0  0  0  0  0  0  0  0  0  0  0
    1.8687  -19.1079   21.0810 C   0  0  0  0  0  0  0  0  0  0  0  0
    2.0892  -18.5155   19.8460 C   0  0  0  0  0  0  0  0  0  0  0  0
    3.3022  -17.9183   19.5318 C   0  0  0  0  0  0  0  0  0  0  0  0
    4.3297  -17.8994   20.4516 C   0  0  0  0  0  0  0  0  0  0  0  0
    4.1224  -18.4857   21.6842 C   0  0  0  0  0  0  0  0  0  0  0  0
    8.5763  -17.9913   21.9625 C   0  0  0  0  0  0  0  0  0  0  0  0
    9.6464  -18.6563   21.8227 O   0  0  0  0  0  0  0  0  0  0  0  0
    8.6576  -16.6026   22.2118 N   0  0  0  0  0  0  0  0  0  0  0  0
    9.9253  -15.9095   22.2724 C   0  0  1  0  0  0  0  0  0  0  0  0
    9.8145  -14.4736   21.9246 C   0  0  0  0  0  0  0  0  0  0  0  0
    8.7171  -14.2390   20.9535 C   0  0  0  0  0  0  0  0  0  0  0  0
    7.4505  -13.9133   21.3738 C   0  0  0  0  0  0  0  0  0  0  0  0
    6.4451  -13.6965   20.4439 C   0  0  0  0  0  0  0  0  0  0  0  0
    6.6751  -13.7983   19.0800 C   0  0  0  0  0  0  0  0  0  0  0  0
    7.9449  -14.1245   18.6717 C   0  0  0  0  0  0  0  0  0  0  0  0
    8.9538  -14.3421   19.5970 C   0  0  0  0  0  0  0  0  0  0  0  0
   10.5626  -16.1819   23.5731 C   0  0  0  0  0  0  0  0  0  0  0  0
   11.5796  -15.5295   23.9061 O   0  0  0  0  0  0  0  0  0  0  0  0
   10.1082  -17.1498   24.5076 N   0  0  0  0  0  0  0  0  0  0  0  0
   10.6505  -17.2589   25.8480 C   0  0  1  0  0  0  0  0  0  0  0  0
   10.2276  -16.0427   26.6439 C   0  0  0  0  0  0  0  0  0  0  0  0
    8.7797  -15.7775   26.5164 C   0  0  0  0  0  0  0  0  0  0  0  0
    7.8232  -16.6380   26.0224 C   0  0  0  0  0  0  0  0  0  0  0  0
    6.6447  -15.9967   26.0965 N   0  0  0  0  0  0  0  0  0  0  0  0
    6.8296  -14.7597   26.6214 C   0  0  0  0  0  0  0  0  0  0  0  0
    5.9932  -13.6915   26.9166 C   0  0  0  0  0  0  0  0  0  0  0  0
    6.4636  -12.5163   27.4577 C   0  0  0  0  0  0  0  0  0  0  0  0
    7.8178  -12.3882   27.7193 C   0  0  0  0  0  0  0  0  0  0  0  0
    8.6805  -13.4261   27.4405 C   0  0  0  0  0  0  0  0  0  0  0  0
    8.1684  -14.6016   26.8928 C   0  0  0  0  0  0  0  0  0  0  0  0
   10.1571  -18.4981   26.5221 C   0  0  0  0  0  0  0  0  0  0  0  0
    9.3193  -19.3309   25.8029 O   0  0  0  0  0  0  0  0  0  0  0  0
   10.4550  -18.8264   27.6942 O   0  0  0  0  0  0  0  0  0  0  0  0
  2  1  1  1
  2  3  1  0
  4  3  1  0
  5  4  2  0
  6  5  1  0
  7  6  1  0
  7 12  2  0
  8  7  1  0
  9  8  2  0
  9 10  1  0
 10 11  2  0
 11 12  1  0
 12  4  1  0
 13 15  1  0
 13  2  1  0
 14 13  2  0
 16 24  1  0
 16 17  1  1
 16 15  1  0
 18 17  1  0
 18 23  1  0
 19 18  2  0
 20 19  1  0
 20 21  2  0
 21 22  1  0
 22 23  2  0
 24 25  2  0
 26 27  1  0
 26 24  1  0
 27 38  1  0
 27 28  1  1
 29 30  2  0
 29 28  1  0
 31 30  1  0
 32 37  2  0
 32 31  1  0
 33 32  1  0
 34 33  2  0
 34 35  1  0
 35 36  2  0
 36 37  1  0
 37 29  1  0
 38 40  2  0
 38 39  1  0
M  END
$$$$
