WFW.pdb
     RDKit          3D

 40 44  0  0  1  0  0  0  0  0999 V2000
   10.3257  -18.9921   19.8136 N   0  0  0  0  0  0  0  0  0  0  0  0
   11.3650  -17.9965   19.7275 C   0  0  1  0  0  0  0  0  0  0  0  0
   11.4274  -17.5155   18.2855 C   0  0  0  0  0  0  0  0  0  0  0  0
   11.8432  -18.5941   17.3762 C   0  0  0  0  0  0  0  0  0  0  0  0
   10.9528  -19.4968   16.7900 C   0  0  0  0  0  0  0  0  0  0  0  0
   11.6455  -20.3450   16.0195 N   0  0  0  0  0  0  0  0  0  0  0  0
   12.9610  -20.0347   16.0760 C   0  0  0  0  0  0  0  0  0  0  0  0
   14.0441  -20.6162   15.4580 C   0  0  0  0  0  0  0  0  0  0  0  0
   15.2894  -20.0617   15.7158 C   0  0  0  0  0  0  0  0  0  0  0  0
   15.4390  -18.9691   16.5589 C   0  0  0  0  0  0  0  0  0  0  0  0
   14.3392  -18.4019   17.1678 C   0  0  0  0  0  0  0  0  0  0  0  0
   13.0944  -18.9448   16.9191 C   0  0  0  0  0  0  0  0  0  0  0  0
   11.0471  -16.8808   20.6455 C   0  0  0  0  0  0  0  0  0  0  0  0
   11.6996  -15.7943   20.6181 O   0  0  0  0  0  0  0  0  0  0  0  0
    9.9923  -17.0259   21.5747 N   0  0  0  0  0  0  0  0  0  0  0  0
    9.6004  -15.9520   22.4604 C   0  0  1  0  0  0  0  0  0  0  0  0
    8.1373  -15.7188   22.4715 C   0  0  0  0  0  0  0  0  0  0  0  0
    7.7256  -14.8339   21.3536 C   0  0  0  0  0  0  0  0  0  0  0  0
    6.9406  -15.2998   20.3272 C   0  0  0  0  0  0  0  0  0  0  0  0
    6.5685  -14.4495   19.2971 C   0  0  0  0  0  0  0  0  0  0  0  0
    6.9671  -13.1215   19.2640 C   0  0  0  0  0  0  0  0  0  0  0  0
    7.7516  -12.6669   20.2952 C   0  0  0  0  0  0  0  0  0  0  0  0
    8.1264  -13.5127   21.3277 C   0  0  0  0  0  0  0  0  0  0  0  0
   10.1991  -16.1785   23.7880 C   0  0  0  0  0  0  0  0  0  0  0  0
   11.3164  -15.6751   24.0506 O   0  0  0  0  0  0  0  0  0  0  0  0
    9.5992  -16.9418   24.8244 N   0  0  0  0  0  0  0  0  0  0  0  0
   10.0363  -16.8673   26.2050 C   0  0  1  0  0  0  0  0  0  0  0  0
    9.8066  -15.4598   26.7124 C   0  0  0  0  0  0  0  0  0  0  0  0
    8.3963  -15.0447   26.5644 C   0  0  0  0  0  0  0  0  0  0  0  0
    7.3291  -15.8504   26.2307 C   0  0  0  0  0  0  0  0  0  0  0  0
    6.2373  -15.0673   26.2166 N   0  0  0  0  0  0  0  0  0  0  0  0
    6.5839  -13.7941   26.5308 C   0  0  0  0  0  0  0  0  0  0  0  0
    5.8892  -12.5989   26.6606 C   0  0  0  0  0  0  0  0  0  0  0  0
    6.5124  -11.4183   26.9967 C   0  0  0  0  0  0  0  0  0  0  0  0
    7.8804  -11.4154   27.2144 C   0  0  0  0  0  0  0  0  0  0  0  0
    8.6053  -12.5814   27.0955 C   0  0  0  0  0  0  0  0  0  0  0  0
    7.9404  -13.7583   26.7536 C   0  0  0  0  0  0  0  0  0  0  0  0
    9.2819  -17.8382   27.0547 C   0  0  0  0  0  0  0  0  0  0  0  0
    8.3520  -18.6504   26.4316 O   0  0  0  0  0  0  0  0  0  0  0  0
    9.4401  -17.9598   28.2918 O   0  0  0  0  0  0  0  0  0  0  0  0
  2  1  1  6
  2  3  1  0
  4  3  1  0
  5  4  2  0
  6  5  1  0
  7  6  1  0
  7 12  2  0
  8  7  1  0
  9  8  2  0
  9 10  1  0
 10 11  2  0
 11 12  1  0
 12  4  1  0
 13 15  1  0
 13  2  1  0
 14 13  2  0
 16 24  1  0
 16 17  1  1
 16 15  1  0
 18 17  1  0
 18 23  1  0
 19 18  2  0
 20 19  1  0
 20 21  2  0
 21 22  1  0
 22 23  2  0
 24 25  2  0
 26 27  1  0
 26 24  1  0
 27 38  1  0
 27 28  1  1
 29 30  2  0
 29 28  1  0
 31 30  1  0
 32 37  2  0
 32 31  1  0
 33 32  1  0
 34 33  2  0
 34 35  1  0
 35 36  2  0
 36 37  1  0
 37 29  1  0
 38 40  2  0
 38 39  1  0
M  END
$$$$
