WFW.pdb
     RDKit          3D

 40 44  0  0  1  0  0  0  0  0999 V2000
    9.9425  -17.7177   20.9574 N   0  0  0  0  0  0  0  0  0  0  0  0
    9.9856  -16.6364   21.9101 C   0  0  1  0  0  0  0  0  0  0  0  0
    8.5650  -16.3894   22.3952 C   0  0  0  0  0  0  0  0  0  0  0  0
    7.8352  -15.4913   21.4875 C   0  0  0  0  0  0  0  0  0  0  0  0
    6.4559  -15.5594   21.2770 C   0  0  0  0  0  0  0  0  0  0  0  0
    6.1071  -14.6078   20.4018 N   0  0  0  0  0  0  0  0  0  0  0  0
    7.2063  -13.9141   20.0271 C   0  0  0  0  0  0  0  0  0  0  0  0
    7.3426  -12.8560   19.1583 C   0  0  0  0  0  0  0  0  0  0  0  0
    8.6214  -12.3488   18.9787 C   0  0  0  0  0  0  0  0  0  0  0  0
    9.7161  -12.8829   19.6445 C   0  0  0  0  0  0  0  0  0  0  0  0
    9.5563  -13.9437   20.5112 C   0  0  0  0  0  0  0  0  0  0  0  0
    8.2885  -14.4573   20.6983 C   0  0  0  0  0  0  0  0  0  0  0  0
   10.8717  -17.0128   23.0334 C   0  0  0  0  0  0  0  0  0  0  0  0
   11.1948  -18.2199   23.2462 O   0  0  0  0  0  0  0  0  0  0  0  0
   11.3715  -16.0061   23.8902 N   0  0  0  0  0  0  0  0  0  0  0  0
   11.8681  -16.3065   25.2147 C   0  0  1  0  0  0  0  0  0  0  0  0
   12.2190  -15.0923   25.9879 C   0  0  0  0  0  0  0  0  0  0  0  0
   12.7207  -15.4424   27.3399 C   0  0  0  0  0  0  0  0  0  0  0  0
   11.9118  -15.3515   28.4464 C   0  0  0  0  0  0  0  0  0  0  0  0
   12.4065  -15.6881   29.6972 C   0  0  0  0  0  0  0  0  0  0  0  0
   13.7119  -16.1210   29.8758 C   0  0  0  0  0  0  0  0  0  0  0  0
   14.5112  -16.2079   28.7627 C   0  0  0  0  0  0  0  0  0  0  0  0
   14.0218  -15.8728   27.5098 C   0  0  0  0  0  0  0  0  0  0  0  0
   10.9248  -17.2162   25.8890 C   0  0  0  0  0  0  0  0  0  0  0  0
   11.3142  -18.3555   26.2369 O   0  0  0  0  0  0  0  0  0  0  0  0
    9.5721  -16.9013   26.1856 N   0  0  0  0  0  0  0  0  0  0  0  0
    8.7272  -17.7601   26.9925 C   0  0  1  0  0  0  0  0  0  0  0  0
    7.6670  -16.9107   27.6602 C   0  0  0  0  0  0  0  0  0  0  0  0
    6.8387  -16.1877   26.6732 C   0  0  0  0  0  0  0  0  0  0  0  0
    5.8509  -16.7224   25.8746 C   0  0  0  0  0  0  0  0  0  0  0  0
    5.3540  -15.7137   25.1391 N   0  0  0  0  0  0  0  0  0  0  0  0
    5.9981  -14.5610   25.4496 C   0  0  0  0  0  0  0  0  0  0  0  0
    5.9062  -13.2456   25.0143 C   0  0  0  0  0  0  0  0  0  0  0  0
    6.7117  -12.2473   25.5140 C   0  0  0  0  0  0  0  0  0  0  0  0
    7.6490  -12.5589   26.4852 C   0  0  0  0  0  0  0  0  0  0  0  0
    7.7708  -13.8528   26.9434 C   0  0  0  0  0  0  0  0  0  0  0  0
    6.9380  -14.8381   26.4145 C   0  0  0  0  0  0  0  0  0  0  0  0
    8.0753  -18.8083   26.1499 C   0  0  0  0  0  0  0  0  0  0  0  0
    8.2718  -18.7475   24.7823 O   0  0  0  0  0  0  0  0  0  0  0  0
    7.3647  -19.7344   26.6056 O   0  0  0  0  0  0  0  0  0  0  0  0
  2  1  1  6
  2  3  1  0
  4  3  1  0
  5  4  2  0
  6  5  1  0
  7  6  1  0
  7 12  2  0
  8  7  1  0
  9  8  2  0
  9 10  1  0
 10 11  2  0
 11 12  1  0
 12  4  1  0
 13 15  1  0
 13  2  1  0
 14 13  2  0
 16 24  1  0
 16 17  1  1
 16 15  1  0
 18 17  1  0
 18 23  1  0
 19 18  2  0
 20 19  1  0
 20 21  2  0
 21 22  1  0
 22 23  2  0
 24 25  2  0
 26 27  1  0
 26 24  1  0
 27 38  1  0
 27 28  1  6
 29 30  2  0
 29 28  1  0
 31 30  1  0
 32 37  2  0
 32 31  1  0
 33 32  1  0
 34 33  2  0
 34 35  1  0
 35 36  2  0
 36 37  1  0
 37 29  1  0
 38 40  2  0
 38 39  1  0
M  END
$$$$
