WFW.pdb
     RDKit          3D

 40 44  0  0  1  0  0  0  0  0999 V2000
    8.5379  -21.5827   21.9110 N   0  0  0  0  0  0  0  0  0  0  0  0
    8.3336  -20.3778   22.6761 C   0  0  1  0  0  0  0  0  0  0  0  0
    9.4909  -20.2490   23.6553 C   0  0  0  0  0  0  0  0  0  0  0  0
    9.2564  -21.0407   24.8724 C   0  0  0  0  0  0  0  0  0  0  0  0
    9.8567  -22.2782   25.1169 C   0  0  0  0  0  0  0  0  0  0  0  0
    9.4390  -22.7311   26.3058 N   0  0  0  0  0  0  0  0  0  0  0  0
    8.5848  -21.8373   26.8548 C   0  0  0  0  0  0  0  0  0  0  0  0
    7.9095  -21.8658   28.0532 C   0  0  0  0  0  0  0  0  0  0  0  0
    7.0936  -20.7816   28.3426 C   0  0  0  0  0  0  0  0  0  0  0  0
    6.9626  -19.7147   27.4644 C   0  0  0  0  0  0  0  0  0  0  0  0
    7.6493  -19.7070   26.2683 C   0  0  0  0  0  0  0  0  0  0  0  0
    8.4644  -20.7803   25.9690 C   0  0  0  0  0  0  0  0  0  0  0  0
    8.2856  -19.2199   21.7566 C   0  0  0  0  0  0  0  0  0  0  0  0
    9.0629  -19.1337   20.7591 O   0  0  0  0  0  0  0  0  0  0  0  0
    7.3524  -18.1851   21.9924 N   0  0  0  0  0  0  0  0  0  0  0  0
    7.6200  -16.8143   21.6175 C   0  0  1  0  0  0  0  0  0  0  0  0
    6.4206  -15.9487   21.7030 C   0  0  0  0  0  0  0  0  0  0  0  0
    6.7190  -14.5697   21.2429 C   0  0  0  0  0  0  0  0  0  0  0  0
    6.9817  -14.2999   19.9218 C   0  0  0  0  0  0  0  0  0  0  0  0
    7.2543  -13.0013   19.5197 C   0  0  0  0  0  0  0  0  0  0  0  0
    7.2722  -11.9452   20.4185 C   0  0  0  0  0  0  0  0  0  0  0  0
    7.0082  -12.2268   21.7362 C   0  0  0  0  0  0  0  0  0  0  0  0
    6.7348  -13.5233   22.1437 C   0  0  0  0  0  0  0  0  0  0  0  0
    8.7879  -16.3265   22.3727 C   0  0  0  0  0  0  0  0  0  0  0  0
    9.6847  -15.6902   21.7713 O   0  0  0  0  0  0  0  0  0  0  0  0
    8.9886  -16.5233   23.7647 N   0  0  0  0  0  0  0  0  0  0  0  0
   10.0170  -15.8274   24.5135 C   0  0  1  0  0  0  0  0  0  0  0  0
    9.4745  -15.4890   25.8855 C   0  0  0  0  0  0  0  0  0  0  0  0
    8.2439  -14.6752   25.8055 C   0  0  0  0  0  0  0  0  0  0  0  0
    6.9564  -15.1391   25.6425 C   0  0  0  0  0  0  0  0  0  0  0  0
    6.1515  -14.0633   25.6319 N   0  0  0  0  0  0  0  0  0  0  0  0
    6.8920  -12.9368   25.7830 C   0  0  0  0  0  0  0  0  0  0  0  0
    6.6016  -11.5802   25.8407 C   0  0  0  0  0  0  0  0  0  0  0  0
    7.5795  -10.6247   26.0015 C   0  0  0  0  0  0  0  0  0  0  0  0
    8.9016  -11.0235   26.1101 C   0  0  0  0  0  0  0  0  0  0  0  0
    9.2304  -12.3608   26.0577 C   0  0  0  0  0  0  0  0  0  0  0  0
    8.2135  -13.3006   25.8940 C   0  0  0  0  0  0  0  0  0  0  0  0
   11.2403  -16.6749   24.6508 C   0  0  0  0  0  0  0  0  0  0  0  0
   11.1911  -17.9612   24.1452 O   0  0  0  0  0  0  0  0  0  0  0  0
   12.3026  -16.2922   25.1942 O   0  0  0  0  0  0  0  0  0  0  0  0
  2  1  1  6
  2  3  1  0
  4  3  1  0
  5  4  2  0
  6  5  1  0
  7  6  1  0
  7 12  2  0
  8  7  1  0
  9  8  2  0
  9 10  1  0
 10 11  2  0
 11 12  1  0
 12  4  1  0
 13 15  1  0
 13  2  1  0
 14 13  2  0
 16 24  1  0
 16 17  1  1
 16 15  1  0
 18 17  1  0
 18 23  1  0
 19 18  2  0
 20 19  1  0
 20 21  2  0
 21 22  1  0
 22 23  2  0
 24 25  2  0
 26 27  1  0
 26 24  1  0
 27 38  1  0
 27 28  1  1
 29 30  2  0
 29 28  1  0
 31 30  1  0
 32 37  2  0
 32 31  1  0
 33 32  1  0
 34 33  2  0
 34 35  1  0
 35 36  2  0
 36 37  1  0
 37 29  1  0
 38 40  2  0
 38 39  1  0
M  END
$$$$
