ALT.pdb
     RDKit          3D

 21 20  0  0  1  0  0  0  0  0999 V2000
    9.0397  -19.0516   17.6201 C   0  0  0  0  0  0  0  0  0  0  0  0
    9.5684  -17.6831   17.3476 C   0  0  2  0  0  0  0  0  0  0  0  0
   10.7259  -17.8395   16.4713 N   0  0  0  0  0  0  0  0  0  0  0  0
    9.9033  -16.9149   18.5461 C   0  0  0  0  0  0  0  0  0  0  0  0
   11.0790  -16.9701   18.9919 O   0  0  0  0  0  0  0  0  0  0  0  0
    6.9066  -12.3531   19.6892 C   0  0  0  0  0  0  0  0  0  0  0  0
    8.0421  -13.3278   19.4586 C   0  0  1  0  0  0  0  0  0  0  0  0
    9.2829  -12.4131   19.3219 C   0  0  0  0  0  0  0  0  0  0  0  0
    8.3125  -14.2012   20.6318 C   0  0  0  0  0  0  0  0  0  0  0  0
    9.2306  -15.3326   20.3915 C   0  0  2  0  0  0  0  0  0  0  0  0
    8.9073  -16.1070   19.2099 N   0  0  0  0  0  0  0  0  0  0  0  0
    9.5495  -16.1934   21.5499 C   0  0  0  0  0  0  0  0  0  0  0  0
    8.6677  -16.8225   22.1715 O   0  0  0  0  0  0  0  0  0  0  0  0
   10.9266  -19.3364   22.0527 C   0  0  0  0  0  0  0  0  0  0  0  0
   11.8663  -18.4493   22.8302 C   0  0  1  0  0  0  0  0  0  0  0  0
   13.0000  -18.2948   22.0191 O   0  0  0  0  0  0  0  0  0  0  0  0
   11.2678  -17.1280   23.1764 C   0  0  2  0  0  0  0  0  0  0  0  0
   10.9015  -16.3424   22.0223 N   0  0  0  0  0  0  0  0  0  0  0  0
   12.1759  -16.3262   24.0687 C   0  0  0  0  0  0  0  0  0  0  0  0
   12.6649  -15.2127   23.7235 O   0  0  0  0  0  0  0  0  0  0  0  0
   12.5441  -16.7467   25.3341 O   0  0  0  0  0  0  0  0  0  0  0  0
  2  1  1  1
  3  2  1  0
  4  5  2  0
  4  2  1  0
  7  6  1  1
  7  9  1  0
  8  7  1  0
 10  9  1  1
 10 11  1  0
 10 12  1  0
 11  4  1  0
 12 18  1  0
 13 12  2  0
 15 16  1  0
 15 14  1  6
 17 15  1  0
 17 18  1  6
 19 21  1  0
 19 17  1  0
 20 19  2  0
M  END
$$$$
