ALT.pdb
     RDKit          3D

 21 20  0  0  1  0  0  0  0  0999 V2000
   10.9817  -17.9340   18.9365 C   0  0  0  0  0  0  0  0  0  0  0  0
   10.2835  -18.0359   20.2513 C   0  0  2  0  0  0  0  0  0  0  0  0
    8.9880  -18.6605   19.9992 N   0  0  0  0  0  0  0  0  0  0  0  0
   10.1371  -16.7640   20.9580 C   0  0  0  0  0  0  0  0  0  0  0  0
   11.1703  -16.1871   21.3869 O   0  0  0  0  0  0  0  0  0  0  0  0
    6.4050  -13.0837   19.3948 C   0  0  0  0  0  0  0  0  0  0  0  0
    7.6457  -13.7827   19.9093 C   0  0  1  0  0  0  0  0  0  0  0  0
    8.7590  -12.7224   19.7325 C   0  0  0  0  0  0  0  0  0  0  0  0
    7.5932  -14.0728   21.3672 C   0  0  0  0  0  0  0  0  0  0  0  0
    8.6739  -14.9329   21.8897 C   0  0  2  0  0  0  0  0  0  0  0  0
    8.8339  -16.1769   21.1634 N   0  0  0  0  0  0  0  0  0  0  0  0
    8.7208  -15.1340   23.3532 C   0  0  0  0  0  0  0  0  0  0  0  0
    8.6056  -14.1853   24.1572 O   0  0  0  0  0  0  0  0  0  0  0  0
    6.2741  -16.6359   25.4000 C   0  0  0  0  0  0  0  0  0  0  0  0
    7.5116  -17.4548   25.6685 C   0  0  1  0  0  0  0  0  0  0  0  0
    7.3713  -18.6179   24.8975 O   0  0  0  0  0  0  0  0  0  0  0  0
    8.7724  -16.7336   25.3306 C   0  0  2  0  0  0  0  0  0  0  0  0
    8.9090  -16.4426   23.9235 N   0  0  0  0  0  0  0  0  0  0  0  0
    9.9846  -17.4823   25.8141 C   0  0  0  0  0  0  0  0  0  0  0  0
   10.1650  -17.7794   27.0296 O   0  0  0  0  0  0  0  0  0  0  0  0
   10.9929  -17.9023   24.9652 O   0  0  0  0  0  0  0  0  0  0  0  0
  2  1  1  6
  3  2  1  0
  4  5  2  0
  4  2  1  0
  7  6  1  1
  7  9  1  0
  8  7  1  0
 10  9  1  1
 10 11  1  0
 10 12  1  0
 11  4  1  0
 12 18  1  0
 13 12  2  0
 15 16  1  0
 15 14  1  6
 17 15  1  0
 17 18  1  6
 19 21  1  0
 19 17  1  0
 20 19  2  0
M  END
$$$$
