ALT.pdb
     RDKit          3D

 21 20  0  0  1  0  0  0  0  0999 V2000
    6.4851  -15.7059   20.6262 C   0  0  0  0  0  0  0  0  0  0  0  0
    7.2012  -14.4613   21.0322 C   0  0  2  0  0  0  0  0  0  0  0  0
    8.1812  -14.1732   19.9888 N   0  0  0  0  0  0  0  0  0  0  0  0
    7.8271  -14.5275   22.3522 C   0  0  0  0  0  0  0  0  0  0  0  0
    9.0536  -14.7998   22.4279 O   0  0  0  0  0  0  0  0  0  0  0  0
    5.8517  -11.5990   26.7721 C   0  0  0  0  0  0  0  0  0  0  0  0
    6.7549  -12.2417   25.7407 C   0  0  1  0  0  0  0  0  0  0  0  0
    8.1449  -11.6345   26.0473 C   0  0  0  0  0  0  0  0  0  0  0  0
    6.9062  -13.7095   25.9271 C   0  0  0  0  0  0  0  0  0  0  0  0
    7.6495  -14.4180   24.8658 C   0  0  2  0  0  0  0  0  0  0  0  0
    7.0569  -14.2866   23.5497 N   0  0  0  0  0  0  0  0  0  0  0  0
    8.0640  -15.8075   25.1523 C   0  0  0  0  0  0  0  0  0  0  0  0
    7.2390  -16.7409   25.2411 O   0  0  0  0  0  0  0  0  0  0  0  0
   10.0686  -18.1077   23.2080 C   0  0  0  0  0  0  0  0  0  0  0  0
   10.7675  -18.0559   24.5433 C   0  0  1  0  0  0  0  0  0  0  0  0
   11.9147  -17.2749   24.3408 O   0  0  0  0  0  0  0  0  0  0  0  0
    9.9138  -17.4882   25.6262 C   0  0  2  0  0  0  0  0  0  0  0  0
    9.4484  -16.1502   25.3499 N   0  0  0  0  0  0  0  0  0  0  0  0
   10.6162  -17.5166   26.9565 C   0  0  0  0  0  0  0  0  0  0  0  0
   10.8562  -16.4712   27.6256 O   0  0  0  0  0  0  0  0  0  0  0  0
   11.0520  -18.6888   27.5480 O   0  0  0  0  0  0  0  0  0  0  0  0
  2  1  1  6
  3  2  1  0
  4  5  2  0
  4  2  1  0
  7  6  1  1
  7  9  1  0
  8  7  1  0
 10  9  1  1
 10 11  1  0
 10 12  1  0
 11  4  1  0
 12 18  1  0
 13 12  2  0
 15 16  1  0
 15 14  1  6
 17 15  1  0
 17 18  1  6
 19 21  1  0
 19 17  1  0
 20 19  2  0
M  END
$$$$
