ALT.pdb
     RDKit          3D

 21 20  0  0  1  0  0  0  0  0999 V2000
    8.0601  -17.6283   21.3063 C   0  0  0  0  0  0  0  0  0  0  0  0
    8.4758  -16.1968   21.2409 C   0  0  2  0  0  0  0  0  0  0  0  0
    9.6558  -16.1339   20.3831 N   0  0  0  0  0  0  0  0  0  0  0  0
    8.7260  -15.5800   22.5431 C   0  0  0  0  0  0  0  0  0  0  0  0
    9.8864  -15.6370   23.0272 O   0  0  0  0  0  0  0  0  0  0  0  0
    8.0054  -11.6329   26.4210 C   0  0  0  0  0  0  0  0  0  0  0  0
    7.0304  -12.7890   26.3468 C   0  0  1  0  0  0  0  0  0  0  0  0
    5.6679  -12.1363   26.6823 C   0  0  0  0  0  0  0  0  0  0  0  0
    6.8840  -13.3452   24.9751 C   0  0  0  0  0  0  0  0  0  0  0  0
    7.8861  -14.3563   24.5824 C   0  0  2  0  0  0  0  0  0  0  0  0
    7.6650  -14.9173   23.2644 N   0  0  0  0  0  0  0  0  0  0  0  0
    8.2151  -15.3956   25.5806 C   0  0  0  0  0  0  0  0  0  0  0  0
    7.4270  -16.3247   25.8552 O   0  0  0  0  0  0  0  0  0  0  0  0
   12.2527  -16.3418   26.1073 C   0  0  0  0  0  0  0  0  0  0  0  0
   11.0776  -17.2260   26.4414 C   0  0  1  0  0  0  0  0  0  0  0  0
   11.5811  -18.2199   27.2932 O   0  0  0  0  0  0  0  0  0  0  0  0
    9.9545  -16.4846   27.0839 C   0  0  2  0  0  0  0  0  0  0  0  0
    9.4667  -15.3807   26.2922 N   0  0  0  0  0  0  0  0  0  0  0  0
   10.3271  -15.9981   28.4580 C   0  0  0  0  0  0  0  0  0  0  0  0
   10.3029  -14.7759   28.7806 O   0  0  0  0  0  0  0  0  0  0  0  0
   10.7242  -16.8512   29.4720 O   0  0  0  0  0  0  0  0  0  0  0  0
  2  1  1  1
  3  2  1  0
  4  5  2  0
  4  2  1  0
  7  6  1  6
  7  9  1  0
  8  7  1  0
 10  9  1  1
 10 11  1  0
 10 12  1  0
 11  4  1  0
 12 18  1  0
 13 12  2  0
 15 16  1  0
 15 14  1  1
 17 15  1  0
 17 18  1  6
 19 21  1  0
 19 17  1  0
 20 19  2  0
M  END
$$$$
