ALT.pdb
     RDKit          3D

 21 20  0  0  1  0  0  0  0  0999 V2000
    7.2608  -16.5694   20.8104 C   0  0  0  0  0  0  0  0  0  0  0  0
    7.7189  -15.2431   21.3181 C   0  0  2  0  0  0  0  0  0  0  0  0
    8.7662  -14.7783   20.4130 N   0  0  0  0  0  0  0  0  0  0  0  0
    8.1760  -15.2528   22.7072 C   0  0  0  0  0  0  0  0  0  0  0  0
    9.3831  -15.5179   22.9456 O   0  0  0  0  0  0  0  0  0  0  0  0
    5.8768  -11.8430   26.4880 C   0  0  0  0  0  0  0  0  0  0  0  0
    6.8730  -12.6457   25.6781 C   0  0  1  0  0  0  0  0  0  0  0  0
    8.2419  -12.0702   26.1138 C   0  0  0  0  0  0  0  0  0  0  0  0
    6.9049  -14.0858   26.0485 C   0  0  0  0  0  0  0  0  0  0  0  0
    7.7089  -14.9572   25.1680 C   0  0  2  0  0  0  0  0  0  0  0  0
    7.2636  -14.9652   23.7888 N   0  0  0  0  0  0  0  0  0  0  0  0
    8.0067  -16.3175   25.6637 C   0  0  0  0  0  0  0  0  0  0  0  0
    7.1160  -17.1812   25.8063 O   0  0  0  0  0  0  0  0  0  0  0  0
    9.8016  -19.0330   24.2186 C   0  0  0  0  0  0  0  0  0  0  0  0
   10.5036  -18.8215   25.5365 C   0  0  1  0  0  0  0  0  0  0  0  0
   11.7089  -18.1758   25.2248 O   0  0  0  0  0  0  0  0  0  0  0  0
    9.6986  -18.0214   26.5037 C   0  0  2  0  0  0  0  0  0  0  0  0
    9.3471  -16.7101   26.0132 N   0  0  0  0  0  0  0  0  0  0  0  0
   10.3939  -17.8967   27.8322 C   0  0  0  0  0  0  0  0  0  0  0  0
   10.7565  -16.7850   28.3126 O   0  0  0  0  0  0  0  0  0  0  0  0
   10.6887  -18.9890   28.6281 O   0  0  0  0  0  0  0  0  0  0  0  0
  2  1  1  6
  3  2  1  0
  4  5  2  0
  4  2  1  0
  7  6  1  1
  7  9  1  0
  8  7  1  0
 10  9  1  1
 10 11  1  0
 10 12  1  0
 11  4  1  0
 12 18  1  0
 13 12  2  0
 15 16  1  0
 15 14  1  6
 17 15  1  0
 17 18  1  6
 19 21  1  0
 19 17  1  0
 20 19  2  0
M  END
$$$$
