ALT.pdb
     RDKit          3D

 21 20  0  0  1  0  0  0  0  0999 V2000
   -4.8762  -28.0823   27.0194 C   0  0  0  0  0  0  0  0  0  0  0  0
   -3.7544  -27.1071   26.8877 C   0  0  2  0  0  0  0  0  0  0  0  0
   -2.5747  -27.7311   27.4801 N   0  0  0  0  0  0  0  0  0  0  0  0
   -4.0210  -25.7960   27.4781 C   0  0  0  0  0  0  0  0  0  0  0  0
   -4.1004  -25.7007   28.7306 O   0  0  0  0  0  0  0  0  0  0  0  0
   -1.6817  -21.1603   25.6802 C   0  0  0  0  0  0  0  0  0  0  0  0
   -2.3085  -22.2571   26.5149 C   0  0  1  0  0  0  0  0  0  0  0  0
   -1.8750  -21.9068   27.9586 C   0  0  0  0  0  0  0  0  0  0  0  0
   -3.7953  -22.2138   26.5188 C   0  0  0  0  0  0  0  0  0  0  0  0
   -4.4678  -23.3273   27.2176 C   0  0  2  0  0  0  0  0  0  0  0  0
   -4.1916  -24.6294   26.6442 N   0  0  0  0  0  0  0  0  0  0  0  0
   -5.9013  -23.1516   27.5323 C   0  0  0  0  0  0  0  0  0  0  0  0
   -6.7903  -23.2680   26.6630 O   0  0  0  0  0  0  0  0  0  0  0  0
   -8.3145  -25.0723   29.0223 C   0  0  0  0  0  0  0  0  0  0  0  0
   -8.3226  -23.8445   29.8980 C   0  0  1  0  0  0  0  0  0  0  0  0
   -7.6035  -24.1955   31.0497 O   0  0  0  0  0  0  0  0  0  0  0  0
   -7.7254  -22.6507   29.2332 C   0  0  2  0  0  0  0  0  0  0  0  0
   -6.3413  -22.8297   28.8649 N   0  0  0  0  0  0  0  0  0  0  0  0
   -7.8694  -21.4158   30.0807 C   0  0  0  0  0  0  0  0  0  0  0  0
   -8.9921  -20.9662   30.4489 O   0  0  0  0  0  0  0  0  0  0  0  0
   -6.7843  -20.6794   30.5210 O   0  0  0  0  0  0  0  0  0  0  0  0
  2  1  1  1
  3  2  1  0
  4  5  2  0
  4  2  1  0
  7  6  1  6
  7  9  1  0
  8  7  1  0
 10  9  1  6
 10 11  1  0
 10 12  1  0
 11  4  1  0
 12 18  1  0
 13 12  2  0
 15 16  1  0
 15 14  1  6
 17 15  1  0
 17 18  1  1
 19 21  1  0
 19 17  1  0
 20 19  2  0
M  END
$$$$
