ALT.pdb
     RDKit          3D

 21 20  0  0  1  0  0  0  0  0999 V2000
    8.2247  -19.5506   18.8741 C   0  0  0  0  0  0  0  0  0  0  0  0
    8.4917  -18.2384   18.2158 C   0  0  2  0  0  0  0  0  0  0  0  0
    9.3616  -18.5033   17.0733 N   0  0  0  0  0  0  0  0  0  0  0  0
    9.0627  -17.2235   19.1005 C   0  0  0  0  0  0  0  0  0  0  0  0
   10.3116  -17.1864   19.2529 O   0  0  0  0  0  0  0  0  0  0  0  0
    6.8279  -12.1673   19.7803 C   0  0  0  0  0  0  0  0  0  0  0  0
    7.8187  -13.3039   19.6419 C   0  0  1  0  0  0  0  0  0  0  0  0
    9.1719  -12.5820   19.4354 C   0  0  0  0  0  0  0  0  0  0  0  0
    7.9735  -14.1018   20.8876 C   0  0  0  0  0  0  0  0  0  0  0  0
    8.7552  -15.3479   20.7585 C   0  0  2  0  0  0  0  0  0  0  0  0
    8.2141  -16.2798   19.7893 N   0  0  0  0  0  0  0  0  0  0  0  0
    9.1549  -16.0202   22.0127 C   0  0  0  0  0  0  0  0  0  0  0  0
    8.3252  -16.3268   22.8944 O   0  0  0  0  0  0  0  0  0  0  0  0
   10.0377  -19.2388   22.9476 C   0  0  0  0  0  0  0  0  0  0  0  0
   11.2614  -18.4443   23.3293 C   0  0  1  0  0  0  0  0  0  0  0  0
   12.1942  -18.6701   22.3066 O   0  0  0  0  0  0  0  0  0  0  0  0
   10.9834  -16.9884   23.4927 C   0  0  2  0  0  0  0  0  0  0  0  0
   10.5308  -16.3496   22.2801 N   0  0  0  0  0  0  0  0  0  0  0  0
   12.1789  -16.2546   24.0371 C   0  0  0  0  0  0  0  0  0  0  0  0
   12.7546  -15.3224   23.4064 O   0  0  0  0  0  0  0  0  0  0  0  0
   12.7382  -16.5446   25.2686 O   0  0  0  0  0  0  0  0  0  0  0  0
  2  1  1  1
  3  2  1  0
  4  5  2  0
  4  2  1  0
  7  6  1  1
  7  9  1  0
  8  7  1  0
 10  9  1  1
 10 11  1  0
 10 12  1  0
 11  4  1  0
 12 18  1  0
 13 12  2  0
 15 16  1  0
 15 14  1  6
 17 15  1  0
 17 18  1  6
 19 21  1  0
 19 17  1  0
 20 19  2  0
M  END
$$$$
