ALT.pdb
     RDKit          3D

 21 20  0  0  1  0  0  0  0  0999 V2000
    8.1219  -19.7841   19.3371 C   0  0  0  0  0  0  0  0  0  0  0  0
    8.3500  -18.5176   18.5819 C   0  0  2  0  0  0  0  0  0  0  0  0
    9.1157  -18.8646   17.3880 N   0  0  0  0  0  0  0  0  0  0  0  0
    9.0081  -17.4640   19.3535 C   0  0  0  0  0  0  0  0  0  0  0  0
   10.2655  -17.4080   19.3523 O   0  0  0  0  0  0  0  0  0  0  0  0
    6.6101  -12.5228   20.3377 C   0  0  0  0  0  0  0  0  0  0  0  0
    7.5991  -13.6277   20.0315 C   0  0  1  0  0  0  0  0  0  0  0  0
    8.8300  -12.8696   19.4789 C   0  0  0  0  0  0  0  0  0  0  0  0
    8.0768  -14.3404   21.2465 C   0  0  0  0  0  0  0  0  0  0  0  0
    8.8711  -15.5613   21.0036 C   0  0  2  0  0  0  0  0  0  0  0  0
    8.2346  -16.5037   20.1051 N   0  0  0  0  0  0  0  0  0  0  0  0
    9.4523  -16.2282   22.1877 C   0  0  0  0  0  0  0  0  0  0  0  0
    8.7840  -16.9960   22.9113 O   0  0  0  0  0  0  0  0  0  0  0  0
   12.2628  -18.6086   22.0534 C   0  0  0  0  0  0  0  0  0  0  0  0
   11.5188  -18.2490   23.3149 C   0  0  1  0  0  0  0  0  0  0  0  0
   12.1622  -18.9477   24.3468 O   0  0  0  0  0  0  0  0  0  0  0  0
   11.5045  -16.7825   23.5851 C   0  0  2  0  0  0  0  0  0  0  0  0
   10.8249  -16.0168   22.5676 N   0  0  0  0  0  0  0  0  0  0  0  0
   12.8950  -16.2427   23.7825 C   0  0  0  0  0  0  0  0  0  0  0  0
   13.3737  -15.3109   23.0747 O   0  0  0  0  0  0  0  0  0  0  0  0
   13.7544  -16.7252   24.7532 O   0  0  0  0  0  0  0  0  0  0  0  0
  2  1  1  1
  3  2  1  0
  4  5  2  0
  4  2  1  0
  7  6  1  1
  7  9  1  0
  8  7  1  0
 10  9  1  1
 10 11  1  0
 10 12  1  0
 11  4  1  0
 12 18  1  0
 13 12  2  0
 15 16  1  0
 15 14  1  6
 17 15  1  0
 17 18  1  6
 19 21  1  0
 19 17  1  0
 20 19  2  0
M  END
$$$$
