QEK.pdb
     RDKit          3D

 28 27  0  0  1  0  0  0  0  0999 V2000
    9.5203  -12.1929   18.9534 N   0  0  0  0  0  0  0  0  0  0  0  0
    8.5075  -12.6247   19.8235 C   0  0  0  0  0  0  0  0  0  0  0  0
    7.7936  -11.8302   20.4465 O   0  0  0  0  0  0  0  0  0  0  0  0
    8.2938  -14.0931   19.9954 C   0  0  0  0  0  0  0  0  0  0  0  0
    9.3201  -14.8245   19.1820 C   0  0  0  0  0  0  0  0  0  0  0  0
    9.1682  -16.2955   19.3114 C   0  0  2  0  0  0  0  0  0  0  0  0
    7.8286  -16.7095   18.8524 N   0  0  0  0  0  0  0  0  0  0  0  0
    9.3201  -16.7255   20.7447 C   0  0  0  0  0  0  0  0  0  0  0  0
    8.3274  -17.0186   21.4512 O   0  0  0  0  0  0  0  0  0  0  0  0
   10.5818  -16.8168   21.3515 N   0  0  0  0  0  0  0  0  0  0  0  0
   10.8813  -17.3419   22.6277 C   0  0  1  0  0  0  0  0  0  0  0  0
   12.1431  -18.1370   22.7558 C   0  0  0  0  0  0  0  0  0  0  0  0
   12.3354  -18.6904   24.1121 C   0  0  0  0  0  0  0  0  0  0  0  0
   13.6182  -19.4140   24.3336 C   0  0  0  0  0  0  0  0  0  0  0  0
   13.8883  -19.8473   25.4682 O   0  0  0  0  0  0  0  0  0  0  0  0
   10.6405  -16.3561   23.6878 C   0  0  0  0  0  0  0  0  0  0  0  0
   11.3068  -15.2736   23.6573 O   0  0  0  0  0  0  0  0  0  0  0  0
   14.5357  -19.6316   23.3301 O   0  0  0  0  0  0  0  0  0  0  0  0
    9.6984  -16.5967   24.7120 N   0  0  0  0  0  0  0  0  0  0  0  0
    9.5055  -15.6140   25.8389 C   0  0  1  0  0  0  0  0  0  0  0  0
    8.2696  -14.8890   25.6159 C   0  0  0  0  0  0  0  0  0  0  0  0
    7.8162  -13.8793   26.5784 C   0  0  0  0  0  0  0  0  0  0  0  0
    6.5066  -13.2055   26.3650 C   0  0  0  0  0  0  0  0  0  0  0  0
    6.3170  -12.2600   27.5725 C   0  0  0  0  0  0  0  0  0  0  0  0
    5.0944  -11.5426   27.3483 N   0  0  0  0  0  0  0  0  0  0  0  0
    9.8852  -16.2188   27.0908 C   0  0  0  0  0  0  0  0  0  0  0  0
   10.0379  -15.6322   28.2131 O   0  0  0  0  0  0  0  0  0  0  0  0
   10.1439  -17.6166   27.2024 O   0  0  0  0  0  0  0  0  0  0  0  0
  1  2  1  0
  2  4  1  0
  3  2  2  0
  4  5  1  0
  6  8  1  0
  6  7  1  1
  6  5  1  0
  8  9  2  0
 10 11  1  0
 10  8  1  0
 11 16  1  0
 11 12  1  6
 13 12  1  0
 14 13  1  0
 15 14  2  0
 16 17  2  0
 16 19  1  0
 18 14  1  0
 19 20  1  0
 20 26  1  0
 20 21  1  1
 22 21  1  0
 22 23  1  0
 24 23  1  0
 25 24  1  0
 26 27  2  0
 26 28  1  0
M  END
$$$$
