QEK.pdb
     RDKit          3D

 28 27  0  0  1  0  0  0  0  0999 V2000
    7.6123  -17.7181   15.7595 N   0  0  0  0  0  0  0  0  0  0  0  0
    7.7978  -16.5240   15.0462 C   0  0  0  0  0  0  0  0  0  0  0  0
    7.1525  -16.2619   14.0244 O   0  0  0  0  0  0  0  0  0  0  0  0
    8.8099  -15.5454   15.5457 C   0  0  0  0  0  0  0  0  0  0  0  0
    9.4770  -16.1238   16.7581 C   0  0  0  0  0  0  0  0  0  0  0  0
    9.8753  -15.0628   17.7170 C   0  0  2  0  0  0  0  0  0  0  0  0
   10.0340  -13.7761   17.0129 N   0  0  0  0  0  0  0  0  0  0  0  0
   11.1875  -15.3976   18.3714 C   0  0  0  0  0  0  0  0  0  0  0  0
   11.3709  -16.4925   18.9530 O   0  0  0  0  0  0  0  0  0  0  0  0
   12.2630  -14.4967   18.3578 N   0  0  0  0  0  0  0  0  0  0  0  0
   13.5872  -14.7387   18.7846 C   0  0  1  0  0  0  0  0  0  0  0  0
   14.6784  -14.0236   18.0509 C   0  0  0  0  0  0  0  0  0  0  0  0
   16.0264  -14.3874   18.5341 C   0  0  0  0  0  0  0  0  0  0  0  0
   17.1572  -13.9529   17.6676 C   0  0  0  0  0  0  0  0  0  0  0  0
   17.9869  -14.7938   17.2770 O   0  0  0  0  0  0  0  0  0  0  0  0
   13.6933  -14.7300   20.2482 C   0  0  0  0  0  0  0  0  0  0  0  0
   13.6754  -13.6049   20.8403 O   0  0  0  0  0  0  0  0  0  0  0  0
   17.3340  -12.6465   17.2700 O   0  0  0  0  0  0  0  0  0  0  0  0
   13.8108  -15.9312   20.9816 N   0  0  0  0  0  0  0  0  0  0  0  0
   13.9014  -15.9190   22.4865 C   0  0  1  0  0  0  0  0  0  0  0  0
   12.8169  -16.7180   23.0231 C   0  0  0  0  0  0  0  0  0  0  0  0
   12.7345  -16.9883   24.4625 C   0  0  0  0  0  0  0  0  0  0  0  0
   11.6513  -17.8691   24.9776 C   0  0  0  0  0  0  0  0  0  0  0  0
   11.8496  -17.9300   26.5089 C   0  0  0  0  0  0  0  0  0  0  0  0
   10.7756  -18.7241   27.0340 N   0  0  0  0  0  0  0  0  0  0  0  0
   15.2785  -16.0259   22.8983 C   0  0  0  0  0  0  0  0  0  0  0  0
   15.7695  -15.7045   24.0308 O   0  0  0  0  0  0  0  0  0  0  0  0
   16.2868  -16.5310   22.0258 O   0  0  0  0  0  0  0  0  0  0  0  0
  1  2  1  0
  2  4  1  0
  3  2  2  0
  4  5  1  0
  6  8  1  0
  6  7  1  6
  6  5  1  0
  8  9  2  0
 10 11  1  0
 10  8  1  0
 11 16  1  0
 11 12  1  6
 13 12  1  0
 14 13  1  0
 15 14  2  0
 16 17  2  0
 16 19  1  0
 18 14  1  0
 19 20  1  0
 20 26  1  0
 20 21  1  1
 22 21  1  0
 22 23  1  0
 24 23  1  0
 25 24  1  0
 26 27  2  0
 26 28  1  0
M  END
$$$$
