QEK.pdb
     RDKit          3D

 28 27  0  0  1  0  0  0  0  0999 V2000
    8.4287  -12.1644   17.4314 N   0  0  0  0  0  0  0  0  0  0  0  0
    7.9318  -13.4119   17.0243 C   0  0  0  0  0  0  0  0  0  0  0  0
    8.3210  -13.9691   15.9913 O   0  0  0  0  0  0  0  0  0  0  0  0
    6.8995  -14.0793   17.8732 C   0  0  0  0  0  0  0  0  0  0  0  0
    7.3310  -13.9937   19.3072 C   0  0  0  0  0  0  0  0  0  0  0  0
    8.7266  -14.4680   19.4837 C   0  0  2  0  0  0  0  0  0  0  0  0
    9.1690  -15.2013   18.2824 N   0  0  0  0  0  0  0  0  0  0  0  0
    8.8307  -15.3998   20.6597 C   0  0  0  0  0  0  0  0  0  0  0  0
    8.3145  -15.1203   21.7669 O   0  0  0  0  0  0  0  0  0  0  0  0
    9.5111  -16.6233   20.5660 N   0  0  0  0  0  0  0  0  0  0  0  0
    9.8194  -17.5135   21.6180 C   0  0  1  0  0  0  0  0  0  0  0  0
   10.2800  -18.8850   21.2340 C   0  0  0  0  0  0  0  0  0  0  0  0
   10.5570  -19.7439   22.4038 C   0  0  0  0  0  0  0  0  0  0  0  0
   10.9471  -21.1468   22.0913 C   0  0  0  0  0  0  0  0  0  0  0  0
   11.0474  -21.5040   20.9037 O   0  0  0  0  0  0  0  0  0  0  0  0
   10.5969  -16.8539   22.6735 C   0  0  0  0  0  0  0  0  0  0  0  0
   11.6848  -16.2840   22.3445 O   0  0  0  0  0  0  0  0  0  0  0  0
   11.2069  -22.0843   23.0658 O   0  0  0  0  0  0  0  0  0  0  0  0
   10.1546  -16.8484   24.0148 N   0  0  0  0  0  0  0  0  0  0  0  0
   11.0161  -16.2851   25.1163 C   0  0  1  0  0  0  0  0  0  0  0  0
   10.1546  -15.8029   26.1784 C   0  0  0  0  0  0  0  0  0  0  0  0
   10.7288  -15.3063   27.4335 C   0  0  0  0  0  0  0  0  0  0  0  0
    9.8203  -14.8523   28.5212 C   0  0  0  0  0  0  0  0  0  0  0  0
   10.7384  -14.4497   29.6971 C   0  0  0  0  0  0  0  0  0  0  0  0
    9.8820  -13.9799   30.7486 N   0  0  0  0  0  0  0  0  0  0  0  0
   12.1713  -17.1234   25.3163 C   0  0  0  0  0  0  0  0  0  0  0  0
   12.1922  -18.3957   25.4032 O   0  0  0  0  0  0  0  0  0  0  0  0
   13.4824  -16.5780   25.4453 O   0  0  0  0  0  0  0  0  0  0  0  0
  1  2  1  0
  2  4  1  0
  3  2  2  0
  4  5  1  0
  6  8  1  0
  6  7  1  6
  6  5  1  0
  8  9  2  0
 10 11  1  0
 10  8  1  0
 11 16  1  0
 11 12  1  6
 13 12  1  0
 14 13  1  0
 15 14  2  0
 16 17  2  0
 16 19  1  0
 18 14  1  0
 19 20  1  0
 20 26  1  0
 20 21  1  1
 22 21  1  0
 22 23  1  0
 24 23  1  0
 25 24  1  0
 26 27  2  0
 26 28  1  0
M  END
$$$$
