QEK.pdb
     RDKit          3D

 28 27  0  0  1  0  0  0  0  0999 V2000
    6.9116  -12.6112   19.9548 N   0  0  0  0  0  0  0  0  0  0  0  0
    8.2374  -13.0682   20.0031 C   0  0  0  0  0  0  0  0  0  0  0  0
    8.8384  -13.2295   21.0718 O   0  0  0  0  0  0  0  0  0  0  0  0
    8.9359  -13.3660   18.7167 C   0  0  0  0  0  0  0  0  0  0  0  0
    8.0463  -14.2363   17.8795 C   0  0  0  0  0  0  0  0  0  0  0  0
    8.5578  -15.6282   17.8098 C   0  0  2  0  0  0  0  0  0  0  0  0
    7.7069  -16.4373   16.9166 N   0  0  0  0  0  0  0  0  0  0  0  0
    8.5459  -16.2717   19.1692 C   0  0  0  0  0  0  0  0  0  0  0  0
    7.4763  -16.6208   19.7212 O   0  0  0  0  0  0  0  0  0  0  0  0
    9.7338  -16.5089   19.8771 N   0  0  0  0  0  0  0  0  0  0  0  0
    9.8687  -17.1297   21.1383 C   0  0  1  0  0  0  0  0  0  0  0  0
   10.8975  -18.2106   21.2564 C   0  0  0  0  0  0  0  0  0  0  0  0
   10.9114  -18.8438   22.5912 C   0  0  0  0  0  0  0  0  0  0  0  0
   11.9954  -19.8397   22.8174 C   0  0  0  0  0  0  0  0  0  0  0  0
   12.8582  -19.6185   23.6862 O   0  0  0  0  0  0  0  0  0  0  0  0
    9.8499  -16.1479   22.2287 C   0  0  0  0  0  0  0  0  0  0  0  0
   10.8232  -15.3344   22.3149 O   0  0  0  0  0  0  0  0  0  0  0  0
   12.0932  -21.0124   22.1022 O   0  0  0  0  0  0  0  0  0  0  0  0
    8.7856  -16.1027   23.1560 N   0  0  0  0  0  0  0  0  0  0  0  0
    8.8248  -15.1724   24.3416 C   0  0  1  0  0  0  0  0  0  0  0  0
    7.5501  -14.4879   24.4366 C   0  0  0  0  0  0  0  0  0  0  0  0
    7.3061  -13.5165   25.5084 C   0  0  0  0  0  0  0  0  0  0  0  0
    5.9892  -12.8273   25.5812 C   0  0  0  0  0  0  0  0  0  0  0  0
    6.0994  -11.8301   26.7565 C   0  0  0  0  0  0  0  0  0  0  0  0
    4.8457  -11.1355   26.8288 N   0  0  0  0  0  0  0  0  0  0  0  0
    9.4961  -15.8098   25.4463 C   0  0  0  0  0  0  0  0  0  0  0  0
   10.2133  -15.2470   26.3384 O   0  0  0  0  0  0  0  0  0  0  0  0
    9.4196  -17.2173   25.6614 O   0  0  0  0  0  0  0  0  0  0  0  0
  1  2  1  0
  2  4  1  0
  3  2  2  0
  4  5  1  0
  6  8  1  0
  6  7  1  6
  6  5  1  0
  8  9  2  0
 10 11  1  0
 10  8  1  0
 11 16  1  0
 11 12  1  6
 13 12  1  0
 14 13  1  0
 15 14  2  0
 16 17  2  0
 16 19  1  0
 18 14  1  0
 19 20  1  0
 20 26  1  0
 20 21  1  1
 22 21  1  0
 22 23  1  0
 24 23  1  0
 25 24  1  0
 26 27  2  0
 26 28  1  0
M  END
$$$$
