QEK.pdb
     RDKit          3D

 28 27  0  0  1  0  0  0  0  0999 V2000
    7.5509  -12.5169   18.3563 N   0  0  0  0  0  0  0  0  0  0  0  0
    8.0229  -13.1945   19.4908 C   0  0  0  0  0  0  0  0  0  0  0  0
    9.2122  -13.1620   19.8282 O   0  0  0  0  0  0  0  0  0  0  0  0
    7.0494  -13.9775   20.3098 C   0  0  0  0  0  0  0  0  0  0  0  0
    7.7952  -15.0557   21.0384 C   0  0  0  0  0  0  0  0  0  0  0  0
    8.1415  -16.1819   20.1354 C   0  0  2  0  0  0  0  0  0  0  0  0
    6.9132  -16.8402   19.6512 N   0  0  0  0  0  0  0  0  0  0  0  0
    8.9659  -17.2125   20.8567 C   0  0  0  0  0  0  0  0  0  0  0  0
    8.4369  -18.1955   21.4263 O   0  0  0  0  0  0  0  0  0  0  0  0
   10.3642  -17.1165   20.9219 N   0  0  0  0  0  0  0  0  0  0  0  0
   11.2640  -18.0727   21.4416 C   0  0  1  0  0  0  0  0  0  0  0  0
   12.5875  -18.2035   20.7545 C   0  0  0  0  0  0  0  0  0  0  0  0
   12.4579  -18.4021   19.2963 C   0  0  0  0  0  0  0  0  0  0  0  0
   13.7388  -18.5722   18.5558 C   0  0  0  0  0  0  0  0  0  0  0  0
   14.8047  -18.6668   19.1907 O   0  0  0  0  0  0  0  0  0  0  0  0
   11.3102  -18.0303   22.9077 C   0  0  0  0  0  0  0  0  0  0  0  0
   11.2385  -16.8939   23.4736 O   0  0  0  0  0  0  0  0  0  0  0  0
   13.8048  -18.6312   17.1817 O   0  0  0  0  0  0  0  0  0  0  0  0
   11.4294  -19.2122   23.6716 N   0  0  0  0  0  0  0  0  0  0  0  0
   11.5010  -19.1625   25.1767 C   0  0  1  0  0  0  0  0  0  0  0  0
   11.1007  -20.4530   25.7031 C   0  0  0  0  0  0  0  0  0  0  0  0
   11.1372  -20.7107   27.1467 C   0  0  0  0  0  0  0  0  0  0  0  0
   10.7758  -22.0618   27.6550 C   0  0  0  0  0  0  0  0  0  0  0  0
   11.0232  -22.0189   29.1798 C   0  0  0  0  0  0  0  0  0  0  0  0
   10.8124  -23.3508   29.6708 N   0  0  0  0  0  0  0  0  0  0  0  0
   12.6764  -18.4384   25.5907 C   0  0  0  0  0  0  0  0  0  0  0  0
   13.8131  -18.4226   25.0123 O   0  0  0  0  0  0  0  0  0  0  0  0
   12.6830  -17.6209   26.7589 O   0  0  0  0  0  0  0  0  0  0  0  0
  1  2  1  0
  2  4  1  0
  3  2  2  0
  4  5  1  0
  6  8  1  0
  6  7  1  1
  6  5  1  0
  8  9  2  0
 10 11  1  0
 10  8  1  0
 11 16  1  0
 11 12  1  6
 13 12  1  0
 14 13  1  0
 15 14  2  0
 16 17  2  0
 16 19  1  0
 18 14  1  0
 19 20  1  0
 20 26  1  0
 20 21  1  1
 22 21  1  0
 22 23  1  0
 24 23  1  0
 25 24  1  0
 26 27  2  0
 26 28  1  0
M  END
$$$$
