QEK.pdb
     RDKit          3D

 28 27  0  0  1  0  0  0  0  0999 V2000
   15.7344  -16.1926   15.6908 N   0  0  0  0  0  0  0  0  0  0  0  0
   16.4111  -15.2616   16.4936 C   0  0  0  0  0  0  0  0  0  0  0  0
   17.4575  -14.7147   16.1261 O   0  0  0  0  0  0  0  0  0  0  0  0
   15.8406  -14.9282   17.8334 C   0  0  0  0  0  0  0  0  0  0  0  0
   14.6437  -15.7994   18.0742 C   0  0  0  0  0  0  0  0  0  0  0  0
   13.3859  -15.0112   18.0569 C   0  0  2  0  0  0  0  0  0  0  0  0
   13.6814  -13.5796   18.2563 N   0  0  0  0  0  0  0  0  0  0  0  0
   12.4628  -15.4516   19.1597 C   0  0  0  0  0  0  0  0  0  0  0  0
   12.6435  -15.0974   20.3481 O   0  0  0  0  0  0  0  0  0  0  0  0
   11.3587  -16.2787   18.9034 N   0  0  0  0  0  0  0  0  0  0  0  0
   10.3999  -16.7380   19.8328 C   0  0  1  0  0  0  0  0  0  0  0  0
    9.0710  -17.1572   19.2863 C   0  0  0  0  0  0  0  0  0  0  0  0
    8.5875  -16.2663   18.2115 C   0  0  0  0  0  0  0  0  0  0  0  0
    8.1928  -16.9443   16.9455 C   0  0  0  0  0  0  0  0  0  0  0  0
    8.1483  -18.1870   16.9050 O   0  0  0  0  0  0  0  0  0  0  0  0
   10.9961  -17.6449   20.8206 C   0  0  0  0  0  0  0  0  0  0  0  0
   11.8961  -18.4503   20.4231 O   0  0  0  0  0  0  0  0  0  0  0  0
    7.8692  -16.2544   15.7986 O   0  0  0  0  0  0  0  0  0  0  0  0
   10.5873  -17.6273   22.1723 N   0  0  0  0  0  0  0  0  0  0  0  0
   11.3100  -18.4418   23.2150 C   0  0  1  0  0  0  0  0  0  0  0  0
   12.7378  -18.2655   23.0338 C   0  0  0  0  0  0  0  0  0  0  0  0
   13.6871  -18.8830   23.9661 C   0  0  0  0  0  0  0  0  0  0  0  0
   15.1478  -18.7166   23.7355 C   0  0  0  0  0  0  0  0  0  0  0  0
   15.8460  -19.5194   24.8562 C   0  0  0  0  0  0  0  0  0  0  0  0
   17.2575  -19.4268   24.6137 N   0  0  0  0  0  0  0  0  0  0  0  0
   10.6267  -18.3412   24.4799 C   0  0  0  0  0  0  0  0  0  0  0  0
   10.8531  -19.0250   25.5326 O   0  0  0  0  0  0  0  0  0  0  0  0
    9.5659  -17.4117   24.6894 O   0  0  0  0  0  0  0  0  0  0  0  0
  1  2  1  0
  2  4  1  0
  3  2  2  0
  4  5  1  0
  6  8  1  0
  6  7  1  1
  6  5  1  0
  8  9  2  0
 10 11  1  0
 10  8  1  0
 11 16  1  0
 11 12  1  6
 13 12  1  0
 14 13  1  0
 15 14  2  0
 16 17  2  0
 16 19  1  0
 18 14  1  0
 19 20  1  0
 20 26  1  0
 20 21  1  1
 22 21  1  0
 22 23  1  0
 24 23  1  0
 25 24  1  0
 26 27  2  0
 26 28  1  0
M  END
$$$$
