QEK.pdb
     RDKit          3D

 28 27  0  0  1  0  0  0  0  0999 V2000
    8.9226  -15.7872   13.9482 N   0  0  0  0  0  0  0  0  0  0  0  0
    8.0351  -14.7757   14.3458 C   0  0  0  0  0  0  0  0  0  0  0  0
    7.1700  -14.3245   13.5861 O   0  0  0  0  0  0  0  0  0  0  0  0
    8.1479  -14.2334   15.7332 C   0  0  0  0  0  0  0  0  0  0  0  0
    9.2893  -14.9190   16.4236 C   0  0  0  0  0  0  0  0  0  0  0  0
    9.3738  -14.5271   17.8530 C   0  0  2  0  0  0  0  0  0  0  0  0
    9.4613  -13.0592   17.9723 N   0  0  0  0  0  0  0  0  0  0  0  0
   10.5969  -15.1180   18.4988 C   0  0  0  0  0  0  0  0  0  0  0  0
   10.6770  -16.3417   18.7569 O   0  0  0  0  0  0  0  0  0  0  0  0
   11.7013  -14.3225   18.8394 N   0  0  0  0  0  0  0  0  0  0  0  0
   12.9176  -14.7493   19.4162 C   0  0  1  0  0  0  0  0  0  0  0  0
   14.1683  -14.0830   18.9340 C   0  0  0  0  0  0  0  0  0  0  0  0
   14.5564  -14.5104   17.5741 C   0  0  0  0  0  0  0  0  0  0  0  0
   15.8910  -14.0394   17.1102 C   0  0  0  0  0  0  0  0  0  0  0  0
   16.8262  -14.8537   17.0092 O   0  0  0  0  0  0  0  0  0  0  0  0
   12.8005  -14.9055   20.8706 C   0  0  0  0  0  0  0  0  0  0  0  0
   11.8563  -14.2925   21.4616 O   0  0  0  0  0  0  0  0  0  0  0  0
   16.1468  -12.7268   16.7817 O   0  0  0  0  0  0  0  0  0  0  0  0
   13.7051  -15.7114   21.5963 N   0  0  0  0  0  0  0  0  0  0  0  0
   13.2979  -16.3667   22.8915 C   0  0  1  0  0  0  0  0  0  0  0  0
   11.9614  -16.9079   22.7375 C   0  0  0  0  0  0  0  0  0  0  0  0
   11.3558  -17.7083   23.8072 C   0  0  0  0  0  0  0  0  0  0  0  0
    9.9773  -18.2396   23.6284 C   0  0  0  0  0  0  0  0  0  0  0  0
    9.7174  -19.1561   24.8451 C   0  0  0  0  0  0  0  0  0  0  0  0
    8.3690  -19.6323   24.7239 N   0  0  0  0  0  0  0  0  0  0  0  0
   14.4134  -17.0874   23.4515 C   0  0  0  0  0  0  0  0  0  0  0  0
   14.5863  -17.4075   24.6740 O   0  0  0  0  0  0  0  0  0  0  0  0
   15.4983  -17.5387   22.6438 O   0  0  0  0  0  0  0  0  0  0  0  0
  1  2  1  0
  2  4  1  0
  3  2  2  0
  4  5  1  0
  6  8  1  0
  6  7  1  6
  6  5  1  0
  8  9  2  0
 10 11  1  0
 10  8  1  0
 11 16  1  0
 11 12  1  1
 13 12  1  0
 14 13  1  0
 15 14  2  0
 16 17  2  0
 16 19  1  0
 18 14  1  0
 19 20  1  0
 20 26  1  0
 20 21  1  6
 22 21  1  0
 22 23  1  0
 24 23  1  0
 25 24  1  0
 26 27  2  0
 26 28  1  0
M  END
$$$$
