QEK.pdb
     RDKit          3D

 28 27  0  0  1  0  0  0  0  0999 V2000
    7.2195  -12.7452   17.2220 N   0  0  0  0  0  0  0  0  0  0  0  0
    7.9308  -13.9301   16.9792 C   0  0  0  0  0  0  0  0  0  0  0  0
    7.6489  -14.6854   16.0414 O   0  0  0  0  0  0  0  0  0  0  0  0
    9.0627  -14.2811   17.8887 C   0  0  0  0  0  0  0  0  0  0  0  0
    9.1443  -13.2469   18.9720 C   0  0  0  0  0  0  0  0  0  0  0  0
   10.2250  -13.5592   19.9407 C   0  0  2  0  0  0  0  0  0  0  0  0
   11.4026  -14.0951   19.2317 N   0  0  0  0  0  0  0  0  0  0  0  0
    9.7716  -14.5940   20.9336 C   0  0  0  0  0  0  0  0  0  0  0  0
    8.6818  -14.4865   21.5428 O   0  0  0  0  0  0  0  0  0  0  0  0
   10.5511  -15.7251   21.2193 N   0  0  0  0  0  0  0  0  0  0  0  0
   10.2377  -16.7781   22.1065 C   0  0  1  0  0  0  0  0  0  0  0  0
   10.9262  -18.0872   21.8767 C   0  0  0  0  0  0  0  0  0  0  0  0
   11.7987  -18.0732   20.6845 C   0  0  0  0  0  0  0  0  0  0  0  0
   12.5190  -19.3458   20.4020 C   0  0  0  0  0  0  0  0  0  0  0  0
   13.2178  -19.4388   19.3767 O   0  0  0  0  0  0  0  0  0  0  0  0
   10.1964  -16.3172   23.4991 C   0  0  0  0  0  0  0  0  0  0  0  0
   11.2388  -15.7667   23.9756 O   0  0  0  0  0  0  0  0  0  0  0  0
   12.4501  -20.4428   21.2313 O   0  0  0  0  0  0  0  0  0  0  0  0
    9.0372  -16.4767   24.2898 N   0  0  0  0  0  0  0  0  0  0  0  0
    8.9792  -15.9508   25.7016 C   0  0  1  0  0  0  0  0  0  0  0  0
    7.6833  -15.3362   25.9148 C   0  0  0  0  0  0  0  0  0  0  0  0
    7.5528  -13.8761   25.9674 C   0  0  0  0  0  0  0  0  0  0  0  0
    6.2110  -13.2720   26.1890 C   0  0  0  0  0  0  0  0  0  0  0  0
    6.4189  -11.7427   26.1121 C   0  0  0  0  0  0  0  0  0  0  0  0
    5.1202  -11.1424   26.2241 N   0  0  0  0  0  0  0  0  0  0  0  0
    9.5984  -16.8895   26.6031 C   0  0  0  0  0  0  0  0  0  0  0  0
    9.8840  -16.7014   27.8319 O   0  0  0  0  0  0  0  0  0  0  0  0
    9.9758  -18.1986   26.1826 O   0  0  0  0  0  0  0  0  0  0  0  0
  1  2  1  0
  2  4  1  0
  3  2  2  0
  4  5  1  0
  6  8  1  0
  6  7  1  6
  6  5  1  0
  8  9  2  0
 10 11  1  0
 10  8  1  0
 11 16  1  0
 11 12  1  1
 13 12  1  0
 14 13  1  0
 15 14  2  0
 16 17  2  0
 16 19  1  0
 18 14  1  0
 19 20  1  0
 20 26  1  0
 20 21  1  1
 22 21  1  0
 22 23  1  0
 24 23  1  0
 25 24  1  0
 26 27  2  0
 26 28  1  0
M  END
$$$$
