QEK.pdb
     RDKit          3D

 28 27  0  0  1  0  0  0  0  0999 V2000
    8.8011  -14.7106   16.3718 N   0  0  0  0  0  0  0  0  0  0  0  0
    7.6639  -13.8885   16.3685 C   0  0  0  0  0  0  0  0  0  0  0  0
    7.2500  -13.3435   15.3386 O   0  0  0  0  0  0  0  0  0  0  0  0
    6.9379  -13.6711   17.6559 C   0  0  0  0  0  0  0  0  0  0  0  0
    7.5138  -14.5909   18.6912 C   0  0  0  0  0  0  0  0  0  0  0  0
    8.4654  -13.8793   19.5810 C   0  0  2  0  0  0  0  0  0  0  0  0
    9.0546  -12.7257   18.8748 N   0  0  0  0  0  0  0  0  0  0  0  0
    9.5880  -14.7881   20.0006 C   0  0  0  0  0  0  0  0  0  0  0  0
    9.3708  -15.8643   20.6049 O   0  0  0  0  0  0  0  0  0  0  0  0
   10.9276  -14.4685   19.7322 N   0  0  0  0  0  0  0  0  0  0  0  0
   12.0669  -15.2550   20.0104 C   0  0  1  0  0  0  0  0  0  0  0  0
   13.1914  -15.1941   19.0242 C   0  0  0  0  0  0  0  0  0  0  0  0
   12.7734  -14.6581   17.7124 C   0  0  0  0  0  0  0  0  0  0  0  0
   13.8605  -14.5065   16.7057 C   0  0  0  0  0  0  0  0  0  0  0  0
   14.7301  -13.6321   16.8710 O   0  0  0  0  0  0  0  0  0  0  0  0
   12.4544  -15.1643   21.4229 C   0  0  0  0  0  0  0  0  0  0  0  0
   11.7191  -14.4765   22.1994 O   0  0  0  0  0  0  0  0  0  0  0  0
   13.9538  -15.2979   15.5827 O   0  0  0  0  0  0  0  0  0  0  0  0
   13.6067  -15.8193   21.9103 N   0  0  0  0  0  0  0  0  0  0  0  0
   13.7632  -16.1314   23.3769 C   0  0  1  0  0  0  0  0  0  0  0  0
   12.5057  -16.6519   23.8772 C   0  0  0  0  0  0  0  0  0  0  0  0
   12.3740  -17.0543   25.2817 C   0  0  0  0  0  0  0  0  0  0  0  0
   11.1042  -17.6765   25.7454 C   0  0  0  0  0  0  0  0  0  0  0  0
   11.3439  -18.0766   27.2186 C   0  0  0  0  0  0  0  0  0  0  0  0
   10.0929  -18.5667   27.7231 N   0  0  0  0  0  0  0  0  0  0  0  0
   15.0514  -16.7307   23.6186 C   0  0  0  0  0  0  0  0  0  0  0  0
   15.5505  -17.7451   23.0280 O   0  0  0  0  0  0  0  0  0  0  0  0
   15.9467  -16.2171   24.6023 O   0  0  0  0  0  0  0  0  0  0  0  0
  1  2  1  0
  2  4  1  0
  3  2  2  0
  4  5  1  0
  6  8  1  0
  6  7  1  6
  6  5  1  0
  8  9  2  0
 10 11  1  0
 10  8  1  0
 11 16  1  0
 11 12  1  6
 13 12  1  0
 14 13  1  0
 15 14  2  0
 16 17  2  0
 16 19  1  0
 18 14  1  0
 19 20  1  0
 20 26  1  0
 20 21  1  6
 22 21  1  0
 22 23  1  0
 24 23  1  0
 25 24  1  0
 26 27  2  0
 26 28  1  0
M  END
$$$$
