QEK.pdb
     RDKit          3D

 28 27  0  0  1  0  0  0  0  0999 V2000
    9.9026  -15.9733   15.4539 N   0  0  0  0  0  0  0  0  0  0  0  0
    8.5668  -15.6378   15.1856 C   0  0  0  0  0  0  0  0  0  0  0  0
    7.9808  -16.0336   14.1711 O   0  0  0  0  0  0  0  0  0  0  0  0
    7.8387  -14.7742   16.1632 C   0  0  0  0  0  0  0  0  0  0  0  0
    8.7339  -14.5243   17.3404 C   0  0  0  0  0  0  0  0  0  0  0  0
    8.0540  -13.7061   18.3758 C   0  0  2  0  0  0  0  0  0  0  0  0
    8.3063  -12.2724   18.1360 N   0  0  0  0  0  0  0  0  0  0  0  0
    8.5684  -14.0438   19.7482 C   0  0  0  0  0  0  0  0  0  0  0  0
    9.7060  -13.6828   20.1303 O   0  0  0  0  0  0  0  0  0  0  0  0
    7.7947  -14.7782   20.6596 N   0  0  0  0  0  0  0  0  0  0  0  0
    8.2025  -15.2885   21.9116 C   0  0  1  0  0  0  0  0  0  0  0  0
    7.1321  -15.8373   22.8024 C   0  0  0  0  0  0  0  0  0  0  0  0
    7.6641  -16.3769   24.0706 C   0  0  0  0  0  0  0  0  0  0  0  0
    6.6645  -17.0349   24.9572 C   0  0  0  0  0  0  0  0  0  0  0  0
    6.5426  -16.6494   26.1339 O   0  0  0  0  0  0  0  0  0  0  0  0
    9.4132  -16.1091   21.7922 C   0  0  0  0  0  0  0  0  0  0  0  0
    9.5886  -16.7589   20.7134 O   0  0  0  0  0  0  0  0  0  0  0  0
    5.8548  -18.0652   24.5340 O   0  0  0  0  0  0  0  0  0  0  0  0
   10.3580  -16.1781   22.8396 N   0  0  0  0  0  0  0  0  0  0  0  0
   11.8209  -16.4059   22.5548 C   0  0  1  0  0  0  0  0  0  0  0  0
   12.1958  -15.6197   21.3956 C   0  0  0  0  0  0  0  0  0  0  0  0
   13.5790  -15.6282   20.9075 C   0  0  0  0  0  0  0  0  0  0  0  0
   13.9318  -14.8282   19.7033 C   0  0  0  0  0  0  0  0  0  0  0  0
   15.4020  -15.1777   19.3804 C   0  0  0  0  0  0  0  0  0  0  0  0
   15.7839  -14.3657   18.2604 N   0  0  0  0  0  0  0  0  0  0  0  0
   12.5627  -16.4486   23.7898 C   0  0  0  0  0  0  0  0  0  0  0  0
   13.6218  -17.1182   24.0277 O   0  0  0  0  0  0  0  0  0  0  0  0
   12.1590  -15.7016   24.9352 O   0  0  0  0  0  0  0  0  0  0  0  0
  1  2  1  0
  2  4  1  0
  3  2  2  0
  4  5  1  0
  6  8  1  0
  6  7  1  6
  6  5  1  0
  8  9  2  0
 10 11  1  0
 10  8  1  0
 11 16  1  0
 11 12  1  6
 13 12  1  0
 14 13  1  0
 15 14  2  0
 16 17  2  0
 16 19  1  0
 18 14  1  0
 19 20  1  0
 20 26  1  0
 20 21  1  6
 22 21  1  0
 22 23  1  0
 24 23  1  0
 25 24  1  0
 26 27  2  0
 26 28  1  0
M  END
$$$$
