QEK.pdb
     RDKit          3D

 28 27  0  0  1  0  0  0  0  0999 V2000
    8.7495  -11.9793   18.5330 N   0  0  0  0  0  0  0  0  0  0  0  0
    8.7943  -12.7671   19.6934 C   0  0  0  0  0  0  0  0  0  0  0  0
    9.8428  -12.9512   20.3227 O   0  0  0  0  0  0  0  0  0  0  0  0
    7.5293  -13.3993   20.1748 C   0  0  0  0  0  0  0  0  0  0  0  0
    7.8604  -14.3378   21.2970 C   0  0  0  0  0  0  0  0  0  0  0  0
    8.5418  -15.5596   20.8001 C   0  0  2  0  0  0  0  0  0  0  0  0
    7.6630  -16.2851   19.8631 N   0  0  0  0  0  0  0  0  0  0  0  0
    8.8736  -16.4873   21.9365 C   0  0  0  0  0  0  0  0  0  0  0  0
    8.6574  -17.7195   21.8630 O   0  0  0  0  0  0  0  0  0  0  0  0
    9.4405  -16.0110   23.1283 N   0  0  0  0  0  0  0  0  0  0  0  0
    9.9878  -16.7767   24.1811 C   0  0  1  0  0  0  0  0  0  0  0  0
   10.9152  -17.8886   23.8011 C   0  0  0  0  0  0  0  0  0  0  0  0
   11.4364  -18.6241   24.9715 C   0  0  0  0  0  0  0  0  0  0  0  0
   12.5442  -19.5784   24.6881 C   0  0  0  0  0  0  0  0  0  0  0  0
   13.7143  -19.2569   24.9633 O   0  0  0  0  0  0  0  0  0  0  0  0
   10.4346  -15.9274   25.2913 C   0  0  0  0  0  0  0  0  0  0  0  0
   11.5299  -15.2961   25.1552 O   0  0  0  0  0  0  0  0  0  0  0  0
   12.3361  -20.8189   24.1277 O   0  0  0  0  0  0  0  0  0  0  0  0
    9.6751  -15.8105   26.4762 N   0  0  0  0  0  0  0  0  0  0  0  0
   10.0510  -14.8184   27.5473 C   0  0  1  0  0  0  0  0  0  0  0  0
    8.8557  -14.1121   27.9655 C   0  0  0  0  0  0  0  0  0  0  0  0
    7.9358  -13.5529   26.9691 C   0  0  0  0  0  0  0  0  0  0  0  0
    6.7348  -12.8025   27.4263 C   0  0  0  0  0  0  0  0  0  0  0  0
    6.0660  -12.2557   26.1450 C   0  0  0  0  0  0  0  0  0  0  0  0
    4.8842  -11.5560   26.5614 N   0  0  0  0  0  0  0  0  0  0  0  0
   11.0124  -15.4046   28.4468 C   0  0  0  0  0  0  0  0  0  0  0  0
   11.7233  -14.7975   29.3146 O   0  0  0  0  0  0  0  0  0  0  0  0
   11.2790  -16.8053   28.4533 O   0  0  0  0  0  0  0  0  0  0  0  0
  1  2  1  0
  2  4  1  0
  3  2  2  0
  4  5  1  0
  6  8  1  0
  6  7  1  6
  6  5  1  0
  8  9  2  0
 10 11  1  0
 10  8  1  0
 11 16  1  0
 11 12  1  6
 13 12  1  0
 14 13  1  0
 15 14  2  0
 16 17  2  0
 16 19  1  0
 18 14  1  0
 19 20  1  0
 20 26  1  0
 20 21  1  1
 22 21  1  0
 22 23  1  0
 24 23  1  0
 25 24  1  0
 26 27  2  0
 26 28  1  0
M  END
$$$$
