QEK.pdb
     RDKit          3D

 28 27  0  0  1  0  0  0  0  0999 V2000
    9.5591  -13.0845   19.9459 N   0  0  0  0  0  0  0  0  0  0  0  0
    8.3124  -12.9184   19.3236 C   0  0  0  0  0  0  0  0  0  0  0  0
    8.1709  -12.2229   18.3109 O   0  0  0  0  0  0  0  0  0  0  0  0
    7.1248  -13.6078   19.9118 C   0  0  0  0  0  0  0  0  0  0  0  0
    7.5616  -14.3491   21.1403 C   0  0  0  0  0  0  0  0  0  0  0  0
    7.7697  -15.7918   20.8588 C   0  0  2  0  0  0  0  0  0  0  0  0
    6.5196  -16.3971   20.3612 N   0  0  0  0  0  0  0  0  0  0  0  0
    8.1761  -16.5275   22.1061 C   0  0  0  0  0  0  0  0  0  0  0  0
    7.3900  -17.3057   22.6951 O   0  0  0  0  0  0  0  0  0  0  0  0
    9.4546  -16.3731   22.6631 N   0  0  0  0  0  0  0  0  0  0  0  0
   10.0057  -17.0858   23.7505 C   0  0  1  0  0  0  0  0  0  0  0  0
   11.2344  -17.8963   23.4784 C   0  0  0  0  0  0  0  0  0  0  0  0
   11.8908  -17.5308   22.2063 C   0  0  0  0  0  0  0  0  0  0  0  0
   13.3578  -17.2871   22.2884 C   0  0  0  0  0  0  0  0  0  0  0  0
   14.0940  -18.1509   22.7983 O   0  0  0  0  0  0  0  0  0  0  0  0
   10.0393  -16.2700   24.9699 C   0  0  0  0  0  0  0  0  0  0  0  0
   11.1293  -15.6862   25.2663 O   0  0  0  0  0  0  0  0  0  0  0  0
   13.9507  -16.1356   21.8209 O   0  0  0  0  0  0  0  0  0  0  0  0
    8.8990  -16.1332   25.7918 N   0  0  0  0  0  0  0  0  0  0  0  0
    8.6094  -17.1220   26.8924 C   0  0  1  0  0  0  0  0  0  0  0  0
    7.7818  -18.1847   26.3554 C   0  0  0  0  0  0  0  0  0  0  0  0
    7.5768  -19.4229   27.1147 C   0  0  0  0  0  0  0  0  0  0  0  0
    6.8043  -20.5358   26.4990 C   0  0  0  0  0  0  0  0  0  0  0  0
    6.8322  -21.6885   27.5278 C   0  0  0  0  0  0  0  0  0  0  0  0
    6.1970  -22.8146   26.9049 N   0  0  0  0  0  0  0  0  0  0  0  0
    9.7903  -17.3289   27.6924 C   0  0  0  0  0  0  0  0  0  0  0  0
   10.0138  -16.8776   28.8643 O   0  0  0  0  0  0  0  0  0  0  0  0
   10.8904  -18.1045   27.2222 O   0  0  0  0  0  0  0  0  0  0  0  0
  1  2  1  0
  2  4  1  0
  3  2  2  0
  4  5  1  0
  6  8  1  0
  6  7  1  1
  6  5  1  0
  8  9  2  0
 10 11  1  0
 10  8  1  0
 11 16  1  0
 11 12  1  6
 13 12  1  0
 14 13  1  0
 15 14  2  0
 16 17  2  0
 16 19  1  0
 18 14  1  0
 19 20  1  0
 20 26  1  0
 20 21  1  6
 22 21  1  0
 22 23  1  0
 24 23  1  0
 25 24  1  0
 26 27  2  0
 26 28  1  0
M  END
$$$$
