IIA.pdb
     RDKit          3D

 22 21  0  0  1  0  0  0  0  0999 V2000
   18.5933  -23.0825  -11.0503 C   0  0  0  0  0  0  0  0  0  0  0  0
   19.1885  -24.1229  -10.1233 C   0  0  0  0  0  0  0  0  0  0  0  0
   18.2756  -24.5484   -9.0275 C   0  0  2  0  0  0  0  0  0  0  0  0
   17.8155  -23.2942   -8.2995 C   0  0  0  0  0  0  0  0  0  0  0  0
   18.8539  -25.5532   -8.0601 C   0  0  2  0  0  0  0  0  0  0  0  0
   19.0784  -26.7649   -8.8908 N   0  0  0  0  0  0  0  0  0  0  0  0
   17.9563  -25.9671   -6.9830 C   0  0  0  0  0  0  0  0  0  0  0  0
   16.9268  -26.6672   -7.2755 O   0  0  0  0  0  0  0  0  0  0  0  0
   19.1911  -27.8933   -2.0568 C   0  0  0  0  0  0  0  0  0  0  0  0
   18.4672  -27.7101   -3.3770 C   0  0  0  0  0  0  0  0  0  0  0  0
   17.6948  -26.4209   -3.3013 C   0  0  2  0  0  0  0  0  0  0  0  0
   16.5624  -26.6337   -2.3111 C   0  0  0  0  0  0  0  0  0  0  0  0
   17.1043  -26.0036   -4.6059 C   0  0  2  0  0  0  0  0  0  0  0  0
   18.1034  -25.6715   -5.6082 N   0  0  0  0  0  0  0  0  0  0  0  0
   16.0898  -24.9297   -4.4681 C   0  0  0  0  0  0  0  0  0  0  0  0
   16.4900  -23.8040   -4.0753 O   0  0  0  0  0  0  0  0  0  0  0  0
   12.4301  -24.3818   -5.2565 C   0  0  0  0  0  0  0  0  0  0  0  0
   13.7517  -24.0064   -4.6200 C   0  0  2  0  0  0  0  0  0  0  0  0
   14.7269  -25.0871   -4.7448 N   0  0  0  0  0  0  0  0  0  0  0  0
   13.5982  -23.6122   -3.2199 C   0  0  0  0  0  0  0  0  0  0  0  0
   13.3050  -22.4430   -2.8807 O   0  0  0  0  0  0  0  0  0  0  0  0
   13.7694  -24.5192   -2.1594 O   0  0  0  0  0  0  0  0  0  0  0  0
  2  1  1  0
  3  2  1  0
  3  4  1  1
  5  3  1  0
  5  6  1  6
  7  5  1  0
  7 14  1  0
  8  7  2  0
 10  9  1  0
 10 11  1  0
 11 13  1  0
 11 12  1  1
 13 14  1  6
 15 13  1  0
 16 15  2  0
 18 17  1  1
 18 20  1  0
 18 19  1  0
 19 15  1  0
 20 22  1  0
 21 20  2  0
M  END
$$$$
