IIA.pdb
     RDKit          3D

 22 21  0  0  1  0  0  0  0  0999 V2000
   24.4075  -12.1710  -15.0716 C   0  0  0  0  0  0  0  0  0  0  0  0
   22.9271  -12.0713  -15.3794 C   0  0  0  0  0  0  0  0  0  0  0  0
   22.4406  -10.6764  -15.5606 C   0  0  2  0  0  0  0  0  0  0  0  0
   22.6946   -9.9284  -14.2603 C   0  0  0  0  0  0  0  0  0  0  0  0
   20.9973  -10.5470  -15.9852 C   0  0  2  0  0  0  0  0  0  0  0  0
   20.9414  -11.2544  -17.2911 N   0  0  0  0  0  0  0  0  0  0  0  0
   20.5473   -9.1816  -16.2502 C   0  0  0  0  0  0  0  0  0  0  0  0
   21.0330   -8.5584  -17.2559 O   0  0  0  0  0  0  0  0  0  0  0  0
   15.7780   -7.9941  -16.9204 C   0  0  0  0  0  0  0  0  0  0  0  0
   17.1958   -7.5428  -17.2146 C   0  0  0  0  0  0  0  0  0  0  0  0
   17.7436   -6.9083  -15.9648 C   0  0  2  0  0  0  0  0  0  0  0  0
   17.4443   -5.4211  -16.0484 C   0  0  0  0  0  0  0  0  0  0  0  0
   19.2165   -7.0817  -15.8060 C   0  0  2  0  0  0  0  0  0  0  0  0
   19.6034   -8.4480  -15.4952 N   0  0  0  0  0  0  0  0  0  0  0  0
   19.8168   -6.1136  -14.8553 C   0  0  0  0  0  0  0  0  0  0  0  0
   19.4765   -6.2029  -13.6479 O   0  0  0  0  0  0  0  0  0  0  0  0
   22.8238   -4.0192  -14.5411 C   0  0  0  0  0  0  0  0  0  0  0  0
   21.3510   -4.2114  -14.2467 C   0  0  2  0  0  0  0  0  0  0  0  0
   20.7303   -5.1152  -15.2125 N   0  0  0  0  0  0  0  0  0  0  0  0
   20.6280   -2.9412  -14.1936 C   0  0  0  0  0  0  0  0  0  0  0  0
   19.8914   -2.5493  -15.1274 O   0  0  0  0  0  0  0  0  0  0  0  0
   20.7108   -2.0734  -13.0905 O   0  0  0  0  0  0  0  0  0  0  0  0
  2  1  1  0
  3  2  1  0
  3  4  1  1
  5  3  1  0
  5  6  1  6
  7  5  1  0
  7 14  1  0
  8  7  2  0
 10  9  1  0
 10 11  1  0
 11 13  1  0
 11 12  1  6
 13 14  1  1
 15 13  1  0
 16 15  2  0
 18 17  1  6
 18 20  1  0
 18 19  1  0
 19 15  1  0
 20 22  1  0
 21 20  2  0
M  END
$$$$
