IIA.pdb
     RDKit          3D

 22 21  0  0  1  0  0  0  0  0999 V2000
   19.1837  -15.4513  -20.7104 C   0  0  0  0  0  0  0  0  0  0  0  0
   19.6424  -14.0096  -20.7944 C   0  0  0  0  0  0  0  0  0  0  0  0
   19.5938  -13.2837  -19.4959 C   0  0  2  0  0  0  0  0  0  0  0  0
   18.1734  -13.3921  -18.9616 C   0  0  0  0  0  0  0  0  0  0  0  0
   20.0441  -11.8433  -19.5451 C   0  0  2  0  0  0  0  0  0  0  0  0
   21.4561  -11.9229  -20.0021 N   0  0  0  0  0  0  0  0  0  0  0  0
   20.0793  -11.1584  -18.2541 C   0  0  0  0  0  0  0  0  0  0  0  0
   19.0242  -11.1543  -17.5313 O   0  0  0  0  0  0  0  0  0  0  0  0
   24.0737  -11.5085  -14.6916 C   0  0  0  0  0  0  0  0  0  0  0  0
   22.7211  -11.4526  -15.3754 C   0  0  0  0  0  0  0  0  0  0  0  0
   22.3790  -10.0041  -15.5973 C   0  0  2  0  0  0  0  0  0  0  0  0
   22.1584   -9.3805  -14.2295 C   0  0  0  0  0  0  0  0  0  0  0  0
   21.1441   -9.8019  -16.4091 C   0  0  2  0  0  0  0  0  0  0  0  0
   21.1856  -10.4781  -17.6952 N   0  0  0  0  0  0  0  0  0  0  0  0
   20.7709   -8.3732  -16.5540 C   0  0  0  0  0  0  0  0  0  0  0  0
   21.5704   -7.6276  -17.1755 O   0  0  0  0  0  0  0  0  0  0  0  0
   17.7145   -6.2264  -16.0504 C   0  0  0  0  0  0  0  0  0  0  0  0
   19.1933   -6.4257  -16.3071 C   0  0  2  0  0  0  0  0  0  0  0  0
   19.5957   -7.8062  -16.0479 N   0  0  0  0  0  0  0  0  0  0  0  0
   20.0180   -5.4967  -15.5353 C   0  0  0  0  0  0  0  0  0  0  0  0
   20.5079   -5.7997  -14.4234 O   0  0  0  0  0  0  0  0  0  0  0  0
   20.3170   -4.2000  -15.9890 O   0  0  0  0  0  0  0  0  0  0  0  0
  2  1  1  0
  3  2  1  0
  3  4  1  6
  5  3  1  0
  5  6  1  1
  7  5  1  0
  7 14  1  0
  8  7  2  0
 10  9  1  0
 10 11  1  0
 11 13  1  0
 11 12  1  1
 13 14  1  6
 15 13  1  0
 16 15  2  0
 18 17  1  1
 18 20  1  0
 18 19  1  0
 19 15  1  0
 20 22  1  0
 21 20  2  0
M  END
$$$$
