IIA.pdb
     RDKit          3D

 22 21  0  0  1  0  0  0  0  0999 V2000
   19.1304  -20.9244  -11.5406 C   0  0  0  0  0  0  0  0  0  0  0  0
   20.4281  -21.4040  -10.9225 C   0  0  0  0  0  0  0  0  0  0  0  0
   21.6239  -20.6277  -11.3501 C   0  0  2  0  0  0  0  0  0  0  0  0
   21.6314  -20.5957  -12.8712 C   0  0  0  0  0  0  0  0  0  0  0  0
   22.9435  -21.1286  -10.8137 C   0  0  2  0  0  0  0  0  0  0  0  0
   22.8744  -20.8372   -9.3580 N   0  0  0  0  0  0  0  0  0  0  0  0
   24.1240  -20.4219  -11.3077 C   0  0  0  0  0  0  0  0  0  0  0  0
   24.4679  -19.3283  -10.7408 O   0  0  0  0  0  0  0  0  0  0  0  0
   28.9722  -21.4590  -10.7366 C   0  0  0  0  0  0  0  0  0  0  0  0
   27.6672  -20.7218  -10.9692 C   0  0  0  0  0  0  0  0  0  0  0  0
   27.4121  -20.6980  -12.4520 C   0  0  2  0  0  0  0  0  0  0  0  0
   28.5333  -19.8934  -13.0875 C   0  0  0  0  0  0  0  0  0  0  0  0
   26.1131  -20.0651  -12.8222 C   0  0  2  0  0  0  0  0  0  0  0  0
   24.9568  -20.8251  -12.3768 N   0  0  0  0  0  0  0  0  0  0  0  0
   26.0219  -19.7248  -14.2635 C   0  0  0  0  0  0  0  0  0  0  0  0
   25.8928  -20.6770  -15.0747 O   0  0  0  0  0  0  0  0  0  0  0  0
   27.1213  -18.7918  -16.9638 C   0  0  0  0  0  0  0  0  0  0  0  0
   26.0006  -18.1168  -16.2016 C   0  0  2  0  0  0  0  0  0  0  0  0
   26.0698  -18.4228  -14.7746 N   0  0  0  0  0  0  0  0  0  0  0  0
   24.6836  -18.4598  -16.7372 C   0  0  0  0  0  0  0  0  0  0  0  0
   24.3749  -18.2638  -17.9348 O   0  0  0  0  0  0  0  0  0  0  0  0
   23.6742  -19.0329  -15.9438 O   0  0  0  0  0  0  0  0  0  0  0  0
  2  1  1  0
  3  2  1  0
  3  4  1  6
  5  3  1  0
  5  6  1  1
  7  5  1  0
  7 14  1  0
  8  7  2  0
 10  9  1  0
 10 11  1  0
 11 13  1  0
 11 12  1  6
 13 14  1  6
 15 13  1  0
 16 15  2  0
 18 17  1  6
 18 20  1  0
 18 19  1  0
 19 15  1  0
 20 22  1  0
 21 20  2  0
M  END
$$$$
