IIA.pdb
     RDKit          3D

 22 21  0  0  1  0  0  0  0  0999 V2000
   14.2934  -15.5486  -12.0776 C   0  0  0  0  0  0  0  0  0  0  0  0
   13.6687  -14.1966  -11.7984 C   0  0  0  0  0  0  0  0  0  0  0  0
   14.6563  -13.1277  -11.4866 C   0  0  2  0  0  0  0  0  0  0  0  0
   15.5599  -13.6460  -10.3777 C   0  0  0  0  0  0  0  0  0  0  0  0
   14.0629  -11.7889  -11.1185 C   0  0  2  0  0  0  0  0  0  0  0  0
   13.4259  -11.3193  -12.3765 N   0  0  0  0  0  0  0  0  0  0  0  0
   15.0329  -10.7584  -10.7523 C   0  0  0  0  0  0  0  0  0  0  0  0
   15.6685  -10.8767   -9.6487 O   0  0  0  0  0  0  0  0  0  0  0  0
   19.1077   -8.9785  -13.6337 C   0  0  0  0  0  0  0  0  0  0  0  0
   18.1679   -9.4514  -12.5411 C   0  0  0  0  0  0  0  0  0  0  0  0
   17.3356   -8.2739  -12.1110 C   0  0  2  0  0  0  0  0  0  0  0  0
   18.2866   -7.2384  -11.5351 C   0  0  0  0  0  0  0  0  0  0  0  0
   16.3224   -8.6103  -11.0692 C   0  0  2  0  0  0  0  0  0  0  0  0
   15.3594   -9.6077  -11.5061 N   0  0  0  0  0  0  0  0  0  0  0  0
   15.6520   -7.4141  -10.5023 C   0  0  0  0  0  0  0  0  0  0  0  0
   14.8200   -6.8177  -11.2328 O   0  0  0  0  0  0  0  0  0  0  0  0
   15.1419   -5.8796   -7.1146 C   0  0  0  0  0  0  0  0  0  0  0  0
   15.1048   -5.8245   -8.6272 C   0  0  2  0  0  0  0  0  0  0  0  0
   15.8839   -6.9106   -9.2172 N   0  0  0  0  0  0  0  0  0  0  0  0
   15.5526   -4.5317   -9.1440 C   0  0  0  0  0  0  0  0  0  0  0  0
   16.7144   -4.3470   -9.5734 O   0  0  0  0  0  0  0  0  0  0  0  0
   14.7092   -3.4078   -9.1938 O   0  0  0  0  0  0  0  0  0  0  0  0
  2  1  1  0
  3  2  1  0
  3  4  1  1
  5  3  1  0
  5  6  1  6
  7  5  1  0
  7 14  1  0
  8  7  2  0
 10  9  1  0
 10 11  1  0
 11 13  1  0
 11 12  1  1
 13 14  1  6
 15 13  1  0
 16 15  2  0
 18 17  1  1
 18 20  1  0
 18 19  1  0
 19 15  1  0
 20 22  1  0
 21 20  2  0
M  END
$$$$
