IIA.pdb
     RDKit          3D

 22 21  0  0  1  0  0  0  0  0999 V2000
   26.0830  -13.9979  -16.4897 C   0  0  0  0  0  0  0  0  0  0  0  0
   24.5927  -13.9837  -16.2165 C   0  0  0  0  0  0  0  0  0  0  0  0
   23.9444  -12.6685  -16.4716 C   0  0  2  0  0  0  0  0  0  0  0  0
   24.6662  -11.6287  -15.6274 C   0  0  0  0  0  0  0  0  0  0  0  0
   22.4552  -12.6251  -16.2255 C   0  0  2  0  0  0  0  0  0  0  0  0
   21.8921  -13.5256  -17.2650 N   0  0  0  0  0  0  0  0  0  0  0  0
   21.8271  -11.3228  -16.4413 C   0  0  0  0  0  0  0  0  0  0  0  0
   21.4733  -10.9998  -17.6271 O   0  0  0  0  0  0  0  0  0  0  0  0
   17.2463   -8.0241  -15.5868 C   0  0  0  0  0  0  0  0  0  0  0  0
   18.7363   -7.8150  -15.7787 C   0  0  0  0  0  0  0  0  0  0  0  0
   19.4175   -9.1380  -15.5547 C   0  0  2  0  0  0  0  0  0  0  0  0
   19.1265   -9.5560  -14.1233 C   0  0  0  0  0  0  0  0  0  0  0  0
   20.8971   -9.0835  -15.7354 C   0  0  2  0  0  0  0  0  0  0  0  0
   21.5568  -10.3478  -15.4537 N   0  0  0  0  0  0  0  0  0  0  0  0
   21.5315   -7.9602  -15.0023 C   0  0  0  0  0  0  0  0  0  0  0  0
   21.7118   -8.1058  -13.7663 O   0  0  0  0  0  0  0  0  0  0  0  0
   23.1877   -4.6535  -15.8029 C   0  0  0  0  0  0  0  0  0  0  0  0
   22.6213   -5.6942  -14.8602 C   0  0  2  0  0  0  0  0  0  0  0  0
   21.9391   -6.7586  -15.5928 N   0  0  0  0  0  0  0  0  0  0  0  0
   21.7307   -5.1070  -13.8597 C   0  0  0  0  0  0  0  0  0  0  0  0
   20.4901   -5.0471  -14.0189 O   0  0  0  0  0  0  0  0  0  0  0  0
   22.2068   -4.5695  -12.6509 O   0  0  0  0  0  0  0  0  0  0  0  0
  2  1  1  0
  3  2  1  0
  3  4  1  1
  5  3  1  0
  5  6  1  6
  7  5  1  0
  7 14  1  0
  8  7  2  0
 10  9  1  0
 10 11  1  0
 11 13  1  0
 11 12  1  1
 13 14  1  1
 15 13  1  0
 16 15  2  0
 18 17  1  6
 18 20  1  0
 18 19  1  0
 19 15  1  0
 20 22  1  0
 21 20  2  0
M  END
$$$$
