IIA.pdb
     RDKit          3D

 22 21  0  0  1  0  0  0  0  0999 V2000
   24.6551  -15.5908  -17.9396 C   0  0  0  0  0  0  0  0  0  0  0  0
   25.0956  -14.3011  -17.2775 C   0  0  0  0  0  0  0  0  0  0  0  0
   24.0578  -13.2342  -17.2831 C   0  0  2  0  0  0  0  0  0  0  0  0
   23.6073  -13.0388  -18.7232 C   0  0  0  0  0  0  0  0  0  0  0  0
   24.4787  -11.9220  -16.6659 C   0  0  2  0  0  0  0  0  0  0  0  0
   24.7885  -12.2707  -15.2549 N   0  0  0  0  0  0  0  0  0  0  0  0
   23.4350  -10.9002  -16.6057 C   0  0  0  0  0  0  0  0  0  0  0  0
   23.0731  -10.3263  -17.6899 O   0  0  0  0  0  0  0  0  0  0  0  0
   18.5640  -11.5883  -15.1090 C   0  0  0  0  0  0  0  0  0  0  0  0
   19.7680  -11.0230  -15.8381 C   0  0  0  0  0  0  0  0  0  0  0  0
   20.3957   -9.9836  -14.9494 C   0  0  2  0  0  0  0  0  0  0  0  0
   19.4216   -8.8210  -14.8612 C   0  0  0  0  0  0  0  0  0  0  0  0
   21.6965   -9.4669  -15.4650 C   0  0  2  0  0  0  0  0  0  0  0  0
   22.7572  -10.4607  -15.4453 N   0  0  0  0  0  0  0  0  0  0  0  0
   22.1193   -8.2026  -14.8137 C   0  0  0  0  0  0  0  0  0  0  0  0
   22.4931   -8.2674  -13.6148 O   0  0  0  0  0  0  0  0  0  0  0  0
   22.8781   -4.6444  -15.8264 C   0  0  0  0  0  0  0  0  0  0  0  0
   22.6342   -5.7374  -14.8073 C   0  0  2  0  0  0  0  0  0  0  0  0
   22.1290   -6.9522  -15.4426 N   0  0  0  0  0  0  0  0  0  0  0  0
   21.7350   -5.3049  -13.7381 C   0  0  0  0  0  0  0  0  0  0  0  0
   20.4979   -5.4938  -13.7847 O   0  0  0  0  0  0  0  0  0  0  0  0
   22.1981   -4.6473  -12.5848 O   0  0  0  0  0  0  0  0  0  0  0  0
  2  1  1  0
  3  2  1  0
  3  4  1  6
  5  3  1  0
  5  6  1  1
  7  5  1  0
  7 14  1  0
  8  7  2  0
 10  9  1  0
 10 11  1  0
 11 13  1  0
 11 12  1  6
 13 14  1  1
 15 13  1  0
 16 15  2  0
 18 17  1  6
 18 20  1  0
 18 19  1  0
 19 15  1  0
 20 22  1  0
 21 20  2  0
M  END
$$$$
