IIA.pdb
     RDKit          3D

 22 21  0  0  1  0  0  0  0  0999 V2000
   18.4155  -13.0801  -21.5101 C   0  0  0  0  0  0  0  0  0  0  0  0
   17.7115  -13.4450  -20.2188 C   0  0  0  0  0  0  0  0  0  0  0  0
   18.0447  -12.5516  -19.0760 C   0  0  2  0  0  0  0  0  0  0  0  0
   17.9353  -11.1160  -19.5677 C   0  0  0  0  0  0  0  0  0  0  0  0
   19.3877  -12.8015  -18.4325 C   0  0  2  0  0  0  0  0  0  0  0  0
   19.2641  -14.1673  -17.8599 N   0  0  0  0  0  0  0  0  0  0  0  0
   19.7115  -11.9242  -17.3088 C   0  0  0  0  0  0  0  0  0  0  0  0
   18.8122  -11.6948  -16.4289 O   0  0  0  0  0  0  0  0  0  0  0  0
   24.2180  -11.9878  -14.3506 C   0  0  0  0  0  0  0  0  0  0  0  0
   22.7811  -11.9288  -14.8327 C   0  0  0  0  0  0  0  0  0  0  0  0
   22.5252  -10.5360  -15.3417 C   0  0  2  0  0  0  0  0  0  0  0  0
   22.6154   -9.5988  -14.1493 C   0  0  0  0  0  0  0  0  0  0  0  0
   21.1820  -10.3690  -15.9685 C   0  0  2  0  0  0  0  0  0  0  0  0
   20.9485  -11.2800  -17.0769 N   0  0  0  0  0  0  0  0  0  0  0  0
   20.8858   -8.9643  -16.3432 C   0  0  0  0  0  0  0  0  0  0  0  0
   21.6037   -8.4401  -17.2328 O   0  0  0  0  0  0  0  0  0  0  0  0
   18.0626   -6.5428  -16.0260 C   0  0  0  0  0  0  0  0  0  0  0  0
   19.5324   -6.8434  -16.2305 C   0  0  2  0  0  0  0  0  0  0  0  0
   19.8669   -8.1908  -15.7753 N   0  0  0  0  0  0  0  0  0  0  0  0
   20.3937   -5.8541  -15.5836 C   0  0  0  0  0  0  0  0  0  0  0  0
   20.4213   -4.6539  -15.9397 O   0  0  0  0  0  0  0  0  0  0  0  0
   21.2496   -6.1832  -14.5178 O   0  0  0  0  0  0  0  0  0  0  0  0
  2  1  1  0
  3  2  1  0
  3  4  1  6
  5  3  1  0
  5  6  1  1
  7  5  1  0
  7 14  1  0
  8  7  2  0
 10  9  1  0
 10 11  1  0
 11 13  1  0
 11 12  1  1
 13 14  1  6
 15 13  1  0
 16 15  2  0
 18 17  1  1
 18 20  1  0
 18 19  1  0
 19 15  1  0
 20 22  1  0
 21 20  2  0
M  END
$$$$
