IIA.pdb
     RDKit          3D

 22 21  0  0  1  0  0  0  0  0999 V2000
   16.5707  -14.7017  -12.6878 C   0  0  0  0  0  0  0  0  0  0  0  0
   17.1657  -13.3328  -12.4273 C   0  0  0  0  0  0  0  0  0  0  0  0
   16.1691  -12.3117  -12.0037 C   0  0  2  0  0  0  0  0  0  0  0  0
   15.0949  -12.2440  -13.0791 C   0  0  0  0  0  0  0  0  0  0  0  0
   16.7329  -10.9408  -11.7160 C   0  0  2  0  0  0  0  0  0  0  0  0
   17.4315  -11.1046  -10.4146 N   0  0  0  0  0  0  0  0  0  0  0  0
   15.7377   -9.8907  -11.5066 C   0  0  0  0  0  0  0  0  0  0  0  0
   14.9833   -9.5549  -12.4833 O   0  0  0  0  0  0  0  0  0  0  0  0
   11.7080   -9.8387   -8.3669 C   0  0  0  0  0  0  0  0  0  0  0  0
   12.6349   -9.5737   -9.5379 C   0  0  0  0  0  0  0  0  0  0  0  0
   13.4663   -8.3657   -9.2002 C   0  0  2  0  0  0  0  0  0  0  0  0
   12.5303   -7.1692   -9.1762 C   0  0  0  0  0  0  0  0  0  0  0  0
   14.5495   -8.0936  -10.1890 C   0  0  2  0  0  0  0  0  0  0  0  0
   15.5067   -9.1813  -10.3056 N   0  0  0  0  0  0  0  0  0  0  0  0
   15.2254   -6.7915   -9.9673 C   0  0  0  0  0  0  0  0  0  0  0  0
   15.9187   -6.6705   -8.9251 O   0  0  0  0  0  0  0  0  0  0  0  0
   16.0031   -3.7020  -11.9815 C   0  0  0  0  0  0  0  0  0  0  0  0
   15.9544   -4.4919  -10.6906 C   0  0  2  0  0  0  0  0  0  0  0  0
   15.1422   -5.6976  -10.8365 N   0  0  0  0  0  0  0  0  0  0  0  0
   15.4791   -3.6852   -9.5671 C   0  0  0  0  0  0  0  0  0  0  0  0
   14.2890   -3.7116   -9.1786 O   0  0  0  0  0  0  0  0  0  0  0  0
   16.3262   -2.8249   -8.8465 O   0  0  0  0  0  0  0  0  0  0  0  0
  2  1  1  0
  3  2  1  0
  3  4  1  6
  5  3  1  0
  5  6  1  1
  7  5  1  0
  7 14  1  0
  8  7  2  0
 10  9  1  0
 10 11  1  0
 11 13  1  0
 11 12  1  6
 13 14  1  1
 15 13  1  0
 16 15  2  0
 18 17  1  6
 18 20  1  0
 18 19  1  0
 19 15  1  0
 20 22  1  0
 21 20  2  0
M  END
$$$$
