IIA.pdb
     RDKit          3D

 22 21  0  0  1  0  0  0  0  0999 V2000
   17.0706  -16.1667  -18.1631 C   0  0  0  0  0  0  0  0  0  0  0  0
   17.5041  -14.8080  -18.6749 C   0  0  0  0  0  0  0  0  0  0  0  0
   18.1062  -13.9337  -17.6317 C   0  0  2  0  0  0  0  0  0  0  0  0
   17.1071  -13.8263  -16.4893 C   0  0  0  0  0  0  0  0  0  0  0  0
   18.5342  -12.5653  -18.1056 C   0  0  2  0  0  0  0  0  0  0  0  0
   19.5698  -12.8479  -19.1334 N   0  0  0  0  0  0  0  0  0  0  0  0
   19.1883  -11.7343  -17.0963 C   0  0  0  0  0  0  0  0  0  0  0  0
   18.5645  -11.4829  -16.0085 O   0  0  0  0  0  0  0  0  0  0  0  0
   24.2984  -11.9953  -15.2740 C   0  0  0  0  0  0  0  0  0  0  0  0
   22.7915  -11.8730  -15.3956 C   0  0  0  0  0  0  0  0  0  0  0  0
   22.4846  -10.5007  -15.9313 C   0  0  2  0  0  0  0  0  0  0  0  0
   22.9539   -9.4976  -14.8911 C   0  0  0  0  0  0  0  0  0  0  0  0
   21.0323  -10.2709  -16.1820 C   0  0  2  0  0  0  0  0  0  0  0  0
   20.4763  -11.1586  -17.1899 N   0  0  0  0  0  0  0  0  0  0  0  0
   20.7087   -8.8509  -16.4654 C   0  0  0  0  0  0  0  0  0  0  0  0
   21.1707   -8.3533  -17.5239 O   0  0  0  0  0  0  0  0  0  0  0  0
   18.2108   -6.2800  -15.5949 C   0  0  0  0  0  0  0  0  0  0  0  0
   19.6452   -6.6321  -15.9281 C   0  0  2  0  0  0  0  0  0  0  0  0
   19.9284   -8.0357  -15.6374 N   0  0  0  0  0  0  0  0  0  0  0  0
   20.6009   -5.7627  -15.2426 C   0  0  0  0  0  0  0  0  0  0  0  0
   21.2569   -6.1417  -14.2456 O   0  0  0  0  0  0  0  0  0  0  0  0
   20.8483   -4.4419  -15.6564 O   0  0  0  0  0  0  0  0  0  0  0  0
  2  1  1  0
  3  2  1  0
  3  4  1  1
  5  3  1  0
  5  6  1  6
  7  5  1  0
  7 14  1  0
  8  7  2  0
 10  9  1  0
 10 11  1  0
 11 13  1  0
 11 12  1  1
 13 14  1  6
 15 13  1  0
 16 15  2  0
 18 17  1  1
 18 20  1  0
 18 19  1  0
 19 15  1  0
 20 22  1  0
 21 20  2  0
M  END
$$$$
