IIA.pdb
     RDKit          3D

 22 21  0  0  1  0  0  0  0  0999 V2000
   20.2819  -16.5266  -19.6738 C   0  0  0  0  0  0  0  0  0  0  0  0
   20.8838  -15.1789  -20.0166 C   0  0  0  0  0  0  0  0  0  0  0  0
   20.9936  -14.2538  -18.8559 C   0  0  2  0  0  0  0  0  0  0  0  0
   19.6123  -14.1369  -18.2289 C   0  0  0  0  0  0  0  0  0  0  0  0
   21.5617  -12.8903  -19.1695 C   0  0  2  0  0  0  0  0  0  0  0  0
   22.9001  -13.1818  -19.7459 N   0  0  0  0  0  0  0  0  0  0  0  0
   21.8034  -12.0354  -18.0086 C   0  0  0  0  0  0  0  0  0  0  0  0
   20.8229  -11.7546  -17.2370 O   0  0  0  0  0  0  0  0  0  0  0  0
   26.5936  -11.8261  -15.2272 C   0  0  0  0  0  0  0  0  0  0  0  0
   25.1206  -11.9653  -15.5609 C   0  0  0  0  0  0  0  0  0  0  0  0
   24.6055  -10.6030  -15.9390 C   0  0  2  0  0  0  0  0  0  0  0  0
   24.6376   -9.7468  -14.6843 C   0  0  0  0  0  0  0  0  0  0  0  0
   23.2078  -10.6188  -16.4599 C   0  0  2  0  0  0  0  0  0  0  0  0
   23.0406  -11.4657  -17.6294 N   0  0  0  0  0  0  0  0  0  0  0  0
   22.6557   -9.2601  -16.6849 C   0  0  0  0  0  0  0  0  0  0  0  0
   23.1601   -8.5782  -17.6134 O   0  0  0  0  0  0  0  0  0  0  0  0
   19.6160   -7.4258  -16.5859 C   0  0  0  0  0  0  0  0  0  0  0  0
   21.0771   -7.3602  -16.1943 C   0  0  2  0  0  0  0  0  0  0  0  0
   21.6179   -8.6928  -15.9366 N   0  0  0  0  0  0  0  0  0  0  0  0
   21.3022   -6.4836  -15.0454 C   0  0  0  0  0  0  0  0  0  0  0  0
   21.5359   -6.9281  -13.8983 O   0  0  0  0  0  0  0  0  0  0  0  0
   21.2714   -5.0818  -15.1506 O   0  0  0  0  0  0  0  0  0  0  0  0
  2  1  1  0
  3  2  1  0
  3  4  1  6
  5  3  1  0
  5  6  1  1
  7  5  1  0
  7 14  1  0
  8  7  2  0
 10  9  1  0
 10 11  1  0
 11 13  1  0
 11 12  1  1
 13 14  1  6
 15 13  1  0
 16 15  2  0
 18 17  1  1
 18 20  1  0
 18 19  1  0
 19 15  1  0
 20 22  1  0
 21 20  2  0
M  END
$$$$
