IIA.pdb
     RDKit          3D

 22 21  0  0  1  0  0  0  0  0999 V2000
   16.8895  -13.0338  -21.0956 C   0  0  0  0  0  0  0  0  0  0  0  0
   18.1993  -13.2654  -20.3698 C   0  0  0  0  0  0  0  0  0  0  0  0
   18.4083  -12.3693  -19.2000 C   0  0  2  0  0  0  0  0  0  0  0  0
   18.2848  -10.9349  -19.6919 C   0  0  0  0  0  0  0  0  0  0  0  0
   19.7047  -12.5749  -18.4537 C   0  0  2  0  0  0  0  0  0  0  0  0
   19.5850  -13.9469  -17.8951 N   0  0  0  0  0  0  0  0  0  0  0  0
   19.9084  -11.6921  -17.3065 C   0  0  0  0  0  0  0  0  0  0  0  0
   19.1723  -11.8481  -16.2723 O   0  0  0  0  0  0  0  0  0  0  0  0
   24.0935  -11.0758  -14.3949 C   0  0  0  0  0  0  0  0  0  0  0  0
   22.6568  -11.1463  -14.8758 C   0  0  0  0  0  0  0  0  0  0  0  0
   22.2799   -9.7852  -15.3953 C   0  0  2  0  0  0  0  0  0  0  0  0
   22.2344   -8.8461  -14.2018 C   0  0  0  0  0  0  0  0  0  0  0  0
   20.9491   -9.7527  -16.0682 C   0  0  2  0  0  0  0  0  0  0  0  0
   20.8599  -10.6510  -17.2075 N   0  0  0  0  0  0  0  0  0  0  0  0
   20.5078   -8.3800  -16.4181 C   0  0  0  0  0  0  0  0  0  0  0  0
   21.1779   -7.7609  -17.2837 O   0  0  0  0  0  0  0  0  0  0  0  0
   17.4348   -6.2922  -16.1369 C   0  0  0  0  0  0  0  0  0  0  0  0
   18.9373   -6.4163  -16.2764 C   0  0  2  0  0  0  0  0  0  0  0  0
   19.4026   -7.7346  -15.8517 N   0  0  0  0  0  0  0  0  0  0  0  0
   19.6482   -5.3629  -15.5526 C   0  0  0  0  0  0  0  0  0  0  0  0
   20.1624   -5.5525  -14.4266 O   0  0  0  0  0  0  0  0  0  0  0  0
   19.8025   -4.0653  -16.0715 O   0  0  0  0  0  0  0  0  0  0  0  0
  2  1  1  0
  3  2  1  0
  3  4  1  6
  5  3  1  0
  5  6  1  1
  7  5  1  0
  7 14  1  0
  8  7  2  0
 10  9  1  0
 10 11  1  0
 11 13  1  0
 11 12  1  1
 13 14  1  6
 15 13  1  0
 16 15  2  0
 18 17  1  1
 18 20  1  0
 18 19  1  0
 19 15  1  0
 20 22  1  0
 21 20  2  0
M  END
$$$$
