IIA.pdb
     RDKit          3D

 22 21  0  0  1  0  0  0  0  0999 V2000
   21.1347  -15.7847  -21.5134 C   0  0  0  0  0  0  0  0  0  0  0  0
   21.6597  -14.3634  -21.5337 C   0  0  0  0  0  0  0  0  0  0  0  0
   21.7815  -13.7453  -20.1852 C   0  0  2  0  0  0  0  0  0  0  0  0
   20.4143  -13.8171  -19.5215 C   0  0  0  0  0  0  0  0  0  0  0  0
   22.3165  -12.3334  -20.1690 C   0  0  2  0  0  0  0  0  0  0  0  0
   23.6934  -12.4638  -20.7127 N   0  0  0  0  0  0  0  0  0  0  0  0
   22.4650  -11.7400  -18.8413 C   0  0  0  0  0  0  0  0  0  0  0  0
   21.5296  -11.9066  -17.9852 O   0  0  0  0  0  0  0  0  0  0  0  0
   27.0188  -11.4130  -15.8285 C   0  0  0  0  0  0  0  0  0  0  0  0
   25.6002  -11.6259  -16.3213 C   0  0  0  0  0  0  0  0  0  0  0  0
   24.9642  -10.2721  -16.4864 C   0  0  2  0  0  0  0  0  0  0  0  0
   24.8572   -9.6547  -15.1023 C   0  0  0  0  0  0  0  0  0  0  0  0
   23.5980  -10.3253  -17.0827 C   0  0  2  0  0  0  0  0  0  0  0  0
   23.5635  -10.9779  -18.3811 N   0  0  0  0  0  0  0  0  0  0  0  0
   22.9268   -9.0025  -17.1173 C   0  0  0  0  0  0  0  0  0  0  0  0
   23.4818   -8.0904  -17.7818 O   0  0  0  0  0  0  0  0  0  0  0  0
   19.5731   -7.5262  -16.3664 C   0  0  0  0  0  0  0  0  0  0  0  0
   21.0727   -7.4012  -16.5339 C   0  0  2  0  0  0  0  0  0  0  0  0
   21.7252   -8.7065  -16.4635 N   0  0  0  0  0  0  0  0  0  0  0  0
   21.6619   -6.4794  -15.5633 C   0  0  0  0  0  0  0  0  0  0  0  0
   22.1506   -6.8700  -14.4785 O   0  0  0  0  0  0  0  0  0  0  0  0
   21.7197   -5.0917  -15.7818 O   0  0  0  0  0  0  0  0  0  0  0  0
  2  1  1  0
  3  2  1  0
  3  4  1  6
  5  3  1  0
  5  6  1  1
  7  5  1  0
  7 14  1  0
  8  7  2  0
 10  9  1  0
 10 11  1  0
 11 13  1  0
 11 12  1  1
 13 14  1  6
 15 13  1  0
 16 15  2  0
 18 17  1  1
 18 20  1  0
 18 19  1  0
 19 15  1  0
 20 22  1  0
 21 20  2  0
M  END
$$$$
