IIA.pdb
     RDKit          3D

 22 21  0  0  1  0  0  0  0  0999 V2000
   23.8229  -19.8489  -19.6119 C   0  0  0  0  0  0  0  0  0  0  0  0
   23.7486  -19.1775  -18.2556 C   0  0  0  0  0  0  0  0  0  0  0  0
   23.2842  -20.0744  -17.1624 C   0  0  2  0  0  0  0  0  0  0  0  0
   21.9614  -20.6856  -17.5999 C   0  0  0  0  0  0  0  0  0  0  0  0
   23.1565  -19.4245  -15.8054 C   0  0  2  0  0  0  0  0  0  0  0  0
   24.5135  -18.8808  -15.5375 N   0  0  0  0  0  0  0  0  0  0  0  0
   22.8670  -20.3394  -14.7026 C   0  0  0  0  0  0  0  0  0  0  0  0
   22.5115  -21.5374  -14.9748 O   0  0  0  0  0  0  0  0  0  0  0  0
   25.3940  -20.5388   -9.7732 C   0  0  0  0  0  0  0  0  0  0  0  0
   24.7758  -20.9697  -11.0895 C   0  0  0  0  0  0  0  0  0  0  0  0
   23.2908  -20.7466  -10.9933 C   0  0  2  0  0  0  0  0  0  0  0  0
   22.7560  -21.7248   -9.9611 C   0  0  0  0  0  0  0  0  0  0  0  0
   22.5696  -20.9801  -12.2780 C   0  0  2  0  0  0  0  0  0  0  0  0
   22.9391  -20.0394  -13.3228 N   0  0  0  0  0  0  0  0  0  0  0  0
   21.0975  -21.0626  -12.1118 C   0  0  0  0  0  0  0  0  0  0  0  0
   20.4817  -19.9914  -11.8777 O   0  0  0  0  0  0  0  0  0  0  0  0
   18.3406  -23.3269  -13.0960 C   0  0  0  0  0  0  0  0  0  0  0  0
   18.8959  -22.2850  -12.1481 C   0  0  2  0  0  0  0  0  0  0  0  0
   20.3557  -22.2463  -12.1981 N   0  0  0  0  0  0  0  0  0  0  0  0
   18.4342  -22.4855  -10.7749 C   0  0  0  0  0  0  0  0  0  0  0  0
   19.1333  -23.0604   -9.9095 O   0  0  0  0  0  0  0  0  0  0  0  0
   17.1738  -22.0465  -10.3327 O   0  0  0  0  0  0  0  0  0  0  0  0
  2  1  1  0
  3  2  1  0
  3  4  1  6
  5  3  1  0
  5  6  1  1
  7  5  1  0
  7 14  1  0
  8  7  2  0
 10  9  1  0
 10 11  1  0
 11 13  1  0
 11 12  1  1
 13 14  1  6
 15 13  1  0
 16 15  2  0
 18 17  1  6
 18 20  1  0
 18 19  1  0
 19 15  1  0
 20 22  1  0
 21 20  2  0
M  END
$$$$
