IIA.pdb
     RDKit          3D

 22 21  0  0  1  0  0  0  0  0999 V2000
   24.2701  -15.1932  -18.2764 C   0  0  0  0  0  0  0  0  0  0  0  0
   24.7652  -13.9773  -17.5196 C   0  0  0  0  0  0  0  0  0  0  0  0
   23.8016  -12.8432  -17.5022 C   0  0  2  0  0  0  0  0  0  0  0  0
   23.4196  -12.5424  -18.9438 C   0  0  0  0  0  0  0  0  0  0  0  0
   24.2852  -11.5969  -16.8001 C   0  0  2  0  0  0  0  0  0  0  0  0
   24.5537  -12.0480  -15.4098 N   0  0  0  0  0  0  0  0  0  0  0  0
   23.2991  -10.5234  -16.6892 C   0  0  0  0  0  0  0  0  0  0  0  0
   23.0341   -9.8225  -17.7256 O   0  0  0  0  0  0  0  0  0  0  0  0
   18.4207  -11.1389  -15.1158 C   0  0  0  0  0  0  0  0  0  0  0  0
   19.5283  -10.4685  -15.9060 C   0  0  0  0  0  0  0  0  0  0  0  0
   20.2644   -9.5465  -14.9719 C   0  0  2  0  0  0  0  0  0  0  0  0
   19.3914   -8.3192  -14.7723 C   0  0  0  0  0  0  0  0  0  0  0  0
   21.5874   -9.1002  -15.4967 C   0  0  2  0  0  0  0  0  0  0  0  0
   22.5806  -10.1611  -15.5266 N   0  0  0  0  0  0  0  0  0  0  0  0
   22.1035   -7.8868  -14.8163 C   0  0  0  0  0  0  0  0  0  0  0  0
   22.4325   -7.9982  -13.6077 O   0  0  0  0  0  0  0  0  0  0  0  0
   23.1568   -4.3721  -15.7119 C   0  0  0  0  0  0  0  0  0  0  0  0
   22.7559   -5.4558  -14.7334 C   0  0  2  0  0  0  0  0  0  0  0  0
   22.2468   -6.6361  -15.4279 N   0  0  0  0  0  0  0  0  0  0  0  0
   21.7840   -4.9796  -13.7497 C   0  0  0  0  0  0  0  0  0  0  0  0
   20.5483   -5.0915  -13.9193 O   0  0  0  0  0  0  0  0  0  0  0  0
   22.1707   -4.3637  -12.5464 O   0  0  0  0  0  0  0  0  0  0  0  0
  2  1  1  0
  3  2  1  0
  3  4  1  6
  5  3  1  0
  5  6  1  1
  7  5  1  0
  7 14  1  0
  8  7  2  0
 10  9  1  0
 10 11  1  0
 11 13  1  0
 11 12  1  6
 13 14  1  1
 15 13  1  0
 16 15  2  0
 18 17  1  6
 18 20  1  0
 18 19  1  0
 19 15  1  0
 20 22  1  0
 21 20  2  0
M  END
$$$$
