IIA.pdb
     RDKit          3D

 22 21  0  0  1  0  0  0  0  0999 V2000
   15.4881  -12.4495  -19.6096 C   0  0  0  0  0  0  0  0  0  0  0  0
   16.8889  -12.9904  -19.4066 C   0  0  0  0  0  0  0  0  0  0  0  0
   17.6259  -12.3515  -18.2823 C   0  0  2  0  0  0  0  0  0  0  0  0
   17.6254  -10.8498  -18.5268 C   0  0  0  0  0  0  0  0  0  0  0  0
   19.0292  -12.8620  -18.0584 C   0  0  2  0  0  0  0  0  0  0  0  0
   18.8350  -14.2689  -17.6207 N   0  0  0  0  0  0  0  0  0  0  0  0
   19.7650  -12.2052  -16.9794 C   0  0  0  0  0  0  0  0  0  0  0  0
   19.2908  -12.2551  -15.7927 O   0  0  0  0  0  0  0  0  0  0  0  0
   24.6991  -12.8729  -15.3184 C   0  0  0  0  0  0  0  0  0  0  0  0
   23.2095  -12.6045  -15.4172 C   0  0  0  0  0  0  0  0  0  0  0  0
   23.0279  -11.1555  -15.7804 C   0  0  2  0  0  0  0  0  0  0  0  0
   23.5643  -10.3318  -14.6220 C   0  0  0  0  0  0  0  0  0  0  0  0
   21.6041  -10.7731  -16.0077 C   0  0  2  0  0  0  0  0  0  0  0  0
   20.9830  -11.4980  -17.1038 N   0  0  0  0  0  0  0  0  0  0  0  0
   21.4097   -9.3082  -16.1409 C   0  0  0  0  0  0  0  0  0  0  0  0
   22.0260   -8.7258  -17.0697 O   0  0  0  0  0  0  0  0  0  0  0  0
   18.9675   -6.6965  -15.3788 C   0  0  0  0  0  0  0  0  0  0  0  0
   20.4266   -7.0941  -15.4525 C   0  0  2  0  0  0  0  0  0  0  0  0
   20.5911   -8.5385  -15.3064 N   0  0  0  0  0  0  0  0  0  0  0  0
   21.2433   -6.3822  -14.4701 C   0  0  0  0  0  0  0  0  0  0  0  0
   21.6548   -6.9259  -13.4198 O   0  0  0  0  0  0  0  0  0  0  0  0
   21.6223   -5.0387  -14.6380 O   0  0  0  0  0  0  0  0  0  0  0  0
  2  1  1  0
  3  2  1  0
  3  4  1  6
  5  3  1  0
  5  6  1  1
  7  5  1  0
  7 14  1  0
  8  7  2  0
 10  9  1  0
 10 11  1  0
 11 13  1  0
 11 12  1  1
 13 14  1  6
 15 13  1  0
 16 15  2  0
 18 17  1  1
 18 20  1  0
 18 19  1  0
 19 15  1  0
 20 22  1  0
 21 20  2  0
M  END
$$$$
