ASW.pdb
     RDKit          3D

 26 27  0  0  1  0  0  0  0  0999 V2000
   27.3378  -21.9051  -18.5624 C   0  0  0  0  0  0  0  0  0  0  0  0
   28.6179  -21.3153  -18.0359 C   0  0  2  0  0  0  0  0  0  0  0  0
   29.6894  -22.2294  -18.3173 N   0  0  0  0  0  0  0  0  0  0  0  0
   28.4591  -21.0611  -16.5813 C   0  0  0  0  0  0  0  0  0  0  0  0
   28.8837  -21.9051  -15.7539 O   0  0  0  0  0  0  0  0  0  0  0  0
   26.3825  -17.7847  -14.9999 O   0  0  0  0  0  0  0  0  0  0  0  0
   27.5615  -18.1844  -14.4047 C   0  0  0  0  0  0  0  0  0  0  0  0
   27.8646  -19.6477  -14.6691 C   0  0  2  0  0  0  0  0  0  0  0  0
   27.8410  -19.8919  -16.0697 N   0  0  0  0  0  0  0  0  0  0  0  0
   26.8583  -20.4315  -13.9109 C   0  0  0  0  0  0  0  0  0  0  0  0
   25.8904  -20.8844  -14.5795 O   0  0  0  0  0  0  0  0  0  0  0  0
   26.9597  -20.6695  -12.5138 N   0  0  0  0  0  0  0  0  0  0  0  0
   25.9639  -21.5512  -11.9210 C   0  0  1  0  0  0  0  0  0  0  0  0
   26.4519  -22.1388  -10.6193 C   0  0  0  0  0  0  0  0  0  0  0  0
   26.3721  -21.0848   -9.5793 C   0  0  0  0  0  0  0  0  0  0  0  0
   25.3089  -20.2242   -9.3144 C   0  0  0  0  0  0  0  0  0  0  0  0
   25.6407  -19.4135   -8.2954 N   0  0  0  0  0  0  0  0  0  0  0  0
   26.8909  -19.7042   -7.8706 C   0  0  0  0  0  0  0  0  0  0  0  0
   27.6755  -19.1604   -6.8629 C   0  0  0  0  0  0  0  0  0  0  0  0
   28.9334  -19.6909   -6.6788 C   0  0  0  0  0  0  0  0  0  0  0  0
   29.3919  -20.7300   -7.4751 C   0  0  0  0  0  0  0  0  0  0  0  0
   28.6010  -21.2698   -8.4823 C   0  0  0  0  0  0  0  0  0  0  0  0
   27.3501  -20.7352   -8.6580 C   0  0  0  0  0  0  0  0  0  0  0  0
   24.7736  -20.7218  -11.6180 C   0  0  0  0  0  0  0  0  0  0  0  0
   24.8358  -19.4656  -11.5025 O   0  0  0  0  0  0  0  0  0  0  0  0
   23.5469  -21.3572  -11.4564 O   0  0  0  0  0  0  0  0  0  0  0  0
  2  1  1  1
  3  2  1  0
  4  2  1  0
  4  9  1  0
  5  4  2  0
  6  7  1  0
  8  7  1  6
  8  9  1  0
 10 11  2  0
 10  8  1  0
 12 10  1  0
 13 12  1  0
 13 14  1  1
 15 14  1  0
 15 16  2  0
 17 16  1  0
 18 17  1  0
 19 18  2  0
 20 19  1  0
 21 20  2  0
 21 22  1  0
 22 23  2  0
 23 18  1  0
 23 15  1  0
 24 13  1  0
 25 24  2  0
 26 24  1  0
M  END
$$$$
