ASW.pdb
     RDKit          3D

 26 27  0  0  1  0  0  0  0  0999 V2000
   27.7548  -22.8676  -17.9844 C   0  0  0  0  0  0  0  0  0  0  0  0
   28.6649  -21.7073  -17.6858 C   0  0  2  0  0  0  0  0  0  0  0  0
   30.0110  -22.0903  -18.0083 N   0  0  0  0  0  0  0  0  0  0  0  0
   28.5092  -21.3394  -16.2554 C   0  0  0  0  0  0  0  0  0  0  0  0
   28.9472  -22.1095  -15.3653 O   0  0  0  0  0  0  0  0  0  0  0  0
   26.4350  -17.9519  -15.0192 O   0  0  0  0  0  0  0  0  0  0  0  0
   27.5135  -18.3629  -14.2630 C   0  0  0  0  0  0  0  0  0  0  0  0
   27.8077  -19.8402  -14.4476 C   0  0  2  0  0  0  0  0  0  0  0  0
   27.8795  -20.1402  -15.8357 N   0  0  0  0  0  0  0  0  0  0  0  0
   26.7356  -20.5771  -13.7338 C   0  0  0  0  0  0  0  0  0  0  0  0
   25.8327  -21.0790  -14.4562 O   0  0  0  0  0  0  0  0  0  0  0  0
   26.7084  -20.7207  -12.3205 N   0  0  0  0  0  0  0  0  0  0  0  0
   25.6203  -21.5083  -11.7583 C   0  0  1  0  0  0  0  0  0  0  0  0
   25.9866  -22.0701  -10.4063 C   0  0  0  0  0  0  0  0  0  0  0  0
   26.2713  -20.9339   -9.4969 C   0  0  0  0  0  0  0  0  0  0  0  0
   25.5382  -19.7593   -9.3412 C   0  0  0  0  0  0  0  0  0  0  0  0
   26.1372  -18.9839   -8.4216 N   0  0  0  0  0  0  0  0  0  0  0  0
   27.2466  -19.6019   -7.9576 C   0  0  0  0  0  0  0  0  0  0  0  0
   28.1919  -19.2213   -7.0150 C   0  0  0  0  0  0  0  0  0  0  0  0
   29.2265  -20.0950   -6.7621 C   0  0  0  0  0  0  0  0  0  0  0  0
   29.3135  -21.3083   -7.4287 C   0  0  0  0  0  0  0  0  0  0  0  0
   28.3635  -21.6830   -8.3712 C   0  0  0  0  0  0  0  0  0  0  0  0
   27.3371  -20.8068   -8.6163 C   0  0  0  0  0  0  0  0  0  0  0  0
   24.4734  -20.5898  -11.5643 C   0  0  0  0  0  0  0  0  0  0  0  0
   23.3047  -21.0071  -11.3296 O   0  0  0  0  0  0  0  0  0  0  0  0
   24.7003  -19.2200  -11.6448 O   0  0  0  0  0  0  0  0  0  0  0  0
  2  1  1  1
  3  2  1  0
  4  2  1  0
  4  9  1  0
  5  4  2  0
  6  7  1  0
  8  7  1  6
  8  9  1  0
 10 11  2  0
 10  8  1  0
 12 10  1  0
 13 12  1  0
 13 14  1  1
 15 14  1  0
 15 16  2  0
 17 16  1  0
 18 17  1  0
 19 18  2  0
 20 19  1  0
 21 20  2  0
 21 22  1  0
 22 23  2  0
 23 18  1  0
 23 15  1  0
 24 13  1  0
 25 24  2  0
 26 24  1  0
M  END
$$$$
