ASW.pdb
     RDKit          3D

 26 27  0  0  1  0  0  0  0  0999 V2000
   26.3000  -40.8584   -5.2295 C   0  0  0  0  0  0  0  0  0  0  0  0
   27.6992  -41.2644   -5.6053 C   0  0  2  0  0  0  0  0  0  0  0  0
   28.5330  -41.1534   -4.4412 N   0  0  0  0  0  0  0  0  0  0  0  0
   28.1621  -40.3953   -6.7170 C   0  0  0  0  0  0  0  0  0  0  0  0
   28.9422  -39.4413   -6.4753 O   0  0  0  0  0  0  0  0  0  0  0  0
   26.8508  -40.8752  -10.6444 O   0  0  0  0  0  0  0  0  0  0  0  0
   28.1194  -40.3778  -10.4273 C   0  0  0  0  0  0  0  0  0  0  0  0
   28.2447  -39.7119   -9.0694 C   0  0  2  0  0  0  0  0  0  0  0  0
   27.7605  -40.5916   -8.0627 N   0  0  0  0  0  0  0  0  0  0  0  0
   27.4952  -38.4341   -9.1545 C   0  0  0  0  0  0  0  0  0  0  0  0
   26.3176  -38.4516   -8.7052 O   0  0  0  0  0  0  0  0  0  0  0  0
   28.0521  -37.2490   -9.7060 N   0  0  0  0  0  0  0  0  0  0  0  0
   27.2107  -36.0605   -9.7012 C   0  0  1  0  0  0  0  0  0  0  0  0
   28.0369  -34.7990   -9.7626 C   0  0  0  0  0  0  0  0  0  0  0  0
   27.1482  -33.6511   -9.4601 C   0  0  0  0  0  0  0  0  0  0  0  0
   26.4625  -32.8401  -10.3621 C   0  0  0  0  0  0  0  0  0  0  0  0
   25.7731  -31.9085   -9.6821 N   0  0  0  0  0  0  0  0  0  0  0  0
   25.9755  -32.0703   -8.3551 C   0  0  0  0  0  0  0  0  0  0  0  0
   25.4948  -31.3748   -7.2542 C   0  0  0  0  0  0  0  0  0  0  0  0
   25.8981  -31.7990   -6.0072 C   0  0  0  0  0  0  0  0  0  0  0  0
   26.7531  -32.8819   -5.8650 C   0  0  0  0  0  0  0  0  0  0  0  0
   27.2306  -33.5738   -6.9716 C   0  0  0  0  0  0  0  0  0  0  0  0
   26.8236  -33.1443   -8.2090 C   0  0  0  0  0  0  0  0  0  0  0  0
   26.3801  -36.1104  -10.9276 C   0  0  0  0  0  0  0  0  0  0  0  0
   26.7787  -36.6595  -11.9929 O   0  0  0  0  0  0  0  0  0  0  0  0
   25.1168  -35.5294  -10.8965 O   0  0  0  0  0  0  0  0  0  0  0  0
  2  1  1  1
  3  2  1  0
  4  2  1  0
  4  9  1  0
  5  4  2  0
  6  7  1  0
  8  7  1  6
  8  9  1  0
 10 11  2  0
 10  8  1  0
 12 10  1  0
 13 12  1  0
 13 14  1  6
 15 14  1  0
 15 16  2  0
 17 16  1  0
 18 17  1  0
 19 18  2  0
 20 19  1  0
 21 20  2  0
 21 22  1  0
 22 23  2  0
 23 18  1  0
 23 15  1  0
 24 13  1  0
 25 24  2  0
 26 24  1  0
M  END
$$$$
