ASW.pdb
     RDKit          3D

 26 27  0  0  1  0  0  0  0  0999 V2000
   27.5803  -27.2066  -15.8703 C   0  0  0  0  0  0  0  0  0  0  0  0
   27.3211  -26.4958  -17.1708 C   0  0  2  0  0  0  0  0  0  0  0  0
   28.5847  -26.1568  -17.7634 N   0  0  0  0  0  0  0  0  0  0  0  0
   26.4855  -25.2988  -16.8979 C   0  0  0  0  0  0  0  0  0  0  0  0
   26.9655  -24.3443  -16.2377 O   0  0  0  0  0  0  0  0  0  0  0  0
   22.4576  -24.9409  -18.0676 O   0  0  0  0  0  0  0  0  0  0  0  0
   23.2934  -23.8433  -18.0936 C   0  0  0  0  0  0  0  0  0  0  0  0
   24.4339  -23.9732  -17.1009 C   0  0  2  0  0  0  0  0  0  0  0  0
   25.1482  -25.1764  -17.3533 N   0  0  0  0  0  0  0  0  0  0  0  0
   23.8260  -23.9140  -15.7486 C   0  0  0  0  0  0  0  0  0  0  0  0
   23.7975  -24.9981  -15.1060 O   0  0  0  0  0  0  0  0  0  0  0  0
   23.3009  -22.7172  -15.1912 N   0  0  0  0  0  0  0  0  0  0  0  0
   22.9293  -22.7527  -13.7837 C   0  0  1  0  0  0  0  0  0  0  0  0
   23.3980  -21.5154  -13.0576 C   0  0  0  0  0  0  0  0  0  0  0  0
   22.9242  -20.3306  -13.8128 C   0  0  0  0  0  0  0  0  0  0  0  0
   21.7864  -19.5629  -13.5728 C   0  0  0  0  0  0  0  0  0  0  0  0
   21.7136  -18.5831  -14.4894 N   0  0  0  0  0  0  0  0  0  0  0  0
   22.7655  -18.6707  -15.3343 C   0  0  0  0  0  0  0  0  0  0  0  0
   23.1378  -17.9053  -16.4309 C   0  0  0  0  0  0  0  0  0  0  0  0
   24.2904  -18.2629  -17.0952 C   0  0  0  0  0  0  0  0  0  0  0  0
   25.0457  -19.3488  -16.6778 C   0  0  0  0  0  0  0  0  0  0  0  0
   24.6672  -20.1108  -15.5789 C   0  0  0  0  0  0  0  0  0  0  0  0
   23.5183  -19.7472  -14.9238 C   0  0  0  0  0  0  0  0  0  0  0  0
   21.4485  -22.7708  -13.7249 C   0  0  0  0  0  0  0  0  0  0  0  0
   20.8166  -22.9949  -12.6545 O   0  0  0  0  0  0  0  0  0  0  0  0
   20.7358  -22.5313  -14.8949 O   0  0  0  0  0  0  0  0  0  0  0  0
  2  1  1  1
  3  2  1  0
  4  2  1  0
  4  9  1  0
  5  4  2  0
  6  7  1  0
  8  7  1  6
  8  9  1  0
 10 11  2  0
 10  8  1  0
 12 10  1  0
 13 12  1  0
 13 14  1  1
 15 14  1  0
 15 16  2  0
 17 16  1  0
 18 17  1  0
 19 18  2  0
 20 19  1  0
 21 20  2  0
 21 22  1  0
 22 23  2  0
 23 18  1  0
 23 15  1  0
 24 13  1  0
 25 24  2  0
 26 24  1  0
M  END
$$$$
