ASW.pdb
     RDKit          3D

 26 27  0  0  1  0  0  0  0  0999 V2000
   26.5866  -23.1811  -16.8611 C   0  0  0  0  0  0  0  0  0  0  0  0
   27.4051  -21.9197  -16.8092 C   0  0  2  0  0  0  0  0  0  0  0  0
   28.6076  -22.1264  -17.5667 N   0  0  0  0  0  0  0  0  0  0  0  0
   27.6820  -21.5931  -15.3871 C   0  0  0  0  0  0  0  0  0  0  0  0
   28.4640  -22.3190  -14.7247 O   0  0  0  0  0  0  0  0  0  0  0  0
   26.3222  -18.0858  -13.6451 O   0  0  0  0  0  0  0  0  0  0  0  0
   27.5090  -18.6525  -13.2279 C   0  0  0  0  0  0  0  0  0  0  0  0
   27.5134  -20.1596  -13.4061 C   0  0  2  0  0  0  0  0  0  0  0  0
   27.0974  -20.4827  -14.7269 N   0  0  0  0  0  0  0  0  0  0  0  0
   26.6285  -20.7125  -12.3510 C   0  0  0  0  0  0  0  0  0  0  0  0
   25.4677  -21.0404  -12.7172 O   0  0  0  0  0  0  0  0  0  0  0  0
   27.0442  -20.8716  -11.0017 N   0  0  0  0  0  0  0  0  0  0  0  0
   26.0572  -21.3882  -10.0640 C   0  0  1  0  0  0  0  0  0  0  0  0
   26.6990  -21.8158   -8.7667 C   0  0  0  0  0  0  0  0  0  0  0  0
   27.0488  -20.5949   -8.0012 C   0  0  0  0  0  0  0  0  0  0  0  0
   26.6316  -19.2872   -8.2405 C   0  0  0  0  0  0  0  0  0  0  0  0
   27.1794  -18.4740   -7.3217 N   0  0  0  0  0  0  0  0  0  0  0  0
   27.9490  -19.1954   -6.4760 C   0  0  0  0  0  0  0  0  0  0  0  0
   28.7130  -18.8265   -5.3774 C   0  0  0  0  0  0  0  0  0  0  0  0
   29.3953  -19.8219   -4.7131 C   0  0  0  0  0  0  0  0  0  0  0  0
   29.3169  -21.1417   -5.1325 C   0  0  0  0  0  0  0  0  0  0  0  0
   28.5499  -21.5041   -6.2334 C   0  0  0  0  0  0  0  0  0  0  0  0
   27.8741  -20.5062   -6.8884 C   0  0  0  0  0  0  0  0  0  0  0  0
   25.1259  -20.2771   -9.7564 C   0  0  0  0  0  0  0  0  0  0  0  0
   25.4544  -19.0641   -9.8832 O   0  0  0  0  0  0  0  0  0  0  0  0
   23.8452  -20.5893   -9.3127 O   0  0  0  0  0  0  0  0  0  0  0  0
  2  1  1  1
  3  2  1  0
  4  2  1  0
  4  9  1  0
  5  4  2  0
  6  7  1  0
  8  7  1  6
  8  9  1  0
 10 11  2  0
 10  8  1  0
 12 10  1  0
 13 12  1  0
 13 14  1  1
 15 14  1  0
 15 16  2  0
 17 16  1  0
 18 17  1  0
 19 18  2  0
 20 19  1  0
 21 20  2  0
 21 22  1  0
 22 23  2  0
 23 18  1  0
 23 15  1  0
 24 13  1  0
 25 24  2  0
 26 24  1  0
M  END
$$$$
