ASW.pdb
     RDKit          3D

 26 27  0  0  1  0  0  0  0  0999 V2000
   29.0783  -17.8464  -14.6884 C   0  0  0  0  0  0  0  0  0  0  0  0
   28.2699  -19.0992  -14.8905 C   0  0  2  0  0  0  0  0  0  0  0  0
   27.7327  -19.0838  -16.2224 N   0  0  0  0  0  0  0  0  0  0  0  0
   27.2082  -19.1500  -13.8534 C   0  0  0  0  0  0  0  0  0  0  0  0
   26.3143  -18.2680  -13.8366 O   0  0  0  0  0  0  0  0  0  0  0  0
   25.5420  -22.4127  -12.7531 O   0  0  0  0  0  0  0  0  0  0  0  0
   25.0045  -21.1703  -12.4854 C   0  0  0  0  0  0  0  0  0  0  0  0
   26.0482  -20.1989  -11.9660 C   0  0  2  0  0  0  0  0  0  0  0  0
   27.1513  -20.1629  -12.8626 N   0  0  0  0  0  0  0  0  0  0  0  0
   26.4060  -20.6536  -10.5996 C   0  0  0  0  0  0  0  0  0  0  0  0
   27.2993  -21.5400  -10.5268 O   0  0  0  0  0  0  0  0  0  0  0  0
   25.7910  -20.1345   -9.4286 N   0  0  0  0  0  0  0  0  0  0  0  0
   25.5142  -21.0786   -8.3552 C   0  0  1  0  0  0  0  0  0  0  0  0
   25.4938  -20.3946   -7.0100 C   0  0  0  0  0  0  0  0  0  0  0  0
   26.7990  -19.7178   -6.8174 C   0  0  0  0  0  0  0  0  0  0  0  0
   27.3271  -18.6556   -7.5482 C   0  0  0  0  0  0  0  0  0  0  0  0
   28.5384  -18.3419   -7.0584 N   0  0  0  0  0  0  0  0  0  0  0  0
   28.8372  -19.1596   -6.0239 C   0  0  0  0  0  0  0  0  0  0  0  0
   29.9505  -19.2388   -5.1987 C   0  0  0  0  0  0  0  0  0  0  0  0
   29.9474  -20.2041   -4.2160 C   0  0  0  0  0  0  0  0  0  0  0  0
   28.8679  -21.0616   -4.0630 C   0  0  0  0  0  0  0  0  0  0  0  0
   27.7563  -20.9768   -4.8928 C   0  0  0  0  0  0  0  0  0  0  0  0
   27.7684  -20.0125   -5.8682 C   0  0  0  0  0  0  0  0  0  0  0  0
   24.1591  -21.6279   -8.5973 C   0  0  0  0  0  0  0  0  0  0  0  0
   23.4124  -21.2033   -9.5232 O   0  0  0  0  0  0  0  0  0  0  0  0
   23.7002  -22.6481   -7.7708 O   0  0  0  0  0  0  0  0  0  0  0  0
  2  1  1  1
  3  2  1  0
  4  2  1  0
  4  9  1  0
  5  4  2  0
  6  7  1  0
  8  7  1  6
  8  9  1  0
 10 11  2  0
 10  8  1  0
 12 10  1  0
 13 12  1  0
 13 14  1  1
 15 14  1  0
 15 16  2  0
 17 16  1  0
 18 17  1  0
 19 18  2  0
 20 19  1  0
 21 20  2  0
 21 22  1  0
 22 23  2  0
 23 18  1  0
 23 15  1  0
 24 13  1  0
 25 24  2  0
 26 24  1  0
M  END
$$$$
