ASW.pdb
     RDKit          3D

 26 27  0  0  1  0  0  0  0  0999 V2000
   28.9727  -17.1787  -16.8091 C   0  0  0  0  0  0  0  0  0  0  0  0
   28.9605  -18.6189  -17.2444 C   0  0  2  0  0  0  0  0  0  0  0  0
   28.9700  -18.6601  -18.6800 N   0  0  0  0  0  0  0  0  0  0  0  0
   27.7608  -19.2777  -16.6680 C   0  0  0  0  0  0  0  0  0  0  0  0
   26.8628  -18.5776  -16.1381 O   0  0  0  0  0  0  0  0  0  0  0  0
   27.2314  -23.4472  -16.5321 O   0  0  0  0  0  0  0  0  0  0  0  0
   26.1501  -22.6158  -16.7408 C   0  0  0  0  0  0  0  0  0  0  0  0
   26.3744  -21.2332  -16.1567 C   0  0  2  0  0  0  0  0  0  0  0  0
   27.5742  -20.6832  -16.6859 N   0  0  0  0  0  0  0  0  0  0  0  0
   26.3935  -21.3955  -14.6819 C   0  0  0  0  0  0  0  0  0  0  0  0
   27.5135  -21.6610  -14.1681 O   0  0  0  0  0  0  0  0  0  0  0  0
   25.2301  -21.2638  -13.8768 N   0  0  0  0  0  0  0  0  0  0  0  0
   25.4184  -21.3072  -12.4336 C   0  0  1  0  0  0  0  0  0  0  0  0
   26.3633  -20.2266  -11.9674 C   0  0  0  0  0  0  0  0  0  0  0  0
   26.3968  -20.2518  -10.4851 C   0  0  0  0  0  0  0  0  0  0  0  0
   25.3602  -19.9581   -9.6016 C   0  0  0  0  0  0  0  0  0  0  0  0
   25.8036  -20.0932   -8.3404 N   0  0  0  0  0  0  0  0  0  0  0  0
   27.1027  -20.4678   -8.3520 C   0  0  0  0  0  0  0  0  0  0  0  0
   27.9987  -20.7320   -7.3253 C   0  0  0  0  0  0  0  0  0  0  0  0
   29.2793  -21.0989   -7.6763 C   0  0  0  0  0  0  0  0  0  0  0  0
   29.6520  -21.1985   -9.0086 C   0  0  0  0  0  0  0  0  0  0  0  0
   28.7498  -20.9325  -10.0316 C   0  0  0  0  0  0  0  0  0  0  0  0
   27.4771  -20.5680   -9.6725 C   0  0  0  0  0  0  0  0  0  0  0  0
   24.0980  -21.0434  -11.8143 C   0  0  0  0  0  0  0  0  0  0  0  0
   23.2649  -20.2369  -12.3151 O   0  0  0  0  0  0  0  0  0  0  0  0
   23.7716  -21.7121  -10.6393 O   0  0  0  0  0  0  0  0  0  0  0  0
  2  1  1  6
  3  2  1  0
  4  2  1  0
  4  9  1  0
  5  4  2  0
  6  7  1  0
  8  7  1  6
  8  9  1  0
 10 11  2  0
 10  8  1  0
 12 10  1  0
 13 12  1  0
 13 14  1  1
 15 14  1  0
 15 16  2  0
 17 16  1  0
 18 17  1  0
 19 18  2  0
 20 19  1  0
 21 20  2  0
 21 22  1  0
 22 23  2  0
 23 18  1  0
 23 15  1  0
 24 13  1  0
 25 24  2  0
 26 24  1  0
M  END
$$$$
