ASW.pdb
     RDKit          3D

 26 27  0  0  1  0  0  0  0  0999 V2000
   29.3341  -21.2040  -17.7317 C   0  0  0  0  0  0  0  0  0  0  0  0
   28.2479  -21.7628  -16.8532 C   0  0  2  0  0  0  0  0  0  0  0  0
   26.9769  -21.4138  -17.4238 N   0  0  0  0  0  0  0  0  0  0  0  0
   28.4206  -21.2182  -15.4823 C   0  0  0  0  0  0  0  0  0  0  0  0
   29.4483  -21.5119  -14.8229 O   0  0  0  0  0  0  0  0  0  0  0  0
   26.1686  -18.1236  -14.0433 O   0  0  0  0  0  0  0  0  0  0  0  0
   27.3749  -18.4330  -13.4492 C   0  0  0  0  0  0  0  0  0  0  0  0
   27.6899  -19.9148  -13.5394 C   0  0  2  0  0  0  0  0  0  0  0  0
   27.4663  -20.3676  -14.8687 N   0  0  0  0  0  0  0  0  0  0  0  0
   26.8384  -20.5902  -12.5291 C   0  0  0  0  0  0  0  0  0  0  0  0
   25.7473  -21.0608  -12.9495 O   0  0  0  0  0  0  0  0  0  0  0  0
   27.2112  -20.7105  -11.1633 N   0  0  0  0  0  0  0  0  0  0  0  0
   26.2980  -21.4365  -10.2919 C   0  0  1  0  0  0  0  0  0  0  0  0
   26.9643  -21.8246   -8.9945 C   0  0  0  0  0  0  0  0  0  0  0  0
   27.1355  -20.5977   -8.1794 C   0  0  0  0  0  0  0  0  0  0  0  0
   26.5880  -19.3369   -8.4071 C   0  0  0  0  0  0  0  0  0  0  0  0
   26.9933  -18.4982   -7.4386 N   0  0  0  0  0  0  0  0  0  0  0  0
   27.7938  -19.1573   -6.5709 C   0  0  0  0  0  0  0  0  0  0  0  0
   28.4539  -18.7419   -5.4227 C   0  0  0  0  0  0  0  0  0  0  0  0
   29.2077  -19.6769   -4.7480 C   0  0  0  0  0  0  0  0  0  0  0  0
   29.2988  -20.9833   -5.2053 C   0  0  0  0  0  0  0  0  0  0  0  0
   28.6351  -21.3924   -6.3558 C   0  0  0  0  0  0  0  0  0  0  0  0
   27.8870  -20.4545   -7.0208 C   0  0  0  0  0  0  0  0  0  0  0  0
   25.1846  -20.5150   -9.9637 C   0  0  0  0  0  0  0  0  0  0  0  0
   25.2838  -19.2622  -10.0894 O   0  0  0  0  0  0  0  0  0  0  0  0
   23.9901  -21.0571   -9.5014 O   0  0  0  0  0  0  0  0  0  0  0  0
  2  1  1  6
  3  2  1  0
  4  2  1  0
  4  9  1  0
  5  4  2  0
  6  7  1  0
  8  7  1  6
  8  9  1  0
 10 11  2  0
 10  8  1  0
 12 10  1  0
 13 12  1  0
 13 14  1  1
 15 14  1  0
 15 16  2  0
 17 16  1  0
 18 17  1  0
 19 18  2  0
 20 19  1  0
 21 20  2  0
 21 22  1  0
 22 23  2  0
 23 18  1  0
 23 15  1  0
 24 13  1  0
 25 24  2  0
 26 24  1  0
M  END
$$$$
