ASW.pdb
     RDKit          3D

 26 27  0  0  1  0  0  0  0  0999 V2000
   28.8106  -23.5679  -16.3056 C   0  0  0  0  0  0  0  0  0  0  0  0
   27.3532  -23.2130  -16.4231 C   0  0  2  0  0  0  0  0  0  0  0  0
   27.0832  -22.8450  -17.7849 N   0  0  0  0  0  0  0  0  0  0  0  0
   27.0554  -22.1130  -15.4707 C   0  0  0  0  0  0  0  0  0  0  0  0
   27.7749  -21.0837  -15.4669 O   0  0  0  0  0  0  0  0  0  0  0  0
   23.3527  -21.5707  -13.8768 O   0  0  0  0  0  0  0  0  0  0  0  0
   24.2756  -20.5565  -14.0305 C   0  0  0  0  0  0  0  0  0  0  0  0
   25.6905  -21.0274  -13.7486 C   0  0  2  0  0  0  0  0  0  0  0  0
   25.9798  -22.1669  -14.5483 N   0  0  0  0  0  0  0  0  0  0  0  0
   25.7662  -21.2887  -12.2899 C   0  0  0  0  0  0  0  0  0  0  0  0
   25.4798  -22.4596  -11.9212 O   0  0  0  0  0  0  0  0  0  0  0  0
   26.1370  -20.2929  -11.3466 N   0  0  0  0  0  0  0  0  0  0  0  0
   25.9656  -20.6218   -9.9385 C   0  0  1  0  0  0  0  0  0  0  0  0
   26.6042  -19.5844   -9.0476 C   0  0  0  0  0  0  0  0  0  0  0  0
   26.5004  -20.0546   -7.6451 C   0  0  0  0  0  0  0  0  0  0  0  0
   25.5053  -20.8508   -7.0819 C   0  0  0  0  0  0  0  0  0  0  0  0
   25.7780  -21.0434   -5.7803 N   0  0  0  0  0  0  0  0  0  0  0  0
   26.9229  -20.4020   -5.4551 C   0  0  0  0  0  0  0  0  0  0  0  0
   27.6159  -20.2961   -4.2570 C   0  0  0  0  0  0  0  0  0  0  0  0
   28.7760  -19.5532   -4.2559 C   0  0  0  0  0  0  0  0  0  0  0  0
   29.2284  -18.9368   -5.4132 C   0  0  0  0  0  0  0  0  0  0  0  0
   28.5296  -19.0470   -6.6094 C   0  0  0  0  0  0  0  0  0  0  0  0
   27.3758  -19.7887   -6.6008 C   0  0  0  0  0  0  0  0  0  0  0  0
   24.5094  -20.6114   -9.6632 C   0  0  0  0  0  0  0  0  0  0  0  0
   23.7554  -19.6726  -10.0447 O   0  0  0  0  0  0  0  0  0  0  0  0
   23.9603  -21.6777   -8.9590 O   0  0  0  0  0  0  0  0  0  0  0  0
  2  1  1  6
  3  2  1  0
  4  2  1  0
  4  9  1  0
  5  4  2  0
  6  7  1  0
  8  7  1  1
  8  9  1  0
 10 11  2  0
 10  8  1  0
 12 10  1  0
 13 12  1  0
 13 14  1  1
 15 14  1  0
 15 16  2  0
 17 16  1  0
 18 17  1  0
 19 18  2  0
 20 19  1  0
 21 20  2  0
 21 22  1  0
 22 23  2  0
 23 18  1  0
 23 15  1  0
 24 13  1  0
 25 24  2  0
 26 24  1  0
M  END
$$$$
