ASW.pdb
     RDKit          3D

 26 27  0  0  1  0  0  0  0  0999 V2000
   26.9880  -17.8280  -17.1552 C   0  0  0  0  0  0  0  0  0  0  0  0
   27.2325  -19.0241  -16.2759 C   0  0  2  0  0  0  0  0  0  0  0  0
   26.7852  -20.1986  -16.9711 N   0  0  0  0  0  0  0  0  0  0  0  0
   26.5168  -18.8212  -14.9905 C   0  0  0  0  0  0  0  0  0  0  0  0
   26.7904  -17.8234  -14.2786 O   0  0  0  0  0  0  0  0  0  0  0  0
   23.5013  -21.3831  -13.6183 O   0  0  0  0  0  0  0  0  0  0  0  0
   23.5117  -20.0539  -13.2481 C   0  0  0  0  0  0  0  0  0  0  0  0
   24.9134  -19.4724  -13.2547 C   0  0  2  0  0  0  0  0  0  0  0  0
   25.5214  -19.7135  -14.5173 N   0  0  0  0  0  0  0  0  0  0  0  0
   25.6349  -20.0956  -12.1176 C   0  0  0  0  0  0  0  0  0  0  0  0
   26.2858  -21.1424  -12.3813 O   0  0  0  0  0  0  0  0  0  0  0  0
   25.6074  -19.5612  -10.8014 N   0  0  0  0  0  0  0  0  0  0  0  0
   26.4604  -20.2029   -9.8110 C   0  0  1  0  0  0  0  0  0  0  0  0
   27.0522  -19.1951   -8.8561 C   0  0  0  0  0  0  0  0  0  0  0  0
   28.0379  -19.8964   -7.9985 C   0  0  0  0  0  0  0  0  0  0  0  0
   28.8802  -20.9493   -8.3497 C   0  0  0  0  0  0  0  0  0  0  0  0
   29.6142  -21.3026   -7.2810 N   0  0  0  0  0  0  0  0  0  0  0  0
   29.2902  -20.5201   -6.2271 C   0  0  0  0  0  0  0  0  0  0  0  0
   29.7574  -20.4879   -4.9204 C   0  0  0  0  0  0  0  0  0  0  0  0
   29.2112  -19.5504   -4.0717 C   0  0  0  0  0  0  0  0  0  0  0  0
   28.2308  -18.6744   -4.5139 C   0  0  0  0  0  0  0  0  0  0  0  0
   27.7676  -18.7122   -5.8236 C   0  0  0  0  0  0  0  0  0  0  0  0
   28.3174  -19.6489   -6.6613 C   0  0  0  0  0  0  0  0  0  0  0  0
   25.6000  -21.1149   -9.0209 C   0  0  0  0  0  0  0  0  0  0  0  0
   24.4197  -20.8125   -8.6881 O   0  0  0  0  0  0  0  0  0  0  0  0
   26.1179  -22.3469   -8.6358 O   0  0  0  0  0  0  0  0  0  0  0  0
  2  1  1  6
  3  2  1  0
  4  2  1  0
  4  9  1  0
  5  4  2  0
  6  7  1  0
  8  7  1  6
  8  9  1  0
 10 11  2  0
 10  8  1  0
 12 10  1  0
 13 12  1  0
 13 14  1  1
 15 14  1  0
 15 16  2  0
 17 16  1  0
 18 17  1  0
 19 18  2  0
 20 19  1  0
 21 20  2  0
 21 22  1  0
 22 23  2  0
 23 18  1  0
 23 15  1  0
 24 13  1  0
 25 24  2  0
 26 24  1  0
M  END
$$$$
