ASW.pdb
     RDKit          3D

 26 27  0  0  1  0  0  0  0  0999 V2000
   23.1893  -21.0153  -10.4714 C   0  0  0  0  0  0  0  0  0  0  0  0
   24.5834  -21.0857   -9.9099 C   0  0  2  0  0  0  0  0  0  0  0  0
   24.5641  -20.5522   -8.5766 N   0  0  0  0  0  0  0  0  0  0  0  0
   25.4942  -20.3308  -10.8077 C   0  0  0  0  0  0  0  0  0  0  0  0
   25.7293  -19.1190  -10.5766 O   0  0  0  0  0  0  0  0  0  0  0  0
   27.1573  -21.9309  -14.3108 O   0  0  0  0  0  0  0  0  0  0  0  0
   27.9091  -21.0755  -13.5317 C   0  0  0  0  0  0  0  0  0  0  0  0
   27.0394  -20.1494  -12.7017 C   0  0  2  0  0  0  0  0  0  0  0  0
   26.1238  -20.9198  -11.9335 N   0  0  0  0  0  0  0  0  0  0  0  0
   26.3832  -19.2197  -13.6539 C   0  0  0  0  0  0  0  0  0  0  0  0
   25.2251  -19.5416  -14.0335 O   0  0  0  0  0  0  0  0  0  0  0  0
   27.0049  -18.0314  -14.1233 N   0  0  0  0  0  0  0  0  0  0  0  0
   26.2183  -17.1789  -15.0036 C   0  0  1  0  0  0  0  0  0  0  0  0
   26.8378  -15.8100  -15.1447 C   0  0  0  0  0  0  0  0  0  0  0  0
   25.9577  -14.9934  -16.0150 C   0  0  0  0  0  0  0  0  0  0  0  0
   24.7671  -14.3570  -15.6703 C   0  0  0  0  0  0  0  0  0  0  0  0
   24.2750  -13.7266  -16.7501 N   0  0  0  0  0  0  0  0  0  0  0  0
   25.0977  -13.9207  -17.8052 C   0  0  0  0  0  0  0  0  0  0  0  0
   25.0329  -13.4849  -19.1215 C   0  0  0  0  0  0  0  0  0  0  0  0
   26.0512  -13.8634  -19.9686 C   0  0  0  0  0  0  0  0  0  0  0  0
   27.0991  -14.6511  -19.5154 C   0  0  0  0  0  0  0  0  0  0  0  0
   27.1578  -15.0840  -18.1961 C   0  0  0  0  0  0  0  0  0  0  0  0
   26.1395  -14.7020  -17.3602 C   0  0  0  0  0  0  0  0  0  0  0  0
   26.2254  -17.8124  -16.3434 C   0  0  0  0  0  0  0  0  0  0  0  0
   27.2620  -18.3383  -16.8377 O   0  0  0  0  0  0  0  0  0  0  0  0
   25.0439  -17.8245  -17.0771 O   0  0  0  0  0  0  0  0  0  0  0  0
  2  1  1  6
  3  2  1  0
  4  2  1  0
  4  9  1  0
  5  4  2  0
  6  7  1  0
  8  7  1  6
  8  9  1  0
 10 11  2  0
 10  8  1  0
 12 10  1  0
 13 12  1  0
 13 14  1  6
 15 14  1  0
 15 16  2  0
 17 16  1  0
 18 17  1  0
 19 18  2  0
 20 19  1  0
 21 20  2  0
 21 22  1  0
 22 23  2  0
 23 18  1  0
 23 15  1  0
 24 13  1  0
 25 24  2  0
 26 24  1  0
M  END
$$$$
