ASW.pdb
     RDKit          3D

 26 27  0  0  1  0  0  0  0  0999 V2000
   28.3716  -23.3355  -18.1812 C   0  0  0  0  0  0  0  0  0  0  0  0
   29.0675  -22.0356  -17.8817 C   0  0  2  0  0  0  0  0  0  0  0  0
   30.4779  -22.2179  -18.0828 N   0  0  0  0  0  0  0  0  0  0  0  0
   28.7423  -21.6343  -16.4893 C   0  0  0  0  0  0  0  0  0  0  0  0
   28.9509  -22.4380  -15.5471 O   0  0  0  0  0  0  0  0  0  0  0  0
   26.9507  -17.9854  -15.5126 O   0  0  0  0  0  0  0  0  0  0  0  0
   27.9174  -18.5028  -14.6750 C   0  0  0  0  0  0  0  0  0  0  0  0
   28.0277  -20.0115  -14.7971 C   0  0  2  0  0  0  0  0  0  0  0  0
   28.1982  -20.3660  -16.1635 N   0  0  0  0  0  0  0  0  0  0  0  0
   26.8000  -20.5760  -14.1840 C   0  0  0  0  0  0  0  0  0  0  0  0
   25.9019  -20.9497  -14.9857 O   0  0  0  0  0  0  0  0  0  0  0  0
   26.6257  -20.6974  -12.7791 N   0  0  0  0  0  0  0  0  0  0  0  0
   25.4099  -21.3539  -12.3196 C   0  0  1  0  0  0  0  0  0  0  0  0
   25.6492  -22.1322  -11.0489 C   0  0  0  0  0  0  0  0  0  0  0  0
   26.2627  -21.2169  -10.0566 C   0  0  0  0  0  0  0  0  0  0  0  0
   25.6272  -20.2565   -9.2723 C   0  0  0  0  0  0  0  0  0  0  0  0
   26.5415  -19.6350   -8.5085 N   0  0  0  0  0  0  0  0  0  0  0  0
   27.7673  -20.1486   -8.7565 C   0  0  0  0  0  0  0  0  0  0  0  0
   29.0183  -19.8511   -8.2337 C   0  0  0  0  0  0  0  0  0  0  0  0
   30.0936  -20.5711   -8.7061 C   0  0  0  0  0  0  0  0  0  0  0  0
   29.9244  -21.5554   -9.6687 C   0  0  0  0  0  0  0  0  0  0  0  0
   28.6690  -21.8481  -10.1878 C   0  0  0  0  0  0  0  0  0  0  0  0
   27.6044  -21.1262   -9.7113 C   0  0  0  0  0  0  0  0  0  0  0  0
   24.4288  -20.2867  -12.0114 C   0  0  0  0  0  0  0  0  0  0  0  0
   24.7656  -19.0771  -11.8744 O   0  0  0  0  0  0  0  0  0  0  0  0
   23.0905  -20.6376  -11.8695 O   0  0  0  0  0  0  0  0  0  0  0  0
  2  1  1  1
  3  2  1  0
  4  2  1  0
  4  9  1  0
  5  4  2  0
  6  7  1  0
  8  7  1  6
  8  9  1  0
 10 11  2  0
 10  8  1  0
 12 10  1  0
 13 12  1  0
 13 14  1  1
 15 14  1  0
 15 16  2  0
 17 16  1  0
 18 17  1  0
 19 18  2  0
 20 19  1  0
 21 20  2  0
 21 22  1  0
 22 23  2  0
 23 18  1  0
 23 15  1  0
 24 13  1  0
 25 24  2  0
 26 24  1  0
M  END
$$$$
