ASW.pdb
     RDKit          3D

 26 27  0  0  1  0  0  0  0  0999 V2000
   28.1929  -17.1063  -15.3778 C   0  0  0  0  0  0  0  0  0  0  0  0
   28.1422  -18.5293  -14.8917 C   0  0  2  0  0  0  0  0  0  0  0  0
   27.7479  -19.3703  -15.9871 N   0  0  0  0  0  0  0  0  0  0  0  0
   27.1949  -18.6063  -13.7505 C   0  0  0  0  0  0  0  0  0  0  0  0
   26.3427  -17.6982  -13.5890 O   0  0  0  0  0  0  0  0  0  0  0  0
   25.8917  -22.1426  -13.0109 O   0  0  0  0  0  0  0  0  0  0  0  0
   25.1894  -20.9791  -12.7723 C   0  0  0  0  0  0  0  0  0  0  0  0
   26.0337  -19.9420  -12.0548 C   0  0  2  0  0  0  0  0  0  0  0  0
   27.2040  -19.6732  -12.8164 N   0  0  0  0  0  0  0  0  0  0  0  0
   26.3146  -20.4870  -10.7036 C   0  0  0  0  0  0  0  0  0  0  0  0
   27.2787  -21.2950  -10.6215 O   0  0  0  0  0  0  0  0  0  0  0  0
   25.5548  -20.1330   -9.5563 N   0  0  0  0  0  0  0  0  0  0  0  0
   25.7257  -20.9609   -8.3707 C   0  0  1  0  0  0  0  0  0  0  0  0
   25.5060  -20.1666   -7.1064 C   0  0  0  0  0  0  0  0  0  0  0  0
   26.7674  -19.4574   -6.7826 C   0  0  0  0  0  0  0  0  0  0  0  0
   27.2704  -18.2975   -7.3683 C   0  0  0  0  0  0  0  0  0  0  0  0
   28.4444  -17.9862   -6.7935 N   0  0  0  0  0  0  0  0  0  0  0  0
   28.7425  -18.9001   -5.8427 C   0  0  0  0  0  0  0  0  0  0  0  0
   29.8251  -19.0207   -4.9823 C   0  0  0  0  0  0  0  0  0  0  0  0
   29.8313  -20.0889   -4.1125 C   0  0  0  0  0  0  0  0  0  0  0  0
   28.7907  -21.0059   -4.1028 C   0  0  0  0  0  0  0  0  0  0  0  0
   27.7097  -20.8791   -4.9670 C   0  0  0  0  0  0  0  0  0  0  0  0
   27.7122  -19.8123   -5.8293 C   0  0  0  0  0  0  0  0  0  0  0  0
   24.6851  -22.0150   -8.4223 C   0  0  0  0  0  0  0  0  0  0  0  0
   23.7687  -22.0191   -9.2914 O   0  0  0  0  0  0  0  0  0  0  0  0
   24.7260  -23.0334   -7.4760 O   0  0  0  0  0  0  0  0  0  0  0  0
  2  1  1  6
  3  2  1  0
  4  2  1  0
  4  9  1  0
  5  4  2  0
  6  7  1  0
  8  7  1  6
  8  9  1  0
 10 11  2  0
 10  8  1  0
 12 10  1  0
 13 12  1  0
 13 14  1  1
 15 14  1  0
 15 16  2  0
 17 16  1  0
 18 17  1  0
 19 18  2  0
 20 19  1  0
 21 20  2  0
 21 22  1  0
 22 23  2  0
 23 18  1  0
 23 15  1  0
 24 13  1  0
 25 24  2  0
 26 24  1  0
M  END
$$$$
