ASW.pdb
     RDKit          3D

 26 27  0  0  1  0  0  0  0  0999 V2000
   28.9240  -20.4381  -17.5761 C   0  0  0  0  0  0  0  0  0  0  0  0
   27.8410  -21.1336  -16.7969 C   0  0  2  0  0  0  0  0  0  0  0  0
   26.5766  -20.8336  -17.4085 N   0  0  0  0  0  0  0  0  0  0  0  0
   27.9076  -20.6795  -15.3845 C   0  0  0  0  0  0  0  0  0  0  0  0
   28.9306  -20.9292  -14.7000 O   0  0  0  0  0  0  0  0  0  0  0  0
   24.8889  -18.4009  -13.5127 O   0  0  0  0  0  0  0  0  0  0  0  0
   26.2288  -18.2087  -13.2449 C   0  0  0  0  0  0  0  0  0  0  0  0
   27.0347  -19.4807  -13.4329 C   0  0  2  0  0  0  0  0  0  0  0  0
   26.8553  -19.9649  -14.7577 N   0  0  0  0  0  0  0  0  0  0  0  0
   26.5794  -20.4283  -12.3857 C   0  0  0  0  0  0  0  0  0  0  0  0
   25.9282  -21.4293  -12.7896 O   0  0  0  0  0  0  0  0  0  0  0  0
   26.8498  -20.2383  -11.0039 N   0  0  0  0  0  0  0  0  0  0  0  0
   26.4479  -21.3069  -10.1000 C   0  0  1  0  0  0  0  0  0  0  0  0
   27.4698  -21.5218   -9.0104 C   0  0  0  0  0  0  0  0  0  0  0  0
   27.3604  -20.3989   -8.0481 C   0  0  0  0  0  0  0  0  0  0  0  0
   26.6784  -19.1951   -8.2131 C   0  0  0  0  0  0  0  0  0  0  0  0
   26.8324  -18.4456   -7.1086 N   0  0  0  0  0  0  0  0  0  0  0  0
   27.5950  -19.1090   -6.2106 C   0  0  0  0  0  0  0  0  0  0  0  0
   28.0341  -18.7683   -4.9386 C   0  0  0  0  0  0  0  0  0  0  0  0
   28.8145  -19.6840   -4.2678 C   0  0  0  0  0  0  0  0  0  0  0  0
   29.1452  -20.8995   -4.8486 C   0  0  0  0  0  0  0  0  0  0  0  0
   28.7021  -21.2342   -6.1226 C   0  0  0  0  0  0  0  0  0  0  0  0
   27.9255  -20.3162   -6.7827 C   0  0  0  0  0  0  0  0  0  0  0  0
   25.1869  -20.8767   -9.4510 C   0  0  0  0  0  0  0  0  0  0  0  0
   24.7260  -19.7074   -9.5765 O   0  0  0  0  0  0  0  0  0  0  0  0
   24.4913  -21.7997   -8.6774 O   0  0  0  0  0  0  0  0  0  0  0  0
  2  1  1  6
  3  2  1  0
  4  2  1  0
  4  9  1  0
  5  4  2  0
  6  7  1  0
  8  7  1  6
  8  9  1  0
 10 11  2  0
 10  8  1  0
 12 10  1  0
 13 12  1  0
 13 14  1  1
 15 14  1  0
 15 16  2  0
 17 16  1  0
 18 17  1  0
 19 18  2  0
 20 19  1  0
 21 20  2  0
 21 22  1  0
 22 23  2  0
 23 18  1  0
 23 15  1  0
 24 13  1  0
 25 24  2  0
 26 24  1  0
M  END
$$$$
