ASW.pdb
     RDKit          3D

 26 27  0  0  1  0  0  0  0  0999 V2000
   41.7575  -22.1992    7.1708 C   0  0  0  0  0  0  0  0  0  0  0  0
   41.8274  -23.7011    7.2262 C   0  0  2  0  0  0  0  0  0  0  0  0
   42.7567  -24.1503    6.2275 N   0  0  0  0  0  0  0  0  0  0  0  0
   40.4625  -24.2468    7.0144 C   0  0  0  0  0  0  0  0  0  0  0  0
   40.0028  -24.3335    5.8489 O   0  0  0  0  0  0  0  0  0  0  0  0
   38.3832  -26.1991   10.0338 O   0  0  0  0  0  0  0  0  0  0  0  0
   38.2494  -26.5417    8.7039 C   0  0  0  0  0  0  0  0  0  0  0  0
   38.4110  -25.3423    7.7884 C   0  0  2  0  0  0  0  0  0  0  0  0
   39.6365  -24.6832    8.0812 N   0  0  0  0  0  0  0  0  0  0  0  0
   37.2132  -24.4905    7.9923 C   0  0  0  0  0  0  0  0  0  0  0  0
   37.3855  -23.4474    8.6788 O   0  0  0  0  0  0  0  0  0  0  0  0
   35.9379  -24.8124    7.4550 N   0  0  0  0  0  0  0  0  0  0  0  0
   34.8496  -23.8878    7.7399 C   0  0  1  0  0  0  0  0  0  0  0  0
   33.7986  -23.9219    6.6573 C   0  0  0  0  0  0  0  0  0  0  0  0
   34.2545  -23.0538    5.5449 C   0  0  0  0  0  0  0  0  0  0  0  0
   35.4752  -23.0942    4.8744 C   0  0  0  0  0  0  0  0  0  0  0  0
   35.4951  -22.1330    3.9356 N   0  0  0  0  0  0  0  0  0  0  0  0
   34.3275  -21.4516    3.9567 C   0  0  0  0  0  0  0  0  0  0  0  0
   33.8645  -20.3857    3.1975 C   0  0  0  0  0  0  0  0  0  0  0  0
   32.6014  -19.9094    3.4724 C   0  0  0  0  0  0  0  0  0  0  0  0
   31.8271  -20.4790    4.4722 C   0  0  0  0  0  0  0  0  0  0  0  0
   32.2969  -21.5461    5.2285 C   0  0  0  0  0  0  0  0  0  0  0  0
   33.5555  -22.0136    4.9476 C   0  0  0  0  0  0  0  0  0  0  0  0
   34.2103  -24.3424    8.9973 C   0  0  0  0  0  0  0  0  0  0  0  0
   34.5096  -25.4373    9.5512 O   0  0  0  0  0  0  0  0  0  0  0  0
   33.2467  -23.5281    9.5829 O   0  0  0  0  0  0  0  0  0  0  0  0
  2  1  1  6
  3  2  1  0
  4  2  1  0
  4  9  1  0
  5  4  2  0
  6  7  1  0
  8  7  1  1
  8  9  1  0
 10 11  2  0
 10  8  1  0
 12 10  1  0
 13 12  1  0
 13 14  1  6
 15 14  1  0
 15 16  2  0
 17 16  1  0
 18 17  1  0
 19 18  2  0
 20 19  1  0
 21 20  2  0
 21 22  1  0
 22 23  2  0
 23 18  1  0
 23 15  1  0
 24 13  1  0
 25 24  2  0
 26 24  1  0
M  END
$$$$
