ASW.pdb
     RDKit          3D

 26 27  0  0  1  0  0  0  0  0999 V2000
   23.3637  -18.2375  -14.9147 C   0  0  0  0  0  0  0  0  0  0  0  0
   24.8496  -18.4373  -14.7887 C   0  0  2  0  0  0  0  0  0  0  0  0
   25.4079  -18.5418  -16.1078 N   0  0  0  0  0  0  0  0  0  0  0  0
   25.0964  -19.6532  -13.9725 C   0  0  0  0  0  0  0  0  0  0  0  0
   24.1364  -20.4060  -13.6745 O   0  0  0  0  0  0  0  0  0  0  0  0
   28.8985  -21.0450  -13.2122 O   0  0  0  0  0  0  0  0  0  0  0  0
   27.8239  -21.9101  -13.1861 C   0  0  0  0  0  0  0  0  0  0  0  0
   26.5443  -21.2150  -12.7592 C   0  0  2  0  0  0  0  0  0  0  0  0
   26.3851  -20.0141  -13.5037 N   0  0  0  0  0  0  0  0  0  0  0  0
   26.6491  -20.9985  -11.2950 C   0  0  0  0  0  0  0  0  0  0  0  0
   27.7856  -21.1942  -10.7859 O   0  0  0  0  0  0  0  0  0  0  0  0
   25.5468  -20.5947  -10.4946 N   0  0  0  0  0  0  0  0  0  0  0  0
   25.6596  -20.8112   -9.0590 C   0  0  1  0  0  0  0  0  0  0  0  0
   26.0582  -19.5458   -8.3395 C   0  0  0  0  0  0  0  0  0  0  0  0
   27.4598  -19.6988   -7.8803 C   0  0  0  0  0  0  0  0  0  0  0  0
   28.6123  -19.7657   -8.6604 C   0  0  0  0  0  0  0  0  0  0  0  0
   29.6803  -19.9125   -7.8582 N   0  0  0  0  0  0  0  0  0  0  0  0
   29.2793  -19.9457   -6.5674 C   0  0  0  0  0  0  0  0  0  0  0  0
   29.9881  -20.0795   -5.3815 C   0  0  0  0  0  0  0  0  0  0  0  0
   29.2694  -20.0763   -4.2063 C   0  0  0  0  0  0  0  0  0  0  0  0
   27.8888  -19.9438   -4.2158 C   0  0  0  0  0  0  0  0  0  0  0  0
   27.1854  -19.8102   -5.4069 C   0  0  0  0  0  0  0  0  0  0  0  0
   27.9094  -19.8144   -6.5719 C   0  0  0  0  0  0  0  0  0  0  0  0
   24.3151  -21.1982   -8.5703 C   0  0  0  0  0  0  0  0  0  0  0  0
   23.2794  -21.0948   -9.2858 O   0  0  0  0  0  0  0  0  0  0  0  0
   24.1975  -21.6925   -7.2756 O   0  0  0  0  0  0  0  0  0  0  0  0
  2  1  1  6
  3  2  1  0
  4  2  1  0
  4  9  1  0
  5  4  2  0
  6  7  1  0
  8  7  1  6
  8  9  1  0
 10 11  2  0
 10  8  1  0
 12 10  1  0
 13 12  1  0
 13 14  1  1
 15 14  1  0
 15 16  2  0
 17 16  1  0
 18 17  1  0
 19 18  2  0
 20 19  1  0
 21 20  2  0
 21 22  1  0
 22 23  2  0
 23 18  1  0
 23 15  1  0
 24 13  1  0
 25 24  2  0
 26 24  1  0
M  END
$$$$
