PSI.pdb
     RDKit          3D

 22 22  0  0  1  0  0  0  0  0999 V2000
   22.7607  -18.3435  -17.9441 N   0  0  0  0  0  0  0  0  0  0  0  0
   21.9966  -17.1602  -18.3092 C   0  0  0  0  0  0  0  0  0  0  0  0
   21.7419  -16.4162  -17.0346 C   0  0  0  0  0  0  0  0  0  0  0  0
   22.6394  -17.1033  -16.0100 C   0  0  0  0  0  0  0  0  0  0  0  0
   23.6270  -17.8174  -16.9091 C   0  0  1  0  0  0  0  0  0  0  0  0
   24.3073  -18.8934  -16.1519 C   0  0  0  0  0  0  0  0  0  0  0  0
   23.5945  -19.8114  -15.6870 O   0  0  0  0  0  0  0  0  0  0  0  0
   28.5229  -19.1374  -15.6395 O   0  0  0  0  0  0  0  0  0  0  0  0
   27.7358  -20.2505  -15.7945 C   0  0  0  0  0  0  0  0  0  0  0  0
   26.3667  -20.0001  -15.2025 C   0  0  2  0  0  0  0  0  0  0  0  0
   25.7147  -18.9133  -15.9428 N   0  0  0  0  0  0  0  0  0  0  0  0
   26.3778  -19.6965  -13.7685 C   0  0  0  0  0  0  0  0  0  0  0  0
   26.5418  -18.5026  -13.4029 O   0  0  0  0  0  0  0  0  0  0  0  0
   22.7130  -20.4187  -10.2924 C   0  0  0  0  0  0  0  0  0  0  0  0
   23.9229  -19.8497  -11.0024 C   0  0  0  0  0  0  0  0  0  0  0  0
   25.1357  -20.5731  -10.5179 C   0  0  2  0  0  0  0  0  0  0  0  0
   25.4131  -20.1913   -9.0889 C   0  0  0  0  0  0  0  0  0  0  0  0
   26.3696  -20.2958  -11.3330 C   0  0  2  0  0  0  0  0  0  0  0  0
   26.2172  -20.6420  -12.7226 N   0  0  0  0  0  0  0  0  0  0  0  0
   27.4830  -21.0865  -10.7667 C   0  0  0  0  0  0  0  0  0  0  0  0
   28.3709  -20.5878  -10.0266 O   0  0  0  0  0  0  0  0  0  0  0  0
   27.5609  -22.4357  -11.0575 O   0  0  0  0  0  0  0  0  0  0  0  0
  2  1  1  0
  3  2  1  0
  4  3  1  0
  4  5  1  0
  5  1  1  0
  5  6  1  1
  6 11  1  0
  7  6  2  0
  8  9  1  0
 10  9  1  6
 10 11  1  0
 10 12  1  0
 12 13  2  0
 12 19  1  0
 15 14  1  0
 16 17  1  1
 16 15  1  0
 18 16  1  0
 18 19  1  6
 20 18  1  0
 20 22  1  0
 21 20  2  0
M  END
$$$$
