PSI.pdb
     RDKit          3D

 22 22  0  0  1  0  0  0  0  0999 V2000
   19.0051  -12.2261  -17.7988 N   0  0  0  0  0  0  0  0  0  0  0  0
   18.0866  -13.3053  -18.1289 C   0  0  0  0  0  0  0  0  0  0  0  0
   17.9808  -14.1559  -16.9008 C   0  0  0  0  0  0  0  0  0  0  0  0
   18.6614  -13.3330  -15.8113 C   0  0  0  0  0  0  0  0  0  0  0  0
   18.6395  -11.9485  -16.4248 C   0  0  1  0  0  0  0  0  0  0  0  0
   19.6335  -11.0841  -15.7476 C   0  0  0  0  0  0  0  0  0  0  0  0
   19.3623  -10.6890  -14.5912 O   0  0  0  0  0  0  0  0  0  0  0  0
   24.1745   -9.4605  -15.5304 O   0  0  0  0  0  0  0  0  0  0  0  0
   23.2367  -10.2646  -16.1275 C   0  0  0  0  0  0  0  0  0  0  0  0
   21.8532   -9.8883  -15.6457 C   0  0  2  0  0  0  0  0  0  0  0  0
   20.8591  -10.6988  -16.3594 N   0  0  0  0  0  0  0  0  0  0  0  0
   21.5348   -8.4643  -15.7841 C   0  0  0  0  0  0  0  0  0  0  0  0
   21.2331   -8.0184  -16.9226 O   0  0  0  0  0  0  0  0  0  0  0  0
   17.9788   -4.2055  -15.3401 C   0  0  0  0  0  0  0  0  0  0  0  0
   19.4727   -4.3586  -15.1489 C   0  0  0  0  0  0  0  0  0  0  0  0
   19.7790   -5.8102  -14.9816 C   0  0  2  0  0  0  0  0  0  0  0  0
   19.1594   -6.3122  -13.7053 C   0  0  0  0  0  0  0  0  0  0  0  0
   21.2517   -6.1164  -14.9485 C   0  0  2  0  0  0  0  0  0  0  0  0
   21.5328   -7.5121  -14.7319 N   0  0  0  0  0  0  0  0  0  0  0  0
   21.8603   -5.3342  -13.8515 C   0  0  0  0  0  0  0  0  0  0  0  0
   21.9979   -4.0837  -13.8955 O   0  0  0  0  0  0  0  0  0  0  0  0
   22.3013   -5.9978  -12.7218 O   0  0  0  0  0  0  0  0  0  0  0  0
  2  1  1  0
  3  2  1  0
  4  3  1  0
  4  5  1  0
  5  1  1  0
  5  6  1  1
  6 11  1  0
  7  6  2  0
  8  9  1  0
 10  9  1  6
 10 11  1  0
 10 12  1  0
 12 13  2  0
 12 19  1  0
 15 14  1  0
 16 17  1  1
 16 15  1  0
 18 16  1  0
 18 19  1  1
 20 18  1  0
 20 22  1  0
 21 20  2  0
M  END
$$$$
