PSI.pdb
     RDKit          3D

 22 22  0  0  1  0  0  0  0  0999 V2000
   19.5086  -12.3910  -18.9237 N   0  0  0  0  0  0  0  0  0  0  0  0
   18.3889  -13.3201  -18.9451 C   0  0  0  0  0  0  0  0  0  0  0  0
   17.4722  -12.8968  -17.8390 C   0  0  0  0  0  0  0  0  0  0  0  0
   18.0074  -11.5360  -17.4043 C   0  0  0  0  0  0  0  0  0  0  0  0
   18.8413  -11.1449  -18.6065 C   0  0  1  0  0  0  0  0  0  0  0  0
   19.7994  -10.0808  -18.2276 C   0  0  0  0  0  0  0  0  0  0  0  0
   20.8184  -10.4232  -17.5862 O   0  0  0  0  0  0  0  0  0  0  0  0
   19.0312   -5.9467  -18.6545 O   0  0  0  0  0  0  0  0  0  0  0  0
   20.2809   -6.4177  -18.9690 C   0  0  0  0  0  0  0  0  0  0  0  0
   20.5692   -7.6781  -18.1842 C   0  0  2  0  0  0  0  0  0  0  0  0
   19.5996   -8.7126  -18.5637 N   0  0  0  0  0  0  0  0  0  0  0  0
   20.5666   -7.4949  -16.7300 C   0  0  0  0  0  0  0  0  0  0  0  0
   19.5169   -7.7613  -16.0872 O   0  0  0  0  0  0  0  0  0  0  0  0
   23.0946  -10.1934  -13.4146 C   0  0  0  0  0  0  0  0  0  0  0  0
   22.1649   -9.2909  -14.1975 C   0  0  0  0  0  0  0  0  0  0  0  0
   22.4097   -7.8810  -13.7720 C   0  0  2  0  0  0  0  0  0  0  0  0
   22.1126   -7.7388  -12.3035 C   0  0  0  0  0  0  0  0  0  0  0  0
   21.5856   -6.8718  -14.5244 C   0  0  2  0  0  0  0  0  0  0  0  0
   21.6615   -7.0344  -15.9534 N   0  0  0  0  0  0  0  0  0  0  0  0
   22.0774   -5.5223  -14.1741 C   0  0  0  0  0  0  0  0  0  0  0  0
   22.7081   -4.7914  -14.9818 O   0  0  0  0  0  0  0  0  0  0  0  0
   21.8382   -5.0323  -12.9037 O   0  0  0  0  0  0  0  0  0  0  0  0
  2  1  1  0
  3  2  1  0
  4  3  1  0
  4  5  1  0
  5  1  1  0
  5  6  1  1
  6 11  1  0
  7  6  2  0
  8  9  1  0
 10  9  1  6
 10 11  1  0
 10 12  1  0
 12 13  2  0
 12 19  1  0
 15 14  1  0
 16 17  1  1
 16 15  1  0
 18 16  1  0
 18 19  1  6
 20 18  1  0
 20 22  1  0
 21 20  2  0
M  END
$$$$
