PSI.pdb
     RDKit          3D

 22 22  0  0  1  0  0  0  0  0999 V2000
   21.8456  -16.1364  -18.0512 N   0  0  0  0  0  0  0  0  0  0  0  0
   21.4618  -17.5339  -18.1816 C   0  0  0  0  0  0  0  0  0  0  0  0
   20.6882  -17.6384  -19.4598 C   0  0  0  0  0  0  0  0  0  0  0  0
   20.9123  -16.2956  -20.1481 C   0  0  0  0  0  0  0  0  0  0  0  0
   22.1446  -15.7916  -19.4261 C   0  0  1  0  0  0  0  0  0  0  0  0
   22.2749  -14.3286  -19.6177 C   0  0  0  0  0  0  0  0  0  0  0  0
   22.6082  -13.9227  -20.7540 O   0  0  0  0  0  0  0  0  0  0  0  0
   20.8754  -10.3140  -20.1169 O   0  0  0  0  0  0  0  0  0  0  0  0
   20.9333  -11.6619  -19.8673 C   0  0  0  0  0  0  0  0  0  0  0  0
   21.9939  -11.9486  -18.8278 C   0  0  2  0  0  0  0  0  0  0  0  0
   22.0377  -13.3932  -18.5719 N   0  0  0  0  0  0  0  0  0  0  0  0
   21.8148  -11.2196  -17.5689 C   0  0  0  0  0  0  0  0  0  0  0  0
   21.0106  -11.6753  -16.7135 O   0  0  0  0  0  0  0  0  0  0  0  0
   25.9935  -10.6704  -14.7596 C   0  0  0  0  0  0  0  0  0  0  0  0
   24.5781  -10.8461  -15.2668 C   0  0  0  0  0  0  0  0  0  0  0  0
   23.9150   -9.5086  -15.2831 C   0  0  2  0  0  0  0  0  0  0  0  0
   23.8462   -8.9630  -13.8822 C   0  0  0  0  0  0  0  0  0  0  0  0
   22.5231   -9.5319  -15.8539 C   0  0  2  0  0  0  0  0  0  0  0  0
   22.4773  -10.0173  -17.2090 N   0  0  0  0  0  0  0  0  0  0  0  0
   21.9905   -8.1531  -15.8258 C   0  0  0  0  0  0  0  0  0  0  0  0
   22.0172   -7.3874  -16.8247 O   0  0  0  0  0  0  0  0  0  0  0  0
   21.4361   -7.6740  -14.6536 O   0  0  0  0  0  0  0  0  0  0  0  0
  2  1  1  0
  3  2  1  0
  4  3  1  0
  4  5  1  0
  5  1  1  0
  5  6  1  1
  6 11  1  0
  7  6  2  0
  8  9  1  0
 10  9  1  6
 10 11  1  0
 10 12  1  0
 12 13  2  0
 12 19  1  0
 15 14  1  0
 16 17  1  1
 16 15  1  0
 18 16  1  0
 18 19  1  6
 20 18  1  0
 20 22  1  0
 21 20  2  0
M  END
$$$$
