PSI.pdb
     RDKit          3D

 22 22  0  0  1  0  0  0  0  0999 V2000
   17.4851  -14.8652  -17.3743 N   0  0  0  0  0  0  0  0  0  0  0  0
   16.7702  -16.1151  -17.5846 C   0  0  0  0  0  0  0  0  0  0  0  0
   16.1747  -16.0315  -18.9562 C   0  0  0  0  0  0  0  0  0  0  0  0
   16.8324  -14.8044  -19.5797 C   0  0  0  0  0  0  0  0  0  0  0  0
   18.0452  -14.6305  -18.6895 C   0  0  1  0  0  0  0  0  0  0  0  0
   18.5781  -13.2557  -18.8307 C   0  0  0  0  0  0  0  0  0  0  0  0
   19.2023  -12.9836  -19.8811 O   0  0  0  0  0  0  0  0  0  0  0  0
   16.9742   -9.6952  -17.7638 O   0  0  0  0  0  0  0  0  0  0  0  0
   17.9786  -10.0111  -18.6436 C   0  0  0  0  0  0  0  0  0  0  0  0
   18.9856  -10.9182  -17.9721 C   0  0  2  0  0  0  0  0  0  0  0  0
   18.4050  -12.2587  -17.8303 N   0  0  0  0  0  0  0  0  0  0  0  0
   19.4580  -10.4340  -16.6718 C   0  0  0  0  0  0  0  0  0  0  0  0
   18.8560  -10.8076  -15.6306 O   0  0  0  0  0  0  0  0  0  0  0  0
   22.5200  -11.6559  -14.0308 C   0  0  0  0  0  0  0  0  0  0  0  0
   22.9395  -10.8109  -15.2147 C   0  0  0  0  0  0  0  0  0  0  0  0
   22.5000   -9.4055  -14.9686 C   0  0  2  0  0  0  0  0  0  0  0  0
   22.8689   -9.0000  -13.5671 C   0  0  0  0  0  0  0  0  0  0  0  0
   21.0216   -9.1947  -15.1518 C   0  0  2  0  0  0  0  0  0  0  0  0
   20.5580   -9.5616  -16.4651 N   0  0  0  0  0  0  0  0  0  0  0  0
   20.7294   -7.7628  -14.9287 C   0  0  0  0  0  0  0  0  0  0  0  0
   20.7535   -6.9064  -15.8510 O   0  0  0  0  0  0  0  0  0  0  0  0
   20.4142   -7.3354  -13.6524 O   0  0  0  0  0  0  0  0  0  0  0  0
  2  1  1  0
  3  2  1  0
  4  3  1  0
  4  5  1  0
  5  1  1  0
  5  6  1  1
  6 11  1  0
  7  6  2  0
  8  9  1  0
 10  9  1  1
 10 11  1  0
 10 12  1  0
 12 13  2  0
 12 19  1  0
 15 14  1  0
 16 17  1  1
 16 15  1  0
 18 16  1  0
 18 19  1  6
 20 18  1  0
 20 22  1  0
 21 20  2  0
M  END
$$$$
