PSI.pdb
     RDKit          3D

 22 22  0  0  1  0  0  0  0  0999 V2000
   17.8964  -24.0891  -11.6333 N   0  0  0  0  0  0  0  0  0  0  0  0
   18.0058  -24.1055  -13.0842 C   0  0  0  0  0  0  0  0  0  0  0  0
   18.9662  -25.2046  -13.4196 C   0  0  0  0  0  0  0  0  0  0  0  0
   19.1516  -25.9584  -12.1063 C   0  0  0  0  0  0  0  0  0  0  0  0
   17.9350  -25.5045  -11.3268 C   0  0  1  0  0  0  0  0  0  0  0  0
   18.1425  -25.7561   -9.8820 C   0  0  0  0  0  0  0  0  0  0  0  0
   18.2324  -26.9481   -9.5107 O   0  0  0  0  0  0  0  0  0  0  0  0
   19.3578  -23.9284   -5.5570 O   0  0  0  0  0  0  0  0  0  0  0  0
   19.1565  -23.7319   -6.8999 C   0  0  0  0  0  0  0  0  0  0  0  0
   18.5574  -24.9753   -7.5186 C   0  0  2  0  0  0  0  0  0  0  0  0
   18.2402  -24.7064   -8.9262 N   0  0  0  0  0  0  0  0  0  0  0  0
   17.3707  -25.4814   -6.8229 C   0  0  0  0  0  0  0  0  0  0  0  0
   16.2363  -25.0658   -7.1784 O   0  0  0  0  0  0  0  0  0  0  0  0
   16.7046  -30.4561   -4.2969 C   0  0  0  0  0  0  0  0  0  0  0  0
   16.5662  -29.2202   -5.1600 C   0  0  0  0  0  0  0  0  0  0  0  0
   16.3004  -28.0520   -4.2693 C   0  0  2  0  0  0  0  0  0  0  0  0
   15.0221  -28.2788   -3.5082 C   0  0  0  0  0  0  0  0  0  0  0  0
   16.1905  -26.7444   -5.0055 C   0  0  2  0  0  0  0  0  0  0  0  0
   17.3745  -26.4199   -5.7585 N   0  0  0  0  0  0  0  0  0  0  0  0
   15.9523  -25.6753   -4.0125 C   0  0  0  0  0  0  0  0  0  0  0  0
   14.8049  -25.2332   -3.7431 O   0  0  0  0  0  0  0  0  0  0  0  0
   17.0329  -25.1302   -3.3444 O   0  0  0  0  0  0  0  0  0  0  0  0
  2  1  1  0
  3  2  1  0
  4  3  1  0
  4  5  1  0
  5  1  1  0
  5  6  1  1
  6 11  1  0
  7  6  2  0
  8  9  1  0
 10  9  1  1
 10 11  1  0
 10 12  1  0
 12 13  2  0
 12 19  1  0
 15 14  1  0
 16 17  1  6
 16 15  1  0
 18 16  1  0
 18 19  1  1
 20 18  1  0
 20 22  1  0
 21 20  2  0
M  END
$$$$
