PSI.pdb
     RDKit          3D

 22 22  0  0  1  0  0  0  0  0999 V2000
   18.7850  -13.0897    5.2714 N   0  0  0  0  0  0  0  0  0  0  0  0
   18.5342  -12.0930    4.2413 C   0  0  0  0  0  0  0  0  0  0  0  0
   17.4640  -12.6607    3.3608 C   0  0  0  0  0  0  0  0  0  0  0  0
   16.9548  -13.8802    4.1229 C   0  0  0  0  0  0  0  0  0  0  0  0
   17.4469  -13.5838    5.5243 C   0  0  1  0  0  0  0  0  0  0  0  0
   17.4551  -14.8287    6.3268 C   0  0  0  0  0  0  0  0  0  0  0  0
   16.3489  -15.2894    6.6889 O   0  0  0  0  0  0  0  0  0  0  0  0
   18.3579  -18.3200    5.7991 O   0  0  0  0  0  0  0  0  0  0  0  0
   17.7262  -17.7361    6.8681 C   0  0  0  0  0  0  0  0  0  0  0  0
   18.6388  -16.7160    7.5117 C   0  0  2  0  0  0  0  0  0  0  0  0
   18.6560  -15.5003    6.6894 N   0  0  0  0  0  0  0  0  0  0  0  0
   20.0071  -17.1906    7.7373 C   0  0  0  0  0  0  0  0  0  0  0  0
   20.8269  -17.1536    6.7819 O   0  0  0  0  0  0  0  0  0  0  0  0
   24.6507  -15.5675   10.4602 C   0  0  0  0  0  0  0  0  0  0  0  0
   24.0370  -16.9047   10.1039 C   0  0  0  0  0  0  0  0  0  0  0  0
   22.5945  -16.6901    9.7849 C   0  0  2  0  0  0  0  0  0  0  0  0
   21.8554  -16.2935   11.0345 C   0  0  0  0  0  0  0  0  0  0  0  0
   21.9201  -17.8995    9.1964 C   0  0  2  0  0  0  0  0  0  0  0  0
   20.5131  -17.7018    8.9606 N   0  0  0  0  0  0  0  0  0  0  0  0
   22.0892  -19.0256   10.1393 C   0  0  0  0  0  0  0  0  0  0  0  0
   23.1559  -19.6875   10.2324 O   0  0  0  0  0  0  0  0  0  0  0  0
   21.0331  -19.3749   10.9601 O   0  0  0  0  0  0  0  0  0  0  0  0
  2  1  1  0
  3  2  1  0
  4  3  1  0
  4  5  1  0
  5  1  1  0
  5  6  1  1
  6 11  1  0
  7  6  2  0
  8  9  1  0
 10  9  1  6
 10 11  1  0
 10 12  1  0
 12 13  2  0
 12 19  1  0
 15 14  1  0
 16 17  1  1
 16 15  1  0
 18 16  1  0
 18 19  1  1
 20 18  1  0
 20 22  1  0
 21 20  2  0
M  END
$$$$
