PSI.pdb
     RDKit          3D

 22 22  0  0  1  0  0  0  0  0999 V2000
   26.8472  -19.7477  -14.3706 N   0  0  0  0  0  0  0  0  0  0  0  0
   27.6201  -20.4457  -15.3869 C   0  0  0  0  0  0  0  0  0  0  0  0
   28.8513  -20.9533  -14.7017 C   0  0  0  0  0  0  0  0  0  0  0  0
   28.5728  -20.7402  -13.2171 C   0  0  0  0  0  0  0  0  0  0  0  0
   27.0656  -20.5922  -13.2140 C   0  0  1  0  0  0  0  0  0  0  0  0
   26.6282  -19.9403  -11.9579 C   0  0  0  0  0  0  0  0  0  0  0  0
   26.6417  -18.6891  -11.9219 O   0  0  0  0  0  0  0  0  0  0  0  0
   24.0175  -21.4715   -9.3691 O   0  0  0  0  0  0  0  0  0  0  0  0
   24.3831  -20.1509   -9.2997 C   0  0  0  0  0  0  0  0  0  0  0  0
   25.8679  -20.0131   -9.5530 C   0  0  2  0  0  0  0  0  0  0  0  0
   26.2032  -20.6780  -10.8178 N   0  0  0  0  0  0  0  0  0  0  0  0
   26.7128  -20.5305   -8.4727 C   0  0  0  0  0  0  0  0  0  0  0  0
   27.2007  -21.6860   -8.5853 O   0  0  0  0  0  0  0  0  0  0  0  0
   29.5364  -17.4264   -4.9074 C   0  0  0  0  0  0  0  0  0  0  0  0
   29.3927  -18.6757   -5.7502 C   0  0  0  0  0  0  0  0  0  0  0  0
   28.2829  -19.4991   -5.1850 C   0  0  2  0  0  0  0  0  0  0  0  0
   28.7817  -20.2647   -3.9892 C   0  0  0  0  0  0  0  0  0  0  0  0
   27.6973  -20.4776   -6.1664 C   0  0  2  0  0  0  0  0  0  0  0  0
   27.0445  -19.8378   -7.2794 N   0  0  0  0  0  0  0  0  0  0  0  0
   26.7073  -21.3107   -5.4512 C   0  0  0  0  0  0  0  0  0  0  0  0
   27.0261  -22.3157   -4.7634 O   0  0  0  0  0  0  0  0  0  0  0  0
   25.3680  -20.9786   -5.5357 O   0  0  0  0  0  0  0  0  0  0  0  0
  2  1  1  0
  3  2  1  0
  4  3  1  0
  4  5  1  0
  5  1  1  0
  5  6  1  1
  6 11  1  0
  7  6  2  0
  8  9  1  0
 10  9  1  1
 10 11  1  0
 10 12  1  0
 12 13  2  0
 12 19  1  0
 15 14  1  0
 16 17  1  1
 16 15  1  0
 18 16  1  0
 18 19  1  6
 20 18  1  0
 20 22  1  0
 21 20  2  0
M  END
$$$$
