PSI.pdb
     RDKit          3D

 22 22  0  0  1  0  0  0  0  0999 V2000
   16.1609  -11.3335  -17.6823 N   0  0  0  0  0  0  0  0  0  0  0  0
   15.6001  -12.4671  -18.4019 C   0  0  0  0  0  0  0  0  0  0  0  0
   16.2059  -12.4353  -19.7712 C   0  0  0  0  0  0  0  0  0  0  0  0
   17.3247  -11.4036  -19.6657 C   0  0  0  0  0  0  0  0  0  0  0  0
   17.5263  -11.3336  -18.1663 C   0  0  1  0  0  0  0  0  0  0  0  0
   18.2422  -10.0856  -17.8143 C   0  0  0  0  0  0  0  0  0  0  0  0
   19.4914  -10.0946  -17.8939 O   0  0  0  0  0  0  0  0  0  0  0  0
   16.5005   -6.6335  -15.9945 O   0  0  0  0  0  0  0  0  0  0  0  0
   17.2969   -6.5093  -17.1048 C   0  0  0  0  0  0  0  0  0  0  0  0
   18.2892   -7.6497  -17.1574 C   0  0  2  0  0  0  0  0  0  0  0  0
   17.5666   -8.9044  -17.3979 N   0  0  0  0  0  0  0  0  0  0  0  0
   19.1278   -7.7729  -15.9616 C   0  0  0  0  0  0  0  0  0  0  0  0
   18.6855   -8.4185  -14.9748 O   0  0  0  0  0  0  0  0  0  0  0  0
   23.6661  -10.0520  -13.4774 C   0  0  0  0  0  0  0  0  0  0  0  0
   22.9388   -8.7267  -13.3978 C   0  0  0  0  0  0  0  0  0  0  0  0
   22.1145   -8.5678  -14.6323 C   0  0  2  0  0  0  0  0  0  0  0  0
   23.0183   -8.4313  -15.8279 C   0  0  0  0  0  0  0  0  0  0  0  0
   21.1930   -7.3791  -14.5938 C   0  0  2  0  0  0  0  0  0  0  0  0
   20.4254   -7.2211  -15.8021 N   0  0  0  0  0  0  0  0  0  0  0  0
   22.0139   -6.1663  -14.3916 C   0  0  0  0  0  0  0  0  0  0  0  0
   22.5841   -5.8982  -13.3018 O   0  0  0  0  0  0  0  0  0  0  0  0
   22.1681   -5.2803  -15.4415 O   0  0  0  0  0  0  0  0  0  0  0  0
  2  1  1  0
  3  2  1  0
  4  3  1  0
  4  5  1  0
  5  1  1  0
  5  6  1  6
  6 11  1  0
  7  6  2  0
  8  9  1  0
 10  9  1  1
 10 11  1  0
 10 12  1  0
 12 13  2  0
 12 19  1  0
 15 14  1  0
 16 17  1  6
 16 15  1  0
 18 16  1  0
 18 19  1  6
 20 18  1  0
 20 22  1  0
 21 20  2  0
M  END
$$$$
