PSI.pdb
     RDKit          3D

 22 22  0  0  1  0  0  0  0  0999 V2000
   21.3102  -13.4499  -18.9008 N   0  0  0  0  0  0  0  0  0  0  0  0
   21.3812  -13.8446  -20.2996 C   0  0  0  0  0  0  0  0  0  0  0  0
   20.9550  -12.6489  -21.0943 C   0  0  0  0  0  0  0  0  0  0  0  0
   20.9215  -11.5117  -20.0780 C   0  0  0  0  0  0  0  0  0  0  0  0
   21.7773  -12.0802  -18.9652 C   0  0  1  0  0  0  0  0  0  0  0  0
   21.5178  -11.3435  -17.7067 C   0  0  0  0  0  0  0  0  0  0  0  0
   20.4009  -11.5026  -17.1644 O   0  0  0  0  0  0  0  0  0  0  0  0
   24.2444  -10.3336  -14.9459 O   0  0  0  0  0  0  0  0  0  0  0  0
   22.8908  -10.3334  -14.7220 C   0  0  0  0  0  0  0  0  0  0  0  0
   22.1738   -9.7099  -15.8988 C   0  0  2  0  0  0  0  0  0  0  0  0
   22.4791  -10.4803  -17.1103 N   0  0  0  0  0  0  0  0  0  0  0  0
   22.4853   -8.2935  -16.1111 C   0  0  0  0  0  0  0  0  0  0  0  0
   23.3933   -7.9883  -16.9286 O   0  0  0  0  0  0  0  0  0  0  0  0
   20.7042   -2.9594  -17.6241 C   0  0  0  0  0  0  0  0  0  0  0  0
   21.6731   -3.6089  -16.6591 C   0  0  0  0  0  0  0  0  0  0  0  0
   21.3103   -5.0511  -16.5280 C   0  0  2  0  0  0  0  0  0  0  0  0
   19.9268   -5.1723  -15.9482 C   0  0  0  0  0  0  0  0  0  0  0  0
   22.2592   -5.8359  -15.6634 C   0  0  2  0  0  0  0  0  0  0  0  0
   21.8461   -7.2017  -15.4682 N   0  0  0  0  0  0  0  0  0  0  0  0
   22.3381   -5.1713  -14.3452 C   0  0  0  0  0  0  0  0  0  0  0  0
   21.7639   -5.6169  -13.3174 O   0  0  0  0  0  0  0  0  0  0  0  0
   23.0737   -4.0070  -14.2261 O   0  0  0  0  0  0  0  0  0  0  0  0
  2  1  1  0
  3  2  1  0
  4  3  1  0
  4  5  1  0
  5  1  1  0
  5  6  1  1
  6 11  1  0
  7  6  2  0
  8  9  1  0
 10  9  1  1
 10 11  1  0
 10 12  1  0
 12 13  2  0
 12 19  1  0
 15 14  1  0
 16 17  1  1
 16 15  1  0
 18 16  1  0
 18 19  1  1
 20 18  1  0
 20 22  1  0
 21 20  2  0
M  END
$$$$
