PSI.pdb
     RDKit          3D

 22 22  0  0  1  0  0  0  0  0999 V2000
   24.4652  -19.1392  -17.9792 N   0  0  0  0  0  0  0  0  0  0  0  0
   23.8215  -19.0095  -19.2777 C   0  0  0  0  0  0  0  0  0  0  0  0
   23.5957  -20.4042  -19.7746 C   0  0  0  0  0  0  0  0  0  0  0  0
   23.8903  -21.2881  -18.5667 C   0  0  0  0  0  0  0  0  0  0  0  0
   23.7779  -20.2912  -17.4322 C   0  0  1  0  0  0  0  0  0  0  0  0
   24.4553  -20.8238  -16.2274 C   0  0  0  0  0  0  0  0  0  0  0  0
   23.7810  -21.5440  -15.4570 O   0  0  0  0  0  0  0  0  0  0  0  0
   28.4213  -19.8385  -15.1375 O   0  0  0  0  0  0  0  0  0  0  0  0
   27.9818  -21.1301  -14.9922 C   0  0  0  0  0  0  0  0  0  0  0  0
   26.4865  -21.1432  -14.7648 C   0  0  2  0  0  0  0  0  0  0  0  0
   25.8185  -20.5468  -15.9277 N   0  0  0  0  0  0  0  0  0  0  0  0
   26.0590  -20.4667  -13.5368 C   0  0  0  0  0  0  0  0  0  0  0  0
   25.7472  -19.2478  -13.5932 O   0  0  0  0  0  0  0  0  0  0  0  0
   21.8144  -19.5437  -10.1568 C   0  0  0  0  0  0  0  0  0  0  0  0
   23.3167  -19.5899   -9.9753 C   0  0  0  0  0  0  0  0  0  0  0  0
   23.9028  -20.3723  -11.1037 C   0  0  2  0  0  0  0  0  0  0  0  0
   23.4211  -21.7963  -11.0335 C   0  0  0  0  0  0  0  0  0  0  0  0
   25.4073  -20.3786  -11.1163 C   0  0  2  0  0  0  0  0  0  0  0  0
   25.9589  -21.0669  -12.2548 N   0  0  0  0  0  0  0  0  0  0  0  0
   25.8754  -21.0488   -9.8845 C   0  0  0  0  0  0  0  0  0  0  0  0
   26.3653  -22.2083   -9.8788 O   0  0  0  0  0  0  0  0  0  0  0  0
   25.7746  -20.3792   -8.6793 O   0  0  0  0  0  0  0  0  0  0  0  0
  2  1  1  0
  3  2  1  0
  4  3  1  0
  4  5  1  0
  5  1  1  0
  5  6  1  1
  6 11  1  0
  7  6  2  0
  8  9  1  0
 10  9  1  6
 10 11  1  0
 10 12  1  0
 12 13  2  0
 12 19  1  0
 15 14  1  0
 16 17  1  1
 16 15  1  0
 18 16  1  0
 18 19  1  6
 20 18  1  0
 20 22  1  0
 21 20  2  0
M  END
$$$$
