PSI.pdb
     RDKit          3D

 22 22  0  0  1  0  0  0  0  0999 V2000
   23.0982  -15.2925  -18.2160 N   0  0  0  0  0  0  0  0  0  0  0  0
   22.8218  -16.5490  -18.8958 C   0  0  0  0  0  0  0  0  0  0  0  0
   21.7850  -17.2509  -18.0740 C   0  0  0  0  0  0  0  0  0  0  0  0
   21.3139  -16.1955  -17.0782 C   0  0  0  0  0  0  0  0  0  0  0  0
   21.7771  -14.9208  -17.7522 C   0  0  1  0  0  0  0  0  0  0  0  0
   21.8235  -13.8189  -16.7634 C   0  0  0  0  0  0  0  0  0  0  0  0
   20.7330  -13.4046  -16.3092 O   0  0  0  0  0  0  0  0  0  0  0  0
   25.3192  -11.6671  -15.8004 O   0  0  0  0  0  0  0  0  0  0  0  0
   24.4761  -12.0265  -14.7793 C   0  0  0  0  0  0  0  0  0  0  0  0
   23.0657  -12.1772  -15.3043 C   0  0  2  0  0  0  0  0  0  0  0  0
   23.0432  -13.2316  -16.3251 N   0  0  0  0  0  0  0  0  0  0  0  0
   22.4895  -10.9421  -15.8436 C   0  0  0  0  0  0  0  0  0  0  0  0
   22.6891  -10.6580  -17.0542 O   0  0  0  0  0  0  0  0  0  0  0  0
   17.6548   -9.8479  -16.7403 C   0  0  0  0  0  0  0  0  0  0  0  0
   19.1671   -9.8388  -16.8082 C   0  0  0  0  0  0  0  0  0  0  0  0
   19.6755   -8.8284  -15.8338 C   0  0  2  0  0  0  0  0  0  0  0  0
   19.2146   -7.4558  -16.2442 C   0  0  0  0  0  0  0  0  0  0  0  0
   21.1749   -8.8101  -15.7106 C   0  0  2  0  0  0  0  0  0  0  0  0
   21.7067  -10.0089  -15.1154 N   0  0  0  0  0  0  0  0  0  0  0  0
   21.5538   -7.6548  -14.8694 C   0  0  0  0  0  0  0  0  0  0  0  0
   21.9435   -7.7727  -13.6782 O   0  0  0  0  0  0  0  0  0  0  0  0
   21.4801   -6.3833  -15.4069 O   0  0  0  0  0  0  0  0  0  0  0  0
  2  1  1  0
  3  2  1  0
  4  3  1  0
  4  5  1  0
  5  1  1  0
  5  6  1  1
  6 11  1  0
  7  6  2  0
  8  9  1  0
 10  9  1  6
 10 11  1  0
 10 12  1  0
 12 13  2  0
 12 19  1  0
 15 14  1  0
 16 17  1  6
 16 15  1  0
 18 16  1  0
 18 19  1  1
 20 18  1  0
 20 22  1  0
 21 20  2  0
M  END
$$$$
