PSI.pdb
     RDKit          3D

 22 22  0  0  1  0  0  0  0  0999 V2000
   19.1778  -13.1352  -15.8171 N   0  0  0  0  0  0  0  0  0  0  0  0
   19.4486  -14.5275  -16.1421 C   0  0  0  0  0  0  0  0  0  0  0  0
   19.7436  -14.5653  -17.6100 C   0  0  0  0  0  0  0  0  0  0  0  0
   19.8942  -13.0990  -18.0031 C   0  0  0  0  0  0  0  0  0  0  0  0
   20.1412  -12.4522  -16.6561 C   0  0  1  0  0  0  0  0  0  0  0  0
   19.8734  -10.9979  -16.7414 C   0  0  0  0  0  0  0  0  0  0  0  0
   20.7235  -10.2877  -17.3243 O   0  0  0  0  0  0  0  0  0  0  0  0
   16.4526   -9.1311  -15.0693 O   0  0  0  0  0  0  0  0  0  0  0  0
   16.9027   -8.7768  -16.3161 C   0  0  0  0  0  0  0  0  0  0  0  0
   18.3994   -8.9785  -16.4002 C   0  0  2  0  0  0  0  0  0  0  0  0
   18.7050  -10.3990  -16.1927 N   0  0  0  0  0  0  0  0  0  0  0  0
   19.1707   -8.1556  -15.4641 C   0  0  0  0  0  0  0  0  0  0  0  0
   19.5342   -8.6615  -14.3696 O   0  0  0  0  0  0  0  0  0  0  0  0
   23.5375   -4.0169  -15.0974 C   0  0  0  0  0  0  0  0  0  0  0  0
   22.3483   -4.6009  -14.3650 C   0  0  0  0  0  0  0  0  0  0  0  0
   21.5383   -5.3914  -15.3386 C   0  0  2  0  0  0  0  0  0  0  0  0
   21.0584   -4.4902  -16.4441 C   0  0  0  0  0  0  0  0  0  0  0  0
   20.3434   -6.0663  -14.7219 C   0  0  2  0  0  0  0  0  0  0  0  0
   19.5593   -6.8073  -15.6760 N   0  0  0  0  0  0  0  0  0  0  0  0
   19.4891   -5.0245  -14.1133 C   0  0  0  0  0  0  0  0  0  0  0  0
   18.4210   -4.6187  -14.6418 O   0  0  0  0  0  0  0  0  0  0  0  0
   19.8725   -4.4645  -12.9089 O   0  0  0  0  0  0  0  0  0  0  0  0
  2  1  1  0
  3  2  1  0
  4  3  1  0
  4  5  1  0
  5  1  1  0
  5  6  1  6
  6 11  1  0
  7  6  2  0
  8  9  1  0
 10  9  1  1
 10 11  1  0
 10 12  1  0
 12 13  2  0
 12 19  1  0
 15 14  1  0
 16 17  1  6
 16 15  1  0
 18 16  1  0
 18 19  1  6
 20 18  1  0
 20 22  1  0
 21 20  2  0
M  END
$$$$
