PSI.pdb
     RDKit          3D

 22 22  0  0  1  0  0  0  0  0999 V2000
   18.8533  -12.3140  -16.7712 N   0  0  0  0  0  0  0  0  0  0  0  0
   17.8739  -12.6770  -17.7843 C   0  0  0  0  0  0  0  0  0  0  0  0
   17.1495  -11.4148  -18.1380 C   0  0  0  0  0  0  0  0  0  0  0  0
   17.9693  -10.3107  -17.4775 C   0  0  0  0  0  0  0  0  0  0  0  0
   19.2891  -11.0164  -17.2456 C   0  0  1  0  0  0  0  0  0  0  0  0
   20.0759  -10.2859  -16.2252 C   0  0  0  0  0  0  0  0  0  0  0  0
   19.5024   -9.9994  -15.1501 O   0  0  0  0  0  0  0  0  0  0  0  0
   23.8614  -10.7736  -15.0279 O   0  0  0  0  0  0  0  0  0  0  0  0
   23.6485   -9.5096  -15.5173 C   0  0  0  0  0  0  0  0  0  0  0  0
   22.1814   -9.1569  -15.4130 C   0  0  2  0  0  0  0  0  0  0  0  0
   21.4332   -9.9091  -16.4272 N   0  0  0  0  0  0  0  0  0  0  0  0
   21.8969   -7.7243  -15.5371 C   0  0  0  0  0  0  0  0  0  0  0  0
   21.7485   -7.2331  -16.6872 O   0  0  0  0  0  0  0  0  0  0  0  0
   17.7348   -5.1563  -15.0224 C   0  0  0  0  0  0  0  0  0  0  0  0
   19.1434   -5.5090  -15.4503 C   0  0  0  0  0  0  0  0  0  0  0  0
   20.0893   -5.0188  -14.4044 C   0  0  2  0  0  0  0  0  0  0  0  0
   20.0101   -3.5186  -14.3163 C   0  0  0  0  0  0  0  0  0  0  0  0
   21.5211   -5.4062  -14.6563 C   0  0  2  0  0  0  0  0  0  0  0  0
   21.7685   -6.8111  -14.4585 N   0  0  0  0  0  0  0  0  0  0  0  0
   22.3764   -4.6386  -13.7262 C   0  0  0  0  0  0  0  0  0  0  0  0
   22.6900   -3.4347  -13.9184 O   0  0  0  0  0  0  0  0  0  0  0  0
   22.8584   -5.2631  -12.5910 O   0  0  0  0  0  0  0  0  0  0  0  0
  2  1  1  0
  3  2  1  0
  4  3  1  0
  4  5  1  0
  5  1  1  0
  5  6  1  1
  6 11  1  0
  7  6  2  0
  8  9  1  0
 10  9  1  6
 10 11  1  0
 10 12  1  0
 12 13  2  0
 12 19  1  0
 15 14  1  0
 16 17  1  6
 16 15  1  0
 18 16  1  0
 18 19  1  1
 20 18  1  0
 20 22  1  0
 21 20  2  0
M  END
$$$$
