WGY.pdb
     RDKit          3D

 31 33  0  0  1  0  0  0  0  0999 V2000
    7.4880  -17.2394   25.2554 N   0  0  0  0  0  0  0  0  0  0  0  0
    7.3485  -17.2575   23.8354 C   0  0  1  0  0  0  0  0  0  0  0  0
    6.8097  -15.9714   23.3293 C   0  0  0  0  0  0  0  0  0  0  0  0
    6.5450  -15.0547   24.4521 C   0  0  0  0  0  0  0  0  0  0  0  0
    6.1488  -15.4130   25.7333 C   0  0  0  0  0  0  0  0  0  0  0  0
    6.0329  -14.3181   26.4948 N   0  0  0  0  0  0  0  0  0  0  0  0
    6.3384  -13.2438   25.7617 C   0  0  0  0  0  0  0  0  0  0  0  0
    6.3675  -11.8911   26.0688 C   0  0  0  0  0  0  0  0  0  0  0  0
    6.7048  -10.9437   25.1532 C   0  0  0  0  0  0  0  0  0  0  0  0
    7.0257  -11.3790   23.8749 C   0  0  0  0  0  0  0  0  0  0  0  0
    7.0007  -12.7204   23.5574 C   0  0  0  0  0  0  0  0  0  0  0  0
    6.6635  -13.6843   24.4718 C   0  0  0  0  0  0  0  0  0  0  0  0
    8.5922  -17.6878   23.1410 C   0  0  0  0  0  0  0  0  0  0  0  0
    8.9048  -18.9017   23.2144 O   0  0  0  0  0  0  0  0  0  0  0  0
    9.4195  -16.7923   22.4143 N   0  0  0  0  0  0  0  0  0  0  0  0
   10.5962  -17.2177   21.6869 C   0  0  0  0  0  0  0  0  0  0  0  0
   11.8429  -16.9387   22.4310 C   0  0  0  0  0  0  0  0  0  0  0  0
   12.8815  -16.5015   21.8709 O   0  0  0  0  0  0  0  0  0  0  0  0
    9.2133  -16.2431   29.8326 O   0  0  0  0  0  0  0  0  0  0  0  0
   10.0672  -16.0623   28.7481 C   0  0  0  0  0  0  0  0  0  0  0  0
   11.3606  -16.5538   28.8021 C   0  0  0  0  0  0  0  0  0  0  0  0
   12.2364  -16.3860   27.7292 C   0  0  0  0  0  0  0  0  0  0  0  0
   11.8224  -15.7261   26.5978 C   0  0  0  0  0  0  0  0  0  0  0  0
   12.6996  -15.5262   25.4553 C   0  0  0  0  0  0  0  0  0  0  0  0
   12.9895  -16.7596   24.6661 C   0  0  2  0  0  0  0  0  0  0  0  0
   11.8842  -17.1674   23.8254 N   0  0  0  0  0  0  0  0  0  0  0  0
   13.3797  -17.8674   25.5565 C   0  0  0  0  0  0  0  0  0  0  0  0
   14.5336  -17.7686   26.3365 O   0  0  0  0  0  0  0  0  0  0  0  0
   10.5316  -15.2461   26.5672 C   0  0  0  0  0  0  0  0  0  0  0  0
    9.6631  -15.4095   27.6247 C   0  0  0  0  0  0  0  0  0  0  0  0
   12.6735  -18.9025   25.6144 O   0  0  0  0  0  0  0  0  0  0  0  0
  2  1  1  1
  2  3  1  0
  4  5  2  0
  4  3  1  0
  6  5  1  0
  7 12  2  0
  7  6  1  0
  8  7  1  0
  9 10  1  0
  9  8  2  0
 10 11  2  0
 11 12  1  0
 12  4  1  0
 13  2  1  0
 13 15  1  0
 14 13  2  0
 16 15  1  0
 17 16  1  0
 18 17  2  0
 19 20  1  0
 20 30  2  0
 20 21  1  0
 21 22  2  0
 22 23  1  0
 23 24  1  0
 25 24  1  1
 25 26  1  0
 25 27  1  0
 26 17  1  0
 27 28  1  0
 29 23  2  0
 30 29  1  0
 31 27  2  0
M  END
$$$$
