WGY.pdb
     RDKit          3D

 31 33  0  0  1  0  0  0  0  0999 V2000
    7.8547  -17.4219   24.0702 N   0  0  0  0  0  0  0  0  0  0  0  0
    8.5854  -16.7614   23.0379 C   0  0  1  0  0  0  0  0  0  0  0  0
    8.4007  -15.2909   23.1015 C   0  0  0  0  0  0  0  0  0  0  0  0
    7.6867  -14.9218   24.3364 C   0  0  0  0  0  0  0  0  0  0  0  0
    7.0042  -15.7842   25.1835 C   0  0  0  0  0  0  0  0  0  0  0  0
    6.5055  -15.1005   26.2207 N   0  0  0  0  0  0  0  0  0  0  0  0
    6.8335  -13.8119   26.0906 C   0  0  0  0  0  0  0  0  0  0  0  0
    6.5605  -12.7029   26.8784 C   0  0  0  0  0  0  0  0  0  0  0  0
    6.9904  -11.4545   26.5524 C   0  0  0  0  0  0  0  0  0  0  0  0
    7.7259  -11.3193   25.3831 C   0  0  0  0  0  0  0  0  0  0  0  0
    8.0040  -12.4136   24.5919 C   0  0  0  0  0  0  0  0  0  0  0  0
    7.5771  -13.6766   24.9107 C   0  0  0  0  0  0  0  0  0  0  0  0
   10.0146  -17.1729   22.9917 C   0  0  0  0  0  0  0  0  0  0  0  0
   10.7986  -16.4642   22.3135 O   0  0  0  0  0  0  0  0  0  0  0  0
   10.5113  -18.3145   23.6733 N   0  0  0  0  0  0  0  0  0  0  0  0
   11.8949  -18.4552   24.0741 C   0  0  0  0  0  0  0  0  0  0  0  0
   12.0393  -18.5999   25.5383 C   0  0  0  0  0  0  0  0  0  0  0  0
   13.1575  -18.5645   26.1145 O   0  0  0  0  0  0  0  0  0  0  0  0
   10.1713  -12.6187   27.0561 O   0  0  0  0  0  0  0  0  0  0  0  0
   10.1106  -13.9656   27.4026 C   0  0  0  0  0  0  0  0  0  0  0  0
   10.8751  -14.4398   28.4553 C   0  0  0  0  0  0  0  0  0  0  0  0
   10.8328  -15.7849   28.8229 C   0  0  0  0  0  0  0  0  0  0  0  0
   10.0258  -16.6615   28.1393 C   0  0  0  0  0  0  0  0  0  0  0  0
    9.9496  -18.0719   28.4853 C   0  0  0  0  0  0  0  0  0  0  0  0
   10.9280  -18.9447   27.7718 C   0  0  2  0  0  0  0  0  0  0  0  0
   10.8857  -18.7860   26.3339 N   0  0  0  0  0  0  0  0  0  0  0  0
   10.7196  -20.3595   28.1282 C   0  0  0  0  0  0  0  0  0  0  0  0
   10.3810  -21.2895   27.1433 O   0  0  0  0  0  0  0  0  0  0  0  0
    9.2746  -16.1669   27.0960 C   0  0  0  0  0  0  0  0  0  0  0  0
    9.3133  -14.8389   26.7295 C   0  0  0  0  0  0  0  0  0  0  0  0
   10.8465  -20.7302   29.3198 O   0  0  0  0  0  0  0  0  0  0  0  0
  2  1  1  1
  2  3  1  0
  4  5  2  0
  4  3  1  0
  6  5  1  0
  7 12  2  0
  7  6  1  0
  8  7  1  0
  9 10  1  0
  9  8  2  0
 10 11  2  0
 11 12  1  0
 12  4  1  0
 13  2  1  0
 13 15  1  0
 14 13  2  0
 16 15  1  0
 17 16  1  0
 18 17  2  0
 19 20  1  0
 20 30  2  0
 20 21  1  0
 21 22  2  0
 22 23  1  0
 23 24  1  0
 25 24  1  1
 25 26  1  0
 25 27  1  0
 26 17  1  0
 27 28  1  0
 29 23  2  0
 30 29  1  0
 31 27  2  0
M  END
$$$$
