WGY.pdb
     RDKit          3D

 31 33  0  0  1  0  0  0  0  0999 V2000
    7.1252  -18.3067   21.6789 N   0  0  0  0  0  0  0  0  0  0  0  0
    7.0324  -17.1259   20.8831 C   0  0  1  0  0  0  0  0  0  0  0  0
    5.9593  -16.2270   21.3738 C   0  0  0  0  0  0  0  0  0  0  0  0
    6.1877  -15.8892   22.7897 C   0  0  0  0  0  0  0  0  0  0  0  0
    6.0159  -16.7347   23.8772 C   0  0  0  0  0  0  0  0  0  0  0  0
    6.3465  -16.0947   25.0056 N   0  0  0  0  0  0  0  0  0  0  0  0
    6.7318  -14.8515   24.7039 C   0  0  0  0  0  0  0  0  0  0  0  0
    7.1597  -13.7966   25.4972 C   0  0  0  0  0  0  0  0  0  0  0  0
    7.5027  -12.5875   24.9777 C   0  0  0  0  0  0  0  0  0  0  0  0
    7.4100  -12.4363   23.6010 C   0  0  0  0  0  0  0  0  0  0  0  0
    6.9865  -13.4769   22.8020 C   0  0  0  0  0  0  0  0  0  0  0  0
    6.6392  -14.7002   23.3139 C   0  0  0  0  0  0  0  0  0  0  0  0
    8.3426  -16.4408   20.7160 C   0  0  0  0  0  0  0  0  0  0  0  0
    8.5404  -15.8262   19.6391 O   0  0  0  0  0  0  0  0  0  0  0  0
    9.3547  -16.4580   21.7109 N   0  0  0  0  0  0  0  0  0  0  0  0
   10.6189  -15.7688   21.5637 C   0  0  0  0  0  0  0  0  0  0  0  0
   11.4668  -15.8955   22.7681 C   0  0  0  0  0  0  0  0  0  0  0  0
   12.6335  -15.4275   22.8263 O   0  0  0  0  0  0  0  0  0  0  0  0
   11.1448  -15.3016   31.6107 O   0  0  0  0  0  0  0  0  0  0  0  0
   10.8819  -15.4699   30.2541 C   0  0  0  0  0  0  0  0  0  0  0  0
   10.7427  -14.3599   29.4380 C   0  0  0  0  0  0  0  0  0  0  0  0
   10.4790  -14.5008   28.0753 C   0  0  0  0  0  0  0  0  0  0  0  0
   10.3534  -15.7523   27.5230 C   0  0  0  0  0  0  0  0  0  0  0  0
   10.0779  -15.9487   26.1087 C   0  0  0  0  0  0  0  0  0  0  0  0
   11.2852  -16.1850   25.2633 C   0  0  2  0  0  0  0  0  0  0  0  0
   10.9604  -16.5656   23.9052 N   0  0  0  0  0  0  0  0  0  0  0  0
   12.1583  -17.2022   25.8758 C   0  0  0  0  0  0  0  0  0  0  0  0
   13.1088  -16.8305   26.8287 O   0  0  0  0  0  0  0  0  0  0  0  0
   10.4959  -16.8413   28.3544 C   0  0  0  0  0  0  0  0  0  0  0  0
   10.7564  -16.7068   29.7011 C   0  0  0  0  0  0  0  0  0  0  0  0
   12.0478  -18.4059   25.5405 O   0  0  0  0  0  0  0  0  0  0  0  0
  2  1  1  1
  2  3  1  0
  4  5  2  0
  4  3  1  0
  6  5  1  0
  7 12  2  0
  7  6  1  0
  8  7  1  0
  9 10  1  0
  9  8  2  0
 10 11  2  0
 11 12  1  0
 12  4  1  0
 13  2  1  0
 13 15  1  0
 14 13  2  0
 16 15  1  0
 17 16  1  0
 18 17  2  0
 19 20  1  0
 20 30  2  0
 20 21  1  0
 21 22  2  0
 22 23  1  0
 23 24  1  0
 25 24  1  1
 25 26  1  0
 25 27  1  0
 26 17  1  0
 27 28  1  0
 29 23  2  0
 30 29  1  0
 31 27  2  0
M  END
$$$$
