WGY.pdb
     RDKit          3D

 31 33  0  0  1  0  0  0  0  0999 V2000
    9.3352  -17.7938   21.1827 N   0  0  0  0  0  0  0  0  0  0  0  0
    8.6370  -17.3054   22.3273 C   0  0  1  0  0  0  0  0  0  0  0  0
    7.2470  -16.9157   21.9862 C   0  0  0  0  0  0  0  0  0  0  0  0
    7.2538  -15.8328   20.9871 C   0  0  0  0  0  0  0  0  0  0  0  0
    6.8363  -15.9267   19.6665 C   0  0  0  0  0  0  0  0  0  0  0  0
    6.9585  -14.7361   19.0667 N   0  0  0  0  0  0  0  0  0  0  0  0
    7.4441  -13.8542   19.9450 C   0  0  0  0  0  0  0  0  0  0  0  0
    7.7575  -12.5076   19.8281 C   0  0  0  0  0  0  0  0  0  0  0  0
    8.2589  -11.7840   20.8647 C   0  0  0  0  0  0  0  0  0  0  0  0
    8.4524  -12.4464   22.0690 C   0  0  0  0  0  0  0  0  0  0  0  0
    8.1447  -13.7841   22.1980 C   0  0  0  0  0  0  0  0  0  0  0  0
    7.6379  -14.5234   21.1608 C   0  0  0  0  0  0  0  0  0  0  0  0
    8.7198  -18.2310   23.4894 C   0  0  0  0  0  0  0  0  0  0  0  0
    8.1814  -19.3590   23.3694 O   0  0  0  0  0  0  0  0  0  0  0  0
    9.3724  -17.8898   24.7026 N   0  0  0  0  0  0  0  0  0  0  0  0
   10.5913  -18.5287   25.1507 C   0  0  0  0  0  0  0  0  0  0  0  0
   11.0889  -17.9537   26.4185 C   0  0  0  0  0  0  0  0  0  0  0  0
   12.0656  -18.4407   27.0449 O   0  0  0  0  0  0  0  0  0  0  0  0
    5.4947  -13.0672   26.5283 O   0  0  0  0  0  0  0  0  0  0  0  0
    6.8200  -13.4066   26.7857 C   0  0  0  0  0  0  0  0  0  0  0  0
    7.4257  -14.4151   26.0553 C   0  0  0  0  0  0  0  0  0  0  0  0
    8.7525  -14.7747   26.2934 C   0  0  0  0  0  0  0  0  0  0  0  0
    9.4791  -14.1272   27.2628 C   0  0  0  0  0  0  0  0  0  0  0  0
   10.8639  -14.4679   27.5472 C   0  0  0  0  0  0  0  0  0  0  0  0
   11.0988  -15.9036   27.8814 C   0  0  2  0  0  0  0  0  0  0  0  0
   10.4524  -16.8132   26.9596 N   0  0  0  0  0  0  0  0  0  0  0  0
   10.6675  -16.1942   29.2604 C   0  0  0  0  0  0  0  0  0  0  0  0
    9.7276  -17.1971   29.5060 O   0  0  0  0  0  0  0  0  0  0  0  0
    8.8555  -13.1275   27.9762 C   0  0  0  0  0  0  0  0  0  0  0  0
    7.5451  -12.7690   27.7445 C   0  0  0  0  0  0  0  0  0  0  0  0
   11.1458  -15.5389   30.2171 O   0  0  0  0  0  0  0  0  0  0  0  0
  2  1  1  6
  2  3  1  0
  4  5  2  0
  4  3  1  0
  6  5  1  0
  7 12  2  0
  7  6  1  0
  8  7  1  0
  9 10  1  0
  9  8  2  0
 10 11  2  0
 11 12  1  0
 12  4  1  0
 13  2  1  0
 13 15  1  0
 14 13  2  0
 16 15  1  0
 17 16  1  0
 18 17  2  0
 19 20  1  0
 20 30  2  0
 20 21  1  0
 21 22  2  0
 22 23  1  0
 23 24  1  0
 25 24  1  6
 25 26  1  0
 25 27  1  0
 26 17  1  0
 27 28  1  0
 29 23  2  0
 30 29  1  0
 31 27  2  0
M  END
$$$$
