WGY.pdb
     RDKit          3D

 31 33  0  0  1  0  0  0  0  0999 V2000
    5.6381  -17.4703   23.6007 N   0  0  0  0  0  0  0  0  0  0  0  0
    7.0404  -17.3984   23.3467 C   0  0  1  0  0  0  0  0  0  0  0  0
    7.8093  -17.2340   24.6045 C   0  0  0  0  0  0  0  0  0  0  0  0
    7.1950  -16.1892   25.4424 C   0  0  0  0  0  0  0  0  0  0  0  0
    6.2263  -16.3788   26.4185 C   0  0  0  0  0  0  0  0  0  0  0  0
    5.9280  -15.2078   26.9945 N   0  0  0  0  0  0  0  0  0  0  0  0
    6.6661  -14.2460   26.4330 C   0  0  0  0  0  0  0  0  0  0  0  0
    6.7325  -12.8787   26.6592 C   0  0  0  0  0  0  0  0  0  0  0  0
    7.5633  -12.0638   25.9554 C   0  0  0  0  0  0  0  0  0  0  0  0
    8.3599  -12.6527   24.9832 C   0  0  0  0  0  0  0  0  0  0  0  0
    8.3033  -14.0102   24.7492 C   0  0  0  0  0  0  0  0  0  0  0  0
    7.4709  -14.8416   25.4526 C   0  0  0  0  0  0  0  0  0  0  0  0
    7.5297  -18.5206   22.5009 C   0  0  0  0  0  0  0  0  0  0  0  0
    6.6864  -19.1157   21.7858 O   0  0  0  0  0  0  0  0  0  0  0  0
    8.8877  -18.9325   22.4755 N   0  0  0  0  0  0  0  0  0  0  0  0
    9.6676  -19.0077   21.2587 C   0  0  0  0  0  0  0  0  0  0  0  0
   10.5799  -17.8541   21.1088 C   0  0  0  0  0  0  0  0  0  0  0  0
   11.4498  -17.7930   20.2015 O   0  0  0  0  0  0  0  0  0  0  0  0
    6.1451  -13.6889   19.5160 O   0  0  0  0  0  0  0  0  0  0  0  0
    7.4244  -13.8848   20.0288 C   0  0  0  0  0  0  0  0  0  0  0  0
    7.5866  -14.5262   21.2452 C   0  0  0  0  0  0  0  0  0  0  0  0
    8.8576  -14.7351   21.7814 C   0  0  0  0  0  0  0  0  0  0  0  0
    9.9715  -14.3034   21.1034 C   0  0  0  0  0  0  0  0  0  0  0  0
   11.3158  -14.4976   21.6229 C   0  0  0  0  0  0  0  0  0  0  0  0
   11.5585  -15.8318   22.2468 C   0  0  2  0  0  0  0  0  0  0  0  0
   10.4828  -16.7712   22.0123 N   0  0  0  0  0  0  0  0  0  0  0  0
   11.7988  -15.6932   23.6944 C   0  0  0  0  0  0  0  0  0  0  0  0
   10.8747  -16.1981   24.6113 O   0  0  0  0  0  0  0  0  0  0  0  0
    9.7852  -13.6680   19.8955 C   0  0  0  0  0  0  0  0  0  0  0  0
    8.5317  -13.4595   19.3621 C   0  0  0  0  0  0  0  0  0  0  0  0
   12.8364  -15.1201   24.1047 O   0  0  0  0  0  0  0  0  0  0  0  0
  2  1  1  1
  2  3  1  0
  4  5  2  0
  4  3  1  0
  6  5  1  0
  7 12  2  0
  7  6  1  0
  8  7  1  0
  9 10  1  0
  9  8  2  0
 10 11  2  0
 11 12  1  0
 12  4  1  0
 13  2  1  0
 13 15  1  0
 14 13  2  0
 16 15  1  0
 17 16  1  0
 18 17  2  0
 19 20  1  0
 20 30  2  0
 20 21  1  0
 21 22  2  0
 22 23  1  0
 23 24  1  0
 25 24  1  1
 25 26  1  0
 25 27  1  0
 26 17  1  0
 27 28  1  0
 29 23  2  0
 30 29  1  0
 31 27  2  0
M  END
$$$$
