WGY.pdb
     RDKit          3D

 31 33  0  0  1  0  0  0  0  0999 V2000
    9.2857  -17.4564   20.8861 N   0  0  0  0  0  0  0  0  0  0  0  0
    9.4887  -16.8018   22.1376 C   0  0  1  0  0  0  0  0  0  0  0  0
    8.2033  -16.5704   22.8409 C   0  0  0  0  0  0  0  0  0  0  0  0
    7.3543  -15.6545   22.0590 C   0  0  0  0  0  0  0  0  0  0  0  0
    6.0004  -15.8087   21.7945 C   0  0  0  0  0  0  0  0  0  0  0  0
    5.5565  -14.7672   21.0801 N   0  0  0  0  0  0  0  0  0  0  0  0
    6.5710  -13.9261   20.8605 C   0  0  0  0  0  0  0  0  0  0  0  0
    6.6430  -12.7203   20.1778 C   0  0  0  0  0  0  0  0  0  0  0  0
    7.8006  -12.0157   20.0645 C   0  0  0  0  0  0  0  0  0  0  0  0
    8.9326  -12.5497   20.6646 C   0  0  0  0  0  0  0  0  0  0  0  0
    8.8740  -13.7468   21.3459 C   0  0  0  0  0  0  0  0  0  0  0  0
    7.7130  -14.4653   21.4677 C   0  0  0  0  0  0  0  0  0  0  0  0
   10.5074  -17.4811   22.9831 C   0  0  0  0  0  0  0  0  0  0  0  0
   11.1376  -18.4390   22.4715 O   0  0  0  0  0  0  0  0  0  0  0  0
   10.7851  -17.0916   24.3194 N   0  0  0  0  0  0  0  0  0  0  0  0
   12.0888  -16.6388   24.7555 C   0  0  0  0  0  0  0  0  0  0  0  0
   12.1451  -16.4265   26.2175 C   0  0  0  0  0  0  0  0  0  0  0  0
   13.1838  -16.0242   26.8031 O   0  0  0  0  0  0  0  0  0  0  0  0
    7.1059  -12.2992   25.3067 O   0  0  0  0  0  0  0  0  0  0  0  0
    7.7119  -13.1983   26.1799 C   0  0  0  0  0  0  0  0  0  0  0  0
    8.7723  -12.7829   26.9677 C   0  0  0  0  0  0  0  0  0  0  0  0
    9.3971  -13.6638   27.8508 C   0  0  0  0  0  0  0  0  0  0  0  0
    8.9642  -14.9637   27.9499 C   0  0  0  0  0  0  0  0  0  0  0  0
    9.5847  -15.9179   28.8550 C   0  0  0  0  0  0  0  0  0  0  0  0
   10.9244  -16.4121   28.4203 C   0  0  2  0  0  0  0  0  0  0  0  0
   10.9957  -16.6815   27.0000 N   0  0  0  0  0  0  0  0  0  0  0  0
   11.3067  -17.6156   29.1804 C   0  0  0  0  0  0  0  0  0  0  0  0
   11.4324  -17.5585   30.5698 O   0  0  0  0  0  0  0  0  0  0  0  0
    7.9079  -15.3538   27.1564 C   0  0  0  0  0  0  0  0  0  0  0  0
    7.2877  -14.4870   26.2827 C   0  0  0  0  0  0  0  0  0  0  0  0
   11.5201  -18.6950   28.5780 O   0  0  0  0  0  0  0  0  0  0  0  0
  2  1  1  6
  2  3  1  0
  4  5  2  0
  4  3  1  0
  6  5  1  0
  7 12  2  0
  7  6  1  0
  8  7  1  0
  9 10  1  0
  9  8  2  0
 10 11  2  0
 11 12  1  0
 12  4  1  0
 13  2  1  0
 13 15  1  0
 14 13  2  0
 16 15  1  0
 17 16  1  0
 18 17  2  0
 19 20  1  0
 20 30  2  0
 20 21  1  0
 21 22  2  0
 22 23  1  0
 23 24  1  0
 25 24  1  1
 25 26  1  0
 25 27  1  0
 26 17  1  0
 27 28  1  0
 29 23  2  0
 30 29  1  0
 31 27  2  0
M  END
$$$$
