WGY.pdb
     RDKit          3D

 31 33  0  0  1  0  0  0  0  0999 V2000
    9.7005  -15.2376   21.2145 N   0  0  0  0  0  0  0  0  0  0  0  0
    8.9729  -15.5800   22.3932 C   0  0  1  0  0  0  0  0  0  0  0  0
    7.5993  -15.0207   22.3615 C   0  0  0  0  0  0  0  0  0  0  0  0
    7.0178  -15.0250   23.7153 C   0  0  0  0  0  0  0  0  0  0  0  0
    6.3372  -16.0746   24.3171 C   0  0  0  0  0  0  0  0  0  0  0  0
    5.9794  -15.7294   25.5600 N   0  0  0  0  0  0  0  0  0  0  0  0
    6.3991  -14.4847   25.8039 C   0  0  0  0  0  0  0  0  0  0  0  0
    6.2800  -13.6695   26.9203 C   0  0  0  0  0  0  0  0  0  0  0  0
    6.7822  -12.4061   26.9563 C   0  0  0  0  0  0  0  0  0  0  0  0
    7.4311  -11.9461   25.8187 C   0  0  0  0  0  0  0  0  0  0  0  0
    7.5561  -12.7465   24.7032 C   0  0  0  0  0  0  0  0  0  0  0  0
    7.0552  -14.0216   24.6556 C   0  0  0  0  0  0  0  0  0  0  0  0
    9.0072  -17.0383   22.6868 C   0  0  0  0  0  0  0  0  0  0  0  0
    7.9444  -17.6863   22.5219 O   0  0  0  0  0  0  0  0  0  0  0  0
   10.1751  -17.7075   23.1371 N   0  0  0  0  0  0  0  0  0  0  0  0
   10.1729  -19.0823   23.5893 C   0  0  0  0  0  0  0  0  0  0  0  0
   10.7774  -19.2292   24.9304 C   0  0  0  0  0  0  0  0  0  0  0  0
   10.9863  -20.3520   25.4589 O   0  0  0  0  0  0  0  0  0  0  0  0
    8.9060  -12.9592   28.5932 O   0  0  0  0  0  0  0  0  0  0  0  0
    9.8645  -13.8676   28.1526 C   0  0  0  0  0  0  0  0  0  0  0  0
   10.0719  -14.0437   26.7949 C   0  0  0  0  0  0  0  0  0  0  0  0
   11.0260  -14.9475   26.3270 C   0  0  0  0  0  0  0  0  0  0  0  0
   11.7768  -15.6790   27.2148 C   0  0  0  0  0  0  0  0  0  0  0  0
   12.7818  -16.6332   26.7743 C   0  0  0  0  0  0  0  0  0  0  0  0
   12.2741  -18.0198   26.5551 C   0  0  2  0  0  0  0  0  0  0  0  0
   11.1393  -18.0727   25.6584 N   0  0  0  0  0  0  0  0  0  0  0  0
   11.9310  -18.6572   27.8389 C   0  0  0  0  0  0  0  0  0  0  0  0
   10.6102  -19.0178   28.1133 O   0  0  0  0  0  0  0  0  0  0  0  0
   11.5528  -15.4867   28.5603 C   0  0  0  0  0  0  0  0  0  0  0  0
   10.6113  -14.5950   29.0270 C   0  0  0  0  0  0  0  0  0  0  0  0
   12.8275  -18.8768   28.6882 O   0  0  0  0  0  0  0  0  0  0  0  0
  2  1  1  6
  2  3  1  0
  4  5  2  0
  4  3  1  0
  6  5  1  0
  7 12  2  0
  7  6  1  0
  8  7  1  0
  9 10  1  0
  9  8  2  0
 10 11  2  0
 11 12  1  0
 12  4  1  0
 13  2  1  0
 13 15  1  0
 14 13  2  0
 16 15  1  0
 17 16  1  0
 18 17  2  0
 19 20  1  0
 20 30  2  0
 20 21  1  0
 21 22  2  0
 22 23  1  0
 23 24  1  0
 25 24  1  1
 25 26  1  0
 25 27  1  0
 26 17  1  0
 27 28  1  0
 29 23  2  0
 30 29  1  0
 31 27  2  0
M  END
$$$$
