WGY.pdb
     RDKit          3D

 31 33  0  0  1  0  0  0  0  0999 V2000
    7.5265  -16.2679   23.3237 N   0  0  0  0  0  0  0  0  0  0  0  0
    8.6743  -15.8638   24.0688 C   0  0  1  0  0  0  0  0  0  0  0  0
    8.3537  -15.7001   25.5079 C   0  0  0  0  0  0  0  0  0  0  0  0
    7.1170  -14.9151   25.6666 C   0  0  0  0  0  0  0  0  0  0  0  0
    5.8739  -15.4025   26.0465 C   0  0  0  0  0  0  0  0  0  0  0  0
    4.9937  -14.3962   26.1140 N   0  0  0  0  0  0  0  0  0  0  0  0
    5.6106  -13.2560   25.7909 C   0  0  0  0  0  0  0  0  0  0  0  0
    5.1535  -11.9490   25.7015 C   0  0  0  0  0  0  0  0  0  0  0  0
    5.9625  -10.9179   25.3388 C   0  0  0  0  0  0  0  0  0  0  0  0
    7.2875  -11.2177   25.0541 C   0  0  0  0  0  0  0  0  0  0  0  0
    7.7540  -12.5123   25.1394 C   0  0  0  0  0  0  0  0  0  0  0  0
    6.9484  -13.5594   25.5049 C   0  0  0  0  0  0  0  0  0  0  0  0
    9.8545  -16.7365   23.8250 C   0  0  0  0  0  0  0  0  0  0  0  0
   10.6844  -16.8608   24.7591 O   0  0  0  0  0  0  0  0  0  0  0  0
   10.0697  -17.4186   22.5991 N   0  0  0  0  0  0  0  0  0  0  0  0
   11.1844  -17.1329   21.7213 C   0  0  0  0  0  0  0  0  0  0  0  0
   12.4829  -17.2188   22.4227 C   0  0  0  0  0  0  0  0  0  0  0  0
   13.5637  -17.4467   21.8198 O   0  0  0  0  0  0  0  0  0  0  0  0
   10.3781  -16.9403   30.0123 O   0  0  0  0  0  0  0  0  0  0  0  0
   11.1318  -16.5847   28.8971 C   0  0  0  0  0  0  0  0  0  0  0  0
   12.4240  -17.0630   28.7598 C   0  0  0  0  0  0  0  0  0  0  0  0
   13.2005  -16.7219   27.6521 C   0  0  0  0  0  0  0  0  0  0  0  0
   12.6880  -15.9012   26.6771 C   0  0  0  0  0  0  0  0  0  0  0  0
   13.4597  -15.5177   25.5057 C   0  0  0  0  0  0  0  0  0  0  0  0
   13.7162  -16.6233   24.5363 C   0  0  2  0  0  0  0  0  0  0  0  0
   12.5270  -17.0402   23.8244 N   0  0  0  0  0  0  0  0  0  0  0  0
   14.3271  -17.7798   25.2157 C   0  0  0  0  0  0  0  0  0  0  0  0
   15.5438  -17.6385   25.8862 O   0  0  0  0  0  0  0  0  0  0  0  0
   11.4005  -15.4379   26.8354 C   0  0  0  0  0  0  0  0  0  0  0  0
   10.6299  -15.7722   27.9280 C   0  0  0  0  0  0  0  0  0  0  0  0
   13.7530  -18.8948   25.1922 O   0  0  0  0  0  0  0  0  0  0  0  0
  2  1  1  6
  2  3  1  0
  4  5  2  0
  4  3  1  0
  6  5  1  0
  7 12  2  0
  7  6  1  0
  8  7  1  0
  9 10  1  0
  9  8  2  0
 10 11  2  0
 11 12  1  0
 12  4  1  0
 13  2  1  0
 13 15  1  0
 14 13  2  0
 16 15  1  0
 17 16  1  0
 18 17  2  0
 19 20  1  0
 20 30  2  0
 20 21  1  0
 21 22  2  0
 22 23  1  0
 23 24  1  0
 25 24  1  1
 25 26  1  0
 25 27  1  0
 26 17  1  0
 27 28  1  0
 29 23  2  0
 30 29  1  0
 31 27  2  0
M  END
$$$$
