WGY.pdb
     RDKit          3D

 31 33  0  0  1  0  0  0  0  0999 V2000
    6.9738  -17.5975   23.8539 N   0  0  0  0  0  0  0  0  0  0  0  0
    8.1767  -16.8349   23.9410 C   0  0  1  0  0  0  0  0  0  0  0  0
    8.4321  -16.3861   25.3316 C   0  0  0  0  0  0  0  0  0  0  0  0
    7.3643  -15.4726   25.7747 C   0  0  0  0  0  0  0  0  0  0  0  0
    6.2198  -15.8216   26.4784 C   0  0  0  0  0  0  0  0  0  0  0  0
    5.4931  -14.7268   26.7338 N   0  0  0  0  0  0  0  0  0  0  0  0
    6.1166  -13.6615   26.2224 C   0  0  0  0  0  0  0  0  0  0  0  0
    5.7859  -12.3141   26.2069 C   0  0  0  0  0  0  0  0  0  0  0  0
    6.5728  -11.3781   25.6118 C   0  0  0  0  0  0  0  0  0  0  0  0
    7.7415  -11.8197   25.0071 C   0  0  0  0  0  0  0  0  0  0  0  0
    8.0814  -13.1558   25.0159 C   0  0  0  0  0  0  0  0  0  0  0  0
    7.2970  -14.1081   25.6134 C   0  0  0  0  0  0  0  0  0  0  0  0
    9.3410  -17.5251   23.3228 C   0  0  0  0  0  0  0  0  0  0  0  0
    9.3712  -18.7787   23.3879 O   0  0  0  0  0  0  0  0  0  0  0  0
   10.3958  -16.8298   22.6760 N   0  0  0  0  0  0  0  0  0  0  0  0
   11.6877  -17.4254   22.4094 C   0  0  0  0  0  0  0  0  0  0  0  0
   12.5996  -17.3216   23.5684 C   0  0  0  0  0  0  0  0  0  0  0  0
   13.8293  -17.5759   23.4866 O   0  0  0  0  0  0  0  0  0  0  0  0
    7.5857  -13.8380   27.9467 O   0  0  0  0  0  0  0  0  0  0  0  0
    8.8692  -14.3091   27.6847 C   0  0  0  0  0  0  0  0  0  0  0  0
    9.4253  -14.1273   26.4297 C   0  0  0  0  0  0  0  0  0  0  0  0
   10.7096  -14.5897   26.1410 C   0  0  0  0  0  0  0  0  0  0  0  0
   11.4430  -15.2359   27.1062 C   0  0  0  0  0  0  0  0  0  0  0  0
   12.7845  -15.7360   26.8517 C   0  0  0  0  0  0  0  0  0  0  0  0
   12.8411  -16.9965   26.0541 C   0  0  2  0  0  0  0  0  0  0  0  0
   12.0840  -16.9227   24.8228 N   0  0  0  0  0  0  0  0  0  0  0  0
   12.3820  -18.1426   26.8590 C   0  0  0  0  0  0  0  0  0  0  0  0
   11.3194  -18.9321   26.4150 O   0  0  0  0  0  0  0  0  0  0  0  0
   10.8689  -15.4049   28.3469 C   0  0  0  0  0  0  0  0  0  0  0  0
    9.6007  -14.9498   28.6365 C   0  0  0  0  0  0  0  0  0  0  0  0
   12.9469  -18.4103   27.9465 O   0  0  0  0  0  0  0  0  0  0  0  0
  2  1  1  1
  2  3  1  0
  4  5  2  0
  4  3  1  0
  6  5  1  0
  7 12  2  0
  7  6  1  0
  8  7  1  0
  9 10  1  0
  9  8  2  0
 10 11  2  0
 11 12  1  0
 12  4  1  0
 13  2  1  0
 13 15  1  0
 14 13  2  0
 16 15  1  0
 17 16  1  0
 18 17  2  0
 19 20  1  0
 20 30  2  0
 20 21  1  0
 21 22  2  0
 22 23  1  0
 23 24  1  0
 25 24  1  1
 25 26  1  0
 25 27  1  0
 26 17  1  0
 27 28  1  0
 29 23  2  0
 30 29  1  0
 31 27  2  0
M  END
$$$$
