WHM.pdb
     RDKit          3D

 33 35  0  0  1  0  0  0  0  0999 V2000
   24.0995  -20.3135  -19.3027 N   0  0  0  0  0  0  0  0  0  0  0  0
   23.6601  -19.3096  -18.3368 C   0  0  1  0  0  0  0  0  0  0  0  0
   22.4030  -18.6335  -18.9032 C   0  0  0  0  0  0  0  0  0  0  0  0
   22.8396  -17.5513  -19.8208 C   0  0  0  0  0  0  0  0  0  0  0  0
   23.3947  -17.6987  -21.0918 C   0  0  0  0  0  0  0  0  0  0  0  0
   23.6569  -16.4847  -21.6041 N   0  0  0  0  0  0  0  0  0  0  0  0
   23.3013  -15.5339  -20.7315 C   0  0  0  0  0  0  0  0  0  0  0  0
   23.3652  -14.1583  -20.7831 C   0  0  0  0  0  0  0  0  0  0  0  0
   22.9115  -13.4315  -19.7026 C   0  0  0  0  0  0  0  0  0  0  0  0
   22.3978  -14.0608  -18.5783 C   0  0  0  0  0  0  0  0  0  0  0  0
   22.3467  -15.4407  -18.5565 C   0  0  0  0  0  0  0  0  0  0  0  0
   22.7880  -16.1865  -19.6103 C   0  0  0  0  0  0  0  0  0  0  0  0
   23.4028  -19.8908  -17.0151 C   0  0  0  0  0  0  0  0  0  0  0  0
   22.8573  -21.0365  -16.9770 O   0  0  0  0  0  0  0  0  0  0  0  0
   23.7106  -19.2849  -15.7727 N   0  0  0  0  0  0  0  0  0  0  0  0
   23.3278  -19.9206  -14.5219 C   0  0  1  0  0  0  0  0  0  0  0  0
   24.2971  -19.4728  -13.4527 C   0  0  0  0  0  0  0  0  0  0  0  0
   23.9510  -20.0815  -12.1745 C   0  0  0  0  0  0  0  0  0  0  0  0
   22.9776  -21.0082  -11.9174 C   0  0  0  0  0  0  0  0  0  0  0  0
   22.9590  -21.3152  -10.5972 N   0  0  0  0  0  0  0  0  0  0  0  0
   23.9298  -20.5710  -10.0353 C   0  0  0  0  0  0  0  0  0  0  0  0
   24.5359  -19.8206  -10.9839 N   0  0  0  0  0  0  0  0  0  0  0  0
   21.9106  -19.6791  -14.1922 C   0  0  0  0  0  0  0  0  0  0  0  0
   21.2737  -18.7333  -14.7203 O   0  0  0  0  0  0  0  0  0  0  0  0
   16.6702  -19.7836  -16.5105 C   0  0  0  0  0  0  0  0  0  0  0  0
   16.8426  -21.4054  -15.7602 S   0  0  0  0  0  0  0  0  0  0  0  0
   17.7927  -21.3334  -14.1995 C   0  0  0  0  0  0  0  0  0  0  0  0
   19.0041  -20.4567  -14.3736 C   0  0  0  0  0  0  0  0  0  0  0  0
   19.7202  -20.3182  -13.0743 C   0  0  2  0  0  0  0  0  0  0  0  0
   21.1803  -20.4822  -13.2741 N   0  0  0  0  0  0  0  0  0  0  0  0
   19.2986  -21.2050  -11.9954 C   0  0  0  0  0  0  0  0  0  0  0  0
   18.4140  -20.8168  -11.1520 O   0  0  0  0  0  0  0  0  0  0  0  0
   19.7735  -22.4819  -11.7766 O   0  0  0  0  0  0  0  0  0  0  0  0
  2  1  1  6
  2 13  1  0
  2  3  1  0
  4  5  2  0
  4  3  1  0
  6  5  1  0
  7 12  2  0
  7  6  1  0
  8  7  1  0
  9 10  1  0
  9  8  2  0
 10 11  2  0
 11 12  1  0
 12  4  1  0
 13 14  2  0
 15 13  1  0
 15 16  1  0
 16 17  1  1
 18 17  1  0
 19 18  2  0
 20 21  1  0
 20 19  1  0
 21 22  2  0
 22 18  1  0
 23 24  2  0
 23 16  1  0
 25 26  1  0
 26 27  1  0
 27 28  1  0
 29 28  1  6
 29 30  1  0
 30 23  1  0
 31 29  1  0
 31 33  1  0
 32 31  2  0
M  END
$$$$
