WHM.pdb
     RDKit          3D

 33 35  0  0  1  0  0  0  0  0999 V2000
   22.3708  -20.3598  -16.7037 N   0  0  0  0  0  0  0  0  0  0  0  0
   21.1124  -21.0929  -16.5916 C   0  0  1  0  0  0  0  0  0  0  0  0
   21.3414  -22.5049  -17.1505 C   0  0  0  0  0  0  0  0  0  0  0  0
   21.6535  -22.3794  -18.5964 C   0  0  0  0  0  0  0  0  0  0  0  0
   22.8952  -22.5531  -19.2074 C   0  0  0  0  0  0  0  0  0  0  0  0
   22.7696  -22.3543  -20.5301 N   0  0  0  0  0  0  0  0  0  0  0  0
   21.4993  -22.0559  -20.8288 C   0  0  0  0  0  0  0  0  0  0  0  0
   20.8703  -21.7717  -22.0216 C   0  0  0  0  0  0  0  0  0  0  0  0
   19.5189  -21.4972  -22.0107 C   0  0  0  0  0  0  0  0  0  0  0  0
   18.7942  -21.5037  -20.8280 C   0  0  0  0  0  0  0  0  0  0  0  0
   19.4527  -21.7923  -19.6489 C   0  0  0  0  0  0  0  0  0  0  0  0
   20.7888  -22.0679  -19.6283 C   0  0  0  0  0  0  0  0  0  0  0  0
   20.6221  -21.1400  -15.2102 C   0  0  0  0  0  0  0  0  0  0  0  0
   21.4738  -21.3624  -14.2953 O   0  0  0  0  0  0  0  0  0  0  0  0
   19.2775  -20.9581  -14.8047 N   0  0  0  0  0  0  0  0  0  0  0  0
   18.9185  -20.9758  -13.3954 C   0  0  1  0  0  0  0  0  0  0  0  0
   17.9321  -19.8578  -13.1490 C   0  0  0  0  0  0  0  0  0  0  0  0
   18.6358  -18.5890  -13.0107 C   0  0  0  0  0  0  0  0  0  0  0  0
   19.9861  -18.3681  -13.0164 C   0  0  0  0  0  0  0  0  0  0  0  0
   20.2465  -17.0487  -12.8463 N   0  0  0  0  0  0  0  0  0  0  0  0
   19.0456  -16.4508  -12.7345 C   0  0  0  0  0  0  0  0  0  0  0  0
   18.0642  -17.3768  -12.8332 N   0  0  0  0  0  0  0  0  0  0  0  0
   18.4458  -22.3046  -12.9639 C   0  0  0  0  0  0  0  0  0  0  0  0
   17.6653  -22.9799  -13.6807 O   0  0  0  0  0  0  0  0  0  0  0  0
   19.1317  -29.0760  -10.0323 C   0  0  0  0  0  0  0  0  0  0  0  0
   19.8478  -27.4354  -10.1690 S   0  0  0  0  0  0  0  0  0  0  0  0
   18.6251  -26.1282   -9.7952 C   0  0  0  0  0  0  0  0  0  0  0  0
   19.1592  -24.7862  -10.2196 C   0  0  0  0  0  0  0  0  0  0  0  0
   18.3025  -24.2179  -11.2981 C   0  0  2  0  0  0  0  0  0  0  0  0
   18.8319  -22.9030  -11.7333 N   0  0  0  0  0  0  0  0  0  0  0  0
   16.8828  -24.0683  -10.9975 C   0  0  0  0  0  0  0  0  0  0  0  0
   16.0566  -24.9961  -11.3154 O   0  0  0  0  0  0  0  0  0  0  0  0
   16.3065  -22.9804  -10.3744 O   0  0  0  0  0  0  0  0  0  0  0  0
  2  1  1  1
  2 13  1  0
  2  3  1  0
  4  5  2  0
  4  3  1  0
  6  5  1  0
  7 12  2  0
  7  6  1  0
  8  7  1  0
  9 10  1  0
  9  8  2  0
 10 11  2  0
 11 12  1  0
 12  4  1  0
 13 14  2  0
 15 13  1  0
 15 16  1  0
 16 17  1  6
 18 17  1  0
 19 18  2  0
 20 21  1  0
 20 19  1  0
 21 22  2  0
 22 18  1  0
 23 24  2  0
 23 16  1  0
 25 26  1  0
 26 27  1  0
 27 28  1  0
 29 28  1  1
 29 30  1  0
 30 23  1  0
 31 29  1  0
 31 33  1  0
 32 31  2  0
M  END
$$$$
