WHM.pdb
     RDKit          3D

 33 35  0  0  1  0  0  0  0  0999 V2000
   22.3591  -11.5118  -17.1013 N   0  0  0  0  0  0  0  0  0  0  0  0
   23.0359  -10.6802  -16.1093 C   0  0  1  0  0  0  0  0  0  0  0  0
   24.1603   -9.9180  -16.8257 C   0  0  0  0  0  0  0  0  0  0  0  0
   25.1483  -10.9128  -17.3138 C   0  0  0  0  0  0  0  0  0  0  0  0
   25.3425  -11.3295  -18.6306 C   0  0  0  0  0  0  0  0  0  0  0  0
   26.3290  -12.2408  -18.6657 N   0  0  0  0  0  0  0  0  0  0  0  0
   26.8017  -12.4506  -17.4310 C   0  0  0  0  0  0  0  0  0  0  0  0
   27.7951  -13.2738  -16.9468 C   0  0  0  0  0  0  0  0  0  0  0  0
   28.0590  -13.2707  -15.5933 C   0  0  0  0  0  0  0  0  0  0  0  0
   27.3452  -12.4588  -14.7242 C   0  0  0  0  0  0  0  0  0  0  0  0
   26.3558  -11.6447  -15.2397 C   0  0  0  0  0  0  0  0  0  0  0  0
   26.0721  -11.6261  -16.5741 C   0  0  0  0  0  0  0  0  0  0  0  0
   22.1123   -9.7597  -15.4380 C   0  0  0  0  0  0  0  0  0  0  0  0
   21.2432   -9.1769  -16.1569 O   0  0  0  0  0  0  0  0  0  0  0  0
   22.1036   -9.4627  -14.0534 N   0  0  0  0  0  0  0  0  0  0  0  0
   21.1622   -8.4981  -13.5072 C   0  0  1  0  0  0  0  0  0  0  0  0
   20.9484   -8.8266  -12.0478 C   0  0  0  0  0  0  0  0  0  0  0  0
   20.0564   -7.8483  -11.4385 C   0  0  0  0  0  0  0  0  0  0  0  0
   20.3880   -6.7798  -10.6506 C   0  0  0  0  0  0  0  0  0  0  0  0
   19.2706   -6.1153  -10.2666 N   0  0  0  0  0  0  0  0  0  0  0  0
   18.2408   -6.7802  -10.8227 C   0  0  0  0  0  0  0  0  0  0  0  0
   18.7080   -7.8316  -11.5345 N   0  0  0  0  0  0  0  0  0  0  0  0
   21.5893   -7.1087  -13.7575 C   0  0  0  0  0  0  0  0  0  0  0  0
   22.8064   -6.8111  -13.8516 O   0  0  0  0  0  0  0  0  0  0  0  0
   23.6672   -1.9916  -18.3612 C   0  0  0  0  0  0  0  0  0  0  0  0
   23.0800   -3.5845  -17.7772 S   0  0  0  0  0  0  0  0  0  0  0  0
   22.2758   -3.4525  -16.1404 C   0  0  0  0  0  0  0  0  0  0  0  0
   21.8486   -4.8153  -15.6645 C   0  0  0  0  0  0  0  0  0  0  0  0
   21.1049   -4.6932  -14.3791 C   0  0  2  0  0  0  0  0  0  0  0  0
   20.6739   -6.0312  -13.9076 N   0  0  0  0  0  0  0  0  0  0  0  0
   19.9470   -3.8057  -14.3733 C   0  0  0  0  0  0  0  0  0  0  0  0
   18.7817   -4.2668  -14.6448 O   0  0  0  0  0  0  0  0  0  0  0  0
   19.9744   -2.4555  -14.0906 O   0  0  0  0  0  0  0  0  0  0  0  0
  2  1  1  6
  2 13  1  0
  2  3  1  0
  4  5  2  0
  4  3  1  0
  6  5  1  0
  7 12  2  0
  7  6  1  0
  8  7  1  0
  9 10  1  0
  9  8  2  0
 10 11  2  0
 11 12  1  0
 12  4  1  0
 13 14  2  0
 15 13  1  0
 15 16  1  0
 16 17  1  1
 18 17  1  0
 19 18  2  0
 20 21  1  0
 20 19  1  0
 21 22  2  0
 22 18  1  0
 23 24  2  0
 23 16  1  0
 25 26  1  0
 26 27  1  0
 27 28  1  0
 29 28  1  6
 29 30  1  0
 30 23  1  0
 31 29  1  0
 31 33  1  0
 32 31  2  0
M  END
$$$$
