WHM.pdb
     RDKit          3D

 33 35  0  0  1  0  0  0  0  0999 V2000
   25.1191  -19.4513  -11.5638 N   0  0  0  0  0  0  0  0  0  0  0  0
   26.1897  -20.4084  -11.8309 C   0  0  1  0  0  0  0  0  0  0  0  0
   26.1096  -21.5104  -10.7643 C   0  0  0  0  0  0  0  0  0  0  0  0
   26.3133  -20.8779   -9.4368 C   0  0  0  0  0  0  0  0  0  0  0  0
   25.3726  -20.1706   -8.6885 C   0  0  0  0  0  0  0  0  0  0  0  0
   25.9393  -19.7549   -7.5435 N   0  0  0  0  0  0  0  0  0  0  0  0
   27.2163  -20.1535   -7.4946 C   0  0  0  0  0  0  0  0  0  0  0  0
   28.2043  -19.9834   -6.5491 C   0  0  0  0  0  0  0  0  0  0  0  0
   29.4509  -20.5230   -6.7869 C   0  0  0  0  0  0  0  0  0  0  0  0
   29.7187  -21.2263   -7.9521 C   0  0  0  0  0  0  0  0  0  0  0  0
   28.7079  -21.3801   -8.8805 C   0  0  0  0  0  0  0  0  0  0  0  0
   27.4648  -20.8577   -8.6731 C   0  0  0  0  0  0  0  0  0  0  0  0
   26.1042  -20.9690  -13.1834 C   0  0  0  0  0  0  0  0  0  0  0  0
   24.9451  -21.1442  -13.6709 O   0  0  0  0  0  0  0  0  0  0  0  0
   27.2045  -21.3331  -13.9972 N   0  0  0  0  0  0  0  0  0  0  0  0
   27.0135  -21.6557  -15.4024 C   0  0  1  0  0  0  0  0  0  0  0  0
   28.1560  -21.0476  -16.1824 C   0  0  0  0  0  0  0  0  0  0  0  0
   27.9713  -19.6070  -16.3024 C   0  0  0  0  0  0  0  0  0  0  0  0
   26.8216  -18.9253  -16.5957 C   0  0  0  0  0  0  0  0  0  0  0  0
   27.0626  -17.5918  -16.6302 N   0  0  0  0  0  0  0  0  0  0  0  0
   28.3728  -17.4501  -16.3558 C   0  0  0  0  0  0  0  0  0  0  0  0
   28.9310  -18.6661  -16.1558 N   0  0  0  0  0  0  0  0  0  0  0  0
   26.8394  -23.1046  -15.6165 C   0  0  0  0  0  0  0  0  0  0  0  0
   27.8056  -23.8989  -15.4959 O   0  0  0  0  0  0  0  0  0  0  0  0
   21.9587  -29.3190  -15.6395 C   0  0  0  0  0  0  0  0  0  0  0  0
   22.3593  -27.6425  -15.1376 S   0  0  0  0  0  0  0  0  0  0  0  0
   23.9299  -27.0696  -15.8783 C   0  0  0  0  0  0  0  0  0  0  0  0
   24.1531  -25.6166  -15.5538 C   0  0  0  0  0  0  0  0  0  0  0  0
   25.4381  -25.1556  -16.1508 C   0  0  2  0  0  0  0  0  0  0  0  0
   25.5931  -23.6926  -15.9660 N   0  0  0  0  0  0  0  0  0  0  0  0
   25.6570  -25.4697  -17.5586 C   0  0  0  0  0  0  0  0  0  0  0  0
   26.3538  -26.4945  -17.8883 O   0  0  0  0  0  0  0  0  0  0  0  0
   25.1676  -24.7454  -18.6261 O   0  0  0  0  0  0  0  0  0  0  0  0
  2  1  1  1
  2 13  1  0
  2  3  1  0
  4  5  2  0
  4  3  1  0
  6  5  1  0
  7 12  2  0
  7  6  1  0
  8  7  1  0
  9 10  1  0
  9  8  2  0
 10 11  2  0
 11 12  1  0
 12  4  1  0
 13 14  2  0
 15 13  1  0
 15 16  1  0
 16 17  1  6
 18 17  1  0
 19 18  2  0
 20 21  1  0
 20 19  1  0
 21 22  2  0
 22 18  1  0
 23 24  2  0
 23 16  1  0
 25 26  1  0
 26 27  1  0
 27 28  1  0
 29 28  1  6
 29 30  1  0
 30 23  1  0
 31 29  1  0
 31 33  1  0
 32 31  2  0
M  END
$$$$
