WHM.pdb
     RDKit          3D

 33 35  0  0  1  0  0  0  0  0999 V2000
   24.1373  -18.6977  -16.8810 N   0  0  0  0  0  0  0  0  0  0  0  0
   24.5712  -18.2836  -15.5491 C   0  0  1  0  0  0  0  0  0  0  0  0
   23.3720  -17.6285  -14.8484 C   0  0  0  0  0  0  0  0  0  0  0  0
   22.5129  -17.0134  -15.8912 C   0  0  0  0  0  0  0  0  0  0  0  0
   22.8154  -15.9081  -16.6863 C   0  0  0  0  0  0  0  0  0  0  0  0
   21.7830  -15.6586  -17.5090 N   0  0  0  0  0  0  0  0  0  0  0  0
   20.8052  -16.5482  -17.2982 C   0  0  0  0  0  0  0  0  0  0  0  0
   19.5652  -16.7162  -17.8756 C   0  0  0  0  0  0  0  0  0  0  0  0
   18.7628  -17.7483  -17.4369 C   0  0  0  0  0  0  0  0  0  0  0  0
   19.1839  -18.6089  -16.4338 C   0  0  0  0  0  0  0  0  0  0  0  0
   20.4318  -18.4150  -15.8749 C   0  0  0  0  0  0  0  0  0  0  0  0
   21.2478  -17.4028  -16.2882 C   0  0  0  0  0  0  0  0  0  0  0  0
   25.0974  -19.4065  -14.7660 C   0  0  0  0  0  0  0  0  0  0  0  0
   25.2650  -20.5112  -15.3688 O   0  0  0  0  0  0  0  0  0  0  0  0
   25.4369  -19.3674  -13.3917 N   0  0  0  0  0  0  0  0  0  0  0  0
   26.4471  -20.2631  -12.8511 C   0  0  1  0  0  0  0  0  0  0  0  0
   27.7477  -19.9919  -13.5710 C   0  0  0  0  0  0  0  0  0  0  0  0
   27.8335  -20.8064  -14.7765 C   0  0  0  0  0  0  0  0  0  0  0  0
   27.4714  -20.4671  -16.0517 C   0  0  0  0  0  0  0  0  0  0  0  0
   27.6923  -21.5057  -16.8943 N   0  0  0  0  0  0  0  0  0  0  0  0
   28.1952  -22.4944  -16.1317 C   0  0  0  0  0  0  0  0  0  0  0  0
   28.2842  -22.0791  -14.8471 N   0  0  0  0  0  0  0  0  0  0  0  0
   26.5385  -20.1680  -11.3820 C   0  0  0  0  0  0  0  0  0  0  0  0
   26.7429  -19.0656  -10.8147 O   0  0  0  0  0  0  0  0  0  0  0  0
   28.0725  -20.2762   -4.9763 C   0  0  0  0  0  0  0  0  0  0  0  0
   27.8548  -18.9431   -6.1588 S   0  0  0  0  0  0  0  0  0  0  0  0
   26.5886  -19.3497   -7.4139 C   0  0  0  0  0  0  0  0  0  0  0  0
   27.2176  -20.1032   -8.5553 C   0  0  0  0  0  0  0  0  0  0  0  0
   26.2779  -21.1475   -9.0521 C   0  0  2  0  0  0  0  0  0  0  0  0
   26.4040  -21.2924  -10.5223 N   0  0  0  0  0  0  0  0  0  0  0  0
   24.8675  -20.9699   -8.7241 C   0  0  0  0  0  0  0  0  0  0  0  0
   24.4702  -21.0820   -7.5100 O   0  0  0  0  0  0  0  0  0  0  0  0
   23.8660  -20.6777   -9.6272 O   0  0  0  0  0  0  0  0  0  0  0  0
  2  1  1  6
  2 13  1  0
  2  3  1  0
  4  5  2  0
  4  3  1  0
  6  5  1  0
  7 12  2  0
  7  6  1  0
  8  7  1  0
  9 10  1  0
  9  8  2  0
 10 11  2  0
 11 12  1  0
 12  4  1  0
 13 14  2  0
 15 13  1  0
 15 16  1  0
 16 17  1  6
 18 17  1  0
 19 18  2  0
 20 21  1  0
 20 19  1  0
 21 22  2  0
 22 18  1  0
 23 24  2  0
 23 16  1  0
 25 26  1  0
 26 27  1  0
 27 28  1  0
 29 28  1  6
 29 30  1  0
 30 23  1  0
 31 29  1  0
 31 33  1  0
 32 31  2  0
M  END
$$$$
