WHM.pdb
     RDKit          3D

 33 35  0  0  1  0  0  0  0  0999 V2000
   27.5640  -22.1236  -13.2300 N   0  0  0  0  0  0  0  0  0  0  0  0
   26.4429  -21.5535  -12.4873 C   0  0  1  0  0  0  0  0  0  0  0  0
   26.8680  -20.1636  -11.9912 C   0  0  0  0  0  0  0  0  0  0  0  0
   27.8579  -20.3502  -10.9007 C   0  0  0  0  0  0  0  0  0  0  0  0
   29.2441  -20.4364  -11.0283 C   0  0  0  0  0  0  0  0  0  0  0  0
   29.7911  -20.6044   -9.8127 N   0  0  0  0  0  0  0  0  0  0  0  0
   28.8315  -20.6340   -8.8799 C   0  0  0  0  0  0  0  0  0  0  0  0
   28.8750  -20.7818   -7.5104 C   0  0  0  0  0  0  0  0  0  0  0  0
   27.6910  -20.7714   -6.8035 C   0  0  0  0  0  0  0  0  0  0  0  0
   26.4719  -20.6160   -7.4466 C   0  0  0  0  0  0  0  0  0  0  0  0
   26.4609  -20.4699   -8.8199 C   0  0  0  0  0  0  0  0  0  0  0  0
   27.6159  -20.4761   -9.5460 C   0  0  0  0  0  0  0  0  0  0  0  0
   25.2236  -21.4793  -13.2990 C   0  0  0  0  0  0  0  0  0  0  0  0
   25.2921  -20.8503  -14.3996 O   0  0  0  0  0  0  0  0  0  0  0  0
   23.9720  -22.0499  -12.9627 N   0  0  0  0  0  0  0  0  0  0  0  0
   22.8608  -22.0067  -13.9000 C   0  0  1  0  0  0  0  0  0  0  0  0
   22.4695  -23.4288  -14.2290 C   0  0  0  0  0  0  0  0  0  0  0  0
   23.4351  -24.0148  -15.1500 C   0  0  0  0  0  0  0  0  0  0  0  0
   23.6134  -23.7335  -16.4771 C   0  0  0  0  0  0  0  0  0  0  0  0
   24.6052  -24.5019  -16.9905 N   0  0  0  0  0  0  0  0  0  0  0  0
   25.0422  -25.2639  -15.9705 C   0  0  0  0  0  0  0  0  0  0  0  0
   24.3388  -24.9751  -14.8516 N   0  0  0  0  0  0  0  0  0  0  0  0
   21.7502  -21.1747  -13.4001 C   0  0  0  0  0  0  0  0  0  0  0  0
   21.3272  -21.2964  -12.2231 O   0  0  0  0  0  0  0  0  0  0  0  0
   20.4699  -14.7618  -14.3689 C   0  0  0  0  0  0  0  0  0  0  0  0
   18.8655  -15.5435  -14.5636 S   0  0  0  0  0  0  0  0  0  0  0  0
   18.8283  -17.2116  -13.8154 C   0  0  0  0  0  0  0  0  0  0  0  0
   20.0153  -18.0119  -14.2810 C   0  0  0  0  0  0  0  0  0  0  0  0
   19.9817  -19.3705  -13.6699 C   0  0  2  0  0  0  0  0  0  0  0  0
   21.0942  -20.1969  -14.1969 N   0  0  0  0  0  0  0  0  0  0  0  0
   18.7397  -20.1226  -13.8116 C   0  0  0  0  0  0  0  0  0  0  0  0
   17.7754  -19.9333  -12.9878 O   0  0  0  0  0  0  0  0  0  0  0  0
   18.4791  -21.0616  -14.7884 O   0  0  0  0  0  0  0  0  0  0  0  0
  2  1  1  6
  2 13  1  0
  2  3  1  0
  4  5  2  0
  4  3  1  0
  6  5  1  0
  7 12  2  0
  7  6  1  0
  8  7  1  0
  9 10  1  0
  9  8  2  0
 10 11  2  0
 11 12  1  0
 12  4  1  0
 13 14  2  0
 15 13  1  0
 15 16  1  0
 16 17  1  1
 18 17  1  0
 19 18  2  0
 20 21  1  0
 20 19  1  0
 21 22  2  0
 22 18  1  0
 23 24  2  0
 23 16  1  0
 25 26  1  0
 26 27  1  0
 27 28  1  0
 29 28  1  6
 29 30  1  0
 30 23  1  0
 31 29  1  0
 31 33  1  0
 32 31  2  0
M  END
$$$$
