WHM.pdb
     RDKit          3D

 33 35  0  0  1  0  0  0  0  0999 V2000
   22.6789  -20.3227  -17.1895 N   0  0  0  0  0  0  0  0  0  0  0  0
   22.9828  -19.4645  -16.0472 C   0  0  1  0  0  0  0  0  0  0  0  0
   21.7128  -19.3579  -15.1905 C   0  0  0  0  0  0  0  0  0  0  0  0
   20.6991  -18.6010  -15.9673 C   0  0  0  0  0  0  0  0  0  0  0  0
   19.5231  -19.1000  -16.5270 C   0  0  0  0  0  0  0  0  0  0  0  0
   18.8728  -18.1043  -17.1519 N   0  0  0  0  0  0  0  0  0  0  0  0
   19.5625  -16.9632  -17.0340 C   0  0  0  0  0  0  0  0  0  0  0  0
   19.3234  -15.6848  -17.4897 C   0  0  0  0  0  0  0  0  0  0  0  0
   20.2398  -14.6952  -17.2025 C   0  0  0  0  0  0  0  0  0  0  0  0
   21.3853  -14.9679  -16.4695 C   0  0  0  0  0  0  0  0  0  0  0  0
   21.5969  -16.2587  -16.0264 C   0  0  0  0  0  0  0  0  0  0  0  0
   20.7083  -17.2586  -16.2948 C   0  0  0  0  0  0  0  0  0  0  0  0
   24.1139  -19.9701  -15.2624 C   0  0  0  0  0  0  0  0  0  0  0  0
   24.1530  -21.2178  -15.0310 O   0  0  0  0  0  0  0  0  0  0  0  0
   25.1708  -19.1868  -14.7382 N   0  0  0  0  0  0  0  0  0  0  0  0
   26.1847  -19.7847  -13.8840 C   0  0  1  0  0  0  0  0  0  0  0  0
   27.3807  -18.8615  -13.8594 C   0  0  0  0  0  0  0  0  0  0  0  0
   28.0137  -18.8248  -15.1716 C   0  0  0  0  0  0  0  0  0  0  0  0
   27.6151  -19.4556  -16.3186 C   0  0  0  0  0  0  0  0  0  0  0  0
   28.4783  -19.1839  -17.3278 N   0  0  0  0  0  0  0  0  0  0  0  0
   29.4177  -18.3783  -16.7982 C   0  0  0  0  0  0  0  0  0  0  0  0
   29.1438  -18.1556  -15.4921 N   0  0  0  0  0  0  0  0  0  0  0  0
   25.6530  -20.1204  -12.5498 C   0  0  0  0  0  0  0  0  0  0  0  0
   24.6782  -19.4942  -12.0635 O   0  0  0  0  0  0  0  0  0  0  0  0
   28.5841  -19.8506   -6.1601 C   0  0  0  0  0  0  0  0  0  0  0  0
   27.3216  -19.0481   -7.1527 S   0  0  0  0  0  0  0  0  0  0  0  0
   26.3170  -20.2606   -8.0822 C   0  0  0  0  0  0  0  0  0  0  0  0
   26.7348  -20.2755   -9.5284 C   0  0  0  0  0  0  0  0  0  0  0  0
   25.9003  -21.2493  -10.2870 C   0  0  2  0  0  0  0  0  0  0  0  0
   26.1935  -21.1544  -11.7373 N   0  0  0  0  0  0  0  0  0  0  0  0
   24.4562  -21.1603  -10.1003 C   0  0  0  0  0  0  0  0  0  0  0  0
   23.9442  -21.3536   -8.9406 O   0  0  0  0  0  0  0  0  0  0  0  0
   23.5371  -20.8741  -11.0888 O   0  0  0  0  0  0  0  0  0  0  0  0
  2  1  1  6
  2 13  1  0
  2  3  1  0
  4  5  2  0
  4  3  1  0
  6  5  1  0
  7 12  2  0
  7  6  1  0
  8  7  1  0
  9 10  1  0
  9  8  2  0
 10 11  2  0
 11 12  1  0
 12  4  1  0
 13 14  2  0
 15 13  1  0
 15 16  1  0
 16 17  1  1
 18 17  1  0
 19 18  2  0
 20 21  1  0
 20 19  1  0
 21 22  2  0
 22 18  1  0
 23 24  2  0
 23 16  1  0
 25 26  1  0
 26 27  1  0
 27 28  1  0
 29 28  1  1
 29 30  1  0
 30 23  1  0
 31 29  1  0
 31 33  1  0
 32 31  2  0
M  END
$$$$
