WHM.pdb
     RDKit          3D

 33 35  0  0  1  0  0  0  0  0999 V2000
   29.0485  -26.2068  -21.3258 N   0  0  0  0  0  0  0  0  0  0  0  0
   28.9150  -26.7357  -19.9707 C   0  0  1  0  0  0  0  0  0  0  0  0
   29.6824  -25.8002  -19.0250 C   0  0  0  0  0  0  0  0  0  0  0  0
   31.1267  -25.9027  -19.3527 C   0  0  0  0  0  0  0  0  0  0  0  0
   31.9195  -24.9371  -19.9726 C   0  0  0  0  0  0  0  0  0  0  0  0
   33.1731  -25.4046  -20.0941 N   0  0  0  0  0  0  0  0  0  0  0  0
   33.2520  -26.6392  -19.5827 C   0  0  0  0  0  0  0  0  0  0  0  0
   34.2977  -27.5294  -19.4683 C   0  0  0  0  0  0  0  0  0  0  0  0
   34.0649  -28.7551  -18.8807 C   0  0  0  0  0  0  0  0  0  0  0  0
   32.8064  -29.0981  -18.4092 C   0  0  0  0  0  0  0  0  0  0  0  0
   31.7787  -28.1846  -18.5381 C   0  0  0  0  0  0  0  0  0  0  0  0
   31.9786  -26.9644  -19.1148 C   0  0  0  0  0  0  0  0  0  0  0  0
   27.5117  -26.8684  -19.5657 C   0  0  0  0  0  0  0  0  0  0  0  0
   26.6969  -25.9902  -19.9861 O   0  0  0  0  0  0  0  0  0  0  0  0
   26.9829  -27.8937  -18.7444 N   0  0  0  0  0  0  0  0  0  0  0  0
   25.5500  -27.9993  -18.5193 C   0  0  1  0  0  0  0  0  0  0  0  0
   25.1034  -29.3686  -18.9763 C   0  0  0  0  0  0  0  0  0  0  0  0
   25.0310  -29.4134  -20.4312 C   0  0  0  0  0  0  0  0  0  0  0  0
   26.0273  -29.7236  -21.3164 C   0  0  0  0  0  0  0  0  0  0  0  0
   25.5674  -29.6396  -22.5888 N   0  0  0  0  0  0  0  0  0  0  0  0
   24.2759  -29.2741  -22.4871 C   0  0  0  0  0  0  0  0  0  0  0  0
   23.9426  -29.1350  -21.1833 N   0  0  0  0  0  0  0  0  0  0  0  0
   25.1859  -27.6787  -17.1264 C   0  0  0  0  0  0  0  0  0  0  0  0
   25.8870  -28.0798  -16.1638 O   0  0  0  0  0  0  0  0  0  0  0  0
   21.5203  -22.6578  -12.5088 C   0  0  0  0  0  0  0  0  0  0  0  0
   21.9738  -23.4065  -14.0762 S   0  0  0  0  0  0  0  0  0  0  0  0
   23.3222  -24.6259  -13.8806 C   0  0  0  0  0  0  0  0  0  0  0  0
   23.8447  -25.0377  -15.2311 C   0  0  0  0  0  0  0  0  0  0  0  0
   23.7498  -26.5171  -15.3816 C   0  0  2  0  0  0  0  0  0  0  0  0
   24.0412  -26.9092  -16.7815 N   0  0  0  0  0  0  0  0  0  0  0  0
   22.4922  -27.1377  -14.9797 C   0  0  0  0  0  0  0  0  0  0  0  0
   22.2954  -27.4572  -13.7535 O   0  0  0  0  0  0  0  0  0  0  0  0
   21.4386  -27.4301  -15.8213 O   0  0  0  0  0  0  0  0  0  0  0  0
  2  1  1  6
  2 13  1  0
  2  3  1  0
  4  5  2  0
  4  3  1  0
  6  5  1  0
  7 12  2  0
  7  6  1  0
  8  7  1  0
  9 10  1  0
  9  8  2  0
 10 11  2  0
 11 12  1  0
 12  4  1  0
 13 14  2  0
 15 13  1  0
 15 16  1  0
 16 17  1  1
 18 17  1  0
 19 18  2  0
 20 21  1  0
 20 19  1  0
 21 22  2  0
 22 18  1  0
 23 24  2  0
 23 16  1  0
 25 26  1  0
 26 27  1  0
 27 28  1  0
 29 28  1  6
 29 30  1  0
 30 23  1  0
 31 29  1  0
 31 33  1  0
 32 31  2  0
M  END
$$$$
