WHM.pdb
     RDKit          3D

 33 35  0  0  1  0  0  0  0  0999 V2000
   14.7925  -17.0259    4.2892 N   0  0  0  0  0  0  0  0  0  0  0  0
   15.8335  -17.9078    4.8110 C   0  0  1  0  0  0  0  0  0  0  0  0
   17.0906  -17.7081    3.9519 C   0  0  0  0  0  0  0  0  0  0  0  0
   16.8730  -18.3978    2.6554 C   0  0  0  0  0  0  0  0  0  0  0  0
   16.5459  -17.8095    1.4339 C   0  0  0  0  0  0  0  0  0  0  0  0
   16.4340  -18.7664    0.4974 N   0  0  0  0  0  0  0  0  0  0  0  0
   16.6720  -19.9667    1.0399 C   0  0  0  0  0  0  0  0  0  0  0  0
   16.6806  -21.2382    0.5085 C   0  0  0  0  0  0  0  0  0  0  0  0
   16.9681  -22.3023    1.3372 C   0  0  0  0  0  0  0  0  0  0  0  0
   17.2453  -22.1103    2.6826 C   0  0  0  0  0  0  0  0  0  0  0  0
   17.2292  -20.8242    3.1857 C   0  0  0  0  0  0  0  0  0  0  0  0
   16.9483  -19.7519    2.3904 C   0  0  0  0  0  0  0  0  0  0  0  0
   16.1115  -17.6552    6.2287 C   0  0  0  0  0  0  0  0  0  0  0  0
   15.2759  -16.9470    6.8706 O   0  0  0  0  0  0  0  0  0  0  0  0
   17.2337  -18.1335    6.9480 N   0  0  0  0  0  0  0  0  0  0  0  0
   17.1992  -18.2299    8.3987 C   0  0  1  0  0  0  0  0  0  0  0  0
   16.0260  -19.1014    8.7828 C   0  0  0  0  0  0  0  0  0  0  0  0
   14.8092  -18.3025    8.8537 C   0  0  0  0  0  0  0  0  0  0  0  0
   14.6641  -17.0263    9.3256 C   0  0  0  0  0  0  0  0  0  0  0  0
   13.3686  -16.6374    9.2361 N   0  0  0  0  0  0  0  0  0  0  0  0
   12.7090  -17.6834    8.7043 C   0  0  0  0  0  0  0  0  0  0  0  0
   13.5743  -18.6965    8.4695 N   0  0  0  0  0  0  0  0  0  0  0  0
   18.4911  -18.6775    8.9520 C   0  0  0  0  0  0  0  0  0  0  0  0
   19.1189  -19.6376    8.4390 O   0  0  0  0  0  0  0  0  0  0  0  0
   25.7399  -17.2581    9.4409 C   0  0  0  0  0  0  0  0  0  0  0  0
   24.0327  -16.9376    8.9873 S   0  0  0  0  0  0  0  0  0  0  0  0
   22.8630  -17.8234   10.0785 C   0  0  0  0  0  0  0  0  0  0  0  0
   21.4519  -17.6200    9.5949 C   0  0  0  0  0  0  0  0  0  0  0  0
   20.5038  -18.3644   10.4708 C   0  0  2  0  0  0  0  0  0  0  0  0
   19.1047  -18.0673   10.0801 N   0  0  0  0  0  0  0  0  0  0  0  0
   20.6369  -18.1548   11.9084 C   0  0  0  0  0  0  0  0  0  0  0  0
   21.3118  -18.9817   12.6193 O   0  0  0  0  0  0  0  0  0  0  0  0
   20.0875  -17.1077   12.6193 O   0  0  0  0  0  0  0  0  0  0  0  0
  2  1  1  6
  2 13  1  0
  2  3  1  0
  4  5  2  0
  4  3  1  0
  6  5  1  0
  7 12  2  0
  7  6  1  0
  8  7  1  0
  9 10  1  0
  9  8  2  0
 10 11  2  0
 11 12  1  0
 12  4  1  0
 13 14  2  0
 15 13  1  0
 15 16  1  0
 16 17  1  6
 18 17  1  0
 19 18  2  0
 20 21  1  0
 20 19  1  0
 21 22  2  0
 22 18  1  0
 23 24  2  0
 23 16  1  0
 25 26  1  0
 26 27  1  0
 27 28  1  0
 29 28  1  6
 29 30  1  0
 30 23  1  0
 31 29  1  0
 31 33  1  0
 32 31  2  0
M  END
$$$$
