WHM.pdb
     RDKit          3D

 33 35  0  0  1  0  0  0  0  0999 V2000
   14.8935  -17.7846    3.9106 N   0  0  0  0  0  0  0  0  0  0  0  0
   16.1915  -18.4268    3.7197 C   0  0  1  0  0  0  0  0  0  0  0  0
   17.1885  -17.7628    4.6807 C   0  0  0  0  0  0  0  0  0  0  0  0
   17.5824  -16.4549    4.0993 C   0  0  0  0  0  0  0  0  0  0  0  0
   17.2551  -15.1874    4.5805 C   0  0  0  0  0  0  0  0  0  0  0  0
   17.7983  -14.2557    3.7794 N   0  0  0  0  0  0  0  0  0  0  0  0
   18.4736  -14.8452    2.7852 C   0  0  0  0  0  0  0  0  0  0  0  0
   19.1932  -14.3372    1.7254 C   0  0  0  0  0  0  0  0  0  0  0  0
   19.7904  -15.2160    0.8463 C   0  0  0  0  0  0  0  0  0  0  0  0
   19.6769  -16.5881    1.0142 C   0  0  0  0  0  0  0  0  0  0  0  0
   18.9494  -17.0667    2.0861 C   0  0  0  0  0  0  0  0  0  0  0  0
   18.3474  -16.2219    2.9723 C   0  0  0  0  0  0  0  0  0  0  0  0
   16.1275  -19.8759    3.9361 C   0  0  0  0  0  0  0  0  0  0  0  0
   15.4625  -20.2884    4.9358 O   0  0  0  0  0  0  0  0  0  0  0  0
   16.7439  -20.8598    3.1253 N   0  0  0  0  0  0  0  0  0  0  0  0
   16.8223  -22.2432    3.5672 C   0  0  1  0  0  0  0  0  0  0  0  0
   16.8405  -23.1266    2.3414 C   0  0  0  0  0  0  0  0  0  0  0  0
   15.6961  -22.8274    1.4900 C   0  0  0  0  0  0  0  0  0  0  0  0
   15.6603  -22.0429    0.3694 C   0  0  0  0  0  0  0  0  0  0  0  0
   14.4026  -22.0016   -0.1345 N   0  0  0  0  0  0  0  0  0  0  0  0
   13.6562  -22.7676    0.6829 C   0  0  0  0  0  0  0  0  0  0  0  0
   14.4320  -23.2719    1.6698 N   0  0  0  0  0  0  0  0  0  0  0  0
   17.9531  -22.4642    4.4881 C   0  0  0  0  0  0  0  0  0  0  0  0
   19.1083  -22.0583    4.2061 O   0  0  0  0  0  0  0  0  0  0  0  0
   22.6152  -19.4149    7.8089 C   0  0  0  0  0  0  0  0  0  0  0  0
   20.9184  -19.9680    8.0035 S   0  0  0  0  0  0  0  0  0  0  0  0
   20.6214  -21.5585    7.1517 C   0  0  0  0  0  0  0  0  0  0  0  0
   19.2086  -22.0178    7.3952 C   0  0  0  0  0  0  0  0  0  0  0  0
   18.9584  -23.2945    6.6689 C   0  0  2  0  0  0  0  0  0  0  0  0
   17.8188  -23.1369    5.7335 N   0  0  0  0  0  0  0  0  0  0  0  0
   18.7246  -24.4794    7.4871 C   0  0  0  0  0  0  0  0  0  0  0  0
   19.7162  -25.1373    7.9649 O   0  0  0  0  0  0  0  0  0  0  0  0
   17.4872  -24.9916    7.8195 O   0  0  0  0  0  0  0  0  0  0  0  0
  2  1  1  1
  2 13  1  0
  2  3  1  0
  4  5  2  0
  4  3  1  0
  6  5  1  0
  7 12  2  0
  7  6  1  0
  8  7  1  0
  9 10  1  0
  9  8  2  0
 10 11  2  0
 11 12  1  0
 12  4  1  0
 13 14  2  0
 15 13  1  0
 15 16  1  0
 16 17  1  6
 18 17  1  0
 19 18  2  0
 20 21  1  0
 20 19  1  0
 21 22  2  0
 22 18  1  0
 23 24  2  0
 23 16  1  0
 25 26  1  0
 26 27  1  0
 27 28  1  0
 29 28  1  1
 29 30  1  0
 30 23  1  0
 31 29  1  0
 31 33  1  0
 32 31  2  0
M  END
$$$$
