WHM.pdb
     RDKit          3D

 33 35  0  0  1  0  0  0  0  0999 V2000
   19.5877  -22.9544  -16.1635 N   0  0  0  0  0  0  0  0  0  0  0  0
   20.0375  -22.8619  -14.7768 C   0  0  1  0  0  0  0  0  0  0  0  0
   19.4945  -21.5485  -14.1949 C   0  0  0  0  0  0  0  0  0  0  0  0
   20.2197  -20.4267  -14.8426 C   0  0  0  0  0  0  0  0  0  0  0  0
   19.6985  -19.4936  -15.7386 C   0  0  0  0  0  0  0  0  0  0  0  0
   20.6686  -18.6375  -16.1006 N   0  0  0  0  0  0  0  0  0  0  0  0
   21.8137  -18.9579  -15.4859 C   0  0  0  0  0  0  0  0  0  0  0  0
   23.0729  -18.3991  -15.5230 C   0  0  0  0  0  0  0  0  0  0  0  0
   24.0734  -18.9657  -14.7617 C   0  0  0  0  0  0  0  0  0  0  0  0
   23.8304  -20.0776  -13.9689 C   0  0  0  0  0  0  0  0  0  0  0  0
   22.5582  -20.6147  -13.9527 C   0  0  0  0  0  0  0  0  0  0  0  0
   21.5482  -20.0761  -14.6950 C   0  0  0  0  0  0  0  0  0  0  0  0
   19.6087  -24.0155  -13.9792 C   0  0  0  0  0  0  0  0  0  0  0  0
   18.4040  -24.3963  -14.1039 O   0  0  0  0  0  0  0  0  0  0  0  0
   20.4226  -24.7454  -13.0791 N   0  0  0  0  0  0  0  0  0  0  0  0
   19.9043  -25.9193  -12.3948 C   0  0  1  0  0  0  0  0  0  0  0  0
   21.0639  -26.8449  -12.1083 C   0  0  0  0  0  0  0  0  0  0  0  0
   20.5799  -28.0917  -11.5294 C   0  0  0  0  0  0  0  0  0  0  0  0
   19.3233  -28.3761  -11.0683 C   0  0  0  0  0  0  0  0  0  0  0  0
   19.2745  -29.6437  -10.5907 N   0  0  0  0  0  0  0  0  0  0  0  0
   20.5122  -30.1455  -10.7589 C   0  0  0  0  0  0  0  0  0  0  0  0
   21.3094  -29.2118  -11.3271 N   0  0  0  0  0  0  0  0  0  0  0  0
   19.1111  -25.5582  -11.2049 C   0  0  0  0  0  0  0  0  0  0  0  0
   19.3321  -24.4926  -10.5768 O   0  0  0  0  0  0  0  0  0  0  0  0
   17.3143  -25.5399   -4.1010 C   0  0  0  0  0  0  0  0  0  0  0  0
   18.3230  -25.6251   -5.5837 S   0  0  0  0  0  0  0  0  0  0  0  0
   17.3077  -25.5289   -7.1013 C   0  0  0  0  0  0  0  0  0  0  0  0
   18.1192  -25.9626   -8.2928 C   0  0  0  0  0  0  0  0  0  0  0  0
   17.2628  -25.9750   -9.5120 C   0  0  2  0  0  0  0  0  0  0  0  0
   18.0624  -26.3722  -10.6957 N   0  0  0  0  0  0  0  0  0  0  0  0
   16.5525  -24.7402   -9.8269 C   0  0  0  0  0  0  0  0  0  0  0  0
   15.8559  -24.1509   -8.9258 O   0  0  0  0  0  0  0  0  0  0  0  0
   16.5526  -24.1066  -11.0527 O   0  0  0  0  0  0  0  0  0  0  0  0
  2  1  1  6
  2 13  1  0
  2  3  1  0
  4  5  2  0
  4  3  1  0
  6  5  1  0
  7 12  2  0
  7  6  1  0
  8  7  1  0
  9 10  1  0
  9  8  2  0
 10 11  2  0
 11 12  1  0
 12  4  1  0
 13 14  2  0
 15 13  1  0
 15 16  1  0
 16 17  1  1
 18 17  1  0
 19 18  2  0
 20 21  1  0
 20 19  1  0
 21 22  2  0
 22 18  1  0
 23 24  2  0
 23 16  1  0
 25 26  1  0
 26 27  1  0
 27 28  1  0
 29 28  1  1
 29 30  1  0
 30 23  1  0
 31 29  1  0
 31 33  1  0
 32 31  2  0
M  END
$$$$
