IVK.pdb
     RDKit          3D

 25 24  0  0  1  0  0  0  0  0999 V2000
    6.7246  -11.1954   27.9450 C   0  0  0  0  0  0  0  0  0  0  0  0
    5.9454  -12.2682   27.1910 C   0  0  0  0  0  0  0  0  0  0  0  0
    6.8553  -13.1731   26.4251 C   0  0  2  0  0  0  0  0  0  0  0  0
    7.8179  -12.4010   25.5404 C   0  0  0  0  0  0  0  0  0  0  0  0
    6.1309  -14.1498   25.5358 C   0  0  2  0  0  0  0  0  0  0  0  0
    5.2617  -14.9368   26.3871 N   0  0  0  0  0  0  0  0  0  0  0  0
    7.0056  -14.9558   24.6981 C   0  0  0  0  0  0  0  0  0  0  0  0
    7.5980  -15.9563   25.1380 O   0  0  0  0  0  0  0  0  0  0  0  0
    6.7546  -15.1502   20.3071 C   0  0  0  0  0  0  0  0  0  0  0  0
    8.1024  -15.1339   21.0112 C   0  0  1  0  0  0  0  0  0  0  0  0
    8.8853  -13.8810   20.6982 C   0  0  0  0  0  0  0  0  0  0  0  0
    8.0271  -15.4784   22.4401 C   0  0  2  0  0  0  0  0  0  0  0  0
    7.2707  -14.6908   23.3166 N   0  0  0  0  0  0  0  0  0  0  0  0
    9.4363  -15.5771   22.9594 C   0  0  0  0  0  0  0  0  0  0  0  0
    9.9503  -14.6325   23.6198 O   0  0  0  0  0  0  0  0  0  0  0  0
   10.2315  -16.7168   22.7322 N   0  0  0  0  0  0  0  0  0  0  0  0
   11.5838  -16.8566   23.4280 C   0  0  1  0  0  0  0  0  0  0  0  0
   11.5424  -18.2682   23.9018 C   0  0  0  0  0  0  0  0  0  0  0  0
   12.7226  -18.8423   24.5146 C   0  0  0  0  0  0  0  0  0  0  0  0
   12.7567  -20.2611   24.8854 C   0  0  0  0  0  0  0  0  0  0  0  0
   14.1602  -20.6062   25.4779 C   0  0  0  0  0  0  0  0  0  0  0  0
   14.0672  -22.0191   25.8195 N   0  0  0  0  0  0  0  0  0  0  0  0
   12.4973  -16.6978   22.2727 C   0  0  0  0  0  0  0  0  0  0  0  0
   12.2205  -16.9689   21.1025 O   0  0  0  0  0  0  0  0  0  0  0  0
   13.7994  -16.1989   22.4733 O   0  0  0  0  0  0  0  0  0  0  0  0
  1  2  1  0
  2  3  1  0
  3  5  1  0
  3  4  1  6
  5  7  1  0
  5  6  1  1
  7  8  2  0
 10 11  1  1
 10  9  1  0
 10 12  1  0
 12 14  1  0
 12 13  1  1
 13  7  1  0
 14 15  2  0
 16 14  1  0
 16 17  1  0
 17 23  1  0
 17 18  1  6
 19 18  1  0
 20 21  1  0
 20 19  1  0
 21 22  1  0
 23 24  2  0
 23 25  1  0
M  END
$$$$
