IVK.pdb
     RDKit          3D

 25 24  0  0  1  0  0  0  0  0999 V2000
    6.3244  -18.1886   19.5074 C   0  0  0  0  0  0  0  0  0  0  0  0
    6.3593  -16.6973   19.8260 C   0  0  0  0  0  0  0  0  0  0  0  0
    7.0456  -16.4284   21.1261 C   0  0  2  0  0  0  0  0  0  0  0  0
    6.4091  -17.1878   22.2767 C   0  0  0  0  0  0  0  0  0  0  0  0
    7.0576  -14.9731   21.5155 C   0  0  2  0  0  0  0  0  0  0  0  0
    7.5785  -14.2338   20.3834 N   0  0  0  0  0  0  0  0  0  0  0  0
    7.7569  -14.6946   22.7605 C   0  0  0  0  0  0  0  0  0  0  0  0
    8.9910  -14.8060   22.8600 O   0  0  0  0  0  0  0  0  0  0  0  0
    7.9066  -12.8500   27.4185 C   0  0  0  0  0  0  0  0  0  0  0  0
    7.0866  -13.0890   26.1603 C   0  0  1  0  0  0  0  0  0  0  0  0
    6.5598  -11.7987   25.5787 C   0  0  0  0  0  0  0  0  0  0  0  0
    7.7372  -13.9865   25.1922 C   0  0  2  0  0  0  0  0  0  0  0  0
    7.1172  -14.2744   23.9700 N   0  0  0  0  0  0  0  0  0  0  0  0
    8.0450  -15.2769   25.9033 C   0  0  0  0  0  0  0  0  0  0  0  0
    7.1169  -16.0323   26.3040 O   0  0  0  0  0  0  0  0  0  0  0  0
    9.3686  -15.6904   26.1482 N   0  0  0  0  0  0  0  0  0  0  0  0
    9.6377  -17.0387   26.8130 C   0  0  1  0  0  0  0  0  0  0  0  0
   10.8603  -17.4974   26.0961 C   0  0  0  0  0  0  0  0  0  0  0  0
   10.7180  -18.2254   24.8520 C   0  0  0  0  0  0  0  0  0  0  0  0
   11.9010  -18.6636   24.1035 C   0  0  0  0  0  0  0  0  0  0  0  0
   11.4477  -19.3281   22.7644 C   0  0  0  0  0  0  0  0  0  0  0  0
   12.6948  -19.6613   22.0898 N   0  0  0  0  0  0  0  0  0  0  0  0
    9.9495  -16.5997   28.1929 C   0  0  0  0  0  0  0  0  0  0  0  0
   10.2626  -15.4541   28.5229 O   0  0  0  0  0  0  0  0  0  0  0  0
    9.8971  -17.5278   29.2515 O   0  0  0  0  0  0  0  0  0  0  0  0
  1  2  1  0
  2  3  1  0
  3  5  1  0
  3  4  1  1
  5  7  1  0
  5  6  1  6
  7  8  2  0
 10 11  1  6
 10  9  1  0
 10 12  1  0
 12 14  1  0
 12 13  1  6
 13  7  1  0
 14 15  2  0
 16 14  1  0
 16 17  1  0
 17 23  1  0
 17 18  1  6
 19 18  1  0
 20 21  1  0
 20 19  1  0
 21 22  1  0
 23 24  2  0
 23 25  1  0
M  END
$$$$
