IVK.pdb
     RDKit          3D

 25 24  0  0  1  0  0  0  0  0999 V2000
    6.5410  -11.5200   27.7325 C   0  0  0  0  0  0  0  0  0  0  0  0
    5.8379  -12.5720   26.8808 C   0  0  0  0  0  0  0  0  0  0  0  0
    6.8168  -13.4728   26.1998 C   0  0  2  0  0  0  0  0  0  0  0  0
    7.8121  -12.6999   25.3528 C   0  0  0  0  0  0  0  0  0  0  0  0
    6.1747  -14.4944   25.2978 C   0  0  2  0  0  0  0  0  0  0  0  0
    5.3031  -15.3045   26.1247 N   0  0  0  0  0  0  0  0  0  0  0  0
    7.1191  -15.2751   24.5135 C   0  0  0  0  0  0  0  0  0  0  0  0
    7.5886  -16.3487   24.9287 O   0  0  0  0  0  0  0  0  0  0  0  0
    9.4605  -16.2499   20.1770 C   0  0  0  0  0  0  0  0  0  0  0  0
    8.5985  -15.2784   20.9682 C   0  0  1  0  0  0  0  0  0  0  0  0
    7.3138  -14.9496   20.2456 C   0  0  0  0  0  0  0  0  0  0  0  0
    8.4378  -15.6483   22.3835 C   0  0  2  0  0  0  0  0  0  0  0  0
    7.5956  -14.9014   23.2165 N   0  0  0  0  0  0  0  0  0  0  0  0
    9.8108  -15.7066   22.9975 C   0  0  0  0  0  0  0  0  0  0  0  0
   10.4230  -14.6499   23.3155 O   0  0  0  0  0  0  0  0  0  0  0  0
   10.4624  -16.9311   23.2402 N   0  0  0  0  0  0  0  0  0  0  0  0
   11.8415  -16.9464   23.8961 C   0  0  1  0  0  0  0  0  0  0  0  0
   11.7764  -18.1843   24.7222 C   0  0  0  0  0  0  0  0  0  0  0  0
   11.1036  -18.1430   26.0042 C   0  0  0  0  0  0  0  0  0  0  0  0
   11.0374  -19.3383   26.8519 C   0  0  0  0  0  0  0  0  0  0  0  0
   10.2106  -19.0146   28.1371 C   0  0  0  0  0  0  0  0  0  0  0  0
   10.1979  -20.2676   28.8798 N   0  0  0  0  0  0  0  0  0  0  0  0
   12.7025  -17.1325   22.7052 C   0  0  0  0  0  0  0  0  0  0  0  0
   13.8956  -16.8308   22.6340 O   0  0  0  0  0  0  0  0  0  0  0  0
   12.1632  -17.6975   21.5328 O   0  0  0  0  0  0  0  0  0  0  0  0
  1  2  1  0
  2  3  1  0
  3  5  1  0
  3  4  1  6
  5  7  1  0
  5  6  1  1
  7  8  2  0
 10 11  1  6
 10  9  1  0
 10 12  1  0
 12 14  1  0
 12 13  1  1
 13  7  1  0
 14 15  2  0
 16 14  1  0
 16 17  1  0
 17 23  1  0
 17 18  1  1
 19 18  1  0
 20 21  1  0
 20 19  1  0
 21 22  1  0
 23 24  2  0
 23 25  1  0
M  END
$$$$
