IVK.pdb
     RDKit          3D

 25 24  0  0  1  0  0  0  0  0999 V2000
    6.9825  -10.9398   27.9029 C   0  0  0  0  0  0  0  0  0  0  0  0
    6.1861  -12.0214   27.1802 C   0  0  0  0  0  0  0  0  0  0  0  0
    7.0836  -12.9990   26.4930 C   0  0  2  0  0  0  0  0  0  0  0  0
    8.0493  -12.3170   25.5402 C   0  0  0  0  0  0  0  0  0  0  0  0
    6.3456  -14.0427   25.6956 C   0  0  2  0  0  0  0  0  0  0  0  0
    5.5113  -14.7773   26.6251 N   0  0  0  0  0  0  0  0  0  0  0  0
    7.2055  -14.8960   24.8900 C   0  0  0  0  0  0  0  0  0  0  0  0
    7.7466  -15.9127   25.3578 O   0  0  0  0  0  0  0  0  0  0  0  0
    9.1754  -16.2063   20.4459 C   0  0  0  0  0  0  0  0  0  0  0  0
    8.3170  -15.2187   21.2208 C   0  0  1  0  0  0  0  0  0  0  0  0
    6.9751  -15.0026   20.5625 C   0  0  0  0  0  0  0  0  0  0  0  0
    8.2631  -15.4895   22.6664 C   0  0  2  0  0  0  0  0  0  0  0  0
    7.5119  -14.6632   23.5113 N   0  0  0  0  0  0  0  0  0  0  0  0
    9.6797  -15.5510   23.1711 C   0  0  0  0  0  0  0  0  0  0  0  0
   10.3474  -14.4961   23.3553 O   0  0  0  0  0  0  0  0  0  0  0  0
   10.3121  -16.7764   23.4562 N   0  0  0  0  0  0  0  0  0  0  0  0
   11.7050  -16.7905   24.0823 C   0  0  1  0  0  0  0  0  0  0  0  0
   11.6560  -18.0242   24.9156 C   0  0  0  0  0  0  0  0  0  0  0  0
   11.4694  -17.9026   26.3469 C   0  0  0  0  0  0  0  0  0  0  0  0
   11.3046  -19.0967   27.1828 C   0  0  0  0  0  0  0  0  0  0  0  0
   10.9999  -18.6606   28.6515 C   0  0  0  0  0  0  0  0  0  0  0  0
   10.8651  -19.9162   29.3773 N   0  0  0  0  0  0  0  0  0  0  0  0
   12.5400  -16.9836   22.8741 C   0  0  0  0  0  0  0  0  0  0  0  0
   12.1943  -17.5899   21.8581 O   0  0  0  0  0  0  0  0  0  0  0  0
   13.8429  -16.4496   22.8310 O   0  0  0  0  0  0  0  0  0  0  0  0
  1  2  1  0
  2  3  1  0
  3  5  1  0
  3  4  1  6
  5  7  1  0
  5  6  1  1
  7  8  2  0
 10 11  1  6
 10  9  1  0
 10 12  1  0
 12 14  1  0
 12 13  1  1
 13  7  1  0
 14 15  2  0
 16 14  1  0
 16 17  1  0
 17 23  1  0
 17 18  1  1
 19 18  1  0
 20 21  1  0
 20 19  1  0
 21 22  1  0
 23 24  2  0
 23 25  1  0
M  END
$$$$
