IVK.pdb
     RDKit          3D

 25 24  0  0  1  0  0  0  0  0999 V2000
    6.0709  -20.2087   21.9890 C   0  0  0  0  0  0  0  0  0  0  0  0
    6.1965  -18.7185   21.6888 C   0  0  0  0  0  0  0  0  0  0  0  0
    6.8596  -17.9854   22.8096 C   0  0  2  0  0  0  0  0  0  0  0  0
    6.1449  -18.1958   24.1327 C   0  0  0  0  0  0  0  0  0  0  0  0
    6.9486  -16.4973   22.5919 C   0  0  2  0  0  0  0  0  0  0  0  0
    7.5176  -16.2931   21.2751 N   0  0  0  0  0  0  0  0  0  0  0  0
    7.6530  -15.7816   23.6446 C   0  0  0  0  0  0  0  0  0  0  0  0
    8.8882  -15.8446   23.7690 O   0  0  0  0  0  0  0  0  0  0  0  0
    7.7010  -12.5113   27.4706 C   0  0  0  0  0  0  0  0  0  0  0  0
    6.9174  -13.1408   26.3293 C   0  0  1  0  0  0  0  0  0  0  0  0
    6.3066  -12.0977   25.4241 C   0  0  0  0  0  0  0  0  0  0  0  0
    7.6443  -14.2162   25.6358 C   0  0  2  0  0  0  0  0  0  0  0  0
    7.0173  -14.9518   24.6224 N   0  0  0  0  0  0  0  0  0  0  0  0
    8.1620  -15.1649   26.6833 C   0  0  0  0  0  0  0  0  0  0  0  0
    7.3812  -15.9516   27.2866 O   0  0  0  0  0  0  0  0  0  0  0  0
    9.5259  -15.2133   27.0299 N   0  0  0  0  0  0  0  0  0  0  0  0
   10.0138  -16.2123   28.0769 C   0  0  1  0  0  0  0  0  0  0  0  0
   11.1381  -16.8812   27.3646 C   0  0  0  0  0  0  0  0  0  0  0  0
   10.8425  -17.8974   26.3757 C   0  0  0  0  0  0  0  0  0  0  0  0
   11.9186  -18.5092   25.5887 C   0  0  0  0  0  0  0  0  0  0  0  0
   11.2986  -19.4789   24.5325 C   0  0  0  0  0  0  0  0  0  0  0  0
   12.4381  -19.9229   23.7414 N   0  0  0  0  0  0  0  0  0  0  0  0
   10.5072  -15.2858   29.1220 C   0  0  0  0  0  0  0  0  0  0  0  0
   10.7306  -14.0842   28.9617 O   0  0  0  0  0  0  0  0  0  0  0  0
   10.7562  -15.7663   30.4227 O   0  0  0  0  0  0  0  0  0  0  0  0
  1  2  1  0
  2  3  1  0
  3  5  1  0
  3  4  1  1
  5  7  1  0
  5  6  1  6
  7  8  2  0
 10 11  1  6
 10  9  1  0
 10 12  1  0
 12 14  1  0
 12 13  1  6
 13  7  1  0
 14 15  2  0
 16 14  1  0
 16 17  1  0
 17 23  1  0
 17 18  1  6
 19 18  1  0
 20 21  1  0
 20 19  1  0
 21 22  1  0
 23 24  2  0
 23 25  1  0
M  END
$$$$
