IVK.pdb
     RDKit          3D

 25 24  0  0  1  0  0  0  0  0999 V2000
    6.7412  -11.2931   27.7344 C   0  0  0  0  0  0  0  0  0  0  0  0
    5.9884  -12.3059   26.8777 C   0  0  0  0  0  0  0  0  0  0  0  0
    6.9214  -13.2657   26.2130 C   0  0  2  0  0  0  0  0  0  0  0  0
    7.9586  -12.5573   25.3598 C   0  0  0  0  0  0  0  0  0  0  0  0
    6.2301  -14.2648   25.3223 C   0  0  2  0  0  0  0  0  0  0  0  0
    5.2506  -14.9552   26.1369 N   0  0  0  0  0  0  0  0  0  0  0  0
    7.1337  -15.1618   24.6183 C   0  0  0  0  0  0  0  0  0  0  0  0
    7.6234  -16.1644   25.1664 O   0  0  0  0  0  0  0  0  0  0  0  0
    7.1629  -15.7099   20.3096 C   0  0  0  0  0  0  0  0  0  0  0  0
    8.4877  -15.6713   21.0554 C   0  0  1  0  0  0  0  0  0  0  0  0
    9.3339  -14.4922   20.6379 C   0  0  0  0  0  0  0  0  0  0  0  0
    8.3530  -15.8552   22.5094 C   0  0  2  0  0  0  0  0  0  0  0  0
    7.5443  -14.9910   23.2578 N   0  0  0  0  0  0  0  0  0  0  0  0
    9.7385  -15.8643   23.0973 C   0  0  0  0  0  0  0  0  0  0  0  0
   10.2460  -14.8120   23.5745 O   0  0  0  0  0  0  0  0  0  0  0  0
   10.5180  -17.0363   23.1390 N   0  0  0  0  0  0  0  0  0  0  0  0
   11.8504  -17.0422   23.8853 C   0  0  1  0  0  0  0  0  0  0  0  0
   11.8128  -18.3631   24.5729 C   0  0  0  0  0  0  0  0  0  0  0  0
   13.0011  -18.8412   25.2491 C   0  0  0  0  0  0  0  0  0  0  0  0
   13.0540  -20.2021   25.7940 C   0  0  0  0  0  0  0  0  0  0  0  0
   14.4696  -20.4600   26.4022 C   0  0  0  0  0  0  0  0  0  0  0  0
   14.3378  -21.7389   27.0866 N   0  0  0  0  0  0  0  0  0  0  0  0
   12.7961  -17.0499   22.7452 C   0  0  0  0  0  0  0  0  0  0  0  0
   12.5569  -17.5018   21.6236 O   0  0  0  0  0  0  0  0  0  0  0  0
   14.0866  -16.5073   22.9025 O   0  0  0  0  0  0  0  0  0  0  0  0
  1  2  1  0
  2  3  1  0
  3  5  1  0
  3  4  1  6
  5  7  1  0
  5  6  1  1
  7  8  2  0
 10 11  1  1
 10  9  1  0
 10 12  1  0
 12 14  1  0
 12 13  1  1
 13  7  1  0
 14 15  2  0
 16 14  1  0
 16 17  1  0
 17 23  1  0
 17 18  1  1
 19 18  1  0
 20 21  1  0
 20 19  1  0
 21 22  1  0
 23 24  2  0
 23 25  1  0
M  END
$$$$
