IVK.pdb
     RDKit          3D

 25 24  0  0  1  0  0  0  0  0999 V2000
    6.4812  -11.1793   27.6324 C   0  0  0  0  0  0  0  0  0  0  0  0
    5.8799  -12.4178   26.9757 C   0  0  0  0  0  0  0  0  0  0  0  0
    6.8771  -13.1229   26.1144 C   0  0  2  0  0  0  0  0  0  0  0  0
    7.4726  -12.2061   25.0607 C   0  0  0  0  0  0  0  0  0  0  0  0
    6.3141  -14.3168   25.3883 C   0  0  2  0  0  0  0  0  0  0  0  0
    5.8648  -15.2554   26.3967 N   0  0  0  0  0  0  0  0  0  0  0  0
    7.2205  -14.9040   24.4134 C   0  0  0  0  0  0  0  0  0  0  0  0
    8.1442  -15.6648   24.7499 O   0  0  0  0  0  0  0  0  0  0  0  0
    8.2479  -13.2869   20.5432 C   0  0  0  0  0  0  0  0  0  0  0  0
    7.9157  -14.7681   20.6348 C   0  0  1  0  0  0  0  0  0  0  0  0
    8.7058  -15.5842   19.6396 C   0  0  0  0  0  0  0  0  0  0  0  0
    7.9211  -15.2911   22.0104 C   0  0  2  0  0  0  0  0  0  0  0  0
    7.1481  -14.6750   23.0023 N   0  0  0  0  0  0  0  0  0  0  0  0
    9.3534  -15.3503   22.4693 C   0  0  0  0  0  0  0  0  0  0  0  0
    9.9464  -14.3128   22.8749 O   0  0  0  0  0  0  0  0  0  0  0  0
   10.0835  -16.5543   22.4652 N   0  0  0  0  0  0  0  0  0  0  0  0
   11.5203  -16.5790   22.9822 C   0  0  1  0  0  0  0  0  0  0  0  0
   11.5600  -17.8720   23.7209 C   0  0  0  0  0  0  0  0  0  0  0  0
   10.8588  -17.9857   24.9832 C   0  0  0  0  0  0  0  0  0  0  0  0
   10.7687  -19.2767   25.6739 C   0  0  0  0  0  0  0  0  0  0  0  0
   10.0184  -19.0851   27.0306 C   0  0  0  0  0  0  0  0  0  0  0  0
    9.8492  -20.4389   27.5406 N   0  0  0  0  0  0  0  0  0  0  0  0
   12.2638  -16.6607   21.7037 C   0  0  0  0  0  0  0  0  0  0  0  0
   13.4143  -16.2574   21.5210 O   0  0  0  0  0  0  0  0  0  0  0  0
   11.6522  -17.2386   20.5738 O   0  0  0  0  0  0  0  0  0  0  0  0
  1  2  1  0
  2  3  1  0
  3  5  1  0
  3  4  1  6
  5  7  1  0
  5  6  1  1
  7  8  2  0
 10 11  1  6
 10  9  1  0
 10 12  1  0
 12 14  1  0
 12 13  1  1
 13  7  1  0
 14 15  2  0
 16 14  1  0
 16 17  1  0
 17 23  1  0
 17 18  1  1
 19 18  1  0
 20 21  1  0
 20 19  1  0
 21 22  1  0
 23 24  2  0
 23 25  1  0
M  END
$$$$
