IVK.pdb
     RDKit          3D

 25 24  0  0  1  0  0  0  0  0999 V2000
    6.8341  -11.2939   27.9134 C   0  0  0  0  0  0  0  0  0  0  0  0
    6.0139  -12.1385   26.9435 C   0  0  0  0  0  0  0  0  0  0  0  0
    6.8710  -13.1122   26.2014 C   0  0  2  0  0  0  0  0  0  0  0  0
    7.9226  -12.4185   25.3538 C   0  0  0  0  0  0  0  0  0  0  0  0
    6.0983  -14.0220   25.2822 C   0  0  2  0  0  0  0  0  0  0  0  0
    5.1352  -14.7334   26.0983 N   0  0  0  0  0  0  0  0  0  0  0  0
    6.9307  -14.8983   24.4723 C   0  0  0  0  0  0  0  0  0  0  0  0
    7.3831  -15.9683   24.9146 O   0  0  0  0  0  0  0  0  0  0  0  0
    6.7929  -15.3302   20.1399 C   0  0  0  0  0  0  0  0  0  0  0  0
    8.1372  -15.1866   20.8364 C   0  0  1  0  0  0  0  0  0  0  0  0
    8.8410  -13.9098   20.4425 C   0  0  0  0  0  0  0  0  0  0  0  0
    8.0834  -15.4448   22.2842 C   0  0  2  0  0  0  0  0  0  0  0  0
    7.3074  -14.6299   23.1177 N   0  0  0  0  0  0  0  0  0  0  0  0
    9.4988  -15.4652   22.7959 C   0  0  0  0  0  0  0  0  0  0  0  0
    9.9755  -14.4776   23.4204 O   0  0  0  0  0  0  0  0  0  0  0  0
   10.3411  -16.5766   22.6009 N   0  0  0  0  0  0  0  0  0  0  0  0
   11.5801  -16.7596   23.4748 C   0  0  1  0  0  0  0  0  0  0  0  0
   11.1215  -17.7897   24.4482 C   0  0  0  0  0  0  0  0  0  0  0  0
   12.0712  -18.3408   25.3929 C   0  0  0  0  0  0  0  0  0  0  0  0
   11.6710  -19.4054   26.3194 C   0  0  0  0  0  0  0  0  0  0  0  0
   12.8945  -19.8070   27.2037 C   0  0  0  0  0  0  0  0  0  0  0  0
   12.3635  -20.8117   28.1147 N   0  0  0  0  0  0  0  0  0  0  0  0
   12.5242  -17.3289   22.4855 C   0  0  0  0  0  0  0  0  0  0  0  0
   12.2036  -17.9265   21.4561 O   0  0  0  0  0  0  0  0  0  0  0  0
   13.9124  -17.2034   22.6899 O   0  0  0  0  0  0  0  0  0  0  0  0
  1  2  1  0
  2  3  1  0
  3  5  1  0
  3  4  1  6
  5  7  1  0
  5  6  1  1
  7  8  2  0
 10 11  1  1
 10  9  1  0
 10 12  1  0
 12 14  1  0
 12 13  1  1
 13  7  1  0
 14 15  2  0
 16 14  1  0
 16 17  1  0
 17 23  1  0
 17 18  1  1
 19 18  1  0
 20 21  1  0
 20 19  1  0
 21 22  1  0
 23 24  2  0
 23 25  1  0
M  END
$$$$
