IVK.pdb
     RDKit          3D

 25 24  0  0  1  0  0  0  0  0999 V2000
    7.3150  -12.4763   18.7271 C   0  0  0  0  0  0  0  0  0  0  0  0
    7.4529  -13.8426   19.3910 C   0  0  0  0  0  0  0  0  0  0  0  0
    8.1893  -13.7521   20.6883 C   0  0  2  0  0  0  0  0  0  0  0  0
    9.6461  -14.1569   20.5485 C   0  0  0  0  0  0  0  0  0  0  0  0
    7.6004  -14.6065   21.7805 C   0  0  2  0  0  0  0  0  0  0  0  0
    6.1675  -14.3920   21.7628 N   0  0  0  0  0  0  0  0  0  0  0  0
    8.2010  -14.3990   23.0893 C   0  0  0  0  0  0  0  0  0  0  0  0
    9.3819  -14.7065   23.3266 O   0  0  0  0  0  0  0  0  0  0  0  0
    6.8883  -11.4001   25.7899 C   0  0  0  0  0  0  0  0  0  0  0  0
    7.3514  -12.7023   26.4244 C   0  0  1  0  0  0  0  0  0  0  0  0
    6.2583  -13.3500   27.2408 C   0  0  0  0  0  0  0  0  0  0  0  0
    8.0438  -13.6025   25.4884 C   0  0  2  0  0  0  0  0  0  0  0  0
    7.5160  -13.8347   24.2123 N   0  0  0  0  0  0  0  0  0  0  0  0
    8.2404  -14.9214   26.1865 C   0  0  0  0  0  0  0  0  0  0  0  0
    7.3117  -15.7746   26.2316 O   0  0  0  0  0  0  0  0  0  0  0  0
    9.4573  -15.2544   26.8119 N   0  0  0  0  0  0  0  0  0  0  0  0
    9.6119  -16.6010   27.5155 C   0  0  1  0  0  0  0  0  0  0  0  0
   10.4592  -17.3571   26.5515 C   0  0  0  0  0  0  0  0  0  0  0  0
   11.8463  -16.9763   26.3809 C   0  0  0  0  0  0  0  0  0  0  0  0
   12.7241  -17.7347   25.4831 C   0  0  0  0  0  0  0  0  0  0  0  0
   14.1476  -17.0916   25.4883 C   0  0  0  0  0  0  0  0  0  0  0  0
   14.9507  -17.9928   24.6732 N   0  0  0  0  0  0  0  0  0  0  0  0
   10.3833  -16.1913   28.7118 C   0  0  0  0  0  0  0  0  0  0  0  0
   10.7093  -15.0352   28.9884 O   0  0  0  0  0  0  0  0  0  0  0  0
   10.8018  -17.1634   29.6416 O   0  0  0  0  0  0  0  0  0  0  0  0
  1  2  1  0
  2  3  1  0
  3  5  1  0
  3  4  1  6
  5  7  1  0
  5  6  1  1
  7  8  2  0
 10 11  1  6
 10  9  1  0
 10 12  1  0
 12 14  1  0
 12 13  1  6
 13  7  1  0
 14 15  2  0
 16 14  1  0
 16 17  1  0
 17 23  1  0
 17 18  1  6
 19 18  1  0
 20 21  1  0
 20 19  1  0
 21 22  1  0
 23 24  2  0
 23 25  1  0
M  END
$$$$
