IVK.pdb
     RDKit          3D

 25 24  0  0  1  0  0  0  0  0999 V2000
    5.7603  -21.0248   23.6511 C   0  0  0  0  0  0  0  0  0  0  0  0
    5.4576  -19.5791   23.2701 C   0  0  0  0  0  0  0  0  0  0  0  0
    6.4684  -18.6369   23.8392 C   0  0  2  0  0  0  0  0  0  0  0  0
    6.5591  -18.7402   25.3513 C   0  0  0  0  0  0  0  0  0  0  0  0
    6.1993  -17.1906   23.5144 C   0  0  2  0  0  0  0  0  0  0  0  0
    6.0397  -17.0997   22.0771 N   0  0  0  0  0  0  0  0  0  0  0  0
    7.1881  -16.2658   24.0471 C   0  0  0  0  0  0  0  0  0  0  0  0
    8.3568  -16.2381   23.6243 O   0  0  0  0  0  0  0  0  0  0  0  0
    6.5353  -12.3028   25.3349 C   0  0  0  0  0  0  0  0  0  0  0  0
    7.3689  -13.1679   26.2674 C   0  0  1  0  0  0  0  0  0  0  0  0
    6.7124  -13.3339   27.6173 C   0  0  0  0  0  0  0  0  0  0  0  0
    7.8426  -14.4167   25.6494 C   0  0  2  0  0  0  0  0  0  0  0  0
    6.9287  -15.3156   25.0856 N   0  0  0  0  0  0  0  0  0  0  0  0
    8.6787  -15.1410   26.6700 C   0  0  0  0  0  0  0  0  0  0  0  0
    8.1377  -15.7797   27.6144 O   0  0  0  0  0  0  0  0  0  0  0  0
   10.0857  -15.1360   26.6134 N   0  0  0  0  0  0  0  0  0  0  0  0
   10.8923  -16.0163   27.5656 C   0  0  1  0  0  0  0  0  0  0  0  0
   12.2099  -16.0914   26.8747 C   0  0  0  0  0  0  0  0  0  0  0  0
   12.3565  -16.9624   25.7267 C   0  0  0  0  0  0  0  0  0  0  0  0
   13.1082  -16.5224   24.5464 C   0  0  0  0  0  0  0  0  0  0  0  0
   12.9241  -17.5659   23.3986 C   0  0  0  0  0  0  0  0  0  0  0  0
   13.6430  -16.9885   22.2710 N   0  0  0  0  0  0  0  0  0  0  0  0
   10.9527  -15.1377   28.7566 C   0  0  0  0  0  0  0  0  0  0  0  0
   11.5632  -15.3889   29.7976 O   0  0  0  0  0  0  0  0  0  0  0  0
   10.2754  -13.9024   28.7503 O   0  0  0  0  0  0  0  0  0  0  0  0
  1  2  1  0
  2  3  1  0
  3  5  1  0
  3  4  1  1
  5  7  1  0
  5  6  1  6
  7  8  2  0
 10 11  1  1
 10  9  1  0
 10 12  1  0
 12 14  1  0
 12 13  1  1
 13  7  1  0
 14 15  2  0
 16 14  1  0
 16 17  1  0
 17 23  1  0
 17 18  1  6
 19 18  1  0
 20 21  1  0
 20 19  1  0
 21 22  1  0
 23 24  2  0
 23 25  1  0
M  END
$$$$
