IVK.pdb
     RDKit          3D

 25 24  0  0  1  0  0  0  0  0999 V2000
    7.9598  -20.7751   20.3262 C   0  0  0  0  0  0  0  0  0  0  0  0
    8.3137  -19.2966   20.2023 C   0  0  0  0  0  0  0  0  0  0  0  0
    7.1906  -18.4220   20.6575 C   0  0  2  0  0  0  0  0  0  0  0  0
    5.9121  -18.6819   19.8807 C   0  0  0  0  0  0  0  0  0  0  0  0
    7.4831  -16.9489   20.5390 C   0  0  2  0  0  0  0  0  0  0  0  0
    8.0009  -16.7237   19.2045 N   0  0  0  0  0  0  0  0  0  0  0  0
    8.3423  -16.4250   21.5897 C   0  0  0  0  0  0  0  0  0  0  0  0
    9.5813  -16.5014   21.5244 O   0  0  0  0  0  0  0  0  0  0  0  0
    7.7181  -12.9363   23.9855 C   0  0  0  0  0  0  0  0  0  0  0  0
    8.0913  -14.2228   24.7055 C   0  0  1  0  0  0  0  0  0  0  0  0
    6.9889  -14.6931   25.6243 C   0  0  0  0  0  0  0  0  0  0  0  0
    8.6437  -15.2583   23.8175 C   0  0  2  0  0  0  0  0  0  0  0  0
    7.8666  -15.7836   22.7776 N   0  0  0  0  0  0  0  0  0  0  0  0
    9.1331  -16.3874   24.6841 C   0  0  0  0  0  0  0  0  0  0  0  0
    8.3540  -17.3135   25.0415 O   0  0  0  0  0  0  0  0  0  0  0  0
   10.4679  -16.4562   25.1273 N   0  0  0  0  0  0  0  0  0  0  0  0
   10.9582  -17.6857   25.8890 C   0  0  1  0  0  0  0  0  0  0  0  0
   12.2985  -17.9119   25.2795 C   0  0  0  0  0  0  0  0  0  0  0  0
   12.7250  -19.2664   24.9945 C   0  0  0  0  0  0  0  0  0  0  0  0
   13.9786  -19.5192   24.2759 C   0  0  0  0  0  0  0  0  0  0  0  0
   14.1420  -21.0559   24.0477 C   0  0  0  0  0  0  0  0  0  0  0  0
   15.3895  -21.1771   23.3058 N   0  0  0  0  0  0  0  0  0  0  0  0
   11.0703  -17.1269   27.2563 C   0  0  0  0  0  0  0  0  0  0  0  0
   11.3983  -17.7613   28.2610 O   0  0  0  0  0  0  0  0  0  0  0  0
   10.7917  -15.7643   27.4807 O   0  0  0  0  0  0  0  0  0  0  0  0
  1  2  1  0
  2  3  1  0
  3  5  1  0
  3  4  1  6
  5  7  1  0
  5  6  1  6
  7  8  2  0
 10 11  1  6
 10  9  1  0
 10 12  1  0
 12 14  1  0
 12 13  1  6
 13  7  1  0
 14 15  2  0
 16 14  1  0
 16 17  1  0
 17 23  1  0
 17 18  1  6
 19 18  1  0
 20 21  1  0
 20 19  1  0
 21 22  1  0
 23 24  2  0
 23 25  1  0
M  END
$$$$
