YTW.pdb
     RDKit          3D

 34 36  0  0  1  0  0  0  0  0999 V2000
   19.2036  -21.5079  -18.7122 O   0  0  0  0  0  0  0  0  0  0  0  0
   20.4137  -21.8492  -18.0852 C   0  0  0  0  0  0  0  0  0  0  0  0
   21.3765  -22.6347  -18.6837 C   0  0  0  0  0  0  0  0  0  0  0  0
   22.5473  -22.9415  -18.0228 C   0  0  0  0  0  0  0  0  0  0  0  0
   22.8130  -22.4851  -16.7467 C   0  0  0  0  0  0  0  0  0  0  0  0
   24.0574  -22.8230  -16.0203 C   0  0  0  0  0  0  0  0  0  0  0  0
   25.0863  -21.7532  -16.4153 C   0  0  2  0  0  0  0  0  0  0  0  0
   25.6865  -22.1099  -17.6923 N   0  0  0  0  0  0  0  0  0  0  0  0
   26.0889  -21.7556  -15.3262 C   0  0  0  0  0  0  0  0  0  0  0  0
   27.2533  -22.1222  -15.5558 O   0  0  0  0  0  0  0  0  0  0  0  0
   21.8388  -21.6923  -16.1479 C   0  0  0  0  0  0  0  0  0  0  0  0
   20.6635  -21.3884  -16.8202 C   0  0  0  0  0  0  0  0  0  0  0  0
   28.0854  -19.8131  -14.4786 C   0  0  0  0  0  0  0  0  0  0  0  0
   27.3514  -19.8196  -13.1309 C   0  0  1  0  0  0  0  0  0  0  0  0
   26.4863  -18.7507  -13.1352 O   0  0  0  0  0  0  0  0  0  0  0  0
   26.6027  -21.1426  -12.9824 C   0  0  2  0  0  0  0  0  0  0  0  0
   25.6526  -21.3274  -14.0431 N   0  0  0  0  0  0  0  0  0  0  0  0
   25.9770  -21.1959  -11.6402 C   0  0  0  0  0  0  0  0  0  0  0  0
   24.7254  -21.1058  -11.4730 O   0  0  0  0  0  0  0  0  0  0  0  0
   26.7635  -21.3516  -10.4675 N   0  0  0  0  0  0  0  0  0  0  0  0
   26.1388  -21.4735   -9.1460 C   0  0  1  0  0  0  0  0  0  0  0  0
   27.2730  -21.6362   -8.1833 C   0  0  0  0  0  0  0  0  0  0  0  0
   27.5086  -20.4503   -7.3362 C   0  0  0  0  0  0  0  0  0  0  0  0
   27.0831  -19.1406   -7.5999 C   0  0  0  0  0  0  0  0  0  0  0  0
   27.5225  -18.3404   -6.6259 N   0  0  0  0  0  0  0  0  0  0  0  0
   28.2282  -19.0252   -5.6993 C   0  0  0  0  0  0  0  0  0  0  0  0
   28.8553  -18.6514   -4.5316 C   0  0  0  0  0  0  0  0  0  0  0  0
   29.4931  -19.5900   -3.7651 C   0  0  0  0  0  0  0  0  0  0  0  0
   29.4856  -20.9169   -4.2048 C   0  0  0  0  0  0  0  0  0  0  0  0
   28.8600  -21.2778   -5.3697 C   0  0  0  0  0  0  0  0  0  0  0  0
   28.2116  -20.3532   -6.1590 C   0  0  0  0  0  0  0  0  0  0  0  0
   25.2760  -20.3546   -8.8337 C   0  0  0  0  0  0  0  0  0  0  0  0
   25.5149  -19.2218   -9.3830 O   0  0  0  0  0  0  0  0  0  0  0  0
   24.1864  -20.3703   -7.9880 O   0  0  0  0  0  0  0  0  0  0  0  0
  2  1  1  0
  3  2  2  0
  4  3  1  0
  5  4  2  0
  5 11  1  0
  6  5  1  0
  7  9  1  0
  7  6  1  0
  7  8  1  6
  9 17  1  0
 10  9  2  0
 11 12  2  0
 12  2  1  0
 14 13  1  6
 14 16  1  0
 15 14  1  0
 16 18  1  0
 16 17  1  6
 18 19  2  0
 18 20  1  0
 20 21  1  0
 21 32  1  0
 21 22  1  1
 23 22  1  0
 23 31  1  0
 24 23  2  0
 25 24  1  0
 25 26  1  0
 26 27  1  0
 26 31  2  0
 27 28  2  0
 28 29  1  0
 30 29  2  0
 31 30  1  0
 32 34  1  0
 33 32  2  0
M  END
$$$$
