YTW.pdb
     RDKit          3D

 34 36  0  0  1  0  0  0  0  0999 V2000
   24.7182  -15.0504  -21.1110 O   0  0  0  0  0  0  0  0  0  0  0  0
   24.4319  -15.3706  -19.7733 C   0  0  0  0  0  0  0  0  0  0  0  0
   25.1311  -16.3221  -19.0606 C   0  0  0  0  0  0  0  0  0  0  0  0
   24.8079  -16.5993  -17.7490 C   0  0  0  0  0  0  0  0  0  0  0  0
   23.7831  -15.9485  -17.0905 C   0  0  0  0  0  0  0  0  0  0  0  0
   23.4150  -16.2506  -15.6892 C   0  0  0  0  0  0  0  0  0  0  0  0
   22.8351  -17.6727  -15.6971 C   0  0  2  0  0  0  0  0  0  0  0  0
   21.4724  -17.6348  -16.2071 N   0  0  0  0  0  0  0  0  0  0  0  0
   22.8728  -18.1170  -14.2856 C   0  0  0  0  0  0  0  0  0  0  0  0
   22.1423  -17.5696  -13.4432 O   0  0  0  0  0  0  0  0  0  0  0  0
   23.0817  -14.9889  -17.8138 C   0  0  0  0  0  0  0  0  0  0  0  0
   23.4135  -14.7161  -19.1333 C   0  0  0  0  0  0  0  0  0  0  0  0
   21.7162  -21.0066  -12.8624 C   0  0  0  0  0  0  0  0  0  0  0  0
   23.2157  -21.0931  -12.5475 C   0  0  1  0  0  0  0  0  0  0  0  0
   23.7778  -21.9335  -13.4795 O   0  0  0  0  0  0  0  0  0  0  0  0
   23.8184  -19.6917  -12.6245 C   0  0  2  0  0  0  0  0  0  0  0  0
   23.7670  -19.1735  -13.9626 N   0  0  0  0  0  0  0  0  0  0  0  0
   25.1956  -19.7273  -12.0789 C   0  0  0  0  0  0  0  0  0  0  0  0
   26.0837  -18.8955  -12.4282 O   0  0  0  0  0  0  0  0  0  0  0  0
   25.5853  -20.7088  -11.1286 N   0  0  0  0  0  0  0  0  0  0  0  0
   26.9479  -20.7406  -10.5863 C   0  0  1  0  0  0  0  0  0  0  0  0
   27.0444  -19.5514   -9.6831 C   0  0  0  0  0  0  0  0  0  0  0  0
   26.8374  -19.8700   -8.2564 C   0  0  0  0  0  0  0  0  0  0  0  0
   25.8856  -20.7550   -7.7303 C   0  0  0  0  0  0  0  0  0  0  0  0
   25.9778  -20.7450   -6.3986 N   0  0  0  0  0  0  0  0  0  0  0  0
   26.9441  -19.9021   -5.9726 C   0  0  0  0  0  0  0  0  0  0  0  0
   27.4138  -19.5675   -4.7221 C   0  0  0  0  0  0  0  0  0  0  0  0
   28.4436  -18.6741   -4.5930 C   0  0  0  0  0  0  0  0  0  0  0  0
   28.9891  -18.1232   -5.7561 C   0  0  0  0  0  0  0  0  0  0  0  0
   28.5126  -18.4619   -6.9960 C   0  0  0  0  0  0  0  0  0  0  0  0
   27.4777  -19.3576   -7.1532 C   0  0  0  0  0  0  0  0  0  0  0  0
   27.2539  -21.9908   -9.9251 C   0  0  0  0  0  0  0  0  0  0  0  0
   26.3009  -22.8183   -9.7029 O   0  0  0  0  0  0  0  0  0  0  0  0
   28.4965  -22.4095   -9.4972 O   0  0  0  0  0  0  0  0  0  0  0  0
  2  1  1  0
  3  2  2  0
  4  3  1  0
  5  4  2  0
  5 11  1  0
  6  5  1  0
  7  9  1  0
  7  6  1  0
  7  8  1  1
  9 17  1  0
 10  9  2  0
 11 12  2  0
 12  2  1  0
 14 13  1  6
 14 16  1  0
 15 14  1  0
 16 18  1  0
 16 17  1  6
 18 19  2  0
 18 20  1  0
 20 21  1  0
 21 32  1  0
 21 22  1  1
 23 22  1  0
 23 31  1  0
 24 23  2  0
 25 24  1  0
 25 26  1  0
 26 27  1  0
 26 31  2  0
 27 28  2  0
 28 29  1  0
 30 29  2  0
 31 30  1  0
 32 34  1  0
 33 32  2  0
M  END
$$$$
