YTW.pdb
     RDKit          3D

 34 36  0  0  1  0  0  0  0  0999 V2000
   28.6831  -20.0480   -3.5086 O   0  0  0  0  0  0  0  0  0  0  0  0
   28.3204  -19.8805   -4.8556 C   0  0  0  0  0  0  0  0  0  0  0  0
   29.0611  -19.1335   -5.7476 C   0  0  0  0  0  0  0  0  0  0  0  0
   28.6591  -18.9998   -7.0599 C   0  0  0  0  0  0  0  0  0  0  0  0
   27.5117  -19.5980   -7.5424 C   0  0  0  0  0  0  0  0  0  0  0  0
   27.0604  -19.4465   -8.9437 C   0  0  0  0  0  0  0  0  0  0  0  0
   27.1057  -20.8521   -9.5612 C   0  0  2  0  0  0  0  0  0  0  0  0
   28.4910  -21.2835   -9.6766 N   0  0  0  0  0  0  0  0  0  0  0  0
   26.4688  -20.7147  -10.8904 C   0  0  0  0  0  0  0  0  0  0  0  0
   26.9776  -19.9747  -11.7486 O   0  0  0  0  0  0  0  0  0  0  0  0
   26.7687  -20.3513   -6.6386 C   0  0  0  0  0  0  0  0  0  0  0  0
   27.1804  -20.4805   -5.3198 C   0  0  0  0  0  0  0  0  0  0  0  0
   24.0781  -22.3298  -14.5834 C   0  0  0  0  0  0  0  0  0  0  0  0
   24.6373  -22.6067  -13.1813 C   0  0  1  0  0  0  0  0  0  0  0  0
   25.9347  -23.0341  -13.3394 O   0  0  0  0  0  0  0  0  0  0  0  0
   24.5696  -21.3210  -12.3596 C   0  0  2  0  0  0  0  0  0  0  0  0
   25.2779  -21.4563  -11.1179 N   0  0  0  0  0  0  0  0  0  0  0  0
   23.1493  -20.9440  -12.1682 C   0  0  0  0  0  0  0  0  0  0  0  0
   22.4719  -21.3403  -11.1748 O   0  0  0  0  0  0  0  0  0  0  0  0
   22.4767  -20.1117  -13.1025 N   0  0  0  0  0  0  0  0  0  0  0  0
   21.0828  -19.7066  -12.8914 C   0  0  1  0  0  0  0  0  0  0  0  0
   20.9141  -18.4404  -13.6708 C   0  0  0  0  0  0  0  0  0  0  0  0
   21.0688  -18.6145  -15.1287 C   0  0  0  0  0  0  0  0  0  0  0  0
   21.2030  -19.8311  -15.8126 C   0  0  0  0  0  0  0  0  0  0  0  0
   21.3620  -19.5787  -17.1138 N   0  0  0  0  0  0  0  0  0  0  0  0
   21.3432  -18.2521  -17.3696 C   0  0  0  0  0  0  0  0  0  0  0  0
   21.4513  -17.5181  -18.5297 C   0  0  0  0  0  0  0  0  0  0  0  0
   21.3750  -16.1515  -18.4859 C   0  0  0  0  0  0  0  0  0  0  0  0
   21.1884  -15.5405  -17.2426 C   0  0  0  0  0  0  0  0  0  0  0  0
   21.0839  -16.2807  -16.0937 C   0  0  0  0  0  0  0  0  0  0  0  0
   21.1576  -17.6563  -16.1104 C   0  0  0  0  0  0  0  0  0  0  0  0
   20.1411  -20.7404  -13.2637 C   0  0  0  0  0  0  0  0  0  0  0  0
   20.5505  -21.7115  -13.9928 O   0  0  0  0  0  0  0  0  0  0  0  0
   18.8102  -20.8044  -12.9071 O   0  0  0  0  0  0  0  0  0  0  0  0
  2  1  1  0
  3  2  2  0
  4  3  1  0
  5  4  2  0
  5 11  1  0
  6  5  1  0
  7  9  1  0
  7  6  1  0
  7  8  1  6
  9 17  1  0
 10  9  2  0
 11 12  2  0
 12  2  1  0
 14 13  1  6
 14 16  1  0
 15 14  1  0
 16 18  1  0
 16 17  1  1
 18 19  2  0
 18 20  1  0
 20 21  1  0
 21 32  1  0
 21 22  1  6
 23 22  1  0
 23 31  1  0
 24 23  2  0
 25 24  1  0
 25 26  1  0
 26 27  1  0
 26 31  2  0
 27 28  2  0
 28 29  1  0
 30 29  2  0
 31 30  1  0
 32 34  1  0
 33 32  2  0
M  END
$$$$
