YTW.pdb
     RDKit          3D

 34 36  0  0  1  0  0  0  0  0999 V2000
   15.6931  -21.4574  -19.3221 O   0  0  0  0  0  0  0  0  0  0  0  0
   16.6753  -21.2249  -18.3446 C   0  0  0  0  0  0  0  0  0  0  0  0
   18.0021  -21.5605  -18.5157 C   0  0  0  0  0  0  0  0  0  0  0  0
   18.9261  -21.3116  -17.5228 C   0  0  0  0  0  0  0  0  0  0  0  0
   18.5767  -20.7221  -16.3237 C   0  0  0  0  0  0  0  0  0  0  0  0
   19.5558  -20.4670  -15.2437 C   0  0  0  0  0  0  0  0  0  0  0  0
   19.6741  -21.7800  -14.4557 C   0  0  2  0  0  0  0  0  0  0  0  0
   18.6585  -21.8100  -13.4136 N   0  0  0  0  0  0  0  0  0  0  0  0
   21.0386  -21.7688  -13.8818 C   0  0  0  0  0  0  0  0  0  0  0  0
   21.2750  -21.1087  -12.8565 O   0  0  0  0  0  0  0  0  0  0  0  0
   17.2371  -20.3846  -16.1568 C   0  0  0  0  0  0  0  0  0  0  0  0
   16.3139  -20.6387  -17.1611 C   0  0  0  0  0  0  0  0  0  0  0  0
   23.1959  -24.9587  -13.3573 C   0  0  0  0  0  0  0  0  0  0  0  0
   23.9888  -23.9621  -14.2136 C   0  0  1  0  0  0  0  0  0  0  0  0
   23.9120  -24.3959  -15.5162 O   0  0  0  0  0  0  0  0  0  0  0  0
   23.3747  -22.5730  -14.0511 C   0  0  2  0  0  0  0  0  0  0  0  0
   22.0302  -22.5339  -14.5537 N   0  0  0  0  0  0  0  0  0  0  0  0
   24.2565  -21.5757  -14.7019 C   0  0  0  0  0  0  0  0  0  0  0  0
   23.9590  -21.0254  -15.8025 O   0  0  0  0  0  0  0  0  0  0  0  0
   25.4900  -21.1888  -14.1129 N   0  0  0  0  0  0  0  0  0  0  0  0
   26.3421  -20.1708  -14.7368 C   0  0  1  0  0  0  0  0  0  0  0  0
   26.7442  -19.2530  -13.6254 C   0  0  0  0  0  0  0  0  0  0  0  0
   27.4886  -19.9231  -12.5408 C   0  0  0  0  0  0  0  0  0  0  0  0
   28.8024  -20.4081  -12.6084 C   0  0  0  0  0  0  0  0  0  0  0  0
   29.1092  -20.9851  -11.4444 N   0  0  0  0  0  0  0  0  0  0  0  0
   28.0792  -20.9245  -10.5719 C   0  0  0  0  0  0  0  0  0  0  0  0
   27.9217  -21.3568   -9.2739 C   0  0  0  0  0  0  0  0  0  0  0  0
   26.7417  -21.1341   -8.6156 C   0  0  0  0  0  0  0  0  0  0  0  0
   25.7213  -20.4655   -9.2981 C   0  0  0  0  0  0  0  0  0  0  0  0
   25.8881  -20.0411  -10.5907 C   0  0  0  0  0  0  0  0  0  0  0  0
   27.0648  -20.2528  -11.2753 C   0  0  0  0  0  0  0  0  0  0  0  0
   27.4669  -20.7447  -15.4436 C   0  0  0  0  0  0  0  0  0  0  0  0
   27.6744  -22.0057  -15.3485 O   0  0  0  0  0  0  0  0  0  0  0  0
   28.3680  -20.0674  -16.2386 O   0  0  0  0  0  0  0  0  0  0  0  0
  2  1  1  0
  3  2  2  0
  4  3  1  0
  5  4  2  0
  5 11  1  0
  6  5  1  0
  7  9  1  0
  7  6  1  0
  7  8  1  1
  9 17  1  0
 10  9  2  0
 11 12  2  0
 12  2  1  0
 14 13  1  1
 14 16  1  0
 15 14  1  0
 16 18  1  0
 16 17  1  6
 18 19  2  0
 18 20  1  0
 20 21  1  0
 21 32  1  0
 21 22  1  1
 23 22  1  0
 23 31  1  0
 24 23  2  0
 25 24  1  0
 25 26  1  0
 26 27  1  0
 26 31  2  0
 27 28  2  0
 28 29  1  0
 30 29  2  0
 31 30  1  0
 32 34  1  0
 33 32  2  0
M  END
$$$$
