YTW.pdb
     RDKit          3D

 34 36  0  0  1  0  0  0  0  0999 V2000
   42.5715  -34.7941  -17.4318 O   0  0  0  0  0  0  0  0  0  0  0  0
   41.4224  -34.0658  -17.0810 C   0  0  0  0  0  0  0  0  0  0  0  0
   41.1196  -33.7171  -15.7814 C   0  0  0  0  0  0  0  0  0  0  0  0
   39.9766  -33.0022  -15.4911 C   0  0  0  0  0  0  0  0  0  0  0  0
   39.0893  -32.6039  -16.4715 C   0  0  0  0  0  0  0  0  0  0  0  0
   37.8502  -31.8526  -16.1702 C   0  0  0  0  0  0  0  0  0  0  0  0
   38.1201  -30.3992  -16.5870 C   0  0  2  0  0  0  0  0  0  0  0  0
   39.0050  -29.7751  -15.6145 N   0  0  0  0  0  0  0  0  0  0  0  0
   36.7916  -29.7464  -16.6076 C   0  0  0  0  0  0  0  0  0  0  0  0
   36.3384  -29.2294  -15.5730 O   0  0  0  0  0  0  0  0  0  0  0  0
   39.4000  -32.9574  -17.7809 C   0  0  0  0  0  0  0  0  0  0  0  0
   40.5523  -33.6769  -18.0641 C   0  0  0  0  0  0  0  0  0  0  0  0
   35.7436  -27.1853  -19.1863 C   0  0  0  0  0  0  0  0  0  0  0  0
   34.6784  -28.2897  -19.2133 C   0  0  1  0  0  0  0  0  0  0  0  0
   34.9112  -29.0502  -20.3350 O   0  0  0  0  0  0  0  0  0  0  0  0
   34.7987  -29.1234  -17.9391 C   0  0  2  0  0  0  0  0  0  0  0  0
   36.0883  -29.7474  -17.8426 N   0  0  0  0  0  0  0  0  0  0  0  0
   33.6867  -30.1018  -17.8951 C   0  0  0  0  0  0  0  0  0  0  0  0
   33.8323  -31.3083  -18.2500 O   0  0  0  0  0  0  0  0  0  0  0  0
   32.3921  -29.7246  -17.4479 N   0  0  0  0  0  0  0  0  0  0  0  0
   31.2790  -30.6799  -17.4547 C   0  0  1  0  0  0  0  0  0  0  0  0
   30.3840  -30.2559  -16.3330 C   0  0  0  0  0  0  0  0  0  0  0  0
   29.1997  -31.1200  -16.1581 C   0  0  0  0  0  0  0  0  0  0  0  0
   29.1553  -32.3440  -15.4757 C   0  0  0  0  0  0  0  0  0  0  0  0
   27.9218  -32.8455  -15.5701 N   0  0  0  0  0  0  0  0  0  0  0  0
   27.1073  -32.0339  -16.2798 C   0  0  0  0  0  0  0  0  0  0  0  0
   25.7773  -32.1105  -16.6285 C   0  0  0  0  0  0  0  0  0  0  0  0
   25.2002  -31.1038  -17.3557 C   0  0  0  0  0  0  0  0  0  0  0  0
   25.9970  -30.0165  -17.7257 C   0  0  0  0  0  0  0  0  0  0  0  0
   27.3204  -29.9513  -17.3749 C   0  0  0  0  0  0  0  0  0  0  0  0
   27.9251  -30.9506  -16.6440 C   0  0  0  0  0  0  0  0  0  0  0  0
   30.6068  -30.7408  -18.7348 C   0  0  0  0  0  0  0  0  0  0  0  0
   30.5832  -29.6898  -19.4675 O   0  0  0  0  0  0  0  0  0  0  0  0
   29.9718  -31.8392  -19.2762 O   0  0  0  0  0  0  0  0  0  0  0  0
  2  1  1  0
  3  2  2  0
  4  3  1  0
  5  4  2  0
  5 11  1  0
  6  5  1  0
  7  9  1  0
  7  6  1  0
  7  8  1  1
  9 17  1  0
 10  9  2  0
 11 12  2  0
 12  2  1  0
 14 13  1  1
 14 16  1  0
 15 14  1  0
 16 18  1  0
 16 17  1  6
 18 19  2  0
 18 20  1  0
 20 21  1  0
 21 32  1  0
 21 22  1  1
 23 22  1  0
 23 31  1  0
 24 23  2  0
 25 24  1  0
 25 26  1  0
 26 27  1  0
 26 31  2  0
 27 28  2  0
 28 29  1  0
 30 29  2  0
 31 30  1  0
 32 34  1  0
 33 32  2  0
M  END
$$$$
