YTW.pdb
     RDKit          3D

 34 36  0  0  1  0  0  0  0  0999 V2000
   17.0840  -16.0965  -15.9564 O   0  0  0  0  0  0  0  0  0  0  0  0
   18.1500  -16.6261  -15.2100 C   0  0  0  0  0  0  0  0  0  0  0  0
   19.4733  -16.4441  -15.5536 C   0  0  0  0  0  0  0  0  0  0  0  0
   20.4822  -16.9875  -14.7864 C   0  0  0  0  0  0  0  0  0  0  0  0
   20.2243  -17.7306  -13.6513 C   0  0  0  0  0  0  0  0  0  0  0  0
   21.2978  -18.3343  -12.8306 C   0  0  0  0  0  0  0  0  0  0  0  0
   21.8941  -19.4697  -13.6757 C   0  0  2  0  0  0  0  0  0  0  0  0
   20.8192  -20.1913  -14.3408 N   0  0  0  0  0  0  0  0  0  0  0  0
   22.6133  -20.3352  -12.7139 C   0  0  0  0  0  0  0  0  0  0  0  0
   22.0274  -20.7624  -11.7053 O   0  0  0  0  0  0  0  0  0  0  0  0
   18.8877  -17.9103  -13.3087 C   0  0  0  0  0  0  0  0  0  0  0  0
   17.8787  -17.3600  -14.0863 C   0  0  0  0  0  0  0  0  0  0  0  0
   24.7104  -23.3819  -13.6900 C   0  0  0  0  0  0  0  0  0  0  0  0
   25.6126  -22.4488  -12.8711 C   0  0  1  0  0  0  0  0  0  0  0  0
   26.4420  -21.8048  -13.7589 O   0  0  0  0  0  0  0  0  0  0  0  0
   24.7356  -21.4583  -12.1077 C   0  0  2  0  0  0  0  0  0  0  0  0
   23.9712  -20.6378  -13.0046 N   0  0  0  0  0  0  0  0  0  0  0  0
   25.5883  -20.6630  -11.1933 C   0  0  0  0  0  0  0  0  0  0  0  0
   25.4642  -19.4090  -11.0716 O   0  0  0  0  0  0  0  0  0  0  0  0
   26.5955  -21.2797  -10.4037 N   0  0  0  0  0  0  0  0  0  0  0  0
   27.4002  -20.5004   -9.4568 C   0  0  1  0  0  0  0  0  0  0  0  0
   26.4465  -20.0637   -8.3896 C   0  0  0  0  0  0  0  0  0  0  0  0
   27.1065  -19.4804   -7.2048 C   0  0  0  0  0  0  0  0  0  0  0  0
   27.1142  -18.1273   -6.8374 C   0  0  0  0  0  0  0  0  0  0  0  0
   27.8489  -17.9851   -5.7320 N   0  0  0  0  0  0  0  0  0  0  0  0
   28.3497  -19.1675   -5.3114 C   0  0  0  0  0  0  0  0  0  0  0  0
   29.1351  -19.5261   -4.2386 C   0  0  0  0  0  0  0  0  0  0  0  0
   29.4795  -20.8380   -4.0493 C   0  0  0  0  0  0  0  0  0  0  0  0
   29.0142  -21.7818   -4.9694 C   0  0  0  0  0  0  0  0  0  0  0  0
   28.2345  -21.4136   -6.0349 C   0  0  0  0  0  0  0  0  0  0  0  0
   27.8742  -20.1010   -6.2482 C   0  0  0  0  0  0  0  0  0  0  0  0
   28.5325  -21.2433   -8.9468 C   0  0  0  0  0  0  0  0  0  0  0  0
   28.3462  -22.4425   -8.5353 O   0  0  0  0  0  0  0  0  0  0  0  0
   29.8336  -20.7946   -8.8548 O   0  0  0  0  0  0  0  0  0  0  0  0
  2  1  1  0
  3  2  2  0
  4  3  1  0
  5  4  2  0
  5 11  1  0
  6  5  1  0
  7  9  1  0
  7  6  1  0
  7  8  1  1
  9 17  1  0
 10  9  2  0
 11 12  2  0
 12  2  1  0
 14 13  1  6
 14 16  1  0
 15 14  1  0
 16 18  1  0
 16 17  1  6
 18 19  2  0
 18 20  1  0
 20 21  1  0
 21 32  1  0
 21 22  1  1
 23 22  1  0
 23 31  1  0
 24 23  2  0
 25 24  1  0
 25 26  1  0
 26 27  1  0
 26 31  2  0
 27 28  2  0
 28 29  1  0
 30 29  2  0
 31 30  1  0
 32 34  1  0
 33 32  2  0
M  END
$$$$
