YTW.pdb
     RDKit          3D

 34 36  0  0  1  0  0  0  0  0999 V2000
   29.0168  -24.4948  -23.5472 O   0  0  0  0  0  0  0  0  0  0  0  0
   28.8354  -24.2283  -22.1797 C   0  0  0  0  0  0  0  0  0  0  0  0
   29.7495  -24.5933  -21.2136 C   0  0  0  0  0  0  0  0  0  0  0  0
   29.5216  -24.3087  -19.8837 C   0  0  0  0  0  0  0  0  0  0  0  0
   28.3838  -23.6530  -19.4562 C   0  0  0  0  0  0  0  0  0  0  0  0
   28.1196  -23.3586  -18.0301 C   0  0  0  0  0  0  0  0  0  0  0  0
   28.5040  -21.8866  -17.8196 C   0  0  2  0  0  0  0  0  0  0  0  0
   29.9512  -21.7772  -17.7100 N   0  0  0  0  0  0  0  0  0  0  0  0
   27.8338  -21.4845  -16.5624 C   0  0  0  0  0  0  0  0  0  0  0  0
   28.3827  -21.7023  -15.4696 O   0  0  0  0  0  0  0  0  0  0  0  0
   27.4654  -23.2862  -20.4350 C   0  0  0  0  0  0  0  0  0  0  0  0
   27.7026  -23.5765  -21.7710 C   0  0  0  0  0  0  0  0  0  0  0  0
   27.4094  -18.3021  -15.5645 C   0  0  0  0  0  0  0  0  0  0  0  0
   25.9497  -18.7752  -15.5428 C   0  0  1  0  0  0  0  0  0  0  0  0
   25.3469  -18.2827  -16.6763 O   0  0  0  0  0  0  0  0  0  0  0  0
   25.9255  -20.3022  -15.5166 C   0  0  2  0  0  0  0  0  0  0  0  0
   26.5647  -20.8550  -16.6775 N   0  0  0  0  0  0  0  0  0  0  0  0
   24.5248  -20.7608  -15.3637 C   0  0  0  0  0  0  0  0  0  0  0  0
   23.9307  -21.4313  -16.2582 O   0  0  0  0  0  0  0  0  0  0  0  0
   23.7772  -20.4642  -14.1926 N   0  0  0  0  0  0  0  0  0  0  0  0
   22.4224  -20.9935  -14.0033 C   0  0  1  0  0  0  0  0  0  0  0  0
   22.5209  -21.9326  -12.8424 C   0  0  0  0  0  0  0  0  0  0  0  0
   22.9659  -21.2870  -11.5915 C   0  0  0  0  0  0  0  0  0  0  0  0
   22.1524  -20.6261  -10.6602 C   0  0  0  0  0  0  0  0  0  0  0  0
   22.9223  -20.1392   -9.6844 N   0  0  0  0  0  0  0  0  0  0  0  0
   24.2263  -20.4289   -9.8877 C   0  0  0  0  0  0  0  0  0  0  0  0
   25.3705  -20.1609   -9.1698 C   0  0  0  0  0  0  0  0  0  0  0  0
   26.5837  -20.6077   -9.6214 C   0  0  0  0  0  0  0  0  0  0  0  0
   26.6170  -21.3312  -10.8170 C   0  0  0  0  0  0  0  0  0  0  0  0
   25.4721  -21.5907  -11.5246 C   0  0  0  0  0  0  0  0  0  0  0  0
   24.2396  -21.1523  -11.0924 C   0  0  0  0  0  0  0  0  0  0  0  0
   21.4387  -19.9489  -13.8157 C   0  0  0  0  0  0  0  0  0  0  0  0
   20.1966  -20.2634  -13.8346 O   0  0  0  0  0  0  0  0  0  0  0  0
   21.6944  -18.6097  -13.6067 O   0  0  0  0  0  0  0  0  0  0  0  0
  2  1  1  0
  3  2  2  0
  4  3  1  0
  5  4  2  0
  5 11  1  0
  6  5  1  0
  7  9  1  0
  7  6  1  0
  7  8  1  1
  9 17  1  0
 10  9  2  0
 11 12  2  0
 12  2  1  0
 14 13  1  6
 14 16  1  0
 15 14  1  0
 16 18  1  0
 16 17  1  6
 18 19  2  0
 18 20  1  0
 20 21  1  0
 21 32  1  0
 21 22  1  1
 23 22  1  0
 23 31  1  0
 24 23  2  0
 25 24  1  0
 25 26  1  0
 26 27  1  0
 26 31  2  0
 27 28  2  0
 28 29  1  0
 30 29  2  0
 31 30  1  0
 32 34  1  0
 33 32  2  0
M  END
$$$$
