YTW.pdb
     RDKit          3D

 34 36  0  0  1  0  0  0  0  0999 V2000
   18.0152  -21.5169  -17.5204 O   0  0  0  0  0  0  0  0  0  0  0  0
   19.2497  -21.8197  -16.9217 C   0  0  0  0  0  0  0  0  0  0  0  0
   19.8795  -23.0378  -17.0693 C   0  0  0  0  0  0  0  0  0  0  0  0
   21.0908  -23.2841  -16.4580 C   0  0  0  0  0  0  0  0  0  0  0  0
   21.7270  -22.3383  -15.6783 C   0  0  0  0  0  0  0  0  0  0  0  0
   23.0178  -22.5974  -15.0023 C   0  0  0  0  0  0  0  0  0  0  0  0
   24.0394  -21.6560  -15.6572 C   0  0  2  0  0  0  0  0  0  0  0  0
   24.2935  -22.0944  -17.0216 N   0  0  0  0  0  0  0  0  0  0  0  0
   25.2562  -21.7579  -14.8202 C   0  0  0  0  0  0  0  0  0  0  0  0
   26.0518  -22.6959  -14.9938 O   0  0  0  0  0  0  0  0  0  0  0  0
   21.0879  -21.1109  -15.5334 C   0  0  0  0  0  0  0  0  0  0  0  0
   19.8690  -20.8715  -16.1521 C   0  0  0  0  0  0  0  0  0  0  0  0
   27.9956  -19.5480  -14.5964 C   0  0  0  0  0  0  0  0  0  0  0  0
   27.4897  -19.5817  -13.1479 C   0  0  1  0  0  0  0  0  0  0  0  0
   26.7964  -18.4138  -12.9333 O   0  0  0  0  0  0  0  0  0  0  0  0
   26.5927  -20.8045  -12.9661 C   0  0  2  0  0  0  0  0  0  0  0  0
   25.4524  -20.7504  -13.8371 N   0  0  0  0  0  0  0  0  0  0  0  0
   26.2148  -20.9186  -11.5378 C   0  0  0  0  0  0  0  0  0  0  0  0
   25.0294  -20.7320  -11.1344 O   0  0  0  0  0  0  0  0  0  0  0  0
   27.1778  -21.2457  -10.5459 N   0  0  0  0  0  0  0  0  0  0  0  0
   26.8270  -21.2531   -9.1216 C   0  0  1  0  0  0  0  0  0  0  0  0
   28.1179  -21.0477   -8.3930 C   0  0  0  0  0  0  0  0  0  0  0  0
   28.0404  -20.0372   -7.3194 C   0  0  0  0  0  0  0  0  0  0  0  0
   27.2803  -18.8592   -7.3378 C   0  0  0  0  0  0  0  0  0  0  0  0
   27.5028  -18.1851   -6.2072 N   0  0  0  0  0  0  0  0  0  0  0  0
   28.3750  -18.8336   -5.4044 C   0  0  0  0  0  0  0  0  0  0  0  0
   28.8936  -18.5518   -4.1601 C   0  0  0  0  0  0  0  0  0  0  0  0
   29.7657  -19.4254   -3.5671 C   0  0  0  0  0  0  0  0  0  0  0  0
   30.1051  -20.5912   -4.2595 C   0  0  0  0  0  0  0  0  0  0  0  0
   29.5844  -20.8609   -5.4985 C   0  0  0  0  0  0  0  0  0  0  0  0
   28.7056  -19.9988   -6.1171 C   0  0  0  0  0  0  0  0  0  0  0  0
   25.8184  -20.2691   -8.7925 C   0  0  0  0  0  0  0  0  0  0  0  0
   24.8539  -20.6114   -8.0212 O   0  0  0  0  0  0  0  0  0  0  0  0
   25.7782  -18.9597   -9.2245 O   0  0  0  0  0  0  0  0  0  0  0  0
  2  1  1  0
  3  2  2  0
  4  3  1  0
  5  4  2  0
  5 11  1  0
  6  5  1  0
  7  9  1  0
  7  6  1  0
  7  8  1  6
  9 17  1  0
 10  9  2  0
 11 12  2  0
 12  2  1  0
 14 13  1  6
 14 16  1  0
 15 14  1  0
 16 18  1  0
 16 17  1  6
 18 19  2  0
 18 20  1  0
 20 21  1  0
 21 32  1  0
 21 22  1  1
 23 22  1  0
 23 31  1  0
 24 23  2  0
 25 24  1  0
 25 26  1  0
 26 27  1  0
 26 31  2  0
 27 28  2  0
 28 29  1  0
 30 29  2  0
 31 30  1  0
 32 34  1  0
 33 32  2  0
M  END
$$$$
