YTW.pdb
     RDKit          3D

 34 36  0  0  1  0  0  0  0  0999 V2000
   29.3622  -20.1204   -3.7812 O   0  0  0  0  0  0  0  0  0  0  0  0
   28.8304  -19.9081   -5.0643 C   0  0  0  0  0  0  0  0  0  0  0  0
   27.5573  -20.2966   -5.4254 C   0  0  0  0  0  0  0  0  0  0  0  0
   27.0844  -20.0655   -6.7000 C   0  0  0  0  0  0  0  0  0  0  0  0
   27.8489  -19.4422   -7.6665 C   0  0  0  0  0  0  0  0  0  0  0  0
   27.3590  -19.2055   -9.0429 C   0  0  0  0  0  0  0  0  0  0  0  0
   27.3751  -20.5725   -9.7429 C   0  0  2  0  0  0  0  0  0  0  0  0
   28.7515  -21.0218   -9.8915 N   0  0  0  0  0  0  0  0  0  0  0  0
   26.7349  -20.3446  -11.0580 C   0  0  0  0  0  0  0  0  0  0  0  0
   27.2604  -19.5743  -11.8787 O   0  0  0  0  0  0  0  0  0  0  0  0
   29.1321  -19.0515   -7.2967 C   0  0  0  0  0  0  0  0  0  0  0  0
   29.6001  -19.2880   -6.0119 C   0  0  0  0  0  0  0  0  0  0  0  0
   26.2223  -22.3302  -13.8348 C   0  0  0  0  0  0  0  0  0  0  0  0
   24.7768  -21.9958  -13.4423 C   0  0  1  0  0  0  0  0  0  0  0  0
   24.2627  -23.1022  -12.8080 O   0  0  0  0  0  0  0  0  0  0  0  0
   24.7842  -20.7776  -12.5210 C   0  0  2  0  0  0  0  0  0  0  0  0
   25.5212  -21.0377  -11.3165 N   0  0  0  0  0  0  0  0  0  0  0  0
   23.3863  -20.3634  -12.2564 C   0  0  0  0  0  0  0  0  0  0  0  0
   22.7892  -20.6471  -11.1768 O   0  0  0  0  0  0  0  0  0  0  0  0
   22.6450  -19.6211  -13.2144 N   0  0  0  0  0  0  0  0  0  0  0  0
   21.2533  -19.2328  -12.9615 C   0  0  1  0  0  0  0  0  0  0  0  0
   21.0147  -18.0283  -13.8168 C   0  0  0  0  0  0  0  0  0  0  0  0
   19.6631  -17.4527  -13.6693 C   0  0  0  0  0  0  0  0  0  0  0  0
   19.1183  -16.8942  -12.5044 C   0  0  0  0  0  0  0  0  0  0  0  0
   17.8611  -16.5205  -12.7529 N   0  0  0  0  0  0  0  0  0  0  0  0
   17.5052  -16.7878  -14.0287 C   0  0  0  0  0  0  0  0  0  0  0  0
   16.3469  -16.5789  -14.7436 C   0  0  0  0  0  0  0  0  0  0  0  0
   16.2795  -16.9442  -16.0617 C   0  0  0  0  0  0  0  0  0  0  0  0
   17.4087  -17.5278  -16.6433 C   0  0  0  0  0  0  0  0  0  0  0  0
   18.5561  -17.7328  -15.9219 C   0  0  0  0  0  0  0  0  0  0  0  0
   18.6497  -17.3748  -14.5948 C   0  0  0  0  0  0  0  0  0  0  0  0
   20.3210  -20.3105  -13.2134 C   0  0  0  0  0  0  0  0  0  0  0  0
   20.5740  -21.1330  -14.1630 O   0  0  0  0  0  0  0  0  0  0  0  0
   19.1550  -20.5647  -12.5217 O   0  0  0  0  0  0  0  0  0  0  0  0
  2  1  1  0
  3  2  2  0
  4  3  1  0
  5  4  2  0
  5 11  1  0
  6  5  1  0
  7  9  1  0
  7  6  1  0
  7  8  1  6
  9 17  1  0
 10  9  2  0
 11 12  2  0
 12  2  1  0
 14 13  1  1
 14 16  1  0
 15 14  1  0
 16 18  1  0
 16 17  1  1
 18 19  2  0
 18 20  1  0
 20 21  1  0
 21 32  1  0
 21 22  1  6
 23 22  1  0
 23 31  1  0
 24 23  2  0
 25 24  1  0
 25 26  1  0
 26 27  1  0
 26 31  2  0
 27 28  2  0
 28 29  1  0
 30 29  2  0
 31 30  1  0
 32 34  1  0
 33 32  2  0
M  END
$$$$
