YTW.pdb
     RDKit          3D

 34 36  0  0  1  0  0  0  0  0999 V2000
   32.5657  -16.2921  -18.5392 O   0  0  0  0  0  0  0  0  0  0  0  0
   31.1958  -16.5797  -18.4169 C   0  0  0  0  0  0  0  0  0  0  0  0
   30.2073  -15.7705  -18.9366 C   0  0  0  0  0  0  0  0  0  0  0  0
   28.8762  -16.0985  -18.7868 C   0  0  0  0  0  0  0  0  0  0  0  0
   28.4698  -17.2371  -18.1192 C   0  0  0  0  0  0  0  0  0  0  0  0
   27.0442  -17.5898  -17.9360 C   0  0  0  0  0  0  0  0  0  0  0  0
   26.8324  -18.9141  -18.6844 C   0  0  2  0  0  0  0  0  0  0  0  0
   27.1093  -18.7177  -20.0997 N   0  0  0  0  0  0  0  0  0  0  0  0
   25.4139  -19.2695  -18.4544 C   0  0  0  0  0  0  0  0  0  0  0  0
   24.5199  -18.7105  -19.1112 O   0  0  0  0  0  0  0  0  0  0  0  0
   29.4711  -18.0503  -17.5977 C   0  0  0  0  0  0  0  0  0  0  0  0
   30.8081  -17.7128  -17.7530 C   0  0  0  0  0  0  0  0  0  0  0  0
   23.9641  -22.2788  -19.1012 C   0  0  0  0  0  0  0  0  0  0  0  0
   23.5650  -22.1192  -17.6280 C   0  0  1  0  0  0  0  0  0  0  0  0
   24.3492  -22.9826  -16.8997 O   0  0  0  0  0  0  0  0  0  0  0  0
   23.7942  -20.6685  -17.2084 C   0  0  2  0  0  0  0  0  0  0  0  0
   25.1451  -20.2566  -17.4678 N   0  0  0  0  0  0  0  0  0  0  0  0
   23.4130  -20.5112  -15.7852 C   0  0  0  0  0  0  0  0  0  0  0  0
   24.2536  -20.2061  -14.8891 O   0  0  0  0  0  0  0  0  0  0  0  0
   22.0711  -20.6986  -15.3579 N   0  0  0  0  0  0  0  0  0  0  0  0
   21.6986  -20.5610  -13.9459 C   0  0  1  0  0  0  0  0  0  0  0  0
   21.9889  -19.1356  -13.5949 C   0  0  0  0  0  0  0  0  0  0  0  0
   20.7790  -18.3068  -13.4248 C   0  0  0  0  0  0  0  0  0  0  0  0
   19.9771  -18.2294  -12.2772 C   0  0  0  0  0  0  0  0  0  0  0  0
   18.9534  -17.4082  -12.5215 N   0  0  0  0  0  0  0  0  0  0  0  0
   19.0032  -16.9100  -13.7765 C   0  0  0  0  0  0  0  0  0  0  0  0
   18.1994  -16.0340  -14.4714 C   0  0  0  0  0  0  0  0  0  0  0  0
   18.5153  -15.6871  -15.7580 C   0  0  0  0  0  0  0  0  0  0  0  0
   19.6618  -16.2462  -16.3297 C   0  0  0  0  0  0  0  0  0  0  0  0
   20.4539  -17.1187  -15.6295 C   0  0  0  0  0  0  0  0  0  0  0  0
   20.1582  -17.4841  -14.3344 C   0  0  0  0  0  0  0  0  0  0  0  0
   20.3272  -20.9473  -13.6927 C   0  0  0  0  0  0  0  0  0  0  0  0
   19.4916  -20.9208  -14.6639 O   0  0  0  0  0  0  0  0  0  0  0  0
   19.8006  -21.3595  -12.4863 O   0  0  0  0  0  0  0  0  0  0  0  0
  2  1  1  0
  3  2  2  0
  4  3  1  0
  5  4  2  0
  5 11  1  0
  6  5  1  0
  7  9  1  0
  7  6  1  0
  7  8  1  6
  9 17  1  0
 10  9  2  0
 11 12  2  0
 12  2  1  0
 14 13  1  6
 14 16  1  0
 15 14  1  0
 16 18  1  0
 16 17  1  1
 18 19  2  0
 18 20  1  0
 20 21  1  0
 21 32  1  0
 21 22  1  6
 23 22  1  0
 23 31  1  0
 24 23  2  0
 25 24  1  0
 25 26  1  0
 26 27  1  0
 26 31  2  0
 27 28  2  0
 28 29  1  0
 30 29  2  0
 31 30  1  0
 32 34  1  0
 33 32  2  0
M  END
$$$$
