YTW.pdb
     RDKit          3D

 34 36  0  0  1  0  0  0  0  0999 V2000
   18.3678  -19.0072  -18.2032 O   0  0  0  0  0  0  0  0  0  0  0  0
   18.9681  -17.7479  -18.0358 C   0  0  0  0  0  0  0  0  0  0  0  0
   18.2665  -16.6243  -17.6518 C   0  0  0  0  0  0  0  0  0  0  0  0
   18.9046  -15.4109  -17.5035 C   0  0  0  0  0  0  0  0  0  0  0  0
   20.2589  -15.2597  -17.7280 C   0  0  0  0  0  0  0  0  0  0  0  0
   20.9512  -13.9589  -17.5902 C   0  0  0  0  0  0  0  0  0  0  0  0
   20.5719  -13.1396  -18.8327 C   0  0  2  0  0  0  0  0  0  0  0  0
   21.3034  -13.6449  -19.9851 N   0  0  0  0  0  0  0  0  0  0  0  0
   20.9587  -11.7466  -18.5141 C   0  0  0  0  0  0  0  0  0  0  0  0
   22.1162  -11.3569  -18.7406 O   0  0  0  0  0  0  0  0  0  0  0  0
   20.9621  -16.3965  -18.1143 C   0  0  0  0  0  0  0  0  0  0  0  0
   20.3120  -17.6137  -18.2612 C   0  0  0  0  0  0  0  0  0  0  0  0
   19.9114   -8.6943  -19.8865 C   0  0  0  0  0  0  0  0  0  0  0  0
   19.4880   -8.5528  -18.4182 C   0  0  1  0  0  0  0  0  0  0  0  0
   18.1360   -8.7972  -18.3607 O   0  0  0  0  0  0  0  0  0  0  0  0
   20.2730   -9.5586  -17.5785 C   0  0  2  0  0  0  0  0  0  0  0  0
   19.9579  -10.9091  -17.9510 N   0  0  0  0  0  0  0  0  0  0  0  0
   20.0226   -9.2894  -16.1430 C   0  0  0  0  0  0  0  0  0  0  0  0
   19.2041   -9.9715  -15.4593 O   0  0  0  0  0  0  0  0  0  0  0  0
   20.6976   -8.2409  -15.4624 N   0  0  0  0  0  0  0  0  0  0  0  0
   20.4869   -8.0076  -14.0297 C   0  0  1  0  0  0  0  0  0  0  0  0
   21.8476   -7.7442  -13.4652 C   0  0  0  0  0  0  0  0  0  0  0  0
   22.4749   -6.5097  -13.9771 C   0  0  0  0  0  0  0  0  0  0  0  0
   22.2109   -5.2014  -13.5476 C   0  0  0  0  0  0  0  0  0  0  0  0
   22.9414   -4.3533  -14.2750 N   0  0  0  0  0  0  0  0  0  0  0  0
   23.6999   -5.0034  -15.1849 C   0  0  0  0  0  0  0  0  0  0  0  0
   24.6059   -4.5755  -16.1296 C   0  0  0  0  0  0  0  0  0  0  0  0
   25.2552   -5.4868  -16.9191 C   0  0  0  0  0  0  0  0  0  0  0  0
   24.9682   -6.8424  -16.7349 C   0  0  0  0  0  0  0  0  0  0  0  0
   24.0632   -7.2573  -15.7928 C   0  0  0  0  0  0  0  0  0  0  0  0
   23.3965   -6.3611  -14.9863 C   0  0  0  0  0  0  0  0  0  0  0  0
   19.5422   -6.9419  -13.7732 C   0  0  0  0  0  0  0  0  0  0  0  0
   19.1680   -6.2032  -14.7512 O   0  0  0  0  0  0  0  0  0  0  0  0
   18.9758   -6.6233  -12.5565 O   0  0  0  0  0  0  0  0  0  0  0  0
  2  1  1  0
  3  2  2  0
  4  3  1  0
  5  4  2  0
  5 11  1  0
  6  5  1  0
  7  9  1  0
  7  6  1  0
  7  8  1  6
  9 17  1  0
 10  9  2  0
 11 12  2  0
 12  2  1  0
 14 13  1  6
 14 16  1  0
 15 14  1  0
 16 18  1  0
 16 17  1  6
 18 19  2  0
 18 20  1  0
 20 21  1  0
 21 32  1  0
 21 22  1  1
 23 22  1  0
 23 31  1  0
 24 23  2  0
 25 24  1  0
 25 26  1  0
 26 27  1  0
 26 31  2  0
 27 28  2  0
 28 29  1  0
 30 29  2  0
 31 30  1  0
 32 34  1  0
 33 32  2  0
M  END
$$$$
