YTW.pdb
     RDKit          3D

 34 36  0  0  1  0  0  0  0  0999 V2000
   31.2132  -16.6353  -18.4343 O   0  0  0  0  0  0  0  0  0  0  0  0
   30.2376  -16.8180  -17.4398 C   0  0  0  0  0  0  0  0  0  0  0  0
   29.2807  -15.8709  -17.1407 C   0  0  0  0  0  0  0  0  0  0  0  0
   28.3461  -16.1003  -16.1530 C   0  0  0  0  0  0  0  0  0  0  0  0
   28.3196  -17.2724  -15.4231 C   0  0  0  0  0  0  0  0  0  0  0  0
   27.3333  -17.5222  -14.3484 C   0  0  0  0  0  0  0  0  0  0  0  0
   26.5331  -18.7593  -14.7823 C   0  0  2  0  0  0  0  0  0  0  0  0
   25.8482  -18.4754  -16.0348 N   0  0  0  0  0  0  0  0  0  0  0  0
   25.5722  -19.0071  -13.6838 C   0  0  0  0  0  0  0  0  0  0  0  0
   24.4513  -18.4723  -13.7076 O   0  0  0  0  0  0  0  0  0  0  0  0
   29.2866  -18.2249  -15.7296 C   0  0  0  0  0  0  0  0  0  0  0  0
   30.2234  -17.9859  -16.7251 C   0  0  0  0  0  0  0  0  0  0  0  0
   23.4596  -20.9812  -13.4842 C   0  0  0  0  0  0  0  0  0  0  0  0
   24.2078  -21.4912  -12.2451 C   0  0  1  0  0  0  0  0  0  0  0  0
   24.9968  -22.5414  -12.6517 O   0  0  0  0  0  0  0  0  0  0  0  0
   25.0477  -20.3517  -11.6714 C   0  0  2  0  0  0  0  0  0  0  0  0
   25.9963  -19.8658  -12.6336 N   0  0  0  0  0  0  0  0  0  0  0  0
   25.6906  -20.8094  -10.4172 C   0  0  0  0  0  0  0  0  0  0  0  0
   26.8419  -21.3358  -10.3999 O   0  0  0  0  0  0  0  0  0  0  0  0
   25.0354  -20.6769   -9.1637 N   0  0  0  0  0  0  0  0  0  0  0  0
   25.6144  -21.2448   -7.9415 C   0  0  1  0  0  0  0  0  0  0  0  0
   25.5991  -20.1329   -6.9401 C   0  0  0  0  0  0  0  0  0  0  0  0
   26.9083  -19.4736   -6.7638 C   0  0  0  0  0  0  0  0  0  0  0  0
   27.5397  -18.6180   -7.6776 C   0  0  0  0  0  0  0  0  0  0  0  0
   28.7251  -18.2567   -7.1814 N   0  0  0  0  0  0  0  0  0  0  0  0
   28.9491  -18.8142   -5.9711 C   0  0  0  0  0  0  0  0  0  0  0  0
   29.9950  -18.7328   -5.0790 C   0  0  0  0  0  0  0  0  0  0  0  0
   29.9362  -19.4096   -3.8900 C   0  0  0  0  0  0  0  0  0  0  0  0
   28.7967  -20.1734   -3.6211 C   0  0  0  0  0  0  0  0  0  0  0  0
   27.7621  -20.2489   -4.5170 C   0  0  0  0  0  0  0  0  0  0  0  0
   27.7966  -19.5782   -5.7200 C   0  0  0  0  0  0  0  0  0  0  0  0
   24.9155  -22.4305   -7.4944 C   0  0  0  0  0  0  0  0  0  0  0  0
   23.7392  -22.6589   -7.9487 O   0  0  0  0  0  0  0  0  0  0  0  0
   25.3889  -23.3768   -6.6095 O   0  0  0  0  0  0  0  0  0  0  0  0
  2  1  1  0
  3  2  2  0
  4  3  1  0
  5  4  2  0
  5 11  1  0
  6  5  1  0
  7  9  1  0
  7  6  1  0
  7  8  1  6
  9 17  1  0
 10  9  2  0
 11 12  2  0
 12  2  1  0
 14 13  1  6
 14 16  1  0
 15 14  1  0
 16 18  1  0
 16 17  1  6
 18 19  2  0
 18 20  1  0
 20 21  1  0
 21 32  1  0
 21 22  1  1
 23 22  1  0
 23 31  1  0
 24 23  2  0
 25 24  1  0
 25 26  1  0
 26 27  1  0
 26 31  2  0
 27 28  2  0
 28 29  1  0
 30 29  2  0
 31 30  1  0
 32 34  1  0
 33 32  2  0
M  END
$$$$
