KHQ.pdb
     RDKit          3D

 29 29  0  0  1  0  0  0  0  0999 V2000
    9.1150  -16.1769   18.8055 N   0  0  0  0  0  0  0  0  0  0  0  0
    9.0734  -14.8998   19.4916 C   0  0  1  0  0  0  0  0  0  0  0  0
    8.0963  -14.0138   18.7514 C   0  0  0  0  0  0  0  0  0  0  0  0
    8.2912  -14.2598   17.2706 C   0  0  0  0  0  0  0  0  0  0  0  0
    7.4942  -13.2794   16.4610 C   0  0  0  0  0  0  0  0  0  0  0  0
    7.6824  -13.4964   14.9955 C   0  0  0  0  0  0  0  0  0  0  0  0
    6.9038  -12.5463   14.2219 N   0  0  0  0  0  0  0  0  0  0  0  0
    8.6420  -15.1017   20.9120 C   0  0  0  0  0  0  0  0  0  0  0  0
    8.5300  -14.1610   21.7393 O   0  0  0  0  0  0  0  0  0  0  0  0
    8.3377  -16.4123   21.3738 N   0  0  0  0  0  0  0  0  0  0  0  0
    7.9030  -16.7310   22.6913 C   0  0  1  0  0  0  0  0  0  0  0  0
    7.1159  -18.0030   22.7813 C   0  0  0  0  0  0  0  0  0  0  0  0
    5.8305  -17.9222   22.0430 C   0  0  0  0  0  0  0  0  0  0  0  0
    5.2212  -16.8129   21.4955 C   0  0  0  0  0  0  0  0  0  0  0  0
    4.0586  -17.2078   20.9180 N   0  0  0  0  0  0  0  0  0  0  0  0
    3.9341  -18.5271   21.0936 C   0  0  0  0  0  0  0  0  0  0  0  0
    5.0030  -18.9551   21.7716 N   0  0  0  0  0  0  0  0  0  0  0  0
    9.0216  -16.7431   23.6971 C   0  0  0  0  0  0  0  0  0  0  0  0
   10.1190  -17.1772   23.2696 O   0  0  0  0  0  0  0  0  0  0  0  0
    9.5505  -13.1382   29.0059 N   0  0  0  0  0  0  0  0  0  0  0  0
   10.2787  -14.3431   29.3091 C   0  0  0  0  0  0  0  0  0  0  0  0
   10.8194  -14.3726   30.4322 O   0  0  0  0  0  0  0  0  0  0  0  0
   10.3446  -15.4449   28.3106 C   0  0  0  0  0  0  0  0  0  0  0  0
    9.6908  -15.1278   27.0068 C   0  0  0  0  0  0  0  0  0  0  0  0
    9.8218  -16.2967   26.0517 C   0  0  2  0  0  0  0  0  0  0  0  0
    8.7961  -16.2860   25.0119 N   0  0  0  0  0  0  0  0  0  0  0  0
    9.8062  -17.5902   26.7710 C   0  0  0  0  0  0  0  0  0  0  0  0
    8.7321  -18.4437   26.7913 O   0  0  0  0  0  0  0  0  0  0  0  0
   10.8428  -17.9233   27.4006 O   0  0  0  0  0  0  0  0  0  0  0  0
  2  1  1  6
  2  8  1  0
  3  2  1  0
  3  4  1  0
  4  5  1  0
  5  6  1  0
  7  6  1  0
  8  9  2  0
 10  8  1  0
 10 11  1  0
 11 18  1  0
 11 12  1  6
 12 13  1  0
 13 17  1  0
 14 13  2  0
 14 15  1  0
 15 16  1  0
 17 16  2  0
 18 19  2  0
 20 21  1  0
 21 23  1  0
 22 21  2  0
 23 24  1  0
 25 24  1  1
 25 27  1  0
 26 25  1  0
 26 18  1  0
 27 28  1  0
 29 27  2  0
M  END
$$$$
