KHQ.pdb
     RDKit          3D

 29 29  0  0  1  0  0  0  0  0999 V2000
    8.6666  -18.3801   19.4583 N   0  0  0  0  0  0  0  0  0  0  0  0
    9.8141  -17.4943   19.4148 C   0  0  1  0  0  0  0  0  0  0  0  0
    9.6826  -16.6350   18.1770 C   0  0  0  0  0  0  0  0  0  0  0  0
    9.6619  -17.5615   16.9802 C   0  0  0  0  0  0  0  0  0  0  0  0
   11.0572  -17.9424   16.5804 C   0  0  0  0  0  0  0  0  0  0  0  0
   11.0605  -18.8406   15.3874 C   0  0  0  0  0  0  0  0  0  0  0  0
   12.4021  -19.3068   15.0874 N   0  0  0  0  0  0  0  0  0  0  0  0
    9.8487  -16.6491   20.6512 C   0  0  0  0  0  0  0  0  0  0  0  0
   10.6933  -15.7364   20.8395 O   0  0  0  0  0  0  0  0  0  0  0  0
    8.8901  -16.8688   21.6789 N   0  0  0  0  0  0  0  0  0  0  0  0
    8.8857  -16.2128   22.9423 C   0  0  1  0  0  0  0  0  0  0  0  0
    7.5264  -16.0952   23.5621 C   0  0  0  0  0  0  0  0  0  0  0  0
    7.4331  -14.9472   24.4987 C   0  0  0  0  0  0  0  0  0  0  0  0
    8.3700  -13.9686   24.7563 C   0  0  0  0  0  0  0  0  0  0  0  0
    7.8579  -13.1238   25.6863 N   0  0  0  0  0  0  0  0  0  0  0  0
    6.6337  -13.5530   26.0089 C   0  0  0  0  0  0  0  0  0  0  0  0
    6.3802  -14.6516   25.2920 N   0  0  0  0  0  0  0  0  0  0  0  0
    9.8517  -16.8154   23.9255 C   0  0  0  0  0  0  0  0  0  0  0  0
    9.8277  -18.0683   23.9977 O   0  0  0  0  0  0  0  0  0  0  0  0
    8.8980  -13.7406   28.8929 N   0  0  0  0  0  0  0  0  0  0  0  0
   10.3276  -13.8773   29.0008 C   0  0  0  0  0  0  0  0  0  0  0  0
   10.8560  -13.2449   29.9363 O   0  0  0  0  0  0  0  0  0  0  0  0
   11.0693  -14.7312   28.0332 C   0  0  0  0  0  0  0  0  0  0  0  0
   10.1987  -15.4302   27.0426 C   0  0  0  0  0  0  0  0  0  0  0  0
   11.0403  -16.2437   26.0805 C   0  0  2  0  0  0  0  0  0  0  0  0
   10.7008  -15.9834   24.6840 N   0  0  0  0  0  0  0  0  0  0  0  0
   10.9457  -17.6926   26.3675 C   0  0  0  0  0  0  0  0  0  0  0  0
   12.0004  -18.4611   26.7912 O   0  0  0  0  0  0  0  0  0  0  0  0
    9.8285  -18.2492   26.2122 O   0  0  0  0  0  0  0  0  0  0  0  0
  2  1  1  1
  2  8  1  0
  3  2  1  0
  3  4  1  0
  4  5  1  0
  5  6  1  0
  7  6  1  0
  8  9  2  0
 10  8  1  0
 10 11  1  0
 11 18  1  0
 11 12  1  1
 12 13  1  0
 13 17  1  0
 14 13  2  0
 14 15  1  0
 15 16  1  0
 17 16  2  0
 18 19  2  0
 20 21  1  0
 21 23  1  0
 22 21  2  0
 23 24  1  0
 25 24  1  1
 25 27  1  0
 26 25  1  0
 26 18  1  0
 27 28  1  0
 29 27  2  0
M  END
$$$$
