KHQ.pdb
     RDKit          3D

 29 29  0  0  1  0  0  0  0  0999 V2000
   10.7677  -18.8464   19.5693 N   0  0  0  0  0  0  0  0  0  0  0  0
   11.7656  -17.7956   19.6272 C   0  0  1  0  0  0  0  0  0  0  0  0
   11.6723  -17.0041   18.3416 C   0  0  0  0  0  0  0  0  0  0  0  0
   11.8020  -17.9830   17.1944 C   0  0  0  0  0  0  0  0  0  0  0  0
   11.8728  -17.2567   15.8832 C   0  0  0  0  0  0  0  0  0  0  0  0
   11.9521  -18.2062   14.7334 C   0  0  0  0  0  0  0  0  0  0  0  0
   12.1684  -17.4984   13.4846 N   0  0  0  0  0  0  0  0  0  0  0  0
   11.5097  -16.9189   20.8146 C   0  0  0  0  0  0  0  0  0  0  0  0
   12.2757  -15.9826   21.1587 O   0  0  0  0  0  0  0  0  0  0  0  0
   10.3500  -17.1344   21.6096 N   0  0  0  0  0  0  0  0  0  0  0  0
    9.9279  -16.2948   22.6789 C   0  0  1  0  0  0  0  0  0  0  0  0
    8.4625  -15.9818   22.6648 C   0  0  0  0  0  0  0  0  0  0  0  0
    8.0691  -15.1858   21.4750 C   0  0  0  0  0  0  0  0  0  0  0  0
    8.5957  -13.9934   21.0251 C   0  0  0  0  0  0  0  0  0  0  0  0
    7.9262  -13.6294   19.9026 N   0  0  0  0  0  0  0  0  0  0  0  0
    7.0032  -14.5622   19.6479 C   0  0  0  0  0  0  0  0  0  0  0  0
    7.0914  -15.4988   20.5966 N   0  0  0  0  0  0  0  0  0  0  0  0
   10.3332  -16.8111   24.0325 C   0  0  0  0  0  0  0  0  0  0  0  0
   10.8983  -17.9319   24.0288 O   0  0  0  0  0  0  0  0  0  0  0  0
   10.2412  -13.1088   29.5653 N   0  0  0  0  0  0  0  0  0  0  0  0
    9.8498  -13.0899   28.1795 C   0  0  0  0  0  0  0  0  0  0  0  0
    9.0873  -12.1594   27.8520 O   0  0  0  0  0  0  0  0  0  0  0  0
   10.3552  -14.1354   27.2484 C   0  0  0  0  0  0  0  0  0  0  0  0
    9.9362  -15.5235   27.6029 C   0  0  0  0  0  0  0  0  0  0  0  0
   10.3927  -16.5012   26.5393 C   0  0  2  0  0  0  0  0  0  0  0  0
   10.0728  -16.0468   25.1885 N   0  0  0  0  0  0  0  0  0  0  0  0
    9.8351  -17.8529   26.7688 C   0  0  0  0  0  0  0  0  0  0  0  0
   10.3101  -18.7287   27.7121 O   0  0  0  0  0  0  0  0  0  0  0  0
    8.8668  -18.2168   26.0532 O   0  0  0  0  0  0  0  0  0  0  0  0
  2  1  1  6
  2  8  1  0
  3  2  1  0
  3  4  1  0
  4  5  1  0
  5  6  1  0
  7  6  1  0
  8  9  2  0
 10  8  1  0
 10 11  1  0
 11 18  1  0
 11 12  1  1
 12 13  1  0
 13 17  1  0
 14 13  2  0
 14 15  1  0
 15 16  1  0
 17 16  2  0
 18 19  2  0
 20 21  1  0
 21 23  1  0
 22 21  2  0
 23 24  1  0
 25 24  1  1
 25 27  1  0
 26 25  1  0
 26 18  1  0
 27 28  1  0
 29 27  2  0
M  END
$$$$
