KHQ.pdb
     RDKit          3D

 29 29  0  0  1  0  0  0  0  0999 V2000
    7.4657  -17.4624   20.1655 N   0  0  0  0  0  0  0  0  0  0  0  0
    8.4633  -16.6842   20.8745 C   0  0  1  0  0  0  0  0  0  0  0  0
    8.2812  -15.2360   20.4781 C   0  0  0  0  0  0  0  0  0  0  0  0
    8.6321  -15.1186   19.0104 C   0  0  0  0  0  0  0  0  0  0  0  0
    8.4459  -13.7085   18.5319 C   0  0  0  0  0  0  0  0  0  0  0  0
    8.7376  -13.5809   17.0729 C   0  0  0  0  0  0  0  0  0  0  0  0
    8.5375  -12.2174   16.6168 N   0  0  0  0  0  0  0  0  0  0  0  0
    8.2874  -16.8605   22.3517 C   0  0  0  0  0  0  0  0  0  0  0  0
    7.1644  -16.8561   22.9180 O   0  0  0  0  0  0  0  0  0  0  0  0
    9.4306  -17.0439   23.1780 N   0  0  0  0  0  0  0  0  0  0  0  0
    9.3942  -17.2334   24.5884 C   0  0  1  0  0  0  0  0  0  0  0  0
   10.1212  -18.4572   25.0569 C   0  0  0  0  0  0  0  0  0  0  0  0
    9.4625  -19.7091   24.6068 C   0  0  0  0  0  0  0  0  0  0  0  0
    8.3137  -19.8558   23.8583 C   0  0  0  0  0  0  0  0  0  0  0  0
    8.0829  -21.1821   23.6888 N   0  0  0  0  0  0  0  0  0  0  0  0
    9.0555  -21.8562   24.3104 C   0  0  0  0  0  0  0  0  0  0  0  0
    9.8854  -20.9666   24.8627 N   0  0  0  0  0  0  0  0  0  0  0  0
    9.8594  -16.0287   25.3598 C   0  0  0  0  0  0  0  0  0  0  0  0
   11.0859  -15.7775   25.2684 O   0  0  0  0  0  0  0  0  0  0  0  0
    5.7331  -12.0564   28.0355 N   0  0  0  0  0  0  0  0  0  0  0  0
    6.2209  -12.0559   26.6805 C   0  0  0  0  0  0  0  0  0  0  0  0
    5.5145  -11.4400   25.8583 O   0  0  0  0  0  0  0  0  0  0  0  0
    7.4895  -12.7586   26.3453 C   0  0  0  0  0  0  0  0  0  0  0  0
    8.1689  -13.3855   27.5171 C   0  0  0  0  0  0  0  0  0  0  0  0
    9.3384  -14.2328   27.0590 C   0  0  2  0  0  0  0  0  0  0  0  0
    8.9387  -15.2720   26.1136 N   0  0  0  0  0  0  0  0  0  0  0  0
   10.0556  -14.8340   28.2055 C   0  0  0  0  0  0  0  0  0  0  0  0
   11.0423  -14.1954   28.9135 O   0  0  0  0  0  0  0  0  0  0  0  0
    9.7381  -16.0018   28.5485 O   0  0  0  0  0  0  0  0  0  0  0  0
  2  1  1  6
  2  8  1  0
  3  2  1  0
  3  4  1  0
  4  5  1  0
  5  6  1  0
  7  6  1  0
  8  9  2  0
 10  8  1  0
 10 11  1  0
 11 18  1  0
 11 12  1  6
 12 13  1  0
 13 17  1  0
 14 13  2  0
 14 15  1  0
 15 16  1  0
 17 16  2  0
 18 19  2  0
 20 21  1  0
 21 23  1  0
 22 21  2  0
 23 24  1  0
 25 24  1  1
 25 27  1  0
 26 25  1  0
 26 18  1  0
 27 28  1  0
 29 27  2  0
M  END
$$$$
