KHQ.pdb
     RDKit          3D

 29 29  0  0  1  0  0  0  0  0999 V2000
    8.2650  -16.3401   18.9900 N   0  0  0  0  0  0  0  0  0  0  0  0
    9.1166  -15.1679   19.0550 C   0  0  1  0  0  0  0  0  0  0  0  0
    8.5701  -14.1500   18.0787 C   0  0  0  0  0  0  0  0  0  0  0  0
    8.2945  -14.8711   16.7767 C   0  0  0  0  0  0  0  0  0  0  0  0
    8.7049  -14.0268   15.6060 C   0  0  0  0  0  0  0  0  0  0  0  0
    8.3943  -14.6987   14.3090 C   0  0  0  0  0  0  0  0  0  0  0  0
    8.7316  -13.8454   13.1840 N   0  0  0  0  0  0  0  0  0  0  0  0
    9.1212  -14.6219   20.4500 C   0  0  0  0  0  0  0  0  0  0  0  0
    9.9221  -13.7344   20.8408 O   0  0  0  0  0  0  0  0  0  0  0  0
    8.1836  -15.1141   21.3998 N   0  0  0  0  0  0  0  0  0  0  0  0
    8.0661  -14.6544   22.7419 C   0  0  1  0  0  0  0  0  0  0  0  0
    6.6524  -14.5489   23.2274 C   0  0  0  0  0  0  0  0  0  0  0  0
    6.5540  -13.8229   24.5186 C   0  0  0  0  0  0  0  0  0  0  0  0
    6.8722  -12.5096   24.7935 C   0  0  0  0  0  0  0  0  0  0  0  0
    6.6271  -12.2788   26.1079 N   0  0  0  0  0  0  0  0  0  0  0  0
    6.1673  -13.4108   26.6503 C   0  0  0  0  0  0  0  0  0  0  0  0
    6.1242  -14.3395   25.6907 N   0  0  0  0  0  0  0  0  0  0  0  0
    8.8888  -15.4533   23.7156 C   0  0  0  0  0  0  0  0  0  0  0  0
    9.1048  -16.6436   23.3807 O   0  0  0  0  0  0  0  0  0  0  0  0
   10.1483  -13.6577   29.8471 N   0  0  0  0  0  0  0  0  0  0  0  0
   10.6306  -15.0075   29.7076 C   0  0  0  0  0  0  0  0  0  0  0  0
   11.1050  -15.5153   30.7428 O   0  0  0  0  0  0  0  0  0  0  0  0
   10.5405  -15.6986   28.3924 C   0  0  0  0  0  0  0  0  0  0  0  0
    9.9048  -14.8832   27.3160 C   0  0  0  0  0  0  0  0  0  0  0  0
    9.9824  -15.6083   25.9879 C   0  0  2  0  0  0  0  0  0  0  0  0
    9.3583  -14.8552   24.9031 N   0  0  0  0  0  0  0  0  0  0  0  0
    9.3933  -16.9633   26.0737 C   0  0  0  0  0  0  0  0  0  0  0  0
   10.1303  -18.1206   26.0905 O   0  0  0  0  0  0  0  0  0  0  0  0
    8.1403  -17.0550   26.1347 O   0  0  0  0  0  0  0  0  0  0  0  0
  2  1  1  1
  2  8  1  0
  3  2  1  0
  3  4  1  0
  4  5  1  0
  5  6  1  0
  7  6  1  0
  8  9  2  0
 10  8  1  0
 10 11  1  0
 11 18  1  0
 11 12  1  1
 12 13  1  0
 13 17  1  0
 14 13  2  0
 14 15  1  0
 15 16  1  0
 17 16  2  0
 18 19  2  0
 20 21  1  0
 21 23  1  0
 22 21  2  0
 23 24  1  0
 25 24  1  1
 25 27  1  0
 26 25  1  0
 26 18  1  0
 27 28  1  0
 29 27  2  0
M  END
$$$$
