KHQ.pdb
     RDKit          3D

 29 29  0  0  1  0  0  0  0  0999 V2000
   10.0063  -19.3694   18.7707 N   0  0  0  0  0  0  0  0  0  0  0  0
   11.1216  -18.4513   18.6418 C   0  0  1  0  0  0  0  0  0  0  0  0
   11.0557  -17.8418   17.2591 C   0  0  0  0  0  0  0  0  0  0  0  0
   12.3332  -18.2129   16.5371 C   0  0  0  0  0  0  0  0  0  0  0  0
   12.3273  -17.6722   15.1373 C   0  0  0  0  0  0  0  0  0  0  0  0
   13.5654  -18.0555   14.3956 C   0  0  0  0  0  0  0  0  0  0  0  0
   13.6228  -17.4020   13.1006 N   0  0  0  0  0  0  0  0  0  0  0  0
   11.0308  -17.3926   19.6978 C   0  0  0  0  0  0  0  0  0  0  0  0
   11.9623  -16.5850   19.9468 O   0  0  0  0  0  0  0  0  0  0  0  0
    9.8433  -17.2728   20.4716 N   0  0  0  0  0  0  0  0  0  0  0  0
    9.6778  -16.3933   21.5787 C   0  0  1  0  0  0  0  0  0  0  0  0
    8.3915  -15.6249   21.5585 C   0  0  0  0  0  0  0  0  0  0  0  0
    8.3604  -14.6091   20.4764 C   0  0  0  0  0  0  0  0  0  0  0  0
    9.3588  -14.2667   19.5889 C   0  0  0  0  0  0  0  0  0  0  0  0
    8.8887  -13.2859   18.7776 N   0  0  0  0  0  0  0  0  0  0  0  0
    7.6308  -13.0144   19.1392 C   0  0  0  0  0  0  0  0  0  0  0  0
    7.3149  -13.8129   20.1628 N   0  0  0  0  0  0  0  0  0  0  0  0
    9.8514  -17.0758   22.9080 C   0  0  0  0  0  0  0  0  0  0  0  0
    8.9135  -17.8402   23.2419 O   0  0  0  0  0  0  0  0  0  0  0  0
   15.2840  -19.6780   24.0755 N   0  0  0  0  0  0  0  0  0  0  0  0
   14.5177  -19.9868   25.2552 C   0  0  0  0  0  0  0  0  0  0  0  0
   15.0597  -20.7769   26.0530 O   0  0  0  0  0  0  0  0  0  0  0  0
   13.1768  -19.3722   25.4545 C   0  0  0  0  0  0  0  0  0  0  0  0
   12.7682  -18.4321   24.3696 C   0  0  0  0  0  0  0  0  0  0  0  0
   11.4696  -17.7402   24.7311 C   0  0  2  0  0  0  0  0  0  0  0  0
   11.0067  -16.8372   23.6806 N   0  0  0  0  0  0  0  0  0  0  0  0
   11.5803  -17.0144   26.0162 C   0  0  0  0  0  0  0  0  0  0  0  0
   11.4979  -17.6160   27.2466 O   0  0  0  0  0  0  0  0  0  0  0  0
   11.7609  -15.7704   25.9732 O   0  0  0  0  0  0  0  0  0  0  0  0
  2  1  1  1
  2  8  1  0
  3  2  1  0
  3  4  1  0
  4  5  1  0
  5  6  1  0
  7  6  1  0
  8  9  2  0
 10  8  1  0
 10 11  1  0
 11 18  1  0
 11 12  1  1
 12 13  1  0
 13 17  1  0
 14 13  2  0
 14 15  1  0
 15 16  1  0
 17 16  2  0
 18 19  2  0
 20 21  1  0
 21 23  1  0
 22 21  2  0
 23 24  1  0
 25 24  1  6
 25 27  1  0
 26 25  1  0
 26 18  1  0
 27 28  1  0
 29 27  2  0
M  END
$$$$
