KHQ.pdb
     RDKit          3D

 29 29  0  0  1  0  0  0  0  0999 V2000
    8.4418  -18.8354   18.0847 N   0  0  0  0  0  0  0  0  0  0  0  0
    9.5772  -18.0083   17.7240 C   0  0  1  0  0  0  0  0  0  0  0  0
    9.1568  -17.1342   16.5634 C   0  0  0  0  0  0  0  0  0  0  0  0
    8.5128  -18.0314   15.5282 C   0  0  0  0  0  0  0  0  0  0  0  0
    8.1948  -17.2592   14.2815 C   0  0  0  0  0  0  0  0  0  0  0  0
    7.5363  -18.1209   13.2550 C   0  0  0  0  0  0  0  0  0  0  0  0
    7.2079  -17.3581   12.0644 N   0  0  0  0  0  0  0  0  0  0  0  0
    9.9906  -17.1753   18.8984 C   0  0  0  0  0  0  0  0  0  0  0  0
   10.9981  -16.4225   18.8898 O   0  0  0  0  0  0  0  0  0  0  0  0
    9.2231  -17.2191   20.0953 N   0  0  0  0  0  0  0  0  0  0  0  0
    9.4984  -16.4601   21.2677 C   0  0  1  0  0  0  0  0  0  0  0  0
    8.3811  -15.5506   21.6800 C   0  0  0  0  0  0  0  0  0  0  0  0
    8.1599  -14.4537   20.7045 C   0  0  0  0  0  0  0  0  0  0  0  0
    8.8917  -14.1442   19.5774 C   0  0  0  0  0  0  0  0  0  0  0  0
    8.3280  -13.0594   18.9889 N   0  0  0  0  0  0  0  0  0  0  0  0
    7.2710  -12.6919   19.7200 C   0  0  0  0  0  0  0  0  0  0  0  0
    7.1719  -13.5335   20.7529 N   0  0  0  0  0  0  0  0  0  0  0  0
    9.9324  -17.3069   22.4328 C   0  0  0  0  0  0  0  0  0  0  0  0
    9.0829  -18.1400   22.8327 O   0  0  0  0  0  0  0  0  0  0  0  0
   15.6926  -19.1500   23.4394 N   0  0  0  0  0  0  0  0  0  0  0  0
   15.0892  -19.5136   24.6955 C   0  0  0  0  0  0  0  0  0  0  0  0
   15.7175  -20.3558   25.3665 O   0  0  0  0  0  0  0  0  0  0  0  0
   13.8029  -18.8909   25.1118 C   0  0  0  0  0  0  0  0  0  0  0  0
   13.2713  -17.8835   24.1473 C   0  0  0  0  0  0  0  0  0  0  0  0
   11.7680  -18.0193   24.0162 C   0  0  2  0  0  0  0  0  0  0  0  0
   11.2143  -17.1344   22.9944 N   0  0  0  0  0  0  0  0  0  0  0  0
   11.0872  -17.7932   25.3108 C   0  0  0  0  0  0  0  0  0  0  0  0
   10.9256  -18.7593   26.2715 O   0  0  0  0  0  0  0  0  0  0  0  0
   10.6305  -16.6439   25.5401 O   0  0  0  0  0  0  0  0  0  0  0  0
  2  1  1  1
  2  8  1  0
  3  2  1  0
  3  4  1  0
  4  5  1  0
  5  6  1  0
  7  6  1  0
  8  9  2  0
 10  8  1  0
 10 11  1  0
 11 18  1  0
 11 12  1  1
 12 13  1  0
 13 17  1  0
 14 13  2  0
 14 15  1  0
 15 16  1  0
 17 16  2  0
 18 19  2  0
 20 21  1  0
 21 23  1  0
 22 21  2  0
 23 24  1  0
 25 24  1  1
 25 27  1  0
 26 25  1  0
 26 18  1  0
 27 28  1  0
 29 27  2  0
M  END
$$$$
