KHQ.pdb
     RDKit          3D

 29 29  0  0  1  0  0  0  0  0999 V2000
   10.7727  -18.4592   19.1378 N   0  0  0  0  0  0  0  0  0  0  0  0
   11.6019  -17.2698   19.1036 C   0  0  1  0  0  0  0  0  0  0  0  0
   11.4772  -16.6640   17.7233 C   0  0  0  0  0  0  0  0  0  0  0  0
   11.5687  -17.7943   16.7206 C   0  0  0  0  0  0  0  0  0  0  0  0
   11.4864  -17.2668   15.3182 C   0  0  0  0  0  0  0  0  0  0  0  0
   11.5382  -18.3699   14.3129 C   0  0  0  0  0  0  0  0  0  0  0  0
   11.3644  -17.8582   12.9656 N   0  0  0  0  0  0  0  0  0  0  0  0
   11.1464  -16.3043   20.1545 C   0  0  0  0  0  0  0  0  0  0  0  0
   11.7994  -15.2798   20.4797 O   0  0  0  0  0  0  0  0  0  0  0  0
    9.9177  -16.5338   20.8336 N   0  0  0  0  0  0  0  0  0  0  0  0
    9.4182  -15.7396   21.9043 C   0  0  1  0  0  0  0  0  0  0  0  0
    7.9762  -15.3592   21.7584 C   0  0  0  0  0  0  0  0  0  0  0  0
    7.7335  -14.5266   20.5535 C   0  0  0  0  0  0  0  0  0  0  0  0
    7.9860  -13.1833   20.3709 C   0  0  0  0  0  0  0  0  0  0  0  0
    7.6029  -12.8455   19.1139 N   0  0  0  0  0  0  0  0  0  0  0  0
    7.1223  -13.9408   18.5172 C   0  0  0  0  0  0  0  0  0  0  0  0
    7.2021  -14.9523   19.3866 N   0  0  0  0  0  0  0  0  0  0  0  0
    9.6569  -16.3525   23.2573 C   0  0  0  0  0  0  0  0  0  0  0  0
    9.7540  -17.6039   23.2666 O   0  0  0  0  0  0  0  0  0  0  0  0
   10.0728  -13.1468   28.9540 N   0  0  0  0  0  0  0  0  0  0  0  0
   10.4397  -14.5141   29.2185 C   0  0  0  0  0  0  0  0  0  0  0  0
   10.7432  -14.7670   30.4010 O   0  0  0  0  0  0  0  0  0  0  0  0
   10.4362  -15.5131   28.1151 C   0  0  0  0  0  0  0  0  0  0  0  0
   10.0251  -14.9598   26.7912 C   0  0  0  0  0  0  0  0  0  0  0  0
   10.0490  -16.0451   25.7342 C   0  0  2  0  0  0  0  0  0  0  0  0
    9.7570  -15.5306   24.3987 N   0  0  0  0  0  0  0  0  0  0  0  0
    9.1231  -17.1501   26.0694 C   0  0  0  0  0  0  0  0  0  0  0  0
    9.4802  -18.2552   26.8000 O   0  0  0  0  0  0  0  0  0  0  0  0
    7.9376  -17.0669   25.6575 O   0  0  0  0  0  0  0  0  0  0  0  0
  2  1  1  6
  2  8  1  0
  3  2  1  0
  3  4  1  0
  4  5  1  0
  5  6  1  0
  7  6  1  0
  8  9  2  0
 10  8  1  0
 10 11  1  0
 11 18  1  0
 11 12  1  6
 12 13  1  0
 13 17  1  0
 14 13  2  0
 14 15  1  0
 15 16  1  0
 17 16  2  0
 18 19  2  0
 20 21  1  0
 21 23  1  0
 22 21  2  0
 23 24  1  0
 25 24  1  1
 25 27  1  0
 26 25  1  0
 26 18  1  0
 27 28  1  0
 29 27  2  0
M  END
$$$$
