KHQ.pdb
     RDKit          3D

 29 29  0  0  1  0  0  0  0  0999 V2000
   10.8706  -14.3928   19.0569 N   0  0  0  0  0  0  0  0  0  0  0  0
   10.2245  -13.5906   20.0778 C   0  0  1  0  0  0  0  0  0  0  0  0
    8.9852  -12.9788   19.4634 C   0  0  0  0  0  0  0  0  0  0  0  0
    8.1913  -14.1002   18.8284 C   0  0  0  0  0  0  0  0  0  0  0  0
    8.1704  -13.9552   17.3349 C   0  0  0  0  0  0  0  0  0  0  0  0
    7.3324  -15.0112   16.6926 C   0  0  0  0  0  0  0  0  0  0  0  0
    7.3217  -14.8639   15.2485 N   0  0  0  0  0  0  0  0  0  0  0  0
    9.8701  -14.4527   21.2505 C   0  0  0  0  0  0  0  0  0  0  0  0
    9.1587  -14.0556   22.2087 O   0  0  0  0  0  0  0  0  0  0  0  0
   10.3486  -15.7911   21.3082 N   0  0  0  0  0  0  0  0  0  0  0  0
   10.0150  -16.7324   22.3226 C   0  0  1  0  0  0  0  0  0  0  0  0
   10.1880  -18.1617   21.9071 C   0  0  0  0  0  0  0  0  0  0  0  0
    9.1503  -18.5949   20.9378 C   0  0  0  0  0  0  0  0  0  0  0  0
    8.0899  -17.8725   20.4324 C   0  0  0  0  0  0  0  0  0  0  0  0
    7.3994  -18.6707   19.5798 N   0  0  0  0  0  0  0  0  0  0  0  0
    8.0031  -19.8629   19.5451 C   0  0  0  0  0  0  0  0  0  0  0  0
    9.0577  -19.8146   20.3641 N   0  0  0  0  0  0  0  0  0  0  0  0
   10.7308  -16.4814   23.6217 C   0  0  0  0  0  0  0  0  0  0  0  0
   11.9165  -16.0850   23.5096 O   0  0  0  0  0  0  0  0  0  0  0  0
    9.2392  -13.1605   28.7889 N   0  0  0  0  0  0  0  0  0  0  0  0
    8.9074  -13.3946   27.4072 C   0  0  0  0  0  0  0  0  0  0  0  0
    7.8856  -12.8101   26.9964 O   0  0  0  0  0  0  0  0  0  0  0  0
    9.7648  -14.2825   26.5754 C   0  0  0  0  0  0  0  0  0  0  0  0
    9.8884  -15.6757   27.0964 C   0  0  0  0  0  0  0  0  0  0  0  0
   10.7110  -16.5237   26.1478 C   0  0  2  0  0  0  0  0  0  0  0  0
   10.0669  -16.6921   24.8478 N   0  0  0  0  0  0  0  0  0  0  0  0
   11.0277  -17.8446   26.7357 C   0  0  0  0  0  0  0  0  0  0  0  0
   11.8342  -18.0232   27.8312 O   0  0  0  0  0  0  0  0  0  0  0  0
   10.5247  -18.8627   26.1949 O   0  0  0  0  0  0  0  0  0  0  0  0
  2  1  1  6
  2  8  1  0
  3  2  1  0
  3  4  1  0
  4  5  1  0
  5  6  1  0
  7  6  1  0
  8  9  2  0
 10  8  1  0
 10 11  1  0
 11 18  1  0
 11 12  1  6
 12 13  1  0
 13 17  1  0
 14 13  2  0
 14 15  1  0
 15 16  1  0
 17 16  2  0
 18 19  2  0
 20 21  1  0
 21 23  1  0
 22 21  2  0
 23 24  1  0
 25 24  1  1
 25 27  1  0
 26 25  1  0
 26 18  1  0
 27 28  1  0
 29 27  2  0
M  END
$$$$
