KHQ.pdb
     RDKit          3D

 29 29  0  0  1  0  0  0  0  0999 V2000
   13.9476  -14.0831   18.1454 N   0  0  0  0  0  0  0  0  0  0  0  0
   13.4992  -15.2345   18.9048 C   0  0  1  0  0  0  0  0  0  0  0  0
   14.7247  -15.9100   19.4790 C   0  0  0  0  0  0  0  0  0  0  0  0
   15.5029  -16.4998   18.3223 C   0  0  0  0  0  0  0  0  0  0  0  0
   16.7320  -17.2054   18.8153 C   0  0  0  0  0  0  0  0  0  0  0  0
   17.4224  -17.9399   17.7135 C   0  0  0  0  0  0  0  0  0  0  0  0
   18.8488  -18.0387   17.9642 N   0  0  0  0  0  0  0  0  0  0  0  0
   12.5721  -14.7923   19.9952 C   0  0  0  0  0  0  0  0  0  0  0  0
   12.7752  -13.7718   20.7018 O   0  0  0  0  0  0  0  0  0  0  0  0
   11.3964  -15.5460   20.2658 N   0  0  0  0  0  0  0  0  0  0  0  0
   10.4696  -15.2630   21.3086 C   0  0  1  0  0  0  0  0  0  0  0  0
    9.0443  -15.5585   20.9526 C   0  0  0  0  0  0  0  0  0  0  0  0
    8.4896  -14.5740   19.9897 C   0  0  0  0  0  0  0  0  0  0  0  0
    9.1179  -13.4948   19.4048 C   0  0  0  0  0  0  0  0  0  0  0  0
    8.2261  -12.8716   18.5940 N   0  0  0  0  0  0  0  0  0  0  0  0
    7.0676  -13.5350   18.6623 C   0  0  0  0  0  0  0  0  0  0  0  0
    7.2290  -14.5603   19.5037 N   0  0  0  0  0  0  0  0  0  0  0  0
   10.8247  -15.9247   22.6120 C   0  0  0  0  0  0  0  0  0  0  0  0
   11.3859  -17.0426   22.5074 O   0  0  0  0  0  0  0  0  0  0  0  0
    9.8852  -13.4672   28.6129 N   0  0  0  0  0  0  0  0  0  0  0  0
   10.5905  -14.7127   28.7721 C   0  0  0  0  0  0  0  0  0  0  0  0
   10.8975  -15.0071   29.9441 O   0  0  0  0  0  0  0  0  0  0  0  0
   10.9019  -15.5498   27.5814 C   0  0  0  0  0  0  0  0  0  0  0  0
   10.4615  -14.9560   26.2849 C   0  0  0  0  0  0  0  0  0  0  0  0
   10.7839  -15.8922   25.1381 C   0  0  2  0  0  0  0  0  0  0  0  0
   10.5257  -15.2874   23.8338 N   0  0  0  0  0  0  0  0  0  0  0  0
   10.0528  -17.1732   25.2607 C   0  0  0  0  0  0  0  0  0  0  0  0
    8.8114  -17.4025   24.7232 O   0  0  0  0  0  0  0  0  0  0  0  0
   10.6070  -18.1059   25.8972 O   0  0  0  0  0  0  0  0  0  0  0  0
  2  1  1  1
  2  8  1  0
  3  2  1  0
  3  4  1  0
  4  5  1  0
  5  6  1  0
  7  6  1  0
  8  9  2  0
 10  8  1  0
 10 11  1  0
 11 18  1  0
 11 12  1  6
 12 13  1  0
 13 17  1  0
 14 13  2  0
 14 15  1  0
 15 16  1  0
 17 16  2  0
 18 19  2  0
 20 21  1  0
 21 23  1  0
 22 21  2  0
 23 24  1  0
 25 24  1  1
 25 27  1  0
 26 25  1  0
 26 18  1  0
 27 28  1  0
 29 27  2  0
M  END
$$$$
