KHQ.pdb
     RDKit          3D

 29 29  0  0  1  0  0  0  0  0999 V2000
    7.8680  -16.5713   19.6134 N   0  0  0  0  0  0  0  0  0  0  0  0
    8.8855  -15.5386   19.6494 C   0  0  1  0  0  0  0  0  0  0  0  0
    8.3607  -14.3512   18.8733 C   0  0  0  0  0  0  0  0  0  0  0  0
    8.0632  -14.8231   17.4661 C   0  0  0  0  0  0  0  0  0  0  0  0
    7.7909  -13.6567   16.5622 C   0  0  0  0  0  0  0  0  0  0  0  0
    7.3761  -14.1037   15.1991 C   0  0  0  0  0  0  0  0  0  0  0  0
    7.1728  -12.9695   14.3161 N   0  0  0  0  0  0  0  0  0  0  0  0
    9.1757  -15.1627   21.0702 C   0  0  0  0  0  0  0  0  0  0  0  0
   10.0799  -14.3524   21.3986 O   0  0  0  0  0  0  0  0  0  0  0  0
    8.4052  -15.7359   22.1195 N   0  0  0  0  0  0  0  0  0  0  0  0
    8.5763  -15.4526   23.5041 C   0  0  1  0  0  0  0  0  0  0  0  0
    7.3554  -15.7114   24.3335 C   0  0  0  0  0  0  0  0  0  0  0  0
    6.9269  -14.5101   25.0933 C   0  0  0  0  0  0  0  0  0  0  0  0
    7.5172  -13.2646   25.1379 C   0  0  0  0  0  0  0  0  0  0  0  0
    6.7851  -12.4764   25.9649 N   0  0  0  0  0  0  0  0  0  0  0  0
    5.7617  -13.1995   26.4305 C   0  0  0  0  0  0  0  0  0  0  0  0
    5.8494  -14.4243   25.9039 N   0  0  0  0  0  0  0  0  0  0  0  0
    9.7675  -16.1455   24.1073 C   0  0  0  0  0  0  0  0  0  0  0  0
   10.1437  -17.1810   23.5057 O   0  0  0  0  0  0  0  0  0  0  0  0
   10.8160  -13.3917   28.4800 N   0  0  0  0  0  0  0  0  0  0  0  0
   10.9848  -14.6689   29.1236 C   0  0  0  0  0  0  0  0  0  0  0  0
   10.5291  -14.7485   30.2813 O   0  0  0  0  0  0  0  0  0  0  0  0
   11.6636  -15.7815   28.4045 C   0  0  0  0  0  0  0  0  0  0  0  0
   12.1098  -15.4340   27.0232 C   0  0  0  0  0  0  0  0  0  0  0  0
   11.4240  -16.3240   26.0067 C   0  0  2  0  0  0  0  0  0  0  0  0
   10.3785  -15.6230   25.2658 N   0  0  0  0  0  0  0  0  0  0  0  0
   10.8725  -17.5441   26.6374 C   0  0  0  0  0  0  0  0  0  0  0  0
    9.5380  -17.7425   26.8867 O   0  0  0  0  0  0  0  0  0  0  0  0
   11.6799  -18.4519   26.9631 O   0  0  0  0  0  0  0  0  0  0  0  0
  2  1  1  1
  2  8  1  0
  3  2  1  0
  3  4  1  0
  4  5  1  0
  5  6  1  0
  7  6  1  0
  8  9  2  0
 10  8  1  0
 10 11  1  0
 11 18  1  0
 11 12  1  1
 12 13  1  0
 13 17  1  0
 14 13  2  0
 14 15  1  0
 15 16  1  0
 17 16  2  0
 18 19  2  0
 20 21  1  0
 21 23  1  0
 22 21  2  0
 23 24  1  0
 25 24  1  1
 25 27  1  0
 26 25  1  0
 26 18  1  0
 27 28  1  0
 29 27  2  0
M  END
$$$$
