KHQ.pdb
     RDKit          3D

 29 29  0  0  1  0  0  0  0  0999 V2000
   10.5448  -18.6409   17.4399 N   0  0  0  0  0  0  0  0  0  0  0  0
   11.4529  -17.5146   17.5405 C   0  0  1  0  0  0  0  0  0  0  0  0
   11.0672  -16.5182   16.4699 C   0  0  0  0  0  0  0  0  0  0  0  0
   10.0612  -17.1927   15.5621 C   0  0  0  0  0  0  0  0  0  0  0  0
    9.6030  -16.2517   14.4867 C   0  0  0  0  0  0  0  0  0  0  0  0
    8.5945  -16.8916   13.5904 C   0  0  0  0  0  0  0  0  0  0  0  0
    8.0927  -15.9469   12.6091 N   0  0  0  0  0  0  0  0  0  0  0  0
   11.3505  -16.9015   18.9034 C   0  0  0  0  0  0  0  0  0  0  0  0
   12.3128  -16.3294   19.4766 O   0  0  0  0  0  0  0  0  0  0  0  0
   10.1149  -16.9548   19.6063 N   0  0  0  0  0  0  0  0  0  0  0  0
    9.8832  -16.3860   20.8905 C   0  0  1  0  0  0  0  0  0  0  0  0
    8.4742  -15.9238   21.1061 C   0  0  0  0  0  0  0  0  0  0  0  0
    8.1329  -14.7492   20.2649 C   0  0  0  0  0  0  0  0  0  0  0  0
    8.9565  -14.0151   19.4376 C   0  0  0  0  0  0  0  0  0  0  0  0
    8.2181  -13.0296   18.8680 N   0  0  0  0  0  0  0  0  0  0  0  0
    6.9644  -13.1352   19.3198 C   0  0  0  0  0  0  0  0  0  0  0  0
    6.9158  -14.1720   20.1612 N   0  0  0  0  0  0  0  0  0  0  0  0
   10.3122  -17.2814   22.0207 C   0  0  0  0  0  0  0  0  0  0  0  0
   10.4483  -18.4924   21.7198 O   0  0  0  0  0  0  0  0  0  0  0  0
   15.6604  -16.7396   22.8144 N   0  0  0  0  0  0  0  0  0  0  0  0
   15.4085  -17.2917   24.1205 C   0  0  0  0  0  0  0  0  0  0  0  0
   16.4236  -17.6009   24.7750 O   0  0  0  0  0  0  0  0  0  0  0  0
   14.0100  -17.4561   24.6027 C   0  0  0  0  0  0  0  0  0  0  0  0
   12.9724  -16.9764   23.6430 C   0  0  0  0  0  0  0  0  0  0  0  0
   11.5845  -17.2143   24.2025 C   0  0  2  0  0  0  0  0  0  0  0  0
   10.5324  -16.7434   23.3054 N   0  0  0  0  0  0  0  0  0  0  0  0
   11.4262  -16.6024   25.5408 C   0  0  0  0  0  0  0  0  0  0  0  0
   11.8250  -17.2001   26.7096 O   0  0  0  0  0  0  0  0  0  0  0  0
   10.8931  -15.4650   25.6059 O   0  0  0  0  0  0  0  0  0  0  0  0
  2  1  1  1
  2  8  1  0
  3  2  1  0
  3  4  1  0
  4  5  1  0
  5  6  1  0
  7  6  1  0
  8  9  2  0
 10  8  1  0
 10 11  1  0
 11 18  1  0
 11 12  1  1
 12 13  1  0
 13 17  1  0
 14 13  2  0
 14 15  1  0
 15 16  1  0
 17 16  2  0
 18 19  2  0
 20 21  1  0
 21 23  1  0
 22 21  2  0
 23 24  1  0
 25 24  1  6
 25 27  1  0
 26 25  1  0
 26 18  1  0
 27 28  1  0
 29 27  2  0
M  END
$$$$
