KHQ.pdb
     RDKit          3D

 29 29  0  0  1  0  0  0  0  0999 V2000
   10.4997  -14.7604   18.6059 N   0  0  0  0  0  0  0  0  0  0  0  0
    9.6569  -13.8793   19.3913 C   0  0  1  0  0  0  0  0  0  0  0  0
    8.5137  -13.4315   18.5079 C   0  0  0  0  0  0  0  0  0  0  0  0
    8.7476  -14.0148   17.1309 C   0  0  0  0  0  0  0  0  0  0  0  0
    7.8178  -13.3965   16.1284 C   0  0  0  0  0  0  0  0  0  0  0  0
    8.0507  -13.9385   14.7565 C   0  0  0  0  0  0  0  0  0  0  0  0
    7.1575  -13.3224   13.7921 N   0  0  0  0  0  0  0  0  0  0  0  0
    9.1473  -14.6077   20.5970 C   0  0  0  0  0  0  0  0  0  0  0  0
    8.3844  -14.0834   21.4485 O   0  0  0  0  0  0  0  0  0  0  0  0
    9.5296  -15.9606   20.8137 N   0  0  0  0  0  0  0  0  0  0  0  0
    9.1883  -16.7296   21.9620 C   0  0  1  0  0  0  0  0  0  0  0  0
    9.0655  -18.1991   21.6958 C   0  0  0  0  0  0  0  0  0  0  0  0
    7.8270  -18.5335   20.9486 C   0  0  0  0  0  0  0  0  0  0  0  0
    6.8110  -17.6921   20.5468 C   0  0  0  0  0  0  0  0  0  0  0  0
    5.8785  -18.4320   19.8958 N   0  0  0  0  0  0  0  0  0  0  0  0
    6.2901  -19.7038   19.8847 C   0  0  0  0  0  0  0  0  0  0  0  0
    7.4643  -19.7622   20.5195 N   0  0  0  0  0  0  0  0  0  0  0  0
   10.1072  -16.4906   23.1289 C   0  0  0  0  0  0  0  0  0  0  0  0
   11.3327  -16.5396   22.8619 O   0  0  0  0  0  0  0  0  0  0  0  0
    8.7760  -13.5691   28.7445 N   0  0  0  0  0  0  0  0  0  0  0  0
   10.0705  -14.1779   28.9108 C   0  0  0  0  0  0  0  0  0  0  0  0
   10.6421  -13.9319   29.9911 O   0  0  0  0  0  0  0  0  0  0  0  0
   10.6350  -15.0343   27.8322 C   0  0  0  0  0  0  0  0  0  0  0  0
    9.7559  -15.1657   26.6332 C   0  0  0  0  0  0  0  0  0  0  0  0
   10.3981  -16.0732   25.6038 C   0  0  2  0  0  0  0  0  0  0  0  0
    9.5738  -16.2333   24.4086 N   0  0  0  0  0  0  0  0  0  0  0  0
   10.7284  -17.3970   26.1774 C   0  0  0  0  0  0  0  0  0  0  0  0
   11.9469  -17.7145   26.7224 O   0  0  0  0  0  0  0  0  0  0  0  0
    9.8346  -18.2819   26.1624 O   0  0  0  0  0  0  0  0  0  0  0  0
  2  1  1  6
  2  8  1  0
  3  2  1  0
  3  4  1  0
  4  5  1  0
  5  6  1  0
  7  6  1  0
  8  9  2  0
 10  8  1  0
 10 11  1  0
 11 18  1  0
 11 12  1  6
 12 13  1  0
 13 17  1  0
 14 13  2  0
 14 15  1  0
 15 16  1  0
 17 16  2  0
 18 19  2  0
 20 21  1  0
 21 23  1  0
 22 21  2  0
 23 24  1  0
 25 24  1  1
 25 27  1  0
 26 25  1  0
 26 18  1  0
 27 28  1  0
 29 27  2  0
M  END
$$$$
