KHQ.pdb
     RDKit          3D

 29 29  0  0  1  0  0  0  0  0999 V2000
    9.6817  -19.0714   18.2677 N   0  0  0  0  0  0  0  0  0  0  0  0
   10.7536  -18.1039   18.1327 C   0  0  1  0  0  0  0  0  0  0  0  0
   10.5434  -17.3664   16.8290 C   0  0  0  0  0  0  0  0  0  0  0  0
    9.4202  -18.0611   16.0894 C   0  0  0  0  0  0  0  0  0  0  0  0
    9.1562  -17.3890   14.7740 C   0  0  0  0  0  0  0  0  0  0  0  0
    8.0029  -18.0137   14.0601 C   0  0  0  0  0  0  0  0  0  0  0  0
    7.8079  -17.4112   12.7538 N   0  0  0  0  0  0  0  0  0  0  0  0
   10.7297  -17.1564   19.2928 C   0  0  0  0  0  0  0  0  0  0  0  0
   11.5944  -16.2603   19.4695 O   0  0  0  0  0  0  0  0  0  0  0  0
    9.6884  -17.2531   20.2571 N   0  0  0  0  0  0  0  0  0  0  0  0
    9.5500  -16.4075   21.3939 C   0  0  1  0  0  0  0  0  0  0  0  0
    8.2417  -15.6793   21.4549 C   0  0  0  0  0  0  0  0  0  0  0  0
    8.1254  -14.6429   20.3985 C   0  0  0  0  0  0  0  0  0  0  0  0
    9.0632  -14.2585   19.4634 C   0  0  0  0  0  0  0  0  0  0  0  0
    8.5250  -13.2733   18.7014 N   0  0  0  0  0  0  0  0  0  0  0  0
    7.2838  -13.0398   19.1394 C   0  0  0  0  0  0  0  0  0  0  0  0
    7.0455  -13.8663   20.1618 N   0  0  0  0  0  0  0  0  0  0  0  0
    9.8075  -17.1177   22.6948 C   0  0  0  0  0  0  0  0  0  0  0  0
    9.0192  -18.0596   22.9537 O   0  0  0  0  0  0  0  0  0  0  0  0
   15.3844  -20.1861   23.1953 N   0  0  0  0  0  0  0  0  0  0  0  0
   14.0384  -20.5481   23.5577 C   0  0  0  0  0  0  0  0  0  0  0  0
   13.6733  -21.6828   23.1922 O   0  0  0  0  0  0  0  0  0  0  0  0
   13.1890  -19.5916   24.3187 C   0  0  0  0  0  0  0  0  0  0  0  0
   12.4076  -18.6524   23.4613 C   0  0  0  0  0  0  0  0  0  0  0  0
   11.6710  -17.6430   24.3181 C   0  0  2  0  0  0  0  0  0  0  0  0
   10.8738  -16.7121   23.5236 N   0  0  0  0  0  0  0  0  0  0  0  0
   12.5986  -16.8983   25.1987 C   0  0  0  0  0  0  0  0  0  0  0  0
   12.9866  -17.3278   26.4426 O   0  0  0  0  0  0  0  0  0  0  0  0
   13.0569  -15.8054   24.7770 O   0  0  0  0  0  0  0  0  0  0  0  0
  2  1  1  1
  2  8  1  0
  3  2  1  0
  3  4  1  0
  4  5  1  0
  5  6  1  0
  7  6  1  0
  8  9  2  0
 10  8  1  0
 10 11  1  0
 11 18  1  0
 11 12  1  1
 12 13  1  0
 13 17  1  0
 14 13  2  0
 14 15  1  0
 15 16  1  0
 17 16  2  0
 18 19  2  0
 20 21  1  0
 21 23  1  0
 22 21  2  0
 23 24  1  0
 25 24  1  6
 25 27  1  0
 26 25  1  0
 26 18  1  0
 27 28  1  0
 29 27  2  0
M  END
$$$$
