KHQ.pdb
     RDKit          3D

 29 29  0  0  1  0  0  0  0  0999 V2000
    9.8273  -19.0148   19.9459 N   0  0  0  0  0  0  0  0  0  0  0  0
   10.9464  -18.0958   20.0255 C   0  0  1  0  0  0  0  0  0  0  0  0
   11.2216  -17.5871   18.6279 C   0  0  0  0  0  0  0  0  0  0  0  0
   10.1246  -18.1141   17.7279 C   0  0  0  0  0  0  0  0  0  0  0  0
   10.4065  -17.7745   16.2937 C   0  0  0  0  0  0  0  0  0  0  0  0
    9.3852  -18.3656   15.3786 C   0  0  0  0  0  0  0  0  0  0  0  0
    9.6823  -18.0540   13.9922 N   0  0  0  0  0  0  0  0  0  0  0  0
   10.6091  -16.9655   20.9490 C   0  0  0  0  0  0  0  0  0  0  0  0
   11.4213  -16.0529   21.2478 O   0  0  0  0  0  0  0  0  0  0  0  0
    9.3128  -16.8971   21.5306 N   0  0  0  0  0  0  0  0  0  0  0  0
    8.8581  -15.8543   22.3865 C   0  0  1  0  0  0  0  0  0  0  0  0
    7.6201  -15.1643   21.9002 C   0  0  0  0  0  0  0  0  0  0  0  0
    7.8651  -14.3714   20.6693 C   0  0  0  0  0  0  0  0  0  0  0  0
    9.0586  -14.1400   20.0183 C   0  0  0  0  0  0  0  0  0  0  0  0
    8.8092  -13.3578   18.9380 N   0  0  0  0  0  0  0  0  0  0  0  0
    7.4978  -13.1008   18.9045 C   0  0  0  0  0  0  0  0  0  0  0  0
    6.9313  -13.7126   19.9486 N   0  0  0  0  0  0  0  0  0  0  0  0
    8.6772  -16.2960   23.8131 C   0  0  0  0  0  0  0  0  0  0  0  0
    7.5552  -16.7913   24.0802 O   0  0  0  0  0  0  0  0  0  0  0  0
   12.5600  -20.4231   24.3528 N   0  0  0  0  0  0  0  0  0  0  0  0
   12.1502  -20.3690   25.7323 C   0  0  0  0  0  0  0  0  0  0  0  0
   12.5723  -21.2954   26.4521 O   0  0  0  0  0  0  0  0  0  0  0  0
   11.2828  -19.2572   26.2087 C   0  0  0  0  0  0  0  0  0  0  0  0
   10.8946  -18.2858   25.1440 C   0  0  0  0  0  0  0  0  0  0  0  0
   10.0771  -17.1544   25.7333 C   0  0  2  0  0  0  0  0  0  0  0  0
    9.7282  -16.1415   24.7405 N   0  0  0  0  0  0  0  0  0  0  0  0
   10.7672  -16.5268   26.8824 C   0  0  0  0  0  0  0  0  0  0  0  0
   10.8011  -17.0649   28.1440 O   0  0  0  0  0  0  0  0  0  0  0  0
   11.3574  -15.4336   26.6858 O   0  0  0  0  0  0  0  0  0  0  0  0
  2  1  1  6
  2  8  1  0
  3  2  1  0
  3  4  1  0
  4  5  1  0
  5  6  1  0
  7  6  1  0
  8  9  2  0
 10  8  1  0
 10 11  1  0
 11 18  1  0
 11 12  1  6
 12 13  1  0
 13 17  1  0
 14 13  2  0
 14 15  1  0
 15 16  1  0
 17 16  2  0
 18 19  2  0
 20 21  1  0
 21 23  1  0
 22 21  2  0
 23 24  1  0
 25 24  1  6
 25 27  1  0
 26 25  1  0
 26 18  1  0
 27 28  1  0
 29 27  2  0
M  END
$$$$
