KHQ.pdb
     RDKit          3D

 29 29  0  0  1  0  0  0  0  0999 V2000
   10.6661  -18.2226   17.2008 N   0  0  0  0  0  0  0  0  0  0  0  0
   11.7411  -17.2551   17.0926 C   0  0  1  0  0  0  0  0  0  0  0  0
   11.4047  -16.3224   15.9503 C   0  0  0  0  0  0  0  0  0  0  0  0
   10.9738  -17.1768   14.7774 C   0  0  0  0  0  0  0  0  0  0  0  0
   10.7386  -16.3288   13.5620 C   0  0  0  0  0  0  0  0  0  0  0  0
   10.4079  -17.1615   12.3673 C   0  0  0  0  0  0  0  0  0  0  0  0
   10.2978  -16.3429   11.1735 N   0  0  0  0  0  0  0  0  0  0  0  0
   11.8734  -16.4990   18.3790 C   0  0  0  0  0  0  0  0  0  0  0  0
   12.8547  -15.7590   18.6465 O   0  0  0  0  0  0  0  0  0  0  0  0
   10.8528  -16.6053   19.3641 N   0  0  0  0  0  0  0  0  0  0  0  0
   10.8209  -15.8754   20.5859 C   0  0  1  0  0  0  0  0  0  0  0  0
    9.4409  -15.5055   21.0378 C   0  0  0  0  0  0  0  0  0  0  0  0
    8.8316  -14.4562   20.1825 C   0  0  0  0  0  0  0  0  0  0  0  0
    9.4253  -13.7003   19.1937 C   0  0  0  0  0  0  0  0  0  0  0  0
    8.4898  -12.8633   18.6788 N   0  0  0  0  0  0  0  0  0  0  0  0
    7.3379  -13.0814   19.3210 C   0  0  0  0  0  0  0  0  0  0  0  0
    7.5465  -14.0415   20.2264 N   0  0  0  0  0  0  0  0  0  0  0  0
   11.5652  -16.5562   21.7019 C   0  0  0  0  0  0  0  0  0  0  0  0
   11.2054  -17.7345   21.9422 O   0  0  0  0  0  0  0  0  0  0  0  0
   17.5935  -14.9511   23.1713 N   0  0  0  0  0  0  0  0  0  0  0  0
   17.2700  -16.0419   24.0543 C   0  0  0  0  0  0  0  0  0  0  0  0
   18.2056  -16.4419   24.7748 O   0  0  0  0  0  0  0  0  0  0  0  0
   15.8944  -16.6103   24.0630 C   0  0  0  0  0  0  0  0  0  0  0  0
   14.9462  -15.9301   23.1324 C   0  0  0  0  0  0  0  0  0  0  0  0
   13.5640  -16.5399   23.2473 C   0  0  2  0  0  0  0  0  0  0  0  0
   12.5859  -15.8714   22.3930 N   0  0  0  0  0  0  0  0  0  0  0  0
   13.0916  -16.5544   24.6498 C   0  0  0  0  0  0  0  0  0  0  0  0
   13.4185  -17.5281   25.5595 O   0  0  0  0  0  0  0  0  0  0  0  0
   12.3450  -15.6148   25.0267 O   0  0  0  0  0  0  0  0  0  0  0  0
  2  1  1  1
  2  8  1  0
  3  2  1  0
  3  4  1  0
  4  5  1  0
  5  6  1  0
  7  6  1  0
  8  9  2  0
 10  8  1  0
 10 11  1  0
 11 18  1  0
 11 12  1  1
 12 13  1  0
 13 17  1  0
 14 13  2  0
 14 15  1  0
 15 16  1  0
 17 16  2  0
 18 19  2  0
 20 21  1  0
 21 23  1  0
 22 21  2  0
 23 24  1  0
 25 24  1  1
 25 27  1  0
 26 25  1  0
 26 18  1  0
 27 28  1  0
 29 27  2  0
M  END
$$$$
