KHQ.pdb
     RDKit          3D

 29 29  0  0  1  0  0  0  0  0999 V2000
    7.7158  -17.0619   18.9771 N   0  0  0  0  0  0  0  0  0  0  0  0
    8.3262  -16.1059   19.8809 C   0  0  1  0  0  0  0  0  0  0  0  0
    7.3169  -15.0089   20.1372 C   0  0  0  0  0  0  0  0  0  0  0  0
    7.2345  -14.1647   18.8836 C   0  0  0  0  0  0  0  0  0  0  0  0
    8.5310  -13.4497   18.6397 C   0  0  0  0  0  0  0  0  0  0  0  0
    8.4368  -12.5255   17.4705 C   0  0  0  0  0  0  0  0  0  0  0  0
    8.3967  -13.2645   16.2216 N   0  0  0  0  0  0  0  0  0  0  0  0
    8.7092  -16.7891   21.1578 C   0  0  0  0  0  0  0  0  0  0  0  0
    7.9546  -17.5926   21.7635 O   0  0  0  0  0  0  0  0  0  0  0  0
    9.9839  -16.5344   21.7355 N   0  0  0  0  0  0  0  0  0  0  0  0
   10.4748  -17.1418   22.9257 C   0  0  1  0  0  0  0  0  0  0  0  0
   11.8213  -17.7812   22.7718 C   0  0  0  0  0  0  0  0  0  0  0  0
   11.7892  -18.9443   21.8498 C   0  0  0  0  0  0  0  0  0  0  0  0
   12.1946  -19.0101   20.5334 C   0  0  0  0  0  0  0  0  0  0  0  0
   11.9785  -20.2720   20.0843 N   0  0  0  0  0  0  0  0  0  0  0  0
   11.4522  -20.9851   21.0850 C   0  0  0  0  0  0  0  0  0  0  0  0
   11.3393  -20.1830   22.1476 N   0  0  0  0  0  0  0  0  0  0  0  0
   10.4764  -16.2115   24.1079 C   0  0  0  0  0  0  0  0  0  0  0  0
   11.2874  -15.2563   24.0341 O   0  0  0  0  0  0  0  0  0  0  0  0
    6.3450  -11.9729   28.1380 N   0  0  0  0  0  0  0  0  0  0  0  0
    6.5881  -13.0377   27.1993 C   0  0  0  0  0  0  0  0  0  0  0  0
    5.6845  -13.2285   26.3617 O   0  0  0  0  0  0  0  0  0  0  0  0
    7.8516  -13.8210   27.2722 C   0  0  0  0  0  0  0  0  0  0  0  0
    8.0439  -14.7772   26.1424 C   0  0  0  0  0  0  0  0  0  0  0  0
    9.3827  -15.4762   26.2636 C   0  0  2  0  0  0  0  0  0  0  0  0
    9.6062  -16.4442   25.1928 N   0  0  0  0  0  0  0  0  0  0  0  0
    9.5370  -16.1293   27.5827 C   0  0  0  0  0  0  0  0  0  0  0  0
   10.0054  -15.4922   28.7040 O   0  0  0  0  0  0  0  0  0  0  0  0
    9.2181  -17.3424   27.6772 O   0  0  0  0  0  0  0  0  0  0  0  0
  2  1  1  6
  2  8  1  0
  3  2  1  0
  3  4  1  0
  4  5  1  0
  5  6  1  0
  7  6  1  0
  8  9  2  0
 10  8  1  0
 10 11  1  0
 11 18  1  0
 11 12  1  6
 12 13  1  0
 13 17  1  0
 14 13  2  0
 14 15  1  0
 15 16  1  0
 17 16  2  0
 18 19  2  0
 20 21  1  0
 21 23  1  0
 22 21  2  0
 23 24  1  0
 25 24  1  1
 25 27  1  0
 26 25  1  0
 26 18  1  0
 27 28  1  0
 29 27  2  0
M  END
$$$$
