LNQ.pdb
     RDKit          3D

 26 25  0  0  1  0  0  0  0  0999 V2000
   11.7585  -11.9281  -10.1248 C   0  0  0  0  0  0  0  0  0  0  0  0
   13.0882  -11.7204  -10.8202 C   0  0  1  0  0  0  0  0  0  0  0  0
   12.8338  -11.2536  -12.2294 C   0  0  0  0  0  0  0  0  0  0  0  0
   13.8832  -10.7348  -10.0127 C   0  0  0  0  0  0  0  0  0  0  0  0
   15.2518  -10.4727  -10.5830 C   0  0  2  0  0  0  0  0  0  0  0  0
   16.1050  -11.6130  -10.5697 N   0  0  0  0  0  0  0  0  0  0  0  0
   15.9265   -9.3317   -9.9418 C   0  0  0  0  0  0  0  0  0  0  0  0
   16.9618   -9.5404   -9.2629 O   0  0  0  0  0  0  0  0  0  0  0  0
   17.9910   -4.7986   -8.7531 N   0  0  0  0  0  0  0  0  0  0  0  0
   18.4223   -5.6583   -9.8371 C   0  0  0  0  0  0  0  0  0  0  0  0
   19.5162   -5.3340  -10.3408 O   0  0  0  0  0  0  0  0  0  0  0  0
   17.5889   -6.7958  -10.2514 C   0  0  0  0  0  0  0  0  0  0  0  0
   16.2810   -6.8579   -9.5552 C   0  0  2  0  0  0  0  0  0  0  0  0
   15.4805   -7.9932  -10.0394 N   0  0  0  0  0  0  0  0  0  0  0  0
   15.4726   -5.6034   -9.7640 C   0  0  0  0  0  0  0  0  0  0  0  0
   15.2170   -5.1287  -10.8868 O   0  0  0  0  0  0  0  0  0  0  0  0
   11.1305   -3.6950   -5.5108 N   0  0  0  0  0  0  0  0  0  0  0  0
   12.5165   -3.5716   -5.2214 C   0  0  0  0  0  0  0  0  0  0  0  0
   12.9100   -3.4043   -4.0460 O   0  0  0  0  0  0  0  0  0  0  0  0
   13.5273   -3.6369   -6.3042 C   0  0  0  0  0  0  0  0  0  0  0  0
   12.9829   -3.8922   -7.6611 C   0  0  0  0  0  0  0  0  0  0  0  0
   13.9655   -3.8598   -8.7679 C   0  0  2  0  0  0  0  0  0  0  0  0
   14.9686   -4.9154   -8.6238 N   0  0  0  0  0  0  0  0  0  0  0  0
   14.6125   -2.5416   -8.9770 C   0  0  0  0  0  0  0  0  0  0  0  0
   15.8635   -2.3752   -8.9528 O   0  0  0  0  0  0  0  0  0  0  0  0
   13.8538   -1.4168   -9.2136 O   0  0  0  0  0  0  0  0  0  0  0  0
  2  3  1  6
  2  1  1  0
  4  5  1  0
  4  2  1  0
  5  6  1  1
  7  5  1  0
  7  8  2  0
 10  9  1  0
 11 10  2  0
 12 10  1  0
 13 12  1  6
 13 14  1  0
 14  7  1  0
 15 23  1  0
 15 13  1  0
 16 15  2  0
 18 17  1  0
 18 19  2  0
 20 21  1  0
 20 18  1  0
 22 21  1  1
 22 23  1  0
 22 24  1  0
 24 25  2  0
 24 26  1  0
M  END
$$$$
