LNQ.pdb
     RDKit          3D

 26 25  0  0  1  0  0  0  0  0999 V2000
   27.6466  -19.4141   -7.2301 C   0  0  0  0  0  0  0  0  0  0  0  0
   27.6359  -20.1872   -8.5328 C   0  0  1  0  0  0  0  0  0  0  0  0
   28.1597  -21.5764   -8.2797 C   0  0  0  0  0  0  0  0  0  0  0  0
   26.2308  -20.1801   -9.0631 C   0  0  0  0  0  0  0  0  0  0  0  0
   26.0484  -21.0723  -10.2622 C   0  0  2  0  0  0  0  0  0  0  0  0
   27.2366  -21.7520  -10.6555 N   0  0  0  0  0  0  0  0  0  0  0  0
   25.4682  -20.3641  -11.4154 C   0  0  0  0  0  0  0  0  0  0  0  0
   24.4416  -19.6618  -11.2442 O   0  0  0  0  0  0  0  0  0  0  0  0
   28.5806  -18.5547  -15.2523 N   0  0  0  0  0  0  0  0  0  0  0  0
   27.1874  -18.4460  -14.8687 C   0  0  0  0  0  0  0  0  0  0  0  0
   26.8623  -17.3200  -14.4420 O   0  0  0  0  0  0  0  0  0  0  0  0
   26.2945  -19.6061  -14.9996 C   0  0  0  0  0  0  0  0  0  0  0  0
   25.3488  -19.7579  -13.8675 C   0  0  2  0  0  0  0  0  0  0  0  0
   25.9969  -20.4217  -12.7258 N   0  0  0  0  0  0  0  0  0  0  0  0
   24.1412  -20.5747  -14.2490 C   0  0  0  0  0  0  0  0  0  0  0  0
   24.0641  -21.8068  -14.0841 O   0  0  0  0  0  0  0  0  0  0  0  0
   19.6672  -23.0314  -11.8096 N   0  0  0  0  0  0  0  0  0  0  0  0
   19.2126  -22.3303  -12.9593 C   0  0  0  0  0  0  0  0  0  0  0  0
   18.3006  -22.8014  -13.6740 O   0  0  0  0  0  0  0  0  0  0  0  0
   19.8084  -21.0268  -13.3391 C   0  0  0  0  0  0  0  0  0  0  0  0
   21.2731  -21.0479  -13.5774 C   0  0  0  0  0  0  0  0  0  0  0  0
   21.7182  -20.5725  -14.9068 C   0  0  2  0  0  0  0  0  0  0  0  0
   23.0223  -19.9131  -14.8301 N   0  0  0  0  0  0  0  0  0  0  0  0
   20.7348  -19.7168  -15.6144 C   0  0  0  0  0  0  0  0  0  0  0  0
   20.8331  -18.4601  -15.6780 O   0  0  0  0  0  0  0  0  0  0  0  0
   19.6468  -20.2746  -16.2485 O   0  0  0  0  0  0  0  0  0  0  0  0
  2  3  1  1
  2  1  1  0
  4  5  1  0
  4  2  1  0
  5  6  1  6
  7  5  1  0
  7  8  2  0
 10  9  1  0
 11 10  2  0
 12 10  1  0
 13 12  1  6
 13 14  1  0
 14  7  1  0
 15 23  1  0
 15 13  1  0
 16 15  2  0
 18 17  1  0
 18 19  2  0
 20 21  1  0
 20 18  1  0
 22 21  1  1
 22 23  1  0
 22 24  1  0
 24 25  2  0
 24 26  1  0
M  END
$$$$
