LNQ.pdb
     RDKit          3D

 26 25  0  0  1  0  0  0  0  0999 V2000
   28.4103  -19.8335   -7.0543 C   0  0  0  0  0  0  0  0  0  0  0  0
   28.3067  -20.1236   -8.5375 C   0  0  1  0  0  0  0  0  0  0  0  0
   29.5055  -20.9306   -8.9615 C   0  0  0  0  0  0  0  0  0  0  0  0
   27.0071  -20.8365   -8.7795 C   0  0  0  0  0  0  0  0  0  0  0  0
   26.6637  -20.9574  -10.2405 C   0  0  2  0  0  0  0  0  0  0  0  0
   27.1229  -19.8634  -11.0285 N   0  0  0  0  0  0  0  0  0  0  0  0
   25.2259  -21.1753  -10.4709 C   0  0  0  0  0  0  0  0  0  0  0  0
   24.6914  -22.2230  -10.0315 O   0  0  0  0  0  0  0  0  0  0  0  0
   20.2308  -21.0071  -11.6822 N   0  0  0  0  0  0  0  0  0  0  0  0
   20.6717  -19.7345  -11.1471 C   0  0  0  0  0  0  0  0  0  0  0  0
   19.7428  -18.9747  -10.8075 O   0  0  0  0  0  0  0  0  0  0  0  0
   22.1072  -19.4362  -11.0442 C   0  0  0  0  0  0  0  0  0  0  0  0
   22.9786  -20.5633  -11.4557 C   0  0  2  0  0  0  0  0  0  0  0  0
   24.3907  -20.2700  -11.1656 N   0  0  0  0  0  0  0  0  0  0  0  0
   22.8632  -20.8543  -12.9298 C   0  0  0  0  0  0  0  0  0  0  0  0
   23.7512  -20.5759  -13.7575 O   0  0  0  0  0  0  0  0  0  0  0  0
   24.9471  -24.8773  -15.2830 N   0  0  0  0  0  0  0  0  0  0  0  0
   23.9790  -24.7450  -16.3151 C   0  0  0  0  0  0  0  0  0  0  0  0
   24.0703  -25.4186  -17.3650 O   0  0  0  0  0  0  0  0  0  0  0  0
   22.8404  -23.8059  -16.1728 C   0  0  0  0  0  0  0  0  0  0  0  0
   22.7965  -23.0569  -14.8922 C   0  0  0  0  0  0  0  0  0  0  0  0
   21.6567  -22.1269  -14.7267 C   0  0  2  0  0  0  0  0  0  0  0  0
   21.6797  -21.4808  -13.4139 N   0  0  0  0  0  0  0  0  0  0  0  0
   20.3281  -22.7291  -14.9955 C   0  0  0  0  0  0  0  0  0  0  0  0
   19.4488  -22.8871  -14.1039 O   0  0  0  0  0  0  0  0  0  0  0  0
   19.9914  -23.1496  -16.2630 O   0  0  0  0  0  0  0  0  0  0  0  0
  2  3  1  1
  2  1  1  0
  4  5  1  0
  4  2  1  0
  5  6  1  6
  7  5  1  0
  7  8  2  0
 10  9  1  0
 11 10  2  0
 12 10  1  0
 13 12  1  6
 13 14  1  0
 14  7  1  0
 15 23  1  0
 15 13  1  0
 16 15  2  0
 18 17  1  0
 18 19  2  0
 20 21  1  0
 20 18  1  0
 22 21  1  1
 22 23  1  0
 22 24  1  0
 24 25  2  0
 24 26  1  0
M  END
$$$$
