LNQ.pdb
     RDKit          3D

 26 25  0  0  1  0  0  0  0  0999 V2000
   19.4035  -16.4399  -17.4415 C   0  0  0  0  0  0  0  0  0  0  0  0
   18.6755  -15.8371  -16.2577 C   0  0  1  0  0  0  0  0  0  0  0  0
   18.1773  -16.9499  -15.3734 C   0  0  0  0  0  0  0  0  0  0  0  0
   19.6255  -14.9116  -15.5531 C   0  0  0  0  0  0  0  0  0  0  0  0
   19.7486  -13.5695  -16.2246 C   0  0  2  0  0  0  0  0  0  0  0  0
   20.4164  -13.6180  -17.4817 N   0  0  0  0  0  0  0  0  0  0  0  0
   20.3759  -12.5561  -15.3600 C   0  0  0  0  0  0  0  0  0  0  0  0
   20.3284  -12.7057  -14.1143 O   0  0  0  0  0  0  0  0  0  0  0  0
   23.6993  -12.1332  -14.3761 N   0  0  0  0  0  0  0  0  0  0  0  0
   24.0131  -10.9030  -15.0749 C   0  0  0  0  0  0  0  0  0  0  0  0
   25.2238  -10.7612  -15.3390 O   0  0  0  0  0  0  0  0  0  0  0  0
   22.9433   -9.9524  -15.4096 C   0  0  0  0  0  0  0  0  0  0  0  0
   21.6012  -10.3827  -14.9484 C   0  0  2  0  0  0  0  0  0  0  0  0
   21.0397  -11.4053  -15.8446 N   0  0  0  0  0  0  0  0  0  0  0  0
   20.6287   -9.2327  -14.8969 C   0  0  0  0  0  0  0  0  0  0  0  0
   19.9894   -8.8277  -15.8861 O   0  0  0  0  0  0  0  0  0  0  0  0
   17.0721   -7.6053   -9.9810 N   0  0  0  0  0  0  0  0  0  0  0  0
   16.7526   -8.4603  -11.0703 C   0  0  0  0  0  0  0  0  0  0  0  0
   15.7963   -9.2627  -10.9918 O   0  0  0  0  0  0  0  0  0  0  0  0
   17.5447   -8.4228  -12.3232 C   0  0  0  0  0  0  0  0  0  0  0  0
   18.7019   -7.4937  -12.3105 C   0  0  0  0  0  0  0  0  0  0  0  0
   19.4972   -7.4354  -13.5577 C   0  0  2  0  0  0  0  0  0  0  0  0
   20.4215   -8.5656  -13.6561 N   0  0  0  0  0  0  0  0  0  0  0  0
   20.2080   -6.1518  -13.7740 C   0  0  0  0  0  0  0  0  0  0  0  0
   21.4645   -6.0420  -13.7260 O   0  0  0  0  0  0  0  0  0  0  0  0
   19.5066   -4.9978  -14.0448 O   0  0  0  0  0  0  0  0  0  0  0  0
  2  3  1  1
  2  1  1  0
  4  5  1  0
  4  2  1  0
  5  6  1  6
  7  5  1  0
  7  8  2  0
 10  9  1  0
 11 10  2  0
 12 10  1  0
 13 12  1  6
 13 14  1  0
 14  7  1  0
 15 23  1  0
 15 13  1  0
 16 15  2  0
 18 17  1  0
 18 19  2  0
 20 21  1  0
 20 18  1  0
 22 21  1  1
 22 23  1  0
 22 24  1  0
 24 25  2  0
 24 26  1  0
M  END
$$$$
