LNQ.pdb
     RDKit          3D

 26 25  0  0  1  0  0  0  0  0999 V2000
   27.5893  -17.8068  -15.8891 C   0  0  0  0  0  0  0  0  0  0  0  0
   27.8222  -19.0535  -16.7174 C   0  0  1  0  0  0  0  0  0  0  0  0
   29.1117  -19.6964  -16.2790 C   0  0  0  0  0  0  0  0  0  0  0  0
   26.6322  -19.9530  -16.5437 C   0  0  0  0  0  0  0  0  0  0  0  0
   26.8113  -21.3002  -17.1920 C   0  0  2  0  0  0  0  0  0  0  0  0
   27.0133  -21.2348  -18.6003 N   0  0  0  0  0  0  0  0  0  0  0  0
   25.7126  -22.2307  -16.8836 C   0  0  0  0  0  0  0  0  0  0  0  0
   24.6069  -22.0780  -17.4584 O   0  0  0  0  0  0  0  0  0  0  0  0
   24.9718  -25.7482  -17.8687 N   0  0  0  0  0  0  0  0  0  0  0  0
   25.2702  -26.3341  -16.5773 C   0  0  0  0  0  0  0  0  0  0  0  0
   25.6686  -27.5147  -16.6328 O   0  0  0  0  0  0  0  0  0  0  0  0
   25.0939  -25.5433  -15.3510 C   0  0  0  0  0  0  0  0  0  0  0  0
   24.6690  -24.1450  -15.6026 C   0  0  2  0  0  0  0  0  0  0  0  0
   25.8188  -23.3032  -15.9681 N   0  0  0  0  0  0  0  0  0  0  0  0
   24.0152  -23.5295  -14.3924 C   0  0  0  0  0  0  0  0  0  0  0  0
   22.9187  -23.9056  -13.9369 O   0  0  0  0  0  0  0  0  0  0  0  0
   27.0079  -20.7154   -9.5722 N   0  0  0  0  0  0  0  0  0  0  0  0
   25.6351  -20.4449   -9.3226 C   0  0  0  0  0  0  0  0  0  0  0  0
   25.2731  -19.9296   -8.2419 O   0  0  0  0  0  0  0  0  0  0  0  0
   24.6010  -20.7678  -10.3349 C   0  0  0  0  0  0  0  0  0  0  0  0
   25.0993  -21.4681  -11.5448 C   0  0  0  0  0  0  0  0  0  0  0  0
   24.0761  -21.8188  -12.5555 C   0  0  2  0  0  0  0  0  0  0  0  0
   24.6774  -22.4597  -13.7255 N   0  0  0  0  0  0  0  0  0  0  0  0
   23.2019  -20.6917  -12.9620 C   0  0  0  0  0  0  0  0  0  0  0  0
   23.4553  -19.9414  -13.9449 O   0  0  0  0  0  0  0  0  0  0  0  0
   22.0471  -20.4122  -12.2654 O   0  0  0  0  0  0  0  0  0  0  0  0
  2  3  1  1
  2  1  1  0
  4  5  1  0
  4  2  1  0
  5  6  1  6
  7  5  1  0
  7  8  2  0
 10  9  1  0
 11 10  2  0
 12 10  1  0
 13 12  1  1
 13 14  1  0
 14  7  1  0
 15 23  1  0
 15 13  1  0
 16 15  2  0
 18 17  1  0
 18 19  2  0
 20 21  1  0
 20 18  1  0
 22 21  1  1
 22 23  1  0
 22 24  1  0
 24 25  2  0
 24 26  1  0
M  END
$$$$
