LNQ.pdb
     RDKit          3D

 26 25  0  0  1  0  0  0  0  0999 V2000
   27.7296  -16.9424  -19.0962 C   0  0  0  0  0  0  0  0  0  0  0  0
   27.4411  -17.9446  -17.9975 C   0  0  1  0  0  0  0  0  0  0  0  0
   28.7137  -18.2169  -17.2394 C   0  0  0  0  0  0  0  0  0  0  0  0
   26.3537  -17.3789  -17.1297 C   0  0  0  0  0  0  0  0  0  0  0  0
   25.9599  -18.2975  -16.0035 C   0  0  2  0  0  0  0  0  0  0  0  0
   26.1952  -19.6747  -16.2798 N   0  0  0  0  0  0  0  0  0  0  0  0
   24.5662  -18.1019  -15.5705 C   0  0  0  0  0  0  0  0  0  0  0  0
   24.1382  -16.9327  -15.4081 O   0  0  0  0  0  0  0  0  0  0  0  0
   19.6045  -16.8100  -15.5810 N   0  0  0  0  0  0  0  0  0  0  0  0
   20.1691  -18.0256  -16.1322 C   0  0  0  0  0  0  0  0  0  0  0  0
   19.3198  -18.8674  -16.4866 O   0  0  0  0  0  0  0  0  0  0  0  0
   21.6272  -18.1809  -16.2330 C   0  0  0  0  0  0  0  0  0  0  0  0
   22.2238  -18.9311  -15.1015 C   0  0  2  0  0  0  0  0  0  0  0  0
   23.6606  -19.1588  -15.3203 N   0  0  0  0  0  0  0  0  0  0  0  0
   21.5694  -20.2751  -14.9105 C   0  0  0  0  0  0  0  0  0  0  0  0
   21.9249  -21.3052  -15.5137 O   0  0  0  0  0  0  0  0  0  0  0  0
   19.6630  -22.8768   -9.7154 N   0  0  0  0  0  0  0  0  0  0  0  0
   19.3953  -23.8576  -10.7085 C   0  0  0  0  0  0  0  0  0  0  0  0
   18.9120  -24.9676  -10.3944 O   0  0  0  0  0  0  0  0  0  0  0  0
   19.6833  -23.5894  -12.1381 C   0  0  0  0  0  0  0  0  0  0  0  0
   20.1985  -22.2293  -12.4336 C   0  0  0  0  0  0  0  0  0  0  0  0
   19.8328  -21.6732  -13.7559 C   0  0  2  0  0  0  0  0  0  0  0  0
   20.4855  -20.3853  -13.9938 N   0  0  0  0  0  0  0  0  0  0  0  0
   18.3729  -21.5783  -14.0003 C   0  0  0  0  0  0  0  0  0  0  0  0
   17.6811  -20.5765  -13.6673 O   0  0  0  0  0  0  0  0  0  0  0  0
   17.6962  -22.6064  -14.6183 O   0  0  0  0  0  0  0  0  0  0  0  0
  2  3  1  1
  2  1  1  0
  4  5  1  0
  4  2  1  0
  5  6  1  6
  7  5  1  0
  7  8  2  0
 10  9  1  0
 11 10  2  0
 12 10  1  0
 13 12  1  6
 13 14  1  0
 14  7  1  0
 15 23  1  0
 15 13  1  0
 16 15  2  0
 18 17  1  0
 18 19  2  0
 20 21  1  0
 20 18  1  0
 22 21  1  1
 22 23  1  0
 22 24  1  0
 24 25  2  0
 24 26  1  0
M  END
$$$$
