LNQ.pdb
     RDKit          3D

 26 25  0  0  1  0  0  0  0  0999 V2000
   29.2652  -19.8725  -13.8366 C   0  0  0  0  0  0  0  0  0  0  0  0
   28.0104  -19.5206  -14.6088 C   0  0  1  0  0  0  0  0  0  0  0  0
   28.2016  -19.9067  -16.0520 C   0  0  0  0  0  0  0  0  0  0  0  0
   26.8554  -20.2301  -13.9623 C   0  0  0  0  0  0  0  0  0  0  0  0
   25.5396  -19.9552  -14.6408 C   0  0  2  0  0  0  0  0  0  0  0  0
   25.3367  -18.5821  -14.9603 N   0  0  0  0  0  0  0  0  0  0  0  0
   24.3887  -20.4706  -13.8806 C   0  0  0  0  0  0  0  0  0  0  0  0
   24.5941  -21.0586  -12.7904 O   0  0  0  0  0  0  0  0  0  0  0  0
   19.9368  -21.2947  -11.5471 N   0  0  0  0  0  0  0  0  0  0  0  0
   20.8103  -20.1694  -11.2808 C   0  0  0  0  0  0  0  0  0  0  0  0
   20.5403  -19.5514  -10.2316 O   0  0  0  0  0  0  0  0  0  0  0  0
   21.8993  -19.8453  -12.2131 C   0  0  0  0  0  0  0  0  0  0  0  0
   21.9104  -20.6924  -13.4302 C   0  0  2  0  0  0  0  0  0  0  0  0
   23.0443  -20.3471  -14.3014 N   0  0  0  0  0  0  0  0  0  0  0  0
   20.6469  -20.5350  -14.2364 C   0  0  0  0  0  0  0  0  0  0  0  0
   20.2200  -19.4363  -14.6386 O   0  0  0  0  0  0  0  0  0  0  0  0
   18.7707  -25.3209  -17.9473 N   0  0  0  0  0  0  0  0  0  0  0  0
   18.8090  -25.4073  -16.5292 C   0  0  0  0  0  0  0  0  0  0  0  0
   18.7894  -26.5196  -15.9574 O   0  0  0  0  0  0  0  0  0  0  0  0
   18.8718  -24.1831  -15.6950 C   0  0  0  0  0  0  0  0  0  0  0  0
   18.9516  -22.9081  -16.4505 C   0  0  0  0  0  0  0  0  0  0  0  0
   18.9012  -21.6717  -15.6380 C   0  0  2  0  0  0  0  0  0  0  0  0
   19.8925  -21.6979  -14.5618 N   0  0  0  0  0  0  0  0  0  0  0  0
   17.5563  -21.3383  -15.1089 C   0  0  0  0  0  0  0  0  0  0  0  0
   17.2721  -21.3656  -13.8794 O   0  0  0  0  0  0  0  0  0  0  0  0
   16.5371  -20.9744  -15.9607 O   0  0  0  0  0  0  0  0  0  0  0  0
  2  3  1  6
  2  1  1  0
  4  5  1  0
  4  2  1  0
  5  6  1  1
  7  5  1  0
  7  8  2  0
 10  9  1  0
 11 10  2  0
 12 10  1  0
 13 12  1  1
 13 14  1  0
 14  7  1  0
 15 23  1  0
 15 13  1  0
 16 15  2  0
 18 17  1  0
 18 19  2  0
 20 21  1  0
 20 18  1  0
 22 21  1  1
 22 23  1  0
 22 24  1  0
 24 25  2  0
 24 26  1  0
M  END
$$$$
