LNQ.pdb
     RDKit          3D

 26 25  0  0  1  0  0  0  0  0999 V2000
   29.4818  -22.9834  -16.3469 C   0  0  0  0  0  0  0  0  0  0  0  0
   28.4667  -21.8590  -16.3570 C   0  0  1  0  0  0  0  0  0  0  0  0
   27.9886  -21.6462  -17.7693 C   0  0  0  0  0  0  0  0  0  0  0  0
   27.3577  -22.2289  -15.4141 C   0  0  0  0  0  0  0  0  0  0  0  0
   26.3116  -21.1538  -15.2831 C   0  0  2  0  0  0  0  0  0  0  0  0
   26.8518  -19.8522  -15.0772 N   0  0  0  0  0  0  0  0  0  0  0  0
   25.3134  -21.4549  -14.2434 C   0  0  0  0  0  0  0  0  0  0  0  0
   24.6427  -22.5126  -14.3323 O   0  0  0  0  0  0  0  0  0  0  0  0
   26.8172  -20.6670  -10.1284 N   0  0  0  0  0  0  0  0  0  0  0  0
   25.4764  -21.2142  -10.1826 C   0  0  0  0  0  0  0  0  0  0  0  0
   25.3678  -22.3487   -9.6759 O   0  0  0  0  0  0  0  0  0  0  0  0
   24.3889  -20.4399  -10.7976 C   0  0  0  0  0  0  0  0  0  0  0  0
   24.0049  -20.9236  -12.1458 C   0  0  2  0  0  0  0  0  0  0  0  0
   25.0533  -20.6200  -13.1321 N   0  0  0  0  0  0  0  0  0  0  0  0
   22.7245  -20.2909  -12.6267 C   0  0  0  0  0  0  0  0  0  0  0  0
   22.6330  -19.0964  -12.9671 O   0  0  0  0  0  0  0  0  0  0  0  0
   18.5698  -20.8660  -17.6163 N   0  0  0  0  0  0  0  0  0  0  0  0
   19.4827  -19.9785  -16.9847 C   0  0  0  0  0  0  0  0  0  0  0  0
   20.3604  -19.3865  -17.6507 O   0  0  0  0  0  0  0  0  0  0  0  0
   19.4174  -19.7346  -15.5236 C   0  0  0  0  0  0  0  0  0  0  0  0
   20.5969  -20.2007  -14.7528 C   0  0  0  0  0  0  0  0  0  0  0  0
   20.3381  -20.5888  -13.3478 C   0  0  2  0  0  0  0  0  0  0  0  0
   21.5497  -21.0922  -12.6999 N   0  0  0  0  0  0  0  0  0  0  0  0
   19.2114  -21.5368  -13.1697 C   0  0  0  0  0  0  0  0  0  0  0  0
   18.0018  -21.2060  -13.3130 O   0  0  0  0  0  0  0  0  0  0  0  0
   19.4466  -22.8515  -12.8332 O   0  0  0  0  0  0  0  0  0  0  0  0
  2  3  1  6
  2  1  1  0
  4  5  1  0
  4  2  1  0
  5  6  1  1
  7  5  1  0
  7  8  2  0
 10  9  1  0
 11 10  2  0
 12 10  1  0
 13 12  1  1
 13 14  1  0
 14  7  1  0
 15 23  1  0
 15 13  1  0
 16 15  2  0
 18 17  1  0
 18 19  2  0
 20 21  1  0
 20 18  1  0
 22 21  1  6
 22 23  1  0
 22 24  1  0
 24 25  2  0
 24 26  1  0
M  END
$$$$
