LNQ.pdb
     RDKit          3D

 26 25  0  0  1  0  0  0  0  0999 V2000
   16.6024  -12.3528  -16.7510 C   0  0  0  0  0  0  0  0  0  0  0  0
   17.0599  -13.0702  -15.4977 C   0  0  1  0  0  0  0  0  0  0  0  0
   18.5084  -13.4516  -15.6552 C   0  0  0  0  0  0  0  0  0  0  0  0
   16.8196  -12.1579  -14.3291 C   0  0  0  0  0  0  0  0  0  0  0  0
   17.2101  -10.7302  -14.6052 C   0  0  2  0  0  0  0  0  0  0  0  0
   18.6182  -10.5213  -14.6533 N   0  0  0  0  0  0  0  0  0  0  0  0
   16.5919   -9.7794  -13.6661 C   0  0  0  0  0  0  0  0  0  0  0  0
   15.3504   -9.8248  -13.4838 O   0  0  0  0  0  0  0  0  0  0  0  0
   15.5798   -5.9653  -10.2785 N   0  0  0  0  0  0  0  0  0  0  0  0
   16.5756   -6.8953   -9.7849 C   0  0  0  0  0  0  0  0  0  0  0  0
   16.8280   -6.7745   -8.5694 O   0  0  0  0  0  0  0  0  0  0  0  0
   17.1914   -7.8686  -10.6980 C   0  0  0  0  0  0  0  0  0  0  0  0
   16.6505   -7.8128  -12.0776 C   0  0  2  0  0  0  0  0  0  0  0  0
   17.3127   -8.8011  -12.9429 N   0  0  0  0  0  0  0  0  0  0  0  0
   16.8410   -6.4545  -12.7019 C   0  0  0  0  0  0  0  0  0  0  0  0
   17.8877   -5.7883  -12.5933 O   0  0  0  0  0  0  0  0  0  0  0  0
   13.4643   -2.4966  -10.4851 N   0  0  0  0  0  0  0  0  0  0  0  0
   14.0122   -1.7045  -11.5303 C   0  0  0  0  0  0  0  0  0  0  0  0
   13.8382   -0.4661  -11.5499 O   0  0  0  0  0  0  0  0  0  0  0  0
   14.8006   -2.3264  -12.6213 C   0  0  0  0  0  0  0  0  0  0  0  0
   14.9390   -3.8017  -12.5380 C   0  0  0  0  0  0  0  0  0  0  0  0
   15.6721   -4.4455  -13.6513 C   0  0  2  0  0  0  0  0  0  0  0  0
   15.7739   -5.8926  -13.4588 N   0  0  0  0  0  0  0  0  0  0  0  0
   17.0034   -3.8555  -13.9331 C   0  0  0  0  0  0  0  0  0  0  0  0
   18.0884   -4.4181  -13.6179 O   0  0  0  0  0  0  0  0  0  0  0  0
   17.1116   -2.6383  -14.5684 O   0  0  0  0  0  0  0  0  0  0  0  0
  2  3  1  6
  2  1  1  0
  4  5  1  0
  4  2  1  0
  5  6  1  1
  7  5  1  0
  7  8  2  0
 10  9  1  0
 11 10  2  0
 12 10  1  0
 13 12  1  1
 13 14  1  0
 14  7  1  0
 15 23  1  0
 15 13  1  0
 16 15  2  0
 18 17  1  0
 18 19  2  0
 20 21  1  0
 20 18  1  0
 22 21  1  1
 22 23  1  0
 22 24  1  0
 24 25  2  0
 24 26  1  0
M  END
$$$$
