LNQ.pdb
     RDKit          3D

 26 25  0  0  1  0  0  0  0  0999 V2000
   28.3473  -19.3047   -7.0211 C   0  0  0  0  0  0  0  0  0  0  0  0
   27.6339  -20.3316   -7.8763 C   0  0  1  0  0  0  0  0  0  0  0  0
   26.4415  -20.8536   -7.1186 C   0  0  0  0  0  0  0  0  0  0  0  0
   27.2596  -19.6733   -9.1733 C   0  0  0  0  0  0  0  0  0  0  0  0
   26.6818  -20.6349  -10.1777 C   0  0  2  0  0  0  0  0  0  0  0  0
   27.4766  -21.7999  -10.3771 N   0  0  0  0  0  0  0  0  0  0  0  0
   26.3888  -19.9976  -11.4723 C   0  0  0  0  0  0  0  0  0  0  0  0
   27.0014  -18.9474  -11.7857 O   0  0  0  0  0  0  0  0  0  0  0  0
   26.1766  -18.5237  -16.0027 N   0  0  0  0  0  0  0  0  0  0  0  0
   27.1469  -19.4936  -15.5359 C   0  0  0  0  0  0  0  0  0  0  0  0
   28.2234  -19.4817  -16.1656 O   0  0  0  0  0  0  0  0  0  0  0  0
   26.8187  -20.3815  -14.4115 C   0  0  0  0  0  0  0  0  0  0  0  0
   25.4789  -20.1297  -13.8280 C   0  0  2  0  0  0  0  0  0  0  0  0
   25.4481  -20.4956  -12.4034 N   0  0  0  0  0  0  0  0  0  0  0  0
   24.4031  -20.9190  -14.5284 C   0  0  0  0  0  0  0  0  0  0  0  0
   24.5438  -22.1021  -14.8914 O   0  0  0  0  0  0  0  0  0  0  0  0
   22.3599  -20.8679   -9.8132 N   0  0  0  0  0  0  0  0  0  0  0  0
   21.1853  -21.4013  -10.4095 C   0  0  0  0  0  0  0  0  0  0  0  0
   20.3122  -21.9599   -9.7094 O   0  0  0  0  0  0  0  0  0  0  0  0
   20.9679  -21.3100  -11.8733 C   0  0  0  0  0  0  0  0  0  0  0  0
   22.1199  -20.7898  -12.6512 C   0  0  0  0  0  0  0  0  0  0  0  0
   21.9334  -20.7279  -14.1184 C   0  0  2  0  0  0  0  0  0  0  0  0
   23.1544  -20.2886  -14.7949 N   0  0  0  0  0  0  0  0  0  0  0  0
   20.7681  -19.9216  -14.5564 C   0  0  0  0  0  0  0  0  0  0  0  0
   20.8676  -18.7341  -14.9724 O   0  0  0  0  0  0  0  0  0  0  0  0
   19.4970  -20.4512  -14.5271 O   0  0  0  0  0  0  0  0  0  0  0  0
  2  3  1  1
  2  1  1  0
  4  5  1  0
  4  2  1  0
  5  6  1  6
  7  5  1  0
  7  8  2  0
 10  9  1  0
 11 10  2  0
 12 10  1  0
 13 12  1  6
 13 14  1  0
 14  7  1  0
 15 23  1  0
 15 13  1  0
 16 15  2  0
 18 17  1  0
 18 19  2  0
 20 21  1  0
 20 18  1  0
 22 21  1  1
 22 23  1  0
 22 24  1  0
 24 25  2  0
 24 26  1  0
M  END
$$$$
