LNQ.pdb
     RDKit          3D

 26 25  0  0  1  0  0  0  0  0999 V2000
   17.6347  -15.0371  -15.6735 C   0  0  0  0  0  0  0  0  0  0  0  0
   17.1308  -13.6189  -15.8456 C   0  0  1  0  0  0  0  0  0  0  0  0
   15.9287  -13.4177  -14.9607 C   0  0  0  0  0  0  0  0  0  0  0  0
   18.2600  -12.6842  -15.5188 C   0  0  0  0  0  0  0  0  0  0  0  0
   17.8799  -11.2328  -15.6459 C   0  0  2  0  0  0  0  0  0  0  0  0
   17.3413  -10.8920  -16.9196 N   0  0  0  0  0  0  0  0  0  0  0  0
   18.9872  -10.3230  -15.3077 C   0  0  0  0  0  0  0  0  0  0  0  0
   19.5854  -10.4732  -14.2141 O   0  0  0  0  0  0  0  0  0  0  0  0
   22.9051   -6.9134  -15.4094 N   0  0  0  0  0  0  0  0  0  0  0  0
   22.6417   -7.4113  -16.7446 C   0  0  0  0  0  0  0  0  0  0  0  0
   23.5408   -7.1562  -17.5706 O   0  0  0  0  0  0  0  0  0  0  0  0
   21.3997   -8.1453  -17.0256 C   0  0  0  0  0  0  0  0  0  0  0  0
   20.5976   -8.4402  -15.8137 C   0  0  2  0  0  0  0  0  0  0  0  0
   19.4309   -9.2729  -16.1445 N   0  0  0  0  0  0  0  0  0  0  0  0
   20.0924   -7.1830  -15.1539 C   0  0  0  0  0  0  0  0  0  0  0  0
   19.2328   -6.4378  -15.6608 O   0  0  0  0  0  0  0  0  0  0  0  0
   18.0998   -6.3931   -9.5028 N   0  0  0  0  0  0  0  0  0  0  0  0
   17.4745   -6.7432  -10.7301 C   0  0  0  0  0  0  0  0  0  0  0  0
   16.3338   -7.2561  -10.7407 O   0  0  0  0  0  0  0  0  0  0  0  0
   18.1587   -6.5107  -12.0247 C   0  0  0  0  0  0  0  0  0  0  0  0
   19.5063   -5.8970  -11.9250 C   0  0  0  0  0  0  0  0  0  0  0  0
   20.1755   -5.5954  -13.2106 C   0  0  2  0  0  0  0  0  0  0  0  0
   20.6189   -6.8174  -13.8824 N   0  0  0  0  0  0  0  0  0  0  0  0
   21.2845   -4.6155  -13.1112 C   0  0  0  0  0  0  0  0  0  0  0  0
   22.4790   -4.8923  -13.4105 O   0  0  0  0  0  0  0  0  0  0  0  0
   21.0483   -3.3295  -12.6782 O   0  0  0  0  0  0  0  0  0  0  0  0
  2  3  1  1
  2  1  1  0
  4  5  1  0
  4  2  1  0
  5  6  1  6
  7  5  1  0
  7  8  2  0
 10  9  1  0
 11 10  2  0
 12 10  1  0
 13 12  1  6
 13 14  1  0
 14  7  1  0
 15 23  1  0
 15 13  1  0
 16 15  2  0
 18 17  1  0
 18 19  2  0
 20 21  1  0
 20 18  1  0
 22 21  1  1
 22 23  1  0
 22 24  1  0
 24 25  2  0
 24 26  1  0
M  END
$$$$
