LNQ.pdb
     RDKit          3D

 26 25  0  0  1  0  0  0  0  0999 V2000
   19.4631  -16.2371  -17.8447 C   0  0  0  0  0  0  0  0  0  0  0  0
   19.2549  -15.0360  -16.9454 C   0  0  1  0  0  0  0  0  0  0  0  0
   20.2006  -15.1317  -15.7771 C   0  0  0  0  0  0  0  0  0  0  0  0
   19.4678  -13.7988  -17.7698 C   0  0  0  0  0  0  0  0  0  0  0  0
   19.2251  -12.5279  -16.9997 C   0  0  2  0  0  0  0  0  0  0  0  0
   18.0097  -12.5323  -16.2571 N   0  0  0  0  0  0  0  0  0  0  0  0
   19.2920  -11.3267  -17.8486 C   0  0  0  0  0  0  0  0  0  0  0  0
   19.6904  -11.4409  -19.0338 O   0  0  0  0  0  0  0  0  0  0  0  0
   18.3892   -6.8520  -20.1964 N   0  0  0  0  0  0  0  0  0  0  0  0
   17.5726   -8.0443  -20.3039 C   0  0  0  0  0  0  0  0  0  0  0  0
   16.7533   -8.0183  -21.2440 O   0  0  0  0  0  0  0  0  0  0  0  0
   17.7517   -9.1484  -19.3503 C   0  0  0  0  0  0  0  0  0  0  0  0
   18.8061   -8.8940  -18.3392 C   0  0  2  0  0  0  0  0  0  0  0  0
   18.9324  -10.0302  -17.4132 N   0  0  0  0  0  0  0  0  0  0  0  0
   18.5143   -7.6635  -17.5196 C   0  0  0  0  0  0  0  0  0  0  0  0
   17.7476   -7.6567  -16.5381 O   0  0  0  0  0  0  0  0  0  0  0  0
   22.0293   -7.5137  -13.8463 N   0  0  0  0  0  0  0  0  0  0  0  0
   21.9510   -6.0947  -13.8323 C   0  0  0  0  0  0  0  0  0  0  0  0
   22.5558   -5.4314  -12.9614 O   0  0  0  0  0  0  0  0  0  0  0  0
   21.1506   -5.3681  -14.8471 C   0  0  0  0  0  0  0  0  0  0  0  0
   20.4981   -6.2251  -15.8681 C   0  0  0  0  0  0  0  0  0  0  0  0
   19.6408   -5.5222  -16.8492 C   0  0  2  0  0  0  0  0  0  0  0  0
   19.1432   -6.4371  -17.8771 N   0  0  0  0  0  0  0  0  0  0  0  0
   20.2649   -4.3258  -17.4648 C   0  0  0  0  0  0  0  0  0  0  0  0
   20.6412   -4.2859  -18.6689 O   0  0  0  0  0  0  0  0  0  0  0  0
   20.4626   -3.1793  -16.7276 O   0  0  0  0  0  0  0  0  0  0  0  0
  2  3  1  1
  2  1  1  0
  4  5  1  0
  4  2  1  0
  5  6  1  6
  7  5  1  0
  7  8  2  0
 10  9  1  0
 11 10  2  0
 12 10  1  0
 13 12  1  6
 13 14  1  0
 14  7  1  0
 15 23  1  0
 15 13  1  0
 16 15  2  0
 18 17  1  0
 18 19  2  0
 20 21  1  0
 20 18  1  0
 22 21  1  6
 22 23  1  0
 22 24  1  0
 24 25  2  0
 24 26  1  0
M  END
$$$$
