LNQ.pdb
     RDKit          3D

 26 25  0  0  1  0  0  0  0  0999 V2000
   20.4073  -17.0937  -20.2010 C   0  0  0  0  0  0  0  0  0  0  0  0
   20.4565  -16.6150  -18.7647 C   0  0  1  0  0  0  0  0  0  0  0  0
   21.6179  -17.2759  -18.0699 C   0  0  0  0  0  0  0  0  0  0  0  0
   20.5604  -15.1168  -18.7800 C   0  0  0  0  0  0  0  0  0  0  0  0
   20.5316  -14.5095  -17.4025 C   0  0  2  0  0  0  0  0  0  0  0  0
   19.5287  -15.0613  -16.5549 N   0  0  0  0  0  0  0  0  0  0  0  0
   20.4157  -13.0418  -17.4301 C   0  0  0  0  0  0  0  0  0  0  0  0
   21.2373  -12.3796  -18.1105 O   0  0  0  0  0  0  0  0  0  0  0  0
   18.9146   -8.0863  -16.8183 N   0  0  0  0  0  0  0  0  0  0  0  0
   17.7501   -8.9464  -16.7511 C   0  0  0  0  0  0  0  0  0  0  0  0
   16.6638   -8.3338  -16.7362 O   0  0  0  0  0  0  0  0  0  0  0  0
   17.9142  -10.4063  -16.7071 C   0  0  0  0  0  0  0  0  0  0  0  0
   19.3266  -10.8479  -16.8016 C   0  0  2  0  0  0  0  0  0  0  0  0
   19.4256  -12.3139  -16.7304 N   0  0  0  0  0  0  0  0  0  0  0  0
   20.1701  -10.2760  -15.6914 C   0  0  0  0  0  0  0  0  0  0  0  0
   19.9589  -10.4961  -14.4838 O   0  0  0  0  0  0  0  0  0  0  0  0
   26.0926  -10.6835  -15.0832 N   0  0  0  0  0  0  0  0  0  0  0  0
   25.6859   -9.8554  -16.1643 C   0  0  0  0  0  0  0  0  0  0  0  0
   26.4672   -9.6128  -17.1104 O   0  0  0  0  0  0  0  0  0  0  0  0
   24.3287   -9.2591  -16.1957 C   0  0  0  0  0  0  0  0  0  0  0  0
   23.4789   -9.5624  -15.0174 C   0  0  0  0  0  0  0  0  0  0  0  0
   22.1530   -8.9045  -14.9908 C   0  0  2  0  0  0  0  0  0  0  0  0
   21.2703   -9.4376  -16.0291 N   0  0  0  0  0  0  0  0  0  0  0  0
   22.2007   -7.4231  -15.0481 C   0  0  0  0  0  0  0  0  0  0  0  0
   21.7356   -6.7543  -16.0122 O   0  0  0  0  0  0  0  0  0  0  0  0
   22.7682   -6.6988  -14.0233 O   0  0  0  0  0  0  0  0  0  0  0  0
  2  3  1  6
  2  1  1  0
  4  5  1  0
  4  2  1  0
  5  6  1  1
  7  5  1  0
  7  8  2  0
 10  9  1  0
 11 10  2  0
 12 10  1  0
 13 12  1  1
 13 14  1  0
 14  7  1  0
 15 23  1  0
 15 13  1  0
 16 15  2  0
 18 17  1  0
 18 19  2  0
 20 21  1  0
 20 18  1  0
 22 21  1  6
 22 23  1  0
 22 24  1  0
 24 25  2  0
 24 26  1  0
M  END
$$$$
