LNQ.pdb
     RDKit          3D

 26 25  0  0  1  0  0  0  0  0999 V2000
   27.7968  -10.9208  -17.8458 C   0  0  0  0  0  0  0  0  0  0  0  0
   26.8243  -11.0905  -16.6968 C   0  0  1  0  0  0  0  0  0  0  0  0
   27.4077  -10.4491  -15.4653 C   0  0  0  0  0  0  0  0  0  0  0  0
   25.5136  -10.4828  -17.1070 C   0  0  0  0  0  0  0  0  0  0  0  0
   24.4628  -10.5653  -16.0317 C   0  0  2  0  0  0  0  0  0  0  0  0
   24.2575  -11.8834  -15.5326 N   0  0  0  0  0  0  0  0  0  0  0  0
   23.1777   -9.9778  -16.4456 C   0  0  0  0  0  0  0  0  0  0  0  0
   23.1652   -8.8159  -16.9214 O   0  0  0  0  0  0  0  0  0  0  0  0
   18.2285   -9.1211  -17.7873 N   0  0  0  0  0  0  0  0  0  0  0  0
   18.3587  -10.5349  -17.4972 C   0  0  0  0  0  0  0  0  0  0  0  0
   17.3447  -11.2073  -17.7718 O   0  0  0  0  0  0  0  0  0  0  0  0
   19.6090  -11.0583  -16.9288 C   0  0  0  0  0  0  0  0  0  0  0  0
   20.6738  -10.0350  -16.7941 C   0  0  2  0  0  0  0  0  0  0  0  0
   21.9344  -10.6437  -16.3421 N   0  0  0  0  0  0  0  0  0  0  0  0
   20.3006   -8.9620  -15.8040 C   0  0  0  0  0  0  0  0  0  0  0  0
   20.6940   -8.9494  -14.6224 O   0  0  0  0  0  0  0  0  0  0  0  0
   23.5991   -5.1509  -15.2518 N   0  0  0  0  0  0  0  0  0  0  0  0
   22.5397   -4.3396  -14.7627 C   0  0  0  0  0  0  0  0  0  0  0  0
   22.7779   -3.2350  -14.2265 O   0  0  0  0  0  0  0  0  0  0  0  0
   21.1293   -4.7830  -14.8749 C   0  0  0  0  0  0  0  0  0  0  0  0
   20.9344   -6.1152  -15.4992 C   0  0  0  0  0  0  0  0  0  0  0  0
   19.5328   -6.5797  -15.6060 C   0  0  2  0  0  0  0  0  0  0  0  0
   19.4531   -7.9004  -16.2311 N   0  0  0  0  0  0  0  0  0  0  0  0
   18.6176   -5.6231  -16.2747 C   0  0  0  0  0  0  0  0  0  0  0  0
   18.5145   -5.5284  -17.5291 O   0  0  0  0  0  0  0  0  0  0  0  0
   17.8212   -4.7785  -15.5335 O   0  0  0  0  0  0  0  0  0  0  0  0
  2  3  1  1
  2  1  1  0
  4  5  1  0
  4  2  1  0
  5  6  1  6
  7  5  1  0
  7  8  2  0
 10  9  1  0
 11 10  2  0
 12 10  1  0
 13 12  1  1
 13 14  1  0
 14  7  1  0
 15 23  1  0
 15 13  1  0
 16 15  2  0
 18 17  1  0
 18 19  2  0
 20 21  1  0
 20 18  1  0
 22 21  1  6
 22 23  1  0
 22 24  1  0
 24 25  2  0
 24 26  1  0
M  END
$$$$
