LNQ.pdb
     RDKit          3D

 26 25  0  0  1  0  0  0  0  0999 V2000
   28.7272  -17.8544  -16.5905 C   0  0  0  0  0  0  0  0  0  0  0  0
   28.0761  -19.0374  -15.9041 C   0  0  1  0  0  0  0  0  0  0  0  0
   28.5650  -19.1053  -14.4811 C   0  0  0  0  0  0  0  0  0  0  0  0
   26.5872  -18.8673  -16.0029 C   0  0  0  0  0  0  0  0  0  0  0  0
   25.8209  -19.9806  -15.3392 C   0  0  2  0  0  0  0  0  0  0  0  0
   26.2830  -21.2814  -15.6899 N   0  0  0  0  0  0  0  0  0  0  0  0
   24.3688  -19.8847  -15.5640 C   0  0  0  0  0  0  0  0  0  0  0  0
   23.8003  -18.7768  -15.4028 O   0  0  0  0  0  0  0  0  0  0  0  0
   23.0094  -21.1556  -19.7602 N   0  0  0  0  0  0  0  0  0  0  0  0
   22.2667  -20.5431  -18.6769 C   0  0  0  0  0  0  0  0  0  0  0  0
   22.1098  -19.3118  -18.7985 O   0  0  0  0  0  0  0  0  0  0  0  0
   21.7726  -21.3668  -17.5644 C   0  0  0  0  0  0  0  0  0  0  0  0
   22.1177  -20.8266  -16.2272 C   0  0  2  0  0  0  0  0  0  0  0  0
   23.5560  -20.9737  -15.9555 N   0  0  0  0  0  0  0  0  0  0  0  0
   21.3677  -21.5303  -15.1257 C   0  0  0  0  0  0  0  0  0  0  0  0
   21.7925  -22.5468  -14.5447 O   0  0  0  0  0  0  0  0  0  0  0  0
   19.5543  -20.5733   -9.6927 N   0  0  0  0  0  0  0  0  0  0  0  0
   20.2147  -19.6306  -10.5264 C   0  0  0  0  0  0  0  0  0  0  0  0
   20.4824  -18.4840  -10.1045 O   0  0  0  0  0  0  0  0  0  0  0  0
   20.6002  -19.9826  -11.9142 C   0  0  0  0  0  0  0  0  0  0  0  0
   20.2911  -21.3761  -12.3207 C   0  0  0  0  0  0  0  0  0  0  0  0
   19.4369  -21.5244  -13.5207 C   0  0  2  0  0  0  0  0  0  0  0  0
   20.1045  -21.0143  -14.7189 N   0  0  0  0  0  0  0  0  0  0  0  0
   18.0795  -20.9426  -13.3846 C   0  0  0  0  0  0  0  0  0  0  0  0
   17.2462  -21.3297  -12.5193 O   0  0  0  0  0  0  0  0  0  0  0  0
   17.6635  -19.9283  -14.2184 O   0  0  0  0  0  0  0  0  0  0  0  0
  2  3  1  1
  2  1  1  0
  4  5  1  0
  4  2  1  0
  5  6  1  6
  7  5  1  0
  7  8  2  0
 10  9  1  0
 11 10  2  0
 12 10  1  0
 13 12  1  6
 13 14  1  0
 14  7  1  0
 15 23  1  0
 15 13  1  0
 16 15  2  0
 18 17  1  0
 18 19  2  0
 20 21  1  0
 20 18  1  0
 22 21  1  1
 22 23  1  0
 22 24  1  0
 24 25  2  0
 24 26  1  0
M  END
$$$$
