EIE.pdb
     RDKit          3D

 27 26  0  0  1  0  0  0  0  0999 V2000
   17.3962  -11.2549  -15.3913 N   0  0  0  0  0  0  0  0  0  0  0  0
   17.2309   -9.8175  -15.4654 C   0  0  1  0  0  0  0  0  0  0  0  0
   15.7589   -9.4443  -15.6772 C   0  0  0  0  0  0  0  0  0  0  0  0
   15.3875   -9.7531  -17.1243 C   0  0  0  0  0  0  0  0  0  0  0  0
   15.7613   -8.6293  -17.9865 C   0  0  0  0  0  0  0  0  0  0  0  0
   15.5177   -7.4368  -17.7079 O   0  0  0  0  0  0  0  0  0  0  0  0
   17.7376   -9.1958  -14.2270 C   0  0  0  0  0  0  0  0  0  0  0  0
   17.5617   -9.8115  -13.1208 O   0  0  0  0  0  0  0  0  0  0  0  0
   16.4194   -8.8925  -19.1707 O   0  0  0  0  0  0  0  0  0  0  0  0
   22.3120   -5.6024  -12.8119 C   0  0  0  0  0  0  0  0  0  0  0  0
   20.8007   -5.7253  -12.5318 C   0  0  0  0  0  0  0  0  0  0  0  0
   20.2553   -6.9838  -13.1402 C   0  0  2  0  0  0  0  0  0  0  0  0
   20.8625   -7.2210  -14.5273 C   0  0  0  0  0  0  0  0  0  0  0  0
   18.8513   -7.2967  -12.9940 C   0  0  2  0  0  0  0  0  0  0  0  0
   18.4005   -7.9465  -14.2321 N   0  0  0  0  0  0  0  0  0  0  0  0
   17.8473   -6.4068  -12.4768 C   0  0  0  0  0  0  0  0  0  0  0  0
   17.3560   -5.5480  -13.3194 O   0  0  0  0  0  0  0  0  0  0  0  0
   17.2864   -6.2965  -11.2007 N   0  0  0  0  0  0  0  0  0  0  0  0
   16.2602   -5.3169  -10.8429 C   0  0  1  0  0  0  0  0  0  0  0  0
   15.2033   -5.9275   -9.9809 C   0  0  0  0  0  0  0  0  0  0  0  0
   14.1020   -5.0487   -9.5399 C   0  0  0  0  0  0  0  0  0  0  0  0
   13.0663   -5.6112   -8.6850 C   0  0  0  0  0  0  0  0  0  0  0  0
   13.0112   -6.7833   -8.3057 O   0  0  0  0  0  0  0  0  0  0  0  0
   16.7569   -4.0055  -10.4716 C   0  0  0  0  0  0  0  0  0  0  0  0
   16.0450   -2.8677  -10.7232 O   0  0  0  0  0  0  0  0  0  0  0  0
   12.0182   -4.7746   -8.2355 O   0  0  0  0  0  0  0  0  0  0  0  0
   17.8691   -3.8968   -9.9045 O   0  0  0  0  0  0  0  0  0  0  0  0
  2  7  1  0
  2  1  1  1
  3  2  1  0
  4  3  1  0
  5  6  2  0
  5  4  1  0
  7  8  2  0
  9  5  1  0
 11 10  1  0
 12 14  1  0
 12 11  1  0
 12 13  1  6
 14 15  1  6
 15  7  1  0
 16 17  2  0
 16 14  1  0
 18 16  1  0
 19 24  1  0
 19 18  1  0
 19 20  1  1
 21 22  1  0
 21 20  1  0
 22 26  1  0
 23 22  2  0
 24 25  1  0
 27 24  2  0
M  END
$$$$
