EIE.pdb
     RDKit          3D

 27 26  0  0  1  0  0  0  0  0999 V2000
   18.5111  -13.2037  -18.0051 N   0  0  0  0  0  0  0  0  0  0  0  0
   19.3000  -12.0803  -18.4682 C   0  0  1  0  0  0  0  0  0  0  0  0
   18.4153  -11.0353  -19.1583 C   0  0  0  0  0  0  0  0  0  0  0  0
   17.8868  -11.6350  -20.4578 C   0  0  0  0  0  0  0  0  0  0  0  0
   18.8295  -11.3732  -21.5482 C   0  0  0  0  0  0  0  0  0  0  0  0
   19.6225  -10.4088  -21.5563 O   0  0  0  0  0  0  0  0  0  0  0  0
   20.0095  -11.4693  -17.3278 C   0  0  0  0  0  0  0  0  0  0  0  0
   19.4009  -11.3845  -16.2071 O   0  0  0  0  0  0  0  0  0  0  0  0
   18.8507  -12.2335  -22.6272 O   0  0  0  0  0  0  0  0  0  0  0  0
   22.9851  -12.8655  -14.6786 C   0  0  0  0  0  0  0  0  0  0  0  0
   23.4573  -12.3992  -16.0704 C   0  0  0  0  0  0  0  0  0  0  0  0
   23.3287  -10.9095  -16.1958 C   0  0  2  0  0  0  0  0  0  0  0  0
   24.3040  -10.2011  -15.2493 C   0  0  0  0  0  0  0  0  0  0  0  0
   22.0171  -10.3150  -16.3259 C   0  0  2  0  0  0  0  0  0  0  0  0
   21.3294  -10.9748  -17.4439 N   0  0  0  0  0  0  0  0  0  0  0  0
   21.7330   -8.9058  -16.2975 C   0  0  0  0  0  0  0  0  0  0  0  0
   22.1205   -8.2237  -17.3337 O   0  0  0  0  0  0  0  0  0  0  0  0
   21.0964   -8.1159  -15.3353 N   0  0  0  0  0  0  0  0  0  0  0  0
   21.0055   -6.6574  -15.4077 C   0  0  1  0  0  0  0  0  0  0  0  0
   19.7062   -6.2229  -16.0045 C   0  0  0  0  0  0  0  0  0  0  0  0
   19.4666   -4.7702  -16.1137 C   0  0  0  0  0  0  0  0  0  0  0  0
   18.1803   -4.3162  -16.6226 C   0  0  0  0  0  0  0  0  0  0  0  0
   17.2675   -5.0478  -17.0129 O   0  0  0  0  0  0  0  0  0  0  0  0
   21.4779   -5.9473  -14.2343 C   0  0  0  0  0  0  0  0  0  0  0  0
   21.8985   -4.6497  -14.2982 O   0  0  0  0  0  0  0  0  0  0  0  0
   17.9216   -2.9275  -16.6930 O   0  0  0  0  0  0  0  0  0  0  0  0
   21.5083   -6.5273  -13.1238 O   0  0  0  0  0  0  0  0  0  0  0  0
  2  7  1  0
  2  1  1  1
  3  2  1  0
  4  3  1  0
  5  6  2  0
  5  4  1  0
  7  8  2  0
  9  5  1  0
 11 10  1  0
 12 14  1  0
 12 11  1  0
 12 13  1  1
 14 15  1  6
 15  7  1  0
 16 17  2  0
 16 14  1  0
 18 16  1  0
 19 24  1  0
 19 18  1  0
 19 20  1  1
 21 22  1  0
 21 20  1  0
 22 26  1  0
 23 22  2  0
 24 25  1  0
 27 24  2  0
M  END
$$$$
