EIE.pdb
     RDKit          3D

 27 26  0  0  1  0  0  0  0  0999 V2000
   20.8721  -20.4208  -12.4863 N   0  0  0  0  0  0  0  0  0  0  0  0
   21.8387  -21.3700  -12.9997 C   0  0  1  0  0  0  0  0  0  0  0  0
   21.3734  -21.9588  -14.3367 C   0  0  0  0  0  0  0  0  0  0  0  0
   20.2281  -22.9289  -14.0627 C   0  0  0  0  0  0  0  0  0  0  0  0
   19.0367  -22.1884  -13.6404 C   0  0  0  0  0  0  0  0  0  0  0  0
   18.5402  -22.2763  -12.4981 O   0  0  0  0  0  0  0  0  0  0  0  0
   23.1454  -20.7053  -13.1666 C   0  0  0  0  0  0  0  0  0  0  0  0
   23.1625  -19.4644  -13.4721 O   0  0  0  0  0  0  0  0  0  0  0  0
   18.4247  -21.3452  -14.5455 O   0  0  0  0  0  0  0  0  0  0  0  0
   25.7906  -21.4210   -9.5148 C   0  0  0  0  0  0  0  0  0  0  0  0
   25.7971  -20.3462  -10.6203 C   0  0  0  0  0  0  0  0  0  0  0  0
   26.3808  -20.9001  -11.8868 C   0  0  2  0  0  0  0  0  0  0  0  0
   27.8944  -20.6640  -11.9330 C   0  0  0  0  0  0  0  0  0  0  0  0
   25.6684  -20.7325  -13.1338 C   0  0  2  0  0  0  0  0  0  0  0  0
   24.3663  -21.4007  -13.0051 N   0  0  0  0  0  0  0  0  0  0  0  0
   26.2253  -20.9239  -14.4454 C   0  0  0  0  0  0  0  0  0  0  0  0
   26.3221  -22.1549  -14.8511 O   0  0  0  0  0  0  0  0  0  0  0  0
   26.6904  -20.0035  -15.3896 N   0  0  0  0  0  0  0  0  0  0  0  0
   26.6213  -20.2134  -16.8360 C   0  0  1  0  0  0  0  0  0  0  0  0
   26.1108  -21.5792  -17.1630 C   0  0  0  0  0  0  0  0  0  0  0  0
   25.8805  -21.8897  -18.5878 C   0  0  0  0  0  0  0  0  0  0  0  0
   26.3850  -23.1505  -19.1129 C   0  0  0  0  0  0  0  0  0  0  0  0
   25.7858  -24.2279  -19.0833 O   0  0  0  0  0  0  0  0  0  0  0  0
   26.0962  -19.0978  -17.6004 C   0  0  0  0  0  0  0  0  0  0  0  0
   26.8098  -18.5164  -18.6091 O   0  0  0  0  0  0  0  0  0  0  0  0
   27.6665  -23.1812  -19.7106 O   0  0  0  0  0  0  0  0  0  0  0  0
   24.9582  -18.6428  -17.3392 O   0  0  0  0  0  0  0  0  0  0  0  0
  2  7  1  0
  2  1  1  6
  3  2  1  0
  4  3  1  0
  5  6  2  0
  5  4  1  0
  7  8  2  0
  9  5  1  0
 11 10  1  0
 12 14  1  0
 12 11  1  0
 12 13  1  6
 14 15  1  1
 15  7  1  0
 16 17  2  0
 16 14  1  0
 18 16  1  0
 19 24  1  0
 19 18  1  0
 19 20  1  1
 21 22  1  0
 21 20  1  0
 22 26  1  0
 23 22  2  0
 24 25  1  0
 27 24  2  0
M  END
$$$$
