EIE.pdb
     RDKit          3D

 27 26  0  0  1  0  0  0  0  0999 V2000
   17.4208  -11.5918  -16.4309 N   0  0  0  0  0  0  0  0  0  0  0  0
   18.2707  -10.5504  -16.9713 C   0  0  1  0  0  0  0  0  0  0  0  0
   17.4338   -9.3916  -17.5262 C   0  0  0  0  0  0  0  0  0  0  0  0
   16.6361   -9.9034  -18.7218 C   0  0  0  0  0  0  0  0  0  0  0  0
   15.8252   -8.8195  -19.2819 C   0  0  0  0  0  0  0  0  0  0  0  0
   15.8053   -7.6620  -18.8142 O   0  0  0  0  0  0  0  0  0  0  0  0
   19.1818  -10.0588  -15.9200 C   0  0  0  0  0  0  0  0  0  0  0  0
   18.7233   -9.9153  -14.7356 O   0  0  0  0  0  0  0  0  0  0  0  0
   15.0397   -9.0817  -20.3859 O   0  0  0  0  0  0  0  0  0  0  0  0
   23.8841  -12.1047  -14.8865 C   0  0  0  0  0  0  0  0  0  0  0  0
   22.4928  -11.4407  -14.8555 C   0  0  0  0  0  0  0  0  0  0  0  0
   22.6109   -9.9644  -15.0962 C   0  0  2  0  0  0  0  0  0  0  0  0
   23.7794   -9.3780  -14.2964 C   0  0  0  0  0  0  0  0  0  0  0  0
   21.4147   -9.1553  -15.1685 C   0  0  2  0  0  0  0  0  0  0  0  0
   20.5333   -9.7399  -16.1882 N   0  0  0  0  0  0  0  0  0  0  0  0
   21.3802   -7.7186  -15.2111 C   0  0  0  0  0  0  0  0  0  0  0  0
   21.7051   -7.1724  -16.3448 O   0  0  0  0  0  0  0  0  0  0  0  0
   21.0490   -6.7778  -14.2310 N   0  0  0  0  0  0  0  0  0  0  0  0
   21.1561   -5.3310  -14.4202 C   0  0  1  0  0  0  0  0  0  0  0  0
   19.8115   -4.7066  -14.6081 C   0  0  0  0  0  0  0  0  0  0  0  0
   19.7595   -3.2345  -14.7071 C   0  0  0  0  0  0  0  0  0  0  0  0
   18.4583   -2.5939  -14.8344 C   0  0  0  0  0  0  0  0  0  0  0  0
   17.3729   -3.1787  -14.8566 O   0  0  0  0  0  0  0  0  0  0  0  0
   22.0936   -4.6580  -13.5412 C   0  0  0  0  0  0  0  0  0  0  0  0
   22.6283   -3.4411  -13.8542 O   0  0  0  0  0  0  0  0  0  0  0  0
   18.3949   -1.1855  -14.9476 O   0  0  0  0  0  0  0  0  0  0  0  0
   22.4333   -5.1959  -12.4615 O   0  0  0  0  0  0  0  0  0  0  0  0
  2  7  1  0
  2  1  1  1
  3  2  1  0
  4  3  1  0
  5  6  2  0
  5  4  1  0
  7  8  2  0
  9  5  1  0
 11 10  1  0
 12 14  1  0
 12 11  1  0
 12 13  1  1
 14 15  1  6
 15  7  1  0
 16 17  2  0
 16 14  1  0
 18 16  1  0
 19 24  1  0
 19 18  1  0
 19 20  1  1
 21 22  1  0
 21 20  1  0
 22 26  1  0
 23 22  2  0
 24 25  1  0
 27 24  2  0
M  END
$$$$
