EIE.pdb
     RDKit          3D

 27 26  0  0  1  0  0  0  0  0999 V2000
   13.6245  -11.8882  -12.6117 N   0  0  0  0  0  0  0  0  0  0  0  0
   14.9392  -11.4085  -12.2369 C   0  0  1  0  0  0  0  0  0  0  0  0
   15.9227  -11.5317  -13.4067 C   0  0  0  0  0  0  0  0  0  0  0  0
   16.1166  -13.0125  -13.7185 C   0  0  0  0  0  0  0  0  0  0  0  0
   17.0806  -13.1709  -14.8101 C   0  0  0  0  0  0  0  0  0  0  0  0
   16.8699  -12.7801  -15.9771 O   0  0  0  0  0  0  0  0  0  0  0  0
   14.8474  -10.0026  -11.7986 C   0  0  0  0  0  0  0  0  0  0  0  0
   14.1207   -9.1996  -12.4774 O   0  0  0  0  0  0  0  0  0  0  0  0
   18.2892  -13.7818  -14.5439 O   0  0  0  0  0  0  0  0  0  0  0  0
   12.5210   -8.4316   -7.7107 C   0  0  0  0  0  0  0  0  0  0  0  0
   13.1759   -8.4903   -9.1054 C   0  0  0  0  0  0  0  0  0  0  0  0
   14.6227   -8.1013   -9.0221 C   0  0  2  0  0  0  0  0  0  0  0  0
   14.8042   -6.8878   -8.1038 C   0  0  0  0  0  0  0  0  0  0  0  0
   15.4388   -8.1289  -10.2153 C   0  0  2  0  0  0  0  0  0  0  0  0
   15.5408   -9.5247  -10.6623 N   0  0  0  0  0  0  0  0  0  0  0  0
   16.6846   -7.4329  -10.3908 C   0  0  0  0  0  0  0  0  0  0  0  0
   17.6658   -7.8168   -9.6299 O   0  0  0  0  0  0  0  0  0  0  0  0
   17.0431   -6.3940  -11.2552 N   0  0  0  0  0  0  0  0  0  0  0  0
   18.2991   -5.6497  -11.1590 C   0  0  1  0  0  0  0  0  0  0  0  0
   19.2808   -6.1051  -12.1894 C   0  0  0  0  0  0  0  0  0  0  0  0
   20.5820   -5.4091  -12.2351 C   0  0  0  0  0  0  0  0  0  0  0  0
   21.5354   -5.7890  -13.2679 C   0  0  0  0  0  0  0  0  0  0  0  0
   21.5543   -6.8705  -13.8601 O   0  0  0  0  0  0  0  0  0  0  0  0
   18.1592   -4.2213  -10.9475 C   0  0  0  0  0  0  0  0  0  0  0  0
   19.1137   -3.4924  -10.2976 O   0  0  0  0  0  0  0  0  0  0  0  0
   22.5395   -4.8680  -13.6471 O   0  0  0  0  0  0  0  0  0  0  0  0
   17.1394   -3.6253  -11.3659 O   0  0  0  0  0  0  0  0  0  0  0  0
  2  7  1  0
  2  1  1  6
  3  2  1  0
  4  3  1  0
  5  6  2  0
  5  4  1  0
  7  8  2  0
  9  5  1  0
 11 10  1  0
 12 14  1  0
 12 11  1  0
 12 13  1  6
 14 15  1  1
 15  7  1  0
 16 17  2  0
 16 14  1  0
 18 16  1  0
 19 24  1  0
 19 18  1  0
 19 20  1  6
 21 22  1  0
 21 20  1  0
 22 26  1  0
 23 22  2  0
 24 25  1  0
 27 24  2  0
M  END
$$$$
