EIE.pdb
     RDKit          3D

 27 26  0  0  1  0  0  0  0  0999 V2000
   22.1673  -13.8548  -18.2572 N   0  0  0  0  0  0  0  0  0  0  0  0
   22.2158  -12.4415  -18.5720 C   0  0  1  0  0  0  0  0  0  0  0  0
   20.8540  -11.9428  -19.0697 C   0  0  0  0  0  0  0  0  0  0  0  0
   20.5663  -12.5950  -20.4186 C   0  0  0  0  0  0  0  0  0  0  0  0
   19.3166  -12.0676  -20.9719 C   0  0  0  0  0  0  0  0  0  0  0  0
   19.2012  -10.9138  -21.4349 O   0  0  0  0  0  0  0  0  0  0  0  0
   22.6270  -11.6813  -17.3762 C   0  0  0  0  0  0  0  0  0  0  0  0
   22.0020  -11.8857  -16.2802 O   0  0  0  0  0  0  0  0  0  0  0  0
   18.2027  -12.8823  -20.9880 O   0  0  0  0  0  0  0  0  0  0  0  0
   27.4727  -11.5080  -15.5337 C   0  0  0  0  0  0  0  0  0  0  0  0
   25.9422  -11.5169  -15.7212 C   0  0  0  0  0  0  0  0  0  0  0  0
   25.4355  -10.1255  -15.9630 C   0  0  2  0  0  0  0  0  0  0  0  0
   26.0853   -9.1365  -14.9890 C   0  0  0  0  0  0  0  0  0  0  0  0
   24.0334   -9.9162  -16.2475 C   0  0  2  0  0  0  0  0  0  0  0  0
   23.6799  -10.7377  -17.4131 N   0  0  0  0  0  0  0  0  0  0  0  0
   23.3715   -8.6405  -16.2887 C   0  0  0  0  0  0  0  0  0  0  0  0
   23.5502   -7.9385  -17.3679 O   0  0  0  0  0  0  0  0  0  0  0  0
   22.5467   -8.0025  -15.3571 N   0  0  0  0  0  0  0  0  0  0  0  0
   21.9626   -6.6762  -15.5584 C   0  0  1  0  0  0  0  0  0  0  0  0
   20.4796   -6.7552  -15.7243 C   0  0  0  0  0  0  0  0  0  0  0  0
   19.7509   -5.4819  -15.8903 C   0  0  0  0  0  0  0  0  0  0  0  0
   18.3060   -5.5277  -16.0628 C   0  0  0  0  0  0  0  0  0  0  0  0
   17.6189   -6.5517  -16.0686 O   0  0  0  0  0  0  0  0  0  0  0  0
   22.4893   -5.6299  -14.7027 C   0  0  0  0  0  0  0  0  0  0  0  0
   22.4675   -4.3162  -15.0744 O   0  0  0  0  0  0  0  0  0  0  0  0
   17.5980   -4.3169  -16.2449 O   0  0  0  0  0  0  0  0  0  0  0  0
   22.9825   -5.9238  -13.5888 O   0  0  0  0  0  0  0  0  0  0  0  0
  2  7  1  0
  2  1  1  1
  3  2  1  0
  4  3  1  0
  5  6  2  0
  5  4  1  0
  7  8  2  0
  9  5  1  0
 11 10  1  0
 12 14  1  0
 12 11  1  0
 12 13  1  1
 14 15  1  6
 15  7  1  0
 16 17  2  0
 16 14  1  0
 18 16  1  0
 19 24  1  0
 19 18  1  0
 19 20  1  1
 21 22  1  0
 21 20  1  0
 22 26  1  0
 23 22  2  0
 24 25  1  0
 27 24  2  0
M  END
$$$$
