EIE.pdb
     RDKit          3D

 27 26  0  0  1  0  0  0  0  0999 V2000
   19.3131  -13.1051  -16.1768 N   0  0  0  0  0  0  0  0  0  0  0  0
   19.6937  -11.8858  -16.8604 C   0  0  1  0  0  0  0  0  0  0  0  0
   18.4567  -11.0941  -17.3007 C   0  0  0  0  0  0  0  0  0  0  0  0
   17.7658  -11.8649  -18.4215 C   0  0  0  0  0  0  0  0  0  0  0  0
   18.1958  -11.3468  -19.7226 C   0  0  0  0  0  0  0  0  0  0  0  0
   18.8543  -12.0151  -20.5464 O   0  0  0  0  0  0  0  0  0  0  0  0
   20.5329  -11.0602  -15.9707 C   0  0  0  0  0  0  0  0  0  0  0  0
   20.1071  -10.8098  -14.7919 O   0  0  0  0  0  0  0  0  0  0  0  0
   17.8585  -10.0532  -20.0654 O   0  0  0  0  0  0  0  0  0  0  0  0
   24.9879  -12.4249  -16.1302 C   0  0  0  0  0  0  0  0  0  0  0  0
   24.1802  -11.6517  -15.0686 C   0  0  0  0  0  0  0  0  0  0  0  0
   23.9490  -10.2373  -15.5130 C   0  0  2  0  0  0  0  0  0  0  0  0
   25.0508   -9.3157  -14.9786 C   0  0  0  0  0  0  0  0  0  0  0  0
   22.6071   -9.6989  -15.5107 C   0  0  2  0  0  0  0  0  0  0  0  0
   21.7802  -10.5394  -16.3871 N   0  0  0  0  0  0  0  0  0  0  0  0
   22.2651   -8.3090  -15.6469 C   0  0  0  0  0  0  0  0  0  0  0  0
   22.4403   -7.7903  -16.8256 O   0  0  0  0  0  0  0  0  0  0  0  0
   21.7624   -7.3912  -14.7196 N   0  0  0  0  0  0  0  0  0  0  0  0
   21.4981   -5.9849  -15.0251 C   0  0  1  0  0  0  0  0  0  0  0  0
   20.0316   -5.7185  -15.1318 C   0  0  0  0  0  0  0  0  0  0  0  0
   19.6149   -4.3201  -15.3564 C   0  0  0  0  0  0  0  0  0  0  0  0
   18.1915   -4.0262  -15.4424 C   0  0  0  0  0  0  0  0  0  0  0  0
   17.3801   -4.6239  -16.1531 O   0  0  0  0  0  0  0  0  0  0  0  0
   22.3042   -5.0283  -14.2906 C   0  0  0  0  0  0  0  0  0  0  0  0
   22.5993   -3.7953  -14.7977 O   0  0  0  0  0  0  0  0  0  0  0  0
   17.6600   -2.9723  -14.6632 O   0  0  0  0  0  0  0  0  0  0  0  0
   22.7507   -5.3272  -13.1585 O   0  0  0  0  0  0  0  0  0  0  0  0
  2  7  1  0
  2  1  1  1
  3  2  1  0
  4  3  1  0
  5  6  2  0
  5  4  1  0
  7  8  2  0
  9  5  1  0
 11 10  1  0
 12 14  1  0
 12 11  1  0
 12 13  1  1
 14 15  1  6
 15  7  1  0
 16 17  2  0
 16 14  1  0
 18 16  1  0
 19 24  1  0
 19 18  1  0
 19 20  1  1
 21 22  1  0
 21 20  1  0
 22 26  1  0
 23 22  2  0
 24 25  1  0
 27 24  2  0
M  END
$$$$
