EIE.pdb
     RDKit          3D

 27 26  0  0  1  0  0  0  0  0999 V2000
   21.7363  -12.7700  -20.0841 N   0  0  0  0  0  0  0  0  0  0  0  0
   22.4911  -11.5548  -19.8549 C   0  0  1  0  0  0  0  0  0  0  0  0
   21.8741  -10.3739  -20.6135 C   0  0  0  0  0  0  0  0  0  0  0  0
   21.9353  -10.6768  -22.1076 C   0  0  0  0  0  0  0  0  0  0  0  0
   22.0080   -9.4267  -22.8679 C   0  0  0  0  0  0  0  0  0  0  0  0
   23.0738   -8.9527  -23.3134 O   0  0  0  0  0  0  0  0  0  0  0  0
   22.5322  -11.2621  -18.4094 C   0  0  0  0  0  0  0  0  0  0  0  0
   21.5037  -11.5389  -17.7028 O   0  0  0  0  0  0  0  0  0  0  0  0
   20.8419   -8.7297  -23.1111 O   0  0  0  0  0  0  0  0  0  0  0  0
   27.1007  -11.9643  -15.5639 C   0  0  0  0  0  0  0  0  0  0  0  0
   25.6709  -11.9328  -16.1402 C   0  0  0  0  0  0  0  0  0  0  0  0
   25.0250  -10.6060  -15.8681 C   0  0  2  0  0  0  0  0  0  0  0  0
   25.3181  -10.1456  -14.4360 C   0  0  0  0  0  0  0  0  0  0  0  0
   23.6917  -10.3465  -16.3638 C   0  0  2  0  0  0  0  0  0  0  0  0
   23.6663  -10.6833  -17.7935 N   0  0  0  0  0  0  0  0  0  0  0  0
   22.9150   -9.1675  -16.0919 C   0  0  0  0  0  0  0  0  0  0  0  0
   23.3576   -8.0599  -16.6082 O   0  0  0  0  0  0  0  0  0  0  0  0
   21.7383   -8.9913  -15.3574 N   0  0  0  0  0  0  0  0  0  0  0  0
   21.1159   -7.6897  -15.1143 C   0  0  1  0  0  0  0  0  0  0  0  0
   20.2047   -7.3054  -16.2346 C   0  0  0  0  0  0  0  0  0  0  0  0
   19.5058   -6.0099  -16.1210 C   0  0  0  0  0  0  0  0  0  0  0  0
   18.0513   -5.9991  -16.1855 C   0  0  0  0  0  0  0  0  0  0  0  0
   17.3445   -6.9461  -16.5381 O   0  0  0  0  0  0  0  0  0  0  0  0
   20.6464   -7.4699  -13.7594 C   0  0  0  0  0  0  0  0  0  0  0  0
   20.3500   -6.2210  -13.2934 O   0  0  0  0  0  0  0  0  0  0  0  0
   17.3571   -4.8210  -15.8243 O   0  0  0  0  0  0  0  0  0  0  0  0
   20.5050   -8.4427  -12.9822 O   0  0  0  0  0  0  0  0  0  0  0  0
  2  7  1  0
  2  1  1  1
  3  2  1  0
  4  3  1  0
  5  6  2  0
  5  4  1  0
  7  8  2  0
  9  5  1  0
 11 10  1  0
 12 14  1  0
 12 11  1  0
 12 13  1  1
 14 15  1  6
 15  7  1  0
 16 17  2  0
 16 14  1  0
 18 16  1  0
 19 24  1  0
 19 18  1  0
 19 20  1  6
 21 22  1  0
 21 20  1  0
 22 26  1  0
 23 22  2  0
 24 25  1  0
 27 24  2  0
M  END
$$$$
