EIE.pdb
     RDKit          3D

 27 26  0  0  1  0  0  0  0  0999 V2000
   17.8506  -11.4736  -17.7320 N   0  0  0  0  0  0  0  0  0  0  0  0
   19.0334  -10.7985  -18.2259 C   0  0  1  0  0  0  0  0  0  0  0  0
   18.6563   -9.6439  -19.1616 C   0  0  0  0  0  0  0  0  0  0  0  0
   17.6562   -8.7462  -18.4393 C   0  0  0  0  0  0  0  0  0  0  0  0
   16.8068   -8.0587  -19.4150 C   0  0  0  0  0  0  0  0  0  0  0  0
   15.5660   -7.9713  -19.3072 O   0  0  0  0  0  0  0  0  0  0  0  0
   19.8255  -10.2909  -17.0892 C   0  0  0  0  0  0  0  0  0  0  0  0
   19.2249  -10.0553  -15.9859 O   0  0  0  0  0  0  0  0  0  0  0  0
   17.4007   -7.4722  -20.5141 O   0  0  0  0  0  0  0  0  0  0  0  0
   24.0331  -10.4286  -13.5639 C   0  0  0  0  0  0  0  0  0  0  0  0
   24.2614   -9.8476  -14.9738 C   0  0  0  0  0  0  0  0  0  0  0  0
   23.1805  -10.3027  -15.9099 C   0  0  2  0  0  0  0  0  0  0  0  0
   23.7857  -10.8957  -17.1870 C   0  0  0  0  0  0  0  0  0  0  0  0
   21.9955   -9.4918  -16.0797 C   0  0  2  0  0  0  0  0  0  0  0  0
   21.2163  -10.0551  -17.1904 N   0  0  0  0  0  0  0  0  0  0  0  0
   21.9632   -8.0544  -16.0962 C   0  0  0  0  0  0  0  0  0  0  0  0
   22.2629   -7.4891  -17.2275 O   0  0  0  0  0  0  0  0  0  0  0  0
   21.6568   -7.1305  -15.0925 N   0  0  0  0  0  0  0  0  0  0  0  0
   21.7334   -5.6800  -15.2683 C   0  0  1  0  0  0  0  0  0  0  0  0
   20.4478   -5.1277  -15.7929 C   0  0  0  0  0  0  0  0  0  0  0  0
   20.3588   -3.6627  -15.9531 C   0  0  0  0  0  0  0  0  0  0  0  0
   19.1234   -3.0964  -16.4756 C   0  0  0  0  0  0  0  0  0  0  0  0
   18.1489   -3.7440  -16.8649 O   0  0  0  0  0  0  0  0  0  0  0  0
   22.3868   -4.9583  -14.1928 C   0  0  0  0  0  0  0  0  0  0  0  0
   23.0188   -3.7666  -14.4048 O   0  0  0  0  0  0  0  0  0  0  0  0
   18.9957   -1.6905  -16.5619 O   0  0  0  0  0  0  0  0  0  0  0  0
   22.3810   -5.4290  -13.0315 O   0  0  0  0  0  0  0  0  0  0  0  0
  2  7  1  0
  2  1  1  1
  3  2  1  0
  4  3  1  0
  5  6  2  0
  5  4  1  0
  7  8  2  0
  9  5  1  0
 11 10  1  0
 12 14  1  0
 12 11  1  0
 12 13  1  6
 14 15  1  6
 15  7  1  0
 16 17  2  0
 16 14  1  0
 18 16  1  0
 19 24  1  0
 19 18  1  0
 19 20  1  1
 21 22  1  0
 21 20  1  0
 22 26  1  0
 23 22  2  0
 24 25  1  0
 27 24  2  0
M  END
$$$$
