EIE.pdb
     RDKit          3D

 27 26  0  0  1  0  0  0  0  0999 V2000
   21.1820  -12.5052  -19.0987 N   0  0  0  0  0  0  0  0  0  0  0  0
   22.0259  -11.3347  -19.2283 C   0  0  1  0  0  0  0  0  0  0  0  0
   21.3425  -10.2564  -20.0774 C   0  0  0  0  0  0  0  0  0  0  0  0
   21.0961  -10.8258  -21.4712 C   0  0  0  0  0  0  0  0  0  0  0  0
   21.0370   -9.7386  -22.4514 C   0  0  0  0  0  0  0  0  0  0  0  0
   21.6236   -8.6462  -22.3045 O   0  0  0  0  0  0  0  0  0  0  0  0
   22.3412  -10.8005  -17.8895 C   0  0  0  0  0  0  0  0  0  0  0  0
   21.5128  -11.0114  -16.9394 O   0  0  0  0  0  0  0  0  0  0  0  0
   20.2974   -9.9229  -23.6020 O   0  0  0  0  0  0  0  0  0  0  0  0
   26.9272  -11.6513  -15.5380 C   0  0  0  0  0  0  0  0  0  0  0  0
   25.4497  -11.4159  -15.9110 C   0  0  0  0  0  0  0  0  0  0  0  0
   25.1397   -9.9478  -15.9246 C   0  0  2  0  0  0  0  0  0  0  0  0
   25.7624   -9.2525  -14.7089 C   0  0  0  0  0  0  0  0  0  0  0  0
   23.8203   -9.5007  -16.3116 C   0  0  2  0  0  0  0  0  0  0  0  0
   23.5213  -10.0636  -17.6353 N   0  0  0  0  0  0  0  0  0  0  0  0
   23.3269   -8.1554  -16.1935 C   0  0  0  0  0  0  0  0  0  0  0  0
   23.9255   -7.2611  -16.9224 O   0  0  0  0  0  0  0  0  0  0  0  0
   22.2919   -7.6206  -15.4203 N   0  0  0  0  0  0  0  0  0  0  0  0
   21.9452   -6.1995  -15.3924 C   0  0  1  0  0  0  0  0  0  0  0  0
   20.5263   -5.9781  -15.8056 C   0  0  0  0  0  0  0  0  0  0  0  0
   20.0133   -4.5953  -15.7417 C   0  0  0  0  0  0  0  0  0  0  0  0
   18.6034   -4.3653  -16.0229 C   0  0  0  0  0  0  0  0  0  0  0  0
   18.0330   -3.2733  -15.9703 O   0  0  0  0  0  0  0  0  0  0  0  0
   22.4334   -5.4642  -14.2412 C   0  0  0  0  0  0  0  0  0  0  0  0
   22.7858   -4.1475  -14.3237 O   0  0  0  0  0  0  0  0  0  0  0  0
   17.7883   -5.4625  -16.3865 O   0  0  0  0  0  0  0  0  0  0  0  0
   22.5417   -6.0395  -13.1332 O   0  0  0  0  0  0  0  0  0  0  0  0
  2  7  1  0
  2  1  1  1
  3  2  1  0
  4  3  1  0
  5  6  2  0
  5  4  1  0
  7  8  2  0
  9  5  1  0
 11 10  1  0
 12 14  1  0
 12 11  1  0
 12 13  1  1
 14 15  1  6
 15  7  1  0
 16 17  2  0
 16 14  1  0
 18 16  1  0
 19 24  1  0
 19 18  1  0
 19 20  1  1
 21 22  1  0
 21 20  1  0
 22 26  1  0
 23 22  2  0
 24 25  1  0
 27 24  2  0
M  END
$$$$
