EIE.pdb
     RDKit          3D

 27 26  0  0  1  0  0  0  0  0999 V2000
   21.1467  -18.1188  -14.9398 N   0  0  0  0  0  0  0  0  0  0  0  0
   21.5889  -17.3688  -16.0978 C   0  0  1  0  0  0  0  0  0  0  0  0
   20.3993  -16.9625  -16.9758 C   0  0  0  0  0  0  0  0  0  0  0  0
   19.3874  -16.2252  -16.1041 C   0  0  0  0  0  0  0  0  0  0  0  0
   18.1898  -15.9103  -16.8868 C   0  0  0  0  0  0  0  0  0  0  0  0
   17.2324  -15.2433  -16.4424 O   0  0  0  0  0  0  0  0  0  0  0  0
   22.3271  -16.1690  -15.6588 C   0  0  0  0  0  0  0  0  0  0  0  0
   21.9743  -15.6020  -14.5691 O   0  0  0  0  0  0  0  0  0  0  0  0
   18.1069  -16.3695  -18.1856 O   0  0  0  0  0  0  0  0  0  0  0  0
   26.4213  -15.7453  -14.1395 C   0  0  0  0  0  0  0  0  0  0  0  0
   26.2126  -15.9005  -15.6594 C   0  0  0  0  0  0  0  0  0  0  0  0
   25.5485  -14.6796  -16.2249 C   0  0  2  0  0  0  0  0  0  0  0  0
   26.4710  -13.4609  -16.1116 C   0  0  0  0  0  0  0  0  0  0  0  0
   24.1451  -14.4464  -15.9665 C   0  0  2  0  0  0  0  0  0  0  0  0
   23.3998  -15.6328  -16.4086 N   0  0  0  0  0  0  0  0  0  0  0  0
   23.4298  -13.2373  -16.2725 C   0  0  0  0  0  0  0  0  0  0  0  0
   22.9349  -13.1539  -17.4714 O   0  0  0  0  0  0  0  0  0  0  0  0
   23.1596  -12.1074  -15.4944 N   0  0  0  0  0  0  0  0  0  0  0  0
   22.4655  -10.9202  -15.9938 C   0  0  1  0  0  0  0  0  0  0  0  0
   22.0772  -10.0075  -14.8761 C   0  0  0  0  0  0  0  0  0  0  0  0
   21.5061   -8.6966  -15.2435 C   0  0  0  0  0  0  0  0  0  0  0  0
   21.1332   -7.7792  -14.1762 C   0  0  0  0  0  0  0  0  0  0  0  0
   21.2050   -8.0204  -12.9689 O   0  0  0  0  0  0  0  0  0  0  0  0
   23.0392  -10.3208  -17.1837 C   0  0  0  0  0  0  0  0  0  0  0  0
   22.2677   -9.9528  -18.2486 O   0  0  0  0  0  0  0  0  0  0  0  0
   20.6406   -6.4972  -14.5140 O   0  0  0  0  0  0  0  0  0  0  0  0
   24.2759  -10.1299  -17.2523 O   0  0  0  0  0  0  0  0  0  0  0  0
  2  7  1  0
  2  1  1  1
  3  2  1  0
  4  3  1  0
  5  6  2  0
  5  4  1  0
  7  8  2  0
  9  5  1  0
 11 10  1  0
 12 14  1  0
 12 11  1  0
 12 13  1  1
 14 15  1  6
 15  7  1  0
 16 17  2  0
 16 14  1  0
 18 16  1  0
 19 24  1  0
 19 18  1  0
 19 20  1  1
 21 22  1  0
 21 20  1  0
 22 26  1  0
 23 22  2  0
 24 25  1  0
 27 24  2  0
M  END
$$$$
