EIE.pdb
     RDKit          3D

 27 26  0  0  1  0  0  0  0  0999 V2000
   26.1151  -20.7929  -11.2655 N   0  0  0  0  0  0  0  0  0  0  0  0
   25.4390  -20.6338  -12.5369 C   0  0  1  0  0  0  0  0  0  0  0  0
   23.9166  -20.6605  -12.3563 C   0  0  0  0  0  0  0  0  0  0  0  0
   23.5223  -22.0237  -11.7961 C   0  0  0  0  0  0  0  0  0  0  0  0
   22.0633  -22.1260  -11.7123 C   0  0  0  0  0  0  0  0  0  0  0  0
   21.3505  -22.5768  -12.6330 O   0  0  0  0  0  0  0  0  0  0  0  0
   25.8523  -19.3630  -13.1625 C   0  0  0  0  0  0  0  0  0  0  0  0
   26.0387  -18.3466  -12.4102 O   0  0  0  0  0  0  0  0  0  0  0  0
   21.4345  -21.7060  -10.5578 O   0  0  0  0  0  0  0  0  0  0  0  0
   27.8137  -15.2727  -15.7137 C   0  0  0  0  0  0  0  0  0  0  0  0
   27.6616  -16.5174  -16.6111 C   0  0  0  0  0  0  0  0  0  0  0  0
   27.3816  -17.7335  -15.7779 C   0  0  2  0  0  0  0  0  0  0  0  0
   28.0648  -18.9679  -16.3765 C   0  0  0  0  0  0  0  0  0  0  0  0
   26.0576  -17.9356  -15.2331 C   0  0  2  0  0  0  0  0  0  0  0  0
   26.0395  -19.2408  -14.5590 N   0  0  0  0  0  0  0  0  0  0  0  0
   24.8228  -17.6903  -15.9276 C   0  0  0  0  0  0  0  0  0  0  0  0
   24.6475  -16.4815  -16.3719 O   0  0  0  0  0  0  0  0  0  0  0  0
   23.7503  -18.5375  -16.2228 N   0  0  0  0  0  0  0  0  0  0  0  0
   22.5268  -18.1003  -16.8955 C   0  0  1  0  0  0  0  0  0  0  0  0
   22.2442  -18.9325  -18.1040 C   0  0  0  0  0  0  0  0  0  0  0  0
   23.2587  -18.9301  -19.1766 C   0  0  0  0  0  0  0  0  0  0  0  0
   23.0038  -19.7188  -20.3736 C   0  0  0  0  0  0  0  0  0  0  0  0
   22.9599  -19.2776  -21.5243 O   0  0  0  0  0  0  0  0  0  0  0  0
   21.4144  -17.7878  -16.0184 C   0  0  0  0  0  0  0  0  0  0  0  0
   21.3609  -18.2435  -14.7323 O   0  0  0  0  0  0  0  0  0  0  0  0
   22.7802  -21.1094  -20.2444 O   0  0  0  0  0  0  0  0  0  0  0  0
   20.4676  -17.0822  -16.4382 O   0  0  0  0  0  0  0  0  0  0  0  0
  2  7  1  0
  2  1  1  1
  3  2  1  0
  4  3  1  0
  5  6  2  0
  5  4  1  0
  7  8  2  0
  9  5  1  0
 11 10  1  0
 12 14  1  0
 12 11  1  0
 12 13  1  6
 14 15  1  6
 15  7  1  0
 16 17  2  0
 16 14  1  0
 18 16  1  0
 19 24  1  0
 19 18  1  0
 19 20  1  6
 21 22  1  0
 21 20  1  0
 22 26  1  0
 23 22  2  0
 24 25  1  0
 27 24  2  0
M  END
$$$$
