EIE.pdb
     RDKit          3D

 27 26  0  0  1  0  0  0  0  0999 V2000
   17.7651  -11.8587  -16.6154 N   0  0  0  0  0  0  0  0  0  0  0  0
   18.5046  -10.7553  -17.1938 C   0  0  1  0  0  0  0  0  0  0  0  0
   17.5545   -9.6677  -17.7090 C   0  0  0  0  0  0  0  0  0  0  0  0
   16.7762  -10.2305  -18.8943 C   0  0  0  0  0  0  0  0  0  0  0  0
   17.5297  -10.0181  -20.1326 C   0  0  0  0  0  0  0  0  0  0  0  0
   18.6977   -9.5779  -20.1610 O   0  0  0  0  0  0  0  0  0  0  0  0
   19.4214  -10.1903  -16.1852 C   0  0  0  0  0  0  0  0  0  0  0  0
   19.0061  -10.0747  -14.9820 O   0  0  0  0  0  0  0  0  0  0  0  0
   16.9254  -10.3192  -21.3363 O   0  0  0  0  0  0  0  0  0  0  0  0
   24.1112  -12.1683  -15.2733 C   0  0  0  0  0  0  0  0  0  0  0  0
   22.7179  -11.5077  -15.2718 C   0  0  0  0  0  0  0  0  0  0  0  0
   22.8391  -10.0277  -15.4873 C   0  0  2  0  0  0  0  0  0  0  0  0
   24.0329   -9.4640  -14.7089 C   0  0  0  0  0  0  0  0  0  0  0  0
   21.6467   -9.2102  -15.5111 C   0  0  2  0  0  0  0  0  0  0  0  0
   20.7319   -9.7722  -16.5139 N   0  0  0  0  0  0  0  0  0  0  0  0
   21.6206   -7.7727  -15.5290 C   0  0  0  0  0  0  0  0  0  0  0  0
   21.9135   -7.2099  -16.6633 O   0  0  0  0  0  0  0  0  0  0  0  0
   21.3266   -6.8463  -14.5237 N   0  0  0  0  0  0  0  0  0  0  0  0
   21.4040   -5.3963  -14.7030 C   0  0  1  0  0  0  0  0  0  0  0  0
   20.0456   -4.7961  -14.8690 C   0  0  0  0  0  0  0  0  0  0  0  0
   19.9646   -3.3244  -14.9545 C   0  0  0  0  0  0  0  0  0  0  0  0
   18.6511   -2.7086  -15.0782 C   0  0  0  0  0  0  0  0  0  0  0  0
   17.5809   -3.3166  -15.1524 O   0  0  0  0  0  0  0  0  0  0  0  0
   22.3400   -4.7124  -13.8308 C   0  0  0  0  0  0  0  0  0  0  0  0
   22.8948   -3.5116  -14.1695 O   0  0  0  0  0  0  0  0  0  0  0  0
   18.5560   -1.2982  -15.1233 O   0  0  0  0  0  0  0  0  0  0  0  0
   22.6593   -5.2255  -12.7330 O   0  0  0  0  0  0  0  0  0  0  0  0
  2  7  1  0
  2  1  1  1
  3  2  1  0
  4  3  1  0
  5  6  2  0
  5  4  1  0
  7  8  2  0
  9  5  1  0
 11 10  1  0
 12 14  1  0
 12 11  1  0
 12 13  1  1
 14 15  1  6
 15  7  1  0
 16 17  2  0
 16 14  1  0
 18 16  1  0
 19 24  1  0
 19 18  1  0
 19 20  1  1
 21 22  1  0
 21 20  1  0
 22 26  1  0
 23 22  2  0
 24 25  1  0
 27 24  2  0
M  END
$$$$
