EIE.pdb
     RDKit          3D

 27 26  0  0  1  0  0  0  0  0999 V2000
   22.7598  -12.0995  -19.7673 N   0  0  0  0  0  0  0  0  0  0  0  0
   21.7094  -12.0573  -18.7704 C   0  0  1  0  0  0  0  0  0  0  0  0
   21.3036  -13.4719  -18.3400 C   0  0  0  0  0  0  0  0  0  0  0  0
   21.8274  -14.4596  -19.3781 C   0  0  0  0  0  0  0  0  0  0  0  0
   21.3326  -15.8060  -19.0806 C   0  0  0  0  0  0  0  0  0  0  0  0
   20.5738  -16.0648  -18.1234 O   0  0  0  0  0  0  0  0  0  0  0  0
   22.1676  -11.2840  -17.6002 C   0  0  0  0  0  0  0  0  0  0  0  0
   21.3986  -11.2074  -16.5822 O   0  0  0  0  0  0  0  0  0  0  0  0
   21.7189  -16.8497  -19.8967 O   0  0  0  0  0  0  0  0  0  0  0  0
   27.3272  -11.5558  -16.0755 C   0  0  0  0  0  0  0  0  0  0  0  0
   25.7873  -11.5267  -16.1506 C   0  0  0  0  0  0  0  0  0  0  0  0
   25.2936  -10.1128  -16.2434 C   0  0  2  0  0  0  0  0  0  0  0  0
   26.0266   -9.2171  -15.2388 C   0  0  0  0  0  0  0  0  0  0  0  0
   23.8801   -9.8604  -16.4137 C   0  0  2  0  0  0  0  0  0  0  0  0
   23.4200  -10.6273  -17.5792 N   0  0  0  0  0  0  0  0  0  0  0  0
   23.2501   -8.5692  -16.3573 C   0  0  0  0  0  0  0  0  0  0  0  0
   23.4529   -7.7893  -17.3770 O   0  0  0  0  0  0  0  0  0  0  0  0
   22.4353   -7.9860  -15.3821 N   0  0  0  0  0  0  0  0  0  0  0  0
   21.9746   -6.5981  -15.4278 C   0  0  1  0  0  0  0  0  0  0  0  0
   20.5944   -6.5020  -15.9925 C   0  0  0  0  0  0  0  0  0  0  0  0
   20.0017   -5.1541  -16.0989 C   0  0  0  0  0  0  0  0  0  0  0  0
   18.6117   -5.0391  -16.5166 C   0  0  0  0  0  0  0  0  0  0  0  0
   17.7896   -4.2451  -16.0535 O   0  0  0  0  0  0  0  0  0  0  0  0
   22.2770   -5.8049  -14.2514 C   0  0  0  0  0  0  0  0  0  0  0  0
   22.4411   -6.3744  -13.0212 O   0  0  0  0  0  0  0  0  0  0  0  0
   18.1275   -5.8950  -17.5331 O   0  0  0  0  0  0  0  0  0  0  0  0
   22.3930   -4.5610  -14.3501 O   0  0  0  0  0  0  0  0  0  0  0  0
  2  7  1  0
  2  1  1  6
  3  2  1  0
  4  3  1  0
  5  6  2  0
  5  4  1  0
  7  8  2  0
  9  5  1  0
 11 10  1  0
 12 14  1  0
 12 11  1  0
 12 13  1  1
 14 15  1  6
 15  7  1  0
 16 17  2  0
 16 14  1  0
 18 16  1  0
 19 24  1  0
 19 18  1  0
 19 20  1  1
 21 22  1  0
 21 20  1  0
 22 26  1  0
 23 22  2  0
 24 25  1  0
 27 24  2  0
M  END
$$$$
