DQL.pdb
     RDKit          3D

 26 25  0  0  1  0  0  0  0  0999 V2000
    9.9379  -14.4994   18.5872 N   0  0  0  0  0  0  0  0  0  0  0  0
    8.7723  -13.8790   19.1890 C   0  0  1  0  0  0  0  0  0  0  0  0
    7.6027  -14.0591   18.2202 C   0  0  0  0  0  0  0  0  0  0  0  0
    8.0909  -14.0891   16.8175 C   0  0  0  0  0  0  0  0  0  0  0  0
    8.9370  -14.9501   16.4768 O   0  0  0  0  0  0  0  0  0  0  0  0
    8.4793  -14.6147   20.4446 C   0  0  0  0  0  0  0  0  0  0  0  0
    7.3704  -14.4330   20.9894 O   0  0  0  0  0  0  0  0  0  0  0  0
    7.6200  -13.1786   15.8931 O   0  0  0  0  0  0  0  0  0  0  0  0
   12.0056  -19.3428   22.9169 N   0  0  0  0  0  0  0  0  0  0  0  0
   10.8994  -19.2837   23.8290 C   0  0  0  0  0  0  0  0  0  0  0  0
   10.9098  -20.1279   24.7457 O   0  0  0  0  0  0  0  0  0  0  0  0
    9.8585  -18.2529   23.6191 C   0  0  0  0  0  0  0  0  0  0  0  0
   10.1574  -17.3873   22.4194 C   0  0  0  0  0  0  0  0  0  0  0  0
    9.1428  -16.3035   22.1911 C   0  0  2  0  0  0  0  0  0  0  0  0
    9.3915  -15.5000   21.0408 N   0  0  0  0  0  0  0  0  0  0  0  0
    9.2355  -15.3949   23.3863 C   0  0  0  0  0  0  0  0  0  0  0  0
   10.1300  -14.5252   23.3566 O   0  0  0  0  0  0  0  0  0  0  0  0
    8.1139  -11.3815   26.1439 C   0  0  0  0  0  0  0  0  0  0  0  0
    7.1123  -12.5382   26.4297 C   0  0  1  0  0  0  0  0  0  0  0  0
    5.7441  -11.8743   26.3712 C   0  0  0  0  0  0  0  0  0  0  0  0
    7.2715  -13.5844   25.3934 C   0  0  0  0  0  0  0  0  0  0  0  0
    8.4382  -14.4710   25.5427 C   0  0  2  0  0  0  0  0  0  0  0  0
    8.3726  -15.5101   24.4745 N   0  0  0  0  0  0  0  0  0  0  0  0
    8.6644  -15.2176   26.7672 C   0  0  0  0  0  0  0  0  0  0  0  0
    8.6675  -16.5944   26.7813 O   0  0  0  0  0  0  0  0  0  0  0  0
    8.8577  -14.6088   27.8725 O   0  0  0  0  0  0  0  0  0  0  0  0
  2  1  1  6
  2  3  1  0
  3  4  1  0
  4  8  1  0
  5  4  2  0
  6  2  1  0
  7  6  2  0
 10  9  1  0
 10 12  1  0
 11 10  2  0
 13 12  1  0
 14 13  1  1
 14 15  1  0
 15  6  1  0
 16 14  1  0
 17 16  2  0
 19 18  1  6
 19 21  1  0
 19 20  1  0
 22 21  1  1
 22 23  1  0
 23 16  1  0
 24 22  1  0
 24 25  1  0
 26 24  2  0
M  END
$$$$
