DQL.pdb
     RDKit          3D

 26 25  0  0  1  0  0  0  0  0999 V2000
    7.9043  -19.5017   19.2016 N   0  0  0  0  0  0  0  0  0  0  0  0
    7.8818  -18.0555   19.3172 C   0  0  1  0  0  0  0  0  0  0  0  0
    7.1564  -17.5062   18.0881 C   0  0  0  0  0  0  0  0  0  0  0  0
    8.0811  -17.4376   16.9275 C   0  0  0  0  0  0  0  0  0  0  0  0
    9.2759  -17.7923   17.0686 O   0  0  0  0  0  0  0  0  0  0  0  0
    7.0974  -17.7218   20.5325 C   0  0  0  0  0  0  0  0  0  0  0  0
    5.8569  -17.8592   20.4897 O   0  0  0  0  0  0  0  0  0  0  0  0
    7.6335  -16.9876   15.7017 O   0  0  0  0  0  0  0  0  0  0  0  0
    7.9416  -20.9409   25.1183 N   0  0  0  0  0  0  0  0  0  0  0  0
    7.0530  -20.0179   25.7646 C   0  0  0  0  0  0  0  0  0  0  0  0
    6.5866  -20.3931   26.8576 O   0  0  0  0  0  0  0  0  0  0  0  0
    6.7655  -18.7255   25.1033 C   0  0  0  0  0  0  0  0  0  0  0  0
    7.3946  -18.6417   23.7340 C   0  0  0  0  0  0  0  0  0  0  0  0
    7.1186  -17.3477   23.0228 C   0  0  2  0  0  0  0  0  0  0  0  0
    7.6887  -17.2613   21.7197 N   0  0  0  0  0  0  0  0  0  0  0  0
    7.7668  -16.2750   23.8546 C   0  0  0  0  0  0  0  0  0  0  0  0
    8.9802  -16.0682   23.6494 O   0  0  0  0  0  0  0  0  0  0  0  0
    7.7753  -11.1628   25.1521 C   0  0  0  0  0  0  0  0  0  0  0  0
    7.0000  -12.0324   26.1843 C   0  0  1  0  0  0  0  0  0  0  0  0
    5.7995  -11.1796   26.5685 C   0  0  0  0  0  0  0  0  0  0  0  0
    6.5994  -13.3054   25.5417 C   0  0  0  0  0  0  0  0  0  0  0  0
    7.6721  -14.2946   25.3408 C   0  0  2  0  0  0  0  0  0  0  0  0
    7.0581  -15.5448   24.8068 N   0  0  0  0  0  0  0  0  0  0  0  0
    8.5042  -14.7373   26.4452 C   0  0  0  0  0  0  0  0  0  0  0  0
    8.3613  -15.9904   26.9974 O   0  0  0  0  0  0  0  0  0  0  0  0
    9.3900  -13.9636   26.9415 O   0  0  0  0  0  0  0  0  0  0  0  0
  2  1  1  6
  2  3  1  0
  3  4  1  0
  4  8  1  0
  5  4  2  0
  6  2  1  0
  7  6  2  0
 10  9  1  0
 10 12  1  0
 11 10  2  0
 13 12  1  0
 14 13  1  1
 14 15  1  0
 15  6  1  0
 16 14  1  0
 17 16  2  0
 19 18  1  6
 19 21  1  0
 19 20  1  0
 22 21  1  1
 22 23  1  0
 23 16  1  0
 24 22  1  0
 24 25  1  0
 26 24  2  0
M  END
$$$$
