DQL.pdb
     RDKit          3D

 26 25  0  0  1  0  0  0  0  0999 V2000
    9.0601  -16.5887   17.7914 N   0  0  0  0  0  0  0  0  0  0  0  0
    8.7765  -15.3785   18.5401 C   0  0  1  0  0  0  0  0  0  0  0  0
    7.7670  -14.5624   17.7316 C   0  0  0  0  0  0  0  0  0  0  0  0
    8.3300  -14.2104   16.4028 C   0  0  0  0  0  0  0  0  0  0  0  0
    9.4408  -14.6807   16.0589 O   0  0  0  0  0  0  0  0  0  0  0  0
    8.1519  -15.7890   19.8227 C   0  0  0  0  0  0  0  0  0  0  0  0
    6.9169  -15.9730   19.8448 O   0  0  0  0  0  0  0  0  0  0  0  0
    7.6398  -13.3728   15.5500 O   0  0  0  0  0  0  0  0  0  0  0  0
    9.9484  -20.3838   23.0704 N   0  0  0  0  0  0  0  0  0  0  0  0
   10.4009  -19.7731   21.8533 C   0  0  0  0  0  0  0  0  0  0  0  0
   11.1950  -20.4504   21.1723 O   0  0  0  0  0  0  0  0  0  0  0  0
    9.9040  -18.4227   21.5073 C   0  0  0  0  0  0  0  0  0  0  0  0
    8.9538  -17.8881   22.5510 C   0  0  0  0  0  0  0  0  0  0  0  0
    8.3890  -16.5372   22.2156 C   0  0  2  0  0  0  0  0  0  0  0  0
    8.8874  -15.9775   21.0036 N   0  0  0  0  0  0  0  0  0  0  0  0
    8.8216  -15.6227   23.3289 C   0  0  0  0  0  0  0  0  0  0  0  0
    9.5768  -14.6805   23.0139 O   0  0  0  0  0  0  0  0  0  0  0  0
    8.0956  -11.5036   25.9594 C   0  0  0  0  0  0  0  0  0  0  0  0
    7.2664  -12.7146   26.4779 C   0  0  1  0  0  0  0  0  0  0  0  0
    5.8483  -12.1756   26.5986 C   0  0  0  0  0  0  0  0  0  0  0  0
    7.3627  -13.8224   25.4995 C   0  0  0  0  0  0  0  0  0  0  0  0
    8.5588  -14.6756   25.6034 C   0  0  2  0  0  0  0  0  0  0  0  0
    8.4062  -15.8093   24.6459 N   0  0  0  0  0  0  0  0  0  0  0  0
    8.9287  -15.3034   26.8592 C   0  0  0  0  0  0  0  0  0  0  0  0
    8.6325  -16.6225   27.1198 O   0  0  0  0  0  0  0  0  0  0  0  0
    9.5346  -14.6374   27.7642 O   0  0  0  0  0  0  0  0  0  0  0  0
  2  1  1  6
  2  3  1  0
  3  4  1  0
  4  8  1  0
  5  4  2  0
  6  2  1  0
  7  6  2  0
 10  9  1  0
 10 12  1  0
 11 10  2  0
 13 12  1  0
 14 13  1  1
 14 15  1  0
 15  6  1  0
 16 14  1  0
 17 16  2  0
 19 18  1  6
 19 21  1  0
 19 20  1  0
 22 21  1  1
 22 23  1  0
 23 16  1  0
 24 22  1  0
 24 25  1  0
 26 24  2  0
M  END
$$$$
