DQL.pdb
     RDKit          3D

 26 25  0  0  1  0  0  0  0  0999 V2000
    7.0715  -19.5986   19.4611 N   0  0  0  0  0  0  0  0  0  0  0  0
    7.8599  -18.5151   20.0178 C   0  0  1  0  0  0  0  0  0  0  0  0
    7.8031  -17.3491   19.0300 C   0  0  0  0  0  0  0  0  0  0  0  0
    8.6566  -17.6295   17.8469 C   0  0  0  0  0  0  0  0  0  0  0  0
    8.3265  -17.1738   16.7259 O   0  0  0  0  0  0  0  0  0  0  0  0
    7.2120  -18.1055   21.2891 C   0  0  0  0  0  0  0  0  0  0  0  0
    6.0341  -17.6931   21.2444 O   0  0  0  0  0  0  0  0  0  0  0  0
    9.8046  -18.3850   17.9755 O   0  0  0  0  0  0  0  0  0  0  0  0
    8.0310  -20.9968   26.6477 N   0  0  0  0  0  0  0  0  0  0  0  0
    6.8781  -21.1820   25.8136 C   0  0  0  0  0  0  0  0  0  0  0  0
    6.1900  -22.1913   26.0603 O   0  0  0  0  0  0  0  0  0  0  0  0
    6.6001  -20.1879   24.7531 C   0  0  0  0  0  0  0  0  0  0  0  0
    7.5509  -19.0174   24.8156 C   0  0  0  0  0  0  0  0  0  0  0  0
    7.2572  -17.9483   23.8021 C   0  0  2  0  0  0  0  0  0  0  0  0
    7.8645  -18.1624   22.5309 N   0  0  0  0  0  0  0  0  0  0  0  0
    7.8456  -16.6809   24.3590 C   0  0  0  0  0  0  0  0  0  0  0  0
    9.0288  -16.4331   24.0489 O   0  0  0  0  0  0  0  0  0  0  0  0
    7.3894  -11.3111   25.5968 C   0  0  0  0  0  0  0  0  0  0  0  0
    7.1748  -12.3752   26.7123 C   0  0  1  0  0  0  0  0  0  0  0  0
    6.1204  -11.7602   27.6212 C   0  0  0  0  0  0  0  0  0  0  0  0
    6.7124  -13.6391   26.0940 C   0  0  0  0  0  0  0  0  0  0  0  0
    7.7672  -14.5617   25.6405 C   0  0  2  0  0  0  0  0  0  0  0  0
    7.1163  -15.8220   25.1789 N   0  0  0  0  0  0  0  0  0  0  0  0
    8.8205  -15.0004   26.5383 C   0  0  0  0  0  0  0  0  0  0  0  0
    8.6858  -16.1349   27.3067 O   0  0  0  0  0  0  0  0  0  0  0  0
    9.9031  -14.3323   26.6447 O   0  0  0  0  0  0  0  0  0  0  0  0
  2  1  1  6
  2  3  1  0
  3  4  1  0
  4  8  1  0
  5  4  2  0
  6  2  1  0
  7  6  2  0
 10  9  1  0
 10 12  1  0
 11 10  2  0
 13 12  1  0
 14 13  1  1
 14 15  1  0
 15  6  1  0
 16 14  1  0
 17 16  2  0
 19 18  1  6
 19 21  1  0
 19 20  1  0
 22 21  1  1
 22 23  1  0
 23 16  1  0
 24 22  1  0
 24 25  1  0
 26 24  2  0
M  END
$$$$
