DQL.pdb
     RDKit          3D

 26 25  0  0  1  0  0  0  0  0999 V2000
    7.3180  -16.6681   19.3814 N   0  0  0  0  0  0  0  0  0  0  0  0
    8.2156  -15.7684   20.0817 C   0  0  1  0  0  0  0  0  0  0  0  0
    7.7361  -14.3406   19.8165 C   0  0  0  0  0  0  0  0  0  0  0  0
    8.0733  -13.9294   18.4295 C   0  0  0  0  0  0  0  0  0  0  0  0
    8.6875  -14.7270   17.6813 O   0  0  0  0  0  0  0  0  0  0  0  0
    8.0906  -16.0603   21.5318 C   0  0  0  0  0  0  0  0  0  0  0  0
    6.9714  -16.3981   21.9710 O   0  0  0  0  0  0  0  0  0  0  0  0
    7.7156  -12.6803   17.9635 O   0  0  0  0  0  0  0  0  0  0  0  0
   10.4227  -20.3827   23.5078 N   0  0  0  0  0  0  0  0  0  0  0  0
   10.4772  -19.8430   24.8363 C   0  0  0  0  0  0  0  0  0  0  0  0
   10.4266  -20.6775   25.7604 O   0  0  0  0  0  0  0  0  0  0  0  0
   10.5872  -18.3768   25.0046 C   0  0  0  0  0  0  0  0  0  0  0  0
   10.4521  -17.6476   23.6901 C   0  0  0  0  0  0  0  0  0  0  0  0
    9.2992  -16.6856   23.6509 C   0  0  2  0  0  0  0  0  0  0  0  0
    9.1715  -15.9728   22.4236 N   0  0  0  0  0  0  0  0  0  0  0  0
    9.5781  -15.6657   24.7208 C   0  0  0  0  0  0  0  0  0  0  0  0
   10.6988  -15.1175   24.6890 O   0  0  0  0  0  0  0  0  0  0  0  0
    5.8925  -12.2382   26.7898 C   0  0  0  0  0  0  0  0  0  0  0  0
    7.1540  -12.9104   26.1737 C   0  0  1  0  0  0  0  0  0  0  0  0
    7.9775  -11.7473   25.6400 C   0  0  0  0  0  0  0  0  0  0  0  0
    7.8677  -13.6626   27.2314 C   0  0  0  0  0  0  0  0  0  0  0  0
    9.0537  -14.4210   26.7981 C   0  0  2  0  0  0  0  0  0  0  0  0
    8.6410  -15.3429   25.7004 N   0  0  0  0  0  0  0  0  0  0  0  0
    9.7900  -15.2612   27.7254 C   0  0  0  0  0  0  0  0  0  0  0  0
    9.9137  -16.6179   27.5258 O   0  0  0  0  0  0  0  0  0  0  0  0
   10.3370  -14.7582   28.7635 O   0  0  0  0  0  0  0  0  0  0  0  0
  2  1  1  6
  2  3  1  0
  3  4  1  0
  4  8  1  0
  5  4  2  0
  6  2  1  0
  7  6  2  0
 10  9  1  0
 10 12  1  0
 11 10  2  0
 13 12  1  0
 14 13  1  6
 14 15  1  0
 15  6  1  0
 16 14  1  0
 17 16  2  0
 19 18  1  1
 19 21  1  0
 19 20  1  0
 22 21  1  1
 22 23  1  0
 23 16  1  0
 24 22  1  0
 24 25  1  0
 26 24  2  0
M  END
$$$$
