DQL.pdb
     RDKit          3D

 26 25  0  0  1  0  0  0  0  0999 V2000
    8.9642  -19.2311   20.5262 N   0  0  0  0  0  0  0  0  0  0  0  0
    8.9482  -17.7802   20.5323 C   0  0  1  0  0  0  0  0  0  0  0  0
    8.0774  -17.3241   19.3608 C   0  0  0  0  0  0  0  0  0  0  0  0
    8.7819  -17.5489   18.0724 C   0  0  0  0  0  0  0  0  0  0  0  0
    9.9083  -18.1007   18.0730 O   0  0  0  0  0  0  0  0  0  0  0  0
    8.3138  -17.3509   21.8038 C   0  0  0  0  0  0  0  0  0  0  0  0
    7.9078  -16.1732   21.8920 O   0  0  0  0  0  0  0  0  0  0  0  0
    8.2054  -17.1552   16.8816 O   0  0  0  0  0  0  0  0  0  0  0  0
    6.7875  -21.3624   23.3458 N   0  0  0  0  0  0  0  0  0  0  0  0
    5.5847  -20.5951   23.1921 C   0  0  0  0  0  0  0  0  0  0  0  0
    4.7324  -21.0762   22.4207 O   0  0  0  0  0  0  0  0  0  0  0  0
    5.4501  -19.3257   23.9409 C   0  0  0  0  0  0  0  0  0  0  0  0
    6.6987  -18.9986   24.7233 C   0  0  0  0  0  0  0  0  0  0  0  0
    7.5052  -17.8791   24.1296 C   0  0  2  0  0  0  0  0  0  0  0  0
    8.1526  -18.2085   22.9037 N   0  0  0  0  0  0  0  0  0  0  0  0
    8.5891  -17.5786   25.1284 C   0  0  0  0  0  0  0  0  0  0  0  0
    9.7509  -17.8959   24.8017 O   0  0  0  0  0  0  0  0  0  0  0  0
   10.9852  -13.7094   27.8273 C   0  0  0  0  0  0  0  0  0  0  0  0
    9.9822  -14.5244   28.6948 C   0  0  1  0  0  0  0  0  0  0  0  0
    9.3313  -13.4841   29.5948 C   0  0  0  0  0  0  0  0  0  0  0  0
    9.0008  -15.1883   27.8060 C   0  0  0  0  0  0  0  0  0  0  0  0
    9.4622  -16.4153   27.1344 C   0  0  2  0  0  0  0  0  0  0  0  0
    8.3202  -16.9776   26.3566 N   0  0  0  0  0  0  0  0  0  0  0  0
    9.9781  -17.5403   27.8935 C   0  0  0  0  0  0  0  0  0  0  0  0
   11.3220  -17.6722   28.1623 O   0  0  0  0  0  0  0  0  0  0  0  0
    9.1909  -18.4479   28.3253 O   0  0  0  0  0  0  0  0  0  0  0  0
  2  1  1  1
  2  3  1  0
  3  4  1  0
  4  8  1  0
  5  4  2  0
  6  2  1  0
  7  6  2  0
 10  9  1  0
 10 12  1  0
 11 10  2  0
 13 12  1  0
 14 13  1  1
 14 15  1  0
 15  6  1  0
 16 14  1  0
 17 16  2  0
 19 18  1  6
 19 21  1  0
 19 20  1  0
 22 21  1  1
 22 23  1  0
 23 16  1  0
 24 22  1  0
 24 25  1  0
 26 24  2  0
M  END
$$$$
