DQL.pdb
     RDKit          3D

 26 25  0  0  1  0  0  0  0  0999 V2000
    9.5824  -16.2414   19.2691 N   0  0  0  0  0  0  0  0  0  0  0  0
    8.2352  -15.7843   19.5549 C   0  0  1  0  0  0  0  0  0  0  0  0
    7.2757  -16.6173   18.7039 C   0  0  0  0  0  0  0  0  0  0  0  0
    7.6550  -16.5415   17.2696 C   0  0  0  0  0  0  0  0  0  0  0  0
    8.7070  -15.9430   16.9403 O   0  0  0  0  0  0  0  0  0  0  0  0
    7.9716  -16.0568   20.9901 C   0  0  0  0  0  0  0  0  0  0  0  0
    6.8160  -15.8672   21.4237 O   0  0  0  0  0  0  0  0  0  0  0  0
    6.8592  -17.1234   16.3036 O   0  0  0  0  0  0  0  0  0  0  0  0
    9.6812  -21.3125   21.3747 N   0  0  0  0  0  0  0  0  0  0  0  0
   10.0849  -20.1811   22.1595 C   0  0  0  0  0  0  0  0  0  0  0  0
   11.2835  -19.8546   22.0592 O   0  0  0  0  0  0  0  0  0  0  0  0
    9.0758  -19.5051   23.0050 C   0  0  0  0  0  0  0  0  0  0  0  0
    9.5884  -18.1969   23.5560 C   0  0  0  0  0  0  0  0  0  0  0  0
    8.7373  -17.0146   23.1898 C   0  0  2  0  0  0  0  0  0  0  0  0
    8.9613  -16.5157   21.8739 N   0  0  0  0  0  0  0  0  0  0  0  0
    9.1244  -15.9180   24.1439 C   0  0  0  0  0  0  0  0  0  0  0  0
   10.3033  -15.5137   24.0789 O   0  0  0  0  0  0  0  0  0  0  0  0
    5.8351  -11.9940   25.8112 C   0  0  0  0  0  0  0  0  0  0  0  0
    7.0779  -12.7854   25.3093 C   0  0  1  0  0  0  0  0  0  0  0  0
    7.9959  -11.7178   24.7318 C   0  0  0  0  0  0  0  0  0  0  0  0
    7.6952  -13.4949   26.4535 C   0  0  0  0  0  0  0  0  0  0  0  0
    8.7470  -14.4703   26.1191 C   0  0  2  0  0  0  0  0  0  0  0  0
    8.2214  -15.3753   25.0561 N   0  0  0  0  0  0  0  0  0  0  0  0
    9.2922  -15.3640   27.1251 C   0  0  0  0  0  0  0  0  0  0  0  0
   10.1129  -14.9027   28.1297 O   0  0  0  0  0  0  0  0  0  0  0  0
    9.0285  -16.6128   27.0956 O   0  0  0  0  0  0  0  0  0  0  0  0
  2  1  1  6
  2  3  1  0
  3  4  1  0
  4  8  1  0
  5  4  2  0
  6  2  1  0
  7  6  2  0
 10  9  1  0
 10 12  1  0
 11 10  2  0
 13 12  1  0
 14 13  1  1
 14 15  1  0
 15  6  1  0
 16 14  1  0
 17 16  2  0
 19 18  1  1
 19 21  1  0
 19 20  1  0
 22 21  1  1
 22 23  1  0
 23 16  1  0
 24 22  1  0
 24 25  1  0
 26 24  2  0
M  END
$$$$
