DQL.pdb
     RDKit          3D

 26 25  0  0  1  0  0  0  0  0999 V2000
    7.8230  -18.6511   19.8729 N   0  0  0  0  0  0  0  0  0  0  0  0
    8.5067  -17.4797   20.3886 C   0  0  1  0  0  0  0  0  0  0  0  0
    8.3070  -16.3482   19.3794 C   0  0  0  0  0  0  0  0  0  0  0  0
    9.3386  -16.4163   18.3127 C   0  0  0  0  0  0  0  0  0  0  0  0
    9.0145  -16.8037   17.1646 O   0  0  0  0  0  0  0  0  0  0  0  0
    7.8481  -17.1111   21.6669 C   0  0  0  0  0  0  0  0  0  0  0  0
    6.6319  -16.8288   21.6436 O   0  0  0  0  0  0  0  0  0  0  0  0
   10.6446  -16.0571   18.5784 O   0  0  0  0  0  0  0  0  0  0  0  0
    8.0753  -20.8943   26.0858 N   0  0  0  0  0  0  0  0  0  0  0  0
    7.4122  -19.8444   26.8049 C   0  0  0  0  0  0  0  0  0  0  0  0
    6.8455  -20.1875   27.8604 O   0  0  0  0  0  0  0  0  0  0  0  0
    7.4505  -18.4710   26.2548 C   0  0  0  0  0  0  0  0  0  0  0  0
    8.1128  -18.4259   24.8994 C   0  0  0  0  0  0  0  0  0  0  0  0
    7.9315  -17.1177   24.1839 C   0  0  2  0  0  0  0  0  0  0  0  0
    8.5317  -17.0672   22.8924 N   0  0  0  0  0  0  0  0  0  0  0  0
    8.6279  -16.0866   25.0293 C   0  0  0  0  0  0  0  0  0  0  0  0
    9.8675  -16.0113   24.9070 O   0  0  0  0  0  0  0  0  0  0  0  0
    5.6921  -11.8218   26.6744 C   0  0  0  0  0  0  0  0  0  0  0  0
    6.7566  -12.7444   26.0123 C   0  0  1  0  0  0  0  0  0  0  0  0
    7.3665  -11.8866   24.9130 C   0  0  0  0  0  0  0  0  0  0  0  0
    7.7553  -13.1412   27.0315 C   0  0  0  0  0  0  0  0  0  0  0  0
    8.6981  -14.2014   26.6356 C   0  0  2  0  0  0  0  0  0  0  0  0
    7.9342  -15.2545   25.9059 N   0  0  0  0  0  0  0  0  0  0  0  0
    9.4717  -14.9289   27.6256 C   0  0  0  0  0  0  0  0  0  0  0  0
    9.3802  -16.2973   27.7478 O   0  0  0  0  0  0  0  0  0  0  0  0
   10.2553  -14.3095   28.4207 O   0  0  0  0  0  0  0  0  0  0  0  0
  2  1  1  6
  2  3  1  0
  3  4  1  0
  4  8  1  0
  5  4  2  0
  6  2  1  0
  7  6  2  0
 10  9  1  0
 10 12  1  0
 11 10  2  0
 13 12  1  0
 14 13  1  1
 14 15  1  0
 15  6  1  0
 16 14  1  0
 17 16  2  0
 19 18  1  1
 19 21  1  0
 19 20  1  0
 22 21  1  1
 22 23  1  0
 23 16  1  0
 24 22  1  0
 24 25  1  0
 26 24  2  0
M  END
$$$$
