DQL.pdb
     RDKit          3D

 26 25  0  0  1  0  0  0  0  0999 V2000
    6.8929  -18.5669   22.0652 N   0  0  0  0  0  0  0  0  0  0  0  0
    8.2535  -18.9555   21.7439 C   0  0  1  0  0  0  0  0  0  0  0  0
    8.2526  -19.4967   20.3135 C   0  0  0  0  0  0  0  0  0  0  0  0
    7.4918  -20.7706   20.2414 C   0  0  0  0  0  0  0  0  0  0  0  0
    6.8958  -21.1921   21.2614 O   0  0  0  0  0  0  0  0  0  0  0  0
    9.0875  -17.7286   21.7974 C   0  0  0  0  0  0  0  0  0  0  0  0
   10.2760  -17.8066   21.4220 O   0  0  0  0  0  0  0  0  0  0  0  0
    7.4386  -21.4882   19.0635 O   0  0  0  0  0  0  0  0  0  0  0  0
    7.4795  -12.1663   19.5056 N   0  0  0  0  0  0  0  0  0  0  0  0
    7.8389  -13.5363   19.2758 C   0  0  0  0  0  0  0  0  0  0  0  0
    7.1646  -14.1343   18.4151 O   0  0  0  0  0  0  0  0  0  0  0  0
    8.9528  -14.1201   20.0561 C   0  0  0  0  0  0  0  0  0  0  0  0
    8.6540  -14.1398   21.5353 C   0  0  0  0  0  0  0  0  0  0  0  0
    9.3235  -15.2662   22.2698 C   0  0  2  0  0  0  0  0  0  0  0  0
    8.5983  -16.4927   22.2496 N   0  0  0  0  0  0  0  0  0  0  0  0
    9.4031  -14.8300   23.7072 C   0  0  0  0  0  0  0  0  0  0  0  0
   10.1451  -13.8574   23.9537 O   0  0  0  0  0  0  0  0  0  0  0  0
    6.0084  -12.4966   26.3678 C   0  0  0  0  0  0  0  0  0  0  0  0
    7.4026  -13.0153   25.9097 C   0  0  1  0  0  0  0  0  0  0  0  0
    8.3733  -11.9333   26.3602 C   0  0  0  0  0  0  0  0  0  0  0  0
    7.6737  -14.3172   26.5619 C   0  0  0  0  0  0  0  0  0  0  0  0
    8.8927  -15.0188   26.1245 C   0  0  2  0  0  0  0  0  0  0  0  0
    8.6896  -15.4716   24.7178 N   0  0  0  0  0  0  0  0  0  0  0  0
    9.3748  -16.1969   26.8230 C   0  0  0  0  0  0  0  0  0  0  0  0
    9.6034  -17.3829   26.1622 O   0  0  0  0  0  0  0  0  0  0  0  0
    9.5907  -16.1629   28.0808 O   0  0  0  0  0  0  0  0  0  0  0  0
  2  1  1  6
  2  3  1  0
  3  4  1  0
  4  8  1  0
  5  4  2  0
  6  2  1  0
  7  6  2  0
 10  9  1  0
 10 12  1  0
 11 10  2  0
 13 12  1  0
 14 13  1  6
 14 15  1  0
 15  6  1  0
 16 14  1  0
 17 16  2  0
 19 18  1  1
 19 21  1  0
 19 20  1  0
 22 21  1  1
 22 23  1  0
 23 16  1  0
 24 22  1  0
 24 25  1  0
 26 24  2  0
M  END
$$$$
