DQL.pdb
     RDKit          3D

 26 25  0  0  1  0  0  0  0  0999 V2000
    6.7187  -18.1430   19.4589 N   0  0  0  0  0  0  0  0  0  0  0  0
    7.6426  -17.2359   20.1139 C   0  0  1  0  0  0  0  0  0  0  0  0
    7.5974  -15.9072   19.3581 C   0  0  0  0  0  0  0  0  0  0  0  0
    8.4347  -15.9784   18.1331 C   0  0  0  0  0  0  0  0  0  0  0  0
    8.3984  -15.0369   17.3052 O   0  0  0  0  0  0  0  0  0  0  0  0
    7.1473  -17.0239   21.4971 C   0  0  0  0  0  0  0  0  0  0  0  0
    5.9944  -16.5680   21.6472 O   0  0  0  0  0  0  0  0  0  0  0  0
    9.2476  -17.0702   17.9037 O   0  0  0  0  0  0  0  0  0  0  0  0
    7.9603  -21.0918   25.9294 N   0  0  0  0  0  0  0  0  0  0  0  0
    7.2849  -20.0716   26.6791 C   0  0  0  0  0  0  0  0  0  0  0  0
    6.8892  -20.4070   27.8123 O   0  0  0  0  0  0  0  0  0  0  0  0
    7.1141  -18.7347   26.0678 C   0  0  0  0  0  0  0  0  0  0  0  0
    7.6397  -18.6912   24.6537 C   0  0  0  0  0  0  0  0  0  0  0  0
    7.4342  -17.3667   23.9755 C   0  0  2  0  0  0  0  0  0  0  0  0
    7.9164  -17.3127   22.6356 N   0  0  0  0  0  0  0  0  0  0  0  0
    8.2353  -16.3703   24.7680 C   0  0  0  0  0  0  0  0  0  0  0  0
    9.4574  -16.3158   24.5211 O   0  0  0  0  0  0  0  0  0  0  0  0
    6.2151  -11.5974   26.4181 C   0  0  0  0  0  0  0  0  0  0  0  0
    7.1978  -12.6483   25.8241 C   0  0  1  0  0  0  0  0  0  0  0  0
    8.2652  -11.8149   25.1297 C   0  0  0  0  0  0  0  0  0  0  0  0
    7.7554  -13.4670   26.9252 C   0  0  0  0  0  0  0  0  0  0  0  0
    8.5401  -14.6464   26.5215 C   0  0  2  0  0  0  0  0  0  0  0  0
    7.6528  -15.5467   25.7294 N   0  0  0  0  0  0  0  0  0  0  0  0
    9.1562  -15.5145   27.5088 C   0  0  0  0  0  0  0  0  0  0  0  0
   10.2637  -15.1190   28.2248 O   0  0  0  0  0  0  0  0  0  0  0  0
    8.6865  -16.6806   27.7313 O   0  0  0  0  0  0  0  0  0  0  0  0
  2  1  1  6
  2  3  1  0
  3  4  1  0
  4  8  1  0
  5  4  2  0
  6  2  1  0
  7  6  2  0
 10  9  1  0
 10 12  1  0
 11 10  2  0
 13 12  1  0
 14 13  1  1
 14 15  1  0
 15  6  1  0
 16 14  1  0
 17 16  2  0
 19 18  1  1
 19 21  1  0
 19 20  1  0
 22 21  1  1
 22 23  1  0
 23 16  1  0
 24 22  1  0
 24 25  1  0
 26 24  2  0
M  END
$$$$
