DQL.pdb
     RDKit          3D

 26 25  0  0  1  0  0  0  0  0999 V2000
    6.5028  -16.8031   19.5166 N   0  0  0  0  0  0  0  0  0  0  0  0
    7.4402  -15.9838   20.2620 C   0  0  1  0  0  0  0  0  0  0  0  0
    7.3142  -14.5509   19.7425 C   0  0  0  0  0  0  0  0  0  0  0  0
    8.0202  -14.4060   18.4436 C   0  0  0  0  0  0  0  0  0  0  0  0
    8.6702  -15.3749   17.9830 O   0  0  0  0  0  0  0  0  0  0  0  0
    7.0240  -16.0214   21.6864 C   0  0  0  0  0  0  0  0  0  0  0  0
    5.9903  -15.4026   22.0152 O   0  0  0  0  0  0  0  0  0  0  0  0
    7.9643  -13.2165   17.7456 O   0  0  0  0  0  0  0  0  0  0  0  0
    8.0815  -20.8144   25.5412 N   0  0  0  0  0  0  0  0  0  0  0  0
    7.4115  -19.9061   26.4272 C   0  0  0  0  0  0  0  0  0  0  0  0
    7.1231  -20.3620   27.5506 O   0  0  0  0  0  0  0  0  0  0  0  0
    7.1220  -18.5341   25.9540 C   0  0  0  0  0  0  0  0  0  0  0  0
    7.5734  -18.3231   24.5294 C   0  0  0  0  0  0  0  0  0  0  0  0
    7.3144  -16.9358   24.0149 C   0  0  2  0  0  0  0  0  0  0  0  0
    7.7399  -16.7192   22.6722 N   0  0  0  0  0  0  0  0  0  0  0  0
    8.1277  -16.0163   24.8841 C   0  0  0  0  0  0  0  0  0  0  0  0
    9.3452  -15.9348   24.6224 O   0  0  0  0  0  0  0  0  0  0  0  0
    5.9143  -11.6110   27.2501 C   0  0  0  0  0  0  0  0  0  0  0  0
    6.8854  -12.5188   26.4403 C   0  0  1  0  0  0  0  0  0  0  0  0
    7.7869  -11.5405   25.7013 C   0  0  0  0  0  0  0  0  0  0  0  0
    7.6427  -13.3776   27.3798 C   0  0  0  0  0  0  0  0  0  0  0  0
    8.4566  -14.4432   26.7700 C   0  0  2  0  0  0  0  0  0  0  0  0
    7.5609  -15.2893   25.9292 N   0  0  0  0  0  0  0  0  0  0  0  0
    9.1930  -15.3896   27.5886 C   0  0  0  0  0  0  0  0  0  0  0  0
   10.2916  -15.0041   28.3235 O   0  0  0  0  0  0  0  0  0  0  0  0
    8.8415  -16.6158   27.6387 O   0  0  0  0  0  0  0  0  0  0  0  0
  2  1  1  6
  2  3  1  0
  3  4  1  0
  4  8  1  0
  5  4  2  0
  6  2  1  0
  7  6  2  0
 10  9  1  0
 10 12  1  0
 11 10  2  0
 13 12  1  0
 14 13  1  1
 14 15  1  0
 15  6  1  0
 16 14  1  0
 17 16  2  0
 19 18  1  1
 19 21  1  0
 19 20  1  0
 22 21  1  1
 22 23  1  0
 23 16  1  0
 24 22  1  0
 24 25  1  0
 26 24  2  0
M  END
$$$$
