TEP.pdb
     RDKit          3D

 24 24  0  0  1  0  0  0  0  0999 V2000
   17.6541  -15.2961    3.3866 C   0  0  0  0  0  0  0  0  0  0  0  0
   18.2408  -13.9397    3.5947 C   0  0  1  0  0  0  0  0  0  0  0  0
   18.1432  -13.1826    2.4181 O   0  0  0  0  0  0  0  0  0  0  0  0
   17.5316  -13.2553    4.7446 C   0  0  2  0  0  0  0  0  0  0  0  0
   17.9795  -11.9178    4.9591 N   0  0  0  0  0  0  0  0  0  0  0  0
   17.6805  -14.1300    5.9318 C   0  0  0  0  0  0  0  0  0  0  0  0
   18.7803  -14.0223    6.5500 O   0  0  0  0  0  0  0  0  0  0  0  0
   16.6796  -15.0330    6.3681 N   0  0  0  0  0  0  0  0  0  0  0  0
   16.9674  -15.8579    7.5137 C   0  0  1  0  0  0  0  0  0  0  0  0
   15.7680  -16.6160    7.9956 C   0  0  0  0  0  0  0  0  0  0  0  0
   15.9887  -17.4471    9.2022 C   0  0  0  0  0  0  0  0  0  0  0  0
   14.8002  -18.2992    9.4602 C   0  0  0  0  0  0  0  0  0  0  0  0
   13.7764  -18.2872    8.7397 O   0  0  0  0  0  0  0  0  0  0  0  0
   18.0414  -16.8082    7.1360 C   0  0  0  0  0  0  0  0  0  0  0  0
   18.1659  -17.0718    5.8960 O   0  0  0  0  0  0  0  0  0  0  0  0
   14.8541  -19.1520   10.5749 O   0  0  0  0  0  0  0  0  0  0  0  0
   18.9169  -17.4237    8.0488 N   0  0  0  0  0  0  0  0  0  0  0  0
   18.9720  -17.3389    9.4956 C   0  0  0  0  0  0  0  0  0  0  0  0
   20.4100  -17.7100    9.8792 C   0  0  0  0  0  0  0  0  0  0  0  0
   21.1049  -17.7411    8.5474 C   0  0  0  0  0  0  0  0  0  0  0  0
   20.0185  -18.3230    7.6372 C   0  0  1  0  0  0  0  0  0  0  0  0
   19.6966  -19.7201    7.9785 C   0  0  0  0  0  0  0  0  0  0  0  0
   20.5922  -20.7025    7.5892 O   0  0  0  0  0  0  0  0  0  0  0  0
   18.6642  -20.0806    8.5990 O   0  0  0  0  0  0  0  0  0  0  0  0
  2  1  1  6
  3  2  1  0
  4  5  1  1
  4  2  1  0
  4  6  1  0
  6  7  2  0
  8  6  1  0
  8  9  1  0
  9 14  1  0
  9 10  1  6
 11 10  1  0
 12 11  1  0
 13 12  2  0
 14 17  1  0
 14 15  2  0
 16 12  1  0
 17 21  1  0
 18 17  1  0
 19 18  1  0
 19 20  1  0
 20 21  1  0
 21 22  1  1
 22 24  2  0
 22 23  1  0
M  END
$$$$
