TEP.pdb
     RDKit          3D

 24 24  0  0  1  0  0  0  0  0999 V2000
   24.8930  -10.9493  -15.5142 C   0  0  0  0  0  0  0  0  0  0  0  0
   24.5089  -11.9644  -16.5387 C   0  0  1  0  0  0  0  0  0  0  0  0
   25.2982  -13.1156  -16.4013 O   0  0  0  0  0  0  0  0  0  0  0  0
   23.0370  -12.2914  -16.3966 C   0  0  2  0  0  0  0  0  0  0  0  0
   22.6098  -13.3316  -17.2746 N   0  0  0  0  0  0  0  0  0  0  0  0
   22.2896  -11.0232  -16.5687 C   0  0  0  0  0  0  0  0  0  0  0  0
   22.1599  -10.6285  -17.7649 O   0  0  0  0  0  0  0  0  0  0  0  0
   21.7470  -10.2828  -15.4894 N   0  0  0  0  0  0  0  0  0  0  0  0
   21.0423   -9.0636  -15.7937 C   0  0  1  0  0  0  0  0  0  0  0  0
   19.7606   -8.9309  -15.0289 C   0  0  0  0  0  0  0  0  0  0  0  0
   19.0072   -7.6782  -15.2708 C   0  0  0  0  0  0  0  0  0  0  0  0
   17.7785   -7.6518  -14.4372 C   0  0  0  0  0  0  0  0  0  0  0  0
   17.0118   -6.6642  -14.3742 O   0  0  0  0  0  0  0  0  0  0  0  0
   21.9366   -7.9250  -15.4727 C   0  0  0  0  0  0  0  0  0  0  0  0
   22.7927   -8.1093  -14.5477 O   0  0  0  0  0  0  0  0  0  0  0  0
   17.4858   -8.8060  -13.6922 O   0  0  0  0  0  0  0  0  0  0  0  0
   21.8982   -6.6760  -16.1186 N   0  0  0  0  0  0  0  0  0  0  0  0
   21.0116   -6.1858  -17.1563 C   0  0  0  0  0  0  0  0  0  0  0  0
   21.7736   -5.0508  -17.8519 C   0  0  0  0  0  0  0  0  0  0  0  0
   23.1515   -5.1764  -17.2662 C   0  0  0  0  0  0  0  0  0  0  0  0
   22.8450   -5.5778  -15.8197 C   0  0  1  0  0  0  0  0  0  0  0  0
   22.1661   -4.5017  -15.0759 C   0  0  0  0  0  0  0  0  0  0  0  0
   20.7876   -4.5691  -14.9577 O   0  0  0  0  0  0  0  0  0  0  0  0
   22.7533   -3.5270  -14.5415 O   0  0  0  0  0  0  0  0  0  0  0  0
  2  1  1  1
  3  2  1  0
  4  5  1  6
  4  2  1  0
  4  6  1  0
  6  7  2  0
  8  6  1  0
  8  9  1  0
  9 14  1  0
  9 10  1  1
 11 10  1  0
 12 11  1  0
 13 12  2  0
 14 17  1  0
 14 15  2  0
 16 12  1  0
 17 21  1  0
 18 17  1  0
 19 18  1  0
 19 20  1  0
 20 21  1  0
 21 22  1  1
 22 24  2  0
 22 23  1  0
M  END
$$$$
