TEP.pdb
     RDKit          3D

 24 24  0  0  1  0  0  0  0  0999 V2000
   13.3031   -9.3037  -14.4138 C   0  0  0  0  0  0  0  0  0  0  0  0
   14.7889   -9.3468  -14.5488 C   0  0  1  0  0  0  0  0  0  0  0  0
   15.3465  -10.1328  -13.5298 O   0  0  0  0  0  0  0  0  0  0  0  0
   15.1549   -9.8855  -15.9160 C   0  0  2  0  0  0  0  0  0  0  0  0
   14.7893  -11.2533  -16.0925 N   0  0  0  0  0  0  0  0  0  0  0  0
   16.6006   -9.6258  -16.1147 C   0  0  0  0  0  0  0  0  0  0  0  0
   17.3396  -10.6540  -16.1253 O   0  0  0  0  0  0  0  0  0  0  0  0
   17.1460   -8.3291  -16.2837 N   0  0  0  0  0  0  0  0  0  0  0  0
   18.5597   -8.2192  -16.5389 C   0  0  1  0  0  0  0  0  0  0  0  0
   18.8623   -7.4702  -17.8010 C   0  0  0  0  0  0  0  0  0  0  0  0
   18.1864   -6.1585  -17.9349 C   0  0  0  0  0  0  0  0  0  0  0  0
   19.0485   -5.2142  -18.6901 C   0  0  0  0  0  0  0  0  0  0  0  0
   20.2693   -5.0622  -18.4580 O   0  0  0  0  0  0  0  0  0  0  0  0
   19.1813   -7.5261  -15.3846 C   0  0  0  0  0  0  0  0  0  0  0  0
   18.4047   -6.8536  -14.6316 O   0  0  0  0  0  0  0  0  0  0  0  0
   18.4379   -4.4667  -19.7105 O   0  0  0  0  0  0  0  0  0  0  0  0
   20.5530   -7.5679  -15.0756 N   0  0  0  0  0  0  0  0  0  0  0  0
   21.6549   -8.1837  -15.7896 C   0  0  0  0  0  0  0  0  0  0  0  0
   22.7517   -8.4140  -14.7424 C   0  0  0  0  0  0  0  0  0  0  0  0
   22.0421   -8.1064  -13.4542 C   0  0  0  0  0  0  0  0  0  0  0  0
   21.1318   -6.9443  -13.8641 C   0  0  1  0  0  0  0  0  0  0  0  0
   21.8980   -5.7375  -14.2230 C   0  0  0  0  0  0  0  0  0  0  0  0
   22.4330   -4.9823  -13.1924 O   0  0  0  0  0  0  0  0  0  0  0  0
   22.0988   -5.3472  -15.4011 O   0  0  0  0  0  0  0  0  0  0  0  0
  2  1  1  1
  3  2  1  0
  4  5  1  1
  4  2  1  0
  4  6  1  0
  6  7  2  0
  8  6  1  0
  8  9  1  0
  9 14  1  0
  9 10  1  6
 11 10  1  0
 12 11  1  0
 13 12  2  0
 14 17  1  0
 14 15  2  0
 16 12  1  0
 17 21  1  0
 18 17  1  0
 19 18  1  0
 19 20  1  0
 20 21  1  0
 21 22  1  6
 22 24  2  0
 22 23  1  0
M  END
$$$$
