TEP.pdb
     RDKit          3D

 24 24  0  0  1  0  0  0  0  0999 V2000
   25.8602  -13.2056  -15.2314 C   0  0  0  0  0  0  0  0  0  0  0  0
   25.7006  -14.5330  -15.8948 C   0  0  1  0  0  0  0  0  0  0  0  0
   26.5949  -15.4622  -15.3433 O   0  0  0  0  0  0  0  0  0  0  0  0
   24.2677  -15.0006  -15.7474 C   0  0  2  0  0  0  0  0  0  0  0  0
   24.0468  -16.3010  -16.2911 N   0  0  0  0  0  0  0  0  0  0  0  0
   23.4035  -13.9530  -16.3410 C   0  0  0  0  0  0  0  0  0  0  0  0
   23.4505  -13.8626  -17.6031 O   0  0  0  0  0  0  0  0  0  0  0  0
   22.5728  -13.0981  -15.5751 N   0  0  0  0  0  0  0  0  0  0  0  0
   21.8278  -12.0798  -16.2707 C   0  0  1  0  0  0  0  0  0  0  0  0
   20.3638  -12.3888  -16.3517 C   0  0  0  0  0  0  0  0  0  0  0  0
   19.7126  -12.7066  -15.0594 C   0  0  0  0  0  0  0  0  0  0  0  0
   18.2433  -12.8201  -15.2418 C   0  0  0  0  0  0  0  0  0  0  0  0
   17.5464  -11.9291  -15.7783 O   0  0  0  0  0  0  0  0  0  0  0  0
   22.0295  -10.7960  -15.5563 C   0  0  0  0  0  0  0  0  0  0  0  0
   22.4553  -10.8656  -14.3579 O   0  0  0  0  0  0  0  0  0  0  0  0
   17.6303  -13.9965  -14.7802 O   0  0  0  0  0  0  0  0  0  0  0  0
   21.7847   -9.5279  -16.1138 N   0  0  0  0  0  0  0  0  0  0  0  0
   21.2612   -9.1632  -17.4162 C   0  0  0  0  0  0  0  0  0  0  0  0
   21.7523   -7.7334  -17.6759 C   0  0  0  0  0  0  0  0  0  0  0  0
   22.7303   -7.5163  -16.5561 C   0  0  0  0  0  0  0  0  0  0  0  0
   22.0565   -8.2604  -15.3988 C   0  0  1  0  0  0  0  0  0  0  0  0
   20.7939   -7.6214  -14.9869 C   0  0  0  0  0  0  0  0  0  0  0  0
   20.8728   -6.4768  -14.2108 O   0  0  0  0  0  0  0  0  0  0  0  0
   19.6501   -8.0449  -15.2922 O   0  0  0  0  0  0  0  0  0  0  0  0
  2  1  1  1
  3  2  1  0
  4  5  1  6
  4  2  1  0
  4  6  1  0
  6  7  2  0
  8  6  1  0
  8  9  1  0
  9 14  1  0
  9 10  1  1
 11 10  1  0
 12 11  1  0
 13 12  2  0
 14 17  1  0
 14 15  2  0
 16 12  1  0
 17 21  1  0
 18 17  1  0
 19 18  1  0
 19 20  1  0
 20 21  1  0
 21 22  1  6
 22 24  2  0
 22 23  1  0
M  END
$$$$
