TEP.pdb
     RDKit          3D

 24 24  0  0  1  0  0  0  0  0999 V2000
   11.3917  -11.0809  -11.1477 C   0  0  0  0  0  0  0  0  0  0  0  0
   11.9591  -12.4588  -11.0639 C   0  0  1  0  0  0  0  0  0  0  0  0
   10.9773  -13.4084  -11.3823 O   0  0  0  0  0  0  0  0  0  0  0  0
   13.1490  -12.5709  -11.9941 C   0  0  2  0  0  0  0  0  0  0  0  0
   13.6860  -13.8912  -12.0557 N   0  0  0  0  0  0  0  0  0  0  0  0
   14.1333  -11.5476  -11.5688 C   0  0  0  0  0  0  0  0  0  0  0  0
   14.7198  -11.7826  -10.4715 O   0  0  0  0  0  0  0  0  0  0  0  0
   14.4186  -10.3786  -12.3169 N   0  0  0  0  0  0  0  0  0  0  0  0
   15.3556   -9.4346  -11.7633 C   0  0  1  0  0  0  0  0  0  0  0  0
   16.2868   -8.8728  -12.7941 C   0  0  0  0  0  0  0  0  0  0  0  0
   17.2465   -9.8416  -13.3737 C   0  0  0  0  0  0  0  0  0  0  0  0
   18.1397   -9.1582  -14.3434 C   0  0  0  0  0  0  0  0  0  0  0  0
   17.9624   -9.1908  -15.5822 O   0  0  0  0  0  0  0  0  0  0  0  0
   14.5823   -8.3358  -11.1357 C   0  0  0  0  0  0  0  0  0  0  0  0
   13.4234   -8.1041  -11.6106 O   0  0  0  0  0  0  0  0  0  0  0  0
   19.2304   -8.4467  -13.8171 O   0  0  0  0  0  0  0  0  0  0  0  0
   15.0433   -7.5490  -10.0646 N   0  0  0  0  0  0  0  0  0  0  0  0
   16.2965   -7.6008   -9.3366 C   0  0  0  0  0  0  0  0  0  0  0  0
   16.0137   -6.9520   -7.9757 C   0  0  0  0  0  0  0  0  0  0  0  0
   14.5184   -6.8057   -7.9889 C   0  0  0  0  0  0  0  0  0  0  0  0
   14.2473   -6.4589   -9.4564 C   0  0  1  0  0  0  0  0  0  0  0  0
   14.8037   -5.1462   -9.8295 C   0  0  0  0  0  0  0  0  0  0  0  0
   15.9107   -5.1273  -10.6620 O   0  0  0  0  0  0  0  0  0  0  0  0
   14.3416   -4.0425   -9.4436 O   0  0  0  0  0  0  0  0  0  0  0  0
  2  1  1  6
  3  2  1  0
  4  5  1  1
  4  2  1  0
  4  6  1  0
  6  7  2  0
  8  6  1  0
  8  9  1  0
  9 14  1  0
  9 10  1  6
 11 10  1  0
 12 11  1  0
 13 12  2  0
 14 17  1  0
 14 15  2  0
 16 12  1  0
 17 21  1  0
 18 17  1  0
 19 18  1  0
 19 20  1  0
 20 21  1  0
 21 22  1  6
 22 24  2  0
 22 23  1  0
M  END
$$$$
