TEP.pdb
     RDKit          3D

 24 24  0  0  1  0  0  0  0  0999 V2000
   19.5201  -13.1931  -15.6768 C   0  0  0  0  0  0  0  0  0  0  0  0
   18.1200  -13.3718  -16.1618 C   0  0  1  0  0  0  0  0  0  0  0  0
   17.5811  -14.5656  -15.6602 O   0  0  0  0  0  0  0  0  0  0  0  0
   17.2862  -12.1785  -15.7440 C   0  0  2  0  0  0  0  0  0  0  0  0
   15.9163  -12.2947  -16.1253 N   0  0  0  0  0  0  0  0  0  0  0  0
   17.9533  -10.9698  -16.2832 C   0  0  0  0  0  0  0  0  0  0  0  0
   17.8830  -10.8267  -17.5394 O   0  0  0  0  0  0  0  0  0  0  0  0
   18.6296  -10.0235  -15.4742 N   0  0  0  0  0  0  0  0  0  0  0  0
   19.1446   -8.8374  -16.1095 C   0  0  1  0  0  0  0  0  0  0  0  0
   18.0648   -7.9849  -16.7032 C   0  0  0  0  0  0  0  0  0  0  0  0
   17.0762   -7.4530  -15.7362 C   0  0  0  0  0  0  0  0  0  0  0  0
   16.2789   -6.3691  -16.3645 C   0  0  0  0  0  0  0  0  0  0  0  0
   16.7631   -5.5322  -17.1597 O   0  0  0  0  0  0  0  0  0  0  0  0
   19.8928   -8.0604  -15.0918 C   0  0  0  0  0  0  0  0  0  0  0  0
   19.5282   -8.2001  -13.8794 O   0  0  0  0  0  0  0  0  0  0  0  0
   14.9157   -6.3028  -16.0324 O   0  0  0  0  0  0  0  0  0  0  0  0
   20.9636   -7.1949  -15.3800 N   0  0  0  0  0  0  0  0  0  0  0  0
   21.4125   -6.6510  -16.6472 C   0  0  0  0  0  0  0  0  0  0  0  0
   22.8882   -6.2854  -16.4430 C   0  0  0  0  0  0  0  0  0  0  0  0
   23.1935   -6.8974  -15.1052 C   0  0  0  0  0  0  0  0  0  0  0  0
   21.8828   -6.6681  -14.3459 C   0  0  1  0  0  0  0  0  0  0  0  0
   21.6217   -5.2375  -14.1064 C   0  0  0  0  0  0  0  0  0  0  0  0
   22.3603   -4.6025  -13.1216 O   0  0  0  0  0  0  0  0  0  0  0  0
   20.7740   -4.5545  -14.7354 O   0  0  0  0  0  0  0  0  0  0  0  0
  2  1  1  1
  3  2  1  0
  4  5  1  6
  4  2  1  0
  4  6  1  0
  6  7  2  0
  8  6  1  0
  8  9  1  0
  9 14  1  0
  9 10  1  1
 11 10  1  0
 12 11  1  0
 13 12  2  0
 14 17  1  0
 14 15  2  0
 16 12  1  0
 17 21  1  0
 18 17  1  0
 19 18  1  0
 19 20  1  0
 20 21  1  0
 21 22  1  6
 22 24  2  0
 22 23  1  0
M  END
$$$$
