TEP.pdb
     RDKit          3D

 24 24  0  0  1  0  0  0  0  0999 V2000
   18.5561  -12.5539  -15.5763 C   0  0  0  0  0  0  0  0  0  0  0  0
   17.0710  -12.5843  -15.7216 C   0  0  1  0  0  0  0  0  0  0  0  0
   16.5560  -13.7782  -15.1957 O   0  0  0  0  0  0  0  0  0  0  0  0
   16.4724  -11.3789  -15.0271 C   0  0  2  0  0  0  0  0  0  0  0  0
   15.0493  -11.3329  -15.1179 N   0  0  0  0  0  0  0  0  0  0  0  0
   17.1429  -10.1786  -15.5807 C   0  0  0  0  0  0  0  0  0  0  0  0
   16.8568   -9.9042  -16.7833 O   0  0  0  0  0  0  0  0  0  0  0  0
   18.0452   -9.3756  -14.8400 N   0  0  0  0  0  0  0  0  0  0  0  0
   18.6078   -8.2185  -15.4883 C   0  0  1  0  0  0  0  0  0  0  0  0
   17.5704   -7.2031  -15.8602 C   0  0  0  0  0  0  0  0  0  0  0  0
   16.6949   -6.7587  -14.7506 C   0  0  0  0  0  0  0  0  0  0  0  0
   16.0761   -5.4498  -15.0807 C   0  0  0  0  0  0  0  0  0  0  0  0
   16.5274   -4.3545  -14.6759 O   0  0  0  0  0  0  0  0  0  0  0  0
   19.5948   -7.6099  -14.5639 C   0  0  0  0  0  0  0  0  0  0  0  0
   19.3976   -7.7825  -13.3174 O   0  0  0  0  0  0  0  0  0  0  0  0
   14.9278   -5.4708  -15.8894 O   0  0  0  0  0  0  0  0  0  0  0  0
   20.7174   -6.8680  -14.9740 N   0  0  0  0  0  0  0  0  0  0  0  0
   21.0630   -6.3375  -16.2787 C   0  0  0  0  0  0  0  0  0  0  0  0
   22.5861   -6.1568  -16.2637 C   0  0  0  0  0  0  0  0  0  0  0  0
   22.9836   -6.8467  -14.9895 C   0  0  0  0  0  0  0  0  0  0  0  0
   21.8190   -6.4901  -14.0601 C   0  0  1  0  0  0  0  0  0  0  0  0
   21.7674   -5.0478  -13.7613 C   0  0  0  0  0  0  0  0  0  0  0  0
   20.7932   -4.2922  -14.3928 O   0  0  0  0  0  0  0  0  0  0  0  0
   22.5477   -4.4569  -12.9722 O   0  0  0  0  0  0  0  0  0  0  0  0
  2  1  1  1
  3  2  1  0
  4  5  1  6
  4  2  1  0
  4  6  1  0
  6  7  2  0
  8  6  1  0
  8  9  1  0
  9 14  1  0
  9 10  1  1
 11 10  1  0
 12 11  1  0
 13 12  2  0
 14 17  1  0
 14 15  2  0
 16 12  1  0
 17 21  1  0
 18 17  1  0
 19 18  1  0
 19 20  1  0
 20 21  1  0
 21 22  1  6
 22 24  2  0
 22 23  1  0
M  END
$$$$
