TEP.pdb
     RDKit          3D

 24 24  0  0  1  0  0  0  0  0999 V2000
   13.7370   -5.2643   -8.7862 C   0  0  0  0  0  0  0  0  0  0  0  0
   15.0099   -5.6801   -9.4453 C   0  0  1  0  0  0  0  0  0  0  0  0
   16.0695   -4.8715   -9.0087 O   0  0  0  0  0  0  0  0  0  0  0  0
   15.2783   -7.1403   -9.1460 C   0  0  2  0  0  0  0  0  0  0  0  0
   15.5725   -7.3827   -7.7712 N   0  0  0  0  0  0  0  0  0  0  0  0
   16.3475   -7.5859  -10.0708 C   0  0  0  0  0  0  0  0  0  0  0  0
   17.4779   -7.7855   -9.5363 O   0  0  0  0  0  0  0  0  0  0  0  0
   16.1479   -7.7831  -11.4595 N   0  0  0  0  0  0  0  0  0  0  0  0
   17.2513   -8.2902  -12.2349 C   0  0  1  0  0  0  0  0  0  0  0  0
   16.8052   -9.0307  -13.4588 C   0  0  0  0  0  0  0  0  0  0  0  0
   17.8917   -9.4501  -14.3747 C   0  0  0  0  0  0  0  0  0  0  0  0
   17.3248  -10.1636  -15.5472 C   0  0  0  0  0  0  0  0  0  0  0  0
   16.9442   -9.5814  -16.5880 O   0  0  0  0  0  0  0  0  0  0  0  0
   18.1019   -7.1407  -12.6278 C   0  0  0  0  0  0  0  0  0  0  0  0
   17.5357   -6.0015  -12.6906 O   0  0  0  0  0  0  0  0  0  0  0  0
   17.2219  -11.5615  -15.4570 O   0  0  0  0  0  0  0  0  0  0  0  0
   19.4731   -7.2312  -12.9281 N   0  0  0  0  0  0  0  0  0  0  0  0
   20.3287   -8.3953  -13.0549 C   0  0  0  0  0  0  0  0  0  0  0  0
   21.7561   -7.8908  -12.8085 C   0  0  0  0  0  0  0  0  0  0  0  0
   21.5265   -6.4882  -12.3213 C   0  0  0  0  0  0  0  0  0  0  0  0
   20.3306   -6.0494  -13.1725 C   0  0  1  0  0  0  0  0  0  0  0  0
   20.6728   -5.9492  -14.6026 C   0  0  0  0  0  0  0  0  0  0  0  0
   21.3660   -4.8262  -15.0233 O   0  0  0  0  0  0  0  0  0  0  0  0
   20.3781   -6.8140  -15.4663 O   0  0  0  0  0  0  0  0  0  0  0  0
  2  1  1  1
  3  2  1  0
  4  5  1  1
  4  2  1  0
  4  6  1  0
  6  7  2  0
  8  6  1  0
  8  9  1  0
  9 14  1  0
  9 10  1  6
 11 10  1  0
 12 11  1  0
 13 12  2  0
 14 17  1  0
 14 15  2  0
 16 12  1  0
 17 21  1  0
 18 17  1  0
 19 18  1  0
 19 20  1  0
 20 21  1  0
 21 22  1  6
 22 24  2  0
 22 23  1  0
M  END
$$$$
