TEP.pdb
     RDKit          3D

 24 24  0  0  1  0  0  0  0  0999 V2000
   13.7209  -11.2561  -15.7644 C   0  0  0  0  0  0  0  0  0  0  0  0
   15.1711  -11.0333  -15.4913 C   0  0  1  0  0  0  0  0  0  0  0  0
   15.3906  -10.8987  -14.1126 O   0  0  0  0  0  0  0  0  0  0  0  0
   15.9736  -12.1840  -16.0620 C   0  0  2  0  0  0  0  0  0  0  0  0
   15.7842  -13.4043  -15.3474 N   0  0  0  0  0  0  0  0  0  0  0  0
   17.3873  -11.7429  -16.1217 C   0  0  0  0  0  0  0  0  0  0  0  0
   18.1076  -12.0974  -15.1424 O   0  0  0  0  0  0  0  0  0  0  0  0
   17.9232  -10.9775  -17.1868 N   0  0  0  0  0  0  0  0  0  0  0  0
   19.2980  -10.5572  -17.0913 C   0  0  1  0  0  0  0  0  0  0  0  0
   19.8802  -10.1794  -18.4193 C   0  0  0  0  0  0  0  0  0  0  0  0
   21.2526   -9.6232  -18.3724 C   0  0  0  0  0  0  0  0  0  0  0  0
   21.6904   -9.2272  -19.7350 C   0  0  0  0  0  0  0  0  0  0  0  0
   21.3720   -8.1415  -20.2709 O   0  0  0  0  0  0  0  0  0  0  0  0
   19.3595   -9.3970  -16.1697 C   0  0  0  0  0  0  0  0  0  0  0  0
   18.3081   -8.6848  -16.0710 O   0  0  0  0  0  0  0  0  0  0  0  0
   22.5017  -10.1350  -20.4354 O   0  0  0  0  0  0  0  0  0  0  0  0
   20.4891   -9.0432  -15.4097 N   0  0  0  0  0  0  0  0  0  0  0  0
   21.8060   -9.6482  -15.3529 C   0  0  0  0  0  0  0  0  0  0  0  0
   22.3918   -9.2416  -13.9948 C   0  0  0  0  0  0  0  0  0  0  0  0
   21.2113   -8.6202  -13.3036 C   0  0  0  0  0  0  0  0  0  0  0  0
   20.5063   -7.9064  -14.4615 C   0  0  1  0  0  0  0  0  0  0  0  0
   21.3109   -6.7969  -15.0034 C   0  0  0  0  0  0  0  0  0  0  0  0
   21.3512   -5.6158  -14.2808 O   0  0  0  0  0  0  0  0  0  0  0  0
   21.9632   -6.8499  -16.0769 O   0  0  0  0  0  0  0  0  0  0  0  0
  2  1  1  1
  3  2  1  0
  4  5  1  1
  4  2  1  0
  4  6  1  0
  6  7  2  0
  8  6  1  0
  8  9  1  0
  9 14  1  0
  9 10  1  6
 11 10  1  0
 12 11  1  0
 13 12  2  0
 14 17  1  0
 14 15  2  0
 16 12  1  0
 17 21  1  0
 18 17  1  0
 19 18  1  0
 19 20  1  0
 20 21  1  0
 21 22  1  6
 22 24  2  0
 22 23  1  0
M  END
$$$$
