TEP.pdb
     RDKit          3D

 24 24  0  0  1  0  0  0  0  0999 V2000
   24.5019  -20.4195   -8.9143 C   0  0  0  0  0  0  0  0  0  0  0  0
   25.0923  -20.2033  -10.2680 C   0  0  1  0  0  0  0  0  0  0  0  0
   25.9798  -19.1176  -10.2429 O   0  0  0  0  0  0  0  0  0  0  0  0
   25.7904  -21.4687  -10.7208 C   0  0  2  0  0  0  0  0  0  0  0  0
   27.0017  -21.7218  -10.0108 N   0  0  0  0  0  0  0  0  0  0  0  0
   25.9713  -21.3659  -12.1883 C   0  0  0  0  0  0  0  0  0  0  0  0
   27.1707  -21.2601  -12.5804 O   0  0  0  0  0  0  0  0  0  0  0  0
   24.8968  -21.3822  -13.1116 N   0  0  0  0  0  0  0  0  0  0  0  0
   25.2106  -21.2880  -14.5146 C   0  0  1  0  0  0  0  0  0  0  0  0
   24.1642  -21.9160  -15.3841 C   0  0  0  0  0  0  0  0  0  0  0  0
   24.3849  -21.7727  -16.8422 C   0  0  0  0  0  0  0  0  0  0  0  0
   23.2806  -22.4230  -17.5925 C   0  0  0  0  0  0  0  0  0  0  0  0
   22.4995  -23.2568  -17.0806 O   0  0  0  0  0  0  0  0  0  0  0  0
   25.3502  -19.8520  -14.8576 C   0  0  0  0  0  0  0  0  0  0  0  0
   24.5712  -19.0400  -14.2607 O   0  0  0  0  0  0  0  0  0  0  0  0
   23.1275  -22.0665  -18.9424 O   0  0  0  0  0  0  0  0  0  0  0  0
   26.2765  -19.3415  -15.7849 N   0  0  0  0  0  0  0  0  0  0  0  0
   27.2483  -20.0296  -16.6128 C   0  0  0  0  0  0  0  0  0  0  0  0
   28.3217  -18.9864  -16.9480 C   0  0  0  0  0  0  0  0  0  0  0  0
   27.9523  -17.8390  -16.0510 C   0  0  0  0  0  0  0  0  0  0  0  0
   26.4216  -17.8974  -16.0768 C   0  0  1  0  0  0  0  0  0  0  0  0
   25.8754  -17.5847  -17.4095 C   0  0  0  0  0  0  0  0  0  0  0  0
   25.8594  -16.2574  -17.8054 O   0  0  0  0  0  0  0  0  0  0  0  0
   25.4232  -18.4411  -18.2113 O   0  0  0  0  0  0  0  0  0  0  0  0
  2  1  1  1
  3  2  1  0
  4  5  1  1
  4  2  1  0
  4  6  1  0
  6  7  2  0
  8  6  1  0
  8  9  1  0
  9 14  1  0
  9 10  1  6
 11 10  1  0
 12 11  1  0
 13 12  2  0
 14 17  1  0
 14 15  2  0
 16 12  1  0
 17 21  1  0
 18 17  1  0
 19 18  1  0
 19 20  1  0
 20 21  1  0
 21 22  1  6
 22 24  2  0
 22 23  1  0
M  END
$$$$
