TEP.pdb
     RDKit          3D

 24 24  0  0  1  0  0  0  0  0999 V2000
   38.9839   -9.6164   -9.6989 C   0  0  0  0  0  0  0  0  0  0  0  0
   38.5612   -9.4573   -8.2764 C   0  0  1  0  0  0  0  0  0  0  0  0
   37.1632   -9.3837   -8.1905 O   0  0  0  0  0  0  0  0  0  0  0  0
   39.0983  -10.6137   -7.4591 C   0  0  2  0  0  0  0  0  0  0  0  0
   38.6119  -10.6217   -6.1179 N   0  0  0  0  0  0  0  0  0  0  0  0
   40.5765  -10.5668   -7.5555 C   0  0  0  0  0  0  0  0  0  0  0  0
   41.1268   -9.5855   -6.9745 O   0  0  0  0  0  0  0  0  0  0  0  0
   41.3463  -11.5377   -8.2428 N   0  0  0  0  0  0  0  0  0  0  0  0
   42.7796  -11.3910   -8.2365 C   0  0  1  0  0  0  0  0  0  0  0  0
   43.4949  -12.7012   -8.3673 C   0  0  0  0  0  0  0  0  0  0  0  0
   44.0092  -13.2696   -7.0994 C   0  0  0  0  0  0  0  0  0  0  0  0
   44.7050  -14.5552   -7.3608 C   0  0  0  0  0  0  0  0  0  0  0  0
   45.9182  -14.7425   -7.1151 O   0  0  0  0  0  0  0  0  0  0  0  0
   43.1542  -10.5019   -9.3628 C   0  0  0  0  0  0  0  0  0  0  0  0
   42.3365  -10.4324  -10.3370 O   0  0  0  0  0  0  0  0  0  0  0  0
   43.9398  -15.5964   -7.9114 O   0  0  0  0  0  0  0  0  0  0  0  0
   44.3368   -9.7423   -9.4178 N   0  0  0  0  0  0  0  0  0  0  0  0
   45.4284   -9.6397   -8.4684 C   0  0  0  0  0  0  0  0  0  0  0  0
   46.1038   -8.2928   -8.7557 C   0  0  0  0  0  0  0  0  0  0  0  0
   45.1468   -7.6469   -9.7172 C   0  0  0  0  0  0  0  0  0  0  0  0
   44.6741   -8.8454  -10.5463 C   0  0  1  0  0  0  0  0  0  0  0  0
   45.7606   -9.4245  -11.3563 C   0  0  0  0  0  0  0  0  0  0  0  0
   46.4501  -10.5059  -10.8328 O   0  0  0  0  0  0  0  0  0  0  0  0
   46.1039   -9.0036  -12.4902 O   0  0  0  0  0  0  0  0  0  0  0  0
  2  1  1  6
  3  2  1  0
  4  5  1  1
  4  2  1  0
  4  6  1  0
  6  7  2  0
  8  6  1  0
  8  9  1  0
  9 14  1  0
  9 10  1  6
 11 10  1  0
 12 11  1  0
 13 12  2  0
 14 17  1  0
 14 15  2  0
 16 12  1  0
 17 21  1  0
 18 17  1  0
 19 18  1  0
 19 20  1  0
 20 21  1  0
 21 22  1  6
 22 24  2  0
 22 23  1  0
M  END
$$$$
