TEP.pdb
     RDKit          3D

 24 24  0  0  1  0  0  0  0  0999 V2000
   15.7569  -10.7383  -14.5959 C   0  0  0  0  0  0  0  0  0  0  0  0
   16.0200  -12.2056  -14.6690 C   0  0  1  0  0  0  0  0  0  0  0  0
   14.8744  -12.9235  -14.2960 O   0  0  0  0  0  0  0  0  0  0  0  0
   16.4594  -12.5691  -16.0721 C   0  0  2  0  0  0  0  0  0  0  0  0
   16.6164  -13.9746  -16.2605 N   0  0  0  0  0  0  0  0  0  0  0  0
   17.6864  -11.7894  -16.3609 C   0  0  0  0  0  0  0  0  0  0  0  0
   18.7622  -12.2869  -15.9153 O   0  0  0  0  0  0  0  0  0  0  0  0
   17.6861  -10.5701  -17.0824 N   0  0  0  0  0  0  0  0  0  0  0  0
   18.9446   -9.8926  -17.2638 C   0  0  1  0  0  0  0  0  0  0  0  0
   18.9058   -8.8898  -18.3766 C   0  0  0  0  0  0  0  0  0  0  0  0
   18.6710   -9.4529  -19.7268 C   0  0  0  0  0  0  0  0  0  0  0  0
   18.5696   -8.3592  -20.7261 C   0  0  0  0  0  0  0  0  0  0  0  0
   17.6823   -8.3142  -21.6081 O   0  0  0  0  0  0  0  0  0  0  0  0
   19.2875   -9.2141  -15.9906 C   0  0  0  0  0  0  0  0  0  0  0  0
   18.3154   -8.8637  -15.2459 O   0  0  0  0  0  0  0  0  0  0  0  0
   19.5301   -7.3369  -20.6554 O   0  0  0  0  0  0  0  0  0  0  0  0
   20.5993   -8.9407  -15.5624 N   0  0  0  0  0  0  0  0  0  0  0  0
   21.8703   -9.2220  -16.2017 C   0  0  0  0  0  0  0  0  0  0  0  0
   22.9074   -9.2459  -15.0719 C   0  0  0  0  0  0  0  0  0  0  0  0
   22.0483   -9.2047  -13.8399 C   0  0  0  0  0  0  0  0  0  0  0  0
   20.9120   -8.2750  -14.2776 C   0  0  1  0  0  0  0  0  0  0  0  0
   21.3799   -6.8974  -14.5129 C   0  0  0  0  0  0  0  0  0  0  0  0
   21.4774   -6.4639  -15.8249 O   0  0  0  0  0  0  0  0  0  0  0  0
   21.6964   -6.0890  -13.6035 O   0  0  0  0  0  0  0  0  0  0  0  0
  2  1  1  6
  3  2  1  0
  4  5  1  1
  4  2  1  0
  4  6  1  0
  6  7  2  0
  8  6  1  0
  8  9  1  0
  9 14  1  0
  9 10  1  6
 11 10  1  0
 12 11  1  0
 13 12  2  0
 14 17  1  0
 14 15  2  0
 16 12  1  0
 17 21  1  0
 18 17  1  0
 19 18  1  0
 19 20  1  0
 20 21  1  0
 21 22  1  6
 22 24  2  0
 22 23  1  0
M  END
$$$$
