TEP.pdb
     RDKit          3D

 24 24  0  0  1  0  0  0  0  0999 V2000
   25.9085  -10.5641  -15.3360 C   0  0  0  0  0  0  0  0  0  0  0  0
   25.9972  -11.1944  -16.6859 C   0  0  1  0  0  0  0  0  0  0  0  0
   27.0121  -12.1622  -16.7042 O   0  0  0  0  0  0  0  0  0  0  0  0
   24.6576  -11.8014  -17.0473 C   0  0  2  0  0  0  0  0  0  0  0  0
   24.6829  -12.5120  -18.2842 N   0  0  0  0  0  0  0  0  0  0  0  0
   23.6585  -10.7072  -17.0103 C   0  0  0  0  0  0  0  0  0  0  0  0
   23.6813   -9.9187  -18.0009 O   0  0  0  0  0  0  0  0  0  0  0  0
   22.7308  -10.5309  -15.9541 N   0  0  0  0  0  0  0  0  0  0  0  0
   21.7900   -9.4445  -16.0560 C   0  0  1  0  0  0  0  0  0  0  0  0
   20.4352   -9.8018  -15.5247 C   0  0  0  0  0  0  0  0  0  0  0  0
   19.7444  -10.8988  -16.2420 C   0  0  0  0  0  0  0  0  0  0  0  0
   18.4210  -11.1614  -15.6215 C   0  0  0  0  0  0  0  0  0  0  0  0
   17.3379  -10.7953  -16.1315 O   0  0  0  0  0  0  0  0  0  0  0  0
   22.3365   -8.2925  -15.2987 C   0  0  0  0  0  0  0  0  0  0  0  0
   23.1165   -8.5604  -14.3280 O   0  0  0  0  0  0  0  0  0  0  0  0
   18.4132  -11.8573  -14.4014 O   0  0  0  0  0  0  0  0  0  0  0  0
   22.0517   -6.9449  -15.5845 N   0  0  0  0  0  0  0  0  0  0  0  0
   21.0986   -6.3659  -16.5117 C   0  0  0  0  0  0  0  0  0  0  0  0
   21.6212   -4.9569  -16.8190 C   0  0  0  0  0  0  0  0  0  0  0  0
   22.9867   -4.9720  -16.1924 C   0  0  0  0  0  0  0  0  0  0  0  0
   22.7481   -5.8121  -14.9337 C   0  0  1  0  0  0  0  0  0  0  0  0
   21.8516   -5.1386  -13.9772 C   0  0  0  0  0  0  0  0  0  0  0  0
   22.4090   -4.2084  -13.1153 O   0  0  0  0  0  0  0  0  0  0  0  0
   20.6155   -5.3511  -13.8906 O   0  0  0  0  0  0  0  0  0  0  0  0
  2  1  1  1
  3  2  1  0
  4  5  1  6
  4  2  1  0
  4  6  1  0
  6  7  2  0
  8  6  1  0
  8  9  1  0
  9 14  1  0
  9 10  1  1
 11 10  1  0
 12 11  1  0
 13 12  2  0
 14 17  1  0
 14 15  2  0
 16 12  1  0
 17 21  1  0
 18 17  1  0
 19 18  1  0
 19 20  1  0
 20 21  1  0
 21 22  1  1
 22 24  2  0
 22 23  1  0
M  END
$$$$
