TEP.pdb
     RDKit          3D

 24 24  0  0  1  0  0  0  0  0999 V2000
   21.2317  -12.9442    6.6119 C   0  0  0  0  0  0  0  0  0  0  0  0
   20.3178  -11.7783    6.4308 C   0  0  1  0  0  0  0  0  0  0  0  0
   20.9804  -10.7419    5.7571 O   0  0  0  0  0  0  0  0  0  0  0  0
   19.0826  -12.2195    5.6736 C   0  0  2  0  0  0  0  0  0  0  0  0
   18.1336  -11.1693    5.4945 N   0  0  0  0  0  0  0  0  0  0  0  0
   18.5356  -13.4012    6.3817 C   0  0  0  0  0  0  0  0  0  0  0  0
   18.1930  -13.2018    7.5843 O   0  0  0  0  0  0  0  0  0  0  0  0
   18.3943  -14.6765    5.7808 N   0  0  0  0  0  0  0  0  0  0  0  0
   17.9476  -15.7674    6.6092 C   0  0  1  0  0  0  0  0  0  0  0  0
   17.0537  -16.7209    5.8763 C   0  0  0  0  0  0  0  0  0  0  0  0
   17.6334  -17.3136    4.6484 C   0  0  0  0  0  0  0  0  0  0  0  0
   16.6939  -18.3060    4.0672 C   0  0  0  0  0  0  0  0  0  0  0  0
   15.5713  -18.5601    4.5597 O   0  0  0  0  0  0  0  0  0  0  0  0
   19.1460  -16.4862    7.1056 C   0  0  0  0  0  0  0  0  0  0  0  0
   20.2442  -16.2586    6.5018 O   0  0  0  0  0  0  0  0  0  0  0  0
   17.1110  -18.9788    2.9070 O   0  0  0  0  0  0  0  0  0  0  0  0
   19.1430  -17.3873    8.1859 N   0  0  0  0  0  0  0  0  0  0  0  0
   18.0503  -17.8366    9.0269 C   0  0  0  0  0  0  0  0  0  0  0  0
   18.6996  -18.3133   10.3323 C   0  0  0  0  0  0  0  0  0  0  0  0
   20.1208  -17.8512   10.1771 C   0  0  0  0  0  0  0  0  0  0  0  0
   20.3619  -18.0670    8.6796 C   0  0  1  0  0  0  0  0  0  0  0  0
   20.3392  -19.4942    8.3127 C   0  0  0  0  0  0  0  0  0  0  0  0
   19.1989  -19.9845    7.6978 O   0  0  0  0  0  0  0  0  0  0  0  0
   21.2845  -20.2967    8.5199 O   0  0  0  0  0  0  0  0  0  0  0  0
  2  1  1  6
  3  2  1  0
  4  5  1  1
  4  2  1  0
  4  6  1  0
  6  7  2  0
  8  6  1  0
  8  9  1  0
  9 14  1  0
  9 10  1  6
 11 10  1  0
 12 11  1  0
 13 12  2  0
 14 17  1  0
 14 15  2  0
 16 12  1  0
 17 21  1  0
 18 17  1  0
 19 18  1  0
 19 20  1  0
 20 21  1  0
 21 22  1  1
 22 24  2  0
 22 23  1  0
M  END
$$$$
