AIT.pdb
     RDKit          3D

 21 20  0  0  1  0  0  0  0  0999 V2000
    6.5577  -14.9562   20.4044 C   0  0  0  0  0  0  0  0  0  0  0  0
    7.1562  -13.6709   20.8999 C   0  0  2  0  0  0  0  0  0  0  0  0
    8.0077  -13.0761   19.9188 N   0  0  0  0  0  0  0  0  0  0  0  0
    7.9529  -13.9037   22.1638 C   0  0  0  0  0  0  0  0  0  0  0  0
    9.2056  -14.1207   22.0484 O   0  0  0  0  0  0  0  0  0  0  0  0
    5.8453  -11.3105   26.4949 C   0  0  0  0  0  0  0  0  0  0  0  0
    6.8165  -11.9043   25.4860 C   0  0  0  0  0  0  0  0  0  0  0  0
    7.1268  -13.3396   25.7957 C   0  0  2  0  0  0  0  0  0  0  0  0
    7.8583  -13.3751   27.1208 C   0  0  0  0  0  0  0  0  0  0  0  0
    7.9166  -14.0432   24.7099 C   0  0  2  0  0  0  0  0  0  0  0  0
    7.3086  -13.8769   23.4169 N   0  0  0  0  0  0  0  0  0  0  0  0
    8.2398  -15.4238   25.0328 C   0  0  0  0  0  0  0  0  0  0  0  0
    7.3168  -16.2403   25.2912 O   0  0  0  0  0  0  0  0  0  0  0  0
   10.1327  -17.8763   22.8894 C   0  0  0  0  0  0  0  0  0  0  0  0
   10.7643  -17.9051   24.2621 C   0  0  1  0  0  0  0  0  0  0  0  0
   11.9669  -17.2126   24.1648 O   0  0  0  0  0  0  0  0  0  0  0  0
    9.8694  -17.3298   25.3227 C   0  0  2  0  0  0  0  0  0  0  0  0
    9.5790  -15.9248   25.0766 N   0  0  0  0  0  0  0  0  0  0  0  0
   10.4684  -17.4961   26.6917 C   0  0  0  0  0  0  0  0  0  0  0  0
   10.8861  -16.4887   27.3372 O   0  0  0  0  0  0  0  0  0  0  0  0
   10.5966  -18.7249   27.3131 O   0  0  0  0  0  0  0  0  0  0  0  0
  2  1  1  6
  3  2  1  0
  4  2  1  0
  5  4  2  0
  7  8  1  0
  7  6  1  0
  8 10  1  0
  8  9  1  1
 10 12  1  0
 10 11  1  6
 11  4  1  0
 12 13  2  0
 15 14  1  6
 15 16  1  0
 17 15  1  0
 17 18  1  6
 18 12  1  0
 19 21  1  0
 19 17  1  0
 20 19  2  0
M  END
$$$$
