AIT.pdb
     RDKit          3D

 21 20  0  0  1  0  0  0  0  0999 V2000
    6.1862  -15.9048   20.8628 C   0  0  0  0  0  0  0  0  0  0  0  0
    6.7280  -14.5129   21.0207 C   0  0  2  0  0  0  0  0  0  0  0  0
    7.4255  -14.0853   19.8494 N   0  0  0  0  0  0  0  0  0  0  0  0
    7.6649  -14.4344   22.2050 C   0  0  0  0  0  0  0  0  0  0  0  0
    8.9175  -14.5418   21.9834 O   0  0  0  0  0  0  0  0  0  0  0  0
    5.8509  -11.3710   26.4482 C   0  0  0  0  0  0  0  0  0  0  0  0
    6.7017  -12.0443   25.3821 C   0  0  0  0  0  0  0  0  0  0  0  0
    7.1287  -13.4203   25.8029 C   0  0  2  0  0  0  0  0  0  0  0  0
    7.9506  -13.2791   27.0665 C   0  0  0  0  0  0  0  0  0  0  0  0
    7.8873  -14.1798   24.7326 C   0  0  2  0  0  0  0  0  0  0  0  0
    7.1458  -14.2484   23.5019 N   0  0  0  0  0  0  0  0  0  0  0  0
    8.3927  -15.4660   25.1853 C   0  0  0  0  0  0  0  0  0  0  0  0
    7.5982  -16.3218   25.6563 O   0  0  0  0  0  0  0  0  0  0  0  0
   12.0322  -18.8820   25.0809 C   0  0  0  0  0  0  0  0  0  0  0  0
   11.5564  -17.4751   24.8008 C   0  0  1  0  0  0  0  0  0  0  0  0
   11.5018  -17.3382   23.4174 O   0  0  0  0  0  0  0  0  0  0  0  0
   10.2348  -17.1720   25.4474 C   0  0  2  0  0  0  0  0  0  0  0  0
    9.7753  -15.8285   25.1271 N   0  0  0  0  0  0  0  0  0  0  0  0
   10.3040  -17.3468   26.9392 C   0  0  0  0  0  0  0  0  0  0  0  0
   10.1492  -18.4917   27.4601 O   0  0  0  0  0  0  0  0  0  0  0  0
   10.5345  -16.2977   27.8102 O   0  0  0  0  0  0  0  0  0  0  0  0
  2  1  1  6
  3  2  1  0
  4  2  1  0
  5  4  2  0
  7  8  1  0
  7  6  1  0
  8 10  1  0
  8  9  1  1
 10 12  1  0
 10 11  1  6
 11  4  1  0
 12 13  2  0
 15 14  1  6
 15 16  1  0
 17 15  1  0
 17 18  1  1
 18 12  1  0
 19 21  1  0
 19 17  1  0
 20 19  2  0
M  END
$$$$
