AIT.pdb
     RDKit          3D

 21 20  0  0  1  0  0  0  0  0999 V2000
    6.4463  -15.2601   20.5071 C   0  0  0  0  0  0  0  0  0  0  0  0
    7.0599  -13.9473   20.9018 C   0  0  2  0  0  0  0  0  0  0  0  0
    7.9180  -13.4403   19.8782 N   0  0  0  0  0  0  0  0  0  0  0  0
    7.8540  -14.0906   22.1806 C   0  0  0  0  0  0  0  0  0  0  0  0
    9.1070  -14.3145   22.0832 O   0  0  0  0  0  0  0  0  0  0  0  0
    5.8535  -11.2386   26.4514 C   0  0  0  0  0  0  0  0  0  0  0  0
    6.7488  -11.9146   25.4242 C   0  0  0  0  0  0  0  0  0  0  0  0
    7.0185  -13.3468   25.7829 C   0  0  2  0  0  0  0  0  0  0  0  0
    7.7323  -13.3586   27.1180 C   0  0  0  0  0  0  0  0  0  0  0  0
    7.8034  -14.1040   24.7302 C   0  0  2  0  0  0  0  0  0  0  0  0
    7.2071  -13.9766   23.4274 N   0  0  0  0  0  0  0  0  0  0  0  0
    8.1008  -15.4767   25.1073 C   0  0  0  0  0  0  0  0  0  0  0  0
    7.1605  -16.2831   25.3330 O   0  0  0  0  0  0  0  0  0  0  0  0
   10.0348  -17.8985   23.0774 C   0  0  0  0  0  0  0  0  0  0  0  0
   10.6099  -17.9838   24.4724 C   0  0  1  0  0  0  0  0  0  0  0  0
   11.8472  -17.3487   24.4355 O   0  0  0  0  0  0  0  0  0  0  0  0
    9.7027  -17.3858   25.5096 C   0  0  2  0  0  0  0  0  0  0  0  0
    9.4328  -15.9807   25.2418 N   0  0  0  0  0  0  0  0  0  0  0  0
   10.2748  -17.5424   26.8912 C   0  0  0  0  0  0  0  0  0  0  0  0
   10.6931  -16.5321   27.5320 O   0  0  0  0  0  0  0  0  0  0  0  0
   10.3768  -18.7648   27.5297 O   0  0  0  0  0  0  0  0  0  0  0  0
  2  1  1  6
  3  2  1  0
  4  2  1  0
  5  4  2  0
  7  8  1  0
  7  6  1  0
  8 10  1  0
  8  9  1  1
 10 12  1  0
 10 11  1  6
 11  4  1  0
 12 13  2  0
 15 14  1  6
 15 16  1  0
 17 15  1  0
 17 18  1  6
 18 12  1  0
 19 21  1  0
 19 17  1  0
 20 19  2  0
M  END
$$$$
