AIT.pdb
     RDKit          3D

 21 20  0  0  1  0  0  0  0  0999 V2000
    5.3662  -17.2243   22.2231 C   0  0  0  0  0  0  0  0  0  0  0  0
    5.7319  -15.7933   21.9511 C   0  0  2  0  0  0  0  0  0  0  0  0
    6.0057  -15.5758   20.5659 N   0  0  0  0  0  0  0  0  0  0  0  0
    6.9436  -15.3876   22.7597 C   0  0  0  0  0  0  0  0  0  0  0  0
    8.0799  -15.3966   22.1779 O   0  0  0  0  0  0  0  0  0  0  0  0
    5.9250  -11.7523   26.7328 C   0  0  0  0  0  0  0  0  0  0  0  0
    6.6822  -12.4741   25.6287 C   0  0  0  0  0  0  0  0  0  0  0  0
    7.3186  -13.7378   26.1293 C   0  0  2  0  0  0  0  0  0  0  0  0
    8.4224  -13.3464   27.0888 C   0  0  0  0  0  0  0  0  0  0  0  0
    7.8387  -14.6394   25.0274 C   0  0  2  0  0  0  0  0  0  0  0  0
    6.7958  -15.0159   24.1110 N   0  0  0  0  0  0  0  0  0  0  0  0
    8.6199  -15.7626   25.5203 C   0  0  0  0  0  0  0  0  0  0  0  0
    8.0818  -16.6213   26.2677 O   0  0  0  0  0  0  0  0  0  0  0  0
   12.4603  -18.7787   24.5614 C   0  0  0  0  0  0  0  0  0  0  0  0
   11.7389  -17.4650   24.3669 C   0  0  1  0  0  0  0  0  0  0  0  0
   11.2293  -17.4752   23.0724 O   0  0  0  0  0  0  0  0  0  0  0  0
   10.6641  -17.2382   25.3915 C   0  0  2  0  0  0  0  0  0  0  0  0
   10.0004  -15.9569   25.1997 N   0  0  0  0  0  0  0  0  0  0  0  0
   11.2141  -17.3252   26.7882 C   0  0  0  0  0  0  0  0  0  0  0  0
   11.6239  -16.2842   27.3836 O   0  0  0  0  0  0  0  0  0  0  0  0
   11.3039  -18.5138   27.4892 O   0  0  0  0  0  0  0  0  0  0  0  0
  2  1  1  6
  3  2  1  0
  4  2  1  0
  5  4  2  0
  7  8  1  0
  7  6  1  0
  8 10  1  0
  8  9  1  1
 10 12  1  0
 10 11  1  1
 11  4  1  0
 12 13  2  0
 15 14  1  1
 15 16  1  0
 17 15  1  0
 17 18  1  6
 18 12  1  0
 19 21  1  0
 19 17  1  0
 20 19  2  0
M  END
$$$$
