AIT.pdb
     RDKit          3D

 21 20  0  0  1  0  0  0  0  0999 V2000
    6.3647  -15.8875   20.8815 C   0  0  0  0  0  0  0  0  0  0  0  0
    6.9979  -14.5441   21.1048 C   0  0  2  0  0  0  0  0  0  0  0  0
    7.7876  -14.1432   19.9836 N   0  0  0  0  0  0  0  0  0  0  0  0
    7.8724  -14.5630   22.3383 C   0  0  0  0  0  0  0  0  0  0  0  0
    9.1285  -14.7238   22.1772 O   0  0  0  0  0  0  0  0  0  0  0  0
    6.0806  -11.4261   26.4432 C   0  0  0  0  0  0  0  0  0  0  0  0
    6.9726  -12.1676   25.4593 C   0  0  0  0  0  0  0  0  0  0  0  0
    7.2478  -13.5718   25.9121 C   0  0  2  0  0  0  0  0  0  0  0  0
    8.0282  -13.4916   27.2069 C   0  0  0  0  0  0  0  0  0  0  0  0
    7.9719  -14.4162   24.8823 C   0  0  2  0  0  0  0  0  0  0  0  0
    7.2938  -14.4060   23.6137 N   0  0  0  0  0  0  0  0  0  0  0  0
    8.3046  -15.7493   25.3587 C   0  0  0  0  0  0  0  0  0  0  0  0
    7.3880  -16.5335   25.7197 O   0  0  0  0  0  0  0  0  0  0  0  0
   10.3023  -18.3264   23.4674 C   0  0  0  0  0  0  0  0  0  0  0  0
   10.8697  -18.2771   24.8674 C   0  0  1  0  0  0  0  0  0  0  0  0
   12.0959  -17.6258   24.7802 O   0  0  0  0  0  0  0  0  0  0  0  0
    9.9454  -17.6056   25.8427 C   0  0  2  0  0  0  0  0  0  0  0  0
    9.6464  -16.2376   25.4452 N   0  0  0  0  0  0  0  0  0  0  0  0
   10.5150  -17.6211   27.2341 C   0  0  0  0  0  0  0  0  0  0  0  0
   10.9065  -16.5466   27.7803 O   0  0  0  0  0  0  0  0  0  0  0  0
   10.6432  -18.7770   27.9823 O   0  0  0  0  0  0  0  0  0  0  0  0
  2  1  1  6
  3  2  1  0
  4  2  1  0
  5  4  2  0
  7  8  1  0
  7  6  1  0
  8 10  1  0
  8  9  1  1
 10 12  1  0
 10 11  1  6
 11  4  1  0
 12 13  2  0
 15 14  1  6
 15 16  1  0
 17 15  1  0
 17 18  1  6
 18 12  1  0
 19 21  1  0
 19 17  1  0
 20 19  2  0
M  END
$$$$
