AIT.pdb
     RDKit          3D

 21 20  0  0  1  0  0  0  0  0999 V2000
    6.5530  -15.3010   20.4759 C   0  0  0  0  0  0  0  0  0  0  0  0
    7.0882  -13.9443   20.8346 C   0  0  2  0  0  0  0  0  0  0  0  0
    7.9229  -13.4194   19.8007 N   0  0  0  0  0  0  0  0  0  0  0  0
    7.8806  -14.0045   22.1210 C   0  0  0  0  0  0  0  0  0  0  0  0
    9.1456  -14.1534   22.0365 O   0  0  0  0  0  0  0  0  0  0  0  0
    5.8861  -11.1131   26.3438 C   0  0  0  0  0  0  0  0  0  0  0  0
    6.7646  -11.8195   25.3224 C   0  0  0  0  0  0  0  0  0  0  0  0
    7.0260  -13.2456   25.7099 C   0  0  2  0  0  0  0  0  0  0  0  0
    7.7462  -13.2344   27.0416 C   0  0  0  0  0  0  0  0  0  0  0  0
    7.8005  -14.0304   24.6698 C   0  0  2  0  0  0  0  0  0  0  0  0
    7.2192  -13.8973   23.3608 N   0  0  0  0  0  0  0  0  0  0  0  0
    8.0592  -15.4075   25.0593 C   0  0  0  0  0  0  0  0  0  0  0  0
    7.0968  -16.1828   25.3000 O   0  0  0  0  0  0  0  0  0  0  0  0
    9.8337  -18.0376   23.0957 C   0  0  0  0  0  0  0  0  0  0  0  0
   10.4738  -18.0138   24.4647 C   0  0  1  0  0  0  0  0  0  0  0  0
   11.6974  -17.3669   24.3239 O   0  0  0  0  0  0  0  0  0  0  0  0
    9.6055  -17.3541   25.4977 C   0  0  2  0  0  0  0  0  0  0  0  0
    9.3764  -15.9499   25.1899 N   0  0  0  0  0  0  0  0  0  0  0  0
   10.1975  -17.4861   26.8736 C   0  0  0  0  0  0  0  0  0  0  0  0
   10.6359  -16.4663   27.4852 O   0  0  0  0  0  0  0  0  0  0  0  0
   10.2970  -18.6951   27.5374 O   0  0  0  0  0  0  0  0  0  0  0  0
  2  1  1  6
  3  2  1  0
  4  2  1  0
  5  4  2  0
  7  8  1  0
  7  6  1  0
  8 10  1  0
  8  9  1  1
 10 12  1  0
 10 11  1  6
 11  4  1  0
 12 13  2  0
 15 14  1  6
 15 16  1  0
 17 15  1  0
 17 18  1  6
 18 12  1  0
 19 21  1  0
 19 17  1  0
 20 19  2  0
M  END
$$$$
