AIT.pdb
     RDKit          3D

 21 20  0  0  1  0  0  0  0  0999 V2000
    7.4910  -19.2086   18.0254 C   0  0  0  0  0  0  0  0  0  0  0  0
    8.0119  -17.9523   17.3881 C   0  0  2  0  0  0  0  0  0  0  0  0
    8.8452  -18.2407   16.2639 N   0  0  0  0  0  0  0  0  0  0  0  0
    8.8003  -17.1335   18.3852 C   0  0  0  0  0  0  0  0  0  0  0  0
   10.0737  -17.2169   18.3522 O   0  0  0  0  0  0  0  0  0  0  0  0
    6.8844  -12.1898   19.9653 C   0  0  0  0  0  0  0  0  0  0  0  0
    7.8512  -13.3192   19.6439 C   0  0  0  0  0  0  0  0  0  0  0  0
    7.8908  -14.3424   20.7411 C   0  0  2  0  0  0  0  0  0  0  0  0
    8.4159  -13.6597   21.9862 C   0  0  0  0  0  0  0  0  0  0  0  0
    8.7066  -15.5738   20.4007 C   0  0  2  0  0  0  0  0  0  0  0  0
    8.1263  -16.3123   19.3113 N   0  0  0  0  0  0  0  0  0  0  0  0
    9.0279  -16.3925   21.5589 C   0  0  0  0  0  0  0  0  0  0  0  0
    8.1118  -17.0055   22.1675 O   0  0  0  0  0  0  0  0  0  0  0  0
   11.9780  -19.5324   23.7627 C   0  0  0  0  0  0  0  0  0  0  0  0
   11.6147  -18.5599   22.6642 C   0  0  1  0  0  0  0  0  0  0  0  0
   11.0735  -19.3116   21.6262 O   0  0  0  0  0  0  0  0  0  0  0  0
   10.6730  -17.4864   23.1303 C   0  0  2  0  0  0  0  0  0  0  0  0
   10.3575  -16.5480   22.0633 N   0  0  0  0  0  0  0  0  0  0  0  0
   11.2315  -16.7463   24.3139 C   0  0  0  0  0  0  0  0  0  0  0  0
   11.9439  -15.7115   24.1471 O   0  0  0  0  0  0  0  0  0  0  0  0
   11.0081  -17.1386   25.6210 O   0  0  0  0  0  0  0  0  0  0  0  0
  2  1  1  1
  3  2  1  0
  4  2  1  0
  5  4  2  0
  7  8  1  0
  7  6  1  0
  8 10  1  0
  8  9  1  1
 10 12  1  0
 10 11  1  6
 11  4  1  0
 12 13  2  0
 15 14  1  1
 15 16  1  0
 17 15  1  0
 17 18  1  6
 18 12  1  0
 19 21  1  0
 19 17  1  0
 20 19  2  0
M  END
$$$$
