AIT.pdb
     RDKit          3D

 21 20  0  0  1  0  0  0  0  0999 V2000
    6.4670  -16.0365   20.9016 C   0  0  0  0  0  0  0  0  0  0  0  0
    7.0868  -14.6824   21.0964 C   0  0  2  0  0  0  0  0  0  0  0  0
    7.9139  -14.3197   19.9893 N   0  0  0  0  0  0  0  0  0  0  0  0
    7.9173  -14.6507   22.3596 C   0  0  0  0  0  0  0  0  0  0  0  0
    9.1683  -14.8832   22.2576 O   0  0  0  0  0  0  0  0  0  0  0  0
    5.8222  -11.4232   26.2874 C   0  0  0  0  0  0  0  0  0  0  0  0
    6.7833  -12.1427   25.3534 C   0  0  0  0  0  0  0  0  0  0  0  0
    7.1522  -13.4997   25.8776 C   0  0  2  0  0  0  0  0  0  0  0  0
    7.9236  -13.2999   27.1650 C   0  0  0  0  0  0  0  0  0  0  0  0
    7.9332  -14.3454   24.8914 C   0  0  2  0  0  0  0  0  0  0  0  0
    7.3049  -14.3709   23.5977 N   0  0  0  0  0  0  0  0  0  0  0  0
    8.2748  -15.6629   25.4036 C   0  0  0  0  0  0  0  0  0  0  0  0
    7.3613  -16.4624   25.7377 O   0  0  0  0  0  0  0  0  0  0  0  0
   10.3176  -18.2327   23.6212 C   0  0  0  0  0  0  0  0  0  0  0  0
   10.8731  -18.1541   25.0245 C   0  0  1  0  0  0  0  0  0  0  0  0
   12.0937  -17.4923   24.9360 O   0  0  0  0  0  0  0  0  0  0  0  0
    9.9345  -17.4752   25.9809 C   0  0  2  0  0  0  0  0  0  0  0  0
    9.6223  -16.1186   25.5556 N   0  0  0  0  0  0  0  0  0  0  0  0
   10.4949  -17.4577   27.3760 C   0  0  0  0  0  0  0  0  0  0  0  0
   10.6614  -18.5393   28.0154 O   0  0  0  0  0  0  0  0  0  0  0  0
   10.8529  -16.2924   28.0289 O   0  0  0  0  0  0  0  0  0  0  0  0
  2  1  1  6
  3  2  1  0
  4  2  1  0
  5  4  2  0
  7  8  1  0
  7  6  1  0
  8 10  1  0
  8  9  1  1
 10 12  1  0
 10 11  1  6
 11  4  1  0
 12 13  2  0
 15 14  1  6
 15 16  1  0
 17 15  1  0
 17 18  1  6
 18 12  1  0
 19 21  1  0
 19 17  1  0
 20 19  2  0
M  END
$$$$
