AIT.pdb
     RDKit          3D

 21 20  0  0  1  0  0  0  0  0999 V2000
    6.2071  -15.7109   20.8350 C   0  0  0  0  0  0  0  0  0  0  0  0
    6.8529  -14.3625   20.9788 C   0  0  2  0  0  0  0  0  0  0  0  0
    7.6227  -14.0237   19.8239 N   0  0  0  0  0  0  0  0  0  0  0  0
    7.7513  -14.3263   22.1945 C   0  0  0  0  0  0  0  0  0  0  0  0
    9.0127  -14.3812   22.0065 O   0  0  0  0  0  0  0  0  0  0  0  0
    5.8637  -11.3934   26.4175 C   0  0  0  0  0  0  0  0  0  0  0  0
    6.7402  -12.0716   25.3756 C   0  0  0  0  0  0  0  0  0  0  0  0
    7.1343  -13.4559   25.8007 C   0  0  2  0  0  0  0  0  0  0  0  0
    7.9442  -13.3316   27.0738 C   0  0  0  0  0  0  0  0  0  0  0  0
    7.8896  -14.2306   24.7391 C   0  0  2  0  0  0  0  0  0  0  0  0
    7.1883  -14.2347   23.4832 N   0  0  0  0  0  0  0  0  0  0  0  0
    8.3133  -15.5505   25.1786 C   0  0  0  0  0  0  0  0  0  0  0  0
    7.5072  -16.2947   25.7965 O   0  0  0  0  0  0  0  0  0  0  0  0
   10.3508  -18.2010   23.0349 C   0  0  0  0  0  0  0  0  0  0  0  0
   10.9555  -18.0536   24.4122 C   0  0  1  0  0  0  0  0  0  0  0  0
   12.1339  -17.3304   24.2574 O   0  0  0  0  0  0  0  0  0  0  0  0
   10.0194  -17.3993   25.3879 C   0  0  2  0  0  0  0  0  0  0  0  0
    9.6259  -16.0694   24.9459 N   0  0  0  0  0  0  0  0  0  0  0  0
   10.6275  -17.3229   26.7608 C   0  0  0  0  0  0  0  0  0  0  0  0
   10.9300  -16.2017   27.2683 O   0  0  0  0  0  0  0  0  0  0  0  0
   10.8868  -18.4407   27.5326 O   0  0  0  0  0  0  0  0  0  0  0  0
  2  1  1  6
  3  2  1  0
  4  2  1  0
  5  4  2  0
  7  8  1  0
  7  6  1  0
  8 10  1  0
  8  9  1  1
 10 12  1  0
 10 11  1  6
 11  4  1  0
 12 13  2  0
 15 14  1  6
 15 16  1  0
 17 15  1  0
 17 18  1  6
 18 12  1  0
 19 21  1  0
 19 17  1  0
 20 19  2  0
M  END
$$$$
