AIT.pdb
     RDKit          3D

 21 20  0  0  1  0  0  0  0  0999 V2000
    5.8918  -16.3408   21.1791 C   0  0  0  0  0  0  0  0  0  0  0  0
    6.4561  -14.9500   21.2315 C   0  0  2  0  0  0  0  0  0  0  0  0
    7.0592  -14.5812   19.9899 N   0  0  0  0  0  0  0  0  0  0  0  0
    7.4871  -14.8317   22.3313 C   0  0  0  0  0  0  0  0  0  0  0  0
    8.7162  -14.9676   22.0145 O   0  0  0  0  0  0  0  0  0  0  0  0
    5.8451  -11.5829   26.4402 C   0  0  0  0  0  0  0  0  0  0  0  0
    6.6956  -12.2726   25.3845 C   0  0  0  0  0  0  0  0  0  0  0  0
    7.2420  -13.5791   25.8814 C   0  0  2  0  0  0  0  0  0  0  0  0
    8.1872  -13.2758   27.0246 C   0  0  0  0  0  0  0  0  0  0  0  0
    7.9211  -14.4064   24.8080 C   0  0  2  0  0  0  0  0  0  0  0  0
    7.0774  -14.5794   23.6560 N   0  0  0  0  0  0  0  0  0  0  0  0
    8.4914  -15.6469   25.3089 C   0  0  0  0  0  0  0  0  0  0  0  0
    7.7332  -16.5847   25.6712 O   0  0  0  0  0  0  0  0  0  0  0  0
    8.8021  -18.0130   23.8182 C   0  0  0  0  0  0  0  0  0  0  0  0
   10.2475  -18.0005   24.2598 C   0  0  1  0  0  0  0  0  0  0  0  0
   10.9869  -17.4908   23.1973 O   0  0  0  0  0  0  0  0  0  0  0  0
   10.4602  -17.2126   25.5209 C   0  0  2  0  0  0  0  0  0  0  0  0
    9.8996  -15.8731   25.4187 N   0  0  0  0  0  0  0  0  0  0  0  0
   11.9194  -17.1308   25.8741 C   0  0  0  0  0  0  0  0  0  0  0  0
   12.5647  -18.1759   26.1862 O   0  0  0  0  0  0  0  0  0  0  0  0
   12.6271  -15.9427   25.8798 O   0  0  0  0  0  0  0  0  0  0  0  0
  2  1  1  6
  3  2  1  0
  4  2  1  0
  5  4  2  0
  7  8  1  0
  7  6  1  0
  8 10  1  0
  8  9  1  1
 10 12  1  0
 10 11  1  6
 11  4  1  0
 12 13  2  0
 15 14  1  6
 15 16  1  0
 17 15  1  0
 17 18  1  6
 18 12  1  0
 19 21  1  0
 19 17  1  0
 20 19  2  0
M  END
$$$$
