AIT.pdb
     RDKit          3D

 21 20  0  0  1  0  0  0  0  0999 V2000
    6.1813  -16.5097   21.3268 C   0  0  0  0  0  0  0  0  0  0  0  0
    6.6484  -15.0832   21.3784 C   0  0  2  0  0  0  0  0  0  0  0  0
    7.2922  -14.6976   20.1627 N   0  0  0  0  0  0  0  0  0  0  0  0
    7.6080  -14.8755   22.5284 C   0  0  0  0  0  0  0  0  0  0  0  0
    8.8589  -14.9193   22.2774 O   0  0  0  0  0  0  0  0  0  0  0  0
    5.9546  -11.3769   26.3310 C   0  0  0  0  0  0  0  0  0  0  0  0
    6.7808  -12.2199   25.3716 C   0  0  0  0  0  0  0  0  0  0  0  0
    7.1993  -13.5187   25.9964 C   0  0  2  0  0  0  0  0  0  0  0  0
    8.0957  -13.1940   27.1725 C   0  0  0  0  0  0  0  0  0  0  0  0
    7.8771  -14.4716   25.0319 C   0  0  2  0  0  0  0  0  0  0  0  0
    7.1111  -14.6431   23.8266 N   0  0  0  0  0  0  0  0  0  0  0  0
    8.2878  -15.7229   25.6488 C   0  0  0  0  0  0  0  0  0  0  0  0
    7.4513  -16.4094   26.2925 O   0  0  0  0  0  0  0  0  0  0  0  0
   10.4427  -18.3842   23.7546 C   0  0  0  0  0  0  0  0  0  0  0  0
   10.9504  -18.2520   25.1720 C   0  0  1  0  0  0  0  0  0  0  0  0
   12.1654  -17.5779   25.1014 O   0  0  0  0  0  0  0  0  0  0  0  0
    9.9727  -17.5540   26.0738 C   0  0  2  0  0  0  0  0  0  0  0  0
    9.6208  -16.2356   25.5670 N   0  0  0  0  0  0  0  0  0  0  0  0
   10.5084  -17.4375   27.4739 C   0  0  0  0  0  0  0  0  0  0  0  0
   10.8242  -16.3059   27.9492 O   0  0  0  0  0  0  0  0  0  0  0  0
   10.6844  -18.5281   28.3057 O   0  0  0  0  0  0  0  0  0  0  0  0
  2  1  1  6
  3  2  1  0
  4  2  1  0
  5  4  2  0
  7  8  1  0
  7  6  1  0
  8 10  1  0
  8  9  1  1
 10 12  1  0
 10 11  1  6
 11  4  1  0
 12 13  2  0
 15 14  1  6
 15 16  1  0
 17 15  1  0
 17 18  1  6
 18 12  1  0
 19 21  1  0
 19 17  1  0
 20 19  2  0
M  END
$$$$
