VWS.pdb
     RDKit          3D

 28 29  0  0  1  0  0  0  0  0999 V2000
    8.8604  -17.9605   20.1152 C   0  0  0  0  0  0  0  0  0  0  0  0
    8.0097  -16.7909   19.6747 C   0  0  1  0  0  0  0  0  0  0  0  0
    7.0778  -17.3039   18.6009 C   0  0  0  0  0  0  0  0  0  0  0  0
    7.2511  -16.2977   20.8862 C   0  0  2  0  0  0  0  0  0  0  0  0
    6.3363  -15.2410   20.4894 N   0  0  0  0  0  0  0  0  0  0  0  0
    8.1725  -15.7476   21.9201 C   0  0  0  0  0  0  0  0  0  0  0  0
    8.7242  -14.6396   21.7316 O   0  0  0  0  0  0  0  0  0  0  0  0
    8.4566  -16.4378   23.1336 N   0  0  0  0  0  0  0  0  0  0  0  0
    9.4308  -16.1156   24.1169 C   0  0  1  0  0  0  0  0  0  0  0  0
    8.9567  -16.0047   25.5149 C   0  0  0  0  0  0  0  0  0  0  0  0
    7.7269  -15.2361   25.6915 C   0  0  0  0  0  0  0  0  0  0  0  0
    6.4248  -15.6302   25.5900 C   0  0  0  0  0  0  0  0  0  0  0  0
    5.6306  -14.5451   25.8171 N   0  0  0  0  0  0  0  0  0  0  0  0
    6.3746  -13.4548   26.0636 C   0  0  0  0  0  0  0  0  0  0  0  0
    6.0387  -12.1390   26.3412 C   0  0  0  0  0  0  0  0  0  0  0  0
    7.0241  -11.1998   26.5528 C   0  0  0  0  0  0  0  0  0  0  0  0
    8.3546  -11.5950   26.4829 C   0  0  0  0  0  0  0  0  0  0  0  0
    8.6503  -12.8980   26.2071 C   0  0  0  0  0  0  0  0  0  0  0  0
    7.6864  -13.8698   25.9884 C   0  0  0  0  0  0  0  0  0  0  0  0
   10.7365  -16.8248   23.9799 C   0  0  0  0  0  0  0  0  0  0  0  0
   10.8151  -18.0032   24.3690 O   0  0  0  0  0  0  0  0  0  0  0  0
   14.1901  -15.2165   22.0825 O   0  0  0  0  0  0  0  0  0  0  0  0
   13.7927  -16.5474   22.0461 C   0  0  0  0  0  0  0  0  0  0  0  0
   13.1519  -17.0083   23.3270 C   0  0  2  0  0  0  0  0  0  0  0  0
   11.8871  -16.2502   23.4405 N   0  0  0  0  0  0  0  0  0  0  0  0
   14.0056  -16.7232   24.5105 C   0  0  0  0  0  0  0  0  0  0  0  0
   13.5084  -15.9026   25.4997 O   0  0  0  0  0  0  0  0  0  0  0  0
   15.1328  -17.2203   24.5900 O   0  0  0  0  0  0  0  0  0  0  0  0
  2  1  1  1
  3  2  1  0
  4  2  1  0
  4  5  1  6
  6  4  1  0
  7  6  2  0
  8  6  1  0
  9  8  1  0
  9 10  1  1
 10 11  1  0
 11 19  1  0
 11 12  2  0
 12 13  1  0
 14 13  1  0
 14 15  2  0
 16 15  1  0
 17 16  2  0
 18 19  2  0
 18 17  1  0
 19 14  1  0
 20 25  1  0
 20  9  1  0
 21 20  2  0
 24 23  1  6
 23 22  1  0
 24 26  1  0
 24 25  1  0
 26 27  1  0
 28 26  2  0
M  END
$$$$
