VWS.pdb
     RDKit          3D

 28 29  0  0  1  0  0  0  0  0999 V2000
    8.8529  -17.4469   19.6116 C   0  0  0  0  0  0  0  0  0  0  0  0
    8.0351  -16.2146   19.2981 C   0  0  1  0  0  0  0  0  0  0  0  0
    7.1986  -16.5390   18.0817 C   0  0  0  0  0  0  0  0  0  0  0  0
    7.1757  -15.9188   20.5065 C   0  0  2  0  0  0  0  0  0  0  0  0
    6.2749  -14.8195   20.2045 N   0  0  0  0  0  0  0  0  0  0  0  0
    8.0035  -15.5286   21.6824 C   0  0  0  0  0  0  0  0  0  0  0  0
    8.5477  -14.4013   21.7101 O   0  0  0  0  0  0  0  0  0  0  0  0
    8.2050  -16.3954   22.7950 N   0  0  0  0  0  0  0  0  0  0  0  0
    9.0863  -16.2173   23.8955 C   0  0  1  0  0  0  0  0  0  0  0  0
    8.4876  -16.2849   25.2478 C   0  0  0  0  0  0  0  0  0  0  0  0
    7.4016  -15.3383   25.4909 C   0  0  0  0  0  0  0  0  0  0  0  0
    6.0526  -15.5025   25.3712 C   0  0  0  0  0  0  0  0  0  0  0  0
    5.4485  -14.3208   25.6847 N   0  0  0  0  0  0  0  0  0  0  0  0
    6.3620  -13.3903   26.0052 C   0  0  0  0  0  0  0  0  0  0  0  0
    6.2479  -12.0614   26.3825 C   0  0  0  0  0  0  0  0  0  0  0  0
    7.3746  -11.3169   26.6551 C   0  0  0  0  0  0  0  0  0  0  0  0
    8.6214  -11.9209   26.5450 C   0  0  0  0  0  0  0  0  0  0  0  0
    8.6979  -13.2307   26.1710 C   0  0  0  0  0  0  0  0  0  0  0  0
    7.5871  -14.0102   25.8887 C   0  0  0  0  0  0  0  0  0  0  0  0
   10.3986  -16.9189   23.7840 C   0  0  0  0  0  0  0  0  0  0  0  0
   10.4016  -18.1302   23.5033 O   0  0  0  0  0  0  0  0  0  0  0  0
   14.2127  -16.1532   21.9764 O   0  0  0  0  0  0  0  0  0  0  0  0
   13.9078  -16.0270   23.3262 C   0  0  0  0  0  0  0  0  0  0  0  0
   12.9043  -17.0416   23.8030 C   0  0  2  0  0  0  0  0  0  0  0  0
   11.6349  -16.3026   23.9758 N   0  0  0  0  0  0  0  0  0  0  0  0
   13.3013  -17.6499   25.1004 C   0  0  0  0  0  0  0  0  0  0  0  0
   14.4207  -18.4529   25.1369 O   0  0  0  0  0  0  0  0  0  0  0  0
   12.6320  -17.4289   26.1138 O   0  0  0  0  0  0  0  0  0  0  0  0
  2  1  1  1
  3  2  1  0
  4  2  1  0
  4  5  1  6
  6  4  1  0
  7  6  2  0
  8  6  1  0
  9  8  1  0
  9 10  1  1
 10 11  1  0
 11 19  1  0
 11 12  2  0
 12 13  1  0
 14 13  1  0
 14 15  2  0
 16 15  1  0
 17 16  2  0
 18 19  2  0
 18 17  1  0
 19 14  1  0
 20 25  1  0
 20  9  1  0
 21 20  2  0
 24 23  1  1
 23 22  1  0
 24 26  1  0
 24 25  1  0
 26 27  1  0
 28 26  2  0
M  END
$$$$
