VWS.pdb
     RDKit          3D

 28 29  0  0  1  0  0  0  0  0999 V2000
    8.5572  -16.8996   19.4071 C   0  0  0  0  0  0  0  0  0  0  0  0
    8.1760  -15.4579   19.1584 C   0  0  1  0  0  0  0  0  0  0  0  0
    7.3310  -15.4358   17.9053 C   0  0  0  0  0  0  0  0  0  0  0  0
    7.4017  -14.9770   20.3649 C   0  0  2  0  0  0  0  0  0  0  0  0
    6.8493  -13.6607   20.0943 N   0  0  0  0  0  0  0  0  0  0  0  0
    8.2750  -14.8737   21.5679 C   0  0  0  0  0  0  0  0  0  0  0  0
    9.0806  -13.9205   21.6685 O   0  0  0  0  0  0  0  0  0  0  0  0
    8.2318  -15.8266   22.6261 N   0  0  0  0  0  0  0  0  0  0  0  0
    9.0768  -15.9087   23.7657 C   0  0  1  0  0  0  0  0  0  0  0  0
    8.4246  -16.2110   25.0599 C   0  0  0  0  0  0  0  0  0  0  0  0
    7.3637  -15.2849   25.4486 C   0  0  0  0  0  0  0  0  0  0  0  0
    6.0102  -15.4561   25.4567 C   0  0  0  0  0  0  0  0  0  0  0  0
    5.4346  -14.2936   25.8772 N   0  0  0  0  0  0  0  0  0  0  0  0
    6.3710  -13.3689   26.1438 C   0  0  0  0  0  0  0  0  0  0  0  0
    6.2885  -12.0575   26.5853 C   0  0  0  0  0  0  0  0  0  0  0  0
    7.4331  -11.3147   26.7753 C   0  0  0  0  0  0  0  0  0  0  0  0
    8.6657  -11.9025   26.5172 C   0  0  0  0  0  0  0  0  0  0  0  0
    8.7110  -13.1952   26.0834 C   0  0  0  0  0  0  0  0  0  0  0  0
    7.5814  -13.9725   25.8807 C   0  0  0  0  0  0  0  0  0  0  0  0
   10.3630  -16.6358   23.5570 C   0  0  0  0  0  0  0  0  0  0  0  0
   10.3221  -17.8028   23.1297 O   0  0  0  0  0  0  0  0  0  0  0  0
   15.1858  -16.4327   23.1194 O   0  0  0  0  0  0  0  0  0  0  0  0
   13.9237  -15.8672   23.2530 C   0  0  0  0  0  0  0  0  0  0  0  0
   12.8603  -16.8714   23.6061 C   0  0  2  0  0  0  0  0  0  0  0  0
   11.6212  -16.0906   23.8120 N   0  0  0  0  0  0  0  0  0  0  0  0
   13.1878  -17.6141   24.8519 C   0  0  0  0  0  0  0  0  0  0  0  0
   14.1871  -18.5621   24.8108 O   0  0  0  0  0  0  0  0  0  0  0  0
   12.5687  -17.3733   25.8924 O   0  0  0  0  0  0  0  0  0  0  0  0
  2  1  1  1
  3  2  1  0
  4  2  1  0
  4  5  1  6
  6  4  1  0
  7  6  2  0
  8  6  1  0
  9  8  1  0
  9 10  1  1
 10 11  1  0
 11 19  1  0
 11 12  2  0
 12 13  1  0
 14 13  1  0
 14 15  2  0
 16 15  1  0
 17 16  2  0
 18 19  2  0
 18 17  1  0
 19 14  1  0
 20 25  1  0
 20  9  1  0
 21 20  2  0
 24 23  1  1
 23 22  1  0
 24 26  1  0
 24 25  1  0
 26 27  1  0
 28 26  2  0
M  END
$$$$
