VWS.pdb
     RDKit          3D

 28 29  0  0  1  0  0  0  0  0999 V2000
    8.4768  -16.6078   18.0639 C   0  0  0  0  0  0  0  0  0  0  0  0
    8.7537  -15.2035   17.5770 C   0  0  1  0  0  0  0  0  0  0  0  0
    8.3793  -15.1632   16.1132 C   0  0  0  0  0  0  0  0  0  0  0  0
    7.9039  -14.2608   18.3989 C   0  0  2  0  0  0  0  0  0  0  0  0
    8.0750  -12.9027   17.9116 N   0  0  0  0  0  0  0  0  0  0  0  0
    8.2932  -14.2886   19.8370 C   0  0  0  0  0  0  0  0  0  0  0  0
    9.3680  -13.7576   20.1981 O   0  0  0  0  0  0  0  0  0  0  0  0
    7.4822  -14.9015   20.8352 N   0  0  0  0  0  0  0  0  0  0  0  0
    7.7406  -15.0102   22.2284 C   0  0  1  0  0  0  0  0  0  0  0  0
    6.5736  -14.9087   23.1336 C   0  0  0  0  0  0  0  0  0  0  0  0
    6.8977  -14.8650   24.5574 C   0  0  0  0  0  0  0  0  0  0  0  0
    7.0914  -15.8837   25.4439 C   0  0  0  0  0  0  0  0  0  0  0  0
    7.3467  -15.3418   26.6689 N   0  0  0  0  0  0  0  0  0  0  0  0
    7.3256  -14.0006   26.6092 C   0  0  0  0  0  0  0  0  0  0  0  0
    7.5173  -13.0204   27.5703 C   0  0  0  0  0  0  0  0  0  0  0  0
    7.4323  -11.6879   27.2309 C   0  0  0  0  0  0  0  0  0  0  0  0
    7.1521  -11.3472   25.9130 C   0  0  0  0  0  0  0  0  0  0  0  0
    6.9686  -12.3370   24.9923 C   0  0  0  0  0  0  0  0  0  0  0  0
    7.0461  -13.6870   25.2968 C   0  0  0  0  0  0  0  0  0  0  0  0
    8.7119  -16.0740   22.6176 C   0  0  0  0  0  0  0  0  0  0  0  0
    8.4127  -17.2603   22.3957 O   0  0  0  0  0  0  0  0  0  0  0  0
   12.6247  -15.2449   23.4266 O   0  0  0  0  0  0  0  0  0  0  0  0
   12.2162  -16.4925   22.9715 C   0  0  0  0  0  0  0  0  0  0  0  0
   10.8882  -16.9213   23.5340 C   0  0  2  0  0  0  0  0  0  0  0  0
    9.9451  -15.8262   23.2201 N   0  0  0  0  0  0  0  0  0  0  0  0
   10.9446  -17.1166   25.0070 C   0  0  0  0  0  0  0  0  0  0  0  0
   11.7825  -18.0872   25.5117 O   0  0  0  0  0  0  0  0  0  0  0  0
   10.2499  -16.4145   25.7476 O   0  0  0  0  0  0  0  0  0  0  0  0
  2  1  1  1
  3  2  1  0
  4  2  1  0
  4  5  1  6
  6  4  1  0
  7  6  2  0
  8  6  1  0
  9  8  1  0
  9 10  1  1
 10 11  1  0
 11 19  1  0
 11 12  2  0
 12 13  1  0
 14 13  1  0
 14 15  2  0
 16 15  1  0
 17 16  2  0
 18 19  2  0
 18 17  1  0
 19 14  1  0
 20 25  1  0
 20  9  1  0
 21 20  2  0
 24 23  1  1
 23 22  1  0
 24 26  1  0
 24 25  1  0
 26 27  1  0
 28 26  2  0
M  END
$$$$
