VWS.pdb
     RDKit          3D

 28 29  0  0  1  0  0  0  0  0999 V2000
    8.3973  -12.5272   20.4325 C   0  0  0  0  0  0  0  0  0  0  0  0
    7.3991  -13.6605   20.5021 C   0  0  1  0  0  0  0  0  0  0  0  0
    6.5872  -13.6110   19.2281 C   0  0  0  0  0  0  0  0  0  0  0  0
    8.1810  -14.9495   20.6185 C   0  0  2  0  0  0  0  0  0  0  0  0
    7.2709  -16.0790   20.5339 N   0  0  0  0  0  0  0  0  0  0  0  0
    8.9032  -15.0340   21.9192 C   0  0  0  0  0  0  0  0  0  0  0  0
    9.7927  -14.1952   22.1894 O   0  0  0  0  0  0  0  0  0  0  0  0
    8.6204  -16.0426   22.8847 N   0  0  0  0  0  0  0  0  0  0  0  0
    9.3045  -16.3059   24.1022 C   0  0  1  0  0  0  0  0  0  0  0  0
    8.4694  -16.4902   25.3106 C   0  0  0  0  0  0  0  0  0  0  0  0
    7.4297  -15.4821   25.5031 C   0  0  0  0  0  0  0  0  0  0  0  0
    6.0921  -15.5415   25.2413 C   0  0  0  0  0  0  0  0  0  0  0  0
    5.5391  -14.3378   25.5654 N   0  0  0  0  0  0  0  0  0  0  0  0
    6.4748  -13.4946   26.0306 C   0  0  0  0  0  0  0  0  0  0  0  0
    6.4113  -12.1833   26.4753 C   0  0  0  0  0  0  0  0  0  0  0  0
    7.5511  -11.5382   26.9025 C   0  0  0  0  0  0  0  0  0  0  0  0
    8.7597  -12.2240   26.8791 C   0  0  0  0  0  0  0  0  0  0  0  0
    8.7868  -13.5137   26.4351 C   0  0  0  0  0  0  0  0  0  0  0  0
    7.6614  -14.1944   25.9976 C   0  0  0  0  0  0  0  0  0  0  0  0
   10.4384  -17.2708   24.0029 C   0  0  0  0  0  0  0  0  0  0  0  0
   10.1915  -18.4444   23.6744 O   0  0  0  0  0  0  0  0  0  0  0  0
   13.9708  -16.6838   22.5039 O   0  0  0  0  0  0  0  0  0  0  0  0
   14.0822  -17.2353   23.7744 C   0  0  0  0  0  0  0  0  0  0  0  0
   12.8407  -17.9626   24.2141 C   0  0  2  0  0  0  0  0  0  0  0  0
   11.7701  -16.9431   24.2568 N   0  0  0  0  0  0  0  0  0  0  0  0
   12.9987  -18.5685   25.5628 C   0  0  0  0  0  0  0  0  0  0  0  0
   13.9388  -19.5616   25.7333 O   0  0  0  0  0  0  0  0  0  0  0  0
   12.2955  -18.1775   26.4990 O   0  0  0  0  0  0  0  0  0  0  0  0
  2  1  1  6
  3  2  1  0
  4  2  1  0
  4  5  1  1
  6  4  1  0
  7  6  2  0
  8  6  1  0
  9  8  1  0
  9 10  1  1
 10 11  1  0
 11 19  1  0
 11 12  2  0
 12 13  1  0
 14 13  1  0
 14 15  2  0
 16 15  1  0
 17 16  2  0
 18 19  2  0
 18 17  1  0
 19 14  1  0
 20 25  1  0
 20  9  1  0
 21 20  2  0
 24 23  1  1
 23 22  1  0
 24 26  1  0
 24 25  1  0
 26 27  1  0
 28 26  2  0
M  END
$$$$
