VWS.pdb
     RDKit          3D

 28 29  0  0  1  0  0  0  0  0999 V2000
    8.8058  -18.1014   20.0133 C   0  0  0  0  0  0  0  0  0  0  0  0
    7.9568  -16.9234   19.5920 C   0  0  1  0  0  0  0  0  0  0  0  0
    7.0108  -17.4221   18.5238 C   0  0  0  0  0  0  0  0  0  0  0  0
    7.2138  -16.4368   20.8158 C   0  0  2  0  0  0  0  0  0  0  0  0
    6.2918  -15.3801   20.4359 N   0  0  0  0  0  0  0  0  0  0  0  0
    8.1481  -15.8894   21.8394 C   0  0  0  0  0  0  0  0  0  0  0  0
    8.7037  -14.7846   21.6433 O   0  0  0  0  0  0  0  0  0  0  0  0
    8.4405  -16.5786   23.0516 N   0  0  0  0  0  0  0  0  0  0  0  0
    9.4124  -16.2480   24.0344 C   0  0  1  0  0  0  0  0  0  0  0  0
    8.9465  -16.1826   25.4381 C   0  0  0  0  0  0  0  0  0  0  0  0
    7.7152  -15.4243   25.6460 C   0  0  0  0  0  0  0  0  0  0  0  0
    6.4139  -15.8223   25.5491 C   0  0  0  0  0  0  0  0  0  0  0  0
    5.6172  -14.7468   25.8104 N   0  0  0  0  0  0  0  0  0  0  0  0
    6.3588  -13.6590   26.0748 C   0  0  0  0  0  0  0  0  0  0  0  0
    6.0197  -12.3518   26.3871 C   0  0  0  0  0  0  0  0  0  0  0  0
    7.0030  -11.4130   26.6104 C   0  0  0  0  0  0  0  0  0  0  0  0
    8.3345  -11.8000   26.5169 C   0  0  0  0  0  0  0  0  0  0  0  0
    8.6332  -13.0946   26.2071 C   0  0  0  0  0  0  0  0  0  0  0  0
    7.6716  -14.0657   25.9757 C   0  0  0  0  0  0  0  0  0  0  0  0
   10.7381  -16.9133   23.8720 C   0  0  0  0  0  0  0  0  0  0  0  0
   10.8445  -18.1099   24.1928 O   0  0  0  0  0  0  0  0  0  0  0  0
   14.0214  -14.9531   22.2685 O   0  0  0  0  0  0  0  0  0  0  0  0
   13.8731  -16.3222   22.0834 C   0  0  0  0  0  0  0  0  0  0  0  0
   13.1598  -16.9989   23.2223 C   0  0  2  0  0  0  0  0  0  0  0  0
   11.8782  -16.2779   23.3804 N   0  0  0  0  0  0  0  0  0  0  0  0
   13.9319  -16.9161   24.4904 C   0  0  0  0  0  0  0  0  0  0  0  0
   15.1367  -17.5798   24.5732 O   0  0  0  0  0  0  0  0  0  0  0  0
   13.4890  -16.2612   25.4386 O   0  0  0  0  0  0  0  0  0  0  0  0
  2  1  1  1
  3  2  1  0
  4  2  1  0
  4  5  1  6
  6  4  1  0
  7  6  2  0
  8  6  1  0
  9  8  1  0
  9 10  1  1
 10 11  1  0
 11 19  1  0
 11 12  2  0
 12 13  1  0
 14 13  1  0
 14 15  2  0
 16 15  1  0
 17 16  2  0
 18 19  2  0
 18 17  1  0
 19 14  1  0
 20 25  1  0
 20  9  1  0
 21 20  2  0
 24 23  1  6
 23 22  1  0
 24 26  1  0
 24 25  1  0
 26 27  1  0
 28 26  2  0
M  END
$$$$
