VWS.pdb
     RDKit          3D

 28 29  0  0  1  0  0  0  0  0999 V2000
   10.7663  -19.7009   20.7016 C   0  0  0  0  0  0  0  0  0  0  0  0
   11.0910  -18.6401   19.6745 C   0  0  1  0  0  0  0  0  0  0  0  0
   11.1781  -19.3357   18.3354 C   0  0  0  0  0  0  0  0  0  0  0  0
    9.9749  -17.6204   19.7047 C   0  0  2  0  0  0  0  0  0  0  0  0
   10.1634  -16.6621   18.6289 N   0  0  0  0  0  0  0  0  0  0  0  0
    9.9547  -16.8716   20.9928 C   0  0  0  0  0  0  0  0  0  0  0  0
   10.9071  -16.1123   21.2829 O   0  0  0  0  0  0  0  0  0  0  0  0
    8.8814  -16.9825   21.9230 N   0  0  0  0  0  0  0  0  0  0  0  0
    8.7481  -16.3457   23.1865 C   0  0  1  0  0  0  0  0  0  0  0  0
    7.3865  -15.9152   23.5766 C   0  0  0  0  0  0  0  0  0  0  0  0
    7.2783  -15.3481   24.9187 C   0  0  0  0  0  0  0  0  0  0  0  0
    7.1329  -15.9704   26.1240 C   0  0  0  0  0  0  0  0  0  0  0  0
    7.0513  -15.0134   27.0921 N   0  0  0  0  0  0  0  0  0  0  0  0
    7.1389  -13.7857   26.5555 C   0  0  0  0  0  0  0  0  0  0  0  0
    7.1038  -12.5180   27.1150 C   0  0  0  0  0  0  0  0  0  0  0  0
    7.2125  -11.4017   26.3149 C   0  0  0  0  0  0  0  0  0  0  0  0
    7.3571  -11.5704   24.9430 C   0  0  0  0  0  0  0  0  0  0  0  0
    7.3874  -12.8322   24.4251 C   0  0  0  0  0  0  0  0  0  0  0  0
    7.2807  -13.9776   25.1984 C   0  0  0  0  0  0  0  0  0  0  0  0
    9.5242  -16.9656   24.3001 C   0  0  0  0  0  0  0  0  0  0  0  0
    9.2136  -18.1099   24.6743 O   0  0  0  0  0  0  0  0  0  0  0  0
   12.9889  -15.2679   25.6337 O   0  0  0  0  0  0  0  0  0  0  0  0
   12.8225  -16.6454   25.7089 C   0  0  0  0  0  0  0  0  0  0  0  0
   11.3979  -17.0556   25.9660 C   0  0  2  0  0  0  0  0  0  0  0  0
   10.5848  -16.3423   24.9573 N   0  0  0  0  0  0  0  0  0  0  0  0
   10.9444  -16.6685   27.3281 C   0  0  0  0  0  0  0  0  0  0  0  0
   11.5684  -17.2374   28.4172 O   0  0  0  0  0  0  0  0  0  0  0  0
   10.0279  -15.8525   27.4626 O   0  0  0  0  0  0  0  0  0  0  0  0
  2  1  1  1
  3  2  1  0
  4  2  1  0
  4  5  1  6
  6  4  1  0
  7  6  2  0
  8  6  1  0
  9  8  1  0
  9 10  1  1
 10 11  1  0
 11 19  1  0
 11 12  2  0
 12 13  1  0
 14 13  1  0
 14 15  2  0
 16 15  1  0
 17 16  2  0
 18 19  2  0
 18 17  1  0
 19 14  1  0
 20 25  1  0
 20  9  1  0
 21 20  2  0
 24 23  1  1
 23 22  1  0
 24 26  1  0
 24 25  1  0
 26 27  1  0
 28 26  2  0
M  END
$$$$
