VWS.pdb
     RDKit          3D

 28 29  0  0  1  0  0  0  0  0999 V2000
   10.3552  -19.6157   20.0993 C   0  0  0  0  0  0  0  0  0  0  0  0
   10.8803  -18.5642   19.1483 C   0  0  1  0  0  0  0  0  0  0  0  0
   11.0241  -19.2253   17.7967 C   0  0  0  0  0  0  0  0  0  0  0  0
    9.8738  -17.4362   19.1161 C   0  0  2  0  0  0  0  0  0  0  0  0
   10.2518  -16.4771   18.0922 N   0  0  0  0  0  0  0  0  0  0  0  0
    9.8151  -16.7200   20.4215 C   0  0  0  0  0  0  0  0  0  0  0  0
   10.8277  -16.1161   20.8428 O   0  0  0  0  0  0  0  0  0  0  0  0
    8.6378  -16.6906   21.2233 N   0  0  0  0  0  0  0  0  0  0  0  0
    8.4814  -16.1546   22.5301 C   0  0  1  0  0  0  0  0  0  0  0  0
    7.1363  -15.6503   22.8881 C   0  0  0  0  0  0  0  0  0  0  0  0
    6.9698  -15.2752   24.2902 C   0  0  0  0  0  0  0  0  0  0  0  0
    6.6026  -16.0341   25.3628 C   0  0  0  0  0  0  0  0  0  0  0  0
    6.5614  -15.2286   26.4624 N   0  0  0  0  0  0  0  0  0  0  0  0
    6.8904  -13.9673   26.1403 C   0  0  0  0  0  0  0  0  0  0  0  0
    6.9860  -12.8067   26.8922 C   0  0  0  0  0  0  0  0  0  0  0  0
    7.3475  -11.6191   26.2946 C   0  0  0  0  0  0  0  0  0  0  0  0
    7.6130  -11.6073   24.9305 C   0  0  0  0  0  0  0  0  0  0  0  0
    7.5091  -12.7674   24.2202 C   0  0  0  0  0  0  0  0  0  0  0  0
    7.1480  -13.9798   24.7867 C   0  0  0  0  0  0  0  0  0  0  0  0
    9.1432  -16.9273   23.6217 C   0  0  0  0  0  0  0  0  0  0  0  0
    8.8495  -18.1275   23.7610 O   0  0  0  0  0  0  0  0  0  0  0  0
   13.1352  -17.7963   25.9164 O   0  0  0  0  0  0  0  0  0  0  0  0
   12.2821  -17.0574   25.1058 C   0  0  0  0  0  0  0  0  0  0  0  0
   10.8297  -17.2425   25.4521 C   0  0  2  0  0  0  0  0  0  0  0  0
   10.0780  -16.3896   24.5061 N   0  0  0  0  0  0  0  0  0  0  0  0
   10.5308  -16.8161   26.8449 C   0  0  0  0  0  0  0  0  0  0  0  0
   11.1086  -17.5110   27.8854 O   0  0  0  0  0  0  0  0  0  0  0  0
    9.7801  -15.8572   27.0470 O   0  0  0  0  0  0  0  0  0  0  0  0
  2  1  1  1
  3  2  1  0
  4  2  1  0
  4  5  1  6
  6  4  1  0
  7  6  2  0
  8  6  1  0
  9  8  1  0
  9 10  1  1
 10 11  1  0
 11 19  1  0
 11 12  2  0
 12 13  1  0
 14 13  1  0
 14 15  2  0
 16 15  1  0
 17 16  2  0
 18 19  2  0
 18 17  1  0
 19 14  1  0
 20 25  1  0
 20  9  1  0
 21 20  2  0
 24 23  1  6
 23 22  1  0
 24 26  1  0
 24 25  1  0
 26 27  1  0
 28 26  2  0
M  END
$$$$
