VWS.pdb
     RDKit          3D

 28 29  0  0  1  0  0  0  0  0999 V2000
    6.9214  -19.1093   20.3160 C   0  0  0  0  0  0  0  0  0  0  0  0
    7.8837  -18.8489   19.1794 C   0  0  1  0  0  0  0  0  0  0  0  0
    7.2270  -19.3645   17.9195 C   0  0  0  0  0  0  0  0  0  0  0  0
    8.1217  -17.3569   19.1171 C   0  0  2  0  0  0  0  0  0  0  0  0
    8.9730  -17.0480   17.9809 N   0  0  0  0  0  0  0  0  0  0  0  0
    8.7966  -16.8601   20.3492 C   0  0  0  0  0  0  0  0  0  0  0  0
   10.0025  -17.1323   20.5475 O   0  0  0  0  0  0  0  0  0  0  0  0
    8.1193  -16.0753   21.3264 N   0  0  0  0  0  0  0  0  0  0  0  0
    8.6244  -15.5885   22.5623 C   0  0  1  0  0  0  0  0  0  0  0  0
    7.9159  -14.4373   23.1659 C   0  0  0  0  0  0  0  0  0  0  0  0
    8.3140  -14.1147   24.5340 C   0  0  0  0  0  0  0  0  0  0  0  0
    9.4183  -14.4961   25.2385 C   0  0  0  0  0  0  0  0  0  0  0  0
    9.3332  -13.9607   26.4898 N   0  0  0  0  0  0  0  0  0  0  0  0
    8.2072  -13.2415   26.6235 C   0  0  0  0  0  0  0  0  0  0  0  0
    7.6791  -12.5233   27.6850 C   0  0  0  0  0  0  0  0  0  0  0  0
    6.4749  -11.8678   27.5501 C   0  0  0  0  0  0  0  0  0  0  0  0
    5.8033  -11.9401   26.3355 C   0  0  0  0  0  0  0  0  0  0  0  0
    6.3512  -12.6560   25.3114 C   0  0  0  0  0  0  0  0  0  0  0  0
    7.5593  -13.3281   25.4105 C   0  0  0  0  0  0  0  0  0  0  0  0
    9.0181  -16.6360   23.5493 C   0  0  0  0  0  0  0  0  0  0  0  0
    8.1316  -17.3685   24.0223 O   0  0  0  0  0  0  0  0  0  0  0  0
   12.6663  -18.1327   23.4176 O   0  0  0  0  0  0  0  0  0  0  0  0
   11.6038  -18.8590   23.9414 C   0  0  0  0  0  0  0  0  0  0  0  0
   10.6874  -18.0303   24.7999 C   0  0  2  0  0  0  0  0  0  0  0  0
   10.3261  -16.8516   23.9828 N   0  0  0  0  0  0  0  0  0  0  0  0
   11.3535  -17.5782   26.0500 C   0  0  0  0  0  0  0  0  0  0  0  0
   11.7460  -18.5277   26.9684 O   0  0  0  0  0  0  0  0  0  0  0  0
   11.5443  -16.3741   26.2446 O   0  0  0  0  0  0  0  0  0  0  0  0
  2  1  1  1
  3  2  1  0
  4  2  1  0
  4  5  1  6
  6  4  1  0
  7  6  2  0
  8  6  1  0
  9  8  1  0
  9 10  1  1
 10 11  1  0
 11 19  1  0
 11 12  2  0
 12 13  1  0
 14 13  1  0
 14 15  2  0
 16 15  1  0
 17 16  2  0
 18 19  2  0
 18 17  1  0
 19 14  1  0
 20 25  1  0
 20  9  1  0
 21 20  2  0
 24 23  1  6
 23 22  1  0
 24 26  1  0
 24 25  1  0
 26 27  1  0
 28 26  2  0
M  END
$$$$
