VWS.pdb
     RDKit          3D

 28 29  0  0  1  0  0  0  0  0999 V2000
    8.4787  -12.4567   20.1717 C   0  0  0  0  0  0  0  0  0  0  0  0
    7.4043  -13.4975   20.3910 C   0  0  1  0  0  0  0  0  0  0  0  0
    6.4710  -13.4237   19.2044 C   0  0  0  0  0  0  0  0  0  0  0  0
    8.0868  -14.8436   20.4843 C   0  0  2  0  0  0  0  0  0  0  0  0
    7.0845  -15.8893   20.5990 N   0  0  0  0  0  0  0  0  0  0  0  0
    8.9763  -14.9228   21.6771 C   0  0  0  0  0  0  0  0  0  0  0  0
    9.9745  -14.1711   21.7565 O   0  0  0  0  0  0  0  0  0  0  0  0
    8.7362  -15.8300   22.7491 N   0  0  0  0  0  0  0  0  0  0  0  0
    9.4786  -15.9811   23.9514 C   0  0  1  0  0  0  0  0  0  0  0  0
    8.7125  -16.3291   25.1695 C   0  0  0  0  0  0  0  0  0  0  0  0
    7.5219  -15.5157   25.4043 C   0  0  0  0  0  0  0  0  0  0  0  0
    6.2026  -15.8297   25.2556 C   0  0  0  0  0  0  0  0  0  0  0  0
    5.4627  -14.7292   25.5736 N   0  0  0  0  0  0  0  0  0  0  0  0
    6.2587  -13.7065   25.9251 C   0  0  0  0  0  0  0  0  0  0  0  0
    5.9876  -12.4054   26.3185 C   0  0  0  0  0  0  0  0  0  0  0  0
    7.0173  -11.5425   26.6238 C   0  0  0  0  0  0  0  0  0  0  0  0
    8.3264  -11.9996   26.5300 C   0  0  0  0  0  0  0  0  0  0  0  0
    8.5580  -13.2860   26.1393 C   0  0  0  0  0  0  0  0  0  0  0  0
    7.5481  -14.1817   25.8242 C   0  0  0  0  0  0  0  0  0  0  0  0
   10.7661  -16.7237   23.8191 C   0  0  0  0  0  0  0  0  0  0  0  0
   10.7257  -17.9412   23.5696 O   0  0  0  0  0  0  0  0  0  0  0  0
   15.6331  -16.5696   23.6266 O   0  0  0  0  0  0  0  0  0  0  0  0
   14.3825  -15.9667   23.6828 C   0  0  0  0  0  0  0  0  0  0  0  0
   13.2634  -16.9466   23.9088 C   0  0  2  0  0  0  0  0  0  0  0  0
   12.0249  -16.1396   23.9582 N   0  0  0  0  0  0  0  0  0  0  0  0
   13.4213  -17.6864   25.1889 C   0  0  0  0  0  0  0  0  0  0  0  0
   14.1993  -18.8238   25.2013 O   0  0  0  0  0  0  0  0  0  0  0  0
   12.8616  -17.2758   26.2097 O   0  0  0  0  0  0  0  0  0  0  0  0
  2  1  1  6
  3  2  1  0
  4  2  1  0
  4  5  1  1
  6  4  1  0
  7  6  2  0
  8  6  1  0
  9  8  1  0
  9 10  1  1
 10 11  1  0
 11 19  1  0
 11 12  2  0
 12 13  1  0
 14 13  1  0
 14 15  2  0
 16 15  1  0
 17 16  2  0
 18 19  2  0
 18 17  1  0
 19 14  1  0
 20 25  1  0
 20  9  1  0
 21 20  2  0
 24 23  1  1
 23 22  1  0
 24 26  1  0
 24 25  1  0
 26 27  1  0
 28 26  2  0
M  END
$$$$
