VWS.pdb
     RDKit          3D

 28 29  0  0  1  0  0  0  0  0999 V2000
    9.4670  -13.8039   19.4750 C   0  0  0  0  0  0  0  0  0  0  0  0
    8.0177  -13.5678   19.8348 C   0  0  1  0  0  0  0  0  0  0  0  0
    7.2488  -13.4891   18.5358 C   0  0  0  0  0  0  0  0  0  0  0  0
    7.5639  -14.7332   20.6848 C   0  0  2  0  0  0  0  0  0  0  0  0
    6.1212  -14.6817   20.8492 N   0  0  0  0  0  0  0  0  0  0  0  0
    8.1852  -14.6954   22.0387 C   0  0  0  0  0  0  0  0  0  0  0  0
    8.2546  -13.6096   22.6583 O   0  0  0  0  0  0  0  0  0  0  0  0
    8.7109  -15.8596   22.6696 N   0  0  0  0  0  0  0  0  0  0  0  0
    9.4923  -15.9366   23.8541 C   0  0  1  0  0  0  0  0  0  0  0  0
    8.7881  -16.3356   25.0936 C   0  0  0  0  0  0  0  0  0  0  0  0
    7.6657  -15.4794   25.4697 C   0  0  0  0  0  0  0  0  0  0  0  0
    6.3256  -15.7347   25.4562 C   0  0  0  0  0  0  0  0  0  0  0  0
    5.6723  -14.6125   25.8726 N   0  0  0  0  0  0  0  0  0  0  0  0
    6.5449  -13.6325   26.1575 C   0  0  0  0  0  0  0  0  0  0  0  0
    6.3741  -12.3311   26.6030 C   0  0  0  0  0  0  0  0  0  0  0  0
    7.4671  -11.5194   26.8138 C   0  0  0  0  0  0  0  0  0  0  0  0
    8.7377  -12.0280   26.5723 C   0  0  0  0  0  0  0  0  0  0  0  0
    8.8702  -13.3131   26.1340 C   0  0  0  0  0  0  0  0  0  0  0  0
    7.7945  -14.1582   25.9106 C   0  0  0  0  0  0  0  0  0  0  0  0
   10.8339  -16.5701   23.6950 C   0  0  0  0  0  0  0  0  0  0  0  0
   10.9089  -17.6588   23.0988 O   0  0  0  0  0  0  0  0  0  0  0  0
   14.2084  -15.2731   25.7479 O   0  0  0  0  0  0  0  0  0  0  0  0
   14.3688  -15.7320   24.4462 C   0  0  0  0  0  0  0  0  0  0  0  0
   13.3149  -16.7239   24.0349 C   0  0  2  0  0  0  0  0  0  0  0  0
   12.0220  -16.0194   24.1751 N   0  0  0  0  0  0  0  0  0  0  0  0
   13.3160  -17.9301   24.9044 C   0  0  0  0  0  0  0  0  0  0  0  0
   14.3658  -18.8167   24.8003 O   0  0  0  0  0  0  0  0  0  0  0  0
   12.3892  -18.1172   25.6980 O   0  0  0  0  0  0  0  0  0  0  0  0
  2  1  1  6
  3  2  1  0
  4  2  1  0
  4  5  1  1
  6  4  1  0
  7  6  2  0
  8  6  1  0
  9  8  1  0
  9 10  1  1
 10 11  1  0
 11 19  1  0
 11 12  2  0
 12 13  1  0
 14 13  1  0
 14 15  2  0
 16 15  1  0
 17 16  2  0
 18 19  2  0
 18 17  1  0
 19 14  1  0
 20 25  1  0
 20  9  1  0
 21 20  2  0
 24 23  1  1
 23 22  1  0
 24 26  1  0
 24 25  1  0
 26 27  1  0
 28 26  2  0
M  END
$$$$
