SSK.pdb
     RDKit          3D

 22 21  0  0  1  0  0  0  0  0999 V2000
   15.7610  -10.9075  -17.1838 O   0  0  0  0  0  0  0  0  0  0  0  0
   16.4984   -9.8848  -16.6324 C   0  0  0  0  0  0  0  0  0  0  0  0
   16.9487  -10.1566  -15.2214 C   0  0  2  0  0  0  0  0  0  0  0  0
   15.7944  -10.3123  -14.3950 N   0  0  0  0  0  0  0  0  0  0  0  0
   17.9276   -9.1880  -14.7104 C   0  0  0  0  0  0  0  0  0  0  0  0
   17.5447   -8.0483  -14.3410 O   0  0  0  0  0  0  0  0  0  0  0  0
   21.9925   -9.8021  -15.0235 O   0  0  0  0  0  0  0  0  0  0  0  0
   21.6450   -9.0203  -13.9164 C   0  0  0  0  0  0  0  0  0  0  0  0
   20.2800   -8.4675  -14.1638 C   0  0  2  0  0  0  0  0  0  0  0  0
   19.3274   -9.4537  -14.5985 N   0  0  0  0  0  0  0  0  0  0  0  0
   20.3981   -7.3408  -15.1290 C   0  0  0  0  0  0  0  0  0  0  0  0
   19.8014   -7.4608  -16.1962 O   0  0  0  0  0  0  0  0  0  0  0  0
   21.1546   -6.1980  -14.8326 N   0  0  0  0  0  0  0  0  0  0  0  0
   21.2997   -5.0321  -15.6325 C   0  0  1  0  0  0  0  0  0  0  0  0
   20.0434   -4.4898  -16.1946 C   0  0  0  0  0  0  0  0  0  0  0  0
   20.1190   -3.2045  -16.9323 C   0  0  0  0  0  0  0  0  0  0  0  0
   18.7807   -2.7203  -17.4388 C   0  0  0  0  0  0  0  0  0  0  0  0
   18.9818   -1.3838  -18.1386 C   0  0  0  0  0  0  0  0  0  0  0  0
   17.7378   -0.7958  -18.5529 N   0  0  0  0  0  0  0  0  0  0  0  0
   22.1849   -4.0201  -14.9769 C   0  0  0  0  0  0  0  0  0  0  0  0
   23.1749   -3.3164  -15.6584 O   0  0  0  0  0  0  0  0  0  0  0  0
   22.0602   -3.7697  -13.7695 O   0  0  0  0  0  0  0  0  0  0  0  0
  1  2  1  0
  2  3  1  0
  3  4  1  1
  5 10  1  0
  5  3  1  0
  6  5  2  0
  9  8  1  6
  8  7  1  0
  9 11  1  0
  9 10  1  0
 11 13  1  0
 12 11  2  0
 13 14  1  0
 14 20  1  0
 14 15  1  1
 16 15  1  0
 17 16  1  0
 18 17  1  0
 19 18  1  0
 20 21  1  0
 22 20  2  0
M  END
$$$$
