SSK.pdb
     RDKit          3D

 22 21  0  0  1  0  0  0  0  0999 V2000
   21.2941   -9.9062  -20.5716 O   0  0  0  0  0  0  0  0  0  0  0  0
   21.6718  -11.1764  -20.2004 C   0  0  0  0  0  0  0  0  0  0  0  0
   20.9628  -11.6835  -18.9724 C   0  0  2  0  0  0  0  0  0  0  0  0
   19.5704  -11.8051  -19.2660 N   0  0  0  0  0  0  0  0  0  0  0  0
   21.2556  -10.9163  -17.7546 C   0  0  0  0  0  0  0  0  0  0  0  0
   20.3107  -10.4898  -17.0425 O   0  0  0  0  0  0  0  0  0  0  0  0
   24.3104   -9.5027  -14.3135 O   0  0  0  0  0  0  0  0  0  0  0  0
   24.2540  -10.0140  -15.6147 C   0  0  0  0  0  0  0  0  0  0  0  0
   22.8434   -9.8890  -16.0888 C   0  0  2  0  0  0  0  0  0  0  0  0
   22.5769  -10.6089  -17.3052 N   0  0  0  0  0  0  0  0  0  0  0  0
   22.5166   -8.4423  -16.2123 C   0  0  0  0  0  0  0  0  0  0  0  0
   22.8187   -7.8945  -17.2697 O   0  0  0  0  0  0  0  0  0  0  0  0
   21.8937   -7.7401  -15.1707 N   0  0  0  0  0  0  0  0  0  0  0  0
   21.4412   -6.3929  -15.1927 C   0  0  1  0  0  0  0  0  0  0  0  0
   19.9742   -6.2192  -15.2714 C   0  0  0  0  0  0  0  0  0  0  0  0
   19.4472   -4.8324  -15.3053 C   0  0  0  0  0  0  0  0  0  0  0  0
   17.9406   -4.7618  -15.3889 C   0  0  0  0  0  0  0  0  0  0  0  0
   17.5256   -3.2982  -15.4366 C   0  0  0  0  0  0  0  0  0  0  0  0
   16.1010   -3.1350  -15.3438 N   0  0  0  0  0  0  0  0  0  0  0  0
   22.1181   -5.5665  -14.1456 C   0  0  0  0  0  0  0  0  0  0  0  0
   22.3908   -4.2097  -14.3024 O   0  0  0  0  0  0  0  0  0  0  0  0
   22.4679   -6.0805  -13.0736 O   0  0  0  0  0  0  0  0  0  0  0  0
  1  2  1  0
  2  3  1  0
  3  4  1  6
  5 10  1  0
  5  3  1  0
  6  5  2  0
  9  8  1  6
  8  7  1  0
  9 11  1  0
  9 10  1  0
 11 13  1  0
 12 11  2  0
 13 14  1  0
 14 20  1  0
 14 15  1  1
 16 15  1  0
 17 16  1  0
 18 17  1  0
 19 18  1  0
 20 21  1  0
 22 20  2  0
M  END
$$$$
