SSK.pdb
     RDKit          3D

 22 21  0  0  1  0  0  0  0  0999 V2000
   25.0784  -17.0766  -18.4054 O   0  0  0  0  0  0  0  0  0  0  0  0
   24.2481  -16.1619  -17.7990 C   0  0  0  0  0  0  0  0  0  0  0  0
   24.1511  -16.3302  -16.3057 C   0  0  2  0  0  0  0  0  0  0  0  0
   23.1469  -17.3046  -16.0198 N   0  0  0  0  0  0  0  0  0  0  0  0
   23.9902  -15.0679  -15.5721 C   0  0  0  0  0  0  0  0  0  0  0  0
   23.0138  -14.9179  -14.7934 O   0  0  0  0  0  0  0  0  0  0  0  0
   26.6575  -11.9024  -15.9457 O   0  0  0  0  0  0  0  0  0  0  0  0
   25.9609  -11.9680  -14.7340 C   0  0  0  0  0  0  0  0  0  0  0  0
   24.6956  -12.7220  -14.9800 C   0  0  2  0  0  0  0  0  0  0  0  0
   24.8896  -13.9628  -15.6814 N   0  0  0  0  0  0  0  0  0  0  0  0
   23.7438  -11.8229  -15.6874 C   0  0  0  0  0  0  0  0  0  0  0  0
   23.7119  -11.9039  -16.9129 O   0  0  0  0  0  0  0  0  0  0  0  0
   22.9236  -10.9269  -14.9870 N   0  0  0  0  0  0  0  0  0  0  0  0
   21.9620  -10.0345  -15.5341 C   0  0  1  0  0  0  0  0  0  0  0  0
   20.5503  -10.3741  -15.2511 C   0  0  0  0  0  0  0  0  0  0  0  0
   19.5022   -9.5173  -15.8590 C   0  0  0  0  0  0  0  0  0  0  0  0
   18.0979   -9.9136  -15.4682 C   0  0  0  0  0  0  0  0  0  0  0  0
   17.1180   -8.9943  -16.1831 C   0  0  0  0  0  0  0  0  0  0  0  0
   15.7624   -9.2108  -15.7582 N   0  0  0  0  0  0  0  0  0  0  0  0
   22.3291   -8.6063  -15.2825 C   0  0  0  0  0  0  0  0  0  0  0  0
   21.9470   -7.5612  -16.1200 O   0  0  0  0  0  0  0  0  0  0  0  0
   23.0057   -8.3007  -14.2902 O   0  0  0  0  0  0  0  0  0  0  0  0
  1  2  1  0
  2  3  1  0
  3  4  1  6
  5 10  1  0
  5  3  1  0
  6  5  2  0
  9  8  1  6
  8  7  1  0
  9 11  1  0
  9 10  1  0
 11 13  1  0
 12 11  2  0
 13 14  1  0
 14 20  1  0
 14 15  1  1
 16 15  1  0
 17 16  1  0
 18 17  1  0
 19 18  1  0
 20 21  1  0
 22 20  2  0
M  END
$$$$
