SSK.pdb
     RDKit          3D

 22 21  0  0  1  0  0  0  0  0999 V2000
   20.3187  -11.5760  -17.4192 O   0  0  0  0  0  0  0  0  0  0  0  0
   20.1231  -10.2522  -17.0978 C   0  0  0  0  0  0  0  0  0  0  0  0
   19.7547  -10.0283  -15.6549 C   0  0  2  0  0  0  0  0  0  0  0  0
   18.5677  -10.7679  -15.3661 N   0  0  0  0  0  0  0  0  0  0  0  0
   19.6901   -8.6127  -15.2683 C   0  0  0  0  0  0  0  0  0  0  0  0
   18.5985   -7.9927  -15.3471 O   0  0  0  0  0  0  0  0  0  0  0  0
   23.0310   -6.4263  -14.0436 O   0  0  0  0  0  0  0  0  0  0  0  0
   21.8071   -6.0429  -13.4845 C   0  0  0  0  0  0  0  0  0  0  0  0
   20.7268   -6.4783  -14.4192 C   0  0  2  0  0  0  0  0  0  0  0  0
   20.8115   -7.8643  -14.7944 N   0  0  0  0  0  0  0  0  0  0  0  0
   20.7395   -5.5768  -15.6032 C   0  0  0  0  0  0  0  0  0  0  0  0
   21.3280   -5.9829  -16.6023 O   0  0  0  0  0  0  0  0  0  0  0  0
   20.1094   -4.3244  -15.5778 N   0  0  0  0  0  0  0  0  0  0  0  0
   20.0247   -3.3833  -16.6395 C   0  0  1  0  0  0  0  0  0  0  0  0
   18.9188   -3.6064  -17.5964 C   0  0  0  0  0  0  0  0  0  0  0  0
   18.7851   -2.6539  -18.7264 C   0  0  0  0  0  0  0  0  0  0  0  0
   17.6299   -2.9693  -19.6473 C   0  0  0  0  0  0  0  0  0  0  0  0
   17.6293   -1.9608  -20.7872 C   0  0  0  0  0  0  0  0  0  0  0  0
   16.4734   -2.0957  -21.6302 N   0  0  0  0  0  0  0  0  0  0  0  0
   20.1540   -1.9782  -16.1427 C   0  0  0  0  0  0  0  0  0  0  0  0
   20.8330   -0.9817  -16.8396 O   0  0  0  0  0  0  0  0  0  0  0  0
   19.6451   -1.6484  -15.0618 O   0  0  0  0  0  0  0  0  0  0  0  0
  1  2  1  0
  2  3  1  0
  3  4  1  6
  5 10  1  0
  5  3  1  0
  6  5  2  0
  9  8  1  1
  8  7  1  0
  9 11  1  0
  9 10  1  0
 11 13  1  0
 12 11  2  0
 13 14  1  0
 14 20  1  0
 14 15  1  1
 16 15  1  0
 17 16  1  0
 18 17  1  0
 19 18  1  0
 20 21  1  0
 22 20  2  0
M  END
$$$$
