SSK.pdb
     RDKit          3D

 22 21  0  0  1  0  0  0  0  0999 V2000
   17.9129  -13.4515  -17.4667 O   0  0  0  0  0  0  0  0  0  0  0  0
   18.2332  -12.8552  -16.2686 C   0  0  0  0  0  0  0  0  0  0  0  0
   18.3815  -11.3592  -16.3583 C   0  0  2  0  0  0  0  0  0  0  0  0
   19.3971  -11.0571  -17.3158 N   0  0  0  0  0  0  0  0  0  0  0  0
   18.5645  -10.6988  -15.0591 C   0  0  0  0  0  0  0  0  0  0  0  0
   18.1170  -11.2389  -14.0151 O   0  0  0  0  0  0  0  0  0  0  0  0
   21.6255   -8.5487  -13.2341 O   0  0  0  0  0  0  0  0  0  0  0  0
   20.4725   -7.8160  -13.5365 C   0  0  0  0  0  0  0  0  0  0  0  0
   19.3338   -8.7786  -13.6195 C   0  0  2  0  0  0  0  0  0  0  0  0
   19.2346   -9.4481  -14.8887 N   0  0  0  0  0  0  0  0  0  0  0  0
   18.0813   -8.0549  -13.2698 C   0  0  0  0  0  0  0  0  0  0  0  0
   17.4712   -7.5247  -14.1950 O   0  0  0  0  0  0  0  0  0  0  0  0
   17.6213   -7.9827  -11.9472 N   0  0  0  0  0  0  0  0  0  0  0  0
   16.4158   -7.3861  -11.4879 C   0  0  1  0  0  0  0  0  0  0  0  0
   15.9570   -7.8320  -10.1541 C   0  0  0  0  0  0  0  0  0  0  0  0
   14.6489   -7.3237   -9.6718 C   0  0  0  0  0  0  0  0  0  0  0  0
   14.3027   -7.7806   -8.2742 C   0  0  0  0  0  0  0  0  0  0  0  0
   12.9310   -7.2307   -7.9102 C   0  0  0  0  0  0  0  0  0  0  0  0
   12.4835   -7.6955   -6.6262 N   0  0  0  0  0  0  0  0  0  0  0  0
   16.4224   -5.9038  -11.6887 C   0  0  0  0  0  0  0  0  0  0  0  0
   15.3368   -5.1982  -12.2018 O   0  0  0  0  0  0  0  0  0  0  0  0
   17.4259   -5.2382  -11.3956 O   0  0  0  0  0  0  0  0  0  0  0  0
  1  2  1  0
  2  3  1  0
  3  4  1  6
  5 10  1  0
  5  3  1  0
  6  5  2  0
  9  8  1  6
  8  7  1  0
  9 11  1  0
  9 10  1  0
 11 13  1  0
 12 11  2  0
 13 14  1  0
 14 20  1  0
 14 15  1  1
 16 15  1  0
 17 16  1  0
 18 17  1  0
 19 18  1  0
 20 21  1  0
 22 20  2  0
M  END
$$$$
