SSK.pdb
     RDKit          3D

 22 21  0  0  1  0  0  0  0  0999 V2000
   21.2537   -8.7354  -19.3914 O   0  0  0  0  0  0  0  0  0  0  0  0
   21.3655  -10.0423  -18.9750 C   0  0  0  0  0  0  0  0  0  0  0  0
   20.3972  -10.4141  -17.8833 C   0  0  2  0  0  0  0  0  0  0  0  0
   19.1066  -10.6078  -18.4633 N   0  0  0  0  0  0  0  0  0  0  0  0
   20.4093   -9.4959  -16.7368 C   0  0  0  0  0  0  0  0  0  0  0  0
   19.4561   -8.6925  -16.5696 O   0  0  0  0  0  0  0  0  0  0  0  0
   22.3455   -7.8581  -12.6188 O   0  0  0  0  0  0  0  0  0  0  0  0
   22.5277   -8.7705  -13.6638 C   0  0  0  0  0  0  0  0  0  0  0  0
   21.4977   -8.4775  -14.7046 C   0  0  2  0  0  0  0  0  0  0  0  0
   21.4575   -9.4468  -15.7667 N   0  0  0  0  0  0  0  0  0  0  0  0
   21.7257   -7.0982  -15.2150 C   0  0  0  0  0  0  0  0  0  0  0  0
   22.1859   -6.9964  -16.3495 O   0  0  0  0  0  0  0  0  0  0  0  0
   21.4291   -5.9702  -14.4366 N   0  0  0  0  0  0  0  0  0  0  0  0
   21.3914   -4.6157  -14.8656 C   0  0  1  0  0  0  0  0  0  0  0  0
   20.6397   -4.3684  -16.1155 C   0  0  0  0  0  0  0  0  0  0  0  0
   20.5579   -2.9692  -16.6029 C   0  0  0  0  0  0  0  0  0  0  0  0
   19.7703   -2.8218  -17.8835 C   0  0  0  0  0  0  0  0  0  0  0  0
   19.7071   -1.3451  -18.2466 C   0  0  0  0  0  0  0  0  0  0  0  0
   18.8570   -1.1010  -19.3791 N   0  0  0  0  0  0  0  0  0  0  0  0
   21.0618   -3.6891  -13.7385 C   0  0  0  0  0  0  0  0  0  0  0  0
   21.5954   -2.4078  -13.6229 O   0  0  0  0  0  0  0  0  0  0  0  0
   20.2797   -4.0450  -12.8454 O   0  0  0  0  0  0  0  0  0  0  0  0
  1  2  1  0
  2  3  1  0
  3  4  1  6
  5 10  1  0
  5  3  1  0
  6  5  2  0
  9  8  1  1
  8  7  1  0
  9 11  1  0
  9 10  1  0
 11 13  1  0
 12 11  2  0
 13 14  1  0
 14 20  1  0
 14 15  1  6
 16 15  1  0
 17 16  1  0
 18 17  1  0
 19 18  1  0
 20 21  1  0
 22 20  2  0
M  END
$$$$
