SSK.pdb
     RDKit          3D

 22 21  0  0  1  0  0  0  0  0999 V2000
   17.7165  -13.2932  -18.0670 O   0  0  0  0  0  0  0  0  0  0  0  0
   17.7617  -12.1737  -17.2679 C   0  0  0  0  0  0  0  0  0  0  0  0
   19.0117  -12.0763  -16.4337 C   0  0  2  0  0  0  0  0  0  0  0  0
   19.1309  -13.2632  -15.6484 N   0  0  0  0  0  0  0  0  0  0  0  0
   19.1183  -10.8313  -15.6616 C   0  0  0  0  0  0  0  0  0  0  0  0
   18.5254  -10.7284  -14.5571 O   0  0  0  0  0  0  0  0  0  0  0  0
   22.1807   -8.3412  -16.1127 O   0  0  0  0  0  0  0  0  0  0  0  0
   21.4129   -8.1526  -14.9584 C   0  0  0  0  0  0  0  0  0  0  0  0
   19.9995   -8.4990  -15.2939 C   0  0  2  0  0  0  0  0  0  0  0  0
   19.8697   -9.6924  -16.0864 N   0  0  0  0  0  0  0  0  0  0  0  0
   19.3710   -7.3206  -15.9507 C   0  0  0  0  0  0  0  0  0  0  0  0
   19.4091   -7.2850  -17.1782 O   0  0  0  0  0  0  0  0  0  0  0  0
   18.7651   -6.3011  -15.2027 N   0  0  0  0  0  0  0  0  0  0  0  0
   18.2376   -5.0748  -15.6905 C   0  0  1  0  0  0  0  0  0  0  0  0
   17.0761   -4.5438  -14.9439 C   0  0  0  0  0  0  0  0  0  0  0  0
   16.4626   -3.2841  -15.4325 C   0  0  0  0  0  0  0  0  0  0  0  0
   15.3645   -2.7612  -14.5365 C   0  0  0  0  0  0  0  0  0  0  0  0
   14.7017   -1.5756  -15.2233 C   0  0  0  0  0  0  0  0  0  0  0  0
   13.6921   -0.9674  -14.4012 N   0  0  0  0  0  0  0  0  0  0  0  0
   19.3197   -4.0787  -15.9638 C   0  0  0  0  0  0  0  0  0  0  0  0
   19.3389   -3.2630  -17.0925 O   0  0  0  0  0  0  0  0  0  0  0  0
   20.2613   -3.9454  -15.1691 O   0  0  0  0  0  0  0  0  0  0  0  0
  1  2  1  0
  2  3  1  0
  3  4  1  1
  5 10  1  0
  5  3  1  0
  6  5  2  0
  9  8  1  6
  8  7  1  0
  9 11  1  0
  9 10  1  0
 11 13  1  0
 12 11  2  0
 13 14  1  0
 14 20  1  0
 14 15  1  1
 16 15  1  0
 17 16  1  0
 18 17  1  0
 19 18  1  0
 20 21  1  0
 22 20  2  0
M  END
$$$$
