SSK.pdb
     RDKit          3D

 22 21  0  0  1  0  0  0  0  0999 V2000
   27.2481  -18.2681  -15.0427 O   0  0  0  0  0  0  0  0  0  0  0  0
   28.1561  -18.8340  -14.1771 C   0  0  0  0  0  0  0  0  0  0  0  0
   28.1228  -20.3396  -14.1652 C   0  0  2  0  0  0  0  0  0  0  0  0
   28.3600  -20.8126  -15.4918 N   0  0  0  0  0  0  0  0  0  0  0  0
   26.9249  -20.9050  -13.5305 C   0  0  0  0  0  0  0  0  0  0  0  0
   26.0804  -21.5226  -14.2286 O   0  0  0  0  0  0  0  0  0  0  0  0
   25.6912  -19.8791   -9.6806 O   0  0  0  0  0  0  0  0  0  0  0  0
   25.3852  -21.1906  -10.0603 C   0  0  0  0  0  0  0  0  0  0  0  0
   25.4004  -21.2445  -11.5526 C   0  0  2  0  0  0  0  0  0  0  0  0
   26.6393  -20.8016  -12.1341 N   0  0  0  0  0  0  0  0  0  0  0  0
   24.2357  -20.4705  -12.0619 C   0  0  0  0  0  0  0  0  0  0  0  0
   24.3374  -19.2462  -12.0524 O   0  0  0  0  0  0  0  0  0  0  0  0
   23.0787  -21.1099  -12.5294 N   0  0  0  0  0  0  0  0  0  0  0  0
   21.9050  -20.4948  -13.0436 C   0  0  1  0  0  0  0  0  0  0  0  0
   21.8267  -20.4147  -14.5187 C   0  0  0  0  0  0  0  0  0  0  0  0
   21.6738  -19.0698  -15.1268 C   0  0  0  0  0  0  0  0  0  0  0  0
   21.6003  -19.0950  -16.6354 C   0  0  0  0  0  0  0  0  0  0  0  0
   21.4039  -17.6709  -17.1352 C   0  0  0  0  0  0  0  0  0  0  0  0
   21.3797  -17.5981  -18.5701 N   0  0  0  0  0  0  0  0  0  0  0  0
   20.6719  -21.0138  -12.3745 C   0  0  0  0  0  0  0  0  0  0  0  0
   20.6820  -22.0748  -11.4723 O   0  0  0  0  0  0  0  0  0  0  0  0
   19.5694  -20.4992  -12.6105 O   0  0  0  0  0  0  0  0  0  0  0  0
  1  2  1  0
  2  3  1  0
  3  4  1  6
  5 10  1  0
  5  3  1  0
  6  5  2  0
  9  8  1  1
  8  7  1  0
  9 11  1  0
  9 10  1  0
 11 13  1  0
 12 11  2  0
 13 14  1  0
 14 20  1  0
 14 15  1  6
 16 15  1  0
 17 16  1  0
 18 17  1  0
 19 18  1  0
 20 21  1  0
 22 20  2  0
M  END
$$$$
