SSK.pdb
     RDKit          3D

 22 21  0  0  1  0  0  0  0  0999 V2000
   14.1280  -11.2662  -16.0625 O   0  0  0  0  0  0  0  0  0  0  0  0
   14.6753  -10.8591  -14.8673 C   0  0  0  0  0  0  0  0  0  0  0  0
   16.1732  -11.0027  -14.8081 C   0  0  2  0  0  0  0  0  0  0  0  0
   16.5023  -12.3908  -14.8744 N   0  0  0  0  0  0  0  0  0  0  0  0
   16.7970  -10.2899  -13.6855 C   0  0  0  0  0  0  0  0  0  0  0  0
   16.7290  -10.7703  -12.5251 O   0  0  0  0  0  0  0  0  0  0  0  0
   19.3853   -6.6323  -11.8615 O   0  0  0  0  0  0  0  0  0  0  0  0
   18.9798   -7.2533  -13.0480 C   0  0  0  0  0  0  0  0  0  0  0  0
   17.9664   -8.2907  -12.6918 C   0  0  2  0  0  0  0  0  0  0  0  0
   17.4977   -9.0515  -13.8190 N   0  0  0  0  0  0  0  0  0  0  0  0
   16.8515   -7.6266  -11.9631 C   0  0  0  0  0  0  0  0  0  0  0  0
   16.0018   -7.0614  -12.6471 O   0  0  0  0  0  0  0  0  0  0  0  0
   16.7764   -7.6461  -10.5631 N   0  0  0  0  0  0  0  0  0  0  0  0
   15.8630   -6.9316   -9.7414 C   0  0  1  0  0  0  0  0  0  0  0  0
   15.0547   -7.7627   -8.8225 C   0  0  0  0  0  0  0  0  0  0  0  0
   13.6097   -7.9143   -9.1242 C   0  0  0  0  0  0  0  0  0  0  0  0
   12.8653   -8.7465   -8.1068 C   0  0  0  0  0  0  0  0  0  0  0  0
   11.4015   -8.8191   -8.5172 C   0  0  0  0  0  0  0  0  0  0  0  0
   10.6240   -9.6217   -7.6137 N   0  0  0  0  0  0  0  0  0  0  0  0
   16.5065   -5.7379   -9.1099 C   0  0  0  0  0  0  0  0  0  0  0  0
   15.7928   -4.7636   -8.4164 O   0  0  0  0  0  0  0  0  0  0  0  0
   17.7326   -5.5749   -9.1876 O   0  0  0  0  0  0  0  0  0  0  0  0
  1  2  1  0
  2  3  1  0
  3  4  1  1
  5 10  1  0
  5  3  1  0
  6  5  2  0
  9  8  1  6
  8  7  1  0
  9 11  1  0
  9 10  1  0
 11 13  1  0
 12 11  2  0
 13 14  1  0
 14 20  1  0
 14 15  1  1
 16 15  1  0
 17 16  1  0
 18 17  1  0
 19 18  1  0
 20 21  1  0
 22 20  2  0
M  END
$$$$
