SSK.pdb
     RDKit          3D

 22 21  0  0  1  0  0  0  0  0999 V2000
   19.8824  -27.9108   -9.3438 O   0  0  0  0  0  0  0  0  0  0  0  0
   19.1362  -26.9136   -9.9291 C   0  0  0  0  0  0  0  0  0  0  0  0
   18.8129  -25.7747   -8.9984 C   0  0  2  0  0  0  0  0  0  0  0  0
   17.7854  -26.1957   -8.1003 N   0  0  0  0  0  0  0  0  0  0  0  0
   18.5303  -24.5063   -9.6832 C   0  0  0  0  0  0  0  0  0  0  0  0
   17.4367  -23.9182   -9.4827 O   0  0  0  0  0  0  0  0  0  0  0  0
   21.2224  -22.8581  -12.2874 O   0  0  0  0  0  0  0  0  0  0  0  0
   20.2708  -21.9337  -11.8428 C   0  0  0  0  0  0  0  0  0  0  0  0
   19.0882  -22.7026  -11.3526 C   0  0  2  0  0  0  0  0  0  0  0  0
   19.4350  -23.8713  -10.5890 N   0  0  0  0  0  0  0  0  0  0  0  0
   18.2267  -23.0331  -12.5203 C   0  0  0  0  0  0  0  0  0  0  0  0
   18.3933  -24.1351  -13.0372 O   0  0  0  0  0  0  0  0  0  0  0  0
   17.2714  -22.1287  -13.0057 N   0  0  0  0  0  0  0  0  0  0  0  0
   16.3805  -22.3225  -14.0960 C   0  0  1  0  0  0  0  0  0  0  0  0
   15.0147  -21.7890  -13.9001 C   0  0  0  0  0  0  0  0  0  0  0  0
   14.0849  -22.5752  -13.0519 C   0  0  0  0  0  0  0  0  0  0  0  0
   12.7409  -21.9137  -12.8572 C   0  0  0  0  0  0  0  0  0  0  0  0
   11.9201  -22.7579  -11.8929 C   0  0  0  0  0  0  0  0  0  0  0  0
   10.6944  -22.1108  -11.5136 N   0  0  0  0  0  0  0  0  0  0  0  0
   17.0175  -21.9597  -15.4000 C   0  0  0  0  0  0  0  0  0  0  0  0
   16.8356  -22.6946  -16.5690 O   0  0  0  0  0  0  0  0  0  0  0  0
   17.7493  -20.9629  -15.4817 O   0  0  0  0  0  0  0  0  0  0  0  0
  1  2  1  0
  2  3  1  0
  3  4  1  6
  5 10  1  0
  5  3  1  0
  6  5  2  0
  9  8  1  6
  8  7  1  0
  9 11  1  0
  9 10  1  0
 11 13  1  0
 12 11  2  0
 13 14  1  0
 14 20  1  0
 14 15  1  1
 16 15  1  0
 17 16  1  0
 18 17  1  0
 19 18  1  0
 20 21  1  0
 22 20  2  0
M  END
$$$$
