SSK.pdb
     RDKit          3D

 22 21  0  0  1  0  0  0  0  0999 V2000
   15.8187  -11.3172  -17.1380 O   0  0  0  0  0  0  0  0  0  0  0  0
   16.7638  -10.6886  -16.3598 C   0  0  0  0  0  0  0  0  0  0  0  0
   18.1756  -11.1211  -16.6557 C   0  0  2  0  0  0  0  0  0  0  0  0
   18.2539  -12.5417  -16.5323 N   0  0  0  0  0  0  0  0  0  0  0  0
   19.1956  -10.3938  -15.8889 C   0  0  0  0  0  0  0  0  0  0  0  0
   19.2600  -10.5380  -14.6410 O   0  0  0  0  0  0  0  0  0  0  0  0
   23.1982   -7.7416  -15.5704 O   0  0  0  0  0  0  0  0  0  0  0  0
   22.2950   -8.3126  -16.4736 C   0  0  0  0  0  0  0  0  0  0  0  0
   21.0951   -8.7485  -15.6988 C   0  0  2  0  0  0  0  0  0  0  0  0
   20.1503   -9.5063  -16.4747 N   0  0  0  0  0  0  0  0  0  0  0  0
   20.4738   -7.5458  -15.0804 C   0  0  0  0  0  0  0  0  0  0  0  0
   19.6831   -6.9119  -15.7749 O   0  0  0  0  0  0  0  0  0  0  0  0
   20.7775   -7.1565  -13.7681 N   0  0  0  0  0  0  0  0  0  0  0  0
   20.2498   -6.0444  -13.0576 C   0  0  1  0  0  0  0  0  0  0  0  0
   19.7848   -6.3340  -11.6834 C   0  0  0  0  0  0  0  0  0  0  0  0
   18.3215   -6.4431  -11.4617 C   0  0  0  0  0  0  0  0  0  0  0  0
   17.9374   -6.5287  -10.0033 C   0  0  0  0  0  0  0  0  0  0  0  0
   16.4243   -6.6617   -9.9074 C   0  0  0  0  0  0  0  0  0  0  0  0
   15.9653   -6.6662   -8.5457 N   0  0  0  0  0  0  0  0  0  0  0  0
   21.1293   -4.8410  -13.1844 C   0  0  0  0  0  0  0  0  0  0  0  0
   20.6361   -3.5425  -13.2866 O   0  0  0  0  0  0  0  0  0  0  0  0
   22.3620   -4.9674  -13.2033 O   0  0  0  0  0  0  0  0  0  0  0  0
  1  2  1  0
  2  3  1  0
  3  4  1  1
  5 10  1  0
  5  3  1  0
  6  5  2  0
  9  8  1  6
  8  7  1  0
  9 11  1  0
  9 10  1  0
 11 13  1  0
 12 11  2  0
 13 14  1  0
 14 20  1  0
 14 15  1  1
 16 15  1  0
 17 16  1  0
 18 17  1  0
 19 18  1  0
 20 21  1  0
 22 20  2  0
M  END
$$$$
