SSK.pdb
     RDKit          3D

 22 21  0  0  1  0  0  0  0  0999 V2000
   17.8811  -28.6771  -12.5479 O   0  0  0  0  0  0  0  0  0  0  0  0
   19.2290  -28.8940  -12.3752 C   0  0  0  0  0  0  0  0  0  0  0  0
   20.0504  -27.6319  -12.3827 C   0  0  2  0  0  0  0  0  0  0  0  0
   21.4262  -27.9809  -12.2240 N   0  0  0  0  0  0  0  0  0  0  0  0
   19.5780  -26.6067  -11.4429 C   0  0  0  0  0  0  0  0  0  0  0  0
   19.7284  -26.7764  -10.2057 O   0  0  0  0  0  0  0  0  0  0  0  0
   18.6824  -22.8514  -12.7279 O   0  0  0  0  0  0  0  0  0  0  0  0
   19.0652  -22.9836  -11.3887 C   0  0  0  0  0  0  0  0  0  0  0  0
   18.6244  -24.3325  -10.9234 C   0  0  2  0  0  0  0  0  0  0  0  0
   18.9397  -25.3924  -11.8433 N   0  0  0  0  0  0  0  0  0  0  0  0
   17.1689  -24.2711  -10.6190 C   0  0  0  0  0  0  0  0  0  0  0  0
   16.4030  -24.6709  -11.4925 O   0  0  0  0  0  0  0  0  0  0  0  0
   16.6964  -23.7800   -9.3936 N   0  0  0  0  0  0  0  0  0  0  0  0
   15.3414  -23.5890   -9.0092 C   0  0  1  0  0  0  0  0  0  0  0  0
   15.0587  -23.7814   -7.5700 C   0  0  0  0  0  0  0  0  0  0  0  0
   15.5463  -25.0307   -6.9348 C   0  0  0  0  0  0  0  0  0  0  0  0
   15.3291  -25.0719   -5.4404 C   0  0  0  0  0  0  0  0  0  0  0  0
   15.9937  -26.3249   -4.8882 C   0  0  0  0  0  0  0  0  0  0  0  0
   15.7988  -26.4627   -3.4712 N   0  0  0  0  0  0  0  0  0  0  0  0
   14.7708  -22.3396   -9.6018 C   0  0  0  0  0  0  0  0  0  0  0  0
   15.5218  -21.4394  -10.3537 O   0  0  0  0  0  0  0  0  0  0  0  0
   13.5751  -22.0591   -9.4360 O   0  0  0  0  0  0  0  0  0  0  0  0
  1  2  1  0
  2  3  1  0
  3  4  1  1
  5 10  1  0
  5  3  1  0
  6  5  2  0
  9  8  1  6
  8  7  1  0
  9 11  1  0
  9 10  1  0
 11 13  1  0
 12 11  2  0
 13 14  1  0
 14 20  1  0
 14 15  1  1
 16 15  1  0
 17 16  1  0
 18 17  1  0
 19 18  1  0
 20 21  1  0
 22 20  2  0
M  END
$$$$
