SSK.pdb
     RDKit          3D

 22 21  0  0  1  0  0  0  0  0999 V2000
   15.1794   -8.4706   -9.6705 O   0  0  0  0  0  0  0  0  0  0  0  0
   15.8336   -7.6580  -10.5680 C   0  0  0  0  0  0  0  0  0  0  0  0
   17.1978   -7.2201  -10.1043 C   0  0  2  0  0  0  0  0  0  0  0  0
   17.0440   -6.3840   -8.9567 N   0  0  0  0  0  0  0  0  0  0  0  0
   18.0301   -6.6376  -11.1652 C   0  0  0  0  0  0  0  0  0  0  0  0
   17.9909   -5.3991  -11.3811 O   0  0  0  0  0  0  0  0  0  0  0  0
   21.4400   -7.0568  -14.5862 O   0  0  0  0  0  0  0  0  0  0  0  0
   20.6201   -7.7812  -13.7140 C   0  0  0  0  0  0  0  0  0  0  0  0
   19.7166   -6.8085  -13.0301 C   0  0  2  0  0  0  0  0  0  0  0  0
   18.9089   -7.3985  -11.9965 N   0  0  0  0  0  0  0  0  0  0  0  0
   18.8911   -6.1278  -14.0646 C   0  0  0  0  0  0  0  0  0  0  0  0
   17.8670   -6.7040  -14.4233 O   0  0  0  0  0  0  0  0  0  0  0  0
   19.2660   -4.8886  -14.6029 N   0  0  0  0  0  0  0  0  0  0  0  0
   18.5533   -4.1163  -15.5599 C   0  0  1  0  0  0  0  0  0  0  0  0
   17.6250   -3.1112  -14.9975 C   0  0  0  0  0  0  0  0  0  0  0  0
   16.8237   -2.3056  -15.9521 C   0  0  0  0  0  0  0  0  0  0  0  0
   15.8478   -1.3689  -15.2797 C   0  0  0  0  0  0  0  0  0  0  0  0
   14.9817   -0.7208  -16.3503 C   0  0  0  0  0  0  0  0  0  0  0  0
   13.9863    0.1503  -15.7889 N   0  0  0  0  0  0  0  0  0  0  0  0
   19.4549   -3.6068  -16.6393 C   0  0  0  0  0  0  0  0  0  0  0  0
   20.8365   -3.5053  -16.4953 O   0  0  0  0  0  0  0  0  0  0  0  0
   18.9847   -3.2481  -17.7285 O   0  0  0  0  0  0  0  0  0  0  0  0
  1  2  1  0
  2  3  1  0
  3  4  1  1
  5 10  1  0
  5  3  1  0
  6  5  2  0
  9  8  1  6
  8  7  1  0
  9 11  1  0
  9 10  1  0
 11 13  1  0
 12 11  2  0
 13 14  1  0
 14 20  1  0
 14 15  1  1
 16 15  1  0
 17 16  1  0
 18 17  1  0
 19 18  1  0
 20 21  1  0
 22 20  2  0
M  END
$$$$
