SSK.pdb
     RDKit          3D

 22 21  0  0  1  0  0  0  0  0999 V2000
   15.7863  -11.0197  -17.5500 O   0  0  0  0  0  0  0  0  0  0  0  0
   16.6025  -10.4281  -16.6131 C   0  0  0  0  0  0  0  0  0  0  0  0
   17.7117  -11.3227  -16.1262 C   0  0  2  0  0  0  0  0  0  0  0  0
   17.1439  -12.3619  -15.3279 N   0  0  0  0  0  0  0  0  0  0  0  0
   18.8177  -10.6041  -15.4797 C   0  0  0  0  0  0  0  0  0  0  0  0
   18.8157  -10.4466  -14.2318 O   0  0  0  0  0  0  0  0  0  0  0  0
   22.4741   -9.8915  -17.2614 O   0  0  0  0  0  0  0  0  0  0  0  0
   22.3576   -9.8692  -15.8673 C   0  0  0  0  0  0  0  0  0  0  0  0
   20.9996   -9.3441  -15.5354 C   0  0  2  0  0  0  0  0  0  0  0  0
   19.9309  -10.0533  -16.1865 N   0  0  0  0  0  0  0  0  0  0  0  0
   20.9720   -7.8879  -15.8413 C   0  0  0  0  0  0  0  0  0  0  0  0
   20.3720   -7.5467  -16.8576 O   0  0  0  0  0  0  0  0  0  0  0  0
   21.6014   -6.9519  -15.0084 N   0  0  0  0  0  0  0  0  0  0  0  0
   21.6027   -5.5378  -15.1517 C   0  0  1  0  0  0  0  0  0  0  0  0
   20.2724   -4.9199  -15.3438 C   0  0  0  0  0  0  0  0  0  0  0  0
   20.2052   -3.4389  -15.4071 C   0  0  0  0  0  0  0  0  0  0  0  0
   19.1985   -2.9233  -16.4086 C   0  0  0  0  0  0  0  0  0  0  0  0
   19.2262   -1.4017  -16.3844 C   0  0  0  0  0  0  0  0  0  0  0  0
   18.2328   -0.8273  -17.2493 N   0  0  0  0  0  0  0  0  0  0  0  0
   22.4597   -4.8793  -14.1174 C   0  0  0  0  0  0  0  0  0  0  0  0
   23.2637   -3.7737  -14.3836 O   0  0  0  0  0  0  0  0  0  0  0  0
   22.4808   -5.3116  -12.9561 O   0  0  0  0  0  0  0  0  0  0  0  0
  1  2  1  0
  2  3  1  0
  3  4  1  1
  5 10  1  0
  5  3  1  0
  6  5  2  0
  9  8  1  6
  8  7  1  0
  9 11  1  0
  9 10  1  0
 11 13  1  0
 12 11  2  0
 13 14  1  0
 14 20  1  0
 14 15  1  1
 16 15  1  0
 17 16  1  0
 18 17  1  0
 19 18  1  0
 20 21  1  0
 22 20  2  0
M  END
$$$$
