WMV.pdb
     RDKit          3D

 30 31  0  0  1  0  0  0  0  0999 V2000
   23.1451  -20.8143  -11.3458 N   0  0  0  0  0  0  0  0  0  0  0  0
   23.0936  -21.2609   -9.9965 C   0  0  1  0  0  0  0  0  0  0  0  0
   23.7218  -20.3773   -8.9768 C   0  0  0  0  0  0  0  0  0  0  0  0
   25.1666  -20.6124   -8.9157 C   0  0  0  0  0  0  0  0  0  0  0  0
   25.9030  -21.1105   -9.9995 C   0  0  0  0  0  0  0  0  0  0  0  0
   27.1646  -21.1705   -9.5825 N   0  0  0  0  0  0  0  0  0  0  0  0
   27.2833  -20.7500   -8.3210 C   0  0  0  0  0  0  0  0  0  0  0  0
   28.3701  -20.6361   -7.4729 C   0  0  0  0  0  0  0  0  0  0  0  0
   28.1681  -20.1640   -6.1973 C   0  0  0  0  0  0  0  0  0  0  0  0
   26.9071  -19.8085   -5.7636 C   0  0  0  0  0  0  0  0  0  0  0  0
   25.8392  -19.9200   -6.5960 C   0  0  0  0  0  0  0  0  0  0  0  0
   26.0192  -20.3881   -7.8727 C   0  0  0  0  0  0  0  0  0  0  0  0
   21.6820  -21.5700   -9.5600 C   0  0  0  0  0  0  0  0  0  0  0  0
   20.8549  -20.6249   -9.6308 O   0  0  0  0  0  0  0  0  0  0  0  0
   16.2975  -26.2090  -11.7391 C   0  0  0  0  0  0  0  0  0  0  0  0
   17.9669  -25.5569  -11.5831 S   0  0  0  0  0  0  0  0  0  0  0  0
   18.0918  -24.4544  -10.1086 C   0  0  0  0  0  0  0  0  0  0  0  0
   19.5088  -24.0367  -10.0274 C   0  0  0  0  0  0  0  0  0  0  0  0
   19.8735  -23.1103   -8.8908 C   0  0  2  0  0  0  0  0  0  0  0  0
   21.3072  -22.8353   -9.1013 N   0  0  0  0  0  0  0  0  0  0  0  0
   19.6556  -23.7555   -7.6011 C   0  0  0  0  0  0  0  0  0  0  0  0
   20.6748  -24.1540   -6.9279 O   0  0  0  0  0  0  0  0  0  0  0  0
   16.8651  -25.2006   -3.7687 C   0  0  0  0  0  0  0  0  0  0  0  0
   16.9425  -24.4670   -5.0655 C   0  0  1  0  0  0  0  0  0  0  0  0
   16.6915  -22.9887   -4.8262 C   0  0  0  0  0  0  0  0  0  0  0  0
   18.3303  -24.6617   -5.6659 C   0  0  2  0  0  0  0  0  0  0  0  0
   18.4172  -24.0083   -6.9599 N   0  0  0  0  0  0  0  0  0  0  0  0
   18.5235  -26.1075   -5.8600 C   0  0  0  0  0  0  0  0  0  0  0  0
   17.9750  -26.7006   -6.8151 O   0  0  0  0  0  0  0  0  0  0  0  0
   19.3051  -26.9017   -5.0246 O   0  0  0  0  0  0  0  0  0  0  0  0
  2  1  1  6
  3  4  1  0
  3  2  1  0
  4  5  2  0
  6  5  1  0
  7  6  1  0
  8  7  2  0
  9  8  1  0
 10 11  1  0
 10  9  2  0
 11 12  2  0
 12  7  1  0
 12  4  1  0
 13  2  1  0
 13 14  2  0
 16 15  1  0
 16 17  1  0
 17 18  1  0
 19 18  1  6
 19 20  1  0
 20 13  1  0
 21 19  1  0
 22 21  2  0
 24 23  1  1
 24 25  1  0
 24 26  1  0
 26 27  1  6
 26 28  1  0
 27 21  1  0
 28 30  1  0
 29 28  2  0
M  END
$$$$
