WMV.pdb
     RDKit          3D

 30 31  0  0  1  0  0  0  0  0999 V2000
   27.5231  -21.2220  -18.5263 N   0  0  0  0  0  0  0  0  0  0  0  0
   26.4546  -20.4795  -17.9522 C   0  0  1  0  0  0  0  0  0  0  0  0
   25.2699  -20.2358  -18.8195 C   0  0  0  0  0  0  0  0  0  0  0  0
   24.9159  -18.8141  -18.8153 C   0  0  0  0  0  0  0  0  0  0  0  0
   25.7229  -17.8273  -19.3982 C   0  0  0  0  0  0  0  0  0  0  0  0
   25.0768  -16.6788  -19.2180 N   0  0  0  0  0  0  0  0  0  0  0  0
   23.9257  -16.8620  -18.5670 C   0  0  0  0  0  0  0  0  0  0  0  0
   22.9363  -15.9875  -18.1550 C   0  0  0  0  0  0  0  0  0  0  0  0
   21.8461  -16.4895  -17.4840 C   0  0  0  0  0  0  0  0  0  0  0  0
   21.7339  -17.8398  -17.2224 C   0  0  0  0  0  0  0  0  0  0  0  0
   22.7052  -18.6994  -17.6268 C   0  0  0  0  0  0  0  0  0  0  0  0
   23.8007  -18.2192  -18.2983 C   0  0  0  0  0  0  0  0  0  0  0  0
   25.9822  -21.0864  -16.6533 C   0  0  0  0  0  0  0  0  0  0  0  0
   25.6367  -22.2952  -16.6936 O   0  0  0  0  0  0  0  0  0  0  0  0
   28.5474  -19.4312  -11.4761 C   0  0  0  0  0  0  0  0  0  0  0  0
   28.9469  -21.0853  -12.0600 S   0  0  0  0  0  0  0  0  0  0  0  0
   27.8153  -21.5736  -13.4334 C   0  0  0  0  0  0  0  0  0  0  0  0
   26.5786  -20.7833  -13.2468 C   0  0  0  0  0  0  0  0  0  0  0  0
   25.4669  -21.0282  -14.2403 C   0  0  2  0  0  0  0  0  0  0  0  0
   25.9293  -20.3512  -15.4664 N   0  0  0  0  0  0  0  0  0  0  0  0
   24.2123  -20.4497  -13.7730 C   0  0  0  0  0  0  0  0  0  0  0  0
   24.1223  -19.1728  -13.6624 O   0  0  0  0  0  0  0  0  0  0  0  0
   20.8208  -20.5377  -15.1970 C   0  0  0  0  0  0  0  0  0  0  0  0
   20.6182  -20.8952  -13.7628 C   0  0  1  0  0  0  0  0  0  0  0  0
   20.4522  -22.3992  -13.6349 C   0  0  0  0  0  0  0  0  0  0  0  0
   21.8328  -20.4426  -12.9602 C   0  0  2  0  0  0  0  0  0  0  0  0
   23.0253  -21.1360  -13.4140 N   0  0  0  0  0  0  0  0  0  0  0  0
   21.5885  -20.8064  -11.5554 C   0  0  0  0  0  0  0  0  0  0  0  0
   22.2103  -21.7537  -11.0255 O   0  0  0  0  0  0  0  0  0  0  0  0
   20.6773  -20.1473  -10.7338 O   0  0  0  0  0  0  0  0  0  0  0  0
  2  1  1  6
  3  4  1  0
  3  2  1  0
  4  5  2  0
  6  5  1  0
  7  6  1  0
  8  7  2  0
  9  8  1  0
 10 11  1  0
 10  9  2  0
 11 12  2  0
 12  7  1  0
 12  4  1  0
 13  2  1  0
 13 14  2  0
 16 15  1  0
 16 17  1  0
 17 18  1  0
 19 18  1  1
 19 20  1  0
 20 13  1  0
 21 19  1  0
 22 21  2  0
 24 23  1  6
 24 25  1  0
 24 26  1  0
 26 27  1  6
 26 28  1  0
 27 21  1  0
 28 30  1  0
 29 28  2  0
M  END
$$$$
