WMV.pdb
     RDKit          3D

 30 31  0  0  1  0  0  0  0  0999 V2000
   35.4527  -30.2017  -22.4787 N   0  0  0  0  0  0  0  0  0  0  0  0
   34.6682  -30.1418  -21.2939 C   0  0  1  0  0  0  0  0  0  0  0  0
   33.2128  -30.4152  -21.4427 C   0  0  0  0  0  0  0  0  0  0  0  0
   32.5354  -29.2665  -22.0493 C   0  0  0  0  0  0  0  0  0  0  0  0
   33.0645  -28.5585  -23.1372 C   0  0  0  0  0  0  0  0  0  0  0  0
   32.1744  -27.6114  -23.4197 N   0  0  0  0  0  0  0  0  0  0  0  0
   31.1251  -27.6649  -22.5960 C   0  0  0  0  0  0  0  0  0  0  0  0
   29.9751  -26.9025  -22.4977 C   0  0  0  0  0  0  0  0  0  0  0  0
   29.0605  -27.2069  -21.5170 C   0  0  0  0  0  0  0  0  0  0  0  0
   29.2790  -28.2521  -20.6428 C   0  0  0  0  0  0  0  0  0  0  0  0
   30.4082  -29.0014  -20.7387 C   0  0  0  0  0  0  0  0  0  0  0  0
   31.3329  -28.7149  -21.7105 C   0  0  0  0  0  0  0  0  0  0  0  0
   35.2169  -31.0381  -20.2103 C   0  0  0  0  0  0  0  0  0  0  0  0
   35.5679  -32.1931  -20.5640 O   0  0  0  0  0  0  0  0  0  0  0  0
   39.5636  -30.7620  -15.1918 C   0  0  0  0  0  0  0  0  0  0  0  0
   39.3067  -29.8440  -16.7174 S   0  0  0  0  0  0  0  0  0  0  0  0
   38.1797  -30.7729  -17.8454 C   0  0  0  0  0  0  0  0  0  0  0  0
   36.8852  -30.8780  -17.1368 C   0  0  0  0  0  0  0  0  0  0  0  0
   35.7725  -31.5905  -17.8698 C   0  0  2  0  0  0  0  0  0  0  0  0
   35.3318  -30.6143  -18.8839 N   0  0  0  0  0  0  0  0  0  0  0  0
   34.6792  -31.9226  -16.9636 C   0  0  0  0  0  0  0  0  0  0  0  0
   34.2434  -31.0186  -16.1613 O   0  0  0  0  0  0  0  0  0  0  0  0
   31.1717  -32.4208  -17.2459 C   0  0  0  0  0  0  0  0  0  0  0  0
   31.6253  -33.6605  -16.5509 C   0  0  1  0  0  0  0  0  0  0  0  0
   31.7954  -34.7764  -17.5666 C   0  0  0  0  0  0  0  0  0  0  0  0
   32.9571  -33.3864  -15.8615 C   0  0  2  0  0  0  0  0  0  0  0  0
   33.9994  -33.1608  -16.8472 N   0  0  0  0  0  0  0  0  0  0  0  0
   33.3024  -34.5875  -15.0847 C   0  0  0  0  0  0  0  0  0  0  0  0
   32.6496  -34.8943  -14.0627 O   0  0  0  0  0  0  0  0  0  0  0  0
   34.3470  -35.4475  -15.4149 O   0  0  0  0  0  0  0  0  0  0  0  0
  2  1  1  6
  3  4  1  0
  3  2  1  0
  4  5  2  0
  6  5  1  0
  7  6  1  0
  8  7  2  0
  9  8  1  0
 10 11  1  0
 10  9  2  0
 11 12  2  0
 12  7  1  0
 12  4  1  0
 13  2  1  0
 13 14  2  0
 16 15  1  0
 16 17  1  0
 17 18  1  0
 19 18  1  1
 19 20  1  0
 20 13  1  0
 21 19  1  0
 22 21  2  0
 24 23  1  6
 24 25  1  0
 24 26  1  0
 26 27  1  6
 26 28  1  0
 27 21  1  0
 28 30  1  0
 29 28  2  0
M  END
$$$$
