WMV.pdb
     RDKit          3D

 30 31  0  0  1  0  0  0  0  0999 V2000
   28.6072  -20.6328  -15.7968 N   0  0  0  0  0  0  0  0  0  0  0  0
   27.6384  -19.8744  -15.0834 C   0  0  1  0  0  0  0  0  0  0  0  0
   26.6471  -19.1218  -15.8994 C   0  0  0  0  0  0  0  0  0  0  0  0
   27.2798  -17.9618  -16.5322 C   0  0  0  0  0  0  0  0  0  0  0  0
   27.7862  -17.9898  -17.8390 C   0  0  0  0  0  0  0  0  0  0  0  0
   28.2579  -16.7679  -18.0703 N   0  0  0  0  0  0  0  0  0  0  0  0
   28.0900  -15.9705  -17.0129 C   0  0  0  0  0  0  0  0  0  0  0  0
   28.4160  -14.6464  -16.7806 C   0  0  0  0  0  0  0  0  0  0  0  0
   28.1124  -14.0942  -15.5584 C   0  0  0  0  0  0  0  0  0  0  0  0
   27.4940  -14.8409  -14.5763 C   0  0  0  0  0  0  0  0  0  0  0  0
   27.1734  -16.1414  -14.8038 C   0  0  0  0  0  0  0  0  0  0  0  0
   27.4669  -16.7112  -16.0165 C   0  0  0  0  0  0  0  0  0  0  0  0
   26.8918  -20.7186  -14.0790 C   0  0  0  0  0  0  0  0  0  0  0  0
   26.5646  -21.8742  -14.4527 O   0  0  0  0  0  0  0  0  0  0  0  0
   27.3911  -21.3445   -7.6628 C   0  0  0  0  0  0  0  0  0  0  0  0
   25.7654  -20.6145   -7.9086 S   0  0  0  0  0  0  0  0  0  0  0  0
   25.0489  -21.1661   -9.5173 C   0  0  0  0  0  0  0  0  0  0  0  0
   25.9389  -20.6272  -10.5692 C   0  0  0  0  0  0  0  0  0  0  0  0
   25.6042  -21.0058  -11.9931 C   0  0  2  0  0  0  0  0  0  0  0  0
   26.5780  -20.2482  -12.8014 N   0  0  0  0  0  0  0  0  0  0  0  0
   24.2397  -20.6162  -12.3299 C   0  0  0  0  0  0  0  0  0  0  0  0
   23.9630  -19.3669  -12.4458 O   0  0  0  0  0  0  0  0  0  0  0  0
   22.2415  -21.0555  -15.3446 C   0  0  0  0  0  0  0  0  0  0  0  0
   21.3646  -21.5618  -14.2489 C   0  0  1  0  0  0  0  0  0  0  0  0
   21.4635  -23.0755  -14.1804 C   0  0  0  0  0  0  0  0  0  0  0  0
   21.8208  -20.9570  -12.9259 C   0  0  2  0  0  0  0  0  0  0  0  0
   23.1306  -21.4676  -12.5619 N   0  0  0  0  0  0  0  0  0  0  0  0
   20.8550  -21.3761  -11.8978 C   0  0  0  0  0  0  0  0  0  0  0  0
   21.0766  -22.3824  -11.1886 O   0  0  0  0  0  0  0  0  0  0  0  0
   19.6597  -20.7085  -11.6425 O   0  0  0  0  0  0  0  0  0  0  0  0
  2  1  1  6
  3  4  1  0
  3  2  1  0
  4  5  2  0
  6  5  1  0
  7  6  1  0
  8  7  2  0
  9  8  1  0
 10 11  1  0
 10  9  2  0
 11 12  2  0
 12  7  1  0
 12  4  1  0
 13  2  1  0
 13 14  2  0
 16 15  1  0
 16 17  1  0
 17 18  1  0
 19 18  1  1
 19 20  1  0
 20 13  1  0
 21 19  1  0
 22 21  2  0
 24 23  1  6
 24 25  1  0
 24 26  1  0
 26 27  1  1
 26 28  1  0
 27 21  1  0
 28 30  1  0
 29 28  2  0
M  END
$$$$
