WMV.pdb
     RDKit          3D

 30 31  0  0  1  0  0  0  0  0999 V2000
   26.0168  -20.6307  -16.8941 N   0  0  0  0  0  0  0  0  0  0  0  0
   26.6571  -19.9019  -15.8541 C   0  0  1  0  0  0  0  0  0  0  0  0
   25.9882  -18.6497  -15.4074 C   0  0  0  0  0  0  0  0  0  0  0  0
   25.9668  -17.6653  -16.4923 C   0  0  0  0  0  0  0  0  0  0  0  0
   24.7798  -17.1262  -17.0073 C   0  0  0  0  0  0  0  0  0  0  0  0
   25.1527  -16.2663  -17.9509 N   0  0  0  0  0  0  0  0  0  0  0  0
   26.4814  -16.2199  -18.0730 C   0  0  0  0  0  0  0  0  0  0  0  0
   27.3183  -15.4957  -18.9028 C   0  0  0  0  0  0  0  0  0  0  0  0
   28.6772  -15.6745  -18.7923 C   0  0  0  0  0  0  0  0  0  0  0  0
   29.2041  -16.5585  -17.8729 C   0  0  0  0  0  0  0  0  0  0  0  0
   28.3828  -17.2701  -17.0575 C   0  0  0  0  0  0  0  0  0  0  0  0
   27.0242  -17.1060  -17.1511 C   0  0  0  0  0  0  0  0  0  0  0  0
   26.9207  -20.7639  -14.6433 C   0  0  0  0  0  0  0  0  0  0  0  0
   26.0774  -21.6661  -14.4046 O   0  0  0  0  0  0  0  0  0  0  0  0
   32.1866  -22.0926   -8.9374 C   0  0  0  0  0  0  0  0  0  0  0  0
   31.6562  -21.4796  -10.5434 S   0  0  0  0  0  0  0  0  0  0  0  0
   29.8273  -21.6463  -10.7237 C   0  0  0  0  0  0  0  0  0  0  0  0
   29.4895  -21.0599  -12.0394 C   0  0  0  0  0  0  0  0  0  0  0  0
   28.0616  -21.2271  -12.5043 C   0  0  2  0  0  0  0  0  0  0  0  0
   28.0391  -20.5756  -13.8274 N   0  0  0  0  0  0  0  0  0  0  0  0
   27.1345  -20.5705  -11.5898 C   0  0  0  0  0  0  0  0  0  0  0  0
   27.0792  -19.2869  -11.5799 O   0  0  0  0  0  0  0  0  0  0  0  0
   23.6480  -20.3693  -11.6794 C   0  0  0  0  0  0  0  0  0  0  0  0
   23.8731  -20.7598  -10.2572 C   0  0  1  0  0  0  0  0  0  0  0  0
   23.6395  -22.2519  -10.0992 C   0  0  0  0  0  0  0  0  0  0  0  0
   25.3077  -20.4207   -9.8685 C   0  0  2  0  0  0  0  0  0  0  0  0
   26.2436  -21.1845  -10.6744 N   0  0  0  0  0  0  0  0  0  0  0  0
   25.4818  -20.8079   -8.4595 C   0  0  0  0  0  0  0  0  0  0  0  0
   26.1898  -21.7925   -8.1527 O   0  0  0  0  0  0  0  0  0  0  0  0
   24.8924  -20.1321   -7.3939 O   0  0  0  0  0  0  0  0  0  0  0  0
  2  1  1  6
  3  4  1  0
  3  2  1  0
  4  5  2  0
  6  5  1  0
  7  6  1  0
  8  7  2  0
  9  8  1  0
 10 11  1  0
 10  9  2  0
 11 12  2  0
 12  7  1  0
 12  4  1  0
 13  2  1  0
 13 14  2  0
 16 15  1  0
 16 17  1  0
 17 18  1  0
 19 18  1  1
 19 20  1  0
 20 13  1  0
 21 19  1  0
 22 21  2  0
 24 23  1  6
 24 25  1  0
 24 26  1  0
 26 27  1  6
 26 28  1  0
 27 21  1  0
 28 30  1  0
 29 28  2  0
M  END
$$$$
