WMV.pdb
     RDKit          3D

 30 31  0  0  1  0  0  0  0  0999 V2000
   27.6833  -19.8828  -11.7359 N   0  0  0  0  0  0  0  0  0  0  0  0
   26.8975  -21.0401  -11.4789 C   0  0  1  0  0  0  0  0  0  0  0  0
   26.2973  -21.1511  -10.1216 C   0  0  0  0  0  0  0  0  0  0  0  0
   27.2757  -20.7779   -9.0969 C   0  0  0  0  0  0  0  0  0  0  0  0
   26.9837  -19.8876   -8.0544 C   0  0  0  0  0  0  0  0  0  0  0  0
   28.0921  -19.8108   -7.3232 N   0  0  0  0  0  0  0  0  0  0  0  0
   29.0613  -20.5820   -7.8216 C   0  0  0  0  0  0  0  0  0  0  0  0
   30.3629  -20.8226   -7.4200 C   0  0  0  0  0  0  0  0  0  0  0  0
   31.1361  -21.6846   -8.1616 C   0  0  0  0  0  0  0  0  0  0  0  0
   30.6301  -22.3020   -9.2873 C   0  0  0  0  0  0  0  0  0  0  0  0
   29.3518  -22.0662   -9.6824 C   0  0  0  0  0  0  0  0  0  0  0  0
   28.5634  -21.2103   -8.9562 C   0  0  0  0  0  0  0  0  0  0  0  0
   25.8032  -21.2156  -12.5038 C   0  0  0  0  0  0  0  0  0  0  0  0
   25.4089  -20.1724  -13.0855 O   0  0  0  0  0  0  0  0  0  0  0  0
   24.8870  -26.6465  -16.1296 C   0  0  0  0  0  0  0  0  0  0  0  0
   23.3156  -26.2789  -15.3348 S   0  0  0  0  0  0  0  0  0  0  0  0
   23.1120  -24.4571  -15.1235 C   0  0  0  0  0  0  0  0  0  0  0  0
   24.1350  -24.0412  -14.1389 C   0  0  0  0  0  0  0  0  0  0  0  0
   24.2477  -22.5585  -13.8707 C   0  0  2  0  0  0  0  0  0  0  0  0
   25.2535  -22.4664  -12.7957 N   0  0  0  0  0  0  0  0  0  0  0  0
   22.9704  -22.0089  -13.4309 C   0  0  0  0  0  0  0  0  0  0  0  0
   22.5809  -22.2336  -12.2274 O   0  0  0  0  0  0  0  0  0  0  0  0
   19.1908  -18.8659  -13.7367 C   0  0  0  0  0  0  0  0  0  0  0  0
   20.5098  -19.3362  -14.2512 C   0  0  1  0  0  0  0  0  0  0  0  0
   21.5820  -18.3206  -13.8977 C   0  0  0  0  0  0  0  0  0  0  0  0
   20.8440  -20.6792  -13.6119 C   0  0  2  0  0  0  0  0  0  0  0  0
   22.0636  -21.2216  -14.1837 N   0  0  0  0  0  0  0  0  0  0  0  0
   19.7362  -21.5975  -13.9202 C   0  0  0  0  0  0  0  0  0  0  0  0
   18.8231  -21.7954  -13.0885 O   0  0  0  0  0  0  0  0  0  0  0  0
   19.6214  -22.2942  -15.1206 O   0  0  0  0  0  0  0  0  0  0  0  0
  2  1  1  1
  3  4  1  0
  3  2  1  0
  4  5  2  0
  6  5  1  0
  7  6  1  0
  8  7  2  0
  9  8  1  0
 10 11  1  0
 10  9  2  0
 11 12  2  0
 12  7  1  0
 12  4  1  0
 13  2  1  0
 13 14  2  0
 16 15  1  0
 16 17  1  0
 17 18  1  0
 19 18  1  1
 19 20  1  0
 20 13  1  0
 21 19  1  0
 22 21  2  0
 24 23  1  1
 24 25  1  0
 24 26  1  0
 26 27  1  6
 26 28  1  0
 27 21  1  0
 28 30  1  0
 29 28  2  0
M  END
$$$$
