WMV.pdb
     RDKit          3D

 30 31  0  0  1  0  0  0  0  0999 V2000
   25.9810  -18.3340   -9.4109 N   0  0  0  0  0  0  0  0  0  0  0  0
   26.4572  -19.6567   -9.6262 C   0  0  1  0  0  0  0  0  0  0  0  0
   26.5244  -20.5441   -8.4333 C   0  0  0  0  0  0  0  0  0  0  0  0
   27.1536  -19.8451   -7.3098 C   0  0  0  0  0  0  0  0  0  0  0  0
   26.9122  -18.4946   -7.0225 C   0  0  0  0  0  0  0  0  0  0  0  0
   27.6312  -18.2216   -5.9374 N   0  0  0  0  0  0  0  0  0  0  0  0
   28.3080  -19.2927   -5.5168 C   0  0  0  0  0  0  0  0  0  0  0  0
   29.1742  -19.4933   -4.4571 C   0  0  0  0  0  0  0  0  0  0  0  0
   29.7315  -20.7384   -4.2839 C   0  0  0  0  0  0  0  0  0  0  0  0
   29.4373  -21.7739   -5.1474 C   0  0  0  0  0  0  0  0  0  0  0  0
   28.5866  -21.5777   -6.1884 C   0  0  0  0  0  0  0  0  0  0  0  0
   28.0193  -20.3434   -6.3785 C   0  0  0  0  0  0  0  0  0  0  0  0
   25.6793  -20.3651  -10.7086 C   0  0  0  0  0  0  0  0  0  0  0  0
   24.4415  -20.1443  -10.7437 O   0  0  0  0  0  0  0  0  0  0  0  0
   29.5477  -22.0281  -15.5543 C   0  0  0  0  0  0  0  0  0  0  0  0
   28.1024  -23.0479  -15.8819 S   0  0  0  0  0  0  0  0  0  0  0  0
   26.5828  -22.2454  -15.2093 C   0  0  0  0  0  0  0  0  0  0  0  0
   26.8411  -22.0190  -13.7702 C   0  0  0  0  0  0  0  0  0  0  0  0
   25.7841  -21.2533  -13.0089 C   0  0  2  0  0  0  0  0  0  0  0  0
   26.2945  -21.2212  -11.6255 N   0  0  0  0  0  0  0  0  0  0  0  0
   24.4981  -21.9386  -13.0690 C   0  0  0  0  0  0  0  0  0  0  0  0
   24.3665  -23.0629  -12.4613 O   0  0  0  0  0  0  0  0  0  0  0  0
   21.2281  -21.1760  -11.7236 C   0  0  0  0  0  0  0  0  0  0  0  0
   20.9456  -21.4778  -13.1571 C   0  0  1  0  0  0  0  0  0  0  0  0
   20.8048  -20.1780  -13.9295 C   0  0  0  0  0  0  0  0  0  0  0  0
   22.0985  -22.2938  -13.7309 C   0  0  2  0  0  0  0  0  0  0  0  0
   23.3210  -21.5100  -13.7319 N   0  0  0  0  0  0  0  0  0  0  0  0
   21.7525  -22.6193  -15.1237 C   0  0  0  0  0  0  0  0  0  0  0  0
   20.8271  -23.4213  -15.3791 O   0  0  0  0  0  0  0  0  0  0  0  0
   22.4055  -22.0788  -16.2287 O   0  0  0  0  0  0  0  0  0  0  0  0
  2  1  1  1
  3  4  1  0
  3  2  1  0
  4  5  2  0
  6  5  1  0
  7  6  1  0
  8  7  2  0
  9  8  1  0
 10 11  1  0
 10  9  2  0
 11 12  2  0
 12  7  1  0
 12  4  1  0
 13  2  1  0
 13 14  2  0
 16 15  1  0
 16 17  1  0
 17 18  1  0
 19 18  1  6
 19 20  1  0
 20 13  1  0
 21 19  1  0
 22 21  2  0
 24 23  1  1
 24 25  1  0
 24 26  1  0
 26 27  1  6
 26 28  1  0
 27 21  1  0
 28 30  1  0
 29 28  2  0
M  END
$$$$
