WMV.pdb
     RDKit          3D

 30 31  0  0  1  0  0  0  0  0999 V2000
   25.8658  -20.7750  -15.1050 N   0  0  0  0  0  0  0  0  0  0  0  0
   25.7905  -19.9382  -13.9576 C   0  0  1  0  0  0  0  0  0  0  0  0
   24.8821  -18.7626  -14.0476 C   0  0  0  0  0  0  0  0  0  0  0  0
   25.2337  -17.9309  -15.2013 C   0  0  0  0  0  0  0  0  0  0  0  0
   24.2774  -17.4130  -16.0856 C   0  0  0  0  0  0  0  0  0  0  0  0
   24.9590  -16.7032  -16.9803 N   0  0  0  0  0  0  0  0  0  0  0  0
   26.2703  -16.7320  -16.7313 C   0  0  0  0  0  0  0  0  0  0  0  0
   27.3555  -16.1620  -17.3724 C   0  0  0  0  0  0  0  0  0  0  0  0
   28.6149  -16.3843  -16.8672 C   0  0  0  0  0  0  0  0  0  0  0  0
   28.8011  -17.1610  -15.7418 C   0  0  0  0  0  0  0  0  0  0  0  0
   27.7359  -17.7212  -15.1116 C   0  0  0  0  0  0  0  0  0  0  0  0
   26.4709  -17.5112  -15.5988 C   0  0  0  0  0  0  0  0  0  0  0  0
   25.4430  -20.7195  -12.7136 C   0  0  0  0  0  0  0  0  0  0  0  0
   24.7519  -21.7573  -12.8796 O   0  0  0  0  0  0  0  0  0  0  0  0
   28.4770  -19.7648   -7.4663 C   0  0  0  0  0  0  0  0  0  0  0  0
   26.9683  -20.2152   -6.5960 S   0  0  0  0  0  0  0  0  0  0  0  0
   25.7519  -20.9659   -7.7631 C   0  0  0  0  0  0  0  0  0  0  0  0
   26.1124  -20.4671   -9.1085 C   0  0  0  0  0  0  0  0  0  0  0  0
   25.3149  -21.0191  -10.2671 C   0  0  2  0  0  0  0  0  0  0  0  0
   25.8631  -20.3176  -11.4432 N   0  0  0  0  0  0  0  0  0  0  0  0
   23.8945  -20.7287  -10.1086 C   0  0  0  0  0  0  0  0  0  0  0  0
   23.4869  -19.5216  -10.2743 O   0  0  0  0  0  0  0  0  0  0  0  0
   21.1523  -20.9775  -12.0789 C   0  0  0  0  0  0  0  0  0  0  0  0
   20.6624  -21.6879  -10.8619 C   0  0  1  0  0  0  0  0  0  0  0  0
   20.8319  -23.1854  -11.0477 C   0  0  0  0  0  0  0  0  0  0  0  0
   21.4716  -21.2254   -9.6554 C   0  0  2  0  0  0  0  0  0  0  0  0
   22.8572  -21.6395   -9.7875 N   0  0  0  0  0  0  0  0  0  0  0  0
   20.9002  -21.8814   -8.4686 C   0  0  0  0  0  0  0  0  0  0  0  0
   21.5487  -22.7533   -7.8490 O   0  0  0  0  0  0  0  0  0  0  0  0
   19.6364  -21.5930   -7.9595 O   0  0  0  0  0  0  0  0  0  0  0  0
  2  1  1  6
  3  4  1  0
  3  2  1  0
  4  5  2  0
  6  5  1  0
  7  6  1  0
  8  7  2  0
  9  8  1  0
 10 11  1  0
 10  9  2  0
 11 12  2  0
 12  7  1  0
 12  4  1  0
 13  2  1  0
 13 14  2  0
 16 15  1  0
 16 17  1  0
 17 18  1  0
 19 18  1  1
 19 20  1  0
 20 13  1  0
 21 19  1  0
 22 21  2  0
 24 23  1  6
 24 25  1  0
 24 26  1  0
 26 27  1  6
 26 28  1  0
 27 21  1  0
 28 30  1  0
 29 28  2  0
M  END
$$$$
