WMV.pdb
     RDKit          3D

 30 31  0  0  1  0  0  0  0  0999 V2000
   26.3805  -20.8193  -12.8462 N   0  0  0  0  0  0  0  0  0  0  0  0
   25.4250  -20.4119  -11.8748 C   0  0  1  0  0  0  0  0  0  0  0  0
   24.0093  -20.7936  -12.1303 C   0  0  0  0  0  0  0  0  0  0  0  0
   23.3728  -19.8279  -13.0295 C   0  0  0  0  0  0  0  0  0  0  0  0
   23.9454  -19.4276  -14.2447 C   0  0  0  0  0  0  0  0  0  0  0  0
   23.0835  -18.5713  -14.7860 N   0  0  0  0  0  0  0  0  0  0  0  0
   22.0119  -18.3988  -14.0087 C   0  0  0  0  0  0  0  0  0  0  0  0
   20.8762  -17.6206  -14.1430 C   0  0  0  0  0  0  0  0  0  0  0  0
   19.9298  -17.6525  -13.1460 C   0  0  0  0  0  0  0  0  0  0  0  0
   20.1027  -18.4437  -12.0285 C   0  0  0  0  0  0  0  0  0  0  0  0
   21.2179  -19.2083  -11.8959 C   0  0  0  0  0  0  0  0  0  0  0  0
   22.1738  -19.1915  -12.8794 C   0  0  0  0  0  0  0  0  0  0  0  0
   25.8031  -20.8705  -10.4872 C   0  0  0  0  0  0  0  0  0  0  0  0
   26.2212  -22.0523  -10.3831 O   0  0  0  0  0  0  0  0  0  0  0  0
   30.0522  -18.5341   -5.8743 C   0  0  0  0  0  0  0  0  0  0  0  0
   28.4623  -19.1485   -5.2988 S   0  0  0  0  0  0  0  0  0  0  0  0
   27.8248  -20.4512   -6.4397 C   0  0  0  0  0  0  0  0  0  0  0  0
   26.9028  -19.7652   -7.3715 C   0  0  0  0  0  0  0  0  0  0  0  0
   25.8502  -20.6250   -8.0318 C   0  0  2  0  0  0  0  0  0  0  0  0
   25.6972  -20.0329   -9.3740 N   0  0  0  0  0  0  0  0  0  0  0  0
   24.5924  -20.5677   -7.2959 C   0  0  0  0  0  0  0  0  0  0  0  0
   23.9470  -19.4574   -7.2580 O   0  0  0  0  0  0  0  0  0  0  0  0
   21.4641  -22.8924   -7.4009 C   0  0  0  0  0  0  0  0  0  0  0  0
   21.8408  -22.6779   -5.9734 C   0  0  1  0  0  0  0  0  0  0  0  0
   22.6146  -23.8828   -5.4679 C   0  0  0  0  0  0  0  0  0  0  0  0
   22.7095  -21.4294   -5.8695 C   0  0  2  0  0  0  0  0  0  0  0  0
   23.9556  -21.6193   -6.5906 N   0  0  0  0  0  0  0  0  0  0  0  0
   23.0210  -21.2312   -4.4450 C   0  0  0  0  0  0  0  0  0  0  0  0
   24.1462  -21.5356   -3.9910 O   0  0  0  0  0  0  0  0  0  0  0  0
   22.1189  -20.7072   -3.5223 O   0  0  0  0  0  0  0  0  0  0  0  0
  2  1  1  6
  3  4  1  0
  3  2  1  0
  4  5  2  0
  6  5  1  0
  7  6  1  0
  8  7  2  0
  9  8  1  0
 10 11  1  0
 10  9  2  0
 11 12  2  0
 12  7  1  0
 12  4  1  0
 13  2  1  0
 13 14  2  0
 16 15  1  0
 16 17  1  0
 17 18  1  0
 19 18  1  1
 19 20  1  0
 20 13  1  0
 21 19  1  0
 22 21  2  0
 24 23  1  6
 24 25  1  0
 24 26  1  0
 26 27  1  6
 26 28  1  0
 27 21  1  0
 28 30  1  0
 29 28  2  0
M  END
$$$$
