WMV.pdb
     RDKit          3D

 30 31  0  0  1  0  0  0  0  0999 V2000
   26.3410  -18.6740  -10.2425 N   0  0  0  0  0  0  0  0  0  0  0  0
   26.6069  -20.0216  -10.6112 C   0  0  1  0  0  0  0  0  0  0  0  0
   26.3692  -21.0576   -9.5695 C   0  0  0  0  0  0  0  0  0  0  0  0
   27.0140  -20.6756   -8.3107 C   0  0  0  0  0  0  0  0  0  0  0  0
   26.3153  -20.0942   -7.2436 C   0  0  0  0  0  0  0  0  0  0  0  0
   27.2142  -19.9085   -6.2811 N   0  0  0  0  0  0  0  0  0  0  0  0
   28.4255  -20.3262   -6.6559 C   0  0  0  0  0  0  0  0  0  0  0  0
   29.6505  -20.3354   -6.0133 C   0  0  0  0  0  0  0  0  0  0  0  0
   30.7438  -20.8376   -6.6790 C   0  0  0  0  0  0  0  0  0  0  0  0
   30.6293  -21.3251   -7.9650 C   0  0  0  0  0  0  0  0  0  0  0  0
   29.4265  -21.3164   -8.5967 C   0  0  0  0  0  0  0  0  0  0  0  0
   28.3232  -20.8205   -7.9501 C   0  0  0  0  0  0  0  0  0  0  0  0
   25.8627  -20.4193  -11.8628 C   0  0  0  0  0  0  0  0  0  0  0  0
   24.7357  -19.8883  -12.0363 O   0  0  0  0  0  0  0  0  0  0  0  0
   29.3430  -22.1801  -16.7614 C   0  0  0  0  0  0  0  0  0  0  0  0
   27.8816  -23.1488  -17.1642 S   0  0  0  0  0  0  0  0  0  0  0  0
   26.3881  -22.4264  -16.3563 C   0  0  0  0  0  0  0  0  0  0  0  0
   26.7886  -22.1008  -14.9697 C   0  0  0  0  0  0  0  0  0  0  0  0
   25.7349  -21.4582  -14.0980 C   0  0  2  0  0  0  0  0  0  0  0  0
   26.3912  -21.3277  -12.7835 N   0  0  0  0  0  0  0  0  0  0  0  0
   24.5503  -22.3035  -14.0018 C   0  0  0  0  0  0  0  0  0  0  0  0
   24.6092  -23.3739  -13.2936 O   0  0  0  0  0  0  0  0  0  0  0  0
   20.6281  -21.0537  -14.8124 C   0  0  0  0  0  0  0  0  0  0  0  0
   20.9812  -22.0847  -13.7935 C   0  0  1  0  0  0  0  0  0  0  0  0
   19.7763  -22.9711  -13.5320 C   0  0  0  0  0  0  0  0  0  0  0  0
   22.1359  -22.9299  -14.3193 C   0  0  2  0  0  0  0  0  0  0  0  0
   23.2862  -22.0912  -14.6064 N   0  0  0  0  0  0  0  0  0  0  0  0
   21.6864  -23.5503  -15.5757 C   0  0  0  0  0  0  0  0  0  0  0  0
   21.9743  -23.0353  -16.6787 O   0  0  0  0  0  0  0  0  0  0  0  0
   20.9315  -24.7192  -15.6334 O   0  0  0  0  0  0  0  0  0  0  0  0
  2  1  1  1
  3  4  1  0
  3  2  1  0
  4  5  2  0
  6  5  1  0
  7  6  1  0
  8  7  2  0
  9  8  1  0
 10 11  1  0
 10  9  2  0
 11 12  2  0
 12  7  1  0
 12  4  1  0
 13  2  1  0
 13 14  2  0
 16 15  1  0
 16 17  1  0
 17 18  1  0
 19 18  1  6
 19 20  1  0
 20 13  1  0
 21 19  1  0
 22 21  2  0
 24 23  1  6
 24 25  1  0
 24 26  1  0
 26 27  1  6
 26 28  1  0
 27 21  1  0
 28 30  1  0
 29 28  2  0
M  END
$$$$
