WSV.pdb
     RDKit          3D

 28 29  0  0  1  0  0  0  0  0999 V2000
   24.0060  -19.6268  -17.0971 N   0  0  0  0  0  0  0  0  0  0  0  0
   22.7269  -19.1541  -16.5161 C   0  0  1  0  0  0  0  0  0  0  0  0
   21.7328  -18.9672  -17.5947 C   0  0  0  0  0  0  0  0  0  0  0  0
   21.9620  -17.9288  -18.5831 C   0  0  0  0  0  0  0  0  0  0  0  0
   22.7262  -18.0203  -19.7482 C   0  0  0  0  0  0  0  0  0  0  0  0
   22.6871  -16.8367  -20.3611 N   0  0  0  0  0  0  0  0  0  0  0  0
   21.9412  -15.9750  -19.6664 C   0  0  0  0  0  0  0  0  0  0  0  0
   21.5761  -14.6456  -19.8815 C   0  0  0  0  0  0  0  0  0  0  0  0
   20.7661  -14.0135  -18.9900 C   0  0  0  0  0  0  0  0  0  0  0  0
   20.2909  -14.6673  -17.8610 C   0  0  0  0  0  0  0  0  0  0  0  0
   20.6477  -15.9832  -17.6393 C   0  0  0  0  0  0  0  0  0  0  0  0
   21.4730  -16.6316  -18.5453 C   0  0  0  0  0  0  0  0  0  0  0  0
   22.3359  -20.1089  -15.4789 C   0  0  0  0  0  0  0  0  0  0  0  0
   22.6488  -21.3387  -15.5478 O   0  0  0  0  0  0  0  0  0  0  0  0
   20.2016  -18.8816  -12.2462 O   0  0  0  0  0  0  0  0  0  0  0  0
   21.0547  -19.9288  -12.0018 C   0  0  0  0  0  0  0  0  0  0  0  0
   21.2461  -20.7521  -13.2971 C   0  0  2  0  0  0  0  0  0  0  0  0
   21.5833  -19.7613  -14.2985 N   0  0  0  0  0  0  0  0  0  0  0  0
   19.9363  -21.3363  -13.6376 C   0  0  0  0  0  0  0  0  0  0  0  0
   19.1039  -20.6691  -14.2839 O   0  0  0  0  0  0  0  0  0  0  0  0
   19.4777  -25.1173  -14.6602 C   0  0  0  0  0  0  0  0  0  0  0  0
   18.3197  -24.7179  -13.7724 C   0  0  1  0  0  0  0  0  0  0  0  0
   18.5604  -25.2903  -12.3883 C   0  0  0  0  0  0  0  0  0  0  0  0
   18.3040  -23.2175  -13.6814 C   0  0  2  0  0  0  0  0  0  0  0  0
   19.5696  -22.6662  -13.2492 N   0  0  0  0  0  0  0  0  0  0  0  0
   17.2269  -22.7622  -12.7248 C   0  0  0  0  0  0  0  0  0  0  0  0
   17.5239  -22.2337  -11.6162 O   0  0  0  0  0  0  0  0  0  0  0  0
   15.8863  -22.9044  -13.0221 O   0  0  0  0  0  0  0  0  0  0  0  0
  2  1  1  6
  3  2  1  0
  4  5  2  0
  4  3  1  0
  6  5  1  0
  7 12  2  0
  7  6  1  0
  8  7  1  0
  9 10  1  0
  9  8  2  0
 10 11  2  0
 11 12  1  0
 12  4  1  0
 13  2  1  0
 14 13  2  0
 16 15  1  0
 17 18  1  0
 17 16  1  1
 18 13  1  0
 19 17  1  0
 20 19  2  0
 22 21  1  6
 22 24  1  0
 23 22  1  0
 24 26  1  0
 24 25  1  1
 25 19  1  0
 26 28  1  0
 27 26  2  0
M  END
$$$$
