WSV.pdb
     RDKit          3D

 28 29  0  0  1  0  0  0  0  0999 V2000
   22.4103  -21.2325  -15.8218 N   0  0  0  0  0  0  0  0  0  0  0  0
   23.3752  -20.2120  -15.3478 C   0  0  1  0  0  0  0  0  0  0  0  0
   22.6455  -18.9901  -14.9464 C   0  0  0  0  0  0  0  0  0  0  0  0
   21.9192  -18.2461  -15.9596 C   0  0  0  0  0  0  0  0  0  0  0  0
   20.5423  -18.0228  -16.0242 C   0  0  0  0  0  0  0  0  0  0  0  0
   20.2914  -17.3083  -17.1218 N   0  0  0  0  0  0  0  0  0  0  0  0
   21.4233  -17.0497  -17.7800 C   0  0  0  0  0  0  0  0  0  0  0  0
   21.7024  -16.3391  -18.9480 C   0  0  0  0  0  0  0  0  0  0  0  0
   22.9877  -16.2208  -19.3775 C   0  0  0  0  0  0  0  0  0  0  0  0
   24.0369  -16.7967  -18.6736 C   0  0  0  0  0  0  0  0  0  0  0  0
   23.7702  -17.5027  -17.5166 C   0  0  0  0  0  0  0  0  0  0  0  0
   22.4617  -17.6258  -17.0750 C   0  0  0  0  0  0  0  0  0  0  0  0
   24.1776  -20.8243  -14.2888 C   0  0  0  0  0  0  0  0  0  0  0  0
   23.6473  -21.4976  -13.3506 O   0  0  0  0  0  0  0  0  0  0  0  0
   28.3238  -20.0948  -13.5496 O   0  0  0  0  0  0  0  0  0  0  0  0
   27.8173  -21.3680  -13.6287 C   0  0  0  0  0  0  0  0  0  0  0  0
   26.3519  -21.3725  -13.1340 C   0  0  2  0  0  0  0  0  0  0  0  0
   25.6151  -20.7371  -14.2071 N   0  0  0  0  0  0  0  0  0  0  0  0
   26.2924  -20.5032  -11.9451 C   0  0  0  0  0  0  0  0  0  0  0  0
   26.1479  -19.2715  -12.0787 O   0  0  0  0  0  0  0  0  0  0  0  0
   24.4493  -21.5116   -9.0539 C   0  0  0  0  0  0  0  0  0  0  0  0
   25.1972  -20.2770   -8.6011 C   0  0  1  0  0  0  0  0  0  0  0  0
   25.6643  -20.4988   -7.1750 C   0  0  0  0  0  0  0  0  0  0  0  0
   26.4010  -20.1159   -9.4868 C   0  0  2  0  0  0  0  0  0  0  0  0
   26.3967  -21.0229  -10.6137 N   0  0  0  0  0  0  0  0  0  0  0  0
   27.6679  -20.3367   -8.6937 C   0  0  0  0  0  0  0  0  0  0  0  0
   28.4475  -21.2925   -8.9681 O   0  0  0  0  0  0  0  0  0  0  0  0
   28.0207  -19.5094   -7.6465 O   0  0  0  0  0  0  0  0  0  0  0  0
  2  1  1  1
  3  2  1  0
  4  5  2  0
  4  3  1  0
  6  5  1  0
  7 12  2  0
  7  6  1  0
  8  7  1  0
  9 10  1  0
  9  8  2  0
 10 11  2  0
 11 12  1  0
 12  4  1  0
 13  2  1  0
 14 13  2  0
 16 15  1  0
 17 18  1  0
 17 16  1  6
 18 13  1  0
 19 17  1  0
 20 19  2  0
 22 21  1  6
 22 24  1  0
 23 22  1  0
 24 26  1  0
 24 25  1  6
 25 19  1  0
 26 28  1  0
 27 26  2  0
M  END
$$$$
