WSV.pdb
     RDKit          3D

 28 29  0  0  1  0  0  0  0  0999 V2000
   27.3775  -21.8037  -13.3523 N   0  0  0  0  0  0  0  0  0  0  0  0
   26.3255  -21.6198  -12.3244 C   0  0  1  0  0  0  0  0  0  0  0  0
   26.7420  -20.5671  -11.3732 C   0  0  0  0  0  0  0  0  0  0  0  0
   27.9389  -20.7778  -10.5788 C   0  0  0  0  0  0  0  0  0  0  0  0
   29.2144  -21.1117  -11.0386 C   0  0  0  0  0  0  0  0  0  0  0  0
   30.0172  -21.2269   -9.9802 N   0  0  0  0  0  0  0  0  0  0  0  0
   29.3428  -20.9872   -8.8537 C   0  0  0  0  0  0  0  0  0  0  0  0
   29.7166  -20.9608   -7.5095 C   0  0  0  0  0  0  0  0  0  0  0  0
   28.7949  -20.6558   -6.5567 C   0  0  0  0  0  0  0  0  0  0  0  0
   27.4792  -20.3681   -6.8948 C   0  0  0  0  0  0  0  0  0  0  0  0
   27.0998  -20.3927   -8.2228 C   0  0  0  0  0  0  0  0  0  0  0  0
   28.0359  -20.7029   -9.1975 C   0  0  0  0  0  0  0  0  0  0  0  0
   25.0689  -21.3530  -13.0245 C   0  0  0  0  0  0  0  0  0  0  0  0
   24.7922  -20.2034  -13.4900 O   0  0  0  0  0  0  0  0  0  0  0  0
   22.6888  -24.4159  -13.8603 O   0  0  0  0  0  0  0  0  0  0  0  0
   22.5483  -23.3881  -14.7589 C   0  0  0  0  0  0  0  0  0  0  0  0
   22.8779  -22.0460  -14.0643 C   0  0  2  0  0  0  0  0  0  0  0  0
   24.0460  -22.3422  -13.2604 N   0  0  0  0  0  0  0  0  0  0  0  0
   21.7539  -21.7365  -13.1624 C   0  0  0  0  0  0  0  0  0  0  0  0
   21.7532  -22.1715  -11.9933 O   0  0  0  0  0  0  0  0  0  0  0  0
   20.6348  -18.6296  -11.8512 C   0  0  0  0  0  0  0  0  0  0  0  0
   19.3514  -19.1987  -12.4151 C   0  0  1  0  0  0  0  0  0  0  0  0
   19.0745  -18.5239  -13.7452 C   0  0  0  0  0  0  0  0  0  0  0  0
   19.5626  -20.6682  -12.6507 C   0  0  2  0  0  0  0  0  0  0  0  0
   20.6373  -20.9410  -13.5797 N   0  0  0  0  0  0  0  0  0  0  0  0
   18.2960  -21.3012  -13.1778 C   0  0  0  0  0  0  0  0  0  0  0  0
   18.2479  -21.7829  -14.3450 O   0  0  0  0  0  0  0  0  0  0  0  0
   17.1507  -21.3777  -12.4110 O   0  0  0  0  0  0  0  0  0  0  0  0
  2  1  1  6
  3  2  1  0
  4  5  2  0
  4  3  1  0
  6  5  1  0
  7 12  2  0
  7  6  1  0
  8  7  1  0
  9 10  1  0
  9  8  2  0
 10 11  2  0
 11 12  1  0
 12  4  1  0
 13  2  1  0
 14 13  2  0
 16 15  1  0
 17 18  1  0
 17 16  1  1
 18 13  1  0
 19 17  1  0
 20 19  2  0
 22 21  1  6
 22 24  1  0
 23 22  1  0
 24 26  1  0
 24 25  1  6
 25 19  1  0
 26 28  1  0
 27 26  2  0
M  END
$$$$
