WSV.pdb
     RDKit          3D

 28 29  0  0  1  0  0  0  0  0999 V2000
   26.8082  -22.6664  -12.6476 N   0  0  0  0  0  0  0  0  0  0  0  0
   26.1219  -21.7322  -11.7238 C   0  0  1  0  0  0  0  0  0  0  0  0
   26.9650  -20.5356  -11.5139 C   0  0  0  0  0  0  0  0  0  0  0  0
   28.0257  -20.5938  -10.5243 C   0  0  0  0  0  0  0  0  0  0  0  0
   29.3629  -20.9375  -10.7332 C   0  0  0  0  0  0  0  0  0  0  0  0
   29.9916  -20.8808   -9.5587 N   0  0  0  0  0  0  0  0  0  0  0  0
   29.1449  -20.5194   -8.5923 C   0  0  0  0  0  0  0  0  0  0  0  0
   29.3028  -20.3008   -7.2232 C   0  0  0  0  0  0  0  0  0  0  0  0
   28.2381  -19.9070   -6.4736 C   0  0  0  0  0  0  0  0  0  0  0  0
   26.9872  -19.7166   -7.0453 C   0  0  0  0  0  0  0  0  0  0  0  0
   26.8213  -19.9314   -8.3998 C   0  0  0  0  0  0  0  0  0  0  0  0
   27.9036  -20.3326   -9.1679 C   0  0  0  0  0  0  0  0  0  0  0  0
   24.7961  -21.4599  -12.2790 C   0  0  0  0  0  0  0  0  0  0  0  0
   24.6033  -21.3493  -13.5302 O   0  0  0  0  0  0  0  0  0  0  0  0
   21.8914  -20.8178   -9.7916 O   0  0  0  0  0  0  0  0  0  0  0  0
   21.3209  -21.4264  -10.8815 C   0  0  0  0  0  0  0  0  0  0  0  0
   22.2843  -21.3337  -12.0879 C   0  0  2  0  0  0  0  0  0  0  0  0
   23.6015  -21.3022  -11.4861 N   0  0  0  0  0  0  0  0  0  0  0  0
   22.0364  -20.0365  -12.7427 C   0  0  0  0  0  0  0  0  0  0  0  0
   22.3598  -18.9763  -12.1706 O   0  0  0  0  0  0  0  0  0  0  0  0
   23.1622  -18.8535  -16.1167 C   0  0  0  0  0  0  0  0  0  0  0  0
   21.6725  -18.5927  -16.0785 C   0  0  1  0  0  0  0  0  0  0  0  0
   20.9744  -19.7026  -16.8413 C   0  0  0  0  0  0  0  0  0  0  0  0
   21.2325  -18.6395  -14.6419 C   0  0  2  0  0  0  0  0  0  0  0  0
   21.4260  -19.9385  -14.0355 N   0  0  0  0  0  0  0  0  0  0  0  0
   19.7728  -18.2663  -14.5290 C   0  0  0  0  0  0  0  0  0  0  0  0
   18.9038  -19.1299  -14.2196 O   0  0  0  0  0  0  0  0  0  0  0  0
   19.3346  -16.9773  -14.7575 O   0  0  0  0  0  0  0  0  0  0  0  0
  2  1  1  6
  3  2  1  0
  4  5  2  0
  4  3  1  0
  6  5  1  0
  7 12  2  0
  7  6  1  0
  8  7  1  0
  9 10  1  0
  9  8  2  0
 10 11  2  0
 11 12  1  0
 12  4  1  0
 13  2  1  0
 14 13  2  0
 16 15  1  0
 17 18  1  0
 17 16  1  1
 18 13  1  0
 19 17  1  0
 20 19  2  0
 22 21  1  1
 22 24  1  0
 23 22  1  0
 24 26  1  0
 24 25  1  6
 25 19  1  0
 26 28  1  0
 27 26  2  0
M  END
$$$$
