WSV.pdb
     RDKit          3D

 28 29  0  0  1  0  0  0  0  0999 V2000
   24.9364  -20.0520  -13.9234 N   0  0  0  0  0  0  0  0  0  0  0  0
   25.7053  -20.8043  -12.9036 C   0  0  1  0  0  0  0  0  0  0  0  0
   27.0566  -21.1034  -13.4243 C   0  0  0  0  0  0  0  0  0  0  0  0
   27.1798  -21.9198  -14.6185 C   0  0  0  0  0  0  0  0  0  0  0  0
   27.9242  -21.6380  -15.7658 C   0  0  0  0  0  0  0  0  0  0  0  0
   27.7487  -22.6401  -16.6277 N   0  0  0  0  0  0  0  0  0  0  0  0
   26.9334  -23.5626  -16.1123 C   0  0  0  0  0  0  0  0  0  0  0  0
   26.4577  -24.7842  -16.5903 C   0  0  0  0  0  0  0  0  0  0  0  0
   25.6360  -25.5409  -15.8140 C   0  0  0  0  0  0  0  0  0  0  0  0
   25.2566  -25.1210  -14.5461 C   0  0  0  0  0  0  0  0  0  0  0  0
   25.7220  -23.9127  -14.0649 C   0  0  0  0  0  0  0  0  0  0  0  0
   26.5599  -23.1380  -14.8525 C   0  0  0  0  0  0  0  0  0  0  0  0
   25.6823  -20.0199  -11.6689 C   0  0  0  0  0  0  0  0  0  0  0  0
   25.7556  -18.7513  -11.6794 O   0  0  0  0  0  0  0  0  0  0  0  0
   23.9505  -21.4365   -8.5893 O   0  0  0  0  0  0  0  0  0  0  0  0
   24.1874  -20.0877   -8.4979 C   0  0  0  0  0  0  0  0  0  0  0  0
   25.5428  -19.7550   -9.1645 C   0  0  2  0  0  0  0  0  0  0  0  0
   25.5680  -20.5892  -10.3485 N   0  0  0  0  0  0  0  0  0  0  0  0
   26.6018  -20.2114   -8.2464 C   0  0  0  0  0  0  0  0  0  0  0  0
   26.9433  -21.4110   -8.2340 O   0  0  0  0  0  0  0  0  0  0  0  0
   28.3928  -17.7893   -5.1042 C   0  0  0  0  0  0  0  0  0  0  0  0
   29.2006  -18.7684   -5.9273 C   0  0  1  0  0  0  0  0  0  0  0  0
   30.2332  -19.4137   -5.0226 C   0  0  0  0  0  0  0  0  0  0  0  0
   28.2641  -19.8310   -6.4305 C   0  0  2  0  0  0  0  0  0  0  0  0
   27.2698  -19.3176   -7.3472 N   0  0  0  0  0  0  0  0  0  0  0  0
   27.5565  -20.4961   -5.2731 C   0  0  0  0  0  0  0  0  0  0  0  0
   26.3145  -20.3439   -5.0973 O   0  0  0  0  0  0  0  0  0  0  0  0
   28.2336  -21.2902   -4.3695 O   0  0  0  0  0  0  0  0  0  0  0  0
  2  1  1  6
  3  2  1  0
  4  5  2  0
  4  3  1  0
  6  5  1  0
  7 12  2  0
  7  6  1  0
  8  7  1  0
  9 10  1  0
  9  8  2  0
 10 11  2  0
 11 12  1  0
 12  4  1  0
 13  2  1  0
 14 13  2  0
 16 15  1  0
 17 18  1  0
 17 16  1  1
 18 13  1  0
 19 17  1  0
 20 19  2  0
 22 21  1  1
 22 24  1  0
 23 22  1  0
 24 26  1  0
 24 25  1  6
 25 19  1  0
 26 28  1  0
 27 26  2  0
M  END
$$$$
