WSV.pdb
     RDKit          3D

 28 29  0  0  1  0  0  0  0  0999 V2000
   27.2494  -21.0117  -15.5889 N   0  0  0  0  0  0  0  0  0  0  0  0
   26.3031  -21.3825  -14.5099 C   0  0  1  0  0  0  0  0  0  0  0  0
   26.3497  -20.3635  -13.4394 C   0  0  0  0  0  0  0  0  0  0  0  0
   27.6346  -20.0211  -12.8568 C   0  0  0  0  0  0  0  0  0  0  0  0
   28.3673  -18.8478  -13.0478 C   0  0  0  0  0  0  0  0  0  0  0  0
   29.4957  -18.9471  -12.3444 N   0  0  0  0  0  0  0  0  0  0  0  0
   29.5453  -20.1165  -11.7030 C   0  0  0  0  0  0  0  0  0  0  0  0
   30.4807  -20.6878  -10.8394 C   0  0  0  0  0  0  0  0  0  0  0  0
   30.2471  -21.9173  -10.3064 C   0  0  0  0  0  0  0  0  0  0  0  0
   29.0890  -22.6225  -10.6053 C   0  0  0  0  0  0  0  0  0  0  0  0
   28.1577  -22.0652  -11.4599 C   0  0  0  0  0  0  0  0  0  0  0  0
   28.3914  -20.8122  -12.0055 C   0  0  0  0  0  0  0  0  0  0  0  0
   24.9882  -21.5693  -15.1235 C   0  0  0  0  0  0  0  0  0  0  0  0
   24.5359  -20.7646  -15.9969 O   0  0  0  0  0  0  0  0  0  0  0  0
   22.2013  -24.5739  -14.0231 O   0  0  0  0  0  0  0  0  0  0  0  0
   22.5320  -24.3526  -15.3367 C   0  0  0  0  0  0  0  0  0  0  0  0
   22.8588  -22.8548  -15.5417 C   0  0  2  0  0  0  0  0  0  0  0  0
   24.0974  -22.6613  -14.8159 N   0  0  0  0  0  0  0  0  0  0  0  0
   21.7968  -22.0830  -14.8714 C   0  0  0  0  0  0  0  0  0  0  0  0
   21.9444  -21.7140  -13.6891 O   0  0  0  0  0  0  0  0  0  0  0  0
   20.0913  -18.8838  -15.8674 C   0  0  0  0  0  0  0  0  0  0  0  0
   18.9738  -19.8668  -15.5958 C   0  0  1  0  0  0  0  0  0  0  0  0
   18.4650  -20.3895  -16.9259 C   0  0  0  0  0  0  0  0  0  0  0  0
   19.5481  -21.0132  -14.8112 C   0  0  2  0  0  0  0  0  0  0  0  0
   20.5753  -21.7314  -15.5333 N   0  0  0  0  0  0  0  0  0  0  0  0
   18.4564  -21.9853  -14.4295 C   0  0  0  0  0  0  0  0  0  0  0  0
   17.5566  -21.6600  -13.6042 O   0  0  0  0  0  0  0  0  0  0  0  0
   18.3994  -23.2571  -14.9633 O   0  0  0  0  0  0  0  0  0  0  0  0
  2  1  1  6
  3  2  1  0
  4  5  2  0
  4  3  1  0
  6  5  1  0
  7 12  2  0
  7  6  1  0
  8  7  1  0
  9 10  1  0
  9  8  2  0
 10 11  2  0
 11 12  1  0
 12  4  1  0
 13  2  1  0
 14 13  2  0
 16 15  1  0
 17 18  1  0
 17 16  1  1
 18 13  1  0
 19 17  1  0
 20 19  2  0
 22 21  1  6
 22 24  1  0
 23 22  1  0
 24 26  1  0
 24 25  1  6
 25 19  1  0
 26 28  1  0
 27 26  2  0
M  END
$$$$
