WSV.pdb
     RDKit          3D

 28 29  0  0  1  0  0  0  0  0999 V2000
   28.2480  -22.3417  -13.3932 N   0  0  0  0  0  0  0  0  0  0  0  0
   27.0267  -21.8446  -12.7161 C   0  0  1  0  0  0  0  0  0  0  0  0
   27.3369  -20.5929  -11.9925 C   0  0  0  0  0  0  0  0  0  0  0  0
   28.1316  -20.6662  -10.7797 C   0  0  0  0  0  0  0  0  0  0  0  0
   29.5107  -20.8607  -10.6795 C   0  0  0  0  0  0  0  0  0  0  0  0
   29.8315  -20.8807   -9.3854 N   0  0  0  0  0  0  0  0  0  0  0  0
   28.7434  -20.7100   -8.6315 C   0  0  0  0  0  0  0  0  0  0  0  0
   28.5450  -20.6348   -7.2523 C   0  0  0  0  0  0  0  0  0  0  0  0
   27.2944  -20.4274   -6.7589 C   0  0  0  0  0  0  0  0  0  0  0  0
   26.2017  -20.2880   -7.6042 C   0  0  0  0  0  0  0  0  0  0  0  0
   26.3884  -20.3618   -8.9709 C   0  0  0  0  0  0  0  0  0  0  0  0
   27.6613  -20.5730   -9.4785 C   0  0  0  0  0  0  0  0  0  0  0  0
   25.9797  -21.7243  -13.7309 C   0  0  0  0  0  0  0  0  0  0  0  0
   26.1858  -21.1400  -14.8404 O   0  0  0  0  0  0  0  0  0  0  0  0
   22.5225  -23.7373  -13.2897 O   0  0  0  0  0  0  0  0  0  0  0  0
   22.9013  -23.4917  -14.5858 C   0  0  0  0  0  0  0  0  0  0  0  0
   23.6717  -22.1522  -14.6537 C   0  0  2  0  0  0  0  0  0  0  0  0
   24.6445  -22.2500  -13.5849 N   0  0  0  0  0  0  0  0  0  0  0  0
   22.7136  -21.0830  -14.3198 C   0  0  0  0  0  0  0  0  0  0  0  0
   22.6042  -20.6880  -13.1417 O   0  0  0  0  0  0  0  0  0  0  0  0
   22.3520  -17.6598  -15.8600 C   0  0  0  0  0  0  0  0  0  0  0  0
   20.9609  -18.2545  -15.8667 C   0  0  1  0  0  0  0  0  0  0  0  0
   20.6617  -18.7519  -17.2682 C   0  0  0  0  0  0  0  0  0  0  0  0
   20.9550  -19.4255  -14.9243 C   0  0  2  0  0  0  0  0  0  0  0  0
   21.8839  -20.4648  -15.3113 N   0  0  0  0  0  0  0  0  0  0  0  0
   19.5698  -20.0227  -14.8397 C   0  0  0  0  0  0  0  0  0  0  0  0
   19.3033  -21.1261  -15.3948 O   0  0  0  0  0  0  0  0  0  0  0  0
   18.5488  -19.3913  -14.1581 O   0  0  0  0  0  0  0  0  0  0  0  0
  2  1  1  6
  3  2  1  0
  4  5  2  0
  4  3  1  0
  6  5  1  0
  7 12  2  0
  7  6  1  0
  8  7  1  0
  9 10  1  0
  9  8  2  0
 10 11  2  0
 11 12  1  0
 12  4  1  0
 13  2  1  0
 14 13  2  0
 16 15  1  0
 17 18  1  0
 17 16  1  1
 18 13  1  0
 19 17  1  0
 20 19  2  0
 22 21  1  6
 22 24  1  0
 23 22  1  0
 24 26  1  0
 24 25  1  6
 25 19  1  0
 26 28  1  0
 27 26  2  0
M  END
$$$$
