WSV.pdb
     RDKit          3D

 28 29  0  0  1  0  0  0  0  0999 V2000
   23.4602  -20.6006  -10.9458 N   0  0  0  0  0  0  0  0  0  0  0  0
   24.6776  -20.3940  -11.7658 C   0  0  1  0  0  0  0  0  0  0  0  0
   25.7449  -21.3081  -11.3057 C   0  0  0  0  0  0  0  0  0  0  0  0
   26.4419  -21.0014  -10.0695 C   0  0  0  0  0  0  0  0  0  0  0  0
   25.8871  -20.5351   -8.8759 C   0  0  0  0  0  0  0  0  0  0  0  0
   26.8772  -20.3678   -7.9986 N   0  0  0  0  0  0  0  0  0  0  0  0
   28.0484  -20.6979   -8.5470 C   0  0  0  0  0  0  0  0  0  0  0  0
   29.3547  -20.7196   -8.0570 C   0  0  0  0  0  0  0  0  0  0  0  0
   30.3717  -21.1345   -8.8596 C   0  0  0  0  0  0  0  0  0  0  0  0
   30.1367  -21.5399  -10.1666 C   0  0  0  0  0  0  0  0  0  0  0  0
   28.8468  -21.5210  -10.6606 C   0  0  0  0  0  0  0  0  0  0  0  0
   27.8071  -21.0990   -9.8462 C   0  0  0  0  0  0  0  0  0  0  0  0
   24.2948  -20.5534  -13.1688 C   0  0  0  0  0  0  0  0  0  0  0  0
   23.6100  -21.5467  -13.5678 O   0  0  0  0  0  0  0  0  0  0  0  0
   25.0568  -17.5637  -15.2940 O   0  0  0  0  0  0  0  0  0  0  0  0
   24.3500  -18.3396  -16.1785 C   0  0  0  0  0  0  0  0  0  0  0  0
   24.0480  -19.7128  -15.5340 C   0  0  2  0  0  0  0  0  0  0  0  0
   24.6377  -19.6206  -14.2141 N   0  0  0  0  0  0  0  0  0  0  0  0
   24.7862  -20.7273  -16.3078 C   0  0  0  0  0  0  0  0  0  0  0  0
   25.9746  -20.9831  -16.0283 O   0  0  0  0  0  0  0  0  0  0  0  0
   23.9684  -24.4267  -17.2448 C   0  0  0  0  0  0  0  0  0  0  0  0
   24.2032  -23.6353  -18.5126 C   0  0  1  0  0  0  0  0  0  0  0  0
   22.8554  -23.2273  -19.0765 C   0  0  0  0  0  0  0  0  0  0  0  0
   24.9721  -22.3963  -18.1476 C   0  0  2  0  0  0  0  0  0  0  0  0
   24.1849  -21.4472  -17.3912 N   0  0  0  0  0  0  0  0  0  0  0  0
   25.4865  -21.7134  -19.3932 C   0  0  0  0  0  0  0  0  0  0  0  0
   26.3425  -22.2739  -20.1347 O   0  0  0  0  0  0  0  0  0  0  0  0
   25.0452  -20.4600  -19.7672 O   0  0  0  0  0  0  0  0  0  0  0  0
  2  1  1  1
  3  2  1  0
  4  5  2  0
  4  3  1  0
  6  5  1  0
  7 12  2  0
  7  6  1  0
  8  7  1  0
  9 10  1  0
  9  8  2  0
 10 11  2  0
 11 12  1  0
 12  4  1  0
 13  2  1  0
 14 13  2  0
 16 15  1  0
 17 18  1  0
 17 16  1  6
 18 13  1  0
 19 17  1  0
 20 19  2  0
 22 21  1  1
 22 24  1  0
 23 22  1  0
 24 26  1  0
 24 25  1  6
 25 19  1  0
 26 28  1  0
 27 26  2  0
M  END
$$$$
