WSV.pdb
     RDKit          3D

 28 29  0  0  1  0  0  0  0  0999 V2000
   26.8656  -18.5483   -9.5903 N   0  0  0  0  0  0  0  0  0  0  0  0
   26.8738  -20.0302   -9.6198 C   0  0  1  0  0  0  0  0  0  0  0  0
   26.8681  -20.5525   -8.2365 C   0  0  0  0  0  0  0  0  0  0  0  0
   27.7491  -19.9432   -7.2565 C   0  0  0  0  0  0  0  0  0  0  0  0
   28.7237  -18.9688   -7.4815 C   0  0  0  0  0  0  0  0  0  0  0  0
   29.3151  -18.7003   -6.3170 N   0  0  0  0  0  0  0  0  0  0  0  0
   28.7848  -19.4413   -5.3417 C   0  0  0  0  0  0  0  0  0  0  0  0
   29.0298  -19.5236   -3.9705 C   0  0  0  0  0  0  0  0  0  0  0  0
   28.2991  -20.3760   -3.2024 C   0  0  0  0  0  0  0  0  0  0  0  0
   27.3067  -21.1730   -3.7574 C   0  0  0  0  0  0  0  0  0  0  0  0
   27.0577  -21.0988   -5.1141 C   0  0  0  0  0  0  0  0  0  0  0  0
   27.7998  -20.2313   -5.9009 C   0  0  0  0  0  0  0  0  0  0  0  0
   25.7434  -20.4596  -10.4433 C   0  0  0  0  0  0  0  0  0  0  0  0
   24.5746  -19.9903  -10.2741 O   0  0  0  0  0  0  0  0  0  0  0  0
   26.9586  -22.0024  -14.0963 O   0  0  0  0  0  0  0  0  0  0  0  0
   25.6991  -22.3529  -13.6785 C   0  0  0  0  0  0  0  0  0  0  0  0
   25.1320  -21.2442  -12.7611 C   0  0  2  0  0  0  0  0  0  0  0  0
   25.8377  -21.4267  -11.5093 N   0  0  0  0  0  0  0  0  0  0  0  0
   23.7059  -21.5474  -12.5444 C   0  0  0  0  0  0  0  0  0  0  0  0
   23.3740  -22.5679  -11.9085 O   0  0  0  0  0  0  0  0  0  0  0  0
   21.1853  -18.9556  -11.4577 C   0  0  0  0  0  0  0  0  0  0  0  0
   20.4470  -19.7999  -12.4729 C   0  0  1  0  0  0  0  0  0  0  0  0
   20.3097  -18.9962  -13.7521 C   0  0  0  0  0  0  0  0  0  0  0  0
   21.2805  -21.0192  -12.7527 C   0  0  2  0  0  0  0  0  0  0  0  0
   22.6616  -20.7027  -13.0441 N   0  0  0  0  0  0  0  0  0  0  0  0
   20.7055  -21.7905  -13.9177 C   0  0  0  0  0  0  0  0  0  0  0  0
   19.5858  -22.3688  -13.8244 O   0  0  0  0  0  0  0  0  0  0  0  0
   21.3753  -21.8929  -15.1204 O   0  0  0  0  0  0  0  0  0  0  0  0
  2  1  1  1
  3  2  1  0
  4  5  2  0
  4  3  1  0
  6  5  1  0
  7 12  2  0
  7  6  1  0
  8  7  1  0
  9 10  1  0
  9  8  2  0
 10 11  2  0
 11 12  1  0
 12  4  1  0
 13  2  1  0
 14 13  2  0
 16 15  1  0
 17 18  1  0
 17 16  1  6
 18 13  1  0
 19 17  1  0
 20 19  2  0
 22 21  1  1
 22 24  1  0
 23 22  1  0
 24 26  1  0
 24 25  1  6
 25 19  1  0
 26 28  1  0
 27 26  2  0
M  END
$$$$
