WSV.pdb
     RDKit          3D

 28 29  0  0  1  0  0  0  0  0999 V2000
   22.0019  -20.1995  -17.3784 N   0  0  0  0  0  0  0  0  0  0  0  0
   22.7933  -19.2843  -16.5221 C   0  0  1  0  0  0  0  0  0  0  0  0
   21.8796  -18.4608  -15.7015 C   0  0  0  0  0  0  0  0  0  0  0  0
   20.9041  -17.6207  -16.3726 C   0  0  0  0  0  0  0  0  0  0  0  0
   21.0956  -16.3307  -16.8715 C   0  0  0  0  0  0  0  0  0  0  0  0
   19.9417  -15.9154  -17.3949 N   0  0  0  0  0  0  0  0  0  0  0  0
   19.0052  -16.8580  -17.2689 C   0  0  0  0  0  0  0  0  0  0  0  0
   17.6676  -16.9270  -17.6603 C   0  0  0  0  0  0  0  0  0  0  0  0
   16.9470  -18.0537  -17.4115 C   0  0  0  0  0  0  0  0  0  0  0  0
   17.5176  -19.1455  -16.7711 C   0  0  0  0  0  0  0  0  0  0  0  0
   18.8410  -19.0859  -16.3793 C   0  0  0  0  0  0  0  0  0  0  0  0
   19.5794  -17.9397  -16.6308 C   0  0  0  0  0  0  0  0  0  0  0  0
   23.7362  -20.1020  -15.7589 C   0  0  0  0  0  0  0  0  0  0  0  0
   23.3507  -21.0836  -15.0498 O   0  0  0  0  0  0  0  0  0  0  0  0
   28.3707  -21.1200  -14.7217 O   0  0  0  0  0  0  0  0  0  0  0  0
   27.4525  -20.3808  -15.4248 C   0  0  0  0  0  0  0  0  0  0  0  0
   26.0326  -20.6723  -14.8853 C   0  0  2  0  0  0  0  0  0  0  0  0
   25.1629  -19.8902  -15.7398 N   0  0  0  0  0  0  0  0  0  0  0  0
   25.9659  -20.1228  -13.5192 C   0  0  0  0  0  0  0  0  0  0  0  0
   25.8851  -18.8903  -13.3451 O   0  0  0  0  0  0  0  0  0  0  0  0
   23.5598  -20.6571  -10.9662 C   0  0  0  0  0  0  0  0  0  0  0  0
   24.8417  -20.8513  -10.1866 C   0  0  1  0  0  0  0  0  0  0  0  0
   25.0231  -22.3352   -9.9293 C   0  0  0  0  0  0  0  0  0  0  0  0
   25.9792  -20.3638  -11.0399 C   0  0  2  0  0  0  0  0  0  0  0  0
   25.9914  -20.9613  -12.3573 N   0  0  0  0  0  0  0  0  0  0  0  0
   27.3003  -20.6525  -10.3662 C   0  0  0  0  0  0  0  0  0  0  0  0
   28.1340  -21.4476  -10.8854 O   0  0  0  0  0  0  0  0  0  0  0  0
   27.6458  -20.0638   -9.1663 O   0  0  0  0  0  0  0  0  0  0  0  0
  2  1  1  1
  3  2  1  0
  4  5  2  0
  4  3  1  0
  6  5  1  0
  7 12  2  0
  7  6  1  0
  8  7  1  0
  9 10  1  0
  9  8  2  0
 10 11  2  0
 11 12  1  0
 12  4  1  0
 13  2  1  0
 14 13  2  0
 16 15  1  0
 17 18  1  0
 17 16  1  6
 18 13  1  0
 19 17  1  0
 20 19  2  0
 22 21  1  6
 22 24  1  0
 23 22  1  0
 24 26  1  0
 24 25  1  6
 25 19  1  0
 26 28  1  0
 27 26  2  0
M  END
$$$$
