WSV.pdb
     RDKit          3D

 28 29  0  0  1  0  0  0  0  0999 V2000
   27.9234  -19.7809  -12.1126 N   0  0  0  0  0  0  0  0  0  0  0  0
   26.9635  -20.8534  -11.7583 C   0  0  1  0  0  0  0  0  0  0  0  0
   26.5278  -20.6835  -10.3555 C   0  0  0  0  0  0  0  0  0  0  0  0
   27.5385  -20.5569   -9.3210 C   0  0  0  0  0  0  0  0  0  0  0  0
   27.4561  -19.8155   -8.1406 C   0  0  0  0  0  0  0  0  0  0  0  0
   28.6069  -19.9586   -7.4825 N   0  0  0  0  0  0  0  0  0  0  0  0
   29.4386  -20.7510   -8.1621 C   0  0  0  0  0  0  0  0  0  0  0  0
   30.7270  -21.2207   -7.9042 C   0  0  0  0  0  0  0  0  0  0  0  0
   31.3332  -22.0552   -8.7911 C   0  0  0  0  0  0  0  0  0  0  0  0
   30.6932  -22.4529   -9.9574 C   0  0  0  0  0  0  0  0  0  0  0  0
   29.4179  -21.9923  -10.2215 C   0  0  0  0  0  0  0  0  0  0  0  0
   28.7959  -21.1417   -9.3203 C   0  0  0  0  0  0  0  0  0  0  0  0
   25.8840  -20.8205  -12.7452 C   0  0  0  0  0  0  0  0  0  0  0  0
   25.3054  -19.7366  -13.0697 O   0  0  0  0  0  0  0  0  0  0  0  0
   24.4945  -24.2469  -14.2787 O   0  0  0  0  0  0  0  0  0  0  0  0
   24.4193  -23.2306  -15.1980 C   0  0  0  0  0  0  0  0  0  0  0  0
   24.3641  -21.8714  -14.4620 C   0  0  2  0  0  0  0  0  0  0  0  0
   25.3845  -21.9818  -13.4398 N   0  0  0  0  0  0  0  0  0  0  0  0
   23.0479  -21.7873  -13.8038 C   0  0  0  0  0  0  0  0  0  0  0  0
   22.8939  -22.2468  -12.6545 O   0  0  0  0  0  0  0  0  0  0  0  0
   20.6664  -18.9042  -12.8986 C   0  0  0  0  0  0  0  0  0  0  0  0
   19.9433  -19.8469  -13.8352 C   0  0  1  0  0  0  0  0  0  0  0  0
   20.0637  -19.3028  -15.2460 C   0  0  0  0  0  0  0  0  0  0  0  0
   20.6319  -21.1815  -13.7690 C   0  0  2  0  0  0  0  0  0  0  0  0
   21.9127  -21.1884  -14.4414 N   0  0  0  0  0  0  0  0  0  0  0  0
   19.7591  -22.2520  -14.3813 C   0  0  0  0  0  0  0  0  0  0  0  0
   20.0616  -22.7825  -15.4875 O   0  0  0  0  0  0  0  0  0  0  0  0
   18.6059  -22.6892  -13.7611 O   0  0  0  0  0  0  0  0  0  0  0  0
  2  1  1  6
  3  2  1  0
  4  5  2  0
  4  3  1  0
  6  5  1  0
  7 12  2  0
  7  6  1  0
  8  7  1  0
  9 10  1  0
  9  8  2  0
 10 11  2  0
 11 12  1  0
 12  4  1  0
 13  2  1  0
 14 13  2  0
 16 15  1  0
 17 18  1  0
 17 16  1  6
 18 13  1  0
 19 17  1  0
 20 19  2  0
 22 21  1  1
 22 24  1  0
 23 22  1  0
 24 26  1  0
 24 25  1  6
 25 19  1  0
 26 28  1  0
 27 26  2  0
M  END
$$$$
