WSV.pdb
     RDKit          3D

 28 29  0  0  1  0  0  0  0  0999 V2000
   26.3300  -19.0150  -11.0228 N   0  0  0  0  0  0  0  0  0  0  0  0
   26.4338  -20.4816  -11.2116 C   0  0  1  0  0  0  0  0  0  0  0  0
   26.2090  -21.1638   -9.9191 C   0  0  0  0  0  0  0  0  0  0  0  0
   26.9179  -20.6868   -8.7453 C   0  0  0  0  0  0  0  0  0  0  0  0
   26.3987  -19.9398   -7.6860 C   0  0  0  0  0  0  0  0  0  0  0  0
   27.3894  -19.6989   -6.8266 N   0  0  0  0  0  0  0  0  0  0  0  0
   28.5274  -20.2449   -7.2604 C   0  0  0  0  0  0  0  0  0  0  0  0
   29.8183  -20.2966   -6.7329 C   0  0  0  0  0  0  0  0  0  0  0  0
   30.7975  -20.9608   -7.4041 C   0  0  0  0  0  0  0  0  0  0  0  0
   30.5389  -21.5936   -8.6127 C   0  0  0  0  0  0  0  0  0  0  0  0
   29.2642  -21.5471   -9.1429 C   0  0  0  0  0  0  0  0  0  0  0  0
   28.2629  -20.8713   -8.4623 C   0  0  0  0  0  0  0  0  0  0  0  0
   25.4999  -20.8550  -12.2741 C   0  0  0  0  0  0  0  0  0  0  0  0
   24.4172  -20.2189  -12.4687 O   0  0  0  0  0  0  0  0  0  0  0  0
   26.7235  -22.6586  -15.7581 O   0  0  0  0  0  0  0  0  0  0  0  0
   25.6030  -23.2084  -15.1870 C   0  0  0  0  0  0  0  0  0  0  0  0
   24.8668  -22.1328  -14.3545 C   0  0  2  0  0  0  0  0  0  0  0  0
   25.7100  -21.9483  -13.1912 N   0  0  0  0  0  0  0  0  0  0  0  0
   23.5878  -22.7216  -13.9182 C   0  0  0  0  0  0  0  0  0  0  0  0
   23.5822  -23.6903  -13.1324 O   0  0  0  0  0  0  0  0  0  0  0  0
   20.4141  -20.5279  -14.2926 C   0  0  0  0  0  0  0  0  0  0  0  0
   19.9964  -21.8417  -13.6696 C   0  0  1  0  0  0  0  0  0  0  0  0
   18.7426  -22.3257  -14.3732 C   0  0  0  0  0  0  0  0  0  0  0  0
   21.0995  -22.8354  -13.9047 C   0  0  2  0  0  0  0  0  0  0  0  0
   22.3234  -22.2192  -14.3682 N   0  0  0  0  0  0  0  0  0  0  0  0
   20.6656  -23.8694  -14.9173 C   0  0  0  0  0  0  0  0  0  0  0  0
   19.8632  -24.7925  -14.5999 O   0  0  0  0  0  0  0  0  0  0  0  0
   21.1252  -23.8465  -16.2188 O   0  0  0  0  0  0  0  0  0  0  0  0
  2  1  1  1
  3  2  1  0
  4  5  2  0
  4  3  1  0
  6  5  1  0
  7 12  2  0
  7  6  1  0
  8  7  1  0
  9 10  1  0
  9  8  2  0
 10 11  2  0
 11 12  1  0
 12  4  1  0
 13  2  1  0
 14 13  2  0
 16 15  1  0
 17 18  1  0
 17 16  1  6
 18 13  1  0
 19 17  1  0
 20 19  2  0
 22 21  1  6
 22 24  1  0
 23 22  1  0
 24 26  1  0
 24 25  1  6
 25 19  1  0
 26 28  1  0
 27 26  2  0
M  END
$$$$
