MVN.pdb
     RDKit          3D

 24 23  0  0  1  0  0  0  0  0999 V2000
   25.1871  -15.7863  -16.2149 C   0  0  0  0  0  0  0  0  0  0  0  0
   26.9432  -15.6054  -15.9730 S   0  0  0  0  0  0  0  0  0  0  0  0
   27.8631  -17.0170  -15.4797 C   0  0  0  0  0  0  0  0  0  0  0  0
   27.0988  -18.1547  -14.9574 C   0  0  0  0  0  0  0  0  0  0  0  0
   27.8269  -19.3218  -14.4099 C   0  0  2  0  0  0  0  0  0  0  0  0
   28.6011  -19.9535  -15.4542 N   0  0  0  0  0  0  0  0  0  0  0  0
   26.7984  -20.3109  -13.9659 C   0  0  0  0  0  0  0  0  0  0  0  0
   26.6364  -21.3527  -14.6216 O   0  0  0  0  0  0  0  0  0  0  0  0
   26.7126  -21.5596  -10.4542 C   0  0  0  0  0  0  0  0  0  0  0  0
   25.3243  -21.0668  -10.7954 C   0  0  1  0  0  0  0  0  0  0  0  0
   24.9324  -19.8585   -9.9948 C   0  0  0  0  0  0  0  0  0  0  0  0
   25.0799  -20.9743  -12.2574 C   0  0  2  0  0  0  0  0  0  0  0  0
   26.0424  -20.0204  -12.8059 N   0  0  0  0  0  0  0  0  0  0  0  0
   23.7385  -20.5868  -12.6673 C   0  0  0  0  0  0  0  0  0  0  0  0
   23.4501  -19.3617  -12.6645 O   0  0  0  0  0  0  0  0  0  0  0  0
   18.9616  -21.5363  -16.2580 N   0  0  0  0  0  0  0  0  0  0  0  0
   19.7907  -20.9966  -15.2466 C   0  0  0  0  0  0  0  0  0  0  0  0
   19.6606  -19.7413  -15.0157 O   0  0  0  0  0  0  0  0  0  0  0  0
   20.7589  -21.8047  -14.4788 C   0  0  0  0  0  0  0  0  0  0  0  0
   21.4256  -20.9432  -13.4419 C   0  0  2  0  0  0  0  0  0  0  0  0
   22.7263  -21.4834  -13.0716 N   0  0  0  0  0  0  0  0  0  0  0  0
   20.5795  -20.9937  -12.2206 C   0  0  0  0  0  0  0  0  0  0  0  0
   20.6329  -21.8839  -11.3402 O   0  0  0  0  0  0  0  0  0  0  0  0
   19.6466  -19.9662  -12.0354 O   0  0  0  0  0  0  0  0  0  0  0  0
  1  2  1  0
  3  2  1  0
  4  3  1  0
  5  4  1  0
  5  6  1  6
  7  8  2  0
  7  5  1  0
 10  9  1  6
 10 12  1  0
 11 10  1  0
 12 13  1  1
 13  7  1  0
 14 21  1  0
 14 12  1  0
 15 14  2  0
 17 16  1  0
 17 19  1  0
 18 17  2  0
 20 19  1  6
 20 21  1  0
 22 20  1  0
 23 22  2  0
 24 22  1  0
M  END
$$$$
