MVN.pdb
     RDKit          3D

 24 23  0  0  1  0  0  0  0  0999 V2000
   28.4202  -12.3490  -16.3881 C   0  0  0  0  0  0  0  0  0  0  0  0
   28.2431  -14.1207  -16.4572 S   0  0  0  0  0  0  0  0  0  0  0  0
   26.8480  -14.8467  -15.6768 C   0  0  0  0  0  0  0  0  0  0  0  0
   25.5524  -14.1967  -15.9010 C   0  0  0  0  0  0  0  0  0  0  0  0
   24.3265  -14.8275  -15.3615 C   0  0  2  0  0  0  0  0  0  0  0  0
   24.0721  -16.0748  -16.0460 N   0  0  0  0  0  0  0  0  0  0  0  0
   23.1878  -13.9127  -15.6772 C   0  0  0  0  0  0  0  0  0  0  0  0
   22.4624  -14.1624  -16.6534 O   0  0  0  0  0  0  0  0  0  0  0  0
   21.8084  -12.2752  -12.5044 C   0  0  0  0  0  0  0  0  0  0  0  0
   20.9764  -12.1082  -13.7561 C   0  0  1  0  0  0  0  0  0  0  0  0
   19.8647  -11.1150  -13.5769 C   0  0  0  0  0  0  0  0  0  0  0  0
   21.7951  -11.9399  -14.9839 C   0  0  2  0  0  0  0  0  0  0  0  0
   22.9777  -12.7881  -14.8450 N   0  0  0  0  0  0  0  0  0  0  0  0
   22.2161  -10.5837  -15.3015 C   0  0  0  0  0  0  0  0  0  0  0  0
   23.2360  -10.1297  -14.7205 O   0  0  0  0  0  0  0  0  0  0  0  0
   22.0853   -5.7552  -19.0800 N   0  0  0  0  0  0  0  0  0  0  0  0
   22.5319   -6.6355  -18.0665 C   0  0  0  0  0  0  0  0  0  0  0  0
   23.4501   -6.1880  -17.2902 O   0  0  0  0  0  0  0  0  0  0  0  0
   21.9910   -7.9969  -17.8827 C   0  0  0  0  0  0  0  0  0  0  0  0
   22.1153   -8.3989  -16.4388 C   0  0  2  0  0  0  0  0  0  0  0  0
   21.5660   -9.7294  -16.2178 N   0  0  0  0  0  0  0  0  0  0  0  0
   21.2810   -7.4562  -15.6482 C   0  0  0  0  0  0  0  0  0  0  0  0
   20.0493   -7.5731  -15.4490 O   0  0  0  0  0  0  0  0  0  0  0  0
   21.9186   -6.3474  -15.0787 O   0  0  0  0  0  0  0  0  0  0  0  0
  1  2  1  0
  3  2  1  0
  4  3  1  0
  5  4  1  0
  5  6  1  6
  7  8  2  0
  7  5  1  0
 10  9  1  1
 10 12  1  0
 11 10  1  0
 12 13  1  1
 13  7  1  0
 14 21  1  0
 14 12  1  0
 15 14  2  0
 17 16  1  0
 17 19  1  0
 18 17  2  0
 20 19  1  6
 20 21  1  0
 22 20  1  0
 23 22  2  0
 24 22  1  0
M  END
$$$$
