MVN.pdb
     RDKit          3D

 24 23  0  0  1  0  0  0  0  0999 V2000
   21.4347  -13.6056  -21.5518 C   0  0  0  0  0  0  0  0  0  0  0  0
   23.0289  -13.8609  -22.3057 S   0  0  0  0  0  0  0  0  0  0  0  0
   24.4322  -13.9862  -21.2581 C   0  0  0  0  0  0  0  0  0  0  0  0
   24.2473  -13.5971  -19.8561 C   0  0  0  0  0  0  0  0  0  0  0  0
   25.4071  -13.6411  -18.9369 C   0  0  2  0  0  0  0  0  0  0  0  0
   25.7705  -15.0139  -18.6677 N   0  0  0  0  0  0  0  0  0  0  0  0
   24.9627  -13.0421  -17.6419 C   0  0  0  0  0  0  0  0  0  0  0  0
   24.4660  -13.7768  -16.7730 O   0  0  0  0  0  0  0  0  0  0  0  0
   27.0033  -11.5285  -15.2130 C   0  0  0  0  0  0  0  0  0  0  0  0
   26.0119  -10.4540  -15.5991 C   0  0  1  0  0  0  0  0  0  0  0  0
   26.6544   -9.3257  -16.3532 C   0  0  0  0  0  0  0  0  0  0  0  0
   24.7651  -10.9967  -16.1965 C   0  0  2  0  0  0  0  0  0  0  0  0
   25.1263  -11.6496  -17.4537 N   0  0  0  0  0  0  0  0  0  0  0  0
   23.6963  -10.0412  -16.4457 C   0  0  0  0  0  0  0  0  0  0  0  0
   23.7299   -9.3827  -17.5177 O   0  0  0  0  0  0  0  0  0  0  0  0
   19.5082   -7.0774  -16.4579 N   0  0  0  0  0  0  0  0  0  0  0  0
   19.1924   -8.4178  -16.1332 C   0  0  0  0  0  0  0  0  0  0  0  0
   17.9494   -8.7333  -16.1714 O   0  0  0  0  0  0  0  0  0  0  0  0
   20.2112   -9.4227  -15.7701 C   0  0  0  0  0  0  0  0  0  0  0  0
   21.5849   -8.8523  -15.9927 C   0  0  2  0  0  0  0  0  0  0  0  0
   22.6152   -9.7922  -15.5732 N   0  0  0  0  0  0  0  0  0  0  0  0
   21.7118   -7.6601  -15.1138 C   0  0  0  0  0  0  0  0  0  0  0  0
   21.0159   -6.6214  -15.1991 O   0  0  0  0  0  0  0  0  0  0  0  0
   22.6859   -7.6965  -14.1087 O   0  0  0  0  0  0  0  0  0  0  0  0
  1  2  1  0
  3  2  1  0
  4  3  1  0
  5  4  1  0
  5  6  1  1
  7  8  2  0
  7  5  1  0
 10  9  1  6
 10 12  1  0
 11 10  1  0
 12 13  1  6
 13  7  1  0
 14 21  1  0
 14 12  1  0
 15 14  2  0
 17 16  1  0
 17 19  1  0
 18 17  2  0
 20 19  1  1
 20 21  1  0
 22 20  1  0
 23 22  2  0
 24 22  1  0
M  END
$$$$
