MVN.pdb
     RDKit          3D

 24 23  0  0  1  0  0  0  0  0999 V2000
   30.4317  -24.0454  -21.1261 C   0  0  0  0  0  0  0  0  0  0  0  0
   28.6746  -23.7524  -21.1660 S   0  0  0  0  0  0  0  0  0  0  0  0
   27.9951  -22.6208  -20.0084 C   0  0  0  0  0  0  0  0  0  0  0  0
   27.8814  -23.0828  -18.6209 C   0  0  0  0  0  0  0  0  0  0  0  0
   28.8434  -22.5819  -17.6132 C   0  0  2  0  0  0  0  0  0  0  0  0
   29.7359  -23.6458  -17.2126 N   0  0  0  0  0  0  0  0  0  0  0  0
   28.0517  -22.1946  -16.4063 C   0  0  0  0  0  0  0  0  0  0  0  0
   27.8888  -23.0237  -15.4966 O   0  0  0  0  0  0  0  0  0  0  0  0
   27.3879  -18.1309  -16.0480 C   0  0  0  0  0  0  0  0  0  0  0  0
   27.3536  -19.0489  -14.8468 C   0  0  1  0  0  0  0  0  0  0  0  0
   26.7716  -18.3832  -13.6333 C   0  0  0  0  0  0  0  0  0  0  0  0
   26.8163  -20.3982  -15.1577 C   0  0  2  0  0  0  0  0  0  0  0  0
   27.5137  -20.8876  -16.3457 N   0  0  0  0  0  0  0  0  0  0  0  0
   25.3806  -20.4899  -15.3763 C   0  0  0  0  0  0  0  0  0  0  0  0
   24.9226  -20.0813  -16.4750 O   0  0  0  0  0  0  0  0  0  0  0  0
   20.2298  -22.6366  -15.5909 N   0  0  0  0  0  0  0  0  0  0  0  0
   20.8614  -22.0140  -14.4886 C   0  0  0  0  0  0  0  0  0  0  0  0
   20.1056  -21.3186  -13.7197 O   0  0  0  0  0  0  0  0  0  0  0  0
   22.3055  -22.1397  -14.2080 C   0  0  0  0  0  0  0  0  0  0  0  0
   23.0352  -20.9534  -14.7756 C   0  0  2  0  0  0  0  0  0  0  0  0
   24.4528  -21.0054  -14.4461 N   0  0  0  0  0  0  0  0  0  0  0  0
   22.4868  -19.7424  -14.1104 C   0  0  0  0  0  0  0  0  0  0  0  0
   22.8725  -19.2849  -13.0094 O   0  0  0  0  0  0  0  0  0  0  0  0
   21.4566  -19.0547  -14.7631 O   0  0  0  0  0  0  0  0  0  0  0  0
  1  2  1  0
  3  2  1  0
  4  3  1  0
  5  4  1  0
  5  6  1  1
  7  8  2  0
  7  5  1  0
 10  9  1  6
 10 12  1  0
 11 10  1  0
 12 13  1  6
 13  7  1  0
 14 21  1  0
 14 12  1  0
 15 14  2  0
 17 16  1  0
 17 19  1  0
 18 17  2  0
 20 19  1  1
 20 21  1  0
 22 20  1  0
 23 22  2  0
 24 22  1  0
M  END
$$$$
