MVN.pdb
     RDKit          3D

 24 23  0  0  1  0  0  0  0  0999 V2000
   17.2777  -26.2671  -11.3360 C   0  0  0  0  0  0  0  0  0  0  0  0
   17.5530  -27.0754   -9.7721 S   0  0  0  0  0  0  0  0  0  0  0  0
   18.3941  -26.1851   -8.5142 C   0  0  0  0  0  0  0  0  0  0  0  0
   18.5576  -24.7424   -8.7219 C   0  0  0  0  0  0  0  0  0  0  0  0
   19.3494  -23.9590   -7.7466 C   0  0  2  0  0  0  0  0  0  0  0  0
   18.5971  -23.7896   -6.5241 N   0  0  0  0  0  0  0  0  0  0  0  0
   19.5458  -22.5988   -8.3337 C   0  0  0  0  0  0  0  0  0  0  0  0
   18.6486  -21.7497   -8.2096 O   0  0  0  0  0  0  0  0  0  0  0  0
   23.4163  -21.6137   -9.1698 C   0  0  0  0  0  0  0  0  0  0  0  0
   22.3386  -20.5555   -9.0970 C   0  0  1  0  0  0  0  0  0  0  0  0
   22.8044  -19.2265   -9.6179 C   0  0  0  0  0  0  0  0  0  0  0  0
   21.0259  -21.0218   -9.6122 C   0  0  2  0  0  0  0  0  0  0  0  0
   20.7564  -22.3282   -9.0139 N   0  0  0  0  0  0  0  0  0  0  0  0
   20.8959  -21.1238  -11.0579 C   0  0  0  0  0  0  0  0  0  0  0  0
   21.2899  -22.1819  -11.6139 O   0  0  0  0  0  0  0  0  0  0  0  0
   17.5078  -21.3415  -14.6029 N   0  0  0  0  0  0  0  0  0  0  0  0
   17.9247  -20.2576  -13.7949 C   0  0  0  0  0  0  0  0  0  0  0  0
   17.1132  -19.8939  -12.8702 O   0  0  0  0  0  0  0  0  0  0  0  0
   19.2155  -19.5643  -13.9764 C   0  0  0  0  0  0  0  0  0  0  0  0
   20.3131  -20.3631  -13.3291 C   0  0  2  0  0  0  0  0  0  0  0  0
   20.3582  -20.1216  -11.8937 N   0  0  0  0  0  0  0  0  0  0  0  0
   21.6004  -19.8697  -13.8852 C   0  0  0  0  0  0  0  0  0  0  0  0
   22.1744  -18.8081  -13.5477 O   0  0  0  0  0  0  0  0  0  0  0  0
   22.2250  -20.6508  -14.8651 O   0  0  0  0  0  0  0  0  0  0  0  0
  1  2  1  0
  3  2  1  0
  4  3  1  0
  5  4  1  0
  5  6  1  1
  7  8  2  0
  7  5  1  0
 10  9  1  6
 10 12  1  0
 11 10  1  0
 12 13  1  1
 13  7  1  0
 14 21  1  0
 14 12  1  0
 15 14  2  0
 17 16  1  0
 17 19  1  0
 18 17  2  0
 20 19  1  6
 20 21  1  0
 22 20  1  0
 23 22  2  0
 24 22  1  0
M  END
$$$$
