MVN.pdb
     RDKit          3D

 24 23  0  0  1  0  0  0  0  0999 V2000
   26.3701  -18.6802   -6.1826 C   0  0  0  0  0  0  0  0  0  0  0  0
   27.7686  -19.7612   -6.4072 S   0  0  0  0  0  0  0  0  0  0  0  0
   27.9507  -20.5728   -7.9534 C   0  0  0  0  0  0  0  0  0  0  0  0
   26.7606  -20.6419   -8.8079 C   0  0  0  0  0  0  0  0  0  0  0  0
   26.8288  -21.3979  -10.0790 C   0  0  2  0  0  0  0  0  0  0  0  0
   28.2068  -21.5537  -10.4862 N   0  0  0  0  0  0  0  0  0  0  0  0
   26.1543  -20.5653  -11.1207 C   0  0  0  0  0  0  0  0  0  0  0  0
   26.5051  -19.3842  -11.2734 O   0  0  0  0  0  0  0  0  0  0  0  0
   26.8490  -20.7926  -14.3059 C   0  0  0  0  0  0  0  0  0  0  0  0
   25.3852  -21.1699  -14.2639 C   0  0  1  0  0  0  0  0  0  0  0  0
   25.1686  -22.6455  -14.4375 C   0  0  0  0  0  0  0  0  0  0  0  0
   24.6523  -20.5426  -13.1346 C   0  0  2  0  0  0  0  0  0  0  0  0
   25.1336  -21.1594  -11.8996 N   0  0  0  0  0  0  0  0  0  0  0  0
   23.2003  -20.6292  -13.1761 C   0  0  0  0  0  0  0  0  0  0  0  0
   22.6356  -21.4588  -12.4166 O   0  0  0  0  0  0  0  0  0  0  0  0
   18.0359  -19.3499  -12.8996 N   0  0  0  0  0  0  0  0  0  0  0  0
   18.7543  -18.9257  -14.0422 C   0  0  0  0  0  0  0  0  0  0  0  0
   18.0650  -18.7337  -15.1072 O   0  0  0  0  0  0  0  0  0  0  0  0
   20.2139  -18.7036  -14.0425 C   0  0  0  0  0  0  0  0  0  0  0  0
   20.9252  -20.0215  -13.9047 C   0  0  2  0  0  0  0  0  0  0  0  0
   22.3677  -19.8499  -14.0075 N   0  0  0  0  0  0  0  0  0  0  0  0
   20.5127  -20.8645  -15.0576 C   0  0  0  0  0  0  0  0  0  0  0  0
   21.1002  -20.9151  -16.1632 O   0  0  0  0  0  0  0  0  0  0  0  0
   19.3770  -21.6680  -14.8995 O   0  0  0  0  0  0  0  0  0  0  0  0
  1  2  1  0
  3  2  1  0
  4  3  1  0
  5  4  1  0
  5  6  1  6
  7  8  2  0
  7  5  1  0
 10  9  1  1
 10 12  1  0
 11 10  1  0
 12 13  1  1
 13  7  1  0
 14 21  1  0
 14 12  1  0
 15 14  2  0
 17 16  1  0
 17 19  1  0
 18 17  2  0
 20 19  1  6
 20 21  1  0
 22 20  1  0
 23 22  2  0
 24 22  1  0
M  END
$$$$
