MVN.pdb
     RDKit          3D

 24 23  0  0  1  0  0  0  0  0999 V2000
   12.4391   -9.9134   -6.7471 C   0  0  0  0  0  0  0  0  0  0  0  0
   11.8980   -8.3556   -7.4219 S   0  0  0  0  0  0  0  0  0  0  0  0
   13.1106   -7.2702   -8.0806 C   0  0  0  0  0  0  0  0  0  0  0  0
   14.3441   -7.8841   -8.5835 C   0  0  0  0  0  0  0  0  0  0  0  0
   15.4536   -7.0113   -9.0298 C   0  0  2  0  0  0  0  0  0  0  0  0
   14.9509   -5.9952   -9.9263 N   0  0  0  0  0  0  0  0  0  0  0  0
   16.3937   -7.8657   -9.8170 C   0  0  0  0  0  0  0  0  0  0  0  0
   17.0545   -8.7384   -9.2312 O   0  0  0  0  0  0  0  0  0  0  0  0
   16.1165  -10.4600  -12.1966 C   0  0  0  0  0  0  0  0  0  0  0  0
   16.7160   -9.2784  -12.9254 C   0  0  1  0  0  0  0  0  0  0  0  0
   15.7355   -8.6192  -13.8520 C   0  0  0  0  0  0  0  0  0  0  0  0
   17.4701   -8.3622  -12.0322 C   0  0  2  0  0  0  0  0  0  0  0  0
   16.4955   -7.6461  -11.2108 N   0  0  0  0  0  0  0  0  0  0  0  0
   18.3456   -7.3985  -12.6818 C   0  0  0  0  0  0  0  0  0  0  0  0
   17.8599   -6.2840  -13.0075 O   0  0  0  0  0  0  0  0  0  0  0  0
   22.0248   -3.6637  -13.8167 N   0  0  0  0  0  0  0  0  0  0  0  0
   22.3174   -5.0336  -13.6178 C   0  0  0  0  0  0  0  0  0  0  0  0
   23.3836   -5.4736  -14.1796 O   0  0  0  0  0  0  0  0  0  0  0  0
   21.4672   -5.9327  -12.8125 C   0  0  0  0  0  0  0  0  0  0  0  0
   20.4377   -6.5806  -13.6970 C   0  0  2  0  0  0  0  0  0  0  0  0
   19.7083   -7.6158  -12.9779 N   0  0  0  0  0  0  0  0  0  0  0  0
   21.1708   -7.2610  -14.7967 C   0  0  0  0  0  0  0  0  0  0  0  0
   21.7207   -6.6847  -15.7642 O   0  0  0  0  0  0  0  0  0  0  0  0
   21.2561   -8.6578  -14.7519 O   0  0  0  0  0  0  0  0  0  0  0  0
  1  2  1  0
  3  2  1  0
  4  3  1  0
  5  4  1  0
  5  6  1  6
  7  8  2  0
  7  5  1  0
 10  9  1  1
 10 12  1  0
 11 10  1  0
 12 13  1  6
 13  7  1  0
 14 21  1  0
 14 12  1  0
 15 14  2  0
 17 16  1  0
 17 19  1  0
 18 17  2  0
 20 19  1  1
 20 21  1  0
 22 20  1  0
 23 22  2  0
 24 22  1  0
M  END
$$$$
