MVN.pdb
     RDKit          3D

 24 23  0  0  1  0  0  0  0  0999 V2000
   34.9627  -40.7856   -7.4671 C   0  0  0  0  0  0  0  0  0  0  0  0
   34.0569  -39.5154   -6.6064 S   0  0  0  0  0  0  0  0  0  0  0  0
   34.8643  -37.9886   -6.2912 C   0  0  0  0  0  0  0  0  0  0  0  0
   34.0829  -36.9579   -5.5996 C   0  0  0  0  0  0  0  0  0  0  0  0
   33.0258  -36.2350   -6.3426 C   0  0  2  0  0  0  0  0  0  0  0  0
   33.6255  -35.3078   -7.2752 N   0  0  0  0  0  0  0  0  0  0  0  0
   32.2652  -35.4239   -5.3442 C   0  0  0  0  0  0  0  0  0  0  0  0
   32.7898  -34.4061   -4.8641 O   0  0  0  0  0  0  0  0  0  0  0  0
   29.3033  -33.7539   -6.1484 C   0  0  0  0  0  0  0  0  0  0  0  0
   28.9270  -34.6269   -4.9723 C   0  0  1  0  0  0  0  0  0  0  0  0
   27.9943  -35.7383   -5.3590 C   0  0  0  0  0  0  0  0  0  0  0  0
   30.0935  -35.0273   -4.1448 C   0  0  2  0  0  0  0  0  0  0  0  0
   30.9659  -35.8498   -4.9812 N   0  0  0  0  0  0  0  0  0  0  0  0
   29.7992  -35.7445   -2.9134 C   0  0  0  0  0  0  0  0  0  0  0  0
   29.7559  -37.0015   -2.9572 O   0  0  0  0  0  0  0  0  0  0  0  0
   28.7149  -37.5005    1.7307 N   0  0  0  0  0  0  0  0  0  0  0  0
   29.4168  -36.2820    1.8861 C   0  0  0  0  0  0  0  0  0  0  0  0
   29.7635  -35.9753    3.0827 O   0  0  0  0  0  0  0  0  0  0  0  0
   29.7505  -35.3920    0.7564 C   0  0  0  0  0  0  0  0  0  0  0  0
   29.2388  -35.9895   -0.5254 C   0  0  2  0  0  0  0  0  0  0  0  0
   29.5567  -35.1372   -1.6627 N   0  0  0  0  0  0  0  0  0  0  0  0
   27.7562  -36.0337   -0.4269 C   0  0  0  0  0  0  0  0  0  0  0  0
   27.1062  -36.7224    0.3939 O   0  0  0  0  0  0  0  0  0  0  0  0
   27.0232  -35.2440   -1.3211 O   0  0  0  0  0  0  0  0  0  0  0  0
  1  2  1  0
  3  2  1  0
  4  3  1  0
  5  4  1  0
  5  6  1  6
  7  8  2  0
  7  5  1  0
 10  9  1  6
 10 12  1  0
 11 10  1  0
 12 13  1  6
 13  7  1  0
 14 21  1  0
 14 12  1  0
 15 14  2  0
 17 16  1  0
 17 19  1  0
 18 17  2  0
 20 19  1  1
 20 21  1  0
 22 20  1  0
 23 22  2  0
 24 22  1  0
M  END
$$$$
