MVN.pdb
     RDKit          3D

 24 23  0  0  1  0  0  0  0  0999 V2000
   27.7885  -11.8633  -14.6528 C   0  0  0  0  0  0  0  0  0  0  0  0
   27.8353  -13.5234  -15.2986 S   0  0  0  0  0  0  0  0  0  0  0  0
   26.3562  -14.1985  -15.9609 C   0  0  0  0  0  0  0  0  0  0  0  0
   25.1652  -13.3431  -15.9257 C   0  0  0  0  0  0  0  0  0  0  0  0
   23.8981  -13.8476  -16.5017 C   0  0  2  0  0  0  0  0  0  0  0  0
   24.1773  -14.8558  -17.4989 N   0  0  0  0  0  0  0  0  0  0  0  0
   23.2498  -12.7002  -17.2064 C   0  0  0  0  0  0  0  0  0  0  0  0
   23.6206  -12.4061  -18.3542 O   0  0  0  0  0  0  0  0  0  0  0  0
   20.2843  -12.2930  -18.7909 C   0  0  0  0  0  0  0  0  0  0  0  0
   20.2058  -11.3540  -17.6082 C   0  0  1  0  0  0  0  0  0  0  0  0
   19.3077  -11.8734  -16.5228 C   0  0  0  0  0  0  0  0  0  0  0  0
   21.5350  -10.8646  -17.1613 C   0  0  2  0  0  0  0  0  0  0  0  0
   22.2299  -11.9872  -16.5335 N   0  0  0  0  0  0  0  0  0  0  0  0
   21.5353   -9.7325  -16.2471 C   0  0  0  0  0  0  0  0  0  0  0  0
   22.3770   -9.7283  -15.3114 O   0  0  0  0  0  0  0  0  0  0  0  0
   22.8789   -5.6811  -13.4787 N   0  0  0  0  0  0  0  0  0  0  0  0
   22.2888   -5.6610  -14.7644 C   0  0  0  0  0  0  0  0  0  0  0  0
   21.8403   -4.5279  -15.1654 O   0  0  0  0  0  0  0  0  0  0  0  0
   22.1822   -6.8572  -15.6232 C   0  0  0  0  0  0  0  0  0  0  0  0
   20.8505   -7.5203  -15.4023 C   0  0  2  0  0  0  0  0  0  0  0  0
   20.6591   -8.6289  -16.3270 N   0  0  0  0  0  0  0  0  0  0  0  0
   19.8025   -6.5147  -15.7194 C   0  0  0  0  0  0  0  0  0  0  0  0
   19.2709   -6.3539  -16.8427 O   0  0  0  0  0  0  0  0  0  0  0  0
   19.3720   -5.6782  -14.6824 O   0  0  0  0  0  0  0  0  0  0  0  0
  1  2  1  0
  3  2  1  0
  4  3  1  0
  5  4  1  0
  5  6  1  6
  7  8  2  0
  7  5  1  0
 10  9  1  6
 10 12  1  0
 11 10  1  0
 12 13  1  1
 13  7  1  0
 14 21  1  0
 14 12  1  0
 15 14  2  0
 17 16  1  0
 17 19  1  0
 18 17  2  0
 20 19  1  6
 20 21  1  0
 22 20  1  0
 23 22  2  0
 24 22  1  0
M  END
$$$$
