MVN.pdb
     RDKit          3D

 24 23  0  0  1  0  0  0  0  0999 V2000
   31.1063  -25.7827  -19.8940 C   0  0  0  0  0  0  0  0  0  0  0  0
   30.2767  -24.7043  -18.7434 S   0  0  0  0  0  0  0  0  0  0  0  0
   30.6948  -22.9992  -18.7543 C   0  0  0  0  0  0  0  0  0  0  0  0
   29.9249  -22.1241  -17.8640 C   0  0  0  0  0  0  0  0  0  0  0  0
   28.8633  -22.7124  -17.0163 C   0  0  2  0  0  0  0  0  0  0  0  0
   27.6119  -22.7358  -17.7393 N   0  0  0  0  0  0  0  0  0  0  0  0
   28.6788  -21.7988  -15.8481 C   0  0  0  0  0  0  0  0  0  0  0  0
   29.6789  -21.3657  -15.2534 O   0  0  0  0  0  0  0  0  0  0  0  0
   27.3016  -18.4858  -15.7576 C   0  0  0  0  0  0  0  0  0  0  0  0
   26.4038  -19.3548  -14.9058 C   0  0  1  0  0  0  0  0  0  0  0  0
   25.0786  -19.6228  -15.5589 C   0  0  0  0  0  0  0  0  0  0  0  0
   27.0978  -20.5451  -14.3512 C   0  0  2  0  0  0  0  0  0  0  0  0
   27.3610  -21.4591  -15.4613 N   0  0  0  0  0  0  0  0  0  0  0  0
   26.4043  -21.2660  -13.2945 C   0  0  0  0  0  0  0  0  0  0  0  0
   25.8250  -22.3423  -13.5947 O   0  0  0  0  0  0  0  0  0  0  0  0
   25.9291  -19.4931   -7.9324 N   0  0  0  0  0  0  0  0  0  0  0  0
   25.8221  -19.9812   -9.2560 C   0  0  0  0  0  0  0  0  0  0  0  0
   25.6060  -19.1053  -10.1682 O   0  0  0  0  0  0  0  0  0  0  0  0
   25.9503  -21.4105   -9.6030 C   0  0  0  0  0  0  0  0  0  0  0  0
   25.5113  -21.6262  -11.0252 C   0  0  2  0  0  0  0  0  0  0  0  0
   26.3291  -20.8508  -11.9476 N   0  0  0  0  0  0  0  0  0  0  0  0
   24.1250  -21.1019  -11.1401 C   0  0  0  0  0  0  0  0  0  0  0  0
   23.7936  -20.0632  -11.7579 O   0  0  0  0  0  0  0  0  0  0  0  0
   23.1047  -21.8235  -10.5087 O   0  0  0  0  0  0  0  0  0  0  0  0
  1  2  1  0
  3  2  1  0
  4  3  1  0
  5  4  1  0
  5  6  1  6
  7  8  2  0
  7  5  1  0
 10  9  1  6
 10 12  1  0
 11 10  1  0
 12 13  1  6
 13  7  1  0
 14 21  1  0
 14 12  1  0
 15 14  2  0
 17 16  1  0
 17 19  1  0
 18 17  2  0
 20 19  1  1
 20 21  1  0
 22 20  1  0
 23 22  2  0
 24 22  1  0
M  END
$$$$
