MVN.pdb
     RDKit          3D

 24 23  0  0  1  0  0  0  0  0999 V2000
   20.8278  -22.6632  -15.7845 C   0  0  0  0  0  0  0  0  0  0  0  0
   21.1308  -22.1543  -17.4651 S   0  0  0  0  0  0  0  0  0  0  0  0
   21.6007  -20.4879  -17.7560 C   0  0  0  0  0  0  0  0  0  0  0  0
   21.8954  -19.6685  -16.5758 C   0  0  0  0  0  0  0  0  0  0  0  0
   23.2987  -19.5340  -16.1237 C   0  0  2  0  0  0  0  0  0  0  0  0
   23.5565  -20.4520  -15.0375 N   0  0  0  0  0  0  0  0  0  0  0  0
   23.4523  -18.1518  -15.5767 C   0  0  0  0  0  0  0  0  0  0  0  0
   23.0366  -17.9026  -14.4337 O   0  0  0  0  0  0  0  0  0  0  0  0
   26.0697  -14.0403  -16.0501 C   0  0  0  0  0  0  0  0  0  0  0  0
   25.7535  -15.5184  -16.0954 C   0  0  1  0  0  0  0  0  0  0  0  0
   26.6977  -16.3322  -15.2583 C   0  0  0  0  0  0  0  0  0  0  0  0
   24.3104  -15.8134  -15.9049 C   0  0  2  0  0  0  0  0  0  0  0  0
   24.0705  -17.1719  -16.3886 N   0  0  0  0  0  0  0  0  0  0  0  0
   23.3726  -14.9058  -16.5484 C   0  0  0  0  0  0  0  0  0  0  0  0
   22.8297  -15.2792  -17.6207 O   0  0  0  0  0  0  0  0  0  0  0  0
   19.5564  -11.8116  -17.6478 N   0  0  0  0  0  0  0  0  0  0  0  0
   19.4279  -12.9239  -16.7830 C   0  0  0  0  0  0  0  0  0  0  0  0
   18.2338  -13.3411  -16.5683 O   0  0  0  0  0  0  0  0  0  0  0  0
   20.5819  -13.5925  -16.1496 C   0  0  0  0  0  0  0  0  0  0  0  0
   21.8588  -12.9622  -16.6336 C   0  0  2  0  0  0  0  0  0  0  0  0
   23.0201  -13.6289  -16.0613 N   0  0  0  0  0  0  0  0  0  0  0  0
   21.8767  -11.5646  -16.1273 C   0  0  0  0  0  0  0  0  0  0  0  0
   21.0460  -10.6759  -16.4279 O   0  0  0  0  0  0  0  0  0  0  0  0
   22.9026  -11.2085  -15.2435 O   0  0  0  0  0  0  0  0  0  0  0  0
  1  2  1  0
  3  2  1  0
  4  3  1  0
  5  4  1  0
  5  6  1  1
  7  8  2  0
  7  5  1  0
 10  9  1  1
 10 12  1  0
 11 10  1  0
 12 13  1  6
 13  7  1  0
 14 21  1  0
 14 12  1  0
 15 14  2  0
 17 16  1  0
 17 19  1  0
 18 17  2  0
 20 19  1  1
 20 21  1  0
 22 20  1  0
 23 22  2  0
 24 22  1  0
M  END
$$$$
