MVN.pdb
     RDKit          3D

 24 23  0  0  1  0  0  0  0  0999 V2000
   11.3064  -12.3483  -15.1538 C   0  0  0  0  0  0  0  0  0  0  0  0
   11.6147  -14.1006  -15.2522 S   0  0  0  0  0  0  0  0  0  0  0  0
   13.2318  -14.6364  -15.6770 C   0  0  0  0  0  0  0  0  0  0  0  0
   14.3502  -13.8609  -15.1301 C   0  0  0  0  0  0  0  0  0  0  0  0
   15.7326  -14.2105  -15.5283 C   0  0  2  0  0  0  0  0  0  0  0  0
   16.1353  -15.4395  -14.8829 N   0  0  0  0  0  0  0  0  0  0  0  0
   16.6245  -13.1292  -15.0099 C   0  0  0  0  0  0  0  0  0  0  0  0
   16.6632  -12.9089  -13.7887 O   0  0  0  0  0  0  0  0  0  0  0  0
   19.3229  -11.6494  -17.7874 C   0  0  0  0  0  0  0  0  0  0  0  0
   19.5805  -11.5242  -16.3025 C   0  0  1  0  0  0  0  0  0  0  0  0
   20.6829  -10.5532  -15.9921 C   0  0  0  0  0  0  0  0  0  0  0  0
   18.3379  -11.3598  -15.5057 C   0  0  2  0  0  0  0  0  0  0  0  0
   17.3972  -12.3921  -15.9379 N   0  0  0  0  0  0  0  0  0  0  0  0
   17.6869  -10.0606  -15.5802 C   0  0  0  0  0  0  0  0  0  0  0  0
   16.9031   -9.8462  -16.5413 O   0  0  0  0  0  0  0  0  0  0  0  0
   15.8311   -5.3314  -14.9436 N   0  0  0  0  0  0  0  0  0  0  0  0
   15.5238   -6.2141  -13.8815 C   0  0  0  0  0  0  0  0  0  0  0  0
   14.6281   -5.8160  -13.0536 O   0  0  0  0  0  0  0  0  0  0  0  0
   16.1755   -7.5275  -13.7082 C   0  0  0  0  0  0  0  0  0  0  0  0
   17.1242   -7.7748  -14.8486 C   0  0  2  0  0  0  0  0  0  0  0  0
   17.8660   -9.0125  -14.6521 N   0  0  0  0  0  0  0  0  0  0  0  0
   18.1219   -6.6728  -14.8354 C   0  0  0  0  0  0  0  0  0  0  0  0
   19.3201   -6.7863  -14.4862 O   0  0  0  0  0  0  0  0  0  0  0  0
   17.6926   -5.4047  -15.2451 O   0  0  0  0  0  0  0  0  0  0  0  0
  1  2  1  0
  3  2  1  0
  4  3  1  0
  5  4  1  0
  5  6  1  1
  7  8  2  0
  7  5  1  0
 10  9  1  6
 10 12  1  0
 11 10  1  0
 12 13  1  6
 13  7  1  0
 14 21  1  0
 14 12  1  0
 15 14  2  0
 17 16  1  0
 17 19  1  0
 18 17  2  0
 20 19  1  1
 20 21  1  0
 22 20  1  0
 23 22  2  0
 24 22  1  0
M  END
$$$$
