INF.pdb
     RDKit          3D

 28 28  0  0  1  0  0  0  0  0999 V2000
   27.3512  -18.1718  -18.1568 C   0  0  0  0  0  0  0  0  0  0  0  0
   28.2058  -17.8064  -16.9728 C   0  0  0  0  0  0  0  0  0  0  0  0
   27.3877  -17.9108  -15.7273 C   0  0  2  0  0  0  0  0  0  0  0  0
   27.5786  -16.6647  -14.9223 C   0  0  0  0  0  0  0  0  0  0  0  0
   27.6726  -19.1756  -14.9499 C   0  0  2  0  0  0  0  0  0  0  0  0
   27.4987  -20.2859  -15.8425 N   0  0  0  0  0  0  0  0  0  0  0  0
   26.6981  -19.2375  -13.8049 C   0  0  0  0  0  0  0  0  0  0  0  0
   25.6025  -18.6275  -13.9207 O   0  0  0  0  0  0  0  0  0  0  0  0
   23.9572  -20.1661   -9.7434 N   0  0  0  0  0  0  0  0  0  0  0  0
   23.6803  -20.6457  -11.0704 C   0  0  0  0  0  0  0  0  0  0  0  0
   22.5257  -21.0650  -11.2715 O   0  0  0  0  0  0  0  0  0  0  0  0
   24.7465  -20.6172  -12.0958 C   0  0  0  0  0  0  0  0  0  0  0  0
   26.0426  -20.0721  -11.5666 C   0  0  2  0  0  0  0  0  0  0  0  0
   27.0103  -19.9624  -12.6337 N   0  0  0  0  0  0  0  0  0  0  0  0
   26.5864  -20.7824  -10.3915 C   0  0  0  0  0  0  0  0  0  0  0  0
   27.6630  -21.4188  -10.4896 O   0  0  0  0  0  0  0  0  0  0  0  0
   25.9507  -20.7920   -9.1202 N   0  0  0  0  0  0  0  0  0  0  0  0
   26.4914  -21.4506   -7.9546 C   0  0  1  0  0  0  0  0  0  0  0  0
   27.9313  -21.0545   -7.6987 C   0  0  0  0  0  0  0  0  0  0  0  0
   28.1344  -20.4242   -6.4002 C   0  0  0  0  0  0  0  0  0  0  0  0
   27.7647  -19.1202   -6.1764 C   0  0  0  0  0  0  0  0  0  0  0  0
   27.9502  -18.5099   -4.9542 C   0  0  0  0  0  0  0  0  0  0  0  0
   28.5150  -19.1902   -3.9114 C   0  0  0  0  0  0  0  0  0  0  0  0
   28.8955  -20.5009   -4.1089 C   0  0  0  0  0  0  0  0  0  0  0  0
   28.7025  -21.1111   -5.3546 C   0  0  0  0  0  0  0  0  0  0  0  0
   25.6426  -21.2535   -6.7583 C   0  0  0  0  0  0  0  0  0  0  0  0
   24.5460  -20.4050   -6.7811 O   0  0  0  0  0  0  0  0  0  0  0  0
   25.8846  -21.8483   -5.6776 O   0  0  0  0  0  0  0  0  0  0  0  0
  2  1  1  0
  3  4  1  1
  3  5  1  0
  3  2  1  0
  5  6  1  6
  7  5  1  0
  7  8  2  0
  9 10  1  0
 10 12  1  0
 11 10  2  0
 13 12  1  6
 13 14  1  0
 14  7  1  0
 15 13  1  0
 16 15  2  0
 17 15  1  0
 18 17  1  0
 18 26  1  0
 18 19  1  1
 20 25  2  0
 20 19  1  0
 21 20  1  0
 22 23  1  0
 22 21  2  0
 23 24  2  0
 24 25  1  0
 26 27  1  0
 28 26  2  0
M  END
$$$$
