INF.pdb
     RDKit          3D

 28 28  0  0  1  0  0  0  0  0999 V2000
   29.9244  -16.0830  -18.5705 C   0  0  0  0  0  0  0  0  0  0  0  0
   28.4756  -15.7043  -18.7237 C   0  0  0  0  0  0  0  0  0  0  0  0
   27.7127  -16.1957  -17.5372 C   0  0  2  0  0  0  0  0  0  0  0  0
   28.0644  -17.6303  -17.3015 C   0  0  0  0  0  0  0  0  0  0  0  0
   26.2254  -15.9566  -17.6637 C   0  0  2  0  0  0  0  0  0  0  0  0
   26.0148  -14.5385  -17.7306 N   0  0  0  0  0  0  0  0  0  0  0  0
   25.5623  -16.5506  -16.4504 C   0  0  0  0  0  0  0  0  0  0  0  0
   25.5882  -15.8949  -15.3756 O   0  0  0  0  0  0  0  0  0  0  0  0
   21.1771  -18.1627  -13.6074 N   0  0  0  0  0  0  0  0  0  0  0  0
   21.9494  -18.9175  -14.5569 C   0  0  0  0  0  0  0  0  0  0  0  0
   21.9030  -20.1558  -14.4397 O   0  0  0  0  0  0  0  0  0  0  0  0
   22.7341  -18.2075  -15.5908 C   0  0  0  0  0  0  0  0  0  0  0  0
   24.2161  -18.3328  -15.3790 C   0  0  2  0  0  0  0  0  0  0  0  0
   24.9292  -17.8110  -16.5220 N   0  0  0  0  0  0  0  0  0  0  0  0
   24.6817  -19.6820  -14.9996 C   0  0  0  0  0  0  0  0  0  0  0  0
   24.8799  -20.5466  -15.8866 O   0  0  0  0  0  0  0  0  0  0  0  0
   24.9268  -20.0756  -13.6559 N   0  0  0  0  0  0  0  0  0  0  0  0
   25.3651  -21.3964  -13.2711 C   0  0  1  0  0  0  0  0  0  0  0  0
   26.5572  -21.3466  -12.3373 C   0  0  0  0  0  0  0  0  0  0  0  0
   26.2323  -20.8297  -11.0136 C   0  0  0  0  0  0  0  0  0  0  0  0
   25.9032  -21.6739   -9.9810 C   0  0  0  0  0  0  0  0  0  0  0  0
   25.5935  -21.2007   -8.7236 C   0  0  0  0  0  0  0  0  0  0  0  0
   25.6038  -19.8593   -8.4592 C   0  0  0  0  0  0  0  0  0  0  0  0
   25.9307  -18.9895   -9.4781 C   0  0  0  0  0  0  0  0  0  0  0  0
   26.2436  -19.4809  -10.7516 C   0  0  0  0  0  0  0  0  0  0  0  0
   24.2611  -22.2109  -12.7155 C   0  0  0  0  0  0  0  0  0  0  0  0
   23.0428  -21.6423  -12.3757 O   0  0  0  0  0  0  0  0  0  0  0  0
   24.3875  -23.4479  -12.5315 O   0  0  0  0  0  0  0  0  0  0  0  0
  2  1  1  0
  3  4  1  6
  3  5  1  0
  3  2  1  0
  5  6  1  1
  7  5  1  0
  7  8  2  0
  9 10  1  0
 10 12  1  0
 11 10  2  0
 13 12  1  6
 13 14  1  0
 14  7  1  0
 15 13  1  0
 16 15  2  0
 17 15  1  0
 18 17  1  0
 18 26  1  0
 18 19  1  1
 20 25  2  0
 20 19  1  0
 21 20  1  0
 22 23  1  0
 22 21  2  0
 23 24  2  0
 24 25  1  0
 26 27  1  0
 28 26  2  0
M  END
$$$$
