INF.pdb
     RDKit          3D

 28 28  0  0  1  0  0  0  0  0999 V2000
   15.5169  -11.6985  -18.4528 C   0  0  0  0  0  0  0  0  0  0  0  0
   17.0032  -11.5524  -18.6411 C   0  0  0  0  0  0  0  0  0  0  0  0
   17.4812  -10.3683  -17.8662 C   0  0  2  0  0  0  0  0  0  0  0  0
   16.6866   -9.1710  -18.2813 C   0  0  0  0  0  0  0  0  0  0  0  0
   18.9749  -10.1647  -17.9798 C   0  0  2  0  0  0  0  0  0  0  0  0
   19.6122  -11.4049  -17.6400 N   0  0  0  0  0  0  0  0  0  0  0  0
   19.3612   -9.0713  -17.0207 C   0  0  0  0  0  0  0  0  0  0  0  0
   18.4497   -8.5113  -16.3564 O   0  0  0  0  0  0  0  0  0  0  0  0
   21.5648   -8.8888  -12.8995 N   0  0  0  0  0  0  0  0  0  0  0  0
   21.9960   -9.1450  -14.2471 C   0  0  0  0  0  0  0  0  0  0  0  0
   22.1117  -10.3424  -14.5668 O   0  0  0  0  0  0  0  0  0  0  0  0
   22.2710   -8.0100  -15.1553 C   0  0  0  0  0  0  0  0  0  0  0  0
   21.0716   -7.6190  -15.9711 C   0  0  2  0  0  0  0  0  0  0  0  0
   20.7125   -8.6881  -16.8741 N   0  0  0  0  0  0  0  0  0  0  0  0
   21.1824   -6.3187  -16.6625 C   0  0  0  0  0  0  0  0  0  0  0  0
   21.8551   -6.2276  -17.7174 O   0  0  0  0  0  0  0  0  0  0  0  0
   20.5583   -5.1296  -16.1967 N   0  0  0  0  0  0  0  0  0  0  0  0
   20.5771   -3.8764  -16.9136 C   0  0  1  0  0  0  0  0  0  0  0  0
   20.1099   -4.0377  -18.3458 C   0  0  0  0  0  0  0  0  0  0  0  0
   18.6689   -4.2229  -18.4655 C   0  0  0  0  0  0  0  0  0  0  0  0
   17.7994   -3.1748  -18.2857 C   0  0  0  0  0  0  0  0  0  0  0  0
   16.4342   -3.3337  -18.3955 C   0  0  0  0  0  0  0  0  0  0  0  0
   15.8939   -4.5545  -18.6906 C   0  0  0  0  0  0  0  0  0  0  0  0
   16.7444   -5.6239  -18.8761 C   0  0  0  0  0  0  0  0  0  0  0  0
   18.1296   -5.4513  -18.7622 C   0  0  0  0  0  0  0  0  0  0  0  0
   19.8276   -2.8160  -16.2034 C   0  0  0  0  0  0  0  0  0  0  0  0
   19.8525   -1.4988  -16.6364 O   0  0  0  0  0  0  0  0  0  0  0  0
   19.1409   -3.0706  -15.1818 O   0  0  0  0  0  0  0  0  0  0  0  0
  2  1  1  0
  3  4  1  6
  3  5  1  0
  3  2  1  0
  5  6  1  1
  7  5  1  0
  7  8  2  0
  9 10  1  0
 10 12  1  0
 11 10  2  0
 13 12  1  6
 13 14  1  0
 14  7  1  0
 15 13  1  0
 16 15  2  0
 17 15  1  0
 18 17  1  0
 18 26  1  0
 18 19  1  6
 20 25  2  0
 20 19  1  0
 21 20  1  0
 22 23  1  0
 22 21  2  0
 23 24  2  0
 24 25  1  0
 26 27  1  0
 28 26  2  0
M  END
$$$$
