INF.pdb
     RDKit          3D

 28 28  0  0  1  0  0  0  0  0999 V2000
   20.3607  -18.0682  -21.3835 C   0  0  0  0  0  0  0  0  0  0  0  0
   21.7603  -18.4608  -20.9926 C   0  0  0  0  0  0  0  0  0  0  0  0
   22.0933  -17.8403  -19.6753 C   0  0  2  0  0  0  0  0  0  0  0  0
   23.0865  -16.7444  -19.8987 C   0  0  0  0  0  0  0  0  0  0  0  0
   22.5439  -18.8575  -18.6518 C   0  0  2  0  0  0  0  0  0  0  0  0
   22.9512  -20.0381  -19.3588 N   0  0  0  0  0  0  0  0  0  0  0  0
   21.3775  -19.1397  -17.7439 C   0  0  0  0  0  0  0  0  0  0  0  0
   20.9197  -18.1940  -17.0498 O   0  0  0  0  0  0  0  0  0  0  0  0
   16.2409  -20.5733  -16.5160 N   0  0  0  0  0  0  0  0  0  0  0  0
   17.3420  -21.4670  -16.7539 C   0  0  0  0  0  0  0  0  0  0  0  0
   17.2650  -22.5865  -16.2152 O   0  0  0  0  0  0  0  0  0  0  0  0
   18.4731  -21.0252  -17.5991 C   0  0  0  0  0  0  0  0  0  0  0  0
   19.7003  -20.6975  -16.7968 C   0  0  2  0  0  0  0  0  0  0  0  0
   20.8155  -20.4336  -17.6766 N   0  0  0  0  0  0  0  0  0  0  0  0
   20.0396  -21.6768  -15.7448 C   0  0  0  0  0  0  0  0  0  0  0  0
   20.7010  -22.7022  -16.0359 O   0  0  0  0  0  0  0  0  0  0  0  0
   19.6542  -21.5285  -14.3846 N   0  0  0  0  0  0  0  0  0  0  0  0
   20.1720  -22.3394  -13.3081 C   0  0  1  0  0  0  0  0  0  0  0  0
   21.3399  -21.6728  -12.6100 C   0  0  0  0  0  0  0  0  0  0  0  0
   21.0087  -20.3693  -12.0477 C   0  0  0  0  0  0  0  0  0  0  0  0
   20.5622  -20.2446  -10.7546 C   0  0  0  0  0  0  0  0  0  0  0  0
   20.2449  -19.0191  -10.2084 C   0  0  0  0  0  0  0  0  0  0  0  0
   20.3655  -17.8732  -10.9444 C   0  0  0  0  0  0  0  0  0  0  0  0
   20.8116  -17.9699  -12.2456 C   0  0  0  0  0  0  0  0  0  0  0  0
   21.1312  -19.2198  -12.7905 C   0  0  0  0  0  0  0  0  0  0  0  0
   19.1144  -22.7422  -12.3543 C   0  0  0  0  0  0  0  0  0  0  0  0
   17.8395  -22.2001  -12.4165 O   0  0  0  0  0  0  0  0  0  0  0  0
   19.3331  -23.5906  -11.4529 O   0  0  0  0  0  0  0  0  0  0  0  0
  2  1  1  0
  3  4  1  6
  3  5  1  0
  3  2  1  0
  5  6  1  6
  7  5  1  0
  7  8  2  0
  9 10  1  0
 10 12  1  0
 11 10  2  0
 13 12  1  6
 13 14  1  0
 14  7  1  0
 15 13  1  0
 16 15  2  0
 17 15  1  0
 18 17  1  0
 18 26  1  0
 18 19  1  1
 20 25  2  0
 20 19  1  0
 21 20  1  0
 22 23  1  0
 22 21  2  0
 23 24  2  0
 24 25  1  0
 26 27  1  0
 28 26  2  0
M  END
$$$$
