INF.pdb
     RDKit          3D

 28 28  0  0  1  0  0  0  0  0999 V2000
   22.5003  -31.3808  -11.5508 C   0  0  0  0  0  0  0  0  0  0  0  0
   23.3592  -32.5672  -11.2037 C   0  0  0  0  0  0  0  0  0  0  0  0
   23.1344  -32.9328   -9.7730 C   0  0  2  0  0  0  0  0  0  0  0  0
   23.4592  -31.7488   -8.9186 C   0  0  0  0  0  0  0  0  0  0  0  0
   23.8796  -34.1848   -9.3698 C   0  0  2  0  0  0  0  0  0  0  0  0
   23.5164  -35.2250  -10.2895 N   0  0  0  0  0  0  0  0  0  0  0  0
   23.4669  -34.5297   -7.9644 C   0  0  0  0  0  0  0  0  0  0  0  0
   22.2611  -34.8242   -7.7524 O   0  0  0  0  0  0  0  0  0  0  0  0
   23.9880  -37.4302   -6.3884 N   0  0  0  0  0  0  0  0  0  0  0  0
   24.9514  -37.0680   -5.3842 C   0  0  0  0  0  0  0  0  0  0  0  0
   25.7117  -37.9762   -5.0017 O   0  0  0  0  0  0  0  0  0  0  0  0
   24.9889  -35.6799   -4.8736 C   0  0  0  0  0  0  0  0  0  0  0  0
   23.9943  -34.7856   -5.5576 C   0  0  2  0  0  0  0  0  0  0  0  0
   24.4121  -34.5213   -6.9151 N   0  0  0  0  0  0  0  0  0  0  0  0
   23.6602  -33.5469   -4.8259 C   0  0  0  0  0  0  0  0  0  0  0  0
   24.1474  -32.4520   -5.1966 O   0  0  0  0  0  0  0  0  0  0  0  0
   22.7978  -33.5143   -3.6965 N   0  0  0  0  0  0  0  0  0  0  0  0
   22.3551  -32.2981   -3.0564 C   0  0  1  0  0  0  0  0  0  0  0  0
   21.6776  -31.3595   -4.0339 C   0  0  0  0  0  0  0  0  0  0  0  0
   21.1870  -30.1353   -3.4129 C   0  0  0  0  0  0  0  0  0  0  0  0
   22.0426  -29.1128   -3.0821 C   0  0  0  0  0  0  0  0  0  0  0  0
   21.5942  -27.9490   -2.4944 C   0  0  0  0  0  0  0  0  0  0  0  0
   20.2670  -27.7716   -2.2180 C   0  0  0  0  0  0  0  0  0  0  0  0
   19.3862  -28.7825   -2.5398 C   0  0  0  0  0  0  0  0  0  0  0  0
   19.8524  -29.9607   -3.1365 C   0  0  0  0  0  0  0  0  0  0  0  0
   21.5100  -32.5669   -1.8714 C   0  0  0  0  0  0  0  0  0  0  0  0
   20.9073  -33.8007   -1.6775 O   0  0  0  0  0  0  0  0  0  0  0  0
   21.3076  -31.6865   -0.9973 O   0  0  0  0  0  0  0  0  0  0  0  0
  2  1  1  0
  3  4  1  1
  3  5  1  0
  3  2  1  0
  5  6  1  6
  7  5  1  0
  7  8  2  0
  9 10  1  0
 10 12  1  0
 11 10  2  0
 13 12  1  1
 13 14  1  0
 14  7  1  0
 15 13  1  0
 16 15  2  0
 17 15  1  0
 18 17  1  0
 18 26  1  0
 18 19  1  6
 20 25  2  0
 20 19  1  0
 21 20  1  0
 22 23  1  0
 22 21  2  0
 23 24  2  0
 24 25  1  0
 26 27  1  0
 28 26  2  0
M  END
$$$$
