INF.pdb
     RDKit          3D

 28 28  0  0  1  0  0  0  0  0999 V2000
   23.7974  -15.2789  -14.9817 C   0  0  0  0  0  0  0  0  0  0  0  0
   23.2834  -15.1078  -16.3860 C   0  0  0  0  0  0  0  0  0  0  0  0
   22.9181  -13.6758  -16.6029 C   0  0  2  0  0  0  0  0  0  0  0  0
   21.9974  -13.2442  -15.5060 C   0  0  0  0  0  0  0  0  0  0  0  0
   22.3628  -13.4214  -17.9858 C   0  0  2  0  0  0  0  0  0  0  0  0
   23.3264  -13.8953  -18.9379 N   0  0  0  0  0  0  0  0  0  0  0  0
   22.1419  -11.9393  -18.1239 C   0  0  0  0  0  0  0  0  0  0  0  0
   23.1305  -11.2129  -18.4082 O   0  0  0  0  0  0  0  0  0  0  0  0
   20.1005   -7.4245  -19.1386 N   0  0  0  0  0  0  0  0  0  0  0  0
   19.1021   -8.4247  -19.4040 C   0  0  0  0  0  0  0  0  0  0  0  0
   18.0942   -8.0411  -20.0255 O   0  0  0  0  0  0  0  0  0  0  0  0
   19.3165   -9.8132  -18.9404 C   0  0  0  0  0  0  0  0  0  0  0  0
   20.6216   -9.9856  -18.2164 C   0  0  2  0  0  0  0  0  0  0  0  0
   20.8568  -11.3837  -17.9384 N   0  0  0  0  0  0  0  0  0  0  0  0
   20.7864   -9.1427  -17.0150 C   0  0  0  0  0  0  0  0  0  0  0  0
   20.3030   -9.5159  -15.9192 O   0  0  0  0  0  0  0  0  0  0  0  0
   21.4770   -7.9003  -17.0201 N   0  0  0  0  0  0  0  0  0  0  0  0
   21.6310   -7.0601  -15.8560 C   0  0  1  0  0  0  0  0  0  0  0  0
   23.0829   -6.9261  -15.4440 C   0  0  0  0  0  0  0  0  0  0  0  0
   23.6639   -8.1735  -14.9632 C   0  0  0  0  0  0  0  0  0  0  0  0
   24.8221   -8.6748  -15.5058 C   0  0  0  0  0  0  0  0  0  0  0  0
   25.3841   -9.8531  -15.0622 C   0  0  0  0  0  0  0  0  0  0  0  0
   24.8004  -10.5705  -14.0552 C   0  0  0  0  0  0  0  0  0  0  0  0
   23.6368  -10.0898  -13.4927 C   0  0  0  0  0  0  0  0  0  0  0  0
   23.0744   -8.8919  -13.9510 C   0  0  0  0  0  0  0  0  0  0  0  0
   20.9814   -5.7416  -16.0297 C   0  0  0  0  0  0  0  0  0  0  0  0
   20.3794   -5.3838  -17.2265 O   0  0  0  0  0  0  0  0  0  0  0  0
   20.9517   -4.8978  -15.0984 O   0  0  0  0  0  0  0  0  0  0  0  0
  2  1  1  0
  3  4  1  1
  3  5  1  0
  3  2  1  0
  5  6  1  6
  7  5  1  0
  7  8  2  0
  9 10  1  0
 10 12  1  0
 11 10  2  0
 13 12  1  1
 13 14  1  0
 14  7  1  0
 15 13  1  0
 16 15  2  0
 17 15  1  0
 18 17  1  0
 18 26  1  0
 18 19  1  6
 20 25  2  0
 20 19  1  0
 21 20  1  0
 22 23  1  0
 22 21  2  0
 23 24  2  0
 24 25  1  0
 26 27  1  0
 28 26  2  0
M  END
$$$$
