INF.pdb
     RDKit          3D

 28 28  0  0  1  0  0  0  0  0999 V2000
   20.1211  -19.0148  -15.7817 C   0  0  0  0  0  0  0  0  0  0  0  0
   20.5948  -19.0920  -14.3551 C   0  0  0  0  0  0  0  0  0  0  0  0
   21.7829  -19.9944  -14.2815 C   0  0  2  0  0  0  0  0  0  0  0  0
   21.4015  -21.3347  -14.8251 C   0  0  0  0  0  0  0  0  0  0  0  0
   22.3783  -20.0583  -12.8934 C   0  0  2  0  0  0  0  0  0  0  0  0
   22.5131  -18.7127  -12.4132 N   0  0  0  0  0  0  0  0  0  0  0  0
   23.7173  -20.7365  -13.0013 C   0  0  0  0  0  0  0  0  0  0  0  0
   23.7496  -21.9340  -13.3896 O   0  0  0  0  0  0  0  0  0  0  0  0
   28.7787  -21.6850  -12.8067 N   0  0  0  0  0  0  0  0  0  0  0  0
   28.4457  -20.6320  -13.7275 C   0  0  0  0  0  0  0  0  0  0  0  0
   29.3421  -20.2965  -14.5233 O   0  0  0  0  0  0  0  0  0  0  0  0
   27.0991  -20.0209  -13.6839 C   0  0  0  0  0  0  0  0  0  0  0  0
   26.1787  -20.7189  -12.7232 C   0  0  2  0  0  0  0  0  0  0  0  0
   24.9029  -20.0426  -12.6741 N   0  0  0  0  0  0  0  0  0  0  0  0
   26.7392  -20.9506  -11.3766 C   0  0  0  0  0  0  0  0  0  0  0  0
   27.4594  -21.9554  -11.1644 O   0  0  0  0  0  0  0  0  0  0  0  0
   26.5086  -20.0838  -10.2739 N   0  0  0  0  0  0  0  0  0  0  0  0
   26.8576  -20.4055   -8.9103 C   0  0  1  0  0  0  0  0  0  0  0  0
   27.5434  -19.2475   -8.2143 C   0  0  0  0  0  0  0  0  0  0  0  0
   27.9112  -19.5395   -6.8343 C   0  0  0  0  0  0  0  0  0  0  0  0
   28.9961  -20.3286   -6.5387 C   0  0  0  0  0  0  0  0  0  0  0  0
   29.3568  -20.6140   -5.2389 C   0  0  0  0  0  0  0  0  0  0  0  0
   28.6382  -20.1151   -4.1882 C   0  0  0  0  0  0  0  0  0  0  0  0
   27.5441  -19.3199   -4.4569 C   0  0  0  0  0  0  0  0  0  0  0  0
   27.1865  -19.0364   -5.7809 C   0  0  0  0  0  0  0  0  0  0  0  0
   25.6965  -20.9045   -8.1399 C   0  0  0  0  0  0  0  0  0  0  0  0
   25.8489  -21.8346   -7.1228 O   0  0  0  0  0  0  0  0  0  0  0  0
   24.5296  -20.5032   -8.3795 O   0  0  0  0  0  0  0  0  0  0  0  0
  2  1  1  0
  3  4  1  1
  3  5  1  0
  3  2  1  0
  5  6  1  6
  7  5  1  0
  7  8  2  0
  9 10  1  0
 10 12  1  0
 11 10  2  0
 13 12  1  6
 13 14  1  0
 14  7  1  0
 15 13  1  0
 16 15  2  0
 17 15  1  0
 18 17  1  0
 18 26  1  0
 18 19  1  1
 20 25  2  0
 20 19  1  0
 21 20  1  0
 22 23  1  0
 22 21  2  0
 23 24  2  0
 24 25  1  0
 26 27  1  0
 28 26  2  0
M  END
$$$$
