INF.pdb
     RDKit          3D

 28 28  0  0  1  0  0  0  0  0999 V2000
   18.7934  -13.5834  -18.7271 C   0  0  0  0  0  0  0  0  0  0  0  0
   18.4804  -12.1662  -18.3280 C   0  0  0  0  0  0  0  0  0  0  0  0
   18.4455  -11.3092  -19.5510 C   0  0  2  0  0  0  0  0  0  0  0  0
   19.2012  -11.9993  -20.6419 C   0  0  0  0  0  0  0  0  0  0  0  0
   18.9273   -9.9009  -19.2869 C   0  0  2  0  0  0  0  0  0  0  0  0
   19.0687   -9.7462  -17.8671 N   0  0  0  0  0  0  0  0  0  0  0  0
   17.8963   -8.9541  -19.8394 C   0  0  0  0  0  0  0  0  0  0  0  0
   17.3331   -9.2533  -20.9252 O   0  0  0  0  0  0  0  0  0  0  0  0
   13.8318   -7.5896  -18.5061 N   0  0  0  0  0  0  0  0  0  0  0  0
   14.3756   -8.9092  -18.3315 C   0  0  0  0  0  0  0  0  0  0  0  0
   13.5592   -9.8479  -18.3733 O   0  0  0  0  0  0  0  0  0  0  0  0
   15.8297   -9.0788  -18.1182 C   0  0  0  0  0  0  0  0  0  0  0  0
   16.5694   -7.7711  -18.1142 C   0  0  2  0  0  0  0  0  0  0  0  0
   17.5733   -7.7628  -19.1531 N   0  0  0  0  0  0  0  0  0  0  0  0
   17.1194   -7.3678  -16.8042 C   0  0  0  0  0  0  0  0  0  0  0  0
   16.3423   -7.0636  -15.8676 O   0  0  0  0  0  0  0  0  0  0  0  0
   18.5121   -7.3000  -16.5281 N   0  0  0  0  0  0  0  0  0  0  0  0
   19.0613   -7.0143  -15.2237 C   0  0  1  0  0  0  0  0  0  0  0  0
   20.2772   -7.8669  -14.9234 C   0  0  0  0  0  0  0  0  0  0  0  0
   21.1011   -7.3373  -13.8438 C   0  0  0  0  0  0  0  0  0  0  0  0
   22.0518   -6.3743  -14.0807 C   0  0  0  0  0  0  0  0  0  0  0  0
   22.8388   -5.8635  -13.0705 C   0  0  0  0  0  0  0  0  0  0  0  0
   22.6977   -6.3035  -11.7837 C   0  0  0  0  0  0  0  0  0  0  0  0
   21.7506   -7.2699  -11.5181 C   0  0  0  0  0  0  0  0  0  0  0  0
   20.9564   -7.7820  -12.5518 C   0  0  0  0  0  0  0  0  0  0  0  0
   19.3376   -5.5721  -15.0383 C   0  0  0  0  0  0  0  0  0  0  0  0
   19.2049   -4.9635  -13.7993 O   0  0  0  0  0  0  0  0  0  0  0  0
   19.7027   -4.8460  -15.9973 O   0  0  0  0  0  0  0  0  0  0  0  0
  2  1  1  0
  3  4  1  6
  3  5  1  0
  3  2  1  0
  5  6  1  1
  7  5  1  0
  7  8  2  0
  9 10  1  0
 10 12  1  0
 11 10  2  0
 13 12  1  1
 13 14  1  0
 14  7  1  0
 15 13  1  0
 16 15  2  0
 17 15  1  0
 18 17  1  0
 18 26  1  0
 18 19  1  6
 20 25  2  0
 20 19  1  0
 21 20  1  0
 22 23  1  0
 22 21  2  0
 23 24  2  0
 24 25  1  0
 26 27  1  0
 28 26  2  0
M  END
$$$$
