INF.pdb
     RDKit          3D

 28 28  0  0  1  0  0  0  0  0999 V2000
   28.6128  -16.8358  -17.3416 C   0  0  0  0  0  0  0  0  0  0  0  0
   27.5170  -17.8666  -17.2912 C   0  0  0  0  0  0  0  0  0  0  0  0
   26.9084  -17.8683  -15.9271 C   0  0  2  0  0  0  0  0  0  0  0  0
   28.0031  -17.9770  -14.9137 C   0  0  0  0  0  0  0  0  0  0  0  0
   25.8393  -18.9255  -15.7697 C   0  0  2  0  0  0  0  0  0  0  0  0
   24.8892  -18.7477  -16.8305 N   0  0  0  0  0  0  0  0  0  0  0  0
   25.1974  -18.7292  -14.4229 C   0  0  0  0  0  0  0  0  0  0  0  0
   24.0894  -18.1329  -14.3716 O   0  0  0  0  0  0  0  0  0  0  0  0
   21.7570  -20.4410  -11.3702 N   0  0  0  0  0  0  0  0  0  0  0  0
   23.0735  -21.0104  -11.4719 C   0  0  0  0  0  0  0  0  0  0  0  0
   23.3797  -21.8417  -10.5975 O   0  0  0  0  0  0  0  0  0  0  0  0
   23.9676  -20.5933  -12.5742 C   0  0  0  0  0  0  0  0  0  0  0  0
   25.0328  -19.6346  -12.1230 C   0  0  2  0  0  0  0  0  0  0  0  0
   25.8263  -19.2038  -13.2508 N   0  0  0  0  0  0  0  0  0  0  0  0
   25.8687  -20.1108  -11.0024 C   0  0  0  0  0  0  0  0  0  0  0  0
   26.1818  -21.3233  -10.9282 O   0  0  0  0  0  0  0  0  0  0  0  0
   26.3552  -19.2598   -9.9731 N   0  0  0  0  0  0  0  0  0  0  0  0
   26.8896  -19.7369   -8.7195 C   0  0  1  0  0  0  0  0  0  0  0  0
   26.6873  -18.7349   -7.6011 C   0  0  0  0  0  0  0  0  0  0  0  0
   27.3504  -19.1140   -6.3595 C   0  0  0  0  0  0  0  0  0  0  0  0
   28.6280  -18.6949   -6.0783 C   0  0  0  0  0  0  0  0  0  0  0  0
   29.2686  -19.0449   -4.9087 C   0  0  0  0  0  0  0  0  0  0  0  0
   28.6463  -19.8302   -3.9785 C   0  0  0  0  0  0  0  0  0  0  0  0
   27.3632  -20.2649   -4.2357 C   0  0  0  0  0  0  0  0  0  0  0  0
   26.7216  -19.9035   -5.4271 C   0  0  0  0  0  0  0  0  0  0  0  0
   26.3679  -21.0755   -8.3638 C   0  0  0  0  0  0  0  0  0  0  0  0
   27.2198  -22.1387   -8.1054 O   0  0  0  0  0  0  0  0  0  0  0  0
   25.1333  -21.2976   -8.2830 O   0  0  0  0  0  0  0  0  0  0  0  0
  2  1  1  0
  3  4  1  1
  3  5  1  0
  3  2  1  0
  5  6  1  6
  7  5  1  0
  7  8  2  0
  9 10  1  0
 10 12  1  0
 11 10  2  0
 13 12  1  6
 13 14  1  0
 14  7  1  0
 15 13  1  0
 16 15  2  0
 17 15  1  0
 18 17  1  0
 18 26  1  0
 18 19  1  1
 20 25  2  0
 20 19  1  0
 21 20  1  0
 22 23  1  0
 22 21  2  0
 23 24  2  0
 24 25  1  0
 26 27  1  0
 28 26  2  0
M  END
$$$$
