INF.pdb
     RDKit          3D

 28 28  0  0  1  0  0  0  0  0999 V2000
   12.6701  -22.3211    0.3050 C   0  0  0  0  0  0  0  0  0  0  0  0
   14.1386  -22.0973    0.5483 C   0  0  0  0  0  0  0  0  0  0  0  0
   14.3083  -20.9904    1.5368 C   0  0  2  0  0  0  0  0  0  0  0  0
   13.5168  -19.8086    1.0740 C   0  0  0  0  0  0  0  0  0  0  0  0
   15.7610  -20.6702    1.8061 C   0  0  2  0  0  0  0  0  0  0  0  0
   16.4736  -21.9128    1.8940 N   0  0  0  0  0  0  0  0  0  0  0  0
   15.8284  -19.9090    3.1024 C   0  0  0  0  0  0  0  0  0  0  0  0
   15.3026  -18.7658    3.1507 O   0  0  0  0  0  0  0  0  0  0  0  0
   17.6217  -20.6120    9.0031 N   0  0  0  0  0  0  0  0  0  0  0  0
   16.8342  -20.0591    7.9345 C   0  0  0  0  0  0  0  0  0  0  0  0
   16.1805  -19.0360    8.2086 O   0  0  0  0  0  0  0  0  0  0  0  0
   16.8409  -20.7127    6.6072 C   0  0  0  0  0  0  0  0  0  0  0  0
   16.4274  -19.7819    5.5028 C   0  0  2  0  0  0  0  0  0  0  0  0
   16.4663  -20.4678    4.2318 N   0  0  0  0  0  0  0  0  0  0  0  0
   17.1521  -18.4957    5.4647 C   0  0  0  0  0  0  0  0  0  0  0  0
   18.2486  -18.4143    4.8607 O   0  0  0  0  0  0  0  0  0  0  0  0
   16.6739  -17.3100    6.0860 N   0  0  0  0  0  0  0  0  0  0  0  0
   17.3851  -16.0535    6.0774 C   0  0  1  0  0  0  0  0  0  0  0  0
   17.4398  -15.4446    4.6910 C   0  0  0  0  0  0  0  0  0  0  0  0
   18.0952  -14.1430    4.6577 C   0  0  0  0  0  0  0  0  0  0  0  0
   19.4647  -14.0353    4.6680 C   0  0  0  0  0  0  0  0  0  0  0  0
   20.0995  -12.8119    4.6368 C   0  0  0  0  0  0  0  0  0  0  0  0
   19.3786  -11.6509    4.5942 C   0  0  0  0  0  0  0  0  0  0  0  0
   18.0020  -11.7303    4.5830 C   0  0  0  0  0  0  0  0  0  0  0  0
   17.3673  -12.9784    4.6149 C   0  0  0  0  0  0  0  0  0  0  0  0
   16.8509  -15.1030    7.0782 C   0  0  0  0  0  0  0  0  0  0  0  0
   17.6757  -14.1975    7.7284 O   0  0  0  0  0  0  0  0  0  0  0  0
   15.6297  -15.0817    7.3755 O   0  0  0  0  0  0  0  0  0  0  0  0
  2  1  1  0
  3  4  1  6
  3  5  1  0
  3  2  1  0
  5  6  1  1
  7  5  1  0
  7  8  2  0
  9 10  1  0
 10 12  1  0
 11 10  2  0
 13 12  1  1
 13 14  1  0
 14  7  1  0
 15 13  1  0
 16 15  2  0
 17 15  1  0
 18 17  1  0
 18 26  1  0
 18 19  1  6
 20 25  2  0
 20 19  1  0
 21 20  1  0
 22 23  1  0
 22 21  2  0
 23 24  2  0
 24 25  1  0
 26 27  1  0
 28 26  2  0
M  END
$$$$
