INF.pdb
     RDKit          3D

 28 28  0  0  1  0  0  0  0  0999 V2000
   19.2960  -27.1630  -10.2511 C   0  0  0  0  0  0  0  0  0  0  0  0
   19.2205  -25.9290   -9.3924 C   0  0  0  0  0  0  0  0  0  0  0  0
   17.8164  -25.7493   -8.9154 C   0  0  2  0  0  0  0  0  0  0  0  0
   16.9196  -25.6134  -10.1047 C   0  0  0  0  0  0  0  0  0  0  0  0
   17.6795  -24.6120   -7.9289 C   0  0  2  0  0  0  0  0  0  0  0  0
   18.9983  -24.1299   -7.6318 N   0  0  0  0  0  0  0  0  0  0  0  0
   17.0058  -25.1540   -6.6973 C   0  0  0  0  0  0  0  0  0  0  0  0
   16.7904  -26.3930   -6.6318 O   0  0  0  0  0  0  0  0  0  0  0  0
   16.8516  -26.3152   -1.3946 N   0  0  0  0  0  0  0  0  0  0  0  0
   16.2133  -26.5188   -2.6669 C   0  0  0  0  0  0  0  0  0  0  0  0
   15.1655  -27.1905   -2.6527 O   0  0  0  0  0  0  0  0  0  0  0  0
   16.8145  -25.9387   -3.8880 C   0  0  0  0  0  0  0  0  0  0  0  0
   15.9914  -24.8206   -4.4621 C   0  0  2  0  0  0  0  0  0  0  0  0
   16.6274  -24.2903   -5.6460 N   0  0  0  0  0  0  0  0  0  0  0  0
   15.6236  -23.7590   -3.5036 C   0  0  0  0  0  0  0  0  0  0  0  0
   16.5209  -23.0803   -2.9487 O   0  0  0  0  0  0  0  0  0  0  0  0
   14.2801  -23.4475   -3.1592 N   0  0  0  0  0  0  0  0  0  0  0  0
   13.9093  -22.4390   -2.1949 C   0  0  1  0  0  0  0  0  0  0  0  0
   12.8818  -21.4750   -2.7521 C   0  0  0  0  0  0  0  0  0  0  0  0
   13.4257  -20.5677   -3.7550 C   0  0  0  0  0  0  0  0  0  0  0  0
   14.6072  -19.8993   -3.5440 C   0  0  0  0  0  0  0  0  0  0  0  0
   15.1347  -19.0381   -4.4825 C   0  0  0  0  0  0  0  0  0  0  0  0
   14.4918  -18.8178   -5.6689 C   0  0  0  0  0  0  0  0  0  0  0  0
   13.3036  -19.4761   -5.9064 C   0  0  0  0  0  0  0  0  0  0  0  0
   12.7767  -20.3488   -4.9461 C   0  0  0  0  0  0  0  0  0  0  0  0
   13.4738  -23.0294   -0.9094 C   0  0  0  0  0  0  0  0  0  0  0  0
   13.5088  -22.3009    0.2700 O   0  0  0  0  0  0  0  0  0  0  0  0
   13.0561  -24.2129   -0.8398 O   0  0  0  0  0  0  0  0  0  0  0  0
  2  1  1  0
  3  4  1  6
  3  5  1  0
  3  2  1  0
  5  6  1  1
  7  5  1  0
  7  8  2  0
  9 10  1  0
 10 12  1  0
 11 10  2  0
 13 12  1  1
 13 14  1  0
 14  7  1  0
 15 13  1  0
 16 15  2  0
 17 15  1  0
 18 17  1  0
 18 26  1  0
 18 19  1  6
 20 25  2  0
 20 19  1  0
 21 20  1  0
 22 23  1  0
 22 21  2  0
 23 24  2  0
 24 25  1  0
 26 27  1  0
 28 26  2  0
M  END
$$$$
