FLT.pdb
     RDKit          3D

 27 27  0  0  1  0  0  0  0  0999 V2000
    5.3573  -17.6761   24.8179 N   0  0  0  0  0  0  0  0  0  0  0  0
    6.1006  -16.4591   24.9350 C   0  0  1  0  0  0  0  0  0  0  0  0
    6.4660  -16.2210   26.3871 C   0  0  0  0  0  0  0  0  0  0  0  0
    6.8818  -14.8112   26.5152 C   0  0  0  0  0  0  0  0  0  0  0  0
    5.9598  -13.7941   26.3976 C   0  0  0  0  0  0  0  0  0  0  0  0
    6.3561  -12.4818   26.5184 C   0  0  0  0  0  0  0  0  0  0  0  0
    7.6814  -12.1737   26.7586 C   0  0  0  0  0  0  0  0  0  0  0  0
    8.6153  -13.1792   26.8788 C   0  0  0  0  0  0  0  0  0  0  0  0
    8.1989  -14.5076   26.7538 C   0  0  0  0  0  0  0  0  0  0  0  0
    7.3035  -16.4429   24.0583 C   0  0  0  0  0  0  0  0  0  0  0  0
    7.9845  -17.5188   24.0092 O   0  0  0  0  0  0  0  0  0  0  0  0
    7.4578  -14.8064   19.8364 C   0  0  0  0  0  0  0  0  0  0  0  0
    7.5185  -13.7141   20.9142 C   0  0  2  0  0  0  0  0  0  0  0  0
    7.5038  -12.3910   20.2097 C   0  0  0  0  0  0  0  0  0  0  0  0
    8.7525  -13.9642   21.7026 C   0  0  0  0  0  0  0  0  0  0  0  0
    8.7895  -15.2815   22.4275 C   0  0  2  0  0  0  0  0  0  0  0  0
    7.6630  -15.2938   23.3249 N   0  0  0  0  0  0  0  0  0  0  0  0
   10.0331  -15.4757   23.2169 C   0  0  0  0  0  0  0  0  0  0  0  0
   10.3019  -14.6710   24.1434 O   0  0  0  0  0  0  0  0  0  0  0  0
   11.3894  -18.1475   25.6545 C   0  0  0  0  0  0  0  0  0  0  0  0
   12.2685  -17.9989   24.4525 C   0  0  1  0  0  0  0  0  0  0  0  0
   11.8808  -18.9864   23.5278 O   0  0  0  0  0  0  0  0  0  0  0  0
   12.1319  -16.6805   23.7601 C   0  0  2  0  0  0  0  0  0  0  0  0
   10.9486  -16.5221   22.9915 N   0  0  0  0  0  0  0  0  0  0  0  0
   13.3542  -16.4884   22.9197 C   0  0  0  0  0  0  0  0  0  0  0  0
   13.2769  -16.3796   21.6694 O   0  0  0  0  0  0  0  0  0  0  0  0
   14.6074  -16.4252   23.5008 O   0  0  0  0  0  0  0  0  0  0  0  0
  2  1  1  1
  2  3  1  0
  3  4  1  0
  4  9  2  0
  5  4  1  0
  5  6  2  0
  6  7  1  0
  7  8  2  0
  9  8  1  0
 10 17  1  0
 10  2  1  0
 11 10  2  0
 13 12  1  6
 13 15  1  0
 14 13  1  0
 16 15  1  1
 16 17  1  0
 18 16  1  0
 19 18  2  0
 21 20  1  1
 21 23  1  0
 21 22  1  0
 23 25  1  0
 23 24  1  6
 24 18  1  0
 25 27  1  0
 26 25  2  0
M  END
$$$$
