FLT.pdb
     RDKit          3D

 27 27  0  0  1  0  0  0  0  0999 V2000
   10.4745  -17.3993   21.2006 N   0  0  0  0  0  0  0  0  0  0  0  0
    9.6060  -16.2967   21.4782 C   0  0  1  0  0  0  0  0  0  0  0  0
    8.3209  -16.4465   20.6879 C   0  0  0  0  0  0  0  0  0  0  0  0
    7.9229  -15.1024   20.2278 C   0  0  0  0  0  0  0  0  0  0  0  0
    8.8158  -14.2984   19.5534 C   0  0  0  0  0  0  0  0  0  0  0  0
    8.4364  -13.0460   19.1277 C   0  0  0  0  0  0  0  0  0  0  0  0
    7.1573  -12.5847   19.3731 C   0  0  0  0  0  0  0  0  0  0  0  0
    6.2528  -13.3765   20.0461 C   0  0  0  0  0  0  0  0  0  0  0  0
    6.6517  -14.6464   20.4727 C   0  0  0  0  0  0  0  0  0  0  0  0
    9.3379  -16.1387   22.9339 C   0  0  0  0  0  0  0  0  0  0  0  0
    9.9654  -16.9258   23.7153 O   0  0  0  0  0  0  0  0  0  0  0  0
    5.9977  -12.1646   26.2082 C   0  0  0  0  0  0  0  0  0  0  0  0
    7.0947  -13.2345   26.3097 C   0  0  2  0  0  0  0  0  0  0  0  0
    8.2772  -12.5992   26.9769 C   0  0  0  0  0  0  0  0  0  0  0  0
    7.3618  -13.7008   24.9246 C   0  0  0  0  0  0  0  0  0  0  0  0
    8.3474  -14.8312   24.8117 C   0  0  2  0  0  0  0  0  0  0  0  0
    8.4359  -15.1674   23.4139 N   0  0  0  0  0  0  0  0  0  0  0  0
    7.9344  -16.0403   25.5700 C   0  0  0  0  0  0  0  0  0  0  0  0
    6.7118  -16.3094   25.6743 O   0  0  0  0  0  0  0  0  0  0  0  0
    7.6542  -19.5101   25.0503 C   0  0  0  0  0  0  0  0  0  0  0  0
    8.5454  -19.3650   26.2438 C   0  0  1  0  0  0  0  0  0  0  0  0
    9.8732  -19.4517   25.7855 O   0  0  0  0  0  0  0  0  0  0  0  0
    8.4142  -18.0495   26.9427 C   0  0  2  0  0  0  0  0  0  0  0  0
    8.8398  -16.9220   26.1919 N   0  0  0  0  0  0  0  0  0  0  0  0
    9.1603  -18.1536   28.2348 C   0  0  0  0  0  0  0  0  0  0  0  0
   10.1060  -17.3712   28.5080 O   0  0  0  0  0  0  0  0  0  0  0  0
    8.8264  -19.1190   29.1668 O   0  0  0  0  0  0  0  0  0  0  0  0
  2  1  1  1
  2  3  1  0
  3  4  1  0
  4  9  2  0
  5  4  1  0
  5  6  2  0
  6  7  1  0
  7  8  2  0
  9  8  1  0
 10 17  1  0
 10  2  1  0
 11 10  2  0
 13 12  1  6
 13 15  1  0
 14 13  1  0
 16 15  1  6
 16 17  1  0
 18 16  1  0
 19 18  2  0
 21 20  1  6
 21 23  1  0
 21 22  1  0
 23 25  1  0
 23 24  1  6
 24 18  1  0
 25 27  1  0
 26 25  2  0
M  END
$$$$
