FLT.pdb
     RDKit          3D

 27 27  0  0  1  0  0  0  0  0999 V2000
    6.1830  -16.8504   21.0040 N   0  0  0  0  0  0  0  0  0  0  0  0
    5.9580  -16.8667   22.4169 C   0  0  1  0  0  0  0  0  0  0  0  0
    5.6684  -18.2836   22.8721 C   0  0  0  0  0  0  0  0  0  0  0  0
    4.3516  -18.6651   22.3268 C   0  0  0  0  0  0  0  0  0  0  0  0
    4.2555  -19.3227   21.1198 C   0  0  0  0  0  0  0  0  0  0  0  0
    3.0233  -19.6748   20.6183 C   0  0  0  0  0  0  0  0  0  0  0  0
    1.8728  -19.3719   21.3210 C   0  0  0  0  0  0  0  0  0  0  0  0
    1.9521  -18.7148   22.5292 C   0  0  0  0  0  0  0  0  0  0  0  0
    3.2101  -18.3631   23.0266 C   0  0  0  0  0  0  0  0  0  0  0  0
    7.0886  -16.2679   23.1780 C   0  0  0  0  0  0  0  0  0  0  0  0
    8.2378  -16.3316   22.6311 O   0  0  0  0  0  0  0  0  0  0  0  0
    7.6571  -12.2884   24.8783 C   0  0  0  0  0  0  0  0  0  0  0  0
    6.6562  -13.1214   25.6924 C   0  0  2  0  0  0  0  0  0  0  0  0
    6.0547  -12.2138   26.7229 C   0  0  0  0  0  0  0  0  0  0  0  0
    7.4186  -14.2614   26.2635 C   0  0  0  0  0  0  0  0  0  0  0  0
    7.9891  -15.2170   25.2519 C   0  0  2  0  0  0  0  0  0  0  0  0
    6.8894  -15.6643   24.4363 N   0  0  0  0  0  0  0  0  0  0  0  0
    8.6382  -16.4008   25.8723 C   0  0  0  0  0  0  0  0  0  0  0  0
    8.0028  -17.0712   26.7237 O   0  0  0  0  0  0  0  0  0  0  0  0
   10.1786  -19.5135   24.1139 C   0  0  0  0  0  0  0  0  0  0  0  0
   11.1401  -18.9306   25.1014 C   0  0  1  0  0  0  0  0  0  0  0  0
   12.0655  -18.1574   24.3757 O   0  0  0  0  0  0  0  0  0  0  0  0
   10.5044  -18.0183   26.1014 C   0  0  2  0  0  0  0  0  0  0  0  0
    9.9437  -16.8298   25.5635 N   0  0  0  0  0  0  0  0  0  0  0  0
   11.5332  -17.7096   27.1422 C   0  0  0  0  0  0  0  0  0  0  0  0
   11.9056  -16.5291   27.3629 O   0  0  0  0  0  0  0  0  0  0  0  0
   12.1039  -18.7215   27.8922 O   0  0  0  0  0  0  0  0  0  0  0  0
  2  1  1  6
  2  3  1  0
  3  4  1  0
  4  9  2  0
  5  4  1  0
  5  6  2  0
  6  7  1  0
  7  8  2  0
  9  8  1  0
 10 17  1  0
 10  2  1  0
 11 10  2  0
 13 12  1  6
 13 15  1  0
 14 13  1  0
 16 15  1  1
 16 17  1  0
 18 16  1  0
 19 18  2  0
 21 20  1  6
 21 23  1  0
 21 22  1  0
 23 25  1  0
 23 24  1  6
 24 18  1  0
 25 27  1  0
 26 25  2  0
M  END
$$$$
