FLT.pdb
     RDKit          3D

 27 27  0  0  1  0  0  0  0  0999 V2000
    5.8654  -17.7767   25.0840 N   0  0  0  0  0  0  0  0  0  0  0  0
    6.5947  -16.5660   24.8619 C   0  0  1  0  0  0  0  0  0  0  0  0
    7.3118  -16.1604   26.1347 C   0  0  0  0  0  0  0  0  0  0  0  0
    7.1482  -14.7025   26.2916 C   0  0  0  0  0  0  0  0  0  0  0  0
    5.9454  -14.0960   26.0018 C   0  0  0  0  0  0  0  0  0  0  0  0
    5.8013  -12.7356   26.1509 C   0  0  0  0  0  0  0  0  0  0  0  0
    6.8613  -11.9671   26.5923 C   0  0  0  0  0  0  0  0  0  0  0  0
    8.0703  -12.5585   26.8862 C   0  0  0  0  0  0  0  0  0  0  0  0
    8.2026  -13.9412   26.7302 C   0  0  0  0  0  0  0  0  0  0  0  0
    7.5362  -16.6737   23.7139 C   0  0  0  0  0  0  0  0  0  0  0  0
    7.9040  -17.8500   23.3900 O   0  0  0  0  0  0  0  0  0  0  0  0
    6.5933  -14.3877   20.2606 C   0  0  0  0  0  0  0  0  0  0  0  0
    7.5028  -13.6112   21.2241 C   0  0  2  0  0  0  0  0  0  0  0  0
    7.5374  -12.1877   20.7553 C   0  0  0  0  0  0  0  0  0  0  0  0
    8.8252  -14.2877   21.1971 C   0  0  0  0  0  0  0  0  0  0  0  0
    8.8732  -15.6209   21.8916 C   0  0  2  0  0  0  0  0  0  0  0  0
    7.9918  -15.5299   23.0273 N   0  0  0  0  0  0  0  0  0  0  0  0
   10.2339  -15.9790   22.3686 C   0  0  0  0  0  0  0  0  0  0  0  0
   11.1888  -15.9772   21.5524 O   0  0  0  0  0  0  0  0  0  0  0  0
   12.0684  -15.0797   26.0145 C   0  0  0  0  0  0  0  0  0  0  0  0
   12.1160  -16.5093   25.5745 C   0  0  1  0  0  0  0  0  0  0  0  0
   11.1112  -17.1965   26.2808 O   0  0  0  0  0  0  0  0  0  0  0  0
   11.8334  -16.7060   24.1193 C   0  0  2  0  0  0  0  0  0  0  0  0
   10.5305  -16.3272   23.7008 N   0  0  0  0  0  0  0  0  0  0  0  0
   12.1094  -18.1410   23.8005 C   0  0  0  0  0  0  0  0  0  0  0  0
   11.2017  -18.9035   23.3813 O   0  0  0  0  0  0  0  0  0  0  0  0
   13.3779  -18.6680   23.9599 O   0  0  0  0  0  0  0  0  0  0  0  0
  2  1  1  1
  2  3  1  0
  3  4  1  0
  4  9  2  0
  5  4  1  0
  5  6  2  0
  6  7  1  0
  7  8  2  0
  9  8  1  0
 10 17  1  0
 10  2  1  0
 11 10  2  0
 13 12  1  6
 13 15  1  0
 14 13  1  0
 16 15  1  1
 16 17  1  0
 18 16  1  0
 19 18  2  0
 21 20  1  6
 21 23  1  0
 21 22  1  0
 23 25  1  0
 23 24  1  1
 24 18  1  0
 25 27  1  0
 26 25  2  0
M  END
$$$$
