FLT.pdb
     RDKit          3D

 27 27  0  0  1  0  0  0  0  0999 V2000
    5.8369  -18.2786   24.9383 N   0  0  0  0  0  0  0  0  0  0  0  0
    6.2828  -16.9196   24.9765 C   0  0  1  0  0  0  0  0  0  0  0  0
    6.8975  -16.6211   26.3300 C   0  0  0  0  0  0  0  0  0  0  0  0
    6.9745  -15.1543   26.4692 C   0  0  0  0  0  0  0  0  0  0  0  0
    8.1672  -14.5409   26.7847 C   0  0  0  0  0  0  0  0  0  0  0  0
    8.2303  -13.1722   26.9127 C   0  0  0  0  0  0  0  0  0  0  0  0
    7.0983  -12.4022   26.7259 C   0  0  0  0  0  0  0  0  0  0  0  0
    5.8982  -13.0005   26.4101 C   0  0  0  0  0  0  0  0  0  0  0  0
    5.8487  -14.3916   26.2832 C   0  0  0  0  0  0  0  0  0  0  0  0
    7.2218  -16.5996   23.8666 C   0  0  0  0  0  0  0  0  0  0  0  0
    7.9586  -17.5538   23.4537 O   0  0  0  0  0  0  0  0  0  0  0  0
    8.0394  -11.6744   20.3043 C   0  0  0  0  0  0  0  0  0  0  0  0
    8.3369  -13.1756   20.4329 C   0  0  2  0  0  0  0  0  0  0  0  0
    7.7918  -13.8450   19.2074 C   0  0  0  0  0  0  0  0  0  0  0  0
    7.7037  -13.6265   21.6989 C   0  0  0  0  0  0  0  0  0  0  0  0
    8.0658  -15.0209   22.1311 C   0  0  2  0  0  0  0  0  0  0  0  0
    7.2858  -15.3070   23.3078 N   0  0  0  0  0  0  0  0  0  0  0  0
    9.5062  -15.1708   22.4629 C   0  0  0  0  0  0  0  0  0  0  0  0
   10.3685  -14.7864   21.6342 O   0  0  0  0  0  0  0  0  0  0  0  0
   11.3163  -14.6798   26.1777 C   0  0  0  0  0  0  0  0  0  0  0  0
   11.7023  -15.9086   25.4155 C   0  0  1  0  0  0  0  0  0  0  0  0
   10.9758  -16.9831   25.9615 O   0  0  0  0  0  0  0  0  0  0  0  0
   11.3625  -15.8517   23.9603 C   0  0  2  0  0  0  0  0  0  0  0  0
    9.9787  -15.7261   23.6681 N   0  0  0  0  0  0  0  0  0  0  0  0
   11.9438  -17.0708   23.3178 C   0  0  0  0  0  0  0  0  0  0  0  0
   11.2091  -17.9475   22.7956 O   0  0  0  0  0  0  0  0  0  0  0  0
   13.3125  -17.2651   23.2819 O   0  0  0  0  0  0  0  0  0  0  0  0
  2  1  1  1
  2  3  1  0
  3  4  1  0
  4  9  2  0
  5  4  1  0
  5  6  2  0
  6  7  1  0
  7  8  2  0
  9  8  1  0
 10 17  1  0
 10  2  1  0
 11 10  2  0
 13 12  1  6
 13 15  1  0
 14 13  1  0
 16 15  1  1
 16 17  1  0
 18 16  1  0
 19 18  2  0
 21 20  1  1
 21 23  1  0
 21 22  1  0
 23 25  1  0
 23 24  1  1
 24 18  1  0
 25 27  1  0
 26 25  2  0
M  END
$$$$
