FLT.pdb
     RDKit          3D

 27 27  0  0  1  0  0  0  0  0999 V2000
    5.7128  -17.9188   25.4729 N   0  0  0  0  0  0  0  0  0  0  0  0
    6.2312  -16.5862   25.4228 C   0  0  1  0  0  0  0  0  0  0  0  0
    6.8108  -16.2120   26.7730 C   0  0  0  0  0  0  0  0  0  0  0  0
    7.0018  -14.7491   26.7845 C   0  0  0  0  0  0  0  0  0  0  0  0
    8.2684  -14.2066   26.7823 C   0  0  0  0  0  0  0  0  0  0  0  0
    8.4377  -12.8410   26.7931 C   0  0  0  0  0  0  0  0  0  0  0  0
    7.3392  -12.0030   26.8062 C   0  0  0  0  0  0  0  0  0  0  0  0
    6.0663  -12.5299   26.8085 C   0  0  0  0  0  0  0  0  0  0  0  0
    5.9091  -13.9187   26.7974 C   0  0  0  0  0  0  0  0  0  0  0  0
    7.2269  -16.4059   24.3310 C   0  0  0  0  0  0  0  0  0  0  0  0
    8.1011  -17.3241   24.2028 O   0  0  0  0  0  0  0  0  0  0  0  0
    8.0137  -12.1837   19.9454 C   0  0  0  0  0  0  0  0  0  0  0  0
    8.3949  -13.6049   20.3854 C   0  0  2  0  0  0  0  0  0  0  0  0
    7.9207  -14.5446   19.3180 C   0  0  0  0  0  0  0  0  0  0  0  0
    7.7574  -13.8243   21.7092 C   0  0  0  0  0  0  0  0  0  0  0  0
    8.0907  -15.1348   22.3676 C   0  0  2  0  0  0  0  0  0  0  0  0
    7.1969  -15.2762   23.4882 N   0  0  0  0  0  0  0  0  0  0  0  0
    9.4908  -15.1980   22.8606 C   0  0  0  0  0  0  0  0  0  0  0  0
    9.8817  -14.3525   23.7035 O   0  0  0  0  0  0  0  0  0  0  0  0
   11.4444  -17.5155   25.0808 C   0  0  0  0  0  0  0  0  0  0  0  0
   12.0753  -17.4595   23.7249 C   0  0  1  0  0  0  0  0  0  0  0  0
   11.5694  -18.5442   22.9846 O   0  0  0  0  0  0  0  0  0  0  0  0
   11.7487  -16.2202   22.9543 C   0  0  2  0  0  0  0  0  0  0  0  0
   10.4275  -16.1613   22.4377 N   0  0  0  0  0  0  0  0  0  0  0  0
   12.7637  -16.0918   21.8634 C   0  0  0  0  0  0  0  0  0  0  0  0
   13.9731  -15.8625   22.1199 O   0  0  0  0  0  0  0  0  0  0  0  0
   12.3947  -16.2229   20.5372 O   0  0  0  0  0  0  0  0  0  0  0  0
  2  1  1  1
  2  3  1  0
  3  4  1  0
  4  9  2  0
  5  4  1  0
  5  6  2  0
  6  7  1  0
  7  8  2  0
  9  8  1  0
 10 17  1  0
 10  2  1  0
 11 10  2  0
 13 12  1  6
 13 15  1  0
 14 13  1  0
 16 15  1  1
 16 17  1  0
 18 16  1  0
 19 18  2  0
 21 20  1  1
 21 23  1  0
 21 22  1  0
 23 25  1  0
 23 24  1  6
 24 18  1  0
 25 27  1  0
 26 25  2  0
M  END
$$$$
