FLT.pdb
     RDKit          3D

 27 27  0  0  1  0  0  0  0  0999 V2000
   11.0438  -16.8906   21.2156 N   0  0  0  0  0  0  0  0  0  0  0  0
    9.9949  -15.9667   21.5215 C   0  0  1  0  0  0  0  0  0  0  0  0
    8.7462  -16.3355   20.7446 C   0  0  0  0  0  0  0  0  0  0  0  0
    8.0125  -15.0866   20.4640 C   0  0  0  0  0  0  0  0  0  0  0  0
    6.7069  -14.9320   20.8763 C   0  0  0  0  0  0  0  0  0  0  0  0
    6.0297  -13.7638   20.6106 C   0  0  0  0  0  0  0  0  0  0  0  0
    6.6534  -12.7369   19.9283 C   0  0  0  0  0  0  0  0  0  0  0  0
    7.9583  -12.8761   19.5094 C   0  0  0  0  0  0  0  0  0  0  0  0
    8.6341  -14.0679   19.7861 C   0  0  0  0  0  0  0  0  0  0  0  0
    9.7244  -15.8795   22.9827 C   0  0  0  0  0  0  0  0  0  0  0  0
   10.3941  -16.6634   23.7316 O   0  0  0  0  0  0  0  0  0  0  0  0
    5.9277  -12.5317   26.4422 C   0  0  0  0  0  0  0  0  0  0  0  0
    7.1784  -13.4214   26.4924 C   0  0  2  0  0  0  0  0  0  0  0  0
    8.2376  -12.6607   27.2318 C   0  0  0  0  0  0  0  0  0  0  0  0
    7.5327  -13.7350   25.0841 C   0  0  0  0  0  0  0  0  0  0  0  0
    8.6601  -14.7158   24.9139 C   0  0  2  0  0  0  0  0  0  0  0  0
    8.7759  -14.9749   23.5018 N   0  0  0  0  0  0  0  0  0  0  0  0
    8.4231  -16.0018   25.6192 C   0  0  0  0  0  0  0  0  0  0  0  0
    7.2645  -16.4873   25.6340 O   0  0  0  0  0  0  0  0  0  0  0  0
    8.9698  -19.4473   24.9320 C   0  0  0  0  0  0  0  0  0  0  0  0
    9.6723  -19.1757   26.2252 C   0  0  1  0  0  0  0  0  0  0  0  0
   11.0274  -18.9453   25.9232 O   0  0  0  0  0  0  0  0  0  0  0  0
    9.1762  -17.9603   26.9416 C   0  0  2  0  0  0  0  0  0  0  0  0
    9.4302  -16.7271   26.2852 N   0  0  0  0  0  0  0  0  0  0  0  0
    9.7707  -17.9767   28.3139 C   0  0  0  0  0  0  0  0  0  0  0  0
   10.5181  -17.0477   28.7133 O   0  0  0  0  0  0  0  0  0  0  0  0
    9.5114  -19.0206   29.1829 O   0  0  0  0  0  0  0  0  0  0  0  0
  2  1  1  1
  2  3  1  0
  3  4  1  0
  4  9  2  0
  5  4  1  0
  5  6  2  0
  6  7  1  0
  7  8  2  0
  9  8  1  0
 10 17  1  0
 10  2  1  0
 11 10  2  0
 13 12  1  6
 13 15  1  0
 14 13  1  0
 16 15  1  6
 16 17  1  0
 18 16  1  0
 19 18  2  0
 21 20  1  6
 21 23  1  0
 21 22  1  0
 23 25  1  0
 23 24  1  6
 24 18  1  0
 25 27  1  0
 26 25  2  0
M  END
$$$$
