KEF.pdb
     RDKit          3D

 30 30  0  0  1  0  0  0  0  0999 V2000
    6.0528  -16.3263   20.8898 N   0  0  0  0  0  0  0  0  0  0  0  0
    7.2634  -15.6405   21.1418 C   0  0  1  0  0  0  0  0  0  0  0  0
    7.1306  -14.1520   21.4164 C   0  0  0  0  0  0  0  0  0  0  0  0
    7.7748  -13.2757   20.4106 C   0  0  0  0  0  0  0  0  0  0  0  0
    7.6104  -13.6065   18.9792 C   0  0  0  0  0  0  0  0  0  0  0  0
    8.4167  -12.7074   18.0875 C   0  0  0  0  0  0  0  0  0  0  0  0
    8.3599  -13.0958   16.7294 N   0  0  0  0  0  0  0  0  0  0  0  0
    8.1220  -16.2599   22.1991 C   0  0  0  0  0  0  0  0  0  0  0  0
    7.5363  -16.8478   23.1524 O   0  0  0  0  0  0  0  0  0  0  0  0
    9.5205  -16.2470   22.2278 N   0  0  0  0  0  0  0  0  0  0  0  0
   10.2837  -16.9711   23.2778 C   0  0  1  0  0  0  0  0  0  0  0  0
   11.6511  -17.0758   22.6932 C   0  0  0  0  0  0  0  0  0  0  0  0
   12.7507  -17.6267   23.4892 C   0  0  0  0  0  0  0  0  0  0  0  0
   14.0288  -17.6253   22.7473 C   0  0  0  0  0  0  0  0  0  0  0  0
   14.9236  -16.7266   22.9355 O   0  0  0  0  0  0  0  0  0  0  0  0
   10.1322  -16.3228   24.5772 C   0  0  0  0  0  0  0  0  0  0  0  0
   10.3045  -15.0792   24.6464 O   0  0  0  0  0  0  0  0  0  0  0  0
   14.3612  -18.5915   21.7975 O   0  0  0  0  0  0  0  0  0  0  0  0
    9.8025  -16.9931   25.7745 N   0  0  0  0  0  0  0  0  0  0  0  0
    9.5796  -16.3045   27.0203 C   0  0  1  0  0  0  0  0  0  0  0  0
    8.0941  -16.1362   27.2968 C   0  0  0  0  0  0  0  0  0  0  0  0
    7.5553  -14.8587   26.7563 C   0  0  0  0  0  0  0  0  0  0  0  0
    8.0835  -13.6327   27.1007 C   0  0  0  0  0  0  0  0  0  0  0  0
    7.5606  -12.4840   26.5539 C   0  0  0  0  0  0  0  0  0  0  0  0
    6.5061  -12.4855   25.6536 C   0  0  0  0  0  0  0  0  0  0  0  0
    6.0070  -13.7424   25.3372 C   0  0  0  0  0  0  0  0  0  0  0  0
    6.5086  -14.8981   25.8665 C   0  0  0  0  0  0  0  0  0  0  0  0
   10.3097  -16.9966   28.0816 C   0  0  0  0  0  0  0  0  0  0  0  0
   10.5175  -16.5031   29.3514 O   0  0  0  0  0  0  0  0  0  0  0  0
   10.7887  -18.1440   27.8050 O   0  0  0  0  0  0  0  0  0  0  0  0
  2  1  1  1
  2  3  1  0
  4  5  1  0
  4  3  1  0
  6  5  1  0
  7  6  1  0
  8  9  2  0
  8  2  1  0
 10  8  1  0
 11 10  1  0
 11 12  1  6
 13 12  1  0
 13 14  1  0
 14 15  2  0
 16 11  1  0
 16 19  1  0
 17 16  2  0
 18 14  1  0
 20 19  1  0
 20 28  1  0
 20 21  1  1
 21 22  1  0
 22 27  2  0
 23 22  1  0
 23 24  2  0
 24 25  1  0
 25 26  2  0
 27 26  1  0
 28 29  1  0
 30 28  2  0
M  END
$$$$
