KEF.pdb
     RDKit          3D

 30 30  0  0  1  0  0  0  0  0999 V2000
    5.8340  -16.6622   21.2731 N   0  0  0  0  0  0  0  0  0  0  0  0
    7.1793  -16.2412   21.3835 C   0  0  1  0  0  0  0  0  0  0  0  0
    7.4049  -14.7397   21.3257 C   0  0  0  0  0  0  0  0  0  0  0  0
    7.5187  -14.1815   19.9583 C   0  0  0  0  0  0  0  0  0  0  0  0
    7.7956  -12.7371   19.8076 C   0  0  0  0  0  0  0  0  0  0  0  0
    7.8507  -12.3118   18.3689 C   0  0  0  0  0  0  0  0  0  0  0  0
    8.1169  -10.9314   18.2201 N   0  0  0  0  0  0  0  0  0  0  0  0
    7.9136  -16.8030   22.5599 C   0  0  0  0  0  0  0  0  0  0  0  0
    7.2359  -17.0767   23.5910 O   0  0  0  0  0  0  0  0  0  0  0  0
    9.2885  -17.0536   22.6219 N   0  0  0  0  0  0  0  0  0  0  0  0
    9.9115  -17.6818   23.8162 C   0  0  1  0  0  0  0  0  0  0  0  0
   11.1778  -18.2552   23.2772 C   0  0  0  0  0  0  0  0  0  0  0  0
   12.1219  -18.9252   24.1749 C   0  0  0  0  0  0  0  0  0  0  0  0
   13.2878  -19.4704   23.4486 C   0  0  0  0  0  0  0  0  0  0  0  0
   14.3501  -18.7801   23.2514 O   0  0  0  0  0  0  0  0  0  0  0  0
    9.9949  -16.7342   24.9237 C   0  0  0  0  0  0  0  0  0  0  0  0
   10.4930  -15.6011   24.7023 O   0  0  0  0  0  0  0  0  0  0  0  0
   13.3266  -20.7645   22.9291 O   0  0  0  0  0  0  0  0  0  0  0  0
    9.5532  -16.9957   26.2383 N   0  0  0  0  0  0  0  0  0  0  0  0
    9.7762  -16.0867   27.3336 C   0  0  1  0  0  0  0  0  0  0  0  0
    8.4817  -15.4139   27.7614 C   0  0  0  0  0  0  0  0  0  0  0  0
    8.1971  -14.1788   26.9818 C   0  0  0  0  0  0  0  0  0  0  0  0
    9.0451  -13.0919   26.9889 C   0  0  0  0  0  0  0  0  0  0  0  0
    8.7440  -11.9836   26.2320 C   0  0  0  0  0  0  0  0  0  0  0  0
    7.6085  -11.8918   25.4417 C   0  0  0  0  0  0  0  0  0  0  0  0
    6.7847  -13.0097   25.4666 C   0  0  0  0  0  0  0  0  0  0  0  0
    7.0612  -14.1226   26.2099 C   0  0  0  0  0  0  0  0  0  0  0  0
   10.4620  -16.8007   28.4099 C   0  0  0  0  0  0  0  0  0  0  0  0
   10.9943  -16.2124   29.5367 O   0  0  0  0  0  0  0  0  0  0  0  0
   10.5732  -18.0640   28.2910 O   0  0  0  0  0  0  0  0  0  0  0  0
  2  1  1  1
  2  3  1  0
  4  5  1  0
  4  3  1  0
  6  5  1  0
  7  6  1  0
  8  9  2  0
  8  2  1  0
 10  8  1  0
 11 10  1  0
 11 12  1  6
 13 12  1  0
 13 14  1  0
 14 15  2  0
 16 11  1  0
 16 19  1  0
 17 16  2  0
 18 14  1  0
 20 19  1  0
 20 28  1  0
 20 21  1  1
 21 22  1  0
 22 27  2  0
 23 22  1  0
 23 24  2  0
 24 25  1  0
 25 26  2  0
 27 26  1  0
 28 29  1  0
 30 28  2  0
M  END
$$$$
