KEF.pdb
     RDKit          3D

 30 30  0  0  1  0  0  0  0  0999 V2000
    6.8813  -16.9058   20.4605 N   0  0  0  0  0  0  0  0  0  0  0  0
    7.8044  -15.9897   21.0152 C   0  0  1  0  0  0  0  0  0  0  0  0
    7.2421  -14.6230   21.3688 C   0  0  0  0  0  0  0  0  0  0  0  0
    7.5322  -13.5582   20.3807 C   0  0  0  0  0  0  0  0  0  0  0  0
    7.5609  -13.9165   18.9467 C   0  0  0  0  0  0  0  0  0  0  0  0
    7.8862  -12.7424   18.0696 C   0  0  0  0  0  0  0  0  0  0  0  0
    8.0045  -13.0984   16.7066 N   0  0  0  0  0  0  0  0  0  0  0  0
    8.5821  -16.5166   22.1798 C   0  0  0  0  0  0  0  0  0  0  0  0
    7.9457  -17.1674   23.0567 O   0  0  0  0  0  0  0  0  0  0  0  0
    9.9559  -16.3533   22.3866 N   0  0  0  0  0  0  0  0  0  0  0  0
   10.6659  -17.0562   23.4871 C   0  0  1  0  0  0  0  0  0  0  0  0
   12.0542  -17.1955   22.9619 C   0  0  0  0  0  0  0  0  0  0  0  0
   12.3361  -18.1279   21.8678 C   0  0  0  0  0  0  0  0  0  0  0  0
   13.5854  -17.7873   21.1555 C   0  0  0  0  0  0  0  0  0  0  0  0
   14.6100  -17.3169   21.7659 O   0  0  0  0  0  0  0  0  0  0  0  0
   10.4711  -16.3685   24.7602 C   0  0  0  0  0  0  0  0  0  0  0  0
   10.9201  -15.2003   24.8811 O   0  0  0  0  0  0  0  0  0  0  0  0
   13.7488  -17.9518   19.7799 O   0  0  0  0  0  0  0  0  0  0  0  0
    9.8093  -16.9211   25.8774 N   0  0  0  0  0  0  0  0  0  0  0  0
    9.7854  -16.2806   27.1677 C   0  0  1  0  0  0  0  0  0  0  0  0
    8.3914  -15.7763   27.5051 C   0  0  0  0  0  0  0  0  0  0  0  0
    8.1964  -14.3490   27.1318 C   0  0  0  0  0  0  0  0  0  0  0  0
    9.0746  -13.3598   27.5201 C   0  0  0  0  0  0  0  0  0  0  0  0
    8.8578  -12.0593   27.1283 C   0  0  0  0  0  0  0  0  0  0  0  0
    7.7802  -11.6736   26.3457 C   0  0  0  0  0  0  0  0  0  0  0  0
    6.9231  -12.7034   25.9795 C   0  0  0  0  0  0  0  0  0  0  0  0
    7.1162  -14.0028   26.3557 C   0  0  0  0  0  0  0  0  0  0  0  0
   10.3459  -17.1956   28.1614 C   0  0  0  0  0  0  0  0  0  0  0  0
   10.6779  -16.8534   29.4544 O   0  0  0  0  0  0  0  0  0  0  0  0
   10.5404  -18.4007   27.7977 O   0  0  0  0  0  0  0  0  0  0  0  0
  2  1  1  1
  2  3  1  0
  4  5  1  0
  4  3  1  0
  6  5  1  0
  7  6  1  0
  8  9  2  0
  8  2  1  0
 10  8  1  0
 11 10  1  0
 11 12  1  6
 13 12  1  0
 13 14  1  0
 14 15  2  0
 16 11  1  0
 16 19  1  0
 17 16  2  0
 18 14  1  0
 20 19  1  0
 20 28  1  0
 20 21  1  1
 21 22  1  0
 22 27  2  0
 23 22  1  0
 23 24  2  0
 24 25  1  0
 25 26  2  0
 27 26  1  0
 28 29  1  0
 30 28  2  0
M  END
$$$$
