KEF.pdb
     RDKit          3D

 30 30  0  0  1  0  0  0  0  0999 V2000
    8.7027  -17.5298   19.4634 N   0  0  0  0  0  0  0  0  0  0  0  0
    9.5914  -16.5633   19.9881 C   0  0  1  0  0  0  0  0  0  0  0  0
    9.1120  -15.1231   19.9182 C   0  0  0  0  0  0  0  0  0  0  0  0
    8.2624  -14.8081   18.7463 C   0  0  0  0  0  0  0  0  0  0  0  0
    7.7232  -13.4380   18.6149 C   0  0  0  0  0  0  0  0  0  0  0  0
    6.8860  -13.2682   17.3804 C   0  0  0  0  0  0  0  0  0  0  0  0
    6.3181  -11.9773   17.2820 N   0  0  0  0  0  0  0  0  0  0  0  0
   10.0789  -16.8517   21.3730 C   0  0  0  0  0  0  0  0  0  0  0  0
    9.2775  -17.4275   22.1627 O   0  0  0  0  0  0  0  0  0  0  0  0
   11.3469  -16.5402   21.8748 N   0  0  0  0  0  0  0  0  0  0  0  0
   11.7656  -16.9512   23.2404 C   0  0  1  0  0  0  0  0  0  0  0  0
   13.2426  -16.7497   23.2185 C   0  0  0  0  0  0  0  0  0  0  0  0
   14.0219  -16.8890   24.4511 C   0  0  0  0  0  0  0  0  0  0  0  0
   15.4587  -16.6199   24.2336 C   0  0  0  0  0  0  0  0  0  0  0  0
   16.0205  -15.5459   24.6517 O   0  0  0  0  0  0  0  0  0  0  0  0
   10.9853  -16.2555   24.2597 C   0  0  0  0  0  0  0  0  0  0  0  0
   10.7980  -15.0194   24.1261 O   0  0  0  0  0  0  0  0  0  0  0  0
   16.3084  -17.5033   23.5676 O   0  0  0  0  0  0  0  0  0  0  0  0
   10.4183  -16.8720   25.3954 N   0  0  0  0  0  0  0  0  0  0  0  0
    9.6344  -16.1521   26.3665 C   0  0  1  0  0  0  0  0  0  0  0  0
    8.1863  -16.0276   25.9204 C   0  0  0  0  0  0  0  0  0  0  0  0
    7.6572  -14.6462   26.0824 C   0  0  0  0  0  0  0  0  0  0  0  0
    8.0293  -13.8337   27.1321 C   0  0  0  0  0  0  0  0  0  0  0  0
    7.5261  -12.5567   27.2212 C   0  0  0  0  0  0  0  0  0  0  0  0
    6.6435  -12.0239   26.2941 C   0  0  0  0  0  0  0  0  0  0  0  0
    6.2973  -12.8787   25.2555 C   0  0  0  0  0  0  0  0  0  0  0  0
    6.7831  -14.1511   25.1444 C   0  0  0  0  0  0  0  0  0  0  0  0
    9.8039  -16.7834   27.6746 C   0  0  0  0  0  0  0  0  0  0  0  0
   10.1075  -16.1170   28.8420 O   0  0  0  0  0  0  0  0  0  0  0  0
    9.6588  -18.0475   27.7332 O   0  0  0  0  0  0  0  0  0  0  0  0
  2  1  1  1
  2  3  1  0
  4  5  1  0
  4  3  1  0
  6  5  1  0
  7  6  1  0
  8  9  2  0
  8  2  1  0
 10  8  1  0
 11 10  1  0
 11 12  1  1
 13 12  1  0
 13 14  1  0
 14 15  2  0
 16 11  1  0
 16 19  1  0
 17 16  2  0
 18 14  1  0
 20 19  1  0
 20 28  1  0
 20 21  1  6
 21 22  1  0
 22 27  2  0
 23 22  1  0
 23 24  2  0
 24 25  1  0
 25 26  2  0
 27 26  1  0
 28 29  1  0
 30 28  2  0
M  END
$$$$
