KEF.pdb
     RDKit          3D

 30 30  0  0  1  0  0  0  0  0999 V2000
    9.5808  -16.5508   18.3629 N   0  0  0  0  0  0  0  0  0  0  0  0
    9.6307  -15.7021   19.4927 C   0  0  1  0  0  0  0  0  0  0  0  0
    8.4805  -14.7182   19.6268 C   0  0  0  0  0  0  0  0  0  0  0  0
    7.7611  -14.4290   18.3646 C   0  0  0  0  0  0  0  0  0  0  0  0
    8.0490  -13.1592   17.6645 C   0  0  0  0  0  0  0  0  0  0  0  0
    7.1585  -12.9468   16.4747 C   0  0  0  0  0  0  0  0  0  0  0  0
    7.2248  -14.0130   15.5489 N   0  0  0  0  0  0  0  0  0  0  0  0
    9.8252  -16.4105   20.7962 C   0  0  0  0  0  0  0  0  0  0  0  0
    8.8309  -16.4803   21.5733 O   0  0  0  0  0  0  0  0  0  0  0  0
   11.0132  -17.0049   21.2344 N   0  0  0  0  0  0  0  0  0  0  0  0
   11.1470  -17.5550   22.6086 C   0  0  1  0  0  0  0  0  0  0  0  0
   12.4931  -18.1954   22.5892 C   0  0  0  0  0  0  0  0  0  0  0  0
   13.0771  -18.7167   23.8274 C   0  0  0  0  0  0  0  0  0  0  0  0
   14.4119  -19.3109   23.6051 C   0  0  0  0  0  0  0  0  0  0  0  0
   14.5698  -20.4052   22.9559 O   0  0  0  0  0  0  0  0  0  0  0  0
   10.8811  -16.5287   23.6124 C   0  0  0  0  0  0  0  0  0  0  0  0
   11.2362  -15.3479   23.3659 O   0  0  0  0  0  0  0  0  0  0  0  0
   15.5920  -18.7342   24.0748 O   0  0  0  0  0  0  0  0  0  0  0  0
   10.2481  -16.7634   24.8517 N   0  0  0  0  0  0  0  0  0  0  0  0
    9.6434  -15.7141   25.6321 C   0  0  1  0  0  0  0  0  0  0  0  0
    8.7121  -14.8644   24.7823 C   0  0  0  0  0  0  0  0  0  0  0  0
    8.0135  -13.8173   25.5760 C   0  0  0  0  0  0  0  0  0  0  0  0
    6.6492  -13.6309   25.5097 C   0  0  0  0  0  0  0  0  0  0  0  0
    6.0522  -12.6620   26.2821 C   0  0  0  0  0  0  0  0  0  0  0  0
    6.7593  -11.8398   27.1460 C   0  0  0  0  0  0  0  0  0  0  0  0
    8.1296  -12.0639   27.1789 C   0  0  0  0  0  0  0  0  0  0  0  0
    8.7466  -13.0195   26.4217 C   0  0  0  0  0  0  0  0  0  0  0  0
    9.0057  -16.3054   26.8078 C   0  0  0  0  0  0  0  0  0  0  0  0
    8.1554  -17.3896   26.7861 O   0  0  0  0  0  0  0  0  0  0  0  0
    9.2594  -15.7724   27.9365 O   0  0  0  0  0  0  0  0  0  0  0  0
  2  1  1  6
  2  3  1  0
  4  5  1  0
  4  3  1  0
  6  5  1  0
  7  6  1  0
  8  9  2  0
  8  2  1  0
 10  8  1  0
 11 10  1  0
 11 12  1  1
 13 12  1  0
 13 14  1  0
 14 15  2  0
 16 11  1  0
 16 19  1  0
 17 16  2  0
 18 14  1  0
 20 19  1  0
 20 28  1  0
 20 21  1  6
 21 22  1  0
 22 27  2  0
 23 22  1  0
 23 24  2  0
 24 25  1  0
 25 26  2  0
 27 26  1  0
 28 29  1  0
 30 28  2  0
M  END
$$$$
