KEF.pdb
     RDKit          3D

 30 30  0  0  1  0  0  0  0  0999 V2000
    6.1793  -16.5988   21.4330 N   0  0  0  0  0  0  0  0  0  0  0  0
    7.5453  -16.2585   21.5652 C   0  0  1  0  0  0  0  0  0  0  0  0
    7.8662  -14.7768   21.4635 C   0  0  0  0  0  0  0  0  0  0  0  0
    7.8276  -14.2264   20.0888 C   0  0  0  0  0  0  0  0  0  0  0  0
    8.0648  -12.7792   19.9022 C   0  0  0  0  0  0  0  0  0  0  0  0
    7.8627  -12.3447   18.4795 C   0  0  0  0  0  0  0  0  0  0  0  0
    7.9453  -10.9422   18.3226 N   0  0  0  0  0  0  0  0  0  0  0  0
    8.2136  -16.8233   22.7789 C   0  0  0  0  0  0  0  0  0  0  0  0
    7.4984  -17.0024   23.8054 O   0  0  0  0  0  0  0  0  0  0  0  0
    9.5644  -17.1724   22.8805 N   0  0  0  0  0  0  0  0  0  0  0  0
   10.1333  -17.7219   24.1389 C   0  0  1  0  0  0  0  0  0  0  0  0
   11.1227  -18.7265   23.6547 C   0  0  0  0  0  0  0  0  0  0  0  0
   10.6804  -19.8594   22.8381 C   0  0  0  0  0  0  0  0  0  0  0  0
   11.6631  -20.2064   21.7902 C   0  0  0  0  0  0  0  0  0  0  0  0
   12.7678  -20.7974   22.0625 O   0  0  0  0  0  0  0  0  0  0  0  0
   10.6027  -16.6512   25.0135 C   0  0  0  0  0  0  0  0  0  0  0  0
   11.3118  -15.7411   24.5135 O   0  0  0  0  0  0  0  0  0  0  0  0
   11.4682  -19.9253   20.4378 O   0  0  0  0  0  0  0  0  0  0  0  0
   10.3172  -16.5585   26.3924 N   0  0  0  0  0  0  0  0  0  0  0  0
   10.9176  -15.5691   27.2505 C   0  0  1  0  0  0  0  0  0  0  0  0
   10.8009  -14.1773   26.6499 C   0  0  0  0  0  0  0  0  0  0  0  0
    9.3866  -13.7440   26.4872 C   0  0  0  0  0  0  0  0  0  0  0  0
    8.7993  -12.8187   27.3236 C   0  0  0  0  0  0  0  0  0  0  0  0
    7.4944  -12.4376   27.1141 C   0  0  0  0  0  0  0  0  0  0  0  0
    6.7139  -12.9419   26.0850 C   0  0  0  0  0  0  0  0  0  0  0  0
    7.3475  -13.8704   25.2692 C   0  0  0  0  0  0  0  0  0  0  0  0
    8.6422  -14.2656   25.4563 C   0  0  0  0  0  0  0  0  0  0  0  0
   10.3427  -15.6916   28.5896 C   0  0  0  0  0  0  0  0  0  0  0  0
    9.3592  -16.5870   28.9501 O   0  0  0  0  0  0  0  0  0  0  0  0
   10.7895  -14.9069   29.4880 O   0  0  0  0  0  0  0  0  0  0  0  0
  2  1  1  1
  2  3  1  0
  4  5  1  0
  4  3  1  0
  6  5  1  0
  7  6  1  0
  8  9  2  0
  8  2  1  0
 10  8  1  0
 11 10  1  0
 11 12  1  6
 13 12  1  0
 13 14  1  0
 14 15  2  0
 16 11  1  0
 16 19  1  0
 17 16  2  0
 18 14  1  0
 20 19  1  0
 20 28  1  0
 20 21  1  6
 21 22  1  0
 22 27  2  0
 23 22  1  0
 23 24  2  0
 24 25  1  0
 25 26  2  0
 27 26  1  0
 28 29  1  0
 30 28  2  0
M  END
$$$$
