KEF.pdb
     RDKit          3D

 30 30  0  0  1  0  0  0  0  0999 V2000
    6.7310  -17.5856   21.0713 N   0  0  0  0  0  0  0  0  0  0  0  0
    7.9034  -16.8065   20.9385 C   0  0  1  0  0  0  0  0  0  0  0  0
    7.6851  -15.3476   20.5741 C   0  0  0  0  0  0  0  0  0  0  0  0
    7.9147  -15.0235   19.1470 C   0  0  0  0  0  0  0  0  0  0  0  0
    7.7587  -13.6201   18.7092 C   0  0  0  0  0  0  0  0  0  0  0  0
    7.9775  -13.4530   17.2334 C   0  0  0  0  0  0  0  0  0  0  0  0
    7.9522  -12.0984   16.8301 N   0  0  0  0  0  0  0  0  0  0  0  0
    8.8401  -16.8867   22.1025 C   0  0  0  0  0  0  0  0  0  0  0  0
    8.4152  -17.4473   23.1525 O   0  0  0  0  0  0  0  0  0  0  0  0
   10.1494  -16.3952   22.1336 N   0  0  0  0  0  0  0  0  0  0  0  0
   11.0145  -16.5614   23.3308 C   0  0  1  0  0  0  0  0  0  0  0  0
   12.2933  -15.9153   22.9188 C   0  0  0  0  0  0  0  0  0  0  0  0
   13.4216  -15.8577   23.8513 C   0  0  0  0  0  0  0  0  0  0  0  0
   14.7157  -16.0765   23.1720 C   0  0  0  0  0  0  0  0  0  0  0  0
   15.8230  -15.6628   23.6684 O   0  0  0  0  0  0  0  0  0  0  0  0
   10.3455  -16.0724   24.5330 C   0  0  0  0  0  0  0  0  0  0  0  0
    9.7086  -14.9907   24.4622 O   0  0  0  0  0  0  0  0  0  0  0  0
   14.8347  -16.7454   21.9536 O   0  0  0  0  0  0  0  0  0  0  0  0
   10.3590  -16.7293   25.7819 N   0  0  0  0  0  0  0  0  0  0  0  0
    9.6150  -16.2572   26.9218 C   0  0  1  0  0  0  0  0  0  0  0  0
    8.1293  -16.1706   26.6106 C   0  0  0  0  0  0  0  0  0  0  0  0
    7.6241  -14.7710   26.6298 C   0  0  0  0  0  0  0  0  0  0  0  0
    8.4280  -13.7026   26.9657 C   0  0  0  0  0  0  0  0  0  0  0  0
    7.9147  -12.4267   26.9458 C   0  0  0  0  0  0  0  0  0  0  0  0
    6.6025  -12.1434   26.5992 C   0  0  0  0  0  0  0  0  0  0  0  0
    5.8311  -13.2504   26.2692 C   0  0  0  0  0  0  0  0  0  0  0  0
    6.3171  -14.5275   26.2813 C   0  0  0  0  0  0  0  0  0  0  0  0
    9.9351  -17.0952   28.0768 C   0  0  0  0  0  0  0  0  0  0  0  0
   10.1411  -18.4571   28.0341 O   0  0  0  0  0  0  0  0  0  0  0  0
   10.0291  -16.5157   29.2072 O   0  0  0  0  0  0  0  0  0  0  0  0
  2  1  1  1
  2  3  1  0
  4  5  1  0
  4  3  1  0
  6  5  1  0
  7  6  1  0
  8  9  2  0
  8  2  1  0
 10  8  1  0
 11 10  1  0
 11 12  1  6
 13 12  1  0
 13 14  1  0
 14 15  2  0
 16 11  1  0
 16 19  1  0
 17 16  2  0
 18 14  1  0
 20 19  1  0
 20 28  1  0
 20 21  1  6
 21 22  1  0
 22 27  2  0
 23 22  1  0
 23 24  2  0
 24 25  1  0
 25 26  2  0
 27 26  1  0
 28 29  1  0
 30 28  2  0
M  END
$$$$
