KEF.pdb
     RDKit          3D

 30 30  0  0  1  0  0  0  0  0999 V2000
    9.7324  -17.4497   19.2022 N   0  0  0  0  0  0  0  0  0  0  0  0
    8.6257  -17.4483   20.0823 C   0  0  1  0  0  0  0  0  0  0  0  0
    7.3963  -18.1955   19.5932 C   0  0  0  0  0  0  0  0  0  0  0  0
    7.1905  -18.1588   18.1267 C   0  0  0  0  0  0  0  0  0  0  0  0
    6.0823  -18.9497   17.5507 C   0  0  0  0  0  0  0  0  0  0  0  0
    5.9793  -18.7908   16.0614 C   0  0  0  0  0  0  0  0  0  0  0  0
    4.9524  -19.5837   15.5000 N   0  0  0  0  0  0  0  0  0  0  0  0
    8.9400  -17.8818   21.4794 C   0  0  0  0  0  0  0  0  0  0  0  0
    8.6375  -19.0658   21.8022 O   0  0  0  0  0  0  0  0  0  0  0  0
    9.5409  -17.0916   22.4650 N   0  0  0  0  0  0  0  0  0  0  0  0
   10.6564  -17.6064   23.3016 C   0  0  1  0  0  0  0  0  0  0  0  0
   11.6833  -17.9995   22.2950 C   0  0  0  0  0  0  0  0  0  0  0  0
   12.8980  -17.1970   22.1321 C   0  0  0  0  0  0  0  0  0  0  0  0
   14.0871  -18.0352   21.8722 C   0  0  0  0  0  0  0  0  0  0  0  0
   14.9766  -17.7052   21.0098 O   0  0  0  0  0  0  0  0  0  0  0  0
   11.0281  -16.6406   24.3316 C   0  0  0  0  0  0  0  0  0  0  0  0
   11.6699  -17.0529   25.3312 O   0  0  0  0  0  0  0  0  0  0  0  0
   14.3355  -19.2353   22.5385 O   0  0  0  0  0  0  0  0  0  0  0  0
   10.7191  -15.2643   24.2898 N   0  0  0  0  0  0  0  0  0  0  0  0
    9.8388  -14.6313   25.2385 C   0  0  1  0  0  0  0  0  0  0  0  0
    8.5954  -14.0853   24.5548 C   0  0  0  0  0  0  0  0  0  0  0  0
    7.7039  -13.3530   25.4946 C   0  0  0  0  0  0  0  0  0  0  0  0
    7.9901  -12.0801   25.9401 C   0  0  0  0  0  0  0  0  0  0  0  0
    7.1194  -11.4407   26.7915 C   0  0  0  0  0  0  0  0  0  0  0  0
    5.9401  -12.0152   27.2405 C   0  0  0  0  0  0  0  0  0  0  0  0
    5.6944  -13.2972   26.7659 C   0  0  0  0  0  0  0  0  0  0  0  0
    6.5431  -13.9538   25.9198 C   0  0  0  0  0  0  0  0  0  0  0  0
    9.5594  -15.5694   26.3249 C   0  0  0  0  0  0  0  0  0  0  0  0
    8.8678  -16.7537   26.1901 O   0  0  0  0  0  0  0  0  0  0  0  0
    9.9910  -15.2626   27.4834 O   0  0  0  0  0  0  0  0  0  0  0  0
  2  1  1  6
  2  3  1  0
  4  5  1  0
  4  3  1  0
  6  5  1  0
  7  6  1  0
  8  9  2  0
  8  2  1  0
 10  8  1  0
 11 10  1  0
 11 12  1  6
 13 12  1  0
 13 14  1  0
 14 15  2  0
 16 11  1  0
 16 19  1  0
 17 16  2  0
 18 14  1  0
 20 19  1  0
 20 28  1  0
 20 21  1  6
 21 22  1  0
 22 27  2  0
 23 22  1  0
 23 24  2  0
 24 25  1  0
 25 26  2  0
 27 26  1  0
 28 29  1  0
 30 28  2  0
M  END
$$$$
