KEF.pdb
     RDKit          3D

 30 30  0  0  1  0  0  0  0  0999 V2000
    6.2328  -17.3040   20.4987 N   0  0  0  0  0  0  0  0  0  0  0  0
    7.4193  -16.5430   20.6098 C   0  0  1  0  0  0  0  0  0  0  0  0
    7.2473  -15.0374   20.4975 C   0  0  0  0  0  0  0  0  0  0  0  0
    7.1502  -14.5258   19.1107 C   0  0  0  0  0  0  0  0  0  0  0  0
    7.8427  -13.2635   18.7752 C   0  0  0  0  0  0  0  0  0  0  0  0
    7.5418  -12.7987   17.3798 C   0  0  0  0  0  0  0  0  0  0  0  0
    8.0215  -11.4933   17.1264 N   0  0  0  0  0  0  0  0  0  0  0  0
    8.2482  -16.8536   21.8161 C   0  0  0  0  0  0  0  0  0  0  0  0
    7.6614  -17.3795   22.8043 O   0  0  0  0  0  0  0  0  0  0  0  0
    9.6198  -16.6133   21.9495 N   0  0  0  0  0  0  0  0  0  0  0  0
   10.3906  -17.1299   23.1106 C   0  0  1  0  0  0  0  0  0  0  0  0
   11.8034  -17.0579   22.6401 C   0  0  0  0  0  0  0  0  0  0  0  0
   12.8898  -17.5330   23.5003 C   0  0  0  0  0  0  0  0  0  0  0  0
   14.2104  -17.4056   22.8493 C   0  0  0  0  0  0  0  0  0  0  0  0
   14.9088  -18.4296   22.5213 O   0  0  0  0  0  0  0  0  0  0  0  0
   10.0302  -16.4225   24.3359 C   0  0  0  0  0  0  0  0  0  0  0  0
    9.9709  -15.1669   24.3035 O   0  0  0  0  0  0  0  0  0  0  0  0
   14.7937  -16.1767   22.5402 O   0  0  0  0  0  0  0  0  0  0  0  0
    9.7391  -17.0477   25.5671 N   0  0  0  0  0  0  0  0  0  0  0  0
    9.4388  -16.3094   26.7673 C   0  0  1  0  0  0  0  0  0  0  0  0
    7.9966  -15.8281   26.7698 C   0  0  0  0  0  0  0  0  0  0  0  0
    7.8861  -14.3589   26.5609 C   0  0  0  0  0  0  0  0  0  0  0  0
    6.8745  -13.7957   25.8125 C   0  0  0  0  0  0  0  0  0  0  0  0
    6.8076  -12.4293   25.6700 C   0  0  0  0  0  0  0  0  0  0  0  0
    7.7209  -11.5617   26.2492 C   0  0  0  0  0  0  0  0  0  0  0  0
    8.7214  -12.1742   26.9929 C   0  0  0  0  0  0  0  0  0  0  0  0
    8.8099  -13.5288   27.1496 C   0  0  0  0  0  0  0  0  0  0  0  0
    9.7983  -17.1240   27.9273 C   0  0  0  0  0  0  0  0  0  0  0  0
   10.1281  -16.6293   29.1706 O   0  0  0  0  0  0  0  0  0  0  0  0
    9.8058  -18.3880   27.7703 O   0  0  0  0  0  0  0  0  0  0  0  0
  2  1  1  1
  2  3  1  0
  4  5  1  0
  4  3  1  0
  6  5  1  0
  7  6  1  0
  8  9  2  0
  8  2  1  0
 10  8  1  0
 11 10  1  0
 11 12  1  6
 13 12  1  0
 13 14  1  0
 14 15  2  0
 16 11  1  0
 16 19  1  0
 17 16  2  0
 18 14  1  0
 20 19  1  0
 20 28  1  0
 20 21  1  1
 21 22  1  0
 22 27  2  0
 23 22  1  0
 23 24  2  0
 24 25  1  0
 25 26  2  0
 27 26  1  0
 28 29  1  0
 30 28  2  0
M  END
$$$$
