KEF.pdb
     RDKit          3D

 30 30  0  0  1  0  0  0  0  0999 V2000
    9.3059  -14.0194   19.0439 N   0  0  0  0  0  0  0  0  0  0  0  0
    8.3508  -14.1967   20.0713 C   0  0  1  0  0  0  0  0  0  0  0  0
    6.9187  -14.4059   19.6083 C   0  0  0  0  0  0  0  0  0  0  0  0
    6.7269  -14.3507   18.1404 C   0  0  0  0  0  0  0  0  0  0  0  0
    7.5808  -13.4370   17.3521 C   0  0  0  0  0  0  0  0  0  0  0  0
    7.2926  -13.5109   15.8807 C   0  0  0  0  0  0  0  0  0  0  0  0
    8.1835  -12.7272   15.1122 N   0  0  0  0  0  0  0  0  0  0  0  0
    8.7016  -15.2511   21.0732 C   0  0  0  0  0  0  0  0  0  0  0  0
    7.7602  -15.7272   21.7693 O   0  0  0  0  0  0  0  0  0  0  0  0
    9.9830  -15.7597   21.3101 N   0  0  0  0  0  0  0  0  0  0  0  0
   10.2482  -16.7155   22.4170 C   0  0  1  0  0  0  0  0  0  0  0  0
   11.5292  -17.3604   22.0101 C   0  0  0  0  0  0  0  0  0  0  0  0
   12.1452  -18.3766   22.8667 C   0  0  0  0  0  0  0  0  0  0  0  0
   13.3646  -18.9501   22.2598 C   0  0  0  0  0  0  0  0  0  0  0  0
   13.4586  -19.1704   21.0003 O   0  0  0  0  0  0  0  0  0  0  0  0
   10.1892  -16.0460   23.7132 C   0  0  0  0  0  0  0  0  0  0  0  0
   10.2352  -14.7897   23.7376 O   0  0  0  0  0  0  0  0  0  0  0  0
   14.4978  -19.2899   22.9991 O   0  0  0  0  0  0  0  0  0  0  0  0
   10.0824  -16.7090   24.9544 N   0  0  0  0  0  0  0  0  0  0  0  0
    9.3027  -16.1945   26.0512 C   0  0  1  0  0  0  0  0  0  0  0  0
    7.8785  -15.8876   25.6166 C   0  0  0  0  0  0  0  0  0  0  0  0
    7.4864  -14.4809   25.9026 C   0  0  0  0  0  0  0  0  0  0  0  0
    7.3567  -13.9996   27.1880 C   0  0  0  0  0  0  0  0  0  0  0  0
    7.0129  -12.6840   27.3950 C   0  0  0  0  0  0  0  0  0  0  0  0
    6.7827  -11.7895   26.3609 C   0  0  0  0  0  0  0  0  0  0  0  0
    6.9247  -12.3192   25.0848 C   0  0  0  0  0  0  0  0  0  0  0  0
    7.2651  -13.6221   24.8526 C   0  0  0  0  0  0  0  0  0  0  0  0
    9.3963  -17.1241   27.1763 C   0  0  0  0  0  0  0  0  0  0  0  0
    9.2985  -16.7714   28.5049 O   0  0  0  0  0  0  0  0  0  0  0  0
    9.5829  -18.3535   26.9006 O   0  0  0  0  0  0  0  0  0  0  0  0
  2  1  1  6
  2  3  1  0
  4  5  1  0
  4  3  1  0
  6  5  1  0
  7  6  1  0
  8  9  2  0
  8  2  1  0
 10  8  1  0
 11 10  1  0
 11 12  1  6
 13 12  1  0
 13 14  1  0
 14 15  2  0
 16 11  1  0
 16 19  1  0
 17 16  2  0
 18 14  1  0
 20 19  1  0
 20 28  1  0
 20 21  1  6
 21 22  1  0
 22 27  2  0
 23 22  1  0
 23 24  2  0
 24 25  1  0
 25 26  2  0
 27 26  1  0
 28 29  1  0
 30 28  2  0
M  END
$$$$
