KEF.pdb
     RDKit          3D

 30 30  0  0  1  0  0  0  0  0999 V2000
    9.7723  -14.7056   18.2623 N   0  0  0  0  0  0  0  0  0  0  0  0
    9.0875  -14.2791   19.4235 C   0  0  1  0  0  0  0  0  0  0  0  0
    7.6620  -13.7997   19.2068 C   0  0  0  0  0  0  0  0  0  0  0  0
    7.3308  -13.4510   17.8057 C   0  0  0  0  0  0  0  0  0  0  0  0
    8.1031  -14.0903   16.7192 C   0  0  0  0  0  0  0  0  0  0  0  0
    7.5789  -13.7344   15.3582 C   0  0  0  0  0  0  0  0  0  0  0  0
    8.2385  -14.4337   14.3217 N   0  0  0  0  0  0  0  0  0  0  0  0
    9.1094  -15.2581   20.5548 C   0  0  0  0  0  0  0  0  0  0  0  0
    8.1211  -15.2575   21.3427 O   0  0  0  0  0  0  0  0  0  0  0  0
   10.1293  -16.1779   20.8205 N   0  0  0  0  0  0  0  0  0  0  0  0
   10.0983  -17.0472   22.0256 C   0  0  1  0  0  0  0  0  0  0  0  0
   11.1444  -18.0689   21.7351 C   0  0  0  0  0  0  0  0  0  0  0  0
   11.0035  -18.9570   20.5787 C   0  0  0  0  0  0  0  0  0  0  0  0
   12.1537  -19.8744   20.4390 C   0  0  0  0  0  0  0  0  0  0  0  0
   12.2825  -20.6551   19.4302 O   0  0  0  0  0  0  0  0  0  0  0  0
   10.2212  -16.2557   23.2463 C   0  0  0  0  0  0  0  0  0  0  0  0
   10.9195  -15.2107   23.2111 O   0  0  0  0  0  0  0  0  0  0  0  0
   13.1799  -19.9605   21.3800 O   0  0  0  0  0  0  0  0  0  0  0  0
    9.6084  -16.5775   24.4762 N   0  0  0  0  0  0  0  0  0  0  0  0
    9.1126  -15.5782   25.3879 C   0  0  1  0  0  0  0  0  0  0  0  0
    8.2148  -14.5803   24.6741 C   0  0  0  0  0  0  0  0  0  0  0  0
    7.7043  -13.5202   25.5852 C   0  0  0  0  0  0  0  0  0  0  0  0
    8.5002  -12.4865   26.0308 C   0  0  0  0  0  0  0  0  0  0  0  0
    7.9706  -11.5208   26.8547 C   0  0  0  0  0  0  0  0  0  0  0  0
    6.6493  -11.5251   27.2750 C   0  0  0  0  0  0  0  0  0  0  0  0
    5.8867  -12.5849   26.8013 C   0  0  0  0  0  0  0  0  0  0  0  0
    6.3890  -13.5567   25.9823 C   0  0  0  0  0  0  0  0  0  0  0  0
    8.4783  -16.2460   26.5238 C   0  0  0  0  0  0  0  0  0  0  0  0
    7.4551  -17.1645   26.4316 O   0  0  0  0  0  0  0  0  0  0  0  0
    8.9088  -15.9516   27.6858 O   0  0  0  0  0  0  0  0  0  0  0  0
  2  1  1  6
  2  3  1  0
  4  5  1  0
  4  3  1  0
  6  5  1  0
  7  6  1  0
  8  9  2  0
  8  2  1  0
 10  8  1  0
 11 10  1  0
 11 12  1  6
 13 12  1  0
 13 14  1  0
 14 15  2  0
 16 11  1  0
 16 19  1  0
 17 16  2  0
 18 14  1  0
 20 19  1  0
 20 28  1  0
 20 21  1  6
 21 22  1  0
 22 27  2  0
 23 22  1  0
 23 24  2  0
 24 25  1  0
 25 26  2  0
 27 26  1  0
 28 29  1  0
 30 28  2  0
M  END
$$$$
