KEF.pdb
     RDKit          3D

 30 30  0  0  1  0  0  0  0  0999 V2000
    6.3202  -16.0998   21.0188 N   0  0  0  0  0  0  0  0  0  0  0  0
    7.6084  -15.6012   21.3210 C   0  0  1  0  0  0  0  0  0  0  0  0
    7.7138  -14.0913   21.4549 C   0  0  0  0  0  0  0  0  0  0  0  0
    7.6218  -13.3472   20.1773 C   0  0  0  0  0  0  0  0  0  0  0  0
    8.5080  -13.7470   19.0636 C   0  0  0  0  0  0  0  0  0  0  0  0
    8.4142  -12.8116   17.8932 C   0  0  0  0  0  0  0  0  0  0  0  0
    9.2408  -13.2044   16.8158 N   0  0  0  0  0  0  0  0  0  0  0  0
    8.2650  -16.2456   22.5010 C   0  0  0  0  0  0  0  0  0  0  0  0
    7.5732  -16.3777   23.5504 O   0  0  0  0  0  0  0  0  0  0  0  0
    9.5812  -16.7171   22.5477 N   0  0  0  0  0  0  0  0  0  0  0  0
   10.1185  -17.4060   23.7501 C   0  0  1  0  0  0  0  0  0  0  0  0
   11.0985  -18.3732   23.1786 C   0  0  0  0  0  0  0  0  0  0  0  0
   11.9365  -19.1820   24.0671 C   0  0  0  0  0  0  0  0  0  0  0  0
   12.8897  -20.0257   23.3162 C   0  0  0  0  0  0  0  0  0  0  0  0
   13.2972  -19.7117   22.1418 O   0  0  0  0  0  0  0  0  0  0  0  0
   10.5912  -16.4417   24.7394 C   0  0  0  0  0  0  0  0  0  0  0  0
   11.4996  -15.6400   24.4032 O   0  0  0  0  0  0  0  0  0  0  0  0
   13.4182  -21.2143   23.8202 O   0  0  0  0  0  0  0  0  0  0  0  0
   10.1001  -16.3395   26.0584 N   0  0  0  0  0  0  0  0  0  0  0  0
   10.7555  -15.5615   27.0787 C   0  0  1  0  0  0  0  0  0  0  0  0
   10.6566  -14.0734   26.7834 C   0  0  0  0  0  0  0  0  0  0  0  0
    9.2518  -13.6241   26.5859 C   0  0  0  0  0  0  0  0  0  0  0  0
    8.4741  -14.0763   25.5412 C   0  0  0  0  0  0  0  0  0  0  0  0
    7.1739  -13.6447   25.4188 C   0  0  0  0  0  0  0  0  0  0  0  0
    6.5832  -12.7584   26.3065 C   0  0  0  0  0  0  0  0  0  0  0  0
    7.4045  -12.3303   27.3415 C   0  0  0  0  0  0  0  0  0  0  0  0
    8.6990  -12.7439   27.4852 C   0  0  0  0  0  0  0  0  0  0  0  0
   10.2225  -15.9476   28.3846 C   0  0  0  0  0  0  0  0  0  0  0  0
   10.5821  -15.3774   29.5866 O   0  0  0  0  0  0  0  0  0  0  0  0
    9.3597  -16.8844   28.4066 O   0  0  0  0  0  0  0  0  0  0  0  0
  2  1  1  1
  2  3  1  0
  4  5  1  0
  4  3  1  0
  6  5  1  0
  7  6  1  0
  8  9  2  0
  8  2  1  0
 10  8  1  0
 11 10  1  0
 11 12  1  6
 13 12  1  0
 13 14  1  0
 14 15  2  0
 16 11  1  0
 16 19  1  0
 17 16  2  0
 18 14  1  0
 20 19  1  0
 20 28  1  0
 20 21  1  6
 21 22  1  0
 22 27  2  0
 23 22  1  0
 23 24  2  0
 24 25  1  0
 25 26  2  0
 27 26  1  0
 28 29  1  0
 30 28  2  0
M  END
$$$$
