KEF.pdb
     RDKit          3D

 30 30  0  0  1  0  0  0  0  0999 V2000
    6.4069  -17.6970   20.5620 N   0  0  0  0  0  0  0  0  0  0  0  0
    7.6655  -17.0674   20.4256 C   0  0  1  0  0  0  0  0  0  0  0  0
    7.6530  -15.5499   20.5023 C   0  0  0  0  0  0  0  0  0  0  0  0
    7.6088  -14.8627   19.1907 C   0  0  0  0  0  0  0  0  0  0  0  0
    7.7274  -13.3894   19.1628 C   0  0  0  0  0  0  0  0  0  0  0  0
    7.6091  -12.8317   17.7740 C   0  0  0  0  0  0  0  0  0  0  0  0
    7.6786  -11.4200   17.7475 N   0  0  0  0  0  0  0  0  0  0  0  0
    8.7287  -17.5960   21.3362 C   0  0  0  0  0  0  0  0  0  0  0  0
    8.3800  -17.9291   22.5045 O   0  0  0  0  0  0  0  0  0  0  0  0
   10.0795  -17.7555   21.0098 N   0  0  0  0  0  0  0  0  0  0  0  0
   11.0797  -18.1812   22.0234 C   0  0  1  0  0  0  0  0  0  0  0  0
   12.3315  -18.3252   21.2266 C   0  0  0  0  0  0  0  0  0  0  0  0
   13.5904  -18.6705   21.8914 C   0  0  0  0  0  0  0  0  0  0  0  0
   14.7246  -18.7149   20.9450 C   0  0  0  0  0  0  0  0  0  0  0  0
   14.5777  -18.4695   19.6951 O   0  0  0  0  0  0  0  0  0  0  0  0
   11.0856  -17.2740   23.1674 C   0  0  0  0  0  0  0  0  0  0  0  0
   11.1574  -16.0381   22.9473 O   0  0  0  0  0  0  0  0  0  0  0  0
   16.0298  -19.0199   21.3316 O   0  0  0  0  0  0  0  0  0  0  0  0
   11.0153  -17.6832   24.5161 N   0  0  0  0  0  0  0  0  0  0  0  0
   11.1387  -16.7648   25.6194 C   0  0  1  0  0  0  0  0  0  0  0  0
    9.7737  -16.3590   26.1518 C   0  0  0  0  0  0  0  0  0  0  0  0
    9.8675  -15.4900   27.3562 C   0  0  0  0  0  0  0  0  0  0  0  0
    9.4992  -15.9278   28.6104 C   0  0  0  0  0  0  0  0  0  0  0  0
    9.6273  -15.0894   29.6932 C   0  0  0  0  0  0  0  0  0  0  0  0
   10.1175  -13.7961   29.5960 C   0  0  0  0  0  0  0  0  0  0  0  0
   10.4751  -13.3993   28.3138 C   0  0  0  0  0  0  0  0  0  0  0  0
   10.3574  -14.2129   27.2222 C   0  0  0  0  0  0  0  0  0  0  0  0
   12.0225  -17.3503   26.6267 C   0  0  0  0  0  0  0  0  0  0  0  0
   12.9534  -16.6522   27.3651 O   0  0  0  0  0  0  0  0  0  0  0  0
   11.9196  -18.6030   26.8329 O   0  0  0  0  0  0  0  0  0  0  0  0
  2  1  1  1
  2  3  1  0
  4  5  1  0
  4  3  1  0
  6  5  1  0
  7  6  1  0
  8  9  2  0
  8  2  1  0
 10  8  1  0
 11 10  1  0
 11 12  1  6
 13 12  1  0
 13 14  1  0
 14 15  2  0
 16 11  1  0
 16 19  1  0
 17 16  2  0
 18 14  1  0
 20 19  1  0
 20 28  1  0
 20 21  1  1
 21 22  1  0
 22 27  2  0
 23 22  1  0
 23 24  2  0
 24 25  1  0
 25 26  2  0
 27 26  1  0
 28 29  1  0
 30 28  2  0
M  END
$$$$
