KEF.pdb
     RDKit          3D

 30 30  0  0  1  0  0  0  0  0999 V2000
    6.3196  -17.3809   20.9538 N   0  0  0  0  0  0  0  0  0  0  0  0
    7.5875  -16.7569   20.9050 C   0  0  1  0  0  0  0  0  0  0  0  0
    7.5702  -15.2442   20.7623 C   0  0  0  0  0  0  0  0  0  0  0  0
    7.8419  -14.7469   19.3936 C   0  0  0  0  0  0  0  0  0  0  0  0
    7.8815  -13.2862   19.1696 C   0  0  0  0  0  0  0  0  0  0  0  0
    8.1935  -12.9339   17.7440 C   0  0  0  0  0  0  0  0  0  0  0  0
    8.0810  -11.5479   17.4895 N   0  0  0  0  0  0  0  0  0  0  0  0
    8.5112  -17.1342   22.0200 C   0  0  0  0  0  0  0  0  0  0  0  0
    7.9968  -17.6606   23.0475 O   0  0  0  0  0  0  0  0  0  0  0  0
    9.8986  -16.9561   22.0279 N   0  0  0  0  0  0  0  0  0  0  0  0
   10.7304  -17.3777   23.1853 C   0  0  1  0  0  0  0  0  0  0  0  0
   12.1165  -17.3468   22.6373 C   0  0  0  0  0  0  0  0  0  0  0  0
   13.2564  -17.6581   23.5031 C   0  0  0  0  0  0  0  0  0  0  0  0
   13.8011  -19.0067   23.2412 C   0  0  0  0  0  0  0  0  0  0  0  0
   14.1899  -19.3686   22.0743 O   0  0  0  0  0  0  0  0  0  0  0  0
   10.4327  -16.5720   24.3660 C   0  0  0  0  0  0  0  0  0  0  0  0
   10.5322  -15.3219   24.2749 O   0  0  0  0  0  0  0  0  0  0  0  0
   13.9374  -19.9803   24.2310 O   0  0  0  0  0  0  0  0  0  0  0  0
   10.0366  -17.0954   25.6153 N   0  0  0  0  0  0  0  0  0  0  0  0
    9.7415  -16.2633   26.7537 C   0  0  1  0  0  0  0  0  0  0  0  0
    8.2453  -16.0307   26.8911 C   0  0  0  0  0  0  0  0  0  0  0  0
    7.8755  -14.5973   26.7395 C   0  0  0  0  0  0  0  0  0  0  0  0
    8.6950  -13.5759   27.1706 C   0  0  0  0  0  0  0  0  0  0  0  0
    8.3134  -12.2675   26.9854 C   0  0  0  0  0  0  0  0  0  0  0  0
    7.1224  -11.9049   26.3752 C   0  0  0  0  0  0  0  0  0  0  0  0
    6.3302  -12.9667   25.9581 C   0  0  0  0  0  0  0  0  0  0  0  0
    6.6864  -14.2747   26.1304 C   0  0  0  0  0  0  0  0  0  0  0  0
   10.3667  -16.8450   27.9408 C   0  0  0  0  0  0  0  0  0  0  0  0
   10.5384  -16.1954   29.1440 O   0  0  0  0  0  0  0  0  0  0  0  0
   10.7831  -18.0453   27.8495 O   0  0  0  0  0  0  0  0  0  0  0  0
  2  1  1  1
  2  3  1  0
  4  5  1  0
  4  3  1  0
  6  5  1  0
  7  6  1  0
  8  9  2  0
  8  2  1  0
 10  8  1  0
 11 10  1  0
 11 12  1  6
 13 12  1  0
 13 14  1  0
 14 15  2  0
 16 11  1  0
 16 19  1  0
 17 16  2  0
 18 14  1  0
 20 19  1  0
 20 28  1  0
 20 21  1  1
 21 22  1  0
 22 27  2  0
 23 22  1  0
 23 24  2  0
 24 25  1  0
 25 26  2  0
 27 26  1  0
 28 29  1  0
 30 28  2  0
M  END
$$$$
