KEF.pdb
     RDKit          3D

 30 30  0  0  1  0  0  0  0  0999 V2000
    9.9305  -13.5519   19.4396 N   0  0  0  0  0  0  0  0  0  0  0  0
    8.7781  -13.5360   20.2588 C   0  0  1  0  0  0  0  0  0  0  0  0
    7.4594  -13.3259   19.5338 C   0  0  0  0  0  0  0  0  0  0  0  0
    7.5711  -13.2211   18.0605 C   0  0  0  0  0  0  0  0  0  0  0  0
    7.3804  -14.4430   17.2506 C   0  0  0  0  0  0  0  0  0  0  0  0
    7.3099  -14.1500   15.7800 C   0  0  0  0  0  0  0  0  0  0  0  0
    8.5510  -13.7299   15.2493 N   0  0  0  0  0  0  0  0  0  0  0  0
    8.6511  -14.7095   21.1784 C   0  0  0  0  0  0  0  0  0  0  0  0
    7.5175  -14.9224   21.6952 O   0  0  0  0  0  0  0  0  0  0  0  0
    9.6781  -15.5959   21.5194 N   0  0  0  0  0  0  0  0  0  0  0  0
    9.4533  -16.7202   22.4652 C   0  0  1  0  0  0  0  0  0  0  0  0
   10.3527  -17.7886   21.9436 C   0  0  0  0  0  0  0  0  0  0  0  0
   10.5269  -19.0342   22.6946 C   0  0  0  0  0  0  0  0  0  0  0  0
    9.7326  -20.1425   22.1245 C   0  0  0  0  0  0  0  0  0  0  0  0
   10.1715  -20.8705   21.1647 O   0  0  0  0  0  0  0  0  0  0  0  0
    9.6231  -16.2838   23.8481 C   0  0  0  0  0  0  0  0  0  0  0  0
   10.5568  -15.4834   24.1100 O   0  0  0  0  0  0  0  0  0  0  0  0
    8.4595  -20.4831   22.5818 O   0  0  0  0  0  0  0  0  0  0  0  0
    8.8096  -16.6960   24.9250 N   0  0  0  0  0  0  0  0  0  0  0  0
    9.0198  -16.2508   26.2790 C   0  0  1  0  0  0  0  0  0  0  0  0
    7.7246  -15.7547   26.9017 C   0  0  0  0  0  0  0  0  0  0  0  0
    7.4018  -14.3567   26.5069 C   0  0  0  0  0  0  0  0  0  0  0  0
    8.0700  -13.2707   27.0312 C   0  0  0  0  0  0  0  0  0  0  0  0
    7.7456  -12.0008   26.6143 C   0  0  0  0  0  0  0  0  0  0  0  0
    6.7607  -11.7407   25.6737 C   0  0  0  0  0  0  0  0  0  0  0  0
    6.1152  -12.8647   25.1744 C   0  0  0  0  0  0  0  0  0  0  0  0
    6.4186  -14.1363   25.5722 C   0  0  0  0  0  0  0  0  0  0  0  0
    9.6737  -17.3196   27.0332 C   0  0  0  0  0  0  0  0  0  0  0  0
   10.3243  -17.1555   28.2369 O   0  0  0  0  0  0  0  0  0  0  0  0
    9.6360  -18.4907   26.5336 O   0  0  0  0  0  0  0  0  0  0  0  0
  2  1  1  6
  2  3  1  0
  4  5  1  0
  4  3  1  0
  6  5  1  0
  7  6  1  0
  8  9  2  0
  8  2  1  0
 10  8  1  0
 11 10  1  0
 11 12  1  6
 13 12  1  0
 13 14  1  0
 14 15  2  0
 16 11  1  0
 16 19  1  0
 17 16  2  0
 18 14  1  0
 20 19  1  0
 20 28  1  0
 20 21  1  1
 21 22  1  0
 22 27  2  0
 23 22  1  0
 23 24  2  0
 24 25  1  0
 25 26  2  0
 27 26  1  0
 28 29  1  0
 30 28  2  0
M  END
$$$$
