AYY.pdb
     RDKit          3D

 30 31  0  0  1  0  0  0  0  0999 V2000
   36.6972  -28.9320  -19.8023 C   0  0  0  0  0  0  0  0  0  0  0  0
   37.7476  -29.1416  -18.7288 C   0  0  2  0  0  0  0  0  0  0  0  0
   39.0866  -28.9953  -19.2280 N   0  0  0  0  0  0  0  0  0  0  0  0
   37.5336  -30.4589  -18.1088 C   0  0  0  0  0  0  0  0  0  0  0  0
   37.9883  -31.4705  -18.7271 O   0  0  0  0  0  0  0  0  0  0  0  0
   42.9422  -32.6664  -15.3688 O   0  0  0  0  0  0  0  0  0  0  0  0
   41.5705  -32.4745  -15.2658 C   0  0  0  0  0  0  0  0  0  0  0  0
   40.9939  -31.2177  -15.3464 C   0  0  0  0  0  0  0  0  0  0  0  0
   39.6272  -31.0379  -15.2426 C   0  0  0  0  0  0  0  0  0  0  0  0
   38.7986  -32.1203  -15.0542 C   0  0  0  0  0  0  0  0  0  0  0  0
   37.3445  -32.0025  -14.9357 C   0  0  0  0  0  0  0  0  0  0  0  0
   36.6471  -31.9106  -16.2749 C   0  0  2  0  0  0  0  0  0  0  0  0
   36.8512  -30.6071  -16.8752 N   0  0  0  0  0  0  0  0  0  0  0  0
   35.1845  -32.0883  -16.0012 C   0  0  0  0  0  0  0  0  0  0  0  0
   34.5247  -31.2754  -15.3033 O   0  0  0  0  0  0  0  0  0  0  0  0
   39.3772  -33.3701  -14.9744 C   0  0  0  0  0  0  0  0  0  0  0  0
   40.7485  -33.5457  -15.0791 C   0  0  0  0  0  0  0  0  0  0  0  0
   26.7094  -32.1990  -16.4667 O   0  0  0  0  0  0  0  0  0  0  0  0
   28.1074  -32.1706  -16.5314 C   0  0  0  0  0  0  0  0  0  0  0  0
   28.8717  -31.6880  -15.4897 C   0  0  0  0  0  0  0  0  0  0  0  0
   30.2503  -31.6581  -15.5491 C   0  0  0  0  0  0  0  0  0  0  0  0
   30.9268  -32.1156  -16.6666 C   0  0  0  0  0  0  0  0  0  0  0  0
   32.3895  -32.1076  -16.7886 C   0  0  0  0  0  0  0  0  0  0  0  0
   33.0617  -33.3546  -16.2753 C   0  0  2  0  0  0  0  0  0  0  0  0
   34.4795  -33.2041  -16.5319 N   0  0  0  0  0  0  0  0  0  0  0  0
   32.5863  -34.5941  -16.8772 C   0  0  0  0  0  0  0  0  0  0  0  0
   31.4729  -35.0790  -16.5757 O   0  0  0  0  0  0  0  0  0  0  0  0
   30.1508  -32.5956  -17.7013 C   0  0  0  0  0  0  0  0  0  0  0  0
   28.7742  -32.6279  -17.6478 C   0  0  0  0  0  0  0  0  0  0  0  0
   33.3723  -35.2585  -17.8022 O   0  0  0  0  0  0  0  0  0  0  0  0
  2  1  1  6
  2  3  1  0
  4  2  1  0
  4 13  1  0
  5  4  2  0
  7 17  2  0
  7  6  1  0
  8  7  1  0
  9 10  1  0
  9  8  2  0
 10 16  2  0
 12 11  1  1
 11 10  1  0
 13 12  1  0
 14 15  2  0
 14 12  1  0
 16 17  1  0
 18 19  1  0
 19 20  2  0
 19 29  1  0
 20 21  1  0
 21 22  2  0
 22 23  1  0
 24 23  1  6
 24 25  1  0
 24 26  1  0
 25 14  1  0
 26 30  1  0
 27 26  2  0
 28 22  1  0
 29 28  2  0
M  END
$$$$
