AYY.pdb
     RDKit          3D

 30 31  0  0  1  0  0  0  0  0999 V2000
   24.5058   -8.3725  -21.3307 C   0  0  0  0  0  0  0  0  0  0  0  0
   24.9173   -9.6996  -20.7232 C   0  0  2  0  0  0  0  0  0  0  0  0
   25.0206  -10.7478  -21.7001 N   0  0  0  0  0  0  0  0  0  0  0  0
   23.9715  -10.0414  -19.6490 C   0  0  0  0  0  0  0  0  0  0  0  0
   22.7763  -10.3005  -19.9908 O   0  0  0  0  0  0  0  0  0  0  0  0
   24.2812  -16.5171  -18.9612 O   0  0  0  0  0  0  0  0  0  0  0  0
   24.2342  -15.2834  -18.3250 C   0  0  0  0  0  0  0  0  0  0  0  0
   25.3482  -14.4676  -18.2156 C   0  0  0  0  0  0  0  0  0  0  0  0
   25.2903  -13.2412  -17.5802 C   0  0  0  0  0  0  0  0  0  0  0  0
   24.1069  -12.7988  -17.0350 C   0  0  0  0  0  0  0  0  0  0  0  0
   23.9745  -11.5127  -16.3489 C   0  0  0  0  0  0  0  0  0  0  0  0
   23.4218  -10.4213  -17.2386 C   0  0  2  0  0  0  0  0  0  0  0  0
   24.3636  -10.0834  -18.2875 N   0  0  0  0  0  0  0  0  0  0  0  0
   23.2292   -9.2208  -16.3626 C   0  0  0  0  0  0  0  0  0  0  0  0
   24.0825   -8.2995  -16.2830 O   0  0  0  0  0  0  0  0  0  0  0  0
   22.9999  -13.6146  -17.1464 C   0  0  0  0  0  0  0  0  0  0  0  0
   23.0626  -14.8438  -17.7845 C   0  0  0  0  0  0  0  0  0  0  0  0
   16.9390   -6.8136  -19.0211 O   0  0  0  0  0  0  0  0  0  0  0  0
   18.1026   -6.7954  -18.2431 C   0  0  0  0  0  0  0  0  0  0  0  0
   18.0751   -6.4609  -16.9053 C   0  0  0  0  0  0  0  0  0  0  0  0
   19.2198   -6.4417  -16.1344 C   0  0  0  0  0  0  0  0  0  0  0  0
   20.4521   -6.7602  -16.6782 C   0  0  0  0  0  0  0  0  0  0  0  0
   21.7028   -6.7557  -15.9101 C   0  0  0  0  0  0  0  0  0  0  0  0
   21.7959   -7.8417  -14.8697 C   0  0  2  0  0  0  0  0  0  0  0  0
   22.0521   -9.0802  -15.5764 N   0  0  0  0  0  0  0  0  0  0  0  0
   20.6081   -7.9917  -14.0383 C   0  0  0  0  0  0  0  0  0  0  0  0
   19.8597   -8.9886  -14.1460 O   0  0  0  0  0  0  0  0  0  0  0  0
   20.4659   -7.0929  -18.0170 C   0  0  0  0  0  0  0  0  0  0  0  0
   19.3264   -7.1138  -18.7917 C   0  0  0  0  0  0  0  0  0  0  0  0
   20.2899   -7.0191  -13.1068 O   0  0  0  0  0  0  0  0  0  0  0  0
  2  1  1  6
  2  3  1  0
  4  2  1  0
  4 13  1  0
  5  4  2  0
  7 17  2  0
  7  6  1  0
  8  7  1  0
  9 10  1  0
  9  8  2  0
 10 16  2  0
 12 11  1  1
 11 10  1  0
 13 12  1  0
 14 15  2  0
 14 12  1  0
 16 17  1  0
 18 19  1  0
 19 20  2  0
 19 29  1  0
 20 21  1  0
 21 22  2  0
 22 23  1  0
 24 23  1  6
 24 25  1  0
 24 26  1  0
 25 14  1  0
 26 30  1  0
 27 26  2  0
 28 22  1  0
 29 28  2  0
M  END
$$$$
