AYY.pdb
     RDKit          3D

 30 31  0  0  1  0  0  0  0  0999 V2000
   36.3087  -30.7222  -17.6221 C   0  0  0  0  0  0  0  0  0  0  0  0
   35.8984  -30.6428  -19.0799 C   0  0  2  0  0  0  0  0  0  0  0  0
   36.8067  -29.8581  -19.8690 N   0  0  0  0  0  0  0  0  0  0  0  0
   34.5210  -30.1304  -19.1560 C   0  0  0  0  0  0  0  0  0  0  0  0
   34.3156  -29.1330  -19.9147 O   0  0  0  0  0  0  0  0  0  0  0  0
   26.2631  -28.8880  -20.8635 O   0  0  0  0  0  0  0  0  0  0  0  0
   27.5843  -29.2607  -20.6522 C   0  0  0  0  0  0  0  0  0  0  0  0
   28.6168  -28.3377  -20.6363 C   0  0  0  0  0  0  0  0  0  0  0  0
   29.9286  -28.7194  -20.4251 C   0  0  0  0  0  0  0  0  0  0  0  0
   30.2405  -30.0444  -20.2232 C   0  0  0  0  0  0  0  0  0  0  0  0
   31.6063  -30.5180  -19.9942 C   0  0  0  0  0  0  0  0  0  0  0  0
   32.0903  -30.2689  -18.5829 C   0  0  2  0  0  0  0  0  0  0  0  0
   33.4599  -30.7148  -18.4201 N   0  0  0  0  0  0  0  0  0  0  0  0
   31.2107  -31.0855  -17.6856 C   0  0  0  0  0  0  0  0  0  0  0  0
   31.0202  -32.3163  -17.8651 O   0  0  0  0  0  0  0  0  0  0  0  0
   29.2088  -30.9602  -20.2398 C   0  0  0  0  0  0  0  0  0  0  0  0
   27.8947  -30.5728  -20.4521 C   0  0  0  0  0  0  0  0  0  0  0  0
   23.4882  -33.8548  -16.0846 O   0  0  0  0  0  0  0  0  0  0  0  0
   24.6809  -33.1733  -16.3536 C   0  0  0  0  0  0  0  0  0  0  0  0
   24.9360  -31.9235  -15.8289 C   0  0  0  0  0  0  0  0  0  0  0  0
   26.1106  -31.2479  -16.0914 C   0  0  0  0  0  0  0  0  0  0  0  0
   27.0882  -31.8029  -16.8991 C   0  0  0  0  0  0  0  0  0  0  0  0
   28.3552  -31.1327  -17.2153 C   0  0  0  0  0  0  0  0  0  0  0  0
   29.3250  -31.0644  -16.0642 C   0  0  2  0  0  0  0  0  0  0  0  0
   30.5487  -30.4846  -16.5791 N   0  0  0  0  0  0  0  0  0  0  0  0
   29.6192  -32.3478  -15.4390 C   0  0  0  0  0  0  0  0  0  0  0  0
   30.7397  -32.8907  -15.5629 O   0  0  0  0  0  0  0  0  0  0  0  0
   26.8207  -33.0530  -17.4174 C   0  0  0  0  0  0  0  0  0  0  0  0
   25.6500  -33.7324  -17.1589 C   0  0  0  0  0  0  0  0  0  0  0  0
   28.6485  -32.9899  -14.6903 O   0  0  0  0  0  0  0  0  0  0  0  0
  2  1  1  1
  2  3  1  0
  4  2  1  0
  4 13  1  0
  5  4  2  0
  7 17  2  0
  7  6  1  0
  8  7  1  0
  9 10  1  0
  9  8  2  0
 10 16  2  0
 12 11  1  6
 11 10  1  0
 13 12  1  0
 14 15  2  0
 14 12  1  0
 16 17  1  0
 18 19  1  0
 19 20  2  0
 19 29  1  0
 20 21  1  0
 21 22  2  0
 22 23  1  0
 24 23  1  6
 24 25  1  0
 24 26  1  0
 25 14  1  0
 26 30  1  0
 27 26  2  0
 28 22  1  0
 29 28  2  0
M  END
$$$$
