AYY.pdb
     RDKit          3D

 30 31  0  0  1  0  0  0  0  0999 V2000
   31.6163  -25.8947  -18.0665 C   0  0  0  0  0  0  0  0  0  0  0  0
   30.3007  -25.1418  -18.0209 C   0  0  2  0  0  0  0  0  0  0  0  0
   30.4546  -23.7837  -17.5786 N   0  0  0  0  0  0  0  0  0  0  0  0
   29.3565  -25.8907  -17.1764 C   0  0  0  0  0  0  0  0  0  0  0  0
   29.3116  -25.5832  -15.9452 O   0  0  0  0  0  0  0  0  0  0  0  0
   24.0954  -22.3590  -15.6857 O   0  0  0  0  0  0  0  0  0  0  0  0
   24.5917  -23.5979  -16.0701 C   0  0  0  0  0  0  0  0  0  0  0  0
   24.4846  -24.7178  -15.2620 C   0  0  0  0  0  0  0  0  0  0  0  0
   24.9821  -25.9464  -15.6544 C   0  0  0  0  0  0  0  0  0  0  0  0
   25.6035  -26.0844  -16.8744 C   0  0  0  0  0  0  0  0  0  0  0  0
   26.1528  -27.3541  -17.3523 C   0  0  0  0  0  0  0  0  0  0  0  0
   27.5637  -27.6077  -16.8695 C   0  0  2  0  0  0  0  0  0  0  0  0
   28.5270  -26.9134  -17.7010 N   0  0  0  0  0  0  0  0  0  0  0  0
   27.7945  -29.0828  -16.9989 C   0  0  0  0  0  0  0  0  0  0  0  0
   28.0881  -29.6265  -18.0950 O   0  0  0  0  0  0  0  0  0  0  0  0
   25.7080  -24.9664  -17.6759 C   0  0  0  0  0  0  0  0  0  0  0  0
   25.2075  -23.7362  -17.2782 C   0  0  0  0  0  0  0  0  0  0  0  0
   29.3474  -37.4325  -14.3055 O   0  0  0  0  0  0  0  0  0  0  0  0
   29.1481  -36.0502  -14.3993 C   0  0  0  0  0  0  0  0  0  0  0  0
   30.1143  -35.2116  -14.9148 C   0  0  0  0  0  0  0  0  0  0  0  0
   29.9221  -33.8481  -15.0092 C   0  0  0  0  0  0  0  0  0  0  0  0
   28.7413  -33.2627  -14.5864 C   0  0  0  0  0  0  0  0  0  0  0  0
   28.4799  -31.8202  -14.6599 C   0  0  0  0  0  0  0  0  0  0  0  0
   27.9577  -31.3515  -15.9933 C   0  0  2  0  0  0  0  0  0  0  0  0
   27.6871  -29.9341  -15.8643 N   0  0  0  0  0  0  0  0  0  0  0  0
   26.7560  -32.0374  -16.4517 C   0  0  0  0  0  0  0  0  0  0  0  0
   26.8233  -33.0427  -17.1937 O   0  0  0  0  0  0  0  0  0  0  0  0
   27.7833  -34.1122  -14.0729 C   0  0  0  0  0  0  0  0  0  0  0  0
   27.9694  -35.4742  -13.9762 C   0  0  0  0  0  0  0  0  0  0  0  0
   25.5090  -31.5781  -16.0660 O   0  0  0  0  0  0  0  0  0  0  0  0
  2  1  1  1
  2  3  1  0
  4  2  1  0
  4 13  1  0
  5  4  2  0
  7 17  2  0
  7  6  1  0
  8  7  1  0
  9 10  1  0
  9  8  2  0
 10 16  2  0
 12 11  1  6
 11 10  1  0
 13 12  1  0
 14 15  2  0
 14 12  1  0
 16 17  1  0
 18 19  1  0
 19 20  2  0
 19 29  1  0
 20 21  1  0
 21 22  2  0
 22 23  1  0
 24 23  1  1
 24 25  1  0
 24 26  1  0
 25 14  1  0
 26 30  1  0
 27 26  2  0
 28 22  1  0
 29 28  2  0
M  END
$$$$
