AYY.pdb
     RDKit          3D

 30 31  0  0  1  0  0  0  0  0999 V2000
   25.7067  -15.7037  -17.6806 C   0  0  0  0  0  0  0  0  0  0  0  0
   24.7069  -14.6095  -17.3600 C   0  0  2  0  0  0  0  0  0  0  0  0
   24.2490  -13.9167  -18.5322 N   0  0  0  0  0  0  0  0  0  0  0  0
   25.3088  -13.6917  -16.3797 C   0  0  0  0  0  0  0  0  0  0  0  0
   26.2485  -14.1497  -15.6590 O   0  0  0  0  0  0  0  0  0  0  0  0
   30.2012   -7.1470  -18.5975 O   0  0  0  0  0  0  0  0  0  0  0  0
   29.3030   -8.1824  -18.3730 C   0  0  0  0  0  0  0  0  0  0  0  0
   29.6112   -9.2630  -17.5633 C   0  0  0  0  0  0  0  0  0  0  0  0
   28.7096  -10.2883  -17.3466 C   0  0  0  0  0  0  0  0  0  0  0  0
   27.4684  -10.2561  -17.9398 C   0  0  0  0  0  0  0  0  0  0  0  0
   26.4665  -11.3068  -17.7542 C   0  0  0  0  0  0  0  0  0  0  0  0
   25.7750  -11.2344  -16.4108 C   0  0  2  0  0  0  0  0  0  0  0  0
   24.8686  -12.3520  -16.2354 N   0  0  0  0  0  0  0  0  0  0  0  0
   24.9765   -9.9663  -16.4158 C   0  0  0  0  0  0  0  0  0  0  0  0
   25.5144   -8.8302  -16.4712 O   0  0  0  0  0  0  0  0  0  0  0  0
   27.1657   -9.1779  -18.7455 C   0  0  0  0  0  0  0  0  0  0  0  0
   28.0731   -8.1518  -18.9600 C   0  0  0  0  0  0  0  0  0  0  0  0
   17.7941   -4.7503  -17.0769 O   0  0  0  0  0  0  0  0  0  0  0  0
   18.6995   -5.8177  -17.0669 C   0  0  0  0  0  0  0  0  0  0  0  0
   18.6809   -6.7750  -16.0741 C   0  0  0  0  0  0  0  0  0  0  0  0
   19.5717   -7.8292  -16.0602 C   0  0  0  0  0  0  0  0  0  0  0  0
   20.5279   -7.9689  -17.0512 C   0  0  0  0  0  0  0  0  0  0  0  0
   21.5019   -9.0662  -17.0889 C   0  0  0  0  0  0  0  0  0  0  0  0
   22.7950   -8.7729  -16.3732 C   0  0  2  0  0  0  0  0  0  0  0  0
   23.5557  -10.0057  -16.3568 N   0  0  0  0  0  0  0  0  0  0  0  0
   22.6382   -8.2787  -15.0109 C   0  0  0  0  0  0  0  0  0  0  0  0
   22.5950   -9.0613  -14.0355 O   0  0  0  0  0  0  0  0  0  0  0  0
   20.5359   -7.0050  -18.0381 C   0  0  0  0  0  0  0  0  0  0  0  0
   19.6492   -5.9503  -18.0572 C   0  0  0  0  0  0  0  0  0  0  0  0
   22.5339   -6.9188  -14.7773 O   0  0  0  0  0  0  0  0  0  0  0  0
  2  1  1  6
  2  3  1  0
  4  2  1  0
  4 13  1  0
  5  4  2  0
  7 17  2  0
  7  6  1  0
  8  7  1  0
  9 10  1  0
  9  8  2  0
 10 16  2  0
 12 11  1  6
 11 10  1  0
 13 12  1  0
 14 15  2  0
 14 12  1  0
 16 17  1  0
 18 19  1  0
 19 20  2  0
 19 29  1  0
 20 21  1  0
 21 22  2  0
 22 23  1  0
 24 23  1  1
 24 25  1  0
 24 26  1  0
 25 14  1  0
 26 30  1  0
 27 26  2  0
 28 22  1  0
 29 28  2  0
M  END
$$$$
