AYY.pdb
     RDKit          3D

 30 31  0  0  1  0  0  0  0  0999 V2000
   24.1423  -13.1574  -16.8177 C   0  0  0  0  0  0  0  0  0  0  0  0
   25.6147  -13.0590  -17.1670 C   0  0  2  0  0  0  0  0  0  0  0  0
   26.4139  -14.0335  -16.4777 N   0  0  0  0  0  0  0  0  0  0  0  0
   26.0728  -11.6860  -16.9015 C   0  0  0  0  0  0  0  0  0  0  0  0
   26.5884  -11.4577  -15.7638 O   0  0  0  0  0  0  0  0  0  0  0  0
   32.2695  -11.5051  -18.9004 O   0  0  0  0  0  0  0  0  0  0  0  0
   31.0624  -10.8210  -18.8361 C   0  0  0  0  0  0  0  0  0  0  0  0
   30.9315   -9.6192  -18.1601 C   0  0  0  0  0  0  0  0  0  0  0  0
   29.7252   -8.9464  -18.1023 C   0  0  0  0  0  0  0  0  0  0  0  0
   28.6126   -9.4647  -18.7245 C   0  0  0  0  0  0  0  0  0  0  0  0
   27.3057   -8.8062  -18.7033 C   0  0  0  0  0  0  0  0  0  0  0  0
   26.4092   -9.3056  -17.5920 C   0  0  2  0  0  0  0  0  0  0  0  0
   25.9502  -10.6532  -17.8646 N   0  0  0  0  0  0  0  0  0  0  0  0
   25.2221   -8.3914  -17.5653 C   0  0  0  0  0  0  0  0  0  0  0  0
   24.0888   -8.7443  -17.9829 O   0  0  0  0  0  0  0  0  0  0  0  0
   28.7477  -10.6619  -19.3966 C   0  0  0  0  0  0  0  0  0  0  0  0
   29.9595  -11.3331  -19.4519 C   0  0  0  0  0  0  0  0  0  0  0  0
   18.3253   -4.2355  -15.0226 O   0  0  0  0  0  0  0  0  0  0  0  0
   19.5388   -4.8982  -15.2406 C   0  0  0  0  0  0  0  0  0  0  0  0
   20.5971   -4.7801  -14.3640 C   0  0  0  0  0  0  0  0  0  0  0  0
   21.7954   -5.4316  -14.5750 C   0  0  0  0  0  0  0  0  0  0  0  0
   21.9845   -6.2368  -15.6849 C   0  0  0  0  0  0  0  0  0  0  0  0
   23.2352   -6.9527  -15.9635 C   0  0  0  0  0  0  0  0  0  0  0  0
   24.1600   -6.2387  -16.9150 C   0  0  2  0  0  0  0  0  0  0  0  0
   25.3394   -7.0679  -17.0570 N   0  0  0  0  0  0  0  0  0  0  0  0
   24.5532   -4.9003  -16.4925 C   0  0  0  0  0  0  0  0  0  0  0  0
   25.5443   -4.7165  -15.7511 O   0  0  0  0  0  0  0  0  0  0  0  0
   20.9185   -6.3464  -16.5537 C   0  0  0  0  0  0  0  0  0  0  0  0
   19.7198   -5.6984  -16.3483 C   0  0  0  0  0  0  0  0  0  0  0  0
   23.8244   -3.8015  -16.9125 O   0  0  0  0  0  0  0  0  0  0  0  0
  2  1  1  1
  2  3  1  0
  4  2  1  0
  4 13  1  0
  5  4  2  0
  7 17  2  0
  7  6  1  0
  8  7  1  0
  9 10  1  0
  9  8  2  0
 10 16  2  0
 12 11  1  6
 11 10  1  0
 13 12  1  0
 14 15  2  0
 14 12  1  0
 16 17  1  0
 18 19  1  0
 19 20  2  0
 19 29  1  0
 20 21  1  0
 21 22  2  0
 22 23  1  0
 24 23  1  1
 24 25  1  0
 24 26  1  0
 25 14  1  0
 26 30  1  0
 27 26  2  0
 28 22  1  0
 29 28  2  0
M  END
$$$$
