AYY.pdb
     RDKit          3D

 30 31  0  0  1  0  0  0  0  0999 V2000
   24.4589  -12.5534  -17.7653 C   0  0  0  0  0  0  0  0  0  0  0  0
   23.9254  -11.9253  -16.4923 C   0  0  2  0  0  0  0  0  0  0  0  0
   23.0765  -12.8146  -15.7494 N   0  0  0  0  0  0  0  0  0  0  0  0
   23.2386  -10.6701  -16.8363 C   0  0  0  0  0  0  0  0  0  0  0  0
   23.9238   -9.7781  -17.4258 O   0  0  0  0  0  0  0  0  0  0  0  0
   20.4667   -9.9263  -23.1202 O   0  0  0  0  0  0  0  0  0  0  0  0
   20.3188   -9.7718  -21.7479 C   0  0  0  0  0  0  0  0  0  0  0  0
   19.8877   -8.5834  -21.1821 C   0  0  0  0  0  0  0  0  0  0  0  0
   19.7439   -8.4404  -19.8146 C   0  0  0  0  0  0  0  0  0  0  0  0
   20.0305   -9.4917  -18.9744 C   0  0  0  0  0  0  0  0  0  0  0  0
   19.9009   -9.4097  -17.5188 C   0  0  0  0  0  0  0  0  0  0  0  0
   21.2232   -9.1888  -16.8183 C   0  0  2  0  0  0  0  0  0  0  0  0
   21.8721  -10.4524  -16.5291 N   0  0  0  0  0  0  0  0  0  0  0  0
   20.9047   -8.5063  -15.5228 C   0  0  0  0  0  0  0  0  0  0  0  0
   20.4138   -9.1193  -14.5397 O   0  0  0  0  0  0  0  0  0  0  0  0
   20.4596  -10.6736  -19.5423 C   0  0  0  0  0  0  0  0  0  0  0  0
   20.6024  -10.8124  -20.9143 C   0  0  0  0  0  0  0  0  0  0  0  0
   24.9409   -2.1380  -16.6216 O   0  0  0  0  0  0  0  0  0  0  0  0
   24.2848   -3.1169  -15.8662 C   0  0  0  0  0  0  0  0  0  0  0  0
   24.5715   -4.4582  -16.0119 C   0  0  0  0  0  0  0  0  0  0  0  0
   23.9271   -5.4268  -15.2692 C   0  0  0  0  0  0  0  0  0  0  0  0
   22.9587   -5.0876  -14.3402 C   0  0  0  0  0  0  0  0  0  0  0  0
   22.2389   -6.0719  -13.5233 C   0  0  0  0  0  0  0  0  0  0  0  0
   20.8998   -6.4802  -14.0805 C   0  0  2  0  0  0  0  0  0  0  0  0
   21.1518   -7.1151  -15.3581 N   0  0  0  0  0  0  0  0  0  0  0  0
   19.9548   -5.3848  -14.2586 C   0  0  0  0  0  0  0  0  0  0  0  0
   19.5521   -4.7080  -13.2862 O   0  0  0  0  0  0  0  0  0  0  0  0
   22.6814   -3.7430  -14.2043 C   0  0  0  0  0  0  0  0  0  0  0  0
   23.3214   -2.7715  -14.9429 C   0  0  0  0  0  0  0  0  0  0  0  0
   19.4855   -5.0763  -15.5232 O   0  0  0  0  0  0  0  0  0  0  0  0
  2  1  1  6
  2  3  1  0
  4  2  1  0
  4 13  1  0
  5  4  2  0
  7 17  2  0
  7  6  1  0
  8  7  1  0
  9 10  1  0
  9  8  2  0
 10 16  2  0
 12 11  1  1
 11 10  1  0
 13 12  1  0
 14 15  2  0
 14 12  1  0
 16 17  1  0
 18 19  1  0
 19 20  2  0
 19 29  1  0
 20 21  1  0
 21 22  2  0
 22 23  1  0
 24 23  1  6
 24 25  1  0
 24 26  1  0
 25 14  1  0
 26 30  1  0
 27 26  2  0
 28 22  1  0
 29 28  2  0
M  END
$$$$
