AYY.pdb
     RDKit          3D

 30 31  0  0  1  0  0  0  0  0999 V2000
   18.5935   -6.9757  -20.6574 C   0  0  0  0  0  0  0  0  0  0  0  0
   19.0818   -8.3264  -20.1706 C   0  0  2  0  0  0  0  0  0  0  0  0
   18.1776   -9.3934  -20.4984 N   0  0  0  0  0  0  0  0  0  0  0  0
   19.3330   -8.2446  -18.7230 C   0  0  0  0  0  0  0  0  0  0  0  0
   18.3816   -7.8267  -17.9931 O   0  0  0  0  0  0  0  0  0  0  0  0
   18.0593  -14.4558  -17.1544 O   0  0  0  0  0  0  0  0  0  0  0  0
   18.8688  -13.3517  -16.9211 C   0  0  0  0  0  0  0  0  0  0  0  0
   18.7770  -12.6027  -15.7596 C   0  0  0  0  0  0  0  0  0  0  0  0
   19.5878  -11.5053  -15.5374 C   0  0  0  0  0  0  0  0  0  0  0  0
   20.5170  -11.1285  -16.4798 C   0  0  0  0  0  0  0  0  0  0  0  0
   21.4065   -9.9786  -16.3100 C   0  0  0  0  0  0  0  0  0  0  0  0
   20.7667   -8.6701  -16.7180 C   0  0  2  0  0  0  0  0  0  0  0  0
   20.5780   -8.6129  -18.1541 N   0  0  0  0  0  0  0  0  0  0  0  0
   21.7248   -7.5897  -16.3174 C   0  0  0  0  0  0  0  0  0  0  0  0
   22.6767   -7.2242  -17.0547 O   0  0  0  0  0  0  0  0  0  0  0  0
   20.6050  -11.8774  -17.6351 C   0  0  0  0  0  0  0  0  0  0  0  0
   19.7898  -12.9773  -17.8537 C   0  0  0  0  0  0  0  0  0  0  0  0
   16.6320   -2.8635  -15.3956 O   0  0  0  0  0  0  0  0  0  0  0  0
   17.9567   -3.3082  -15.4785 C   0  0  0  0  0  0  0  0  0  0  0  0
   18.9162   -2.9007  -14.5754 C   0  0  0  0  0  0  0  0  0  0  0  0
   20.2234   -3.3366  -14.6533 C   0  0  0  0  0  0  0  0  0  0  0  0
   20.6272   -4.2080  -15.6500 C   0  0  0  0  0  0  0  0  0  0  0  0
   22.0019   -4.7043  -15.7850 C   0  0  0  0  0  0  0  0  0  0  0  0
   22.3844   -5.7543  -14.7743 C   0  0  2  0  0  0  0  0  0  0  0  0
   21.5873   -6.9285  -15.0654 N   0  0  0  0  0  0  0  0  0  0  0  0
   22.1856   -5.3626  -13.3845 C   0  0  0  0  0  0  0  0  0  0  0  0
   22.8181   -4.4079  -12.8803 O   0  0  0  0  0  0  0  0  0  0  0  0
   19.6581   -4.6079  -16.5468 C   0  0  0  0  0  0  0  0  0  0  0  0
   18.3515   -4.1761  -16.4740 C   0  0  0  0  0  0  0  0  0  0  0  0
   21.2819   -6.0520  -12.5951 O   0  0  0  0  0  0  0  0  0  0  0  0
  2  1  1  1
  2  3  1  0
  4  2  1  0
  4 13  1  0
  5  4  2  0
  7 17  2  0
  7  6  1  0
  8  7  1  0
  9 10  1  0
  9  8  2  0
 10 16  2  0
 12 11  1  6
 11 10  1  0
 13 12  1  0
 14 15  2  0
 14 12  1  0
 16 17  1  0
 18 19  1  0
 19 20  2  0
 19 29  1  0
 20 21  1  0
 21 22  2  0
 22 23  1  0
 24 23  1  6
 24 25  1  0
 24 26  1  0
 25 14  1  0
 26 30  1  0
 27 26  2  0
 28 22  1  0
 29 28  2  0
M  END
$$$$
