AYY.pdb
     RDKit          3D

 30 31  0  0  1  0  0  0  0  0999 V2000
   28.3715  -22.3344  -15.3659 C   0  0  0  0  0  0  0  0  0  0  0  0
   27.9120  -23.5006  -16.2195 C   0  0  2  0  0  0  0  0  0  0  0  0
   28.4561  -23.4626  -17.5484 N   0  0  0  0  0  0  0  0  0  0  0  0
   26.4407  -23.5287  -16.2290 C   0  0  0  0  0  0  0  0  0  0  0  0
   25.8514  -22.7187  -17.0093 O   0  0  0  0  0  0  0  0  0  0  0  0
   18.0362  -25.9012  -14.8986 O   0  0  0  0  0  0  0  0  0  0  0  0
   19.4234  -25.8533  -14.9463 C   0  0  0  0  0  0  0  0  0  0  0  0
   20.1141  -25.6661  -16.1322 C   0  0  0  0  0  0  0  0  0  0  0  0
   21.4953  -25.6201  -16.1684 C   0  0  0  0  0  0  0  0  0  0  0  0
   22.2237  -25.7614  -15.0095 C   0  0  0  0  0  0  0  0  0  0  0  0
   23.6864  -25.7230  -14.9752 C   0  0  0  0  0  0  0  0  0  0  0  0
   24.2523  -24.3747  -15.3620 C   0  0  2  0  0  0  0  0  0  0  0  0
   25.7006  -24.4162  -15.4081 N   0  0  0  0  0  0  0  0  0  0  0  0
   23.8345  -23.4182  -14.2866 C   0  0  0  0  0  0  0  0  0  0  0  0
   24.1514  -23.5793  -13.0796 O   0  0  0  0  0  0  0  0  0  0  0  0
   21.5316  -25.9476  -13.8307 C   0  0  0  0  0  0  0  0  0  0  0  0
   20.1463  -25.9932  -13.7991 C   0  0  0  0  0  0  0  0  0  0  0  0
   27.9370  -21.2285   -9.9890 O   0  0  0  0  0  0  0  0  0  0  0  0
   26.8568  -20.9931  -10.8476 C   0  0  0  0  0  0  0  0  0  0  0  0
   26.9966  -21.0416  -12.2189 C   0  0  0  0  0  0  0  0  0  0  0  0
   25.9343  -20.8102  -13.0692 C   0  0  0  0  0  0  0  0  0  0  0  0
   24.6749  -20.5177  -12.5750 C   0  0  0  0  0  0  0  0  0  0  0  0
   23.5088  -20.2609  -13.4285 C   0  0  0  0  0  0  0  0  0  0  0  0
   22.5540  -21.4213  -13.5400 C   0  0  2  0  0  0  0  0  0  0  0  0
   23.0502  -22.2738  -14.6010 N   0  0  0  0  0  0  0  0  0  0  0  0
   21.1730  -21.0485  -13.8198 C   0  0  0  0  0  0  0  0  0  0  0  0
   20.6441  -21.2938  -14.9270 O   0  0  0  0  0  0  0  0  0  0  0  0
   24.5485  -20.4722  -11.2020 C   0  0  0  0  0  0  0  0  0  0  0  0
   25.6054  -20.7023  -10.3481 C   0  0  0  0  0  0  0  0  0  0  0  0
   20.4200  -20.4099  -12.8503 O   0  0  0  0  0  0  0  0  0  0  0  0
  2  1  1  1
  2  3  1  0
  4  2  1  0
  4 13  1  0
  5  4  2  0
  7 17  2  0
  7  6  1  0
  8  7  1  0
  9 10  1  0
  9  8  2  0
 10 16  2  0
 12 11  1  1
 11 10  1  0
 13 12  1  0
 14 15  2  0
 14 12  1  0
 16 17  1  0
 18 19  1  0
 19 20  2  0
 19 29  1  0
 20 21  1  0
 21 22  2  0
 22 23  1  0
 24 23  1  6
 24 25  1  0
 24 26  1  0
 25 14  1  0
 26 30  1  0
 27 26  2  0
 28 22  1  0
 29 28  2  0
M  END
$$$$
