AYY.pdb
     RDKit          3D

 30 31  0  0  1  0  0  0  0  0999 V2000
   22.9194  -23.6706  -24.4474 C   0  0  0  0  0  0  0  0  0  0  0  0
   21.5078  -23.9928  -24.8983 C   0  0  2  0  0  0  0  0  0  0  0  0
   21.2169  -23.4882  -26.2115 N   0  0  0  0  0  0  0  0  0  0  0  0
   20.5623  -23.4832  -23.8924 C   0  0  0  0  0  0  0  0  0  0  0  0
   20.7426  -22.2968  -23.4772 O   0  0  0  0  0  0  0  0  0  0  0  0
   13.5200  -20.3217  -20.2811 O   0  0  0  0  0  0  0  0  0  0  0  0
   14.5124  -20.9272  -21.0410 C   0  0  0  0  0  0  0  0  0  0  0  0
   15.7339  -20.3187  -21.2777 C   0  0  0  0  0  0  0  0  0  0  0  0
   16.7149  -20.9304  -22.0358 C   0  0  0  0  0  0  0  0  0  0  0  0
   16.4948  -22.1753  -22.5791 C   0  0  0  0  0  0  0  0  0  0  0  0
   17.4881  -22.8799  -23.3910 C   0  0  0  0  0  0  0  0  0  0  0  0
   18.4536  -23.7004  -22.5647 C   0  0  2  0  0  0  0  0  0  0  0  0
   19.4922  -24.2713  -23.3993 N   0  0  0  0  0  0  0  0  0  0  0  0
   17.6527  -24.8165  -21.9659 C   0  0  0  0  0  0  0  0  0  0  0  0
   17.3238  -25.8386  -22.6218 O   0  0  0  0  0  0  0  0  0  0  0  0
   15.2767  -22.7776  -22.3408 C   0  0  0  0  0  0  0  0  0  0  0  0
   14.2958  -22.1604  -21.5799 C   0  0  0  0  0  0  0  0  0  0  0  0
   14.8843  -30.7459  -23.9700 O   0  0  0  0  0  0  0  0  0  0  0  0
   15.4132  -29.8459  -23.0375 C   0  0  0  0  0  0  0  0  0  0  0  0
   14.6308  -29.2777  -22.0539 C   0  0  0  0  0  0  0  0  0  0  0  0
   15.1480  -28.3899  -21.1323 C   0  0  0  0  0  0  0  0  0  0  0  0
   16.4846  -28.0312  -21.1588 C   0  0  0  0  0  0  0  0  0  0  0  0
   17.0910  -27.0921  -20.2076 C   0  0  0  0  0  0  0  0  0  0  0  0
   16.3573  -25.7826  -20.0755 C   0  0  2  0  0  0  0  0  0  0  0  0
   17.2294  -24.7562  -20.6091 N   0  0  0  0  0  0  0  0  0  0  0  0
   15.9723  -25.4352  -18.7133 C   0  0  0  0  0  0  0  0  0  0  0  0
   15.2465  -26.1908  -18.0292 O   0  0  0  0  0  0  0  0  0  0  0  0
   17.2561  -28.6065  -22.1473 C   0  0  0  0  0  0  0  0  0  0  0  0
   16.7453  -29.4934  -23.0700 C   0  0  0  0  0  0  0  0  0  0  0  0
   16.4114  -24.2487  -18.1528 O   0  0  0  0  0  0  0  0  0  0  0  0
  2  1  1  1
  2  3  1  0
  4  2  1  0
  4 13  1  0
  5  4  2  0
  7 17  2  0
  7  6  1  0
  8  7  1  0
  9 10  1  0
  9  8  2  0
 10 16  2  0
 12 11  1  6
 11 10  1  0
 13 12  1  0
 14 15  2  0
 14 12  1  0
 16 17  1  0
 18 19  1  0
 19 20  2  0
 19 29  1  0
 20 21  1  0
 21 22  2  0
 22 23  1  0
 24 23  1  1
 24 25  1  0
 24 26  1  0
 25 14  1  0
 26 30  1  0
 27 26  2  0
 28 22  1  0
 29 28  2  0
M  END
$$$$
