AYY.pdb
     RDKit          3D

 30 31  0  0  1  0  0  0  0  0999 V2000
   27.2980  -17.7774  -14.6940 C   0  0  0  0  0  0  0  0  0  0  0  0
   27.8888  -19.1394  -14.3845 C   0  0  2  0  0  0  0  0  0  0  0  0
   28.4668  -19.7679  -15.5397 N   0  0  0  0  0  0  0  0  0  0  0  0
   26.8484  -19.9768  -13.7666 C   0  0  0  0  0  0  0  0  0  0  0  0
   26.2033  -20.7576  -14.5325 O   0  0  0  0  0  0  0  0  0  0  0  0
   30.9451  -22.0759   -8.6526 O   0  0  0  0  0  0  0  0  0  0  0  0
   29.6493  -21.7420   -9.0246 C   0  0  0  0  0  0  0  0  0  0  0  0
   28.8200  -20.9881   -8.2108 C   0  0  0  0  0  0  0  0  0  0  0  0
   27.5316  -20.6613   -8.5909 C   0  0  0  0  0  0  0  0  0  0  0  0
   27.0388  -21.0847   -9.8039 C   0  0  0  0  0  0  0  0  0  0  0  0
   25.6858  -20.7756  -10.2687 C   0  0  0  0  0  0  0  0  0  0  0  0
   25.5629  -20.7784  -11.7764 C   0  0  2  0  0  0  0  0  0  0  0  0
   26.5677  -19.9244  -12.3782 N   0  0  0  0  0  0  0  0  0  0  0  0
   24.2085  -20.2187  -12.0896 C   0  0  0  0  0  0  0  0  0  0  0  0
   24.0169  -18.9933  -12.3011 O   0  0  0  0  0  0  0  0  0  0  0  0
   27.8683  -21.8354  -10.6112 C   0  0  0  0  0  0  0  0  0  0  0  0
   29.1598  -22.1607  -10.2259 C   0  0  0  0  0  0  0  0  0  0  0  0
   18.5268  -18.9957  -18.2002 O   0  0  0  0  0  0  0  0  0  0  0  0
   19.4949  -19.3730  -17.2622 C   0  0  0  0  0  0  0  0  0  0  0  0
   19.7235  -20.6965  -16.9484 C   0  0  0  0  0  0  0  0  0  0  0  0
   20.6769  -21.0731  -16.0243 C   0  0  0  0  0  0  0  0  0  0  0  0
   21.4487  -20.1288  -15.3696 C   0  0  0  0  0  0  0  0  0  0  0  0
   22.4754  -20.4679  -14.3770 C   0  0  0  0  0  0  0  0  0  0  0  0
   21.9412  -20.7056  -12.9883 C   0  0  2  0  0  0  0  0  0  0  0  0
   23.0719  -21.0713  -12.1596 N   0  0  0  0  0  0  0  0  0  0  0  0
   20.9169  -21.7386  -12.8986 C   0  0  0  0  0  0  0  0  0  0  0  0
   19.7281  -21.4551  -12.6301 O   0  0  0  0  0  0  0  0  0  0  0  0
   21.2102  -18.8089  -15.6923 C   0  0  0  0  0  0  0  0  0  0  0  0
   20.2597  -18.4269  -16.6141 C   0  0  0  0  0  0  0  0  0  0  0  0
   21.2521  -23.0641  -13.1125 O   0  0  0  0  0  0  0  0  0  0  0  0
  2  1  1  6
  2  3  1  0
  4  2  1  0
  4 13  1  0
  5  4  2  0
  7 17  2  0
  7  6  1  0
  8  7  1  0
  9 10  1  0
  9  8  2  0
 10 16  2  0
 12 11  1  1
 11 10  1  0
 13 12  1  0
 14 15  2  0
 14 12  1  0
 16 17  1  0
 18 19  1  0
 19 20  2  0
 19 29  1  0
 20 21  1  0
 21 22  2  0
 22 23  1  0
 24 23  1  6
 24 25  1  0
 24 26  1  0
 25 14  1  0
 26 30  1  0
 27 26  2  0
 28 22  1  0
 29 28  2  0
M  END
$$$$
