QQQ.pdb
     RDKit          3D

 28 27  0  0  1  0  0  0  0  0999 V2000
   20.4119  -14.3435  -20.0376 N   0  0  0  0  0  0  0  0  0  0  0  0
   19.6789  -15.4837  -19.6430 C   0  0  0  0  0  0  0  0  0  0  0  0
   19.2681  -16.2838  -20.4889 O   0  0  0  0  0  0  0  0  0  0  0  0
   19.4154  -15.6953  -18.1874 C   0  0  0  0  0  0  0  0  0  0  0  0
   20.0343  -14.5732  -17.3990 C   0  0  0  0  0  0  0  0  0  0  0  0
   21.3835  -14.9170  -16.8265 C   0  0  2  0  0  0  0  0  0  0  0  0
   21.2183  -15.9471  -15.8001 N   0  0  0  0  0  0  0  0  0  0  0  0
   22.0009  -13.7040  -16.2545 C   0  0  0  0  0  0  0  0  0  0  0  0
   21.5070  -13.2163  -15.2085 O   0  0  0  0  0  0  0  0  0  0  0  0
   28.0053  -11.5655  -16.8401 N   0  0  0  0  0  0  0  0  0  0  0  0
   27.3426  -10.5283  -16.1160 C   0  0  0  0  0  0  0  0  0  0  0  0
   28.0312   -9.6145  -15.6662 O   0  0  0  0  0  0  0  0  0  0  0  0
   25.9095  -10.6284  -15.9637 C   0  0  0  0  0  0  0  0  0  0  0  0
   25.1800  -11.7989  -16.4728 C   0  0  0  0  0  0  0  0  0  0  0  0
   23.7057  -11.8697  -16.2785 C   0  0  2  0  0  0  0  0  0  0  0  0
   23.1242  -13.0619  -16.8275 N   0  0  0  0  0  0  0  0  0  0  0  0
   22.9601  -10.6279  -16.5430 C   0  0  0  0  0  0  0  0  0  0  0  0
   22.7387  -10.3139  -17.7508 O   0  0  0  0  0  0  0  0  0  0  0  0
   17.5665   -8.7994  -15.2104 N   0  0  0  0  0  0  0  0  0  0  0  0
   18.0613   -7.5322  -15.6047 C   0  0  0  0  0  0  0  0  0  0  0  0
   17.2759   -6.5907  -15.7434 O   0  0  0  0  0  0  0  0  0  0  0  0
   19.5176   -7.4086  -15.8327 C   0  0  0  0  0  0  0  0  0  0  0  0
   20.2896   -8.6708  -15.6763 C   0  0  0  0  0  0  0  0  0  0  0  0
   21.7563   -8.4932  -15.9369 C   0  0  2  0  0  0  0  0  0  0  0  0
   22.4606   -9.7382  -15.5568 N   0  0  0  0  0  0  0  0  0  0  0  0
   22.3201   -7.3485  -15.1924 C   0  0  0  0  0  0  0  0  0  0  0  0
   23.0022   -7.4208  -14.1488 O   0  0  0  0  0  0  0  0  0  0  0  0
   22.0843   -6.0639  -15.6770 O   0  0  0  0  0  0  0  0  0  0  0  0
  2  1  1  0
  2  3  2  0
  4  2  1  0
  5  4  1  0
  6  7  1  1
  6  5  1  0
  8  6  1  0
  9  8  2  0
 11 10  1  0
 11 12  2  0
 13 14  1  0
 13 11  1  0
 15 14  1  6
 15 16  1  0
 16  8  1  0
 17 15  1  0
 17 18  2  0
 19 20  1  0
 20 22  1  0
 20 21  2  0
 22 23  1  0
 24 23  1  1
 24 25  1  0
 25 17  1  0
 26 24  1  0
 27 26  2  0
 28 26  1  0
M  END
$$$$
