QQQ.pdb
     RDKit          3D

 28 27  0  0  1  0  0  0  0  0999 V2000
   30.0681   -8.3568  -17.8562 N   0  0  0  0  0  0  0  0  0  0  0  0
   30.6574   -9.6363  -17.7630 C   0  0  0  0  0  0  0  0  0  0  0  0
   31.8777   -9.7509  -17.6143 O   0  0  0  0  0  0  0  0  0  0  0  0
   29.7734  -10.8381  -17.8481 C   0  0  0  0  0  0  0  0  0  0  0  0
   28.3362  -10.3978  -17.9151 C   0  0  0  0  0  0  0  0  0  0  0  0
   27.3574  -11.5407  -17.8695 C   0  0  2  0  0  0  0  0  0  0  0  0
   27.6080  -12.4297  -19.0047 N   0  0  0  0  0  0  0  0  0  0  0  0
   25.9793  -11.0126  -17.9138 C   0  0  0  0  0  0  0  0  0  0  0  0
   25.5401  -10.5748  -19.0052 O   0  0  0  0  0  0  0  0  0  0  0  0
   20.7337  -13.5377  -17.1987 N   0  0  0  0  0  0  0  0  0  0  0  0
   20.3171  -12.1723  -17.1617 C   0  0  0  0  0  0  0  0  0  0  0  0
   19.1135  -11.9385  -17.2530 O   0  0  0  0  0  0  0  0  0  0  0  0
   21.3414  -11.1634  -17.0203 C   0  0  0  0  0  0  0  0  0  0  0  0
   22.7644  -11.5323  -17.0218 C   0  0  0  0  0  0  0  0  0  0  0  0
   23.7858  -10.4652  -16.8366 C   0  0  2  0  0  0  0  0  0  0  0  0
   25.1268  -10.9752  -16.7850 N   0  0  0  0  0  0  0  0  0  0  0  0
   23.4668   -9.4342  -15.8350 C   0  0  0  0  0  0  0  0  0  0  0  0
   23.7982   -9.6528  -14.6315 O   0  0  0  0  0  0  0  0  0  0  0  0
   22.4572   -3.2267  -16.4019 N   0  0  0  0  0  0  0  0  0  0  0  0
   22.0796   -3.4446  -15.0543 C   0  0  0  0  0  0  0  0  0  0  0  0
   21.7474   -2.4843  -14.3545 O   0  0  0  0  0  0  0  0  0  0  0  0
   22.1067   -4.8365  -14.5542 C   0  0  0  0  0  0  0  0  0  0  0  0
   22.4375   -5.8669  -15.5751 C   0  0  0  0  0  0  0  0  0  0  0  0
   22.5059   -7.2525  -15.0041 C   0  0  2  0  0  0  0  0  0  0  0  0
   22.8131   -8.2022  -16.0970 N   0  0  0  0  0  0  0  0  0  0  0  0
   21.2471   -7.6432  -14.3368 C   0  0  0  0  0  0  0  0  0  0  0  0
   20.3067   -8.2739  -14.8634 O   0  0  0  0  0  0  0  0  0  0  0  0
   21.0689   -7.2882  -13.0015 O   0  0  0  0  0  0  0  0  0  0  0  0
  2  1  1  0
  2  3  2  0
  4  2  1  0
  5  4  1  0
  6  7  1  6
  6  5  1  0
  8  6  1  0
  9  8  2  0
 11 10  1  0
 11 12  2  0
 13 14  1  0
 13 11  1  0
 15 14  1  1
 15 16  1  0
 16  8  1  0
 17 15  1  0
 17 18  2  0
 19 20  1  0
 20 22  1  0
 20 21  2  0
 22 23  1  0
 24 23  1  6
 24 25  1  0
 25 17  1  0
 26 24  1  0
 27 26  2  0
 28 26  1  0
M  END
$$$$
