QQQ.pdb
     RDKit          3D

 28 27  0  0  1  0  0  0  0  0999 V2000
   27.0645  -14.6930  -15.9402 N   0  0  0  0  0  0  0  0  0  0  0  0
   25.8936  -15.4816  -15.9486 C   0  0  0  0  0  0  0  0  0  0  0  0
   24.7823  -14.9465  -16.0058 O   0  0  0  0  0  0  0  0  0  0  0  0
   26.0328  -16.9682  -15.8868 C   0  0  0  0  0  0  0  0  0  0  0  0
   27.4775  -17.3262  -15.6667 C   0  0  0  0  0  0  0  0  0  0  0  0
   27.7342  -18.8096  -15.6733 C   0  0  2  0  0  0  0  0  0  0  0  0
   27.8205  -19.2731  -17.0587 N   0  0  0  0  0  0  0  0  0  0  0  0
   26.6445  -19.5025  -14.9576 C   0  0  0  0  0  0  0  0  0  0  0  0
   25.8496  -20.2134  -15.6198 O   0  0  0  0  0  0  0  0  0  0  0  0
   26.4449  -20.7203   -8.6278 N   0  0  0  0  0  0  0  0  0  0  0  0
   25.2760  -21.3597   -9.1417 C   0  0  0  0  0  0  0  0  0  0  0  0
   24.6046  -22.0353   -8.3643 O   0  0  0  0  0  0  0  0  0  0  0  0
   24.9671  -21.1667  -10.5397 C   0  0  0  0  0  0  0  0  0  0  0  0
   25.8736  -20.4050  -11.4110 C   0  0  0  0  0  0  0  0  0  0  0  0
   25.5112  -20.2211  -12.8432 C   0  0  2  0  0  0  0  0  0  0  0  0
   26.4507  -19.4053  -13.5592 N   0  0  0  0  0  0  0  0  0  0  0  0
   24.0933  -19.9346  -13.1178 C   0  0  0  0  0  0  0  0  0  0  0  0
   23.7269  -18.7217  -13.1452 O   0  0  0  0  0  0  0  0  0  0  0  0
   21.2224  -22.3409  -17.4365 N   0  0  0  0  0  0  0  0  0  0  0  0
   20.9321  -20.9565  -17.3629 C   0  0  0  0  0  0  0  0  0  0  0  0
   20.7367  -20.3216  -18.4026 O   0  0  0  0  0  0  0  0  0  0  0  0
   20.8799  -20.3403  -16.0191 C   0  0  0  0  0  0  0  0  0  0  0  0
   21.2463  -21.2449  -14.8961 C   0  0  0  0  0  0  0  0  0  0  0  0
   21.6967  -20.5024  -13.6727 C   0  0  2  0  0  0  0  0  0  0  0  0
   23.0857  -20.9048  -13.3573 N   0  0  0  0  0  0  0  0  0  0  0  0
   20.8218  -20.7602  -12.5106 C   0  0  0  0  0  0  0  0  0  0  0  0
   21.1594  -21.3384  -11.4564 O   0  0  0  0  0  0  0  0  0  0  0  0
   19.4983  -20.3298  -12.5711 O   0  0  0  0  0  0  0  0  0  0  0  0
  2  1  1  0
  2  3  2  0
  4  2  1  0
  5  4  1  0
  6  7  1  6
  6  5  1  0
  8  6  1  0
  9  8  2  0
 11 10  1  0
 11 12  2  0
 13 14  1  0
 13 11  1  0
 15 14  1  1
 15 16  1  0
 16  8  1  0
 17 15  1  0
 17 18  2  0
 19 20  1  0
 20 22  1  0
 20 21  2  0
 22 23  1  0
 24 23  1  6
 24 25  1  0
 25 17  1  0
 26 24  1  0
 27 26  2  0
 28 26  1  0
M  END
$$$$
