QQQ.pdb
     RDKit          3D

 28 27  0  0  1  0  0  0  0  0999 V2000
   18.4826  -16.3708  -15.5225 N   0  0  0  0  0  0  0  0  0  0  0  0
   18.2413  -14.9801  -15.4991 C   0  0  0  0  0  0  0  0  0  0  0  0
   17.5801  -14.4776  -14.5854 O   0  0  0  0  0  0  0  0  0  0  0  0
   18.8021  -14.1389  -16.5997 C   0  0  0  0  0  0  0  0  0  0  0  0
   19.6528  -13.0468  -16.0102 C   0  0  0  0  0  0  0  0  0  0  0  0
   20.2372  -12.1202  -17.0428 C   0  0  2  0  0  0  0  0  0  0  0  0
   21.1130  -12.8860  -17.9306 N   0  0  0  0  0  0  0  0  0  0  0  0
   20.9890  -11.0423  -16.3699 C   0  0  0  0  0  0  0  0  0  0  0  0
   20.4821  -10.4996  -15.3578 O   0  0  0  0  0  0  0  0  0  0  0  0
   27.2695  -10.2303  -16.3073 N   0  0  0  0  0  0  0  0  0  0  0  0
   26.4541  -11.1966  -15.6436 C   0  0  0  0  0  0  0  0  0  0  0  0
   27.0127  -12.1731  -15.1477 O   0  0  0  0  0  0  0  0  0  0  0  0
   25.0301  -10.9567  -15.6034 C   0  0  0  0  0  0  0  0  0  0  0  0
   24.4565   -9.7387  -16.1941 C   0  0  0  0  0  0  0  0  0  0  0  0
   22.9816   -9.5416  -16.1492 C   0  0  2  0  0  0  0  0  0  0  0  0
   22.2554  -10.5891  -16.8097 N   0  0  0  0  0  0  0  0  0  0  0  0
   22.5050   -8.1761  -16.4254 C   0  0  0  0  0  0  0  0  0  0  0  0
   22.4534   -7.7982  -17.6340 O   0  0  0  0  0  0  0  0  0  0  0  0
   17.4810   -6.2484  -17.1005 N   0  0  0  0  0  0  0  0  0  0  0  0
   18.0141   -4.9414  -16.9833 C   0  0  0  0  0  0  0  0  0  0  0  0
   17.3052   -3.9701  -17.2593 O   0  0  0  0  0  0  0  0  0  0  0  0
   19.4162   -4.8141  -16.5293 C   0  0  0  0  0  0  0  0  0  0  0  0
   20.1169   -6.1023  -16.2779 C   0  0  0  0  0  0  0  0  0  0  0  0
   21.5410   -5.9163  -15.8441 C   0  0  2  0  0  0  0  0  0  0  0  0
   22.0931   -7.2317  -15.4496 N   0  0  0  0  0  0  0  0  0  0  0  0
   21.6620   -4.9627  -14.7223 C   0  0  0  0  0  0  0  0  0  0  0  0
   21.4744   -3.7298  -14.7884 O   0  0  0  0  0  0  0  0  0  0  0  0
   22.0157   -5.4577  -13.4690 O   0  0  0  0  0  0  0  0  0  0  0  0
  2  1  1  0
  2  3  2  0
  4  2  1  0
  5  4  1  0
  6  7  1  6
  6  5  1  0
  8  6  1  0
  9  8  2  0
 11 10  1  0
 11 12  2  0
 13 14  1  0
 13 11  1  0
 15 14  1  6
 15 16  1  0
 16  8  1  0
 17 15  1  0
 17 18  2  0
 19 20  1  0
 20 22  1  0
 20 21  2  0
 22 23  1  0
 24 23  1  1
 24 25  1  0
 25 17  1  0
 26 24  1  0
 27 26  2  0
 28 26  1  0
M  END
$$$$
