QQQ.pdb
     RDKit          3D

 28 27  0  0  1  0  0  0  0  0999 V2000
   26.6342  -17.7121  -18.7429 N   0  0  0  0  0  0  0  0  0  0  0  0
   27.9135  -17.2354  -18.3835 C   0  0  0  0  0  0  0  0  0  0  0  0
   28.5348  -16.4852  -19.1422 O   0  0  0  0  0  0  0  0  0  0  0  0
   28.4914  -17.6589  -17.0720 C   0  0  0  0  0  0  0  0  0  0  0  0
   27.4525  -18.4143  -16.2886 C   0  0  0  0  0  0  0  0  0  0  0  0
   27.9814  -19.6700  -15.6486 C   0  0  2  0  0  0  0  0  0  0  0  0
   28.4955  -20.5580  -16.6922 N   0  0  0  0  0  0  0  0  0  0  0  0
   26.9015  -20.3290  -14.8874 C   0  0  0  0  0  0  0  0  0  0  0  0
   26.0204  -20.9598  -15.5210 O   0  0  0  0  0  0  0  0  0  0  0  0
   26.0042  -20.5884   -8.4326 N   0  0  0  0  0  0  0  0  0  0  0  0
   24.8978  -21.2912   -8.9993 C   0  0  0  0  0  0  0  0  0  0  0  0
   24.1159  -21.8446   -8.2286 O   0  0  0  0  0  0  0  0  0  0  0  0
   24.7777  -21.3017  -10.4389 C   0  0  0  0  0  0  0  0  0  0  0  0
   25.8356  -20.7305  -11.2851 C   0  0  0  0  0  0  0  0  0  0  0  0
   25.6293  -20.6762  -12.7584 C   0  0  2  0  0  0  0  0  0  0  0  0
   26.8096  -20.2850  -13.4760 N   0  0  0  0  0  0  0  0  0  0  0  0
   24.3798  -20.0427  -13.2116 C   0  0  0  0  0  0  0  0  0  0  0  0
   24.4531  -18.8884  -13.7296 O   0  0  0  0  0  0  0  0  0  0  0  0
   22.5941  -20.6564  -18.1857 N   0  0  0  0  0  0  0  0  0  0  0  0
   22.1737  -19.3774  -17.7456 C   0  0  0  0  0  0  0  0  0  0  0  0
   21.8842  -18.5143  -18.5784 O   0  0  0  0  0  0  0  0  0  0  0  0
   22.1058  -19.1458  -16.2862 C   0  0  0  0  0  0  0  0  0  0  0  0
   22.4703  -20.3171  -15.4443 C   0  0  0  0  0  0  0  0  0  0  0  0
   21.9950  -20.1870  -14.0273 C   0  0  2  0  0  0  0  0  0  0  0  0
   23.0838  -20.6134  -13.1199 N   0  0  0  0  0  0  0  0  0  0  0  0
   20.7820  -20.9902  -13.7703 C   0  0  0  0  0  0  0  0  0  0  0  0
   20.7599  -22.1610  -13.3362 O   0  0  0  0  0  0  0  0  0  0  0  0
   19.5403  -20.4132  -14.0269 O   0  0  0  0  0  0  0  0  0  0  0  0
  2  1  1  0
  2  3  2  0
  4  2  1  0
  5  4  1  0
  6  7  1  6
  6  5  1  0
  8  6  1  0
  9  8  2  0
 11 10  1  0
 11 12  2  0
 13 14  1  0
 13 11  1  0
 15 14  1  1
 15 16  1  0
 16  8  1  0
 17 15  1  0
 17 18  2  0
 19 20  1  0
 20 22  1  0
 20 21  2  0
 22 23  1  0
 24 23  1  6
 24 25  1  0
 25 17  1  0
 26 24  1  0
 27 26  2  0
 28 26  1  0
M  END
$$$$
