QQQ.pdb
     RDKit          3D

 28 27  0  0  1  0  0  0  0  0999 V2000
   16.8642  -13.4074  -15.0790 N   0  0  0  0  0  0  0  0  0  0  0  0
   16.4843  -12.6246  -16.1907 C   0  0  0  0  0  0  0  0  0  0  0  0
   15.5408  -12.9745  -16.9060 O   0  0  0  0  0  0  0  0  0  0  0  0
   17.2474  -11.3719  -16.4767 C   0  0  0  0  0  0  0  0  0  0  0  0
   18.3131  -11.1860  -15.4309 C   0  0  0  0  0  0  0  0  0  0  0  0
   19.2221  -10.0175  -15.7040 C   0  0  2  0  0  0  0  0  0  0  0  0
   20.3752  -10.4800  -16.4774 N   0  0  0  0  0  0  0  0  0  0  0  0
   19.6563   -9.4203  -14.4254 C   0  0  0  0  0  0  0  0  0  0  0  0
   20.7043   -9.8534  -13.8869 O   0  0  0  0  0  0  0  0  0  0  0  0
   21.7401   -4.6832  -12.0871 N   0  0  0  0  0  0  0  0  0  0  0  0
   21.7150   -5.0960  -13.4539 C   0  0  0  0  0  0  0  0  0  0  0  0
   22.0749   -4.2838  -14.3038 O   0  0  0  0  0  0  0  0  0  0  0  0
   21.2674   -6.4396  -13.7393 C   0  0  0  0  0  0  0  0  0  0  0  0
   20.8463   -7.3375  -12.6541 C   0  0  0  0  0  0  0  0  0  0  0  0
   19.4183   -7.7510  -12.5740 C   0  0  2  0  0  0  0  0  0  0  0  0
   18.9488   -8.3817  -13.7751 N   0  0  0  0  0  0  0  0  0  0  0  0
   18.4958   -6.7708  -11.9772 C   0  0  0  0  0  0  0  0  0  0  0  0
   17.9210   -5.9484  -12.7514 O   0  0  0  0  0  0  0  0  0  0  0  0
   14.1371   -8.6690   -8.4800 N   0  0  0  0  0  0  0  0  0  0  0  0
   13.8287   -7.2892   -8.3950 C   0  0  0  0  0  0  0  0  0  0  0  0
   12.7622   -6.9363   -7.8847 O   0  0  0  0  0  0  0  0  0  0  0  0
   14.8208   -6.3334   -8.9337 C   0  0  0  0  0  0  0  0  0  0  0  0
   16.0713   -6.9490   -9.4541 C   0  0  0  0  0  0  0  0  0  0  0  0
   16.9669   -5.9595  -10.1393 C   0  0  2  0  0  0  0  0  0  0  0  0
   18.1877   -6.6605  -10.5963 N   0  0  0  0  0  0  0  0  0  0  0  0
   17.3339   -4.8343   -9.2552 C   0  0  0  0  0  0  0  0  0  0  0  0
   16.5452   -3.9881   -8.7844 O   0  0  0  0  0  0  0  0  0  0  0  0
   18.6724   -4.6817   -8.9002 O   0  0  0  0  0  0  0  0  0  0  0  0
  2  1  1  0
  2  3  2  0
  4  2  1  0
  5  4  1  0
  6  7  1  1
  6  5  1  0
  8  6  1  0
  9  8  2  0
 11 10  1  0
 11 12  2  0
 13 14  1  0
 13 11  1  0
 15 14  1  6
 15 16  1  0
 16  8  1  0
 17 15  1  0
 17 18  2  0
 19 20  1  0
 20 22  1  0
 20 21  2  0
 22 23  1  0
 24 23  1  1
 24 25  1  0
 25 17  1  0
 26 24  1  0
 27 26  2  0
 28 26  1  0
M  END
$$$$
