QQQ.pdb
     RDKit          3D

 28 27  0  0  1  0  0  0  0  0999 V2000
   29.3245  -34.1073  -24.2258 N   0  0  0  0  0  0  0  0  0  0  0  0
   28.2007  -33.7469  -23.4510 C   0  0  0  0  0  0  0  0  0  0  0  0
   27.1098  -34.2917  -23.6446 O   0  0  0  0  0  0  0  0  0  0  0  0
   28.3644  -32.6979  -22.3994 C   0  0  0  0  0  0  0  0  0  0  0  0
   29.7973  -32.2402  -22.3687 C   0  0  0  0  0  0  0  0  0  0  0  0
   30.0739  -31.2100  -21.3064 C   0  0  2  0  0  0  0  0  0  0  0  0
   31.5068  -30.9129  -21.2908 N   0  0  0  0  0  0  0  0  0  0  0  0
   29.6324  -31.7229  -19.9942 C   0  0  0  0  0  0  0  0  0  0  0  0
   30.5026  -31.9719  -19.1244 O   0  0  0  0  0  0  0  0  0  0  0  0
   28.9581  -29.9205  -15.5552 N   0  0  0  0  0  0  0  0  0  0  0  0
   27.9051  -30.7746  -15.1071 C   0  0  0  0  0  0  0  0  0  0  0  0
   27.7685  -30.9268  -13.8948 O   0  0  0  0  0  0  0  0  0  0  0  0
   27.0761  -31.3992  -16.1119 C   0  0  0  0  0  0  0  0  0  0  0  0
   27.3455  -31.1930  -17.5423 C   0  0  0  0  0  0  0  0  0  0  0  0
   27.8423  -32.3375  -18.3544 C   0  0  2  0  0  0  0  0  0  0  0  0
   28.2743  -31.9483  -19.6670 N   0  0  0  0  0  0  0  0  0  0  0  0
   27.0340  -33.5669  -18.2980 C   0  0  0  0  0  0  0  0  0  0  0  0
   26.2692  -33.8203  -19.2763 O   0  0  0  0  0  0  0  0  0  0  0  0
   27.2593  -38.5614  -14.3200 N   0  0  0  0  0  0  0  0  0  0  0  0
   26.0527  -38.7973  -15.0233 C   0  0  0  0  0  0  0  0  0  0  0  0
   25.3851  -39.8017  -14.7627 O   0  0  0  0  0  0  0  0  0  0  0  0
   25.6557  -37.8082  -16.0491 C   0  0  0  0  0  0  0  0  0  0  0  0
   26.5458  -36.6210  -16.1579 C   0  0  0  0  0  0  0  0  0  0  0  0
   26.1380  -35.6855  -17.2576 C   0  0  2  0  0  0  0  0  0  0  0  0
   27.0323  -34.5064  -17.2344 N   0  0  0  0  0  0  0  0  0  0  0  0
   24.7313  -35.2529  -17.1284 C   0  0  0  0  0  0  0  0  0  0  0  0
   24.3366  -34.2109  -16.5643 O   0  0  0  0  0  0  0  0  0  0  0  0
   23.7380  -36.0615  -17.6761 O   0  0  0  0  0  0  0  0  0  0  0  0
  2  1  1  0
  2  3  2  0
  4  2  1  0
  5  4  1  0
  6  7  1  1
  6  5  1  0
  8  6  1  0
  9  8  2  0
 11 10  1  0
 11 12  2  0
 13 14  1  0
 13 11  1  0
 15 14  1  6
 15 16  1  0
 16  8  1  0
 17 15  1  0
 17 18  2  0
 19 20  1  0
 20 22  1  0
 20 21  2  0
 22 23  1  0
 24 23  1  1
 24 25  1  0
 25 17  1  0
 26 24  1  0
 27 26  2  0
 28 26  1  0
M  END
$$$$
