QQQ.pdb
     RDKit          3D

 28 27  0  0  1  0  0  0  0  0999 V2000
   18.0320  -14.5449  -18.3874 N   0  0  0  0  0  0  0  0  0  0  0  0
   18.7154  -14.8783  -19.5769 C   0  0  0  0  0  0  0  0  0  0  0  0
   18.1767  -15.5959  -20.4250 O   0  0  0  0  0  0  0  0  0  0  0  0
   20.0962  -14.3445  -19.7812 C   0  0  0  0  0  0  0  0  0  0  0  0
   20.4685  -13.4635  -18.6197 C   0  0  0  0  0  0  0  0  0  0  0  0
   21.8538  -12.8842  -18.7278 C   0  0  2  0  0  0  0  0  0  0  0  0
   22.8342  -13.9623  -18.5929 N   0  0  0  0  0  0  0  0  0  0  0  0
   22.0474  -11.8674  -17.6749 C   0  0  0  0  0  0  0  0  0  0  0  0
   22.2972  -12.2540  -16.5071 O   0  0  0  0  0  0  0  0  0  0  0  0
   25.2904   -6.6357  -17.6784 N   0  0  0  0  0  0  0  0  0  0  0  0
   25.5190   -8.0072  -18.0035 C   0  0  0  0  0  0  0  0  0  0  0  0
   26.6088   -8.3066  -18.4876 O   0  0  0  0  0  0  0  0  0  0  0  0
   24.4518   -8.9446  -17.7404 C   0  0  0  0  0  0  0  0  0  0  0  0
   23.1711   -8.4873  -17.1819 C   0  0  0  0  0  0  0  0  0  0  0  0
   22.1159   -9.4934  -16.8808 C   0  0  2  0  0  0  0  0  0  0  0  0
   21.9653  -10.4756  -17.9169 N   0  0  0  0  0  0  0  0  0  0  0  0
   20.8574   -8.9629  -16.3305 C   0  0  0  0  0  0  0  0  0  0  0  0
   19.8584   -8.8801  -17.1059 O   0  0  0  0  0  0  0  0  0  0  0  0
   17.6996  -10.0951  -11.2864 N   0  0  0  0  0  0  0  0  0  0  0  0
   16.9094   -9.0606  -11.8448 C   0  0  0  0  0  0  0  0  0  0  0  0
   15.7927   -8.8290  -11.3741 O   0  0  0  0  0  0  0  0  0  0  0  0
   17.4789   -8.3045  -12.9815 C   0  0  0  0  0  0  0  0  0  0  0  0
   18.7864   -8.8079  -13.4819 C   0  0  0  0  0  0  0  0  0  0  0  0
   19.3673   -7.9465  -14.5641 C   0  0  2  0  0  0  0  0  0  0  0  0
   20.6580   -8.5294  -14.9940 N   0  0  0  0  0  0  0  0  0  0  0  0
   19.5681   -6.5521  -14.1191 C   0  0  0  0  0  0  0  0  0  0  0  0
   20.6577   -6.0423  -13.7839 O   0  0  0  0  0  0  0  0  0  0  0  0
   18.4591   -5.7110  -14.0594 O   0  0  0  0  0  0  0  0  0  0  0  0
  2  1  1  0
  2  3  2  0
  4  2  1  0
  5  4  1  0
  6  7  1  1
  6  5  1  0
  8  6  1  0
  9  8  2  0
 11 10  1  0
 11 12  2  0
 13 14  1  0
 13 11  1  0
 15 14  1  6
 15 16  1  0
 16  8  1  0
 17 15  1  0
 17 18  2  0
 19 20  1  0
 20 22  1  0
 20 21  2  0
 22 23  1  0
 24 23  1  1
 24 25  1  0
 25 17  1  0
 26 24  1  0
 27 26  2  0
 28 26  1  0
M  END
$$$$
