QQQ.pdb
     RDKit          3D

 28 27  0  0  1  0  0  0  0  0999 V2000
   16.3198  -14.6761  -15.1094 N   0  0  0  0  0  0  0  0  0  0  0  0
   16.8560  -15.3799  -16.2095 C   0  0  0  0  0  0  0  0  0  0  0  0
   16.3607  -16.4542  -16.5632 O   0  0  0  0  0  0  0  0  0  0  0  0
   18.0285  -14.7959  -16.9287 C   0  0  0  0  0  0  0  0  0  0  0  0
   18.3897  -13.4748  -16.3057 C   0  0  0  0  0  0  0  0  0  0  0  0
   19.6426  -12.8663  -16.8769 C   0  0  2  0  0  0  0  0  0  0  0  0
   20.7755  -13.7466  -16.5884 N   0  0  0  0  0  0  0  0  0  0  0  0
   19.8559  -11.5299  -16.2867 C   0  0  0  0  0  0  0  0  0  0  0  0
   20.0745  -11.4474  -15.0534 O   0  0  0  0  0  0  0  0  0  0  0  0
   23.9682   -7.3509  -17.1727 N   0  0  0  0  0  0  0  0  0  0  0  0
   23.0762   -6.6484  -16.3066 C   0  0  0  0  0  0  0  0  0  0  0  0
   23.4933   -5.6292  -15.7601 O   0  0  0  0  0  0  0  0  0  0  0  0
   21.7469   -7.1875  -16.1345 C   0  0  0  0  0  0  0  0  0  0  0  0
   21.3749   -8.4757  -16.7373 C   0  0  0  0  0  0  0  0  0  0  0  0
   20.0242   -9.0374  -16.4610 C   0  0  2  0  0  0  0  0  0  0  0  0
   19.8263  -10.3345  -17.0434 N   0  0  0  0  0  0  0  0  0  0  0  0
   18.8952   -8.1038  -16.6083 C   0  0  0  0  0  0  0  0  0  0  0  0
   18.0735   -8.3096  -17.5509 O   0  0  0  0  0  0  0  0  0  0  0  0
   14.0026   -8.8191  -15.4229 N   0  0  0  0  0  0  0  0  0  0  0  0
   13.7496   -7.4256  -15.4012 C   0  0  0  0  0  0  0  0  0  0  0  0
   12.5892   -7.0214  -15.2894 O   0  0  0  0  0  0  0  0  0  0  0  0
   14.9125   -6.5187  -15.5170 C   0  0  0  0  0  0  0  0  0  0  0  0
   16.2324   -7.1966  -15.6250 C   0  0  0  0  0  0  0  0  0  0  0  0
   17.3611   -6.2393  -15.8708 C   0  0  2  0  0  0  0  0  0  0  0  0
   18.6398   -6.9793  -15.7812 N   0  0  0  0  0  0  0  0  0  0  0  0
   17.3601   -5.1178  -14.9092 C   0  0  0  0  0  0  0  0  0  0  0  0
   18.0134   -5.0668  -13.8461 O   0  0  0  0  0  0  0  0  0  0  0  0
   16.5685   -4.0065  -15.1904 O   0  0  0  0  0  0  0  0  0  0  0  0
  2  1  1  0
  2  3  2  0
  4  2  1  0
  5  4  1  0
  6  7  1  1
  6  5  1  0
  8  6  1  0
  9  8  2  0
 11 10  1  0
 11 12  2  0
 13 14  1  0
 13 11  1  0
 15 14  1  6
 15 16  1  0
 16  8  1  0
 17 15  1  0
 17 18  2  0
 19 20  1  0
 20 22  1  0
 20 21  2  0
 22 23  1  0
 24 23  1  1
 24 25  1  0
 25 17  1  0
 26 24  1  0
 27 26  2  0
 28 26  1  0
M  END
$$$$
