QQQ.pdb
     RDKit          3D

 28 27  0  0  1  0  0  0  0  0999 V2000
   29.2635  -19.7681  -20.0152 N   0  0  0  0  0  0  0  0  0  0  0  0
   29.3740  -18.3629  -19.9356 C   0  0  0  0  0  0  0  0  0  0  0  0
   30.0409  -17.7421  -20.7688 O   0  0  0  0  0  0  0  0  0  0  0  0
   28.6687  -17.6525  -18.8261 C   0  0  0  0  0  0  0  0  0  0  0  0
   27.9989  -18.6609  -17.9328 C   0  0  0  0  0  0  0  0  0  0  0  0
   27.2297  -18.0382  -16.7984 C   0  0  2  0  0  0  0  0  0  0  0  0
   28.1484  -17.2539  -15.9722 N   0  0  0  0  0  0  0  0  0  0  0  0
   26.5837  -19.0983  -15.9991 C   0  0  0  0  0  0  0  0  0  0  0  0
   26.4711  -20.2431  -16.5015 O   0  0  0  0  0  0  0  0  0  0  0  0
   26.5051  -20.0898   -9.7554 N   0  0  0  0  0  0  0  0  0  0  0  0
   25.9013  -21.2509  -10.3269 C   0  0  0  0  0  0  0  0  0  0  0  0
   25.6288  -22.1837   -9.5738 O   0  0  0  0  0  0  0  0  0  0  0  0
   25.6548  -21.2455  -11.7503 C   0  0  0  0  0  0  0  0  0  0  0  0
   26.0815  -20.1110  -12.5823 C   0  0  0  0  0  0  0  0  0  0  0  0
   25.4568  -19.9236  -13.9206 C   0  0  2  0  0  0  0  0  0  0  0  0
   26.0838  -18.8879  -14.6921 N   0  0  0  0  0  0  0  0  0  0  0  0
   23.9848  -19.9258  -13.9511 C   0  0  0  0  0  0  0  0  0  0  0  0
   23.3827  -18.8551  -13.6395 O   0  0  0  0  0  0  0  0  0  0  0  0
   21.2126  -20.6712   -9.7205 N   0  0  0  0  0  0  0  0  0  0  0  0
   20.0517  -20.9300  -10.4896 C   0  0  0  0  0  0  0  0  0  0  0  0
   18.9581  -21.0212   -9.9255 O   0  0  0  0  0  0  0  0  0  0  0  0
   20.2205  -21.0798  -11.9516 C   0  0  0  0  0  0  0  0  0  0  0  0
   21.6284  -21.0400  -12.4309 C   0  0  0  0  0  0  0  0  0  0  0  0
   21.7361  -21.0732  -13.9269 C   0  0  2  0  0  0  0  0  0  0  0  0
   23.1674  -21.0318  -14.3013 N   0  0  0  0  0  0  0  0  0  0  0  0
   21.0168  -19.9503  -14.5626 C   0  0  0  0  0  0  0  0  0  0  0  0
   21.5454  -18.9872  -15.1564 O   0  0  0  0  0  0  0  0  0  0  0  0
   19.6248  -19.9417  -14.5087 O   0  0  0  0  0  0  0  0  0  0  0  0
  2  1  1  0
  2  3  2  0
  4  2  1  0
  5  4  1  0
  6  7  1  1
  6  5  1  0
  8  6  1  0
  9  8  2  0
 11 10  1  0
 11 12  2  0
 13 14  1  0
 13 11  1  0
 15 14  1  1
 15 16  1  0
 16  8  1  0
 17 15  1  0
 17 18  2  0
 19 20  1  0
 20 22  1  0
 20 21  2  0
 22 23  1  0
 24 23  1  1
 24 25  1  0
 25 17  1  0
 26 24  1  0
 27 26  2  0
 28 26  1  0
M  END
$$$$
