QQQ.pdb
     RDKit          3D

 28 27  0  0  1  0  0  0  0  0999 V2000
   21.6751  -26.8758  -14.1405 N   0  0  0  0  0  0  0  0  0  0  0  0
   21.8009  -28.2749  -14.0003 C   0  0  0  0  0  0  0  0  0  0  0  0
   22.6115  -28.8999  -14.6907 O   0  0  0  0  0  0  0  0  0  0  0  0
   20.9349  -28.9739  -13.0030 C   0  0  0  0  0  0  0  0  0  0  0  0
   20.1192  -27.9581  -12.2503 C   0  0  0  0  0  0  0  0  0  0  0  0
   19.2567  -28.5616  -11.1742 C   0  0  2  0  0  0  0  0  0  0  0  0
   18.4639  -29.6482  -11.7508 N   0  0  0  0  0  0  0  0  0  0  0  0
   18.3789  -27.5207  -10.6031 C   0  0  0  0  0  0  0  0  0  0  0  0
   17.3881  -27.1388  -11.2727 O   0  0  0  0  0  0  0  0  0  0  0  0
   17.8709  -25.5312   -4.4828 N   0  0  0  0  0  0  0  0  0  0  0  0
   16.9863  -24.6777   -5.2096 C   0  0  0  0  0  0  0  0  0  0  0  0
   16.2837  -23.9006   -4.5663 O   0  0  0  0  0  0  0  0  0  0  0  0
   16.9806  -24.7900   -6.6499 C   0  0  0  0  0  0  0  0  0  0  0  0
   17.8423  -25.7675   -7.3306 C   0  0  0  0  0  0  0  0  0  0  0  0
   17.7786  -25.8745   -8.8141 C   0  0  2  0  0  0  0  0  0  0  0  0
   18.5990  -26.9306   -9.3359 N   0  0  0  0  0  0  0  0  0  0  0  0
   17.8433  -24.6040   -9.5555 C   0  0  0  0  0  0  0  0  0  0  0  0
   18.9815  -24.1940   -9.9331 O   0  0  0  0  0  0  0  0  0  0  0  0
   19.0725  -20.9154  -14.0945 N   0  0  0  0  0  0  0  0  0  0  0  0
   18.8036  -22.2982  -13.9465 C   0  0  0  0  0  0  0  0  0  0  0  0
   18.6832  -23.0037  -14.9515 O   0  0  0  0  0  0  0  0  0  0  0  0
   18.6792  -22.8261  -12.5703 C   0  0  0  0  0  0  0  0  0  0  0  0
   17.3104  -23.2626  -12.1837 C   0  0  0  0  0  0  0  0  0  0  0  0
   16.8632  -22.6862  -10.8728 C   0  0  2  0  0  0  0  0  0  0  0  0
   16.7335  -23.7854   -9.8901 N   0  0  0  0  0  0  0  0  0  0  0  0
   15.5808  -21.9624  -10.9906 C   0  0  0  0  0  0  0  0  0  0  0  0
   14.4860  -22.3349  -10.5192 O   0  0  0  0  0  0  0  0  0  0  0  0
   15.5647  -20.7545  -11.6844 O   0  0  0  0  0  0  0  0  0  0  0  0
  2  1  1  0
  2  3  2  0
  4  2  1  0
  5  4  1  0
  6  7  1  6
  6  5  1  0
  8  6  1  0
  9  8  2  0
 11 10  1  0
 11 12  2  0
 13 14  1  0
 13 11  1  0
 15 14  1  1
 15 16  1  0
 16  8  1  0
 17 15  1  0
 17 18  2  0
 19 20  1  0
 20 22  1  0
 20 21  2  0
 22 23  1  0
 24 23  1  6
 24 25  1  0
 25 17  1  0
 26 24  1  0
 27 26  2  0
 28 26  1  0
M  END
$$$$
