PPV.pdb
     RDKit          3D

 22 23  0  0  1  0  0  0  0  0999 V2000
   16.9955  -18.9409    3.0664 N   0  0  0  0  0  0  0  0  0  0  0  0
   15.7767  -19.6866    3.0311 C   0  0  0  0  0  0  0  0  0  0  0  0
   14.6870  -18.8055    3.5768 C   0  0  0  0  0  0  0  0  0  0  0  0
   15.5034  -17.7586    4.3476 C   0  0  0  0  0  0  0  0  0  0  0  0
   16.6634  -17.5558    3.3681 C   0  0  1  0  0  0  0  0  0  0  0  0
   17.7589  -16.8988    4.1600 C   0  0  0  0  0  0  0  0  0  0  0  0
   18.3853  -17.7000    4.9294 O   0  0  0  0  0  0  0  0  0  0  0  0
   18.0456  -15.5466    4.0490 N   0  0  0  0  0  0  0  0  0  0  0  0
   17.8009  -14.7810    2.8065 C   0  0  0  0  0  0  0  0  0  0  0  0
   17.4294  -13.3957    3.2751 C   0  0  0  0  0  0  0  0  0  0  0  0
   17.4988  -13.4827    4.7779 C   0  0  0  0  0  0  0  0  0  0  0  0
   18.5781  -14.5883    4.9263 C   0  0  1  0  0  0  0  0  0  0  0  0
   18.8020  -14.8832    6.3231 C   0  0  0  0  0  0  0  0  0  0  0  0
   17.8831  -15.1203    7.1098 O   0  0  0  0  0  0  0  0  0  0  0  0
   22.7265  -15.7657    7.9862 C   0  0  0  0  0  0  0  0  0  0  0  0
   21.4254  -16.4260    8.3397 C   0  0  2  0  0  0  0  0  0  0  0  0
   21.1649  -17.6090    7.4127 C   0  0  0  0  0  0  0  0  0  0  0  0
   20.3008  -15.4151    8.2505 C   0  0  2  0  0  0  0  0  0  0  0  0
   20.1292  -14.9218    6.9023 N   0  0  0  0  0  0  0  0  0  0  0  0
   20.6660  -14.2864    9.1488 C   0  0  0  0  0  0  0  0  0  0  0  0
   21.1183  -13.2126    8.6784 O   0  0  0  0  0  0  0  0  0  0  0  0
   20.4936  -14.4547   10.5074 O   0  0  0  0  0  0  0  0  0  0  0  0
  1  5  1  0
  2  1  1  0
  3  2  1  0
  3  4  1  0
  4  5  1  0
  5  6  1  1
  6  7  2  0
  8  6  1  0
  9  8  1  0
 10 11  1  0
 10  9  1  0
 11 12  1  0
 12  8  1  0
 12 13  1  1
 13 19  1  0
 13 14  2  0
 16 15  1  6
 17 16  1  0
 18 16  1  0
 18 19  1  6
 20 22  1  0
 20 18  1  0
 21 20  2  0
M  END
$$$$
