PPV.pdb
     RDKit          3D

 22 23  0  0  1  0  0  0  0  0999 V2000
   28.3436  -21.3401  -15.7251 N   0  0  0  0  0  0  0  0  0  0  0  0
   29.0876  -21.9185  -16.7996 C   0  0  0  0  0  0  0  0  0  0  0  0
   28.9529  -21.0086  -17.9893 C   0  0  0  0  0  0  0  0  0  0  0  0
   27.7030  -20.2013  -17.6116 C   0  0  0  0  0  0  0  0  0  0  0  0
   27.9680  -19.9893  -16.1179 C   0  0  1  0  0  0  0  0  0  0  0  0
   26.6458  -19.6012  -15.5178 C   0  0  0  0  0  0  0  0  0  0  0  0
   25.8476  -20.5832  -15.3599 O   0  0  0  0  0  0  0  0  0  0  0  0
   26.3427  -18.2923  -15.1745 N   0  0  0  0  0  0  0  0  0  0  0  0
   27.3669  -17.3388  -14.6932 C   0  0  0  0  0  0  0  0  0  0  0  0
   26.9178  -15.9961  -15.2147 C   0  0  0  0  0  0  0  0  0  0  0  0
   25.6445  -16.2968  -15.9624 C   0  0  0  0  0  0  0  0  0  0  0  0
   25.1594  -17.5367  -15.1644 C   0  0  1  0  0  0  0  0  0  0  0  0
   23.9317  -18.0463  -15.7314 C   0  0  0  0  0  0  0  0  0  0  0  0
   23.7369  -18.1149  -16.9466 O   0  0  0  0  0  0  0  0  0  0  0  0
   21.1390  -20.3642  -13.5212 C   0  0  0  0  0  0  0  0  0  0  0  0
   21.2997  -20.4231  -15.0127 C   0  0  2  0  0  0  0  0  0  0  0  0
   22.3752  -21.4375  -15.3880 C   0  0  0  0  0  0  0  0  0  0  0  0
   21.6501  -19.0474  -15.5415 C   0  0  2  0  0  0  0  0  0  0  0  0
   22.8361  -18.5158  -14.9081 N   0  0  0  0  0  0  0  0  0  0  0  0
   20.4902  -18.1645  -15.2427 C   0  0  0  0  0  0  0  0  0  0  0  0
   19.4122  -18.2848  -15.8768 O   0  0  0  0  0  0  0  0  0  0  0  0
   20.6345  -17.2144  -14.2525 O   0  0  0  0  0  0  0  0  0  0  0  0
  1  5  1  0
  2  1  1  0
  3  2  1  0
  3  4  1  0
  4  5  1  0
  5  6  1  1
  6  7  2  0
  8  6  1  0
  9  8  1  0
 10 11  1  0
 10  9  1  0
 11 12  1  0
 12  8  1  0
 12 13  1  6
 13 19  1  0
 13 14  2  0
 16 15  1  1
 17 16  1  0
 18 16  1  0
 18 19  1  1
 20 22  1  0
 20 18  1  0
 21 20  2  0
M  END
$$$$
