PPV.pdb
     RDKit          3D

 22 23  0  0  1  0  0  0  0  0999 V2000
   25.5696  -20.3109   -9.8160 N   0  0  0  0  0  0  0  0  0  0  0  0
   24.4348  -20.7381   -9.0593 C   0  0  0  0  0  0  0  0  0  0  0  0
   23.3862  -21.2019  -10.0322 C   0  0  0  0  0  0  0  0  0  0  0  0
   23.8564  -20.5256  -11.3277 C   0  0  0  0  0  0  0  0  0  0  0  0
   25.3689  -20.7283  -11.1964 C   0  0  1  0  0  0  0  0  0  0  0  0
   25.9979  -19.7530  -12.1515 C   0  0  0  0  0  0  0  0  0  0  0  0
   25.6454  -18.5435  -11.9537 O   0  0  0  0  0  0  0  0  0  0  0  0
   26.8771  -20.1519  -13.1469 N   0  0  0  0  0  0  0  0  0  0  0  0
   27.8827  -21.2175  -12.9397 C   0  0  0  0  0  0  0  0  0  0  0  0
   28.0057  -21.8966  -14.2815 C   0  0  0  0  0  0  0  0  0  0  0  0
   27.0447  -21.1448  -15.1658 C   0  0  0  0  0  0  0  0  0  0  0  0
   27.0882  -19.7545  -14.4769 C   0  0  1  0  0  0  0  0  0  0  0  0
   26.1916  -18.8384  -15.1441 C   0  0  0  0  0  0  0  0  0  0  0  0
   24.9977  -19.0868  -15.3241 O   0  0  0  0  0  0  0  0  0  0  0  0
   26.0930  -14.8587  -14.6210 C   0  0  0  0  0  0  0  0  0  0  0  0
   26.0711  -15.2087  -16.0808 C   0  0  2  0  0  0  0  0  0  0  0  0
   25.1105  -14.2902  -16.8294 C   0  0  0  0  0  0  0  0  0  0  0  0
   25.6698  -16.6595  -16.2504 C   0  0  2  0  0  0  0  0  0  0  0  0
   26.6336  -17.5557  -15.6518 N   0  0  0  0  0  0  0  0  0  0  0  0
   25.5966  -16.9162  -17.7143 C   0  0  0  0  0  0  0  0  0  0  0  0
   26.6441  -17.0323  -18.3985 O   0  0  0  0  0  0  0  0  0  0  0  0
   24.3490  -17.0221  -18.2942 O   0  0  0  0  0  0  0  0  0  0  0  0
  1  5  1  0
  2  1  1  0
  3  2  1  0
  3  4  1  0
  4  5  1  0
  5  6  1  6
  6  7  2  0
  8  6  1  0
  9  8  1  0
 10 11  1  0
 10  9  1  0
 11 12  1  0
 12  8  1  0
 12 13  1  6
 13 19  1  0
 13 14  2  0
 16 15  1  1
 17 16  1  0
 18 16  1  0
 18 19  1  6
 20 22  1  0
 20 18  1  0
 21 20  2  0
M  END
$$$$
