PPV.pdb
     RDKit          3D

 22 23  0  0  1  0  0  0  0  0999 V2000
   26.1241  -18.6687  -17.4419 N   0  0  0  0  0  0  0  0  0  0  0  0
   26.1801  -17.4262  -18.1461 C   0  0  0  0  0  0  0  0  0  0  0  0
   27.0848  -16.5052  -17.3748 C   0  0  0  0  0  0  0  0  0  0  0  0
   27.0872  -17.1729  -15.9924 C   0  0  0  0  0  0  0  0  0  0  0  0
   27.1520  -18.6448  -16.4111 C   0  0  1  0  0  0  0  0  0  0  0  0
   26.7247  -19.4335  -15.2051 C   0  0  0  0  0  0  0  0  0  0  0  0
   25.4838  -19.3209  -14.9335 O   0  0  0  0  0  0  0  0  0  0  0  0
   27.6125  -20.2054  -14.4710 N   0  0  0  0  0  0  0  0  0  0  0  0
   28.8148  -20.8238  -15.0728 C   0  0  0  0  0  0  0  0  0  0  0  0
   29.8459  -20.8116  -13.9714 C   0  0  0  0  0  0  0  0  0  0  0  0
   29.1327  -20.1792  -12.8042 C   0  0  0  0  0  0  0  0  0  0  0  0
   27.6752  -20.6050  -13.1265 C   0  0  1  0  0  0  0  0  0  0  0  0
   26.7686  -20.0714  -12.1358 C   0  0  0  0  0  0  0  0  0  0  0  0
   26.7689  -18.8847  -11.8025 O   0  0  0  0  0  0  0  0  0  0  0  0
   23.1173  -21.9171  -10.8802 C   0  0  0  0  0  0  0  0  0  0  0  0
   23.4672  -20.4590  -10.8064 C   0  0  2  0  0  0  0  0  0  0  0  0
   23.1516  -19.7727  -12.1316 C   0  0  0  0  0  0  0  0  0  0  0  0
   24.9329  -20.3043  -10.4565 C   0  0  2  0  0  0  0  0  0  0  0  0
   25.7889  -20.8970  -11.4597 N   0  0  0  0  0  0  0  0  0  0  0  0
   25.1392  -20.9978   -9.1562 C   0  0  0  0  0  0  0  0  0  0  0  0
   24.6460  -20.5353   -8.0971 O   0  0  0  0  0  0  0  0  0  0  0  0
   25.8850  -22.1587   -9.1496 O   0  0  0  0  0  0  0  0  0  0  0  0
  1  5  1  0
  2  1  1  0
  3  2  1  0
  3  4  1  0
  4  5  1  0
  5  6  1  1
  6  7  2  0
  8  6  1  0
  9  8  1  0
 10 11  1  0
 10  9  1  0
 11 12  1  0
 12  8  1  0
 12 13  1  1
 13 19  1  0
 13 14  2  0
 16 15  1  6
 17 16  1  0
 18 16  1  0
 18 19  1  6
 20 22  1  0
 20 18  1  0
 21 20  2  0
M  END
$$$$
