PPV.pdb
     RDKit          3D

 22 23  0  0  1  0  0  0  0  0999 V2000
   28.1097  -19.9473  -16.7551 N   0  0  0  0  0  0  0  0  0  0  0  0
   28.3498  -18.7960  -17.5673 C   0  0  0  0  0  0  0  0  0  0  0  0
   28.9230  -17.7245  -16.6815 C   0  0  0  0  0  0  0  0  0  0  0  0
   28.4983  -18.2221  -15.2927 C   0  0  0  0  0  0  0  0  0  0  0  0
   28.7452  -19.7240  -15.4644 C   0  0  1  0  0  0  0  0  0  0  0  0
   27.9759  -20.3949  -14.3612 C   0  0  0  0  0  0  0  0  0  0  0  0
   26.7178  -20.4353  -14.5660 O   0  0  0  0  0  0  0  0  0  0  0  0
   28.5955  -20.9151  -13.2350 N   0  0  0  0  0  0  0  0  0  0  0  0
   29.9392  -21.5332  -13.2805 C   0  0  0  0  0  0  0  0  0  0  0  0
   30.5610  -21.2007  -11.9466 C   0  0  0  0  0  0  0  0  0  0  0  0
   29.4982  -20.4080  -11.2305 C   0  0  0  0  0  0  0  0  0  0  0  0
   28.2304  -21.0210  -11.8834 C   0  0  1  0  0  0  0  0  0  0  0  0
   27.0430  -20.3784  -11.3680 C   0  0  0  0  0  0  0  0  0  0  0  0
   26.9933  -19.1725  -11.1175 O   0  0  0  0  0  0  0  0  0  0  0  0
   23.1581  -21.8589  -11.9026 C   0  0  0  0  0  0  0  0  0  0  0  0
   23.5128  -20.4341  -11.5897 C   0  0  2  0  0  0  0  0  0  0  0  0
   23.8732  -19.6866  -12.8695 C   0  0  0  0  0  0  0  0  0  0  0  0
   24.6637  -20.4005  -10.6052 C   0  0  2  0  0  0  0  0  0  0  0  0
   25.8196  -21.1090  -11.1075 N   0  0  0  0  0  0  0  0  0  0  0  0
   24.1822  -21.0571   -9.3597 C   0  0  0  0  0  0  0  0  0  0  0  0
   24.6467  -22.1675   -8.9990 O   0  0  0  0  0  0  0  0  0  0  0  0
   23.2147  -20.4121   -8.6169 O   0  0  0  0  0  0  0  0  0  0  0  0
  1  5  1  0
  2  1  1  0
  3  2  1  0
  3  4  1  0
  4  5  1  0
  5  6  1  1
  6  7  2  0
  8  6  1  0
  9  8  1  0
 10 11  1  0
 10  9  1  0
 11 12  1  0
 12  8  1  0
 12 13  1  6
 13 19  1  0
 13 14  2  0
 16 15  1  6
 17 16  1  0
 18 16  1  0
 18 19  1  6
 20 22  1  0
 20 18  1  0
 21 20  2  0
M  END
$$$$
