PPV.pdb
     RDKit          3D

 22 23  0  0  1  0  0  0  0  0999 V2000
   27.8682  -20.9237  -15.0771 N   0  0  0  0  0  0  0  0  0  0  0  0
   28.6631  -19.9885  -15.8095 C   0  0  0  0  0  0  0  0  0  0  0  0
   28.4543  -18.6322  -15.1944 C   0  0  0  0  0  0  0  0  0  0  0  0
   27.1380  -18.8455  -14.4337 C   0  0  0  0  0  0  0  0  0  0  0  0
   27.3785  -20.2535  -13.8809 C   0  0  1  0  0  0  0  0  0  0  0  0
   26.0257  -20.7757  -13.4858 C   0  0  0  0  0  0  0  0  0  0  0  0
   25.2769  -21.0596  -14.4783 O   0  0  0  0  0  0  0  0  0  0  0  0
   25.6474  -20.9275  -12.1603 N   0  0  0  0  0  0  0  0  0  0  0  0
   26.6094  -21.2870  -11.0948 C   0  0  0  0  0  0  0  0  0  0  0  0
   26.1038  -20.5756   -9.8641 C   0  0  0  0  0  0  0  0  0  0  0  0
   24.8656  -19.8572  -10.3346 C   0  0  0  0  0  0  0  0  0  0  0  0
   24.4267  -20.8130  -11.4762 C   0  0  1  0  0  0  0  0  0  0  0  0
   23.2406  -20.3034  -12.1257 C   0  0  0  0  0  0  0  0  0  0  0  0
   23.0182  -19.0981  -12.2567 O   0  0  0  0  0  0  0  0  0  0  0  0
   21.0148  -22.5406  -14.8677 C   0  0  0  0  0  0  0  0  0  0  0  0
   21.0050  -21.0411  -14.7957 C   0  0  2  0  0  0  0  0  0  0  0  0
   22.1674  -20.4664  -15.5988 C   0  0  0  0  0  0  0  0  0  0  0  0
   21.0817  -20.6005  -13.3483 C   0  0  2  0  0  0  0  0  0  0  0  0
   22.2224  -21.1769  -12.6724 N   0  0  0  0  0  0  0  0  0  0  0  0
   19.8297  -21.0646  -12.6916 C   0  0  0  0  0  0  0  0  0  0  0  0
   19.8515  -22.0101  -11.8644 O   0  0  0  0  0  0  0  0  0  0  0  0
   18.6499  -20.4276  -13.0175 O   0  0  0  0  0  0  0  0  0  0  0  0
  1  5  1  0
  2  1  1  0
  3  2  1  0
  3  4  1  0
  4  5  1  0
  5  6  1  6
  6  7  2  0
  8  6  1  0
  9  8  1  0
 10 11  1  0
 10  9  1  0
 11 12  1  0
 12  8  1  0
 12 13  1  6
 13 19  1  0
 13 14  2  0
 16 15  1  1
 17 16  1  0
 18 16  1  0
 18 19  1  1
 20 22  1  0
 20 18  1  0
 21 20  2  0
M  END
$$$$
