PPV.pdb
     RDKit          3D

 22 23  0  0  1  0  0  0  0  0999 V2000
   25.1986  -20.4412  -16.1017 N   0  0  0  0  0  0  0  0  0  0  0  0
   24.8794  -19.4299  -17.0601 C   0  0  0  0  0  0  0  0  0  0  0  0
   25.7736  -18.2506  -16.7936 C   0  0  0  0  0  0  0  0  0  0  0  0
   26.2124  -18.5253  -15.3483 C   0  0  0  0  0  0  0  0  0  0  0  0
   26.4214  -20.0410  -15.4203 C   0  0  1  0  0  0  0  0  0  0  0  0
   26.4275  -20.5223  -13.9964 C   0  0  0  0  0  0  0  0  0  0  0  0
   25.2852  -20.4654  -13.4323 O   0  0  0  0  0  0  0  0  0  0  0  0
   27.5782  -20.9818  -13.3738 N   0  0  0  0  0  0  0  0  0  0  0  0
   28.6506  -21.6903  -14.1071 C   0  0  0  0  0  0  0  0  0  0  0  0
   29.9260  -21.2841  -13.4107 C   0  0  0  0  0  0  0  0  0  0  0  0
   29.4688  -20.3619  -12.3101 C   0  0  0  0  0  0  0  0  0  0  0  0
   28.0528  -20.9435  -12.0530 C   0  0  1  0  0  0  0  0  0  0  0  0
   27.3779  -20.1799  -11.0284 C   0  0  0  0  0  0  0  0  0  0  0  0
   27.2530  -18.9549  -11.0839 O   0  0  0  0  0  0  0  0  0  0  0  0
   25.2112  -21.9090   -7.6734 C   0  0  0  0  0  0  0  0  0  0  0  0
   24.9165  -20.5768   -8.2998 C   0  0  2  0  0  0  0  0  0  0  0  0
   23.8849  -20.7333   -9.4123 C   0  0  0  0  0  0  0  0  0  0  0  0
   26.1978  -19.9719   -8.8357 C   0  0  2  0  0  0  0  0  0  0  0  0
   26.7965  -20.8024   -9.8567 N   0  0  0  0  0  0  0  0  0  0  0  0
   27.1312  -19.8529   -7.6830 C   0  0  0  0  0  0  0  0  0  0  0  0
   28.1360  -20.6017   -7.5911 O   0  0  0  0  0  0  0  0  0  0  0  0
   26.8604  -18.8996   -6.7229 O   0  0  0  0  0  0  0  0  0  0  0  0
  1  5  1  0
  2  1  1  0
  3  2  1  0
  3  4  1  0
  4  5  1  0
  5  6  1  1
  6  7  2  0
  8  6  1  0
  9  8  1  0
 10 11  1  0
 10  9  1  0
 11 12  1  0
 12  8  1  0
 12 13  1  1
 13 19  1  0
 13 14  2  0
 16 15  1  6
 17 16  1  0
 18 16  1  0
 18 19  1  6
 20 22  1  0
 20 18  1  0
 21 20  2  0
M  END
$$$$
