PPV.pdb
     RDKit          3D

 22 23  0  0  1  0  0  0  0  0999 V2000
   23.4755  -20.6763  -16.5091 N   0  0  0  0  0  0  0  0  0  0  0  0
   22.7557  -19.7557  -17.3321 C   0  0  0  0  0  0  0  0  0  0  0  0
   23.4685  -18.4331  -17.2679 C   0  0  0  0  0  0  0  0  0  0  0  0
   24.2956  -18.5981  -15.9852 C   0  0  0  0  0  0  0  0  0  0  0  0
   24.7408  -20.0550  -16.1446 C   0  0  1  0  0  0  0  0  0  0  0  0
   25.1863  -20.4995  -14.7798 C   0  0  0  0  0  0  0  0  0  0  0  0
   24.2264  -20.6642  -13.9566 O   0  0  0  0  0  0  0  0  0  0  0  0
   26.5212  -20.7059  -14.4660 N   0  0  0  0  0  0  0  0  0  0  0  0
   27.5069  -21.1856  -15.4601 C   0  0  0  0  0  0  0  0  0  0  0  0
   28.8027  -20.5186  -15.0697 C   0  0  0  0  0  0  0  0  0  0  0  0
   28.4461  -19.6995  -13.8562 C   0  0  0  0  0  0  0  0  0  0  0  0
   27.2810  -20.5577  -13.2947 C   0  0  1  0  0  0  0  0  0  0  0  0
   26.7314  -19.9394  -12.1098 C   0  0  0  0  0  0  0  0  0  0  0  0
   26.4935  -18.7321  -12.0374 O   0  0  0  0  0  0  0  0  0  0  0  0
   24.8333  -22.0585   -8.8540 C   0  0  0  0  0  0  0  0  0  0  0  0
   24.5730  -20.6499   -9.3034 C   0  0  2  0  0  0  0  0  0  0  0  0
   23.5343  -20.6356  -10.4203 C   0  0  0  0  0  0  0  0  0  0  0  0
   25.8686  -20.0156   -9.7660 C   0  0  2  0  0  0  0  0  0  0  0  0
   26.4188  -20.6978  -10.9158 N   0  0  0  0  0  0  0  0  0  0  0  0
   26.8233  -20.1117   -8.6287 C   0  0  0  0  0  0  0  0  0  0  0  0
   27.8266  -20.8653   -8.6951 O   0  0  0  0  0  0  0  0  0  0  0  0
   26.5741  -19.3513   -7.5045 O   0  0  0  0  0  0  0  0  0  0  0  0
  1  5  1  0
  2  1  1  0
  3  2  1  0
  3  4  1  0
  4  5  1  0
  5  6  1  1
  6  7  2  0
  8  6  1  0
  9  8  1  0
 10 11  1  0
 10  9  1  0
 11 12  1  0
 12  8  1  0
 12 13  1  1
 13 19  1  0
 13 14  2  0
 16 15  1  6
 17 16  1  0
 18 16  1  0
 18 19  1  6
 20 22  1  0
 20 18  1  0
 21 20  2  0
M  END
$$$$
