PPV.pdb
     RDKit          3D

 22 23  0  0  1  0  0  0  0  0999 V2000
   26.8316  -19.7741  -16.2484 N   0  0  0  0  0  0  0  0  0  0  0  0
   27.0006  -18.6689  -17.1389 C   0  0  0  0  0  0  0  0  0  0  0  0
   28.0783  -17.7869  -16.5716 C   0  0  0  0  0  0  0  0  0  0  0  0
   28.0972  -18.2392  -15.1047 C   0  0  0  0  0  0  0  0  0  0  0  0
   27.9298  -19.7500  -15.2928 C   0  0  1  0  0  0  0  0  0  0  0  0
   27.4942  -20.2840  -13.9571 C   0  0  0  0  0  0  0  0  0  0  0  0
   26.2584  -20.0923  -13.7078 O   0  0  0  0  0  0  0  0  0  0  0  0
   28.3701  -20.9226  -13.0923 N   0  0  0  0  0  0  0  0  0  0  0  0
   29.5292  -21.7082  -13.5709 C   0  0  0  0  0  0  0  0  0  0  0  0
   30.5900  -21.5100  -12.5165 C   0  0  0  0  0  0  0  0  0  0  0  0
   29.9356  -20.6134  -11.4974 C   0  0  0  0  0  0  0  0  0  0  0  0
   28.4537  -21.0311  -11.6949 C   0  0  1  0  0  0  0  0  0  0  0  0
   27.5971  -20.2595  -10.8237 C   0  0  0  0  0  0  0  0  0  0  0  0
   27.5696  -19.0272  -10.8367 O   0  0  0  0  0  0  0  0  0  0  0  0
   24.7695  -21.9837   -7.9854 C   0  0  0  0  0  0  0  0  0  0  0  0
   24.6003  -20.6400   -8.6331 C   0  0  2  0  0  0  0  0  0  0  0  0
   23.7598  -20.7665   -9.8997 C   0  0  0  0  0  0  0  0  0  0  0  0
   25.9604  -20.0514   -8.9470 C   0  0  2  0  0  0  0  0  0  0  0  0
   26.7043  -20.8818   -9.8676 N   0  0  0  0  0  0  0  0  0  0  0  0
   26.6962  -19.9593   -7.6569 C   0  0  0  0  0  0  0  0  0  0  0  0
   27.6086  -20.7773   -7.3788 O   0  0  0  0  0  0  0  0  0  0  0  0
   26.3473  -18.9529   -6.7798 O   0  0  0  0  0  0  0  0  0  0  0  0
  1  5  1  0
  2  1  1  0
  3  2  1  0
  3  4  1  0
  4  5  1  0
  5  6  1  1
  6  7  2  0
  8  6  1  0
  9  8  1  0
 10 11  1  0
 10  9  1  0
 11 12  1  0
 12  8  1  0
 12 13  1  1
 13 19  1  0
 13 14  2  0
 16 15  1  6
 17 16  1  0
 18 16  1  0
 18 19  1  6
 20 22  1  0
 20 18  1  0
 21 20  2  0
M  END
$$$$
