PPV.pdb
     RDKit          3D

 22 23  0  0  1  0  0  0  0  0999 V2000
   27.9455  -19.8649  -17.0102 N   0  0  0  0  0  0  0  0  0  0  0  0
   28.2073  -18.6990  -17.7945 C   0  0  0  0  0  0  0  0  0  0  0  0
   28.9089  -17.7038  -16.9120 C   0  0  0  0  0  0  0  0  0  0  0  0
   28.5456  -18.2297  -15.5162 C   0  0  0  0  0  0  0  0  0  0  0  0
   28.6794  -19.7360  -15.7593 C   0  0  1  0  0  0  0  0  0  0  0  0
   27.9422  -20.4007  -14.6308 C   0  0  0  0  0  0  0  0  0  0  0  0
   26.6739  -20.3713  -14.7604 O   0  0  0  0  0  0  0  0  0  0  0  0
   28.5990  -20.9858  -13.5587 N   0  0  0  0  0  0  0  0  0  0  0  0
   29.9215  -21.6357  -13.6948 C   0  0  0  0  0  0  0  0  0  0  0  0
   30.6138  -21.3783  -12.3791 C   0  0  0  0  0  0  0  0  0  0  0  0
   29.6079  -20.5909  -11.5798 C   0  0  0  0  0  0  0  0  0  0  0  0
   28.2945  -21.1417  -12.1970 C   0  0  1  0  0  0  0  0  0  0  0  0
   27.1507  -20.4922  -11.5984 C   0  0  0  0  0  0  0  0  0  0  0  0
   27.1233  -19.2847  -11.3523 O   0  0  0  0  0  0  0  0  0  0  0  0
   23.2205  -22.1031  -11.6573 C   0  0  0  0  0  0  0  0  0  0  0  0
   23.5830  -20.6502  -11.5507 C   0  0  2  0  0  0  0  0  0  0  0  0
   23.8090  -20.0593  -12.9386 C   0  0  0  0  0  0  0  0  0  0  0  0
   24.8220  -20.4964  -10.6926 C   0  0  2  0  0  0  0  0  0  0  0  0
   25.9480  -21.2172  -11.2430 N   0  0  0  0  0  0  0  0  0  0  0  0
   24.4868  -21.0489   -9.3522 C   0  0  0  0  0  0  0  0  0  0  0  0
   25.0056  -22.1212   -8.9522 O   0  0  0  0  0  0  0  0  0  0  0  0
   23.5933  -20.3507   -8.5660 O   0  0  0  0  0  0  0  0  0  0  0  0
  1  5  1  0
  2  1  1  0
  3  2  1  0
  3  4  1  0
  4  5  1  0
  5  6  1  1
  6  7  2  0
  8  6  1  0
  9  8  1  0
 10 11  1  0
 10  9  1  0
 11 12  1  0
 12  8  1  0
 12 13  1  1
 13 19  1  0
 13 14  2  0
 16 15  1  6
 17 16  1  0
 18 16  1  0
 18 19  1  6
 20 22  1  0
 20 18  1  0
 21 20  2  0
M  END
$$$$
