PPV.pdb
     RDKit          3D

 22 23  0  0  1  0  0  0  0  0999 V2000
   43.2018  -12.6344   -8.9453 N   0  0  0  0  0  0  0  0  0  0  0  0
   44.2214  -12.8679   -9.9193 C   0  0  0  0  0  0  0  0  0  0  0  0
   45.0423  -11.6128  -10.0301 C   0  0  0  0  0  0  0  0  0  0  0  0
   44.0859  -10.5729   -9.4297 C   0  0  0  0  0  0  0  0  0  0  0  0
   43.5116  -11.3850   -8.2649 C   0  0  1  0  0  0  0  0  0  0  0  0
   42.2557  -10.6723   -7.8479 C   0  0  0  0  0  0  0  0  0  0  0  0
   41.3592  -10.6426   -8.7544 O   0  0  0  0  0  0  0  0  0  0  0  0
   42.1061  -10.1077   -6.5902 N   0  0  0  0  0  0  0  0  0  0  0  0
   42.8170  -10.6212   -5.3982 C   0  0  0  0  0  0  0  0  0  0  0  0
   43.0803   -9.4002   -4.5517 C   0  0  0  0  0  0  0  0  0  0  0  0
   42.4814   -8.2659   -5.3425 C   0  0  0  0  0  0  0  0  0  0  0  0
   41.3562   -9.0323   -6.0879 C   0  0  1  0  0  0  0  0  0  0  0  0
   40.6380   -8.1360   -6.9650 C   0  0  0  0  0  0  0  0  0  0  0  0
   41.1711   -7.5709   -7.9221 O   0  0  0  0  0  0  0  0  0  0  0  0
   36.9132   -6.0495   -6.0386 C   0  0  0  0  0  0  0  0  0  0  0  0
   37.1145   -6.7431   -7.3547 C   0  0  2  0  0  0  0  0  0  0  0  0
   36.4518   -8.1168   -7.3342 C   0  0  0  0  0  0  0  0  0  0  0  0
   38.5964   -6.8654   -7.6442 C   0  0  2  0  0  0  0  0  0  0  0  0
   39.2328   -7.8357   -6.7817 N   0  0  0  0  0  0  0  0  0  0  0  0
   39.1925   -5.5231   -7.4052 C   0  0  0  0  0  0  0  0  0  0  0  0
   39.7719   -5.2622   -6.3212 O   0  0  0  0  0  0  0  0  0  0  0  0
   39.0898   -4.5785   -8.4057 O   0  0  0  0  0  0  0  0  0  0  0  0
  1  5  1  0
  2  1  1  0
  3  2  1  0
  3  4  1  0
  4  5  1  0
  5  6  1  6
  6  7  2  0
  8  6  1  0
  9  8  1  0
 10 11  1  0
 10  9  1  0
 11 12  1  0
 12  8  1  0
 12 13  1  6
 13 19  1  0
 13 14  2  0
 16 15  1  1
 17 16  1  0
 18 16  1  0
 18 19  1  1
 20 22  1  0
 20 18  1  0
 21 20  2  0
M  END
$$$$
