PPV.pdb
     RDKit          3D

 22 23  0  0  1  0  0  0  0  0999 V2000
   18.4887  -12.7426  -16.7754 N   0  0  0  0  0  0  0  0  0  0  0  0
   17.2508  -13.4391  -16.9348 C   0  0  0  0  0  0  0  0  0  0  0  0
   16.2380  -12.4562  -17.4539 C   0  0  0  0  0  0  0  0  0  0  0  0
   16.8943  -11.1202  -17.0785 C   0  0  0  0  0  0  0  0  0  0  0  0
   18.3541  -11.4407  -17.4134 C   0  0  1  0  0  0  0  0  0  0  0  0
   19.1758  -10.4035  -16.7006 C   0  0  0  0  0  0  0  0  0  0  0  0
   19.0536  -10.4373  -15.4317 O   0  0  0  0  0  0  0  0  0  0  0  0
   19.9847   -9.5039  -17.3783 N   0  0  0  0  0  0  0  0  0  0  0  0
   20.6045   -9.8193  -18.6845 C   0  0  0  0  0  0  0  0  0  0  0  0
   20.6435   -8.5023  -19.4198 C   0  0  0  0  0  0  0  0  0  0  0  0
   20.0354   -7.5203  -18.4520 C   0  0  0  0  0  0  0  0  0  0  0  0
   20.4264   -8.1981  -17.1114 C   0  0  1  0  0  0  0  0  0  0  0  0
   19.9083   -7.4372  -15.9975 C   0  0  0  0  0  0  0  0  0  0  0  0
   18.7019   -7.2664  -15.8107 O   0  0  0  0  0  0  0  0  0  0  0  0
   22.2691   -6.2318  -12.6610 C   0  0  0  0  0  0  0  0  0  0  0  0
   20.7724   -6.3383  -12.6110 C   0  0  2  0  0  0  0  0  0  0  0  0
   20.3573   -7.7397  -12.1747 C   0  0  0  0  0  0  0  0  0  0  0  0
   20.1927   -6.0045  -13.9701 C   0  0  2  0  0  0  0  0  0  0  0  0
   20.7738   -6.8174  -15.0150 N   0  0  0  0  0  0  0  0  0  0  0  0
   20.5004   -4.5716  -14.2277 C   0  0  0  0  0  0  0  0  0  0  0  0
   21.4086   -4.2450  -15.0323 O   0  0  0  0  0  0  0  0  0  0  0  0
   19.7613   -3.6174  -13.5590 O   0  0  0  0  0  0  0  0  0  0  0  0
  1  5  1  0
  2  1  1  0
  3  2  1  0
  3  4  1  0
  4  5  1  0
  5  6  1  1
  6  7  2  0
  8  6  1  0
  9  8  1  0
 10 11  1  0
 10  9  1  0
 11 12  1  0
 12  8  1  0
 12 13  1  1
 13 19  1  0
 13 14  2  0
 16 15  1  6
 17 16  1  0
 18 16  1  0
 18 19  1  6
 20 22  1  0
 20 18  1  0
 21 20  2  0
M  END
$$$$
