PPV.pdb
     RDKit          3D

 22 23  0  0  1  0  0  0  0  0999 V2000
   23.7387  -21.1717  -12.9535 N   0  0  0  0  0  0  0  0  0  0  0  0
   22.9722  -20.2932  -13.7803 C   0  0  0  0  0  0  0  0  0  0  0  0
   23.7780  -19.0399  -13.9839 C   0  0  0  0  0  0  0  0  0  0  0  0
   24.7712  -19.1269  -12.8165 C   0  0  0  0  0  0  0  0  0  0  0  0
   25.0844  -20.6259  -12.8486 C   0  0  1  0  0  0  0  0  0  0  0  0
   25.6936  -20.9463  -11.5125 C   0  0  0  0  0  0  0  0  0  0  0  0
   24.8597  -20.9114  -10.5483 O   0  0  0  0  0  0  0  0  0  0  0  0
   27.0386  -21.2496  -11.3641 N   0  0  0  0  0  0  0  0  0  0  0  0
   27.8350  -21.8805  -12.4400 C   0  0  0  0  0  0  0  0  0  0  0  0
   29.2213  -21.3072  -12.2792 C   0  0  0  0  0  0  0  0  0  0  0  0
   29.1033  -20.3804  -11.0968 C   0  0  0  0  0  0  0  0  0  0  0  0
   27.9635  -21.0919  -10.3197 C   0  0  1  0  0  0  0  0  0  0  0  0
   27.6352  -20.3493   -9.1242 C   0  0  0  0  0  0  0  0  0  0  0  0
   27.2558  -19.1767   -9.1512 O   0  0  0  0  0  0  0  0  0  0  0  0
   26.0183  -21.5618   -5.4917 C   0  0  0  0  0  0  0  0  0  0  0  0
   27.3488  -20.8754   -5.3804 C   0  0  2  0  0  0  0  0  0  0  0  0
   27.3754  -19.9716   -4.1520 C   0  0  0  0  0  0  0  0  0  0  0  0
   27.6172  -20.0783   -6.6403 C   0  0  2  0  0  0  0  0  0  0  0  0
   27.7284  -20.9324   -7.8015 N   0  0  0  0  0  0  0  0  0  0  0  0
   28.9032  -19.3602   -6.4280 C   0  0  0  0  0  0  0  0  0  0  0  0
   29.9722  -19.7993   -6.9212 O   0  0  0  0  0  0  0  0  0  0  0  0
   28.8854  -18.2032   -5.6764 O   0  0  0  0  0  0  0  0  0  0  0  0
  1  5  1  0
  2  1  1  0
  3  2  1  0
  3  4  1  0
  4  5  1  0
  5  6  1  1
  6  7  2  0
  8  6  1  0
  9  8  1  0
 10 11  1  0
 10  9  1  0
 11 12  1  0
 12  8  1  0
 12 13  1  1
 13 19  1  0
 13 14  2  0
 16 15  1  6
 17 16  1  0
 18 16  1  0
 18 19  1  6
 20 22  1  0
 20 18  1  0
 21 20  2  0
M  END
$$$$
