PPV.pdb
     RDKit          3D

 22 23  0  0  1  0  0  0  0  0999 V2000
   25.5395  -21.6803  -12.1150 N   0  0  0  0  0  0  0  0  0  0  0  0
   24.5225  -20.7826  -12.5653 C   0  0  0  0  0  0  0  0  0  0  0  0
   24.9260  -19.3934  -12.1545 C   0  0  0  0  0  0  0  0  0  0  0  0
   25.9454  -19.6908  -11.0459 C   0  0  0  0  0  0  0  0  0  0  0  0
   26.6746  -20.8834  -11.6718 C   0  0  1  0  0  0  0  0  0  0  0  0
   27.3999  -21.5596  -10.5422 C   0  0  0  0  0  0  0  0  0  0  0  0
   26.6314  -21.9539   -9.6041 O   0  0  0  0  0  0  0  0  0  0  0  0
   28.7762  -21.7291  -10.5405 N   0  0  0  0  0  0  0  0  0  0  0  0
   29.5729  -21.7792  -11.7864 C   0  0  0  0  0  0  0  0  0  0  0  0
   30.8956  -21.1509  -11.4228 C   0  0  0  0  0  0  0  0  0  0  0  0
   30.7460  -20.7904   -9.9673 C   0  0  0  0  0  0  0  0  0  0  0  0
   29.7372  -21.8856   -9.5290 C   0  0  1  0  0  0  0  0  0  0  0  0
   29.3997  -21.7237   -8.1332 C   0  0  0  0  0  0  0  0  0  0  0  0
   29.7856  -22.5030   -7.2596 O   0  0  0  0  0  0  0  0  0  0  0  0
   30.3575  -19.2477   -5.8044 C   0  0  0  0  0  0  0  0  0  0  0  0
   28.8639  -19.2474   -5.6525 C   0  0  2  0  0  0  0  0  0  0  0  0
   28.4829  -19.1168   -4.1813 C   0  0  0  0  0  0  0  0  0  0  0  0
   28.2918  -20.5187   -6.2453 C   0  0  2  0  0  0  0  0  0  0  0  0
   28.5797  -20.6282   -7.6579 N   0  0  0  0  0  0  0  0  0  0  0  0
   26.8188  -20.4617   -6.0424 C   0  0  0  0  0  0  0  0  0  0  0  0
   26.3296  -20.4748   -4.8851 O   0  0  0  0  0  0  0  0  0  0  0  0
   26.0108  -20.3944   -7.1588 O   0  0  0  0  0  0  0  0  0  0  0  0
  1  5  1  0
  2  1  1  0
  3  2  1  0
  3  4  1  0
  4  5  1  0
  5  6  1  1
  6  7  2  0
  8  6  1  0
  9  8  1  0
 10 11  1  0
 10  9  1  0
 11 12  1  0
 12  8  1  0
 12 13  1  1
 13 19  1  0
 13 14  2  0
 16 15  1  1
 17 16  1  0
 18 16  1  0
 18 19  1  6
 20 22  1  0
 20 18  1  0
 21 20  2  0
M  END
$$$$
