EED.pdb
     RDKit          3D

 27 26  0  0  1  0  0  0  0  0999 V2000
   27.3493  -20.2295  -18.2381 N   0  0  0  0  0  0  0  0  0  0  0  0
   27.7247  -19.2563  -17.2943 C   0  0  1  0  0  0  0  0  0  0  0  0
   28.4078  -18.0149  -17.7602 C   0  0  0  0  0  0  0  0  0  0  0  0
   28.3720  -17.8356  -19.2381 C   0  0  0  0  0  0  0  0  0  0  0  0
   29.3603  -16.8648  -19.7183 C   0  0  0  0  0  0  0  0  0  0  0  0
   30.2099  -16.3637  -18.9572 O   0  0  0  0  0  0  0  0  0  0  0  0
   26.5894  -18.7923  -16.4098 C   0  0  0  0  0  0  0  0  0  0  0  0
   26.8442  -17.9496  -15.4900 O   0  0  0  0  0  0  0  0  0  0  0  0
   29.3404  -16.4949  -21.0732 O   0  0  0  0  0  0  0  0  0  0  0  0
   25.2608  -19.2354  -16.5358 N   0  0  0  0  0  0  0  0  0  0  0  0
   24.2737  -18.8253  -15.5469 C   0  0  1  0  0  0  0  0  0  0  0  0
   22.9217  -18.5604  -16.1202 C   0  0  0  0  0  0  0  0  0  0  0  0
   22.8812  -17.1383  -16.6499 C   0  0  0  0  0  0  0  0  0  0  0  0
   21.5409  -16.8255  -17.1733 C   0  0  0  0  0  0  0  0  0  0  0  0
   21.4256  -15.9286  -18.0442 O   0  0  0  0  0  0  0  0  0  0  0  0
   24.1083  -19.9519  -14.5416 C   0  0  0  0  0  0  0  0  0  0  0  0
   24.2176  -21.1025  -14.9683 O   0  0  0  0  0  0  0  0  0  0  0  0
   20.4555  -17.5256  -16.6931 O   0  0  0  0  0  0  0  0  0  0  0  0
   23.8435  -19.6943  -13.1933 N   0  0  0  0  0  0  0  0  0  0  0  0
   23.6049  -20.7073  -12.1928 C   0  0  1  0  0  0  0  0  0  0  0  0
   24.4452  -20.5272  -10.9793 C   0  0  0  0  0  0  0  0  0  0  0  0
   25.1172  -21.7898  -10.6266 C   0  0  0  0  0  0  0  0  0  0  0  0
   24.8017  -22.8324  -11.2491 O   0  0  0  0  0  0  0  0  0  0  0  0
   22.1950  -20.9112  -11.8582 C   0  0  0  0  0  0  0  0  0  0  0  0
   21.6131  -21.9626  -12.2156 O   0  0  0  0  0  0  0  0  0  0  0  0
   26.0792  -21.8450   -9.6318 O   0  0  0  0  0  0  0  0  0  0  0  0
   21.4317  -20.0027  -11.1516 O   0  0  0  0  0  0  0  0  0  0  0  0
  2  1  1  6
  2  7  1  0
  3  2  1  0
  4  3  1  0
  5  6  2  0
  5  4  1  0
  7  8  2  0
  9  5  1  0
 10  7  1  0
 10 11  1  0
 11 12  1  6
 13 12  1  0
 14 13  1  0
 15 14  2  0
 16 11  1  0
 16 17  2  0
 18 14  1  0
 19 16  1  0
 20 19  1  0
 20 21  1  1
 22 21  1  0
 23 22  2  0
 24 20  1  0
 25 24  2  0
 26 22  1  0
 27 24  1  0
M  END
$$$$
