EED.pdb
     RDKit          3D

 27 26  0  0  1  0  0  0  0  0999 V2000
   18.6359  -14.1553  -15.8811 N   0  0  0  0  0  0  0  0  0  0  0  0
   18.2357  -12.8421  -16.1885 C   0  0  1  0  0  0  0  0  0  0  0  0
   16.8375  -12.5947  -16.6454 C   0  0  0  0  0  0  0  0  0  0  0  0
   15.8387  -13.5078  -16.0239 C   0  0  0  0  0  0  0  0  0  0  0  0
   14.6338  -12.8080  -15.5674 C   0  0  0  0  0  0  0  0  0  0  0  0
   13.4961  -13.2899  -15.7270 O   0  0  0  0  0  0  0  0  0  0  0  0
   18.4845  -11.8505  -15.0745 C   0  0  0  0  0  0  0  0  0  0  0  0
   18.3967  -12.2573  -13.8711 O   0  0  0  0  0  0  0  0  0  0  0  0
   14.7755  -11.5614  -14.9358 O   0  0  0  0  0  0  0  0  0  0  0  0
   18.8068  -10.4974  -15.2814 N   0  0  0  0  0  0  0  0  0  0  0  0
   19.1216   -9.6544  -14.1366 C   0  0  1  0  0  0  0  0  0  0  0  0
   19.9978   -8.4928  -14.4677 C   0  0  0  0  0  0  0  0  0  0  0  0
   20.4277   -7.8167  -13.1782 C   0  0  0  0  0  0  0  0  0  0  0  0
   21.3094   -6.6738  -13.4692 C   0  0  0  0  0  0  0  0  0  0  0  0
   20.8081   -5.5248  -13.5371 O   0  0  0  0  0  0  0  0  0  0  0  0
   17.8237   -9.0813  -13.5942 C   0  0  0  0  0  0  0  0  0  0  0  0
   16.9951   -8.6945  -14.4198 O   0  0  0  0  0  0  0  0  0  0  0  0
   22.6558   -6.8990  -13.6573 O   0  0  0  0  0  0  0  0  0  0  0  0
   17.5810   -8.9964  -12.2200 N   0  0  0  0  0  0  0  0  0  0  0  0
   16.3791   -8.4590  -11.6277 C   0  0  1  0  0  0  0  0  0  0  0  0
   16.2356   -8.8163  -10.1914 C   0  0  0  0  0  0  0  0  0  0  0  0
   14.9619   -8.3032   -9.6583 C   0  0  0  0  0  0  0  0  0  0  0  0
   14.1663   -7.7359  -10.4452 O   0  0  0  0  0  0  0  0  0  0  0  0
   16.1736   -7.0290  -11.8603 C   0  0  0  0  0  0  0  0  0  0  0  0
   15.0596   -6.6138  -12.2582 O   0  0  0  0  0  0  0  0  0  0  0  0
   14.6316   -8.4344   -8.3196 O   0  0  0  0  0  0  0  0  0  0  0  0
   17.1472   -6.0690  -11.6651 O   0  0  0  0  0  0  0  0  0  0  0  0
  2  1  1  1
  2  7  1  0
  3  2  1  0
  4  3  1  0
  5  6  2  0
  5  4  1  0
  7  8  2  0
  9  5  1  0
 10  7  1  0
 10 11  1  0
 11 12  1  6
 13 12  1  0
 14 13  1  0
 15 14  2  0
 16 11  1  0
 16 17  2  0
 18 14  1  0
 19 16  1  0
 20 19  1  0
 20 21  1  1
 22 21  1  0
 23 22  2  0
 24 20  1  0
 25 24  2  0
 26 22  1  0
 27 24  1  0
M  END
$$$$
