EED.pdb
     RDKit          3D

 27 26  0  0  1  0  0  0  0  0999 V2000
   21.0745   -9.8743  -21.1208 N   0  0  0  0  0  0  0  0  0  0  0  0
   21.8691   -9.4117  -20.0561 C   0  0  1  0  0  0  0  0  0  0  0  0
   23.0460   -8.5434  -20.3491 C   0  0  0  0  0  0  0  0  0  0  0  0
   23.9240   -9.0761  -21.4274 C   0  0  0  0  0  0  0  0  0  0  0  0
   25.1439   -8.2838  -21.6122 C   0  0  0  0  0  0  0  0  0  0  0  0
   25.9811   -8.1476  -20.6998 O   0  0  0  0  0  0  0  0  0  0  0  0
   21.0889   -8.6948  -18.9774 C   0  0  0  0  0  0  0  0  0  0  0  0
   20.2126   -7.8410  -19.3303 O   0  0  0  0  0  0  0  0  0  0  0  0
   25.3653   -7.6646  -22.8534 O   0  0  0  0  0  0  0  0  0  0  0  0
   21.2703   -8.9087  -17.5995 N   0  0  0  0  0  0  0  0  0  0  0  0
   20.3851   -8.2478  -16.6508 C   0  0  1  0  0  0  0  0  0  0  0  0
   19.9023   -9.1397  -15.5564 C   0  0  0  0  0  0  0  0  0  0  0  0
   18.8132  -10.0451  -16.1030 C   0  0  0  0  0  0  0  0  0  0  0  0
   18.2883  -10.9149  -15.0371 C   0  0  0  0  0  0  0  0  0  0  0  0
   17.8168  -12.0361  -15.3483 O   0  0  0  0  0  0  0  0  0  0  0  0
   21.1544   -7.1190  -15.9864 C   0  0  0  0  0  0  0  0  0  0  0  0
   22.3699   -7.2719  -15.8557 O   0  0  0  0  0  0  0  0  0  0  0  0
   18.3309  -10.4735  -13.7324 O   0  0  0  0  0  0  0  0  0  0  0  0
   20.5116   -5.9594  -15.5430 N   0  0  0  0  0  0  0  0  0  0  0  0
   21.1647   -4.8617  -14.8703 C   0  0  1  0  0  0  0  0  0  0  0  0
   20.4311   -3.5768  -15.0188 C   0  0  0  0  0  0  0  0  0  0  0  0
   21.1961   -2.4743  -14.4113 C   0  0  0  0  0  0  0  0  0  0  0  0
   20.8180   -2.0190  -13.3050 O   0  0  0  0  0  0  0  0  0  0  0  0
   21.5248   -5.1299  -13.4776 C   0  0  0  0  0  0  0  0  0  0  0  0
   22.2615   -4.3279  -12.8565 O   0  0  0  0  0  0  0  0  0  0  0  0
   22.3116   -1.9381  -15.0328 O   0  0  0  0  0  0  0  0  0  0  0  0
   21.0971   -6.2365  -12.7707 O   0  0  0  0  0  0  0  0  0  0  0  0
  2  1  1  6
  2  7  1  0
  3  2  1  0
  4  3  1  0
  5  6  2  0
  5  4  1  0
  7  8  2  0
  9  5  1  0
 10  7  1  0
 10 11  1  0
 11 12  1  1
 13 12  1  0
 14 13  1  0
 15 14  2  0
 16 11  1  0
 16 17  2  0
 18 14  1  0
 19 16  1  0
 20 19  1  0
 20 21  1  1
 22 21  1  0
 23 22  2  0
 24 20  1  0
 25 24  2  0
 26 22  1  0
 27 24  1  0
M  END
$$$$
