EED.pdb
     RDKit          3D

 27 26  0  0  1  0  0  0  0  0999 V2000
   17.4687  -12.3492  -17.3915 N   0  0  0  0  0  0  0  0  0  0  0  0
   16.7222  -11.3089  -16.8088 C   0  0  1  0  0  0  0  0  0  0  0  0
   16.3437  -11.4017  -15.3691 C   0  0  0  0  0  0  0  0  0  0  0  0
   15.5711  -12.6304  -15.0355 C   0  0  0  0  0  0  0  0  0  0  0  0
   15.2630  -12.7390  -13.6061 C   0  0  0  0  0  0  0  0  0  0  0  0
   14.1714  -12.3599  -13.1405 O   0  0  0  0  0  0  0  0  0  0  0  0
   17.3413   -9.9404  -16.9827 C   0  0  0  0  0  0  0  0  0  0  0  0
   18.5660   -9.8690  -17.3239 O   0  0  0  0  0  0  0  0  0  0  0  0
   16.2304  -13.2849  -12.7464 O   0  0  0  0  0  0  0  0  0  0  0  0
   16.6490   -8.7319  -16.7885 N   0  0  0  0  0  0  0  0  0  0  0  0
   17.3098   -7.4718  -17.0982 C   0  0  1  0  0  0  0  0  0  0  0  0
   16.3762   -6.3964  -17.5437 C   0  0  0  0  0  0  0  0  0  0  0  0
   17.1879   -5.1990  -18.0041 C   0  0  0  0  0  0  0  0  0  0  0  0
   16.2963   -4.1361  -18.4978 C   0  0  0  0  0  0  0  0  0  0  0  0
   15.5360   -3.5573  -17.6835 O   0  0  0  0  0  0  0  0  0  0  0  0
   17.9882   -6.9658  -15.8368 C   0  0  0  0  0  0  0  0  0  0  0  0
   17.3777   -7.1116  -14.7766 O   0  0  0  0  0  0  0  0  0  0  0  0
   16.3236   -3.8087  -19.8361 O   0  0  0  0  0  0  0  0  0  0  0  0
   19.2482   -6.3615  -15.8776 N   0  0  0  0  0  0  0  0  0  0  0  0
   20.0028   -5.9513  -14.7173 C   0  0  1  0  0  0  0  0  0  0  0  0
   21.4553   -6.2444  -14.8418 C   0  0  0  0  0  0  0  0  0  0  0  0
   22.1776   -5.7848  -13.6431 C   0  0  0  0  0  0  0  0  0  0  0  0
   22.3419   -6.5901  -12.6952 O   0  0  0  0  0  0  0  0  0  0  0  0
   19.7560   -4.5746  -14.2872 C   0  0  0  0  0  0  0  0  0  0  0  0
   19.5726   -3.6757  -15.1417 O   0  0  0  0  0  0  0  0  0  0  0  0
   22.6723   -4.4948  -13.5456 O   0  0  0  0  0  0  0  0  0  0  0  0
   19.7053   -4.1778  -12.9653 O   0  0  0  0  0  0  0  0  0  0  0  0
  2  1  1  1
  2  7  1  0
  3  2  1  0
  4  3  1  0
  5  6  2  0
  5  4  1  0
  7  8  2  0
  9  5  1  0
 10  7  1  0
 10 11  1  0
 11 12  1  1
 13 12  1  0
 14 13  1  0
 15 14  2  0
 16 11  1  0
 16 17  2  0
 18 14  1  0
 19 16  1  0
 20 19  1  0
 20 21  1  6
 22 21  1  0
 23 22  2  0
 24 20  1  0
 25 24  2  0
 26 22  1  0
 27 24  1  0
M  END
$$$$
