EED.pdb
     RDKit          3D

 27 26  0  0  1  0  0  0  0  0999 V2000
   28.6544  -32.9116   -3.4946 N   0  0  0  0  0  0  0  0  0  0  0  0
   28.6608  -34.2148   -2.9648 C   0  0  1  0  0  0  0  0  0  0  0  0
   28.9546  -35.3663   -3.8662 C   0  0  0  0  0  0  0  0  0  0  0  0
   28.9094  -35.0155   -5.3127 C   0  0  0  0  0  0  0  0  0  0  0  0
   28.0080  -35.8801   -6.0807 C   0  0  0  0  0  0  0  0  0  0  0  0
   28.1817  -37.1119   -6.1487 O   0  0  0  0  0  0  0  0  0  0  0  0
   29.5733  -34.3851   -1.7712 C   0  0  0  0  0  0  0  0  0  0  0  0
   29.4857  -35.4576   -1.0905 O   0  0  0  0  0  0  0  0  0  0  0  0
   26.9236  -35.2954   -6.7554 O   0  0  0  0  0  0  0  0  0  0  0  0
   30.5180  -33.4286   -1.3588 N   0  0  0  0  0  0  0  0  0  0  0  0
   31.2563  -33.6404   -0.1217 C   0  0  1  0  0  0  0  0  0  0  0  0
   32.5038  -32.8282   -0.0190 C   0  0  0  0  0  0  0  0  0  0  0  0
   33.2046  -33.1643    1.2850 C   0  0  0  0  0  0  0  0  0  0  0  0
   34.4212  -32.3487    1.4369 C   0  0  0  0  0  0  0  0  0  0  0  0
   34.4223  -31.1749    0.9917 O   0  0  0  0  0  0  0  0  0  0  0  0
   30.3696  -33.2270    1.0403 C   0  0  0  0  0  0  0  0  0  0  0  0
   29.6187  -32.2676    0.8569 O   0  0  0  0  0  0  0  0  0  0  0  0
   35.5198  -32.8970    2.0626 O   0  0  0  0  0  0  0  0  0  0  0  0
   30.4049  -33.9045    2.2627 N   0  0  0  0  0  0  0  0  0  0  0  0
   29.6038  -33.5664    3.4150 C   0  0  1  0  0  0  0  0  0  0  0  0
   28.3314  -34.3334    3.4770 C   0  0  0  0  0  0  0  0  0  0  0  0
   27.5099  -33.8767    4.6111 C   0  0  0  0  0  0  0  0  0  0  0  0
   27.8824  -32.8658    5.2540 O   0  0  0  0  0  0  0  0  0  0  0  0
   30.3255  -33.5978    4.6876 C   0  0  0  0  0  0  0  0  0  0  0  0
   30.9233  -34.6413    5.0420 O   0  0  0  0  0  0  0  0  0  0  0  0
   26.3477  -34.5361    4.9756 O   0  0  0  0  0  0  0  0  0  0  0  0
   30.4028  -32.5268    5.5561 O   0  0  0  0  0  0  0  0  0  0  0  0
  2  1  1  6
  2  7  1  0
  3  2  1  0
  4  3  1  0
  5  6  2  0
  5  4  1  0
  7  8  2  0
  9  5  1  0
 10  7  1  0
 10 11  1  0
 11 12  1  6
 13 12  1  0
 14 13  1  0
 15 14  2  0
 16 11  1  0
 16 17  2  0
 18 14  1  0
 19 16  1  0
 20 19  1  0
 20 21  1  1
 22 21  1  0
 23 22  2  0
 24 20  1  0
 25 24  2  0
 26 22  1  0
 27 24  1  0
M  END
$$$$
