EED.pdb
     RDKit          3D

 27 26  0  0  1  0  0  0  0  0999 V2000
   22.5517  -21.1255  -12.7026 N   0  0  0  0  0  0  0  0  0  0  0  0
   21.6401  -20.8285  -13.7321 C   0  0  1  0  0  0  0  0  0  0  0  0
   20.1830  -21.0480  -13.5007 C   0  0  0  0  0  0  0  0  0  0  0  0
   19.8809  -21.7156  -12.2044 C   0  0  0  0  0  0  0  0  0  0  0  0
   18.4437  -21.9011  -11.9805 C   0  0  0  0  0  0  0  0  0  0  0  0
   17.7742  -21.0885  -11.3146 O   0  0  0  0  0  0  0  0  0  0  0  0
   21.7625  -19.4206  -14.2697 C   0  0  0  0  0  0  0  0  0  0  0  0
   21.8423  -18.4598  -13.4380 O   0  0  0  0  0  0  0  0  0  0  0  0
   17.8141  -23.0281  -12.5340 O   0  0  0  0  0  0  0  0  0  0  0  0
   21.7918  -19.0996  -15.6385 N   0  0  0  0  0  0  0  0  0  0  0  0
   22.1140  -17.7396  -16.0472 C   0  0  1  0  0  0  0  0  0  0  0  0
   22.9156  -17.6627  -17.3034 C   0  0  0  0  0  0  0  0  0  0  0  0
   23.2554  -16.2098  -17.5827 C   0  0  0  0  0  0  0  0  0  0  0  0
   24.0643  -16.1002  -18.8083 C   0  0  0  0  0  0  0  0  0  0  0  0
   25.2146  -15.6031  -18.7317 O   0  0  0  0  0  0  0  0  0  0  0  0
   20.8140  -17.0003  -16.3131 C   0  0  0  0  0  0  0  0  0  0  0  0
   19.9159  -17.6318  -16.8721 O   0  0  0  0  0  0  0  0  0  0  0  0
   23.5360  -16.5463  -20.0002 O   0  0  0  0  0  0  0  0  0  0  0  0
   20.6450  -15.6634  -15.9406 N   0  0  0  0  0  0  0  0  0  0  0  0
   19.4244  -14.9106  -16.1056 C   0  0  1  0  0  0  0  0  0  0  0  0
   19.1851  -13.9511  -14.9951 C   0  0  0  0  0  0  0  0  0  0  0  0
   17.8767  -13.2937  -15.1559 C   0  0  0  0  0  0  0  0  0  0  0  0
   17.1105  -13.6951  -16.0647 O   0  0  0  0  0  0  0  0  0  0  0  0
   19.2712  -14.2805  -17.4174 C   0  0  0  0  0  0  0  0  0  0  0  0
   18.1569  -13.8237  -17.7656 O   0  0  0  0  0  0  0  0  0  0  0  0
   17.4827  -12.2529  -14.3314 O   0  0  0  0  0  0  0  0  0  0  0  0
   20.2979  -14.1440  -18.3310 O   0  0  0  0  0  0  0  0  0  0  0  0
  2  1  1  1
  2  7  1  0
  3  2  1  0
  4  3  1  0
  5  6  2  0
  5  4  1  0
  7  8  2  0
  9  5  1  0
 10  7  1  0
 10 11  1  0
 11 12  1  6
 13 12  1  0
 14 13  1  0
 15 14  2  0
 16 11  1  0
 16 17  2  0
 18 14  1  0
 19 16  1  0
 20 19  1  0
 20 21  1  1
 22 21  1  0
 23 22  2  0
 24 20  1  0
 25 24  2  0
 26 22  1  0
 27 24  1  0
M  END
$$$$
