EED.pdb
     RDKit          3D

 27 26  0  0  1  0  0  0  0  0999 V2000
   13.0388  -10.6398  -10.0131 N   0  0  0  0  0  0  0  0  0  0  0  0
   14.4020  -10.4166  -10.2795 C   0  0  1  0  0  0  0  0  0  0  0  0
   15.0301  -11.0726  -11.4626 C   0  0  0  0  0  0  0  0  0  0  0  0
   14.8710  -12.5532  -11.4755 C   0  0  0  0  0  0  0  0  0  0  0  0
   15.9503  -13.2483  -10.7671 C   0  0  0  0  0  0  0  0  0  0  0  0
   16.9617  -12.6453  -10.3603 O   0  0  0  0  0  0  0  0  0  0  0  0
   14.7747   -8.9543  -10.3754 C   0  0  0  0  0  0  0  0  0  0  0  0
   14.3708   -8.2917  -11.3849 O   0  0  0  0  0  0  0  0  0  0  0  0
   15.8329  -14.6306  -10.5471 O   0  0  0  0  0  0  0  0  0  0  0  0
   15.5459   -8.2732   -9.4169 N   0  0  0  0  0  0  0  0  0  0  0  0
   15.8365   -6.8590   -9.6068 C   0  0  1  0  0  0  0  0  0  0  0  0
   15.5795   -6.0242   -8.3970 C   0  0  0  0  0  0  0  0  0  0  0  0
   14.1277   -5.5807   -8.4038 C   0  0  0  0  0  0  0  0  0  0  0  0
   13.8887   -4.5959   -7.3355 C   0  0  0  0  0  0  0  0  0  0  0  0
   14.8496   -4.2500   -6.6053 O   0  0  0  0  0  0  0  0  0  0  0  0
   17.3133   -6.7143   -9.9312 C   0  0  0  0  0  0  0  0  0  0  0  0
   18.1134   -7.1426   -9.0980 O   0  0  0  0  0  0  0  0  0  0  0  0
   12.6202   -4.0838   -7.1698 O   0  0  0  0  0  0  0  0  0  0  0  0
   17.7447   -6.1212  -11.1215 N   0  0  0  0  0  0  0  0  0  0  0  0
   19.1090   -6.1198  -11.5935 C   0  0  1  0  0  0  0  0  0  0  0  0
   19.6686   -7.4895  -11.7413 C   0  0  0  0  0  0  0  0  0  0  0  0
   21.0455   -7.4295  -12.2614 C   0  0  0  0  0  0  0  0  0  0  0  0
   21.2812   -7.9138  -13.3945 O   0  0  0  0  0  0  0  0  0  0  0  0
   19.3392   -5.3019  -12.7849 C   0  0  0  0  0  0  0  0  0  0  0  0
   20.5094   -5.0072  -13.1247 O   0  0  0  0  0  0  0  0  0  0  0  0
   22.0717   -6.8549  -11.5300 O   0  0  0  0  0  0  0  0  0  0  0  0
   18.3298   -4.8157  -13.5924 O   0  0  0  0  0  0  0  0  0  0  0  0
  2  1  1  6
  2  7  1  0
  3  2  1  0
  4  3  1  0
  5  6  2  0
  5  4  1  0
  7  8  2  0
  9  5  1  0
 10  7  1  0
 10 11  1  0
 11 12  1  1
 13 12  1  0
 14 13  1  0
 15 14  2  0
 16 11  1  0
 16 17  2  0
 18 14  1  0
 19 16  1  0
 20 19  1  0
 20 21  1  6
 22 21  1  0
 23 22  2  0
 24 20  1  0
 25 24  2  0
 26 22  1  0
 27 24  1  0
M  END
$$$$
