EED.pdb
     RDKit          3D

 27 26  0  0  1  0  0  0  0  0999 V2000
   17.1521  -11.8775  -14.1114 N   0  0  0  0  0  0  0  0  0  0  0  0
   16.6636  -10.7178  -14.7402 C   0  0  1  0  0  0  0  0  0  0  0  0
   15.1901  -10.5171  -14.8555 C   0  0  0  0  0  0  0  0  0  0  0  0
   14.4758  -11.6830  -15.4455 C   0  0  0  0  0  0  0  0  0  0  0  0
   13.0319  -11.4616  -15.5726 C   0  0  0  0  0  0  0  0  0  0  0  0
   12.3508  -12.0565  -16.4295 O   0  0  0  0  0  0  0  0  0  0  0  0
   17.2084   -9.4321  -14.1601 C   0  0  0  0  0  0  0  0  0  0  0  0
   17.1005   -9.2403  -12.9060 O   0  0  0  0  0  0  0  0  0  0  0  0
   12.4090  -10.5521  -14.7021 O   0  0  0  0  0  0  0  0  0  0  0  0
   17.8291   -8.4252  -14.9207 N   0  0  0  0  0  0  0  0  0  0  0  0
   18.2414   -7.1895  -14.2700 C   0  0  1  0  0  0  0  0  0  0  0  0
   19.5720   -6.6869  -14.7210 C   0  0  0  0  0  0  0  0  0  0  0  0
   20.6566   -7.5799  -14.1457 C   0  0  0  0  0  0  0  0  0  0  0  0
   21.9744   -7.1891  -14.6741 C   0  0  0  0  0  0  0  0  0  0  0  0
   22.6533   -8.0415  -15.2975 O   0  0  0  0  0  0  0  0  0  0  0  0
   17.2288   -6.1097  -14.6106 C   0  0  0  0  0  0  0  0  0  0  0  0
   16.4658   -6.3353  -15.5513 O   0  0  0  0  0  0  0  0  0  0  0  0
   22.4219   -5.9020  -14.4694 O   0  0  0  0  0  0  0  0  0  0  0  0
   17.1663   -4.9137  -13.8893 N   0  0  0  0  0  0  0  0  0  0  0  0
   16.2505   -3.8324  -14.1654 C   0  0  1  0  0  0  0  0  0  0  0  0
   14.8295   -4.2703  -14.1781 C   0  0  0  0  0  0  0  0  0  0  0  0
   13.9357   -3.1124  -14.3518 C   0  0  0  0  0  0  0  0  0  0  0  0
   14.1752   -2.3026  -15.2796 O   0  0  0  0  0  0  0  0  0  0  0  0
   16.4499   -2.6410  -13.3396 C   0  0  0  0  0  0  0  0  0  0  0  0
   15.8766   -1.5677  -13.6414 O   0  0  0  0  0  0  0  0  0  0  0  0
   12.8490   -2.9048  -13.5187 O   0  0  0  0  0  0  0  0  0  0  0  0
   17.2472   -2.6097  -12.2123 O   0  0  0  0  0  0  0  0  0  0  0  0
  2  1  1  1
  2  7  1  0
  3  2  1  0
  4  3  1  0
  5  6  2  0
  5  4  1  0
  7  8  2  0
  9  5  1  0
 10  7  1  0
 10 11  1  0
 11 12  1  6
 13 12  1  0
 14 13  1  0
 15 14  2  0
 16 11  1  0
 16 17  2  0
 18 14  1  0
 19 16  1  0
 20 19  1  0
 20 21  1  1
 22 21  1  0
 23 22  2  0
 24 20  1  0
 25 24  2  0
 26 22  1  0
 27 24  1  0
M  END
$$$$
