EED.pdb
     RDKit          3D

 27 26  0  0  1  0  0  0  0  0999 V2000
   14.0857   -8.4317   -7.9853 N   0  0  0  0  0  0  0  0  0  0  0  0
   14.6689   -7.5205   -8.8845 C   0  0  1  0  0  0  0  0  0  0  0  0
   15.1174   -6.1889   -8.3841 C   0  0  0  0  0  0  0  0  0  0  0  0
   14.0159   -5.3686   -7.8083 C   0  0  0  0  0  0  0  0  0  0  0  0
   14.4648   -4.0467   -7.3598 C   0  0  0  0  0  0  0  0  0  0  0  0
   15.6504   -3.6825   -7.4776 O   0  0  0  0  0  0  0  0  0  0  0  0
   15.8419   -8.0860   -9.6532 C   0  0  0  0  0  0  0  0  0  0  0  0
   16.7985   -8.6116   -8.9976 O   0  0  0  0  0  0  0  0  0  0  0  0
   13.5268   -3.1752   -6.7821 O   0  0  0  0  0  0  0  0  0  0  0  0
   15.9477   -8.0673  -11.0553 N   0  0  0  0  0  0  0  0  0  0  0  0
   17.0933   -8.6996  -11.6942 C   0  0  1  0  0  0  0  0  0  0  0  0
   16.7245   -9.6791  -12.7577 C   0  0  0  0  0  0  0  0  0  0  0  0
   16.0154  -10.8585  -12.1167 C   0  0  0  0  0  0  0  0  0  0  0  0
   16.9647  -11.9592  -11.8806 C   0  0  0  0  0  0  0  0  0  0  0  0
   18.1367  -11.8518  -12.3179 O   0  0  0  0  0  0  0  0  0  0  0  0
   17.9227   -7.6184  -12.3654 C   0  0  0  0  0  0  0  0  0  0  0  0
   17.3256   -6.6085  -12.7418 O   0  0  0  0  0  0  0  0  0  0  0  0
   16.5395  -13.0717  -11.1876 O   0  0  0  0  0  0  0  0  0  0  0  0
   19.3011   -7.7634  -12.5481 N   0  0  0  0  0  0  0  0  0  0  0  0
   20.1588   -6.7772  -13.1613 C   0  0  1  0  0  0  0  0  0  0  0  0
   21.2084   -6.2723  -12.2369 C   0  0  0  0  0  0  0  0  0  0  0  0
   21.9860   -5.1984  -12.8786 C   0  0  0  0  0  0  0  0  0  0  0  0
   21.5294   -4.0301  -12.8555 O   0  0  0  0  0  0  0  0  0  0  0  0
   20.7131   -7.1744  -14.4560 C   0  0  0  0  0  0  0  0  0  0  0  0
   21.0193   -8.3721  -14.6644 O   0  0  0  0  0  0  0  0  0  0  0  0
   23.1975   -5.4531  -13.4996 O   0  0  0  0  0  0  0  0  0  0  0  0
   20.9292   -6.2996  -15.5025 O   0  0  0  0  0  0  0  0  0  0  0  0
  2  1  1  1
  2  7  1  0
  3  2  1  0
  4  3  1  0
  5  6  2  0
  5  4  1  0
  7  8  2  0
  9  5  1  0
 10  7  1  0
 10 11  1  0
 11 12  1  6
 13 12  1  0
 14 13  1  0
 15 14  2  0
 16 11  1  0
 16 17  2  0
 18 14  1  0
 19 16  1  0
 20 19  1  0
 20 21  1  1
 22 21  1  0
 23 22  2  0
 24 20  1  0
 25 24  2  0
 26 22  1  0
 27 24  1  0
M  END
$$$$
