EED.pdb
     RDKit          3D

 27 26  0  0  1  0  0  0  0  0999 V2000
   15.7889  -11.0573  -15.9788 N   0  0  0  0  0  0  0  0  0  0  0  0
   16.9842  -11.4274  -15.3360 C   0  0  1  0  0  0  0  0  0  0  0  0
   17.3470  -12.8715  -15.2477 C   0  0  0  0  0  0  0  0  0  0  0  0
   17.0407  -13.6382  -16.4871 C   0  0  0  0  0  0  0  0  0  0  0  0
   17.5554  -15.0106  -16.4498 C   0  0  0  0  0  0  0  0  0  0  0  0
   17.3963  -15.7962  -17.4036 O   0  0  0  0  0  0  0  0  0  0  0  0
   18.2111  -10.7286  -15.8770 C   0  0  0  0  0  0  0  0  0  0  0  0
   19.3356  -10.9702  -15.3307 O   0  0  0  0  0  0  0  0  0  0  0  0
   18.2437  -15.4427  -15.3041 O   0  0  0  0  0  0  0  0  0  0  0  0
   18.1916   -9.8206  -16.9506 N   0  0  0  0  0  0  0  0  0  0  0  0
   19.4296   -9.1741  -17.3627 C   0  0  1  0  0  0  0  0  0  0  0  0
   19.4469   -8.7668  -18.7980 C   0  0  0  0  0  0  0  0  0  0  0  0
   19.7676   -9.9810  -19.6509 C   0  0  0  0  0  0  0  0  0  0  0  0
   21.2248  -10.1749  -19.7373 C   0  0  0  0  0  0  0  0  0  0  0  0
   21.7191  -11.2467  -19.3094 O   0  0  0  0  0  0  0  0  0  0  0  0
   19.5998   -7.9043  -16.5466 C   0  0  0  0  0  0  0  0  0  0  0  0
   18.5752   -7.2850  -16.2559 O   0  0  0  0  0  0  0  0  0  0  0  0
   22.0007   -9.1764  -20.2849 O   0  0  0  0  0  0  0  0  0  0  0  0
   20.8623   -7.4587  -16.1443 N   0  0  0  0  0  0  0  0  0  0  0  0
   21.1042   -6.2778  -15.3498 C   0  0  1  0  0  0  0  0  0  0  0  0
   22.2392   -6.4430  -14.4035 C   0  0  0  0  0  0  0  0  0  0  0  0
   22.4368   -5.2132  -13.6172 C   0  0  0  0  0  0  0  0  0  0  0  0
   21.6037   -4.9320  -12.7223 O   0  0  0  0  0  0  0  0  0  0  0  0
   21.2082   -5.0379  -16.1199 C   0  0  0  0  0  0  0  0  0  0  0  0
   20.8984   -3.9447  -15.5899 O   0  0  0  0  0  0  0  0  0  0  0  0
   23.5132   -4.3721  -13.8462 O   0  0  0  0  0  0  0  0  0  0  0  0
   21.6395   -4.9789  -17.4305 O   0  0  0  0  0  0  0  0  0  0  0  0
  2  1  1  6
  2  7  1  0
  3  2  1  0
  4  3  1  0
  5  6  2  0
  5  4  1  0
  7  8  2  0
  9  5  1  0
 10  7  1  0
 10 11  1  0
 11 12  1  6
 13 12  1  0
 14 13  1  0
 15 14  2  0
 16 11  1  0
 16 17  2  0
 18 14  1  0
 19 16  1  0
 20 19  1  0
 20 21  1  6
 22 21  1  0
 23 22  2  0
 24 20  1  0
 25 24  2  0
 26 22  1  0
 27 24  1  0
M  END
$$$$
