EED.pdb
     RDKit          3D

 27 26  0  0  1  0  0  0  0  0999 V2000
   13.2393  -11.5347  -12.7437 N   0  0  0  0  0  0  0  0  0  0  0  0
   14.0928  -11.7947  -11.6561 C   0  0  1  0  0  0  0  0  0  0  0  0
   14.6979  -13.1504  -11.5127 C   0  0  0  0  0  0  0  0  0  0  0  0
   15.2792  -13.6788  -12.7779 C   0  0  0  0  0  0  0  0  0  0  0  0
   15.9835  -14.9515  -12.5932 C   0  0  0  0  0  0  0  0  0  0  0  0
   15.9851  -15.5466  -11.4987 O   0  0  0  0  0  0  0  0  0  0  0  0
   15.2406  -10.8182  -11.5326 C   0  0  0  0  0  0  0  0  0  0  0  0
   16.0599  -10.9658  -10.5691 O   0  0  0  0  0  0  0  0  0  0  0  0
   16.6730  -15.5061  -13.6841 O   0  0  0  0  0  0  0  0  0  0  0  0
   15.4634   -9.7480  -12.4173 N   0  0  0  0  0  0  0  0  0  0  0  0
   16.5840   -8.8482  -12.1829 C   0  0  1  0  0  0  0  0  0  0  0  0
   17.3257   -8.4753  -13.4227 C   0  0  0  0  0  0  0  0  0  0  0  0
   18.2527   -9.6155  -13.8039 C   0  0  0  0  0  0  0  0  0  0  0  0
   19.0789   -9.2373  -14.9627 C   0  0  0  0  0  0  0  0  0  0  0  0
   20.1202   -8.5632  -14.7692 O   0  0  0  0  0  0  0  0  0  0  0  0
   16.0441   -7.5570  -11.5923 C   0  0  0  0  0  0  0  0  0  0  0  0
   15.1303   -7.0015  -12.2041 O   0  0  0  0  0  0  0  0  0  0  0  0
   18.6857   -9.6345  -16.2222 O   0  0  0  0  0  0  0  0  0  0  0  0
   16.5616   -7.0231  -10.4084 N   0  0  0  0  0  0  0  0  0  0  0  0
   16.0894   -5.8153   -9.7742 C   0  0  1  0  0  0  0  0  0  0  0  0
   16.1378   -5.8875   -8.2898 C   0  0  0  0  0  0  0  0  0  0  0  0
   15.1930   -6.9026   -7.7929 C   0  0  0  0  0  0  0  0  0  0  0  0
   15.4593   -7.4972   -6.7207 O   0  0  0  0  0  0  0  0  0  0  0  0
   16.6953   -4.5845  -10.2835 C   0  0  0  0  0  0  0  0  0  0  0  0
   16.2470   -3.4708   -9.9223 O   0  0  0  0  0  0  0  0  0  0  0  0
   14.0303   -7.2082   -8.4806 O   0  0  0  0  0  0  0  0  0  0  0  0
   17.7622   -4.5564  -11.1599 O   0  0  0  0  0  0  0  0  0  0  0  0
  2  1  1  6
  2  7  1  0
  3  2  1  0
  4  3  1  0
  5  6  2  0
  5  4  1  0
  7  8  2  0
  9  5  1  0
 10  7  1  0
 10 11  1  0
 11 12  1  6
 13 12  1  0
 14 13  1  0
 15 14  2  0
 16 11  1  0
 16 17  2  0
 18 14  1  0
 19 16  1  0
 20 19  1  0
 20 21  1  1
 22 21  1  0
 23 22  2  0
 24 20  1  0
 25 24  2  0
 26 22  1  0
 27 24  1  0
M  END
$$$$
