EED.pdb
     RDKit          3D

 27 26  0  0  1  0  0  0  0  0999 V2000
   16.1785  -11.4476  -16.5703 N   0  0  0  0  0  0  0  0  0  0  0  0
   16.9742  -11.7834  -15.4598 C   0  0  1  0  0  0  0  0  0  0  0  0
   17.0646  -13.2097  -15.0329 C   0  0  0  0  0  0  0  0  0  0  0  0
   15.8011  -13.9717  -15.2347 C   0  0  0  0  0  0  0  0  0  0  0  0
   14.7697  -13.6363  -14.2480 C   0  0  0  0  0  0  0  0  0  0  0  0
   13.6538  -14.1901  -14.2526 O   0  0  0  0  0  0  0  0  0  0  0  0
   18.4015  -11.2942  -15.5600 C   0  0  0  0  0  0  0  0  0  0  0  0
   19.2329  -11.6666  -14.6705 O   0  0  0  0  0  0  0  0  0  0  0  0
   15.0558  -12.6630  -13.2765 O   0  0  0  0  0  0  0  0  0  0  0  0
   18.8743  -10.4465  -16.5776 N   0  0  0  0  0  0  0  0  0  0  0  0
   20.2620  -10.0058  -16.5536 C   0  0  1  0  0  0  0  0  0  0  0  0
   20.9910  -10.2436  -17.8336 C   0  0  0  0  0  0  0  0  0  0  0  0
   22.4334   -9.7999  -17.6688 C   0  0  0  0  0  0  0  0  0  0  0  0
   23.1820  -10.0197  -18.9176 C   0  0  0  0  0  0  0  0  0  0  0  0
   24.3636   -9.6029  -18.9962 O   0  0  0  0  0  0  0  0  0  0  0  0
   20.2827   -8.5064  -16.3116 C   0  0  0  0  0  0  0  0  0  0  0  0
   19.4553   -7.8296  -16.9244 O   0  0  0  0  0  0  0  0  0  0  0  0
   22.5647  -10.6756  -19.9605 O   0  0  0  0  0  0  0  0  0  0  0  0
   21.1997   -7.9210  -15.4336 N   0  0  0  0  0  0  0  0  0  0  0  0
   21.3051   -6.5044  -15.1769 C   0  0  1  0  0  0  0  0  0  0  0  0
   22.0942   -6.1978  -13.9544 C   0  0  0  0  0  0  0  0  0  0  0  0
   21.9947   -4.7659  -13.6233 C   0  0  0  0  0  0  0  0  0  0  0  0
   22.4661   -4.3678  -12.5309 O   0  0  0  0  0  0  0  0  0  0  0  0
   21.7418   -5.7093  -16.3252 C   0  0  0  0  0  0  0  0  0  0  0  0
   22.7989   -6.0100  -16.9284 O   0  0  0  0  0  0  0  0  0  0  0  0
   21.3970   -3.8626  -14.4865 O   0  0  0  0  0  0  0  0  0  0  0  0
   21.0519   -4.6169  -16.8129 O   0  0  0  0  0  0  0  0  0  0  0  0
  2  1  1  6
  2  7  1  0
  3  2  1  0
  4  3  1  0
  5  6  2  0
  5  4  1  0
  7  8  2  0
  9  5  1  0
 10  7  1  0
 10 11  1  0
 11 12  1  6
 13 12  1  0
 14 13  1  0
 15 14  2  0
 16 11  1  0
 16 17  2  0
 18 14  1  0
 19 16  1  0
 20 19  1  0
 20 21  1  1
 22 21  1  0
 23 22  2  0
 24 20  1  0
 25 24  2  0
 26 22  1  0
 27 24  1  0
M  END
$$$$
