DSL.pdb
     RDKit          3D

 23 22  0  0  1  0  0  0  0  0999 V2000
    9.3994  -19.9459   20.1776 N   0  0  0  0  0  0  0  0  0  0  0  0
    9.7215  -18.5130   20.2345 C   0  0  1  0  0  0  0  0  0  0  0  0
    9.5263  -18.0494   18.7877 C   0  0  0  0  0  0  0  0  0  0  0  0
   10.7045  -18.4103   17.9899 C   0  0  0  0  0  0  0  0  0  0  0  0
   10.4870  -18.6653   16.7559 O   0  0  0  0  0  0  0  0  0  0  0  0
    8.7320  -17.8285   21.0927 C   0  0  0  0  0  0  0  0  0  0  0  0
    8.2943  -16.7208   20.7076 O   0  0  0  0  0  0  0  0  0  0  0  0
   11.9995  -18.4923   18.4651 O   0  0  0  0  0  0  0  0  0  0  0  0
    7.7355  -19.2354   24.9041 O   0  0  0  0  0  0  0  0  0  0  0  0
    6.7479  -18.5909   24.1700 C   0  0  0  0  0  0  0  0  0  0  0  0
    7.3972  -17.6325   23.1356 C   0  0  2  0  0  0  0  0  0  0  0  0
    8.2848  -18.4066   22.3149 N   0  0  0  0  0  0  0  0  0  0  0  0
    8.0316  -16.5492   23.8961 C   0  0  0  0  0  0  0  0  0  0  0  0
    9.2925  -16.5643   24.0198 O   0  0  0  0  0  0  0  0  0  0  0  0
    7.5672  -12.6222   27.7978 C   0  0  0  0  0  0  0  0  0  0  0  0
    7.4230  -12.2118   26.3408 C   0  0  2  0  0  0  0  0  0  0  0  0
    6.4606  -11.0171   26.3625 C   0  0  0  0  0  0  0  0  0  0  0  0
    6.8710  -13.3405   25.5079 C   0  0  0  0  0  0  0  0  0  0  0  0
    7.8206  -14.4615   25.2892 C   0  0  2  0  0  0  0  0  0  0  0  0
    7.2656  -15.5198   24.4701 N   0  0  0  0  0  0  0  0  0  0  0  0
    8.4538  -15.0012   26.5208 C   0  0  0  0  0  0  0  0  0  0  0  0
    7.8719  -15.9279   27.3658 O   0  0  0  0  0  0  0  0  0  0  0  0
    9.6219  -14.6181   26.8807 O   0  0  0  0  0  0  0  0  0  0  0  0
  2  1  1  6
  2  3  1  0
  3  4  1  0
  4  5  2  0
  6 12  1  0
  6  2  1  0
  7  6  2  0
  8  4  1  0
  9 10  1  0
 11 10  1  1
 11 12  1  0
 11 13  1  0
 13 20  1  0
 14 13  2  0
 16 18  1  0
 16 15  1  1
 17 16  1  0
 19 18  1  1
 19 21  1  0
 20 19  1  0
 21 22  1  0
 23 21  2  0
M  END
$$$$
