DSL.pdb
     RDKit          3D

 23 22  0  0  1  0  0  0  0  0999 V2000
    9.7336  -15.1821   18.6979 N   0  0  0  0  0  0  0  0  0  0  0  0
    8.7391  -14.1749   19.0940 C   0  0  1  0  0  0  0  0  0  0  0  0
    7.6811  -14.2703   17.9907 C   0  0  0  0  0  0  0  0  0  0  0  0
    8.3197  -14.1116   16.6784 C   0  0  0  0  0  0  0  0  0  0  0  0
    9.5586  -14.4223   16.6187 O   0  0  0  0  0  0  0  0  0  0  0  0
    8.1277  -14.5776   20.3778 C   0  0  0  0  0  0  0  0  0  0  0  0
    7.1752  -13.8902   20.8103 O   0  0  0  0  0  0  0  0  0  0  0  0
    7.6934  -13.6618   15.5317 O   0  0  0  0  0  0  0  0  0  0  0  0
    9.3967  -17.9542   22.4262 O   0  0  0  0  0  0  0  0  0  0  0  0
    8.0813  -17.5395   22.5919 C   0  0  0  0  0  0  0  0  0  0  0  0
    7.9752  -16.0083   22.3585 C   0  0  2  0  0  0  0  0  0  0  0  0
    8.5991  -15.7106   21.1004 N   0  0  0  0  0  0  0  0  0  0  0  0
    8.5776  -15.3552   23.5269 C   0  0  0  0  0  0  0  0  0  0  0  0
    9.8108  -15.0680   23.4815 O   0  0  0  0  0  0  0  0  0  0  0  0
    7.7430  -11.4973   25.3190 C   0  0  0  0  0  0  0  0  0  0  0  0
    6.7460  -12.5672   25.7354 C   0  0  2  0  0  0  0  0  0  0  0  0
    5.6572  -11.8107   26.5075 C   0  0  0  0  0  0  0  0  0  0  0  0
    7.3990  -13.6147   26.6007 C   0  0  0  0  0  0  0  0  0  0  0  0
    8.3598  -14.4905   25.8824 C   0  0  2  0  0  0  0  0  0  0  0  0
    7.8105  -15.0521   24.6651 N   0  0  0  0  0  0  0  0  0  0  0  0
    9.0094  -15.5335   26.7185 C   0  0  0  0  0  0  0  0  0  0  0  0
    8.9826  -16.8894   26.4502 O   0  0  0  0  0  0  0  0  0  0  0  0
    9.6547  -15.2173   27.7790 O   0  0  0  0  0  0  0  0  0  0  0  0
  2  1  1  6
  2  3  1  0
  3  4  1  0
  4  5  2  0
  6 12  1  0
  6  2  1  0
  7  6  2  0
  8  4  1  0
  9 10  1  0
 11 10  1  1
 11 12  1  0
 11 13  1  0
 13 20  1  0
 14 13  2  0
 16 18  1  0
 16 15  1  1
 17 16  1  0
 19 18  1  1
 19 21  1  0
 20 19  1  0
 21 22  1  0
 23 21  2  0
M  END
$$$$
