DSL.pdb
     RDKit          3D

 23 22  0  0  1  0  0  0  0  0999 V2000
    9.3785  -17.9926   19.9530 N   0  0  0  0  0  0  0  0  0  0  0  0
    8.3968  -16.9264   19.7086 C   0  0  1  0  0  0  0  0  0  0  0  0
    7.4549  -17.5447   18.6709 C   0  0  0  0  0  0  0  0  0  0  0  0
    8.1569  -17.6880   17.3896 C   0  0  0  0  0  0  0  0  0  0  0  0
    8.9003  -16.7058   17.0468 O   0  0  0  0  0  0  0  0  0  0  0  0
    7.6379  -16.6733   20.9512 C   0  0  0  0  0  0  0  0  0  0  0  0
    6.6980  -15.8481   20.9019 O   0  0  0  0  0  0  0  0  0  0  0  0
    8.0738  -18.7812   16.5484 O   0  0  0  0  0  0  0  0  0  0  0  0
    7.9002  -19.0010   24.3831 O   0  0  0  0  0  0  0  0  0  0  0  0
    6.8331  -18.1429   24.1494 C   0  0  0  0  0  0  0  0  0  0  0  0
    7.3201  -16.8924   23.3687 C   0  0  2  0  0  0  0  0  0  0  0  0
    7.9577  -17.3457   22.1651 N   0  0  0  0  0  0  0  0  0  0  0  0
    8.1767  -16.1257   24.2813 C   0  0  0  0  0  0  0  0  0  0  0  0
    9.4318  -16.1931   24.1214 O   0  0  0  0  0  0  0  0  0  0  0  0
    7.5924  -11.7676   25.3006 C   0  0  0  0  0  0  0  0  0  0  0  0
    6.7430  -12.6884   26.1624 C   0  0  2  0  0  0  0  0  0  0  0  0
    5.8978  -11.7462   27.0295 C   0  0  0  0  0  0  0  0  0  0  0  0
    7.6036  -13.5866   27.0139 C   0  0  0  0  0  0  0  0  0  0  0  0
    8.4126  -14.5674   26.2459 C   0  0  2  0  0  0  0  0  0  0  0  0
    7.6240  -15.3348   25.3035 N   0  0  0  0  0  0  0  0  0  0  0  0
    9.2860  -15.4456   27.0674 C   0  0  0  0  0  0  0  0  0  0  0  0
   10.4402  -15.0341   27.7075 O   0  0  0  0  0  0  0  0  0  0  0  0
    9.0039  -16.6844   27.2312 O   0  0  0  0  0  0  0  0  0  0  0  0
  2  1  1  1
  2  3  1  0
  3  4  1  0
  4  5  2  0
  6 12  1  0
  6  2  1  0
  7  6  2  0
  8  4  1  0
  9 10  1  0
 11 10  1  1
 11 12  1  0
 11 13  1  0
 13 20  1  0
 14 13  2  0
 16 18  1  0
 16 15  1  6
 17 16  1  0
 19 18  1  1
 19 21  1  0
 20 19  1  0
 21 22  1  0
 23 21  2  0
M  END
$$$$
