DSL.pdb
     RDKit          3D

 23 22  0  0  1  0  0  0  0  0999 V2000
    9.5576  -14.9495   18.0566 N   0  0  0  0  0  0  0  0  0  0  0  0
    8.5937  -13.9069   18.4363 C   0  0  1  0  0  0  0  0  0  0  0  0
    7.6392  -13.8557   17.2395 C   0  0  0  0  0  0  0  0  0  0  0  0
    8.3870  -14.0996   16.0001 C   0  0  0  0  0  0  0  0  0  0  0  0
    9.2197  -15.0694   16.0315 O   0  0  0  0  0  0  0  0  0  0  0  0
    7.8421  -14.3537   19.6277 C   0  0  0  0  0  0  0  0  0  0  0  0
    6.9061  -13.6274   20.0321 O   0  0  0  0  0  0  0  0  0  0  0  0
    8.2586  -13.3741   14.8310 O   0  0  0  0  0  0  0  0  0  0  0  0
    8.7926  -17.8545   21.8506 O   0  0  0  0  0  0  0  0  0  0  0  0
    7.4840  -17.4129   21.7013 C   0  0  0  0  0  0  0  0  0  0  0  0
    7.4634  -15.8723   21.5102 C   0  0  2  0  0  0  0  0  0  0  0  0
    8.1642  -15.5702   20.2944 N   0  0  0  0  0  0  0  0  0  0  0  0
    8.0360  -15.2832   22.7266 C   0  0  0  0  0  0  0  0  0  0  0  0
    9.2947  -15.1543   22.7931 O   0  0  0  0  0  0  0  0  0  0  0  0
    6.1250  -12.0242   27.6813 C   0  0  0  0  0  0  0  0  0  0  0  0
    7.2409  -12.7518   26.9482 C   0  0  2  0  0  0  0  0  0  0  0  0
    8.2696  -11.6625   26.6178 C   0  0  0  0  0  0  0  0  0  0  0  0
    6.7289  -13.4153   25.6952 C   0  0  0  0  0  0  0  0  0  0  0  0
    7.7159  -14.2982   25.0225 C   0  0  2  0  0  0  0  0  0  0  0  0
    7.2141  -14.8690   23.7891 N   0  0  0  0  0  0  0  0  0  0  0  0
    8.3304  -15.3351   25.8921 C   0  0  0  0  0  0  0  0  0  0  0  0
    7.8575  -16.6263   26.0347 O   0  0  0  0  0  0  0  0  0  0  0  0
    9.3747  -15.0749   26.5868 O   0  0  0  0  0  0  0  0  0  0  0  0
  2  1  1  6
  2  3  1  0
  3  4  1  0
  4  5  2  0
  6 12  1  0
  6  2  1  0
  7  6  2  0
  8  4  1  0
  9 10  1  0
 11 10  1  1
 11 12  1  0
 11 13  1  0
 13 20  1  0
 14 13  2  0
 16 18  1  0
 16 15  1  6
 17 16  1  0
 19 18  1  1
 19 21  1  0
 20 19  1  0
 21 22  1  0
 23 21  2  0
M  END
$$$$
