DSL.pdb
     RDKit          3D

 23 22  0  0  1  0  0  0  0  0999 V2000
    8.7253  -18.1351   19.8067 N   0  0  0  0  0  0  0  0  0  0  0  0
    8.3942  -16.7035   19.8396 C   0  0  1  0  0  0  0  0  0  0  0  0
    7.3082  -16.5674   18.7682 C   0  0  0  0  0  0  0  0  0  0  0  0
    7.9131  -16.6738   17.4349 C   0  0  0  0  0  0  0  0  0  0  0  0
    7.9390  -17.8460   16.9249 O   0  0  0  0  0  0  0  0  0  0  0  0
    7.8102  -16.3722   21.1562 C   0  0  0  0  0  0  0  0  0  0  0  0
    7.3829  -15.2082   21.3276 O   0  0  0  0  0  0  0  0  0  0  0  0
    8.4436  -15.6239   16.7097 O   0  0  0  0  0  0  0  0  0  0  0  0
    7.8748  -19.0127   24.4437 O   0  0  0  0  0  0  0  0  0  0  0  0
    6.7658  -18.2019   24.2381 C   0  0  0  0  0  0  0  0  0  0  0  0
    7.1799  -16.9263   23.4560 C   0  0  2  0  0  0  0  0  0  0  0  0
    7.7296  -17.3413   22.1965 N   0  0  0  0  0  0  0  0  0  0  0  0
    8.0951  -16.1727   24.3214 C   0  0  0  0  0  0  0  0  0  0  0  0
    9.3385  -16.2541   24.0914 O   0  0  0  0  0  0  0  0  0  0  0  0
    7.7498  -11.7568   25.2706 C   0  0  0  0  0  0  0  0  0  0  0  0
    6.8882  -12.6815   26.1159 C   0  0  2  0  0  0  0  0  0  0  0  0
    6.0028  -11.7435   26.9467 C   0  0  0  0  0  0  0  0  0  0  0  0
    7.7355  -13.5579   27.0028 C   0  0  0  0  0  0  0  0  0  0  0  0
    8.4594  -14.6380   26.2850 C   0  0  2  0  0  0  0  0  0  0  0  0
    7.6097  -15.3788   25.3749 N   0  0  0  0  0  0  0  0  0  0  0  0
    9.2542  -15.5480   27.1506 C   0  0  0  0  0  0  0  0  0  0  0  0
   10.4252  -15.1987   27.7971 O   0  0  0  0  0  0  0  0  0  0  0  0
    8.8807  -16.7569   27.3503 O   0  0  0  0  0  0  0  0  0  0  0  0
  2  1  1  1
  2  3  1  0
  3  4  1  0
  4  5  2  0
  6 12  1  0
  6  2  1  0
  7  6  2  0
  8  4  1  0
  9 10  1  0
 11 10  1  1
 11 12  1  0
 11 13  1  0
 13 20  1  0
 14 13  2  0
 16 18  1  0
 16 15  1  6
 17 16  1  0
 19 18  1  1
 19 21  1  0
 20 19  1  0
 21 22  1  0
 23 21  2  0
M  END
$$$$
