DSL.pdb
     RDKit          3D

 23 22  0  0  1  0  0  0  0  0999 V2000
   11.1135  -18.3975   20.1207 N   0  0  0  0  0  0  0  0  0  0  0  0
   11.7632  -17.4243   21.0102 C   0  0  1  0  0  0  0  0  0  0  0  0
   12.6390  -16.6048   20.0575 C   0  0  0  0  0  0  0  0  0  0  0  0
   13.8239  -17.3852   19.6808 C   0  0  0  0  0  0  0  0  0  0  0  0
   14.3684  -18.0623   20.6189 O   0  0  0  0  0  0  0  0  0  0  0  0
   10.7333  -16.5387   21.5927 C   0  0  0  0  0  0  0  0  0  0  0  0
   11.1124  -15.4576   22.0970 O   0  0  0  0  0  0  0  0  0  0  0  0
   14.3790  -17.4391   18.4165 O   0  0  0  0  0  0  0  0  0  0  0  0
    6.8651  -16.7532   20.5708 O   0  0  0  0  0  0  0  0  0  0  0  0
    6.9948  -16.5188   21.9339 C   0  0  0  0  0  0  0  0  0  0  0  0
    8.4322  -16.0259   22.2522 C   0  0  2  0  0  0  0  0  0  0  0  0
    9.3548  -16.8959   21.5796 N   0  0  0  0  0  0  0  0  0  0  0  0
    8.5573  -15.9892   23.7142 C   0  0  0  0  0  0  0  0  0  0  0  0
    9.4302  -16.7291   24.2582 O   0  0  0  0  0  0  0  0  0  0  0  0
    8.3563  -12.1577   26.3820 C   0  0  0  0  0  0  0  0  0  0  0  0
    7.0479  -12.7710   25.9086 C   0  0  2  0  0  0  0  0  0  0  0  0
    5.9648  -11.7813   26.3575 C   0  0  0  0  0  0  0  0  0  0  0  0
    6.8298  -14.1313   26.5204 C   0  0  0  0  0  0  0  0  0  0  0  0
    7.6733  -15.2068   25.9390 C   0  0  2  0  0  0  0  0  0  0  0  0
    7.7361  -15.1552   24.4925 N   0  0  0  0  0  0  0  0  0  0  0  0
    7.3681  -16.5787   26.4223 C   0  0  0  0  0  0  0  0  0  0  0  0
    7.9616  -17.1798   27.5167 O   0  0  0  0  0  0  0  0  0  0  0  0
    6.5028  -17.3088   25.8231 O   0  0  0  0  0  0  0  0  0  0  0  0
  2  1  1  6
  2  3  1  0
  3  4  1  0
  4  5  2  0
  6 12  1  0
  6  2  1  0
  7  6  2  0
  8  4  1  0
  9 10  1  0
 11 10  1  1
 11 12  1  0
 11 13  1  0
 13 20  1  0
 14 13  2  0
 16 18  1  0
 16 15  1  1
 17 16  1  0
 19 18  1  6
 19 21  1  0
 20 19  1  0
 21 22  1  0
 23 21  2  0
M  END
$$$$
