DSL.pdb
     RDKit          3D

 23 22  0  0  1  0  0  0  0  0999 V2000
   11.9968  -17.6151   19.8170 N   0  0  0  0  0  0  0  0  0  0  0  0
   10.6546  -17.8843   20.3520 C   0  0  1  0  0  0  0  0  0  0  0  0
   10.9352  -18.7121   21.6098 C   0  0  0  0  0  0  0  0  0  0  0  0
   11.5700  -19.9815   21.2347 C   0  0  0  0  0  0  0  0  0  0  0  0
   11.0883  -20.5638   20.2033 O   0  0  0  0  0  0  0  0  0  0  0  0
   10.0277  -16.6069   20.7511 C   0  0  0  0  0  0  0  0  0  0  0  0
   10.7467  -15.5823   20.7578 O   0  0  0  0  0  0  0  0  0  0  0  0
   12.6244  -20.5774   21.9000 O   0  0  0  0  0  0  0  0  0  0  0  0
    5.9869  -16.0845   20.7345 O   0  0  0  0  0  0  0  0  0  0  0  0
    6.8500  -15.0008   20.6336 C   0  0  0  0  0  0  0  0  0  0  0  0
    8.1226  -15.2561   21.4855 C   0  0  2  0  0  0  0  0  0  0  0  0
    8.6520  -16.5373   21.1126 N   0  0  0  0  0  0  0  0  0  0  0  0
    7.7276  -15.1267   22.8932 C   0  0  0  0  0  0  0  0  0  0  0  0
    6.4910  -15.1233   23.1692 O   0  0  0  0  0  0  0  0  0  0  0  0
    5.8067  -11.9064   26.4543 C   0  0  0  0  0  0  0  0  0  0  0  0
    7.0505  -12.7791   26.5136 C   0  0  2  0  0  0  0  0  0  0  0  0
    8.1927  -11.8129   26.8535 C   0  0  0  0  0  0  0  0  0  0  0  0
    7.2956  -13.4703   25.1966 C   0  0  0  0  0  0  0  0  0  0  0  0
    8.4269  -14.4327   25.2112 C   0  0  2  0  0  0  0  0  0  0  0  0
    8.6912  -15.0128   23.9102 N   0  0  0  0  0  0  0  0  0  0  0  0
    8.3544  -15.4754   26.2678 C   0  0  0  0  0  0  0  0  0  0  0  0
    9.1884  -15.5425   27.3684 O   0  0  0  0  0  0  0  0  0  0  0  0
    7.4786  -16.4084   26.2109 O   0  0  0  0  0  0  0  0  0  0  0  0
  2  1  1  1
  2  3  1  0
  3  4  1  0
  4  5  2  0
  6 12  1  0
  6  2  1  0
  7  6  2  0
  8  4  1  0
  9 10  1  0
 11 10  1  6
 11 12  1  0
 11 13  1  0
 13 20  1  0
 14 13  2  0
 16 18  1  0
 16 15  1  6
 17 16  1  0
 19 18  1  6
 19 21  1  0
 20 19  1  0
 21 22  1  0
 23 21  2  0
M  END
$$$$
