DSL.pdb
     RDKit          3D

 23 22  0  0  1  0  0  0  0  0999 V2000
    9.3916  -17.6518   19.4910 N   0  0  0  0  0  0  0  0  0  0  0  0
    8.4069  -16.5608   19.5141 C   0  0  1  0  0  0  0  0  0  0  0  0
    7.2754  -17.0875   18.6262 C   0  0  0  0  0  0  0  0  0  0  0  0
    7.7881  -17.3501   17.2759 C   0  0  0  0  0  0  0  0  0  0  0  0
    8.4253  -16.3890   16.7235 O   0  0  0  0  0  0  0  0  0  0  0  0
    7.8967  -16.3988   20.8916 C   0  0  0  0  0  0  0  0  0  0  0  0
    6.9043  -15.6552   21.0615 O   0  0  0  0  0  0  0  0  0  0  0  0
    7.6351  -18.5321   16.5766 O   0  0  0  0  0  0  0  0  0  0  0  0
    9.3364  -18.7097   23.9996 O   0  0  0  0  0  0  0  0  0  0  0  0
    8.0268  -18.2486   24.0435 C   0  0  0  0  0  0  0  0  0  0  0  0
    7.9157  -16.8966   23.2885 C   0  0  2  0  0  0  0  0  0  0  0  0
    8.5066  -17.0669   21.9915 N   0  0  0  0  0  0  0  0  0  0  0  0
    8.5487  -15.8800   24.1372 C   0  0  0  0  0  0  0  0  0  0  0  0
    9.7678  -15.6032   23.9302 O   0  0  0  0  0  0  0  0  0  0  0  0
    7.2750  -11.7441   24.9339 C   0  0  0  0  0  0  0  0  0  0  0  0
    6.5148  -12.7339   25.8024 C   0  0  2  0  0  0  0  0  0  0  0  0
    5.4743  -11.8863   26.5459 C   0  0  0  0  0  0  0  0  0  0  0  0
    7.4372  -13.4339   26.7677 C   0  0  0  0  0  0  0  0  0  0  0  0
    8.4248  -14.3381   26.1248 C   0  0  2  0  0  0  0  0  0  0  0  0
    7.8255  -15.2269   25.1502 N   0  0  0  0  0  0  0  0  0  0  0  0
    9.3090  -15.0763   27.0640 C   0  0  0  0  0  0  0  0  0  0  0  0
    9.4017  -16.4535   27.1425 O   0  0  0  0  0  0  0  0  0  0  0  0
   10.0629  -14.4481   27.8873 O   0  0  0  0  0  0  0  0  0  0  0  0
  2  1  1  1
  2  3  1  0
  3  4  1  0
  4  5  2  0
  6 12  1  0
  6  2  1  0
  7  6  2  0
  8  4  1  0
  9 10  1  0
 11 10  1  1
 11 12  1  0
 11 13  1  0
 13 20  1  0
 14 13  2  0
 16 18  1  0
 16 15  1  6
 17 16  1  0
 19 18  1  1
 19 21  1  0
 20 19  1  0
 21 22  1  0
 23 21  2  0
M  END
$$$$
