DSL.pdb
     RDKit          3D

 23 22  0  0  1  0  0  0  0  0999 V2000
   10.1123  -18.6898   21.7709 N   0  0  0  0  0  0  0  0  0  0  0  0
   10.8964  -17.5890   21.1933 C   0  0  1  0  0  0  0  0  0  0  0  0
   11.0465  -17.9952   19.7241 C   0  0  0  0  0  0  0  0  0  0  0  0
   12.0965  -19.0132   19.5975 C   0  0  0  0  0  0  0  0  0  0  0  0
   13.0745  -18.9119   20.4150 O   0  0  0  0  0  0  0  0  0  0  0  0
   10.1061  -16.3423   21.2656 C   0  0  0  0  0  0  0  0  0  0  0  0
   10.6912  -15.2660   21.0080 O   0  0  0  0  0  0  0  0  0  0  0  0
   12.1035  -20.0473   18.6809 O   0  0  0  0  0  0  0  0  0  0  0  0
    6.0082  -16.3295   22.1063 O   0  0  0  0  0  0  0  0  0  0  0  0
    6.5560  -15.3413   21.2983 C   0  0  0  0  0  0  0  0  0  0  0  0
    8.0393  -15.1002   21.6884 C   0  0  2  0  0  0  0  0  0  0  0  0
    8.7248  -16.3591   21.6116 N   0  0  0  0  0  0  0  0  0  0  0  0
    8.0355  -14.4684   23.0133 C   0  0  0  0  0  0  0  0  0  0  0  0
    7.5954  -13.2841   23.1096 O   0  0  0  0  0  0  0  0  0  0  0  0
    5.9850  -12.2721   27.1656 C   0  0  0  0  0  0  0  0  0  0  0  0
    7.3599  -12.7912   26.7754 C   0  0  2  0  0  0  0  0  0  0  0  0
    8.0094  -11.6383   25.9990 C   0  0  0  0  0  0  0  0  0  0  0  0
    7.2539  -14.0301   25.9231 C   0  0  0  0  0  0  0  0  0  0  0  0
    8.5594  -14.5783   25.4744 C   0  0  2  0  0  0  0  0  0  0  0  0
    8.5028  -15.1557   24.1468 N   0  0  0  0  0  0  0  0  0  0  0  0
    9.2241  -15.4935   26.4385 C   0  0  0  0  0  0  0  0  0  0  0  0
    9.6253  -16.7851   26.1518 O   0  0  0  0  0  0  0  0  0  0  0  0
    9.4690  -15.1181   27.6384 O   0  0  0  0  0  0  0  0  0  0  0  0
  2  1  1  1
  2  3  1  0
  3  4  1  0
  4  5  2  0
  6 12  1  0
  6  2  1  0
  7  6  2  0
  8  4  1  0
  9 10  1  0
 11 10  1  1
 11 12  1  0
 11 13  1  0
 13 20  1  0
 14 13  2  0
 16 18  1  0
 16 15  1  6
 17 16  1  0
 19 18  1  1
 19 21  1  0
 20 19  1  0
 21 22  1  0
 23 21  2  0
M  END
$$$$
