DSL.pdb
     RDKit          3D

 23 22  0  0  1  0  0  0  0  0999 V2000
   11.6075  -17.0089   18.9766 N   0  0  0  0  0  0  0  0  0  0  0  0
   12.0455  -17.5676   20.2636 C   0  0  1  0  0  0  0  0  0  0  0  0
   13.4646  -17.0139   20.4243 C   0  0  0  0  0  0  0  0  0  0  0  0
   14.3777  -17.7246   19.5209 C   0  0  0  0  0  0  0  0  0  0  0  0
   14.0835  -18.9445   19.2752 O   0  0  0  0  0  0  0  0  0  0  0  0
   11.1953  -17.0220   21.3423 C   0  0  0  0  0  0  0  0  0  0  0  0
   10.9915  -15.7871   21.3551 O   0  0  0  0  0  0  0  0  0  0  0  0
   15.5043  -17.1832   18.9317 O   0  0  0  0  0  0  0  0  0  0  0  0
    8.8465  -19.4711   23.5903 O   0  0  0  0  0  0  0  0  0  0  0  0
    8.4957  -18.1342   23.4514 C   0  0  0  0  0  0  0  0  0  0  0  0
    9.7736  -17.2621   23.3208 C   0  0  2  0  0  0  0  0  0  0  0  0
   10.6211  -17.8683   22.3334 N   0  0  0  0  0  0  0  0  0  0  0  0
   10.3553  -17.1526   24.6640 C   0  0  0  0  0  0  0  0  0  0  0  0
   11.4456  -17.7555   24.8943 O   0  0  0  0  0  0  0  0  0  0  0  0
   10.8025  -13.3944   28.3660 C   0  0  0  0  0  0  0  0  0  0  0  0
    9.6822  -13.9712   27.5151 C   0  0  2  0  0  0  0  0  0  0  0  0
    8.4685  -13.0787   27.8057 C   0  0  0  0  0  0  0  0  0  0  0  0
    9.4025  -15.4066   27.8811 C   0  0  0  0  0  0  0  0  0  0  0  0
   10.1354  -16.4025   27.0583 C   0  0  2  0  0  0  0  0  0  0  0  0
    9.7252  -16.3981   25.6688 N   0  0  0  0  0  0  0  0  0  0  0  0
   10.1639  -17.7809   27.6133 C   0  0  0  0  0  0  0  0  0  0  0  0
   11.1306  -18.2644   28.4753 O   0  0  0  0  0  0  0  0  0  0  0  0
    9.2558  -18.6310   27.3073 O   0  0  0  0  0  0  0  0  0  0  0  0
  2  1  1  6
  2  3  1  0
  3  4  1  0
  4  5  2  0
  6 12  1  0
  6  2  1  0
  7  6  2  0
  8  4  1  0
  9 10  1  0
 11 10  1  1
 11 12  1  0
 11 13  1  0
 13 20  1  0
 14 13  2  0
 16 18  1  0
 16 15  1  1
 17 16  1  0
 19 18  1  1
 19 21  1  0
 20 19  1  0
 21 22  1  0
 23 21  2  0
M  END
$$$$
