DSL.pdb
     RDKit          3D

 23 22  0  0  1  0  0  0  0  0999 V2000
    5.3852  -17.9331   20.6259 N   0  0  0  0  0  0  0  0  0  0  0  0
    5.2672  -17.5143   22.0298 C   0  0  1  0  0  0  0  0  0  0  0  0
    4.4622  -18.6491   22.6704 C   0  0  0  0  0  0  0  0  0  0  0  0
    3.4402  -19.1226   21.7291 C   0  0  0  0  0  0  0  0  0  0  0  0
    2.2634  -18.6520   21.8986 O   0  0  0  0  0  0  0  0  0  0  0  0
    6.6132  -17.4806   22.6393 C   0  0  0  0  0  0  0  0  0  0  0  0
    6.8566  -18.2941   23.5590 O   0  0  0  0  0  0  0  0  0  0  0  0
    3.6535  -20.0182   20.6986 O   0  0  0  0  0  0  0  0  0  0  0  0
    9.6202  -15.2859   20.9647 O   0  0  0  0  0  0  0  0  0  0  0  0
    9.9767  -16.3451   21.7897 C   0  0  0  0  0  0  0  0  0  0  0  0
    8.8770  -16.5755   22.8611 C   0  0  2  0  0  0  0  0  0  0  0  0
    7.6047  -16.5594   22.1964 N   0  0  0  0  0  0  0  0  0  0  0  0
    9.0599  -15.5445   23.8897 C   0  0  0  0  0  0  0  0  0  0  0  0
    9.6167  -14.4570   23.5537 O   0  0  0  0  0  0  0  0  0  0  0  0
    8.4861  -11.8820   25.7494 C   0  0  0  0  0  0  0  0  0  0  0  0
    7.4636  -13.0022   25.8580 C   0  0  2  0  0  0  0  0  0  0  0  0
    6.1799  -12.3170   26.3443 C   0  0  0  0  0  0  0  0  0  0  0  0
    7.9165  -14.0623   26.8295 C   0  0  0  0  0  0  0  0  0  0  0  0
    9.0215  -14.9196   26.3293 C   0  0  2  0  0  0  0  0  0  0  0  0
    8.6279  -15.7524   25.2110 N   0  0  0  0  0  0  0  0  0  0  0  0
    9.7304  -15.7069   27.3716 C   0  0  0  0  0  0  0  0  0  0  0  0
    9.9068  -17.0778   27.3410 O   0  0  0  0  0  0  0  0  0  0  0  0
   10.2356  -15.1319   28.3988 O   0  0  0  0  0  0  0  0  0  0  0  0
  2  1  1  6
  2  3  1  0
  3  4  1  0
  4  5  2  0
  6 12  1  0
  6  2  1  0
  7  6  2  0
  8  4  1  0
  9 10  1  0
 11 10  1  6
 11 12  1  0
 11 13  1  0
 13 20  1  0
 14 13  2  0
 16 18  1  0
 16 15  1  1
 17 16  1  0
 19 18  1  1
 19 21  1  0
 20 19  1  0
 21 22  1  0
 23 21  2  0
M  END
$$$$
