DSL.pdb
     RDKit          3D

 23 22  0  0  1  0  0  0  0  0999 V2000
    9.3248  -18.1685   19.3029 N   0  0  0  0  0  0  0  0  0  0  0  0
   10.0856  -17.8157   20.5100 C   0  0  1  0  0  0  0  0  0  0  0  0
   11.0275  -16.7102   20.0233 C   0  0  0  0  0  0  0  0  0  0  0  0
   12.2371  -17.3098   19.4468 C   0  0  0  0  0  0  0  0  0  0  0  0
   12.6271  -18.4044   19.9805 O   0  0  0  0  0  0  0  0  0  0  0  0
    9.1626  -17.2482   21.5149 C   0  0  0  0  0  0  0  0  0  0  0  0
    8.3716  -16.3535   21.1397 O   0  0  0  0  0  0  0  0  0  0  0  0
   12.9664  -16.7889   18.3950 O   0  0  0  0  0  0  0  0  0  0  0  0
    8.5021  -19.0958   25.1181 O   0  0  0  0  0  0  0  0  0  0  0  0
    7.5359  -18.2716   24.5554 C   0  0  0  0  0  0  0  0  0  0  0  0
    8.2159  -17.1186   23.7689 C   0  0  2  0  0  0  0  0  0  0  0  0
    9.1653  -17.7029   22.8645 N   0  0  0  0  0  0  0  0  0  0  0  0
    8.7814  -16.1987   24.7631 C   0  0  0  0  0  0  0  0  0  0  0  0
   10.0356  -16.2102   24.9431 O   0  0  0  0  0  0  0  0  0  0  0  0
    7.8311  -11.7269   25.3458 C   0  0  0  0  0  0  0  0  0  0  0  0
    6.7927  -12.6469   25.9682 C   0  0  2  0  0  0  0  0  0  0  0  0
    5.7330  -11.7044   26.5535 C   0  0  0  0  0  0  0  0  0  0  0  0
    7.4033  -13.5128   27.0405 C   0  0  0  0  0  0  0  0  0  0  0  0
    8.4400  -14.4563   26.5495 C   0  0  2  0  0  0  0  0  0  0  0  0
    7.9585  -15.3251   25.4948 N   0  0  0  0  0  0  0  0  0  0  0  0
    9.1462  -15.2243   27.6079 C   0  0  0  0  0  0  0  0  0  0  0  0
   10.1422  -14.7153   28.4204 O   0  0  0  0  0  0  0  0  0  0  0  0
    8.8579  -16.4522   27.8314 O   0  0  0  0  0  0  0  0  0  0  0  0
  2  1  1  6
  2  3  1  0
  3  4  1  0
  4  5  2  0
  6 12  1  0
  6  2  1  0
  7  6  2  0
  8  4  1  0
  9 10  1  0
 11 10  1  1
 11 12  1  0
 11 13  1  0
 13 20  1  0
 14 13  2  0
 16 18  1  0
 16 15  1  1
 17 16  1  0
 19 18  1  1
 19 21  1  0
 20 19  1  0
 21 22  1  0
 23 21  2  0
M  END
$$$$
