DSL.pdb
     RDKit          3D

 23 22  0  0  1  0  0  0  0  0999 V2000
    9.3667  -15.8739   18.0887 N   0  0  0  0  0  0  0  0  0  0  0  0
    8.5574  -14.7278   18.5268 C   0  0  1  0  0  0  0  0  0  0  0  0
    7.4558  -14.6471   17.4657 C   0  0  0  0  0  0  0  0  0  0  0  0
    8.0493  -14.3351   16.1598 C   0  0  0  0  0  0  0  0  0  0  0  0
    8.9510  -15.1431   15.7484 O   0  0  0  0  0  0  0  0  0  0  0  0
    7.9405  -15.0421   19.8325 C   0  0  0  0  0  0  0  0  0  0  0  0
    7.0968  -14.2368   20.2870 O   0  0  0  0  0  0  0  0  0  0  0  0
    7.7118  -13.2576   15.3632 O   0  0  0  0  0  0  0  0  0  0  0  0
    9.2539  -18.1933   22.2877 O   0  0  0  0  0  0  0  0  0  0  0  0
    7.8952  -17.9090   22.2358 C   0  0  0  0  0  0  0  0  0  0  0  0
    7.6797  -16.4243   21.8362 C   0  0  2  0  0  0  0  0  0  0  0  0
    8.2868  -16.2217   20.5513 N   0  0  0  0  0  0  0  0  0  0  0  0
    8.2271  -15.6052   22.9243 C   0  0  0  0  0  0  0  0  0  0  0  0
    9.4548  -15.2951   22.8797 O   0  0  0  0  0  0  0  0  0  0  0  0
    6.1303  -11.8239   27.3831 C   0  0  0  0  0  0  0  0  0  0  0  0
    7.2977  -12.5770   26.7650 C   0  0  2  0  0  0  0  0  0  0  0  0
    8.2655  -11.4838   26.2939 C   0  0  0  0  0  0  0  0  0  0  0  0
    6.8440  -13.4362   25.6124 C   0  0  0  0  0  0  0  0  0  0  0  0
    7.8880  -14.3493   25.0810 C   0  0  2  0  0  0  0  0  0  0  0  0
    7.4146  -15.1718   23.9863 N   0  0  0  0  0  0  0  0  0  0  0  0
    8.5968  -15.1608   26.1048 C   0  0  0  0  0  0  0  0  0  0  0  0
    8.3272  -16.4874   26.3852 O   0  0  0  0  0  0  0  0  0  0  0  0
    9.5342  -14.6509   26.8134 O   0  0  0  0  0  0  0  0  0  0  0  0
  2  1  1  6
  2  3  1  0
  3  4  1  0
  4  5  2  0
  6 12  1  0
  6  2  1  0
  7  6  2  0
  8  4  1  0
  9 10  1  0
 11 10  1  1
 11 12  1  0
 11 13  1  0
 13 20  1  0
 14 13  2  0
 16 18  1  0
 16 15  1  6
 17 16  1  0
 19 18  1  1
 19 21  1  0
 20 19  1  0
 21 22  1  0
 23 21  2  0
M  END
$$$$
