EIQ.pdb
     RDKit          3D

 27 26  0  0  1  0  0  0  0  0999 V2000
   17.3507  -12.4203  -14.5742 N   0  0  0  0  0  0  0  0  0  0  0  0
   17.1609  -11.0935  -15.1584 C   0  0  1  0  0  0  0  0  0  0  0  0
   15.7322  -10.6659  -14.9592 C   0  0  0  0  0  0  0  0  0  0  0  0
   14.7226  -11.5132  -15.6805 C   0  0  0  0  0  0  0  0  0  0  0  0
   13.3238  -11.1376  -15.4528 C   0  0  0  0  0  0  0  0  0  0  0  0
   12.7324  -10.2819  -16.1444 O   0  0  0  0  0  0  0  0  0  0  0  0
   18.0662  -10.1102  -14.5258 C   0  0  0  0  0  0  0  0  0  0  0  0
   18.2754  -10.0039  -13.2937 O   0  0  0  0  0  0  0  0  0  0  0  0
   12.5884  -11.7487  -14.4192 O   0  0  0  0  0  0  0  0  0  0  0  0
   22.2699   -9.7903  -13.7439 C   0  0  0  0  0  0  0  0  0  0  0  0
   21.8274   -9.4923  -15.1610 C   0  0  0  0  0  0  0  0  0  0  0  0
   21.1021   -8.1690  -15.2568 C   0  0  2  0  0  0  0  0  0  0  0  0
   21.9114   -7.0298  -14.7135 C   0  0  0  0  0  0  0  0  0  0  0  0
   19.7035   -8.2035  -14.7604 C   0  0  2  0  0  0  0  0  0  0  0  0
   18.8147   -9.1543  -15.2865 N   0  0  0  0  0  0  0  0  0  0  0  0
   19.1126   -6.8276  -14.8285 C   0  0  0  0  0  0  0  0  0  0  0  0
   18.7250   -6.3166  -15.9140 O   0  0  0  0  0  0  0  0  0  0  0  0
   16.7660   -3.5739  -10.0416 N   0  0  0  0  0  0  0  0  0  0  0  0
   16.6737   -2.5847  -11.0358 C   0  0  0  0  0  0  0  0  0  0  0  0
   16.2267   -1.4362  -10.8354 O   0  0  0  0  0  0  0  0  0  0  0  0
   17.1486   -2.9551  -12.4196 C   0  0  0  0  0  0  0  0  0  0  0  0
   17.6625   -4.3603  -12.4245 C   0  0  0  0  0  0  0  0  0  0  0  0
   18.3243   -4.6884  -13.7117 C   0  0  2  0  0  0  0  0  0  0  0  0
   18.9551   -6.0172  -13.6671 N   0  0  0  0  0  0  0  0  0  0  0  0
   19.2689   -3.6870  -14.2361 C   0  0  0  0  0  0  0  0  0  0  0  0
   20.4912   -3.6565  -13.8602 O   0  0  0  0  0  0  0  0  0  0  0  0
   18.9199   -2.7192  -15.1605 O   0  0  0  0  0  0  0  0  0  0  0  0
  2  1  1  1
  2  3  1  0
  4  3  1  0
  4  5  1  0
  5  9  1  0
  6  5  2  0
  7 15  1  0
  7  2  1  0
  8  7  2  0
 11 10  1  0
 12 11  1  0
 12 13  1  1
 14 15  1  6
 14 12  1  0
 16 14  1  0
 17 16  2  0
 19 20  2  0
 19 18  1  0
 21 19  1  0
 22 21  1  0
 23 22  1  1
 23 24  1  0
 24 16  1  0
 25 23  1  0
 26 25  2  0
 27 25  1  0
M  END
$$$$
