EIQ.pdb
     RDKit          3D

 27 26  0  0  1  0  0  0  0  0999 V2000
   28.2451  -21.9409  -15.9335 N   0  0  0  0  0  0  0  0  0  0  0  0
   27.8709  -20.8209  -15.0712 C   0  0  1  0  0  0  0  0  0  0  0  0
   27.7232  -19.5802  -15.9094 C   0  0  0  0  0  0  0  0  0  0  0  0
   27.4788  -19.8403  -17.3688 C   0  0  0  0  0  0  0  0  0  0  0  0
   26.7466  -18.7824  -18.0719 C   0  0  0  0  0  0  0  0  0  0  0  0
   27.2058  -17.6312  -18.2276 O   0  0  0  0  0  0  0  0  0  0  0  0
   26.5986  -21.1025  -14.3724 C   0  0  0  0  0  0  0  0  0  0  0  0
   25.7154  -21.9013  -14.7664 O   0  0  0  0  0  0  0  0  0  0  0  0
   25.4700  -19.0429  -18.6057 O   0  0  0  0  0  0  0  0  0  0  0  0
   26.6807  -20.5427   -8.8412 C   0  0  0  0  0  0  0  0  0  0  0  0
   26.4289  -21.1546  -10.2032 C   0  0  0  0  0  0  0  0  0  0  0  0
   25.2124  -20.5555  -10.8723 C   0  0  2  0  0  0  0  0  0  0  0  0
   23.9417  -20.8695  -10.1410 C   0  0  0  0  0  0  0  0  0  0  0  0
   25.1400  -20.7983  -12.3350 C   0  0  2  0  0  0  0  0  0  0  0  0
   26.2430  -20.4679  -13.1380 N   0  0  0  0  0  0  0  0  0  0  0  0
   23.8827  -20.1932  -12.8826 C   0  0  0  0  0  0  0  0  0  0  0  0
   23.7290  -18.9463  -12.9890 O   0  0  0  0  0  0  0  0  0  0  0  0
   20.6698  -21.8685  -17.6543 N   0  0  0  0  0  0  0  0  0  0  0  0
   19.7722  -20.8967  -17.1795 C   0  0  0  0  0  0  0  0  0  0  0  0
   18.7939  -20.4755  -17.8311 O   0  0  0  0  0  0  0  0  0  0  0  0
   20.0254  -20.3439  -15.7982 C   0  0  0  0  0  0  0  0  0  0  0  0
   21.2945  -20.9119  -15.2452 C   0  0  0  0  0  0  0  0  0  0  0  0
   21.5550  -20.4140  -13.8717 C   0  0  2  0  0  0  0  0  0  0  0  0
   22.7872  -20.9952  -13.3152 N   0  0  0  0  0  0  0  0  0  0  0  0
   20.4467  -20.5377  -12.9092 C   0  0  0  0  0  0  0  0  0  0  0  0
   20.3458  -21.5459  -12.1284 O   0  0  0  0  0  0  0  0  0  0  0  0
   19.4463  -19.5926  -12.7718 O   0  0  0  0  0  0  0  0  0  0  0  0
  2  1  1  6
  2  3  1  0
  4  3  1  0
  4  5  1  0
  5  9  1  0
  6  5  2  0
  7 15  1  0
  7  2  1  0
  8  7  2  0
 11 10  1  0
 12 11  1  0
 12 13  1  1
 14 15  1  6
 14 12  1  0
 16 14  1  0
 17 16  2  0
 19 20  2  0
 19 18  1  0
 21 19  1  0
 22 21  1  0
 23 22  1  6
 23 24  1  0
 24 16  1  0
 25 23  1  0
 26 25  2  0
 27 25  1  0
M  END
$$$$
