EIQ.pdb
     RDKit          3D

 27 26  0  0  1  0  0  0  0  0999 V2000
   25.8146  -22.6006  -12.1872 N   0  0  0  0  0  0  0  0  0  0  0  0
   25.6572  -22.1510  -13.5695 C   0  0  1  0  0  0  0  0  0  0  0  0
   24.7206  -23.0833  -14.2887 C   0  0  0  0  0  0  0  0  0  0  0  0
   24.3536  -24.3169  -13.5135 C   0  0  0  0  0  0  0  0  0  0  0  0
   22.9200  -24.6225  -13.4789 C   0  0  0  0  0  0  0  0  0  0  0  0
   22.4640  -25.6697  -12.9736 O   0  0  0  0  0  0  0  0  0  0  0  0
   25.1180  -20.7748  -13.6127 C   0  0  0  0  0  0  0  0  0  0  0  0
   24.3250  -20.2794  -12.7766 O   0  0  0  0  0  0  0  0  0  0  0  0
   21.9924  -23.7178  -14.0302 O   0  0  0  0  0  0  0  0  0  0  0  0
   26.2563  -15.0149  -15.6182 C   0  0  0  0  0  0  0  0  0  0  0  0
   25.2738  -16.0748  -15.1661 C   0  0  0  0  0  0  0  0  0  0  0  0
   25.8689  -17.4627  -15.2441 C   0  0  2  0  0  0  0  0  0  0  0  0
   26.5103  -17.7388  -16.5709 C   0  0  0  0  0  0  0  0  0  0  0  0
   24.9618  -18.5416  -14.7785 C   0  0  2  0  0  0  0  0  0  0  0  0
   25.4622  -19.8466  -14.6484 N   0  0  0  0  0  0  0  0  0  0  0  0
   23.7077  -18.5319  -15.5995 C   0  0  0  0  0  0  0  0  0  0  0  0
   23.3840  -19.4982  -16.3419 O   0  0  0  0  0  0  0  0  0  0  0  0
   19.7763  -20.9216  -14.4351 N   0  0  0  0  0  0  0  0  0  0  0  0
   18.7923  -19.9777  -14.7761 C   0  0  0  0  0  0  0  0  0  0  0  0
   17.5760  -20.2438  -14.8711 O   0  0  0  0  0  0  0  0  0  0  0  0
   19.2562  -18.5658  -15.0385 C   0  0  0  0  0  0  0  0  0  0  0  0
   20.7338  -18.4655  -14.8258 C   0  0  0  0  0  0  0  0  0  0  0  0
   21.3657  -17.5810  -15.8362 C   0  0  2  0  0  0  0  0  0  0  0  0
   22.8079  -17.4270  -15.5873 N   0  0  0  0  0  0  0  0  0  0  0  0
   20.7349  -16.2655  -16.0407 C   0  0  0  0  0  0  0  0  0  0  0  0
   21.2901  -15.1856  -15.6384 O   0  0  0  0  0  0  0  0  0  0  0  0
   19.5171  -16.0933  -16.6733 O   0  0  0  0  0  0  0  0  0  0  0  0
  2  1  1  1
  2  3  1  0
  4  3  1  0
  4  5  1  0
  5  9  1  0
  6  5  2  0
  7 15  1  0
  7  2  1  0
  8  7  2  0
 11 10  1  0
 12 11  1  0
 12 13  1  6
 14 15  1  6
 14 12  1  0
 16 14  1  0
 17 16  2  0
 19 20  2  0
 19 18  1  0
 21 19  1  0
 22 21  1  0
 23 22  1  1
 23 24  1  0
 24 16  1  0
 25 23  1  0
 26 25  2  0
 27 25  1  0
M  END
$$$$
