EIQ.pdb
     RDKit          3D

 27 26  0  0  1  0  0  0  0  0999 V2000
   18.5894  -12.0082  -17.1201 N   0  0  0  0  0  0  0  0  0  0  0  0
   18.1636  -11.0323  -16.1181 C   0  0  1  0  0  0  0  0  0  0  0  0
   17.2970  -11.7185  -15.0973 C   0  0  0  0  0  0  0  0  0  0  0  0
   16.1136  -12.4440  -15.6722 C   0  0  0  0  0  0  0  0  0  0  0  0
   16.3394  -13.8631  -15.9634 C   0  0  0  0  0  0  0  0  0  0  0  0
   17.3364  -14.4887  -15.5454 O   0  0  0  0  0  0  0  0  0  0  0  0
   19.3346  -10.4266  -15.4486 C   0  0  0  0  0  0  0  0  0  0  0  0
   19.3020   -9.7768  -14.3763 O   0  0  0  0  0  0  0  0  0  0  0  0
   15.4120  -14.5793  -16.7443 O   0  0  0  0  0  0  0  0  0  0  0  0
   25.5908  -10.6866  -15.2012 C   0  0  0  0  0  0  0  0  0  0  0  0
   24.2868   -9.9639  -14.9365 C   0  0  0  0  0  0  0  0  0  0  0  0
   23.1341  -10.5910  -15.6878 C   0  0  2  0  0  0  0  0  0  0  0  0
   23.4295  -10.7709  -17.1467 C   0  0  0  0  0  0  0  0  0  0  0  0
   21.8160   -9.9655  -15.4137 C   0  0  2  0  0  0  0  0  0  0  0  0
   20.6614  -10.5286  -15.9798 N   0  0  0  0  0  0  0  0  0  0  0  0
   21.8880   -8.4963  -15.7022 C   0  0  0  0  0  0  0  0  0  0  0  0
   21.9306   -8.0446  -16.8785 O   0  0  0  0  0  0  0  0  0  0  0  0
   19.1615   -4.6481  -17.5605 N   0  0  0  0  0  0  0  0  0  0  0  0
   18.6992   -4.8433  -16.2475 C   0  0  0  0  0  0  0  0  0  0  0  0
   17.5377   -4.5802  -15.8724 O   0  0  0  0  0  0  0  0  0  0  0  0
   19.6821   -5.4049  -15.2495 C   0  0  0  0  0  0  0  0  0  0  0  0
   21.0061   -5.6322  -15.9085 C   0  0  0  0  0  0  0  0  0  0  0  0
   22.0262   -6.0822  -14.9290 C   0  0  2  0  0  0  0  0  0  0  0  0
   21.9123   -7.5245  -14.6603 N   0  0  0  0  0  0  0  0  0  0  0  0
   22.0993   -5.3270  -13.6663 C   0  0  0  0  0  0  0  0  0  0  0  0
   22.3904   -4.0816  -13.6455 O   0  0  0  0  0  0  0  0  0  0  0  0
   21.8616   -5.8901  -12.4256 O   0  0  0  0  0  0  0  0  0  0  0  0
  2  1  1  6
  2  3  1  0
  4  3  1  0
  4  5  1  0
  5  9  1  0
  6  5  2  0
  7 15  1  0
  7  2  1  0
  8  7  2  0
 11 10  1  0
 12 11  1  0
 12 13  1  6
 14 15  1  6
 14 12  1  0
 16 14  1  0
 17 16  2  0
 19 20  2  0
 19 18  1  0
 21 19  1  0
 22 21  1  0
 23 22  1  1
 23 24  1  0
 24 16  1  0
 25 23  1  0
 26 25  2  0
 27 25  1  0
M  END
$$$$
