EIQ.pdb
     RDKit          3D

 27 26  0  0  1  0  0  0  0  0999 V2000
   26.4747  -15.4157  -19.9204 N   0  0  0  0  0  0  0  0  0  0  0  0
   25.8926  -14.1075  -20.2162 C   0  0  1  0  0  0  0  0  0  0  0  0
   24.7269  -14.2854  -21.1507 C   0  0  0  0  0  0  0  0  0  0  0  0
   23.8167  -15.4282  -20.7999 C   0  0  0  0  0  0  0  0  0  0  0  0
   22.3891  -15.0954  -20.7694 C   0  0  0  0  0  0  0  0  0  0  0  0
   21.8039  -14.5400  -21.7228 O   0  0  0  0  0  0  0  0  0  0  0  0
   25.4372  -13.4459  -18.9747 C   0  0  0  0  0  0  0  0  0  0  0  0
   24.4183  -13.7624  -18.3153 O   0  0  0  0  0  0  0  0  0  0  0  0
   21.6175  -15.4018  -19.6321 O   0  0  0  0  0  0  0  0  0  0  0  0
   28.9427  -12.7208  -16.8562 C   0  0  0  0  0  0  0  0  0  0  0  0
   27.8987  -12.3706  -15.8169 C   0  0  0  0  0  0  0  0  0  0  0  0
   26.9722  -11.2765  -16.2974 C   0  0  2  0  0  0  0  0  0  0  0  0
   26.5453  -10.3585  -15.1914 C   0  0  0  0  0  0  0  0  0  0  0  0
   25.8530  -11.7554  -17.1471 C   0  0  2  0  0  0  0  0  0  0  0  0
   26.1409  -12.3440  -18.3885 N   0  0  0  0  0  0  0  0  0  0  0  0
   24.8355  -10.6652  -17.2981 C   0  0  0  0  0  0  0  0  0  0  0  0
   24.9961   -9.7030  -18.0969 O   0  0  0  0  0  0  0  0  0  0  0  0
   23.6073   -5.9959  -15.0047 N   0  0  0  0  0  0  0  0  0  0  0  0
   22.3986   -5.9808  -15.7217 C   0  0  0  0  0  0  0  0  0  0  0  0
   21.6646   -4.9763  -15.8273 O   0  0  0  0  0  0  0  0  0  0  0  0
   21.9833   -7.2658  -16.3955 C   0  0  0  0  0  0  0  0  0  0  0  0
   22.9807   -8.3420  -16.1024 C   0  0  0  0  0  0  0  0  0  0  0  0
   22.5887   -9.6272  -16.7325 C   0  0  2  0  0  0  0  0  0  0  0  0
   23.6256  -10.6546  -16.5453 N   0  0  0  0  0  0  0  0  0  0  0  0
   22.1747   -9.5644  -18.1449 C   0  0  0  0  0  0  0  0  0  0  0  0
   22.6333  -10.3820  -19.0152 O   0  0  0  0  0  0  0  0  0  0  0  0
   21.2731   -8.6373  -18.6353 O   0  0  0  0  0  0  0  0  0  0  0  0
  2  1  1  1
  2  3  1  0
  4  3  1  0
  4  5  1  0
  5  9  1  0
  6  5  2  0
  7 15  1  0
  7  2  1  0
  8  7  2  0
 11 10  1  0
 12 11  1  0
 12 13  1  1
 14 15  1  6
 14 12  1  0
 16 14  1  0
 17 16  2  0
 19 20  2  0
 19 18  1  0
 21 19  1  0
 22 21  1  0
 23 22  1  6
 23 24  1  0
 24 16  1  0
 25 23  1  0
 26 25  2  0
 27 25  1  0
M  END
$$$$
