EIQ.pdb
     RDKit          3D

 27 26  0  0  1  0  0  0  0  0999 V2000
   23.0052  -15.9300  -16.3952 N   0  0  0  0  0  0  0  0  0  0  0  0
   23.0223  -14.7167  -17.2110 C   0  0  1  0  0  0  0  0  0  0  0  0
   21.6891  -14.5596  -17.8904 C   0  0  0  0  0  0  0  0  0  0  0  0
   20.9849  -15.8533  -18.1863 C   0  0  0  0  0  0  0  0  0  0  0  0
   19.7204  -15.7169  -18.9159 C   0  0  0  0  0  0  0  0  0  0  0  0
   19.6580  -15.7013  -20.1633 O   0  0  0  0  0  0  0  0  0  0  0  0
   23.2962  -13.5289  -16.3742 C   0  0  0  0  0  0  0  0  0  0  0  0
   22.6031  -13.1525  -15.3989 O   0  0  0  0  0  0  0  0  0  0  0  0
   18.5081  -15.5963  -18.2099 O   0  0  0  0  0  0  0  0  0  0  0  0
   28.2392  -12.1062  -16.4913 C   0  0  0  0  0  0  0  0  0  0  0  0
   27.1127  -12.0234  -15.4830 C   0  0  0  0  0  0  0  0  0  0  0  0
   26.0906  -10.9773  -15.8668 C   0  0  2  0  0  0  0  0  0  0  0  0
   26.2535   -9.7037  -15.0925 C   0  0  0  0  0  0  0  0  0  0  0  0
   24.6939  -11.4782  -15.9133 C   0  0  2  0  0  0  0  0  0  0  0  0
   24.4169  -12.6669  -16.6067 N   0  0  0  0  0  0  0  0  0  0  0  0
   23.7802  -10.3767  -16.3590 C   0  0  0  0  0  0  0  0  0  0  0  0
   23.3743  -10.2816  -17.5489 O   0  0  0  0  0  0  0  0  0  0  0  0
   17.5243   -8.1185  -17.1155 N   0  0  0  0  0  0  0  0  0  0  0  0
   18.6507   -8.8771  -16.7533 C   0  0  0  0  0  0  0  0  0  0  0  0
   18.6055  -10.0861  -16.4445 O   0  0  0  0  0  0  0  0  0  0  0  0
   19.9827   -8.1678  -16.7441 C   0  0  0  0  0  0  0  0  0  0  0  0
   21.0716   -9.1299  -16.3868 C   0  0  0  0  0  0  0  0  0  0  0  0
   22.2478   -8.4265  -15.8174 C   0  0  2  0  0  0  0  0  0  0  0  0
   23.3173   -9.3722  -15.4606 N   0  0  0  0  0  0  0  0  0  0  0  0
   21.9814   -7.5044  -14.6999 C   0  0  0  0  0  0  0  0  0  0  0  0
   22.2755   -7.8104  -13.4932 O   0  0  0  0  0  0  0  0  0  0  0  0
   21.4056   -6.2572  -14.8603 O   0  0  0  0  0  0  0  0  0  0  0  0
  2  1  1  1
  2  3  1  0
  4  3  1  0
  4  5  1  0
  5  9  1  0
  6  5  2  0
  7 15  1  0
  7  2  1  0
  8  7  2  0
 11 10  1  0
 12 11  1  0
 12 13  1  1
 14 15  1  6
 14 12  1  0
 16 14  1  0
 17 16  2  0
 19 20  2  0
 19 18  1  0
 21 19  1  0
 22 21  1  0
 23 22  1  1
 23 24  1  0
 24 16  1  0
 25 23  1  0
 26 25  2  0
 27 25  1  0
M  END
$$$$
