EIQ.pdb
     RDKit          3D

 27 26  0  0  1  0  0  0  0  0999 V2000
   27.5854  -20.4093  -17.5659 N   0  0  0  0  0  0  0  0  0  0  0  0
   27.6029  -19.6056  -16.3447 C   0  0  1  0  0  0  0  0  0  0  0  0
   27.0266  -18.2473  -16.6390 C   0  0  0  0  0  0  0  0  0  0  0  0
   26.4367  -18.1059  -18.0136 C   0  0  0  0  0  0  0  0  0  0  0  0
   27.2924  -17.4199  -18.9866 C   0  0  0  0  0  0  0  0  0  0  0  0
   26.8855  -17.0651  -20.1130 O   0  0  0  0  0  0  0  0  0  0  0  0
   26.8141  -20.2592  -15.2783 C   0  0  0  0  0  0  0  0  0  0  0  0
   25.7923  -20.9637  -15.4594 O   0  0  0  0  0  0  0  0  0  0  0  0
   28.6341  -17.1345  -18.6686 O   0  0  0  0  0  0  0  0  0  0  0  0
   29.5772  -21.1490  -10.8120 C   0  0  0  0  0  0  0  0  0  0  0  0
   28.5474  -21.6848  -11.7842 C   0  0  0  0  0  0  0  0  0  0  0  0
   27.1908  -21.0516  -11.5716 C   0  0  2  0  0  0  0  0  0  0  0  0
   26.3676  -21.7851  -10.5555 C   0  0  0  0  0  0  0  0  0  0  0  0
   26.4604  -20.7402  -12.8258 C   0  0  2  0  0  0  0  0  0  0  0  0
   27.1545  -20.1453  -13.8912 N   0  0  0  0  0  0  0  0  0  0  0  0
   25.2165  -19.9683  -12.5038 C   0  0  0  0  0  0  0  0  0  0  0  0
   25.1832  -18.7081  -12.5289 O   0  0  0  0  0  0  0  0  0  0  0  0
   21.7249  -22.0431  -15.8509 N   0  0  0  0  0  0  0  0  0  0  0  0
   20.9712  -20.8611  -15.7495 C   0  0  0  0  0  0  0  0  0  0  0  0
   19.8908  -20.6713  -16.3458 O   0  0  0  0  0  0  0  0  0  0  0  0
   21.5196  -19.7706  -14.8619 C   0  0  0  0  0  0  0  0  0  0  0  0
   22.8079  -20.2145  -14.2437 C   0  0  0  0  0  0  0  0  0  0  0  0
   22.7083  -20.2617  -12.7637 C   0  0  2  0  0  0  0  0  0  0  0  0
   23.9979  -20.6168  -12.1504 N   0  0  0  0  0  0  0  0  0  0  0  0
   21.6267  -21.0923  -12.2066 C   0  0  0  0  0  0  0  0  0  0  0  0
   21.7515  -22.3590  -12.0795 O   0  0  0  0  0  0  0  0  0  0  0  0
   20.4137  -20.5813  -11.7818 O   0  0  0  0  0  0  0  0  0  0  0  0
  2  1  1  6
  2  3  1  0
  4  3  1  0
  4  5  1  0
  5  9  1  0
  6  5  2  0
  7 15  1  0
  7  2  1  0
  8  7  2  0
 11 10  1  0
 12 11  1  0
 12 13  1  1
 14 15  1  6
 14 12  1  0
 16 14  1  0
 17 16  2  0
 19 20  2  0
 19 18  1  0
 21 19  1  0
 22 21  1  0
 23 22  1  6
 23 24  1  0
 24 16  1  0
 25 23  1  0
 26 25  2  0
 27 25  1  0
M  END
$$$$
