EIQ.pdb
     RDKit          3D

 27 26  0  0  1  0  0  0  0  0999 V2000
   13.9376  -26.4963    2.3427 N   0  0  0  0  0  0  0  0  0  0  0  0
   14.5170  -25.1591    2.4606 C   0  0  1  0  0  0  0  0  0  0  0  0
   13.4448  -24.1917    2.8828 C   0  0  0  0  0  0  0  0  0  0  0  0
   12.4342  -23.8782    1.8161 C   0  0  0  0  0  0  0  0  0  0  0  0
   12.9401  -23.0697    0.7026 C   0  0  0  0  0  0  0  0  0  0  0  0
   13.4777  -23.5711   -0.3073 O   0  0  0  0  0  0  0  0  0  0  0  0
   15.6124  -25.1505    3.4538 C   0  0  0  0  0  0  0  0  0  0  0  0
   15.6129  -25.7789    4.5393 O   0  0  0  0  0  0  0  0  0  0  0  0
   12.8305  -21.6665    0.7427 O   0  0  0  0  0  0  0  0  0  0  0  0
   20.9725  -25.1843    1.9943 C   0  0  0  0  0  0  0  0  0  0  0  0
   19.5561  -25.2968    2.5177 C   0  0  0  0  0  0  0  0  0  0  0  0
   19.2804  -24.2920    3.6135 C   0  0  2  0  0  0  0  0  0  0  0  0
   20.3465  -24.2851    4.6678 C   0  0  0  0  0  0  0  0  0  0  0  0
   17.8993  -24.3448    4.1552 C   0  0  2  0  0  0  0  0  0  0  0  0
   16.8168  -24.3983    3.2631 N   0  0  0  0  0  0  0  0  0  0  0  0
   17.7104  -23.2451    5.1560 C   0  0  0  0  0  0  0  0  0  0  0  0
   17.8033  -22.0277    4.8411 O   0  0  0  0  0  0  0  0  0  0  0  0
   15.0526  -25.2293    8.5615 N   0  0  0  0  0  0  0  0  0  0  0  0
   14.2436  -24.2435    7.9703 C   0  0  0  0  0  0  0  0  0  0  0  0
   13.0981  -24.4596    7.5229 O   0  0  0  0  0  0  0  0  0  0  0  0
   14.8138  -22.8490    7.8820 C   0  0  0  0  0  0  0  0  0  0  0  0
   16.1734  -22.8123    8.5057 C   0  0  0  0  0  0  0  0  0  0  0  0
   17.2128  -22.4431    7.5128 C   0  0  2  0  0  0  0  0  0  0  0  0
   17.4141  -23.5139    6.5237 N   0  0  0  0  0  0  0  0  0  0  0  0
   18.5063  -21.9933    8.0556 C   0  0  0  0  0  0  0  0  0  0  0  0
   19.5428  -22.7422    8.0264 O   0  0  0  0  0  0  0  0  0  0  0  0
   18.7028  -20.7493    8.6273 O   0  0  0  0  0  0  0  0  0  0  0  0
  2  1  1  1
  2  3  1  0
  4  3  1  0
  4  5  1  0
  5  9  1  0
  6  5  2  0
  7 15  1  0
  7  2  1  0
  8  7  2  0
 11 10  1  0
 12 11  1  0
 12 13  1  1
 14 15  1  6
 14 12  1  0
 16 14  1  0
 17 16  2  0
 19 20  2  0
 19 18  1  0
 21 19  1  0
 22 21  1  0
 23 22  1  1
 23 24  1  0
 24 16  1  0
 25 23  1  0
 26 25  2  0
 27 25  1  0
M  END
$$$$
