EIQ.pdb
     RDKit          3D

 27 26  0  0  1  0  0  0  0  0999 V2000
   24.9786   -5.4969  -19.7673 N   0  0  0  0  0  0  0  0  0  0  0  0
   25.3036   -6.0118  -18.4380 C   0  0  1  0  0  0  0  0  0  0  0  0
   24.5017   -5.2629  -17.4085 C   0  0  0  0  0  0  0  0  0  0  0  0
   23.2237   -4.6673  -17.9276 C   0  0  0  0  0  0  0  0  0  0  0  0
   22.0307   -4.9723  -17.1318 C   0  0  0  0  0  0  0  0  0  0  0  0
   22.0704   -5.1546  -15.8967 O   0  0  0  0  0  0  0  0  0  0  0  0
   25.0003   -7.4562  -18.3491 C   0  0  0  0  0  0  0  0  0  0  0  0
   24.2802   -8.0975  -19.1513 O   0  0  0  0  0  0  0  0  0  0  0  0
   20.7724   -5.0707  -17.7560 O   0  0  0  0  0  0  0  0  0  0  0  0
   27.2426  -12.7520  -15.9118 C   0  0  0  0  0  0  0  0  0  0  0  0
   26.1297  -11.9779  -16.5862 C   0  0  0  0  0  0  0  0  0  0  0  0
   26.3185  -10.4843  -16.4452 C   0  0  2  0  0  0  0  0  0  0  0  0
   26.5134  -10.0621  -15.0198 C   0  0  0  0  0  0  0  0  0  0  0  0
   25.3181   -9.6714  -17.1816 C   0  0  2  0  0  0  0  0  0  0  0  0
   25.5179   -8.2873  -17.3030 N   0  0  0  0  0  0  0  0  0  0  0  0
   23.9460   -9.9670  -16.6556 C   0  0  0  0  0  0  0  0  0  0  0  0
   23.4260   -9.2969  -15.7227 O   0  0  0  0  0  0  0  0  0  0  0  0
   17.3272  -11.5563  -18.5388 N   0  0  0  0  0  0  0  0  0  0  0  0
   18.3936  -10.6679  -18.3173 C   0  0  0  0  0  0  0  0  0  0  0  0
   18.5631   -9.6104  -18.9591 O   0  0  0  0  0  0  0  0  0  0  0  0
   19.3796  -11.0343  -17.2351 C   0  0  0  0  0  0  0  0  0  0  0  0
   20.7778  -10.8279  -17.7263 C   0  0  0  0  0  0  0  0  0  0  0  0
   21.7743  -11.2801  -16.7238 C   0  0  2  0  0  0  0  0  0  0  0  0
   23.1494  -11.0250  -17.1816 N   0  0  0  0  0  0  0  0  0  0  0  0
   21.6393  -12.6670  -16.2461 C   0  0  0  0  0  0  0  0  0  0  0  0
   22.3445  -13.6161  -16.7341 O   0  0  0  0  0  0  0  0  0  0  0  0
   20.7592  -13.0487  -15.2498 O   0  0  0  0  0  0  0  0  0  0  0  0
  2  1  1  6
  2  3  1  0
  4  3  1  0
  4  5  1  0
  5  9  1  0
  6  5  2  0
  7 15  1  0
  7  2  1  0
  8  7  2  0
 11 10  1  0
 12 11  1  0
 12 13  1  1
 14 15  1  1
 14 12  1  0
 16 14  1  0
 17 16  2  0
 19 20  2  0
 19 18  1  0
 21 19  1  0
 22 21  1  0
 23 22  1  6
 23 24  1  0
 24 16  1  0
 25 23  1  0
 26 25  2  0
 27 25  1  0
M  END
$$$$
