EIQ.pdb
     RDKit          3D

 27 26  0  0  1  0  0  0  0  0999 V2000
   18.4428  -21.2607  -11.1622 N   0  0  0  0  0  0  0  0  0  0  0  0
   19.4621  -21.8974  -11.9950 C   0  0  1  0  0  0  0  0  0  0  0  0
   18.9063  -22.1149  -13.3761 C   0  0  0  0  0  0  0  0  0  0  0  0
   18.2253  -23.4398  -13.5715 C   0  0  0  0  0  0  0  0  0  0  0  0
   17.1041  -23.6994  -12.6630 C   0  0  0  0  0  0  0  0  0  0  0  0
   15.9652  -23.2180  -12.8401 O   0  0  0  0  0  0  0  0  0  0  0  0
   20.6734  -21.0532  -12.0745 C   0  0  0  0  0  0  0  0  0  0  0  0
   20.7017  -19.8583  -12.4549 O   0  0  0  0  0  0  0  0  0  0  0  0
   17.2863  -24.5215  -11.5345 O   0  0  0  0  0  0  0  0  0  0  0  0
   26.1410  -20.1672   -9.3431 C   0  0  0  0  0  0  0  0  0  0  0  0
   25.1833  -19.9073  -10.4867 C   0  0  0  0  0  0  0  0  0  0  0  0
   24.1262  -20.9835  -10.5903 C   0  0  2  0  0  0  0  0  0  0  0  0
   24.7067  -22.3651  -10.5425 C   0  0  0  0  0  0  0  0  0  0  0  0
   23.1532  -20.7779  -11.6924 C   0  0  2  0  0  0  0  0  0  0  0  0
   21.9725  -21.5369  -11.7122 N   0  0  0  0  0  0  0  0  0  0  0  0
   23.8624  -20.8623  -13.0103 C   0  0  0  0  0  0  0  0  0  0  0  0
   24.2532  -21.9595  -13.4931 O   0  0  0  0  0  0  0  0  0  0  0  0
   20.3020  -21.2172  -16.4599 N   0  0  0  0  0  0  0  0  0  0  0  0
   21.1645  -20.8725  -17.5148 C   0  0  0  0  0  0  0  0  0  0  0  0
   20.8844  -21.0274  -18.7216 O   0  0  0  0  0  0  0  0  0  0  0  0
   22.5026  -20.2818  -17.1430 C   0  0  0  0  0  0  0  0  0  0  0  0
   22.6583  -20.2653  -15.6550 C   0  0  0  0  0  0  0  0  0  0  0  0
   23.9629  -19.6815  -15.2554 C   0  0  2  0  0  0  0  0  0  0  0  0
   24.1356  -19.7041  -13.7941 N   0  0  0  0  0  0  0  0  0  0  0  0
   24.2731  -18.3444  -15.7902 C   0  0  0  0  0  0  0  0  0  0  0  0
   24.0535  -17.2829  -15.1110 O   0  0  0  0  0  0  0  0  0  0  0  0
   24.8181  -18.1313  -17.0433 O   0  0  0  0  0  0  0  0  0  0  0  0
  2  1  1  1
  2  3  1  0
  4  3  1  0
  4  5  1  0
  5  9  1  0
  6  5  2  0
  7 15  1  0
  7  2  1  0
  8  7  2  0
 11 10  1  0
 12 11  1  0
 12 13  1  6
 14 15  1  6
 14 12  1  0
 16 14  1  0
 17 16  2  0
 19 20  2  0
 19 18  1  0
 21 19  1  0
 22 21  1  0
 23 22  1  1
 23 24  1  0
 24 16  1  0
 25 23  1  0
 26 25  2  0
 27 25  1  0
M  END
$$$$
