EIQ.pdb
     RDKit          3D

 27 26  0  0  1  0  0  0  0  0999 V2000
   19.7414  -12.9554  -17.9663 N   0  0  0  0  0  0  0  0  0  0  0  0
   18.6886  -11.9796  -17.6884 C   0  0  1  0  0  0  0  0  0  0  0  0
   17.5391  -12.6732  -17.0092 C   0  0  0  0  0  0  0  0  0  0  0  0
   16.8719  -13.7319  -17.8407 C   0  0  0  0  0  0  0  0  0  0  0  0
   16.4990  -13.3115  -19.1949 C   0  0  0  0  0  0  0  0  0  0  0  0
   15.5947  -12.4797  -19.4196 O   0  0  0  0  0  0  0  0  0  0  0  0
   19.1972  -10.8958  -16.8206 C   0  0  0  0  0  0  0  0  0  0  0  0
   18.4869  -10.1103  -16.1485 O   0  0  0  0  0  0  0  0  0  0  0  0
   17.1693  -13.8495  -20.3103 O   0  0  0  0  0  0  0  0  0  0  0  0
   24.4481  -11.2352  -14.7355 C   0  0  0  0  0  0  0  0  0  0  0  0
   22.9539  -11.1120  -14.9473 C   0  0  0  0  0  0  0  0  0  0  0  0
   22.5665   -9.7326  -15.4305 C   0  0  2  0  0  0  0  0  0  0  0  0
   23.0019   -8.6507  -14.4882 C   0  0  0  0  0  0  0  0  0  0  0  0
   21.1531   -9.6152  -15.8689 C   0  0  2  0  0  0  0  0  0  0  0  0
   20.5964  -10.6321  -16.6606 N   0  0  0  0  0  0  0  0  0  0  0  0
   20.9319   -8.2716  -16.4954 C   0  0  0  0  0  0  0  0  0  0  0  0
   21.1660   -8.0528  -17.7149 O   0  0  0  0  0  0  0  0  0  0  0  0
   17.4093   -6.6807  -19.5721 N   0  0  0  0  0  0  0  0  0  0  0  0
   17.6565   -5.3178  -19.3335 C   0  0  0  0  0  0  0  0  0  0  0  0
   17.1643   -4.3922  -20.0117 O   0  0  0  0  0  0  0  0  0  0  0  0
   18.5740   -4.9768  -18.1848 C   0  0  0  0  0  0  0  0  0  0  0  0
   19.0648   -6.2310  -17.5330 C   0  0  0  0  0  0  0  0  0  0  0  0
   19.9580   -5.9296  -16.3868 C   0  0  2  0  0  0  0  0  0  0  0  0
   20.4431   -7.1624  -15.7462 N   0  0  0  0  0  0  0  0  0  0  0  0
   19.4331   -4.9957  -15.3757 C   0  0  0  0  0  0  0  0  0  0  0  0
   18.9254   -5.4118  -14.2778 O   0  0  0  0  0  0  0  0  0  0  0  0
   19.4480   -3.6209  -15.5260 O   0  0  0  0  0  0  0  0  0  0  0  0
  2  1  1  1
  2  3  1  0
  4  3  1  0
  4  5  1  0
  5  9  1  0
  6  5  2  0
  7 15  1  0
  7  2  1  0
  8  7  2  0
 11 10  1  0
 12 11  1  0
 12 13  1  1
 14 15  1  6
 14 12  1  0
 16 14  1  0
 17 16  2  0
 19 20  2  0
 19 18  1  0
 21 19  1  0
 22 21  1  0
 23 22  1  6
 23 24  1  0
 24 16  1  0
 25 23  1  0
 26 25  2  0
 27 25  1  0
M  END
$$$$
