EIQ.pdb
     RDKit          3D

 27 26  0  0  1  0  0  0  0  0999 V2000
   17.8089  -12.8759  -16.4953 N   0  0  0  0  0  0  0  0  0  0  0  0
   18.5006  -11.7907  -17.1894 C   0  0  1  0  0  0  0  0  0  0  0  0
   17.5586  -11.1557  -18.1759 C   0  0  0  0  0  0  0  0  0  0  0  0
   17.1190  -12.0633  -19.2896 C   0  0  0  0  0  0  0  0  0  0  0  0
   16.1390  -11.4814  -20.2119 C   0  0  0  0  0  0  0  0  0  0  0  0
   15.8304  -10.2712  -20.1950 O   0  0  0  0  0  0  0  0  0  0  0  0
   18.9719  -10.7722  -16.2267 C   0  0  0  0  0  0  0  0  0  0  0  0
   18.3350  -10.3724  -15.2228 O   0  0  0  0  0  0  0  0  0  0  0  0
   15.5012  -12.2942  -21.1686 O   0  0  0  0  0  0  0  0  0  0  0  0
   23.6849  -11.1387  -14.5314 C   0  0  0  0  0  0  0  0  0  0  0  0
   22.3176  -10.5677  -14.2194 C   0  0  0  0  0  0  0  0  0  0  0  0
   22.0849   -9.2498  -14.9233 C   0  0  2  0  0  0  0  0  0  0  0  0
   22.5109   -8.0739  -14.0964 C   0  0  0  0  0  0  0  0  0  0  0  0
   20.7326   -9.1077  -15.5190 C   0  0  2  0  0  0  0  0  0  0  0  0
   20.2435  -10.1243  -16.3544 N   0  0  0  0  0  0  0  0  0  0  0  0
   20.6153   -7.7696  -16.1842 C   0  0  0  0  0  0  0  0  0  0  0  0
   21.2557   -7.4822  -17.2315 O   0  0  0  0  0  0  0  0  0  0  0  0
   18.4911   -5.1501  -19.5043 N   0  0  0  0  0  0  0  0  0  0  0  0
   18.1663   -3.9120  -18.9237 C   0  0  0  0  0  0  0  0  0  0  0  0
   17.9413   -2.8735  -19.5795 O   0  0  0  0  0  0  0  0  0  0  0  0
   18.0907   -3.8582  -17.4174 C   0  0  0  0  0  0  0  0  0  0  0  0
   18.2598   -5.2315  -16.8479 C   0  0  0  0  0  0  0  0  0  0  0  0
   19.6332   -5.4326  -16.3228 C   0  0  2  0  0  0  0  0  0  0  0  0
   19.7709   -6.7438  -15.6691 N   0  0  0  0  0  0  0  0  0  0  0  0
   20.1656   -4.3666  -15.4566 C   0  0  0  0  0  0  0  0  0  0  0  0
   20.0580   -4.4209  -14.1831 O   0  0  0  0  0  0  0  0  0  0  0  0
   20.8141   -3.2442  -15.9387 O   0  0  0  0  0  0  0  0  0  0  0  0
  2  1  1  1
  2  3  1  0
  4  3  1  0
  4  5  1  0
  5  9  1  0
  6  5  2  0
  7 15  1  0
  7  2  1  0
  8  7  2  0
 11 10  1  0
 12 11  1  0
 12 13  1  1
 14 15  1  6
 14 12  1  0
 16 14  1  0
 17 16  2  0
 19 20  2  0
 19 18  1  0
 21 19  1  0
 22 21  1  0
 23 22  1  1
 23 24  1  0
 24 16  1  0
 25 23  1  0
 26 25  2  0
 27 25  1  0
M  END
$$$$
