EIQ.pdb
     RDKit          3D

 27 26  0  0  1  0  0  0  0  0999 V2000
   20.4489  -20.2657  -11.2356 N   0  0  0  0  0  0  0  0  0  0  0  0
   21.2091  -21.0095  -12.2389 C   0  0  1  0  0  0  0  0  0  0  0  0
   20.4455  -21.0123  -13.5353 C   0  0  0  0  0  0  0  0  0  0  0  0
   19.1065  -21.6905  -13.4675 C   0  0  0  0  0  0  0  0  0  0  0  0
   19.1404  -23.0828  -13.0093 C   0  0  0  0  0  0  0  0  0  0  0  0
   19.9418  -23.9253  -13.4656 O   0  0  0  0  0  0  0  0  0  0  0  0
   22.5384  -20.3964  -12.4470 C   0  0  0  0  0  0  0  0  0  0  0  0
   22.7887  -19.1687  -12.3887 O   0  0  0  0  0  0  0  0  0  0  0  0
   18.2452  -23.5201  -12.0143 O   0  0  0  0  0  0  0  0  0  0  0  0
   28.3759  -20.8407  -11.0122 C   0  0  0  0  0  0  0  0  0  0  0  0
   27.3517  -20.3453  -12.0114 C   0  0  0  0  0  0  0  0  0  0  0  0
   26.0476  -21.1028  -11.9021 C   0  0  2  0  0  0  0  0  0  0  0  0
   26.2490  -22.5874  -11.8442 C   0  0  0  0  0  0  0  0  0  0  0  0
   25.0106  -20.6741  -12.8740 C   0  0  2  0  0  0  0  0  0  0  0  0
   23.7049  -21.1732  -12.7450 N   0  0  0  0  0  0  0  0  0  0  0  0
   25.5197  -20.8700  -14.2702 C   0  0  0  0  0  0  0  0  0  0  0  0
   25.6517  -22.0147  -14.7820 O   0  0  0  0  0  0  0  0  0  0  0  0
   21.6356  -20.6963  -17.3720 N   0  0  0  0  0  0  0  0  0  0  0  0
   22.4112  -20.3919  -18.5040 C   0  0  0  0  0  0  0  0  0  0  0  0
   21.9705  -20.4003  -19.6722 O   0  0  0  0  0  0  0  0  0  0  0  0
   23.8592  -20.0369  -18.2695 C   0  0  0  0  0  0  0  0  0  0  0  0
   24.1708  -20.1010  -16.8074 C   0  0  0  0  0  0  0  0  0  0  0  0
   25.5842  -19.7356  -16.5404 C   0  0  2  0  0  0  0  0  0  0  0  0
   25.8843  -19.7706  -15.1002 N   0  0  0  0  0  0  0  0  0  0  0  0
   26.0577  -18.4737  -17.1348 C   0  0  0  0  0  0  0  0  0  0  0  0
   26.1112  -17.3910  -16.4558 O   0  0  0  0  0  0  0  0  0  0  0  0
   26.4769  -18.3586  -18.4478 O   0  0  0  0  0  0  0  0  0  0  0  0
  2  1  1  1
  2  3  1  0
  4  3  1  0
  4  5  1  0
  5  9  1  0
  6  5  2  0
  7 15  1  0
  7  2  1  0
  8  7  2  0
 11 10  1  0
 12 11  1  0
 12 13  1  6
 14 15  1  6
 14 12  1  0
 16 14  1  0
 17 16  2  0
 19 20  2  0
 19 18  1  0
 21 19  1  0
 22 21  1  0
 23 22  1  1
 23 24  1  0
 24 16  1  0
 25 23  1  0
 26 25  2  0
 27 25  1  0
M  END
$$$$
