NGL.pdb
     RDKit          3D

 21 20  0  0  1  0  0  0  0  0999 V2000
    5.8751  -20.0354   19.5152 N   0  0  0  0  0  0  0  0  0  0  0  0
    6.3353  -19.1175   18.5448 C   0  0  0  0  0  0  0  0  0  0  0  0
    6.1208  -19.3320   17.3289 O   0  0  0  0  0  0  0  0  0  0  0  0
    7.0747  -17.8930   18.9450 C   0  0  0  0  0  0  0  0  0  0  0  0
    7.2535  -17.8649   20.4510 C   0  0  2  0  0  0  0  0  0  0  0  0
    5.9813  -17.5985   21.0893 N   0  0  0  0  0  0  0  0  0  0  0  0
    8.2302  -16.8390   20.8587 C   0  0  0  0  0  0  0  0  0  0  0  0
    9.4488  -17.1208   20.7117 O   0  0  0  0  0  0  0  0  0  0  0  0
    7.8801  -15.5749   21.3979 N   0  0  0  0  0  0  0  0  0  0  0  0
    8.8053  -14.5734   21.8104 C   0  0  0  0  0  0  0  0  0  0  0  0
    9.0465  -14.4862   23.2509 C   0  0  0  0  0  0  0  0  0  0  0  0
   10.0333  -13.7613   23.6308 O   0  0  0  0  0  0  0  0  0  0  0  0
    6.1069  -12.3893   26.6385 C   0  0  0  0  0  0  0  0  0  0  0  0
    7.3427  -12.9607   25.9825 C   0  0  1  0  0  0  0  0  0  0  0  0
    8.5072  -12.0573   26.4162 C   0  0  0  0  0  0  0  0  0  0  0  0
    7.6582  -14.3423   26.4363 C   0  0  0  0  0  0  0  0  0  0  0  0
    8.7538  -15.0256   25.6751 C   0  0  2  0  0  0  0  0  0  0  0  0
    8.3199  -15.1046   24.2744 N   0  0  0  0  0  0  0  0  0  0  0  0
    8.9559  -16.3986   26.2192 C   0  0  0  0  0  0  0  0  0  0  0  0
    8.5087  -17.4267   25.6622 O   0  0  0  0  0  0  0  0  0  0  0  0
    9.6726  -16.5610   27.4001 O   0  0  0  0  0  0  0  0  0  0  0  0
  2  1  1  0
  2  3  2  0
  4  2  1  0
  5  4  1  0
  5  6  1  1
  7  9  1  0
  7  5  1  0
  8  7  2  0
 10 11  1  0
 10  9  1  0
 11 18  1  0
 12 11  2  0
 14 13  1  1
 14 15  1  0
 16 14  1  0
 17 16  1  1
 18 17  1  0
 19 21  1  0
 19 17  1  0
 20 19  2  0
M  END
$$$$
