NGL.pdb
     RDKit          3D

 21 20  0  0  1  0  0  0  0  0999 V2000
    7.1574  -20.6898   18.3561 N   0  0  0  0  0  0  0  0  0  0  0  0
    6.5943  -19.4341   18.6756 C   0  0  0  0  0  0  0  0  0  0  0  0
    5.3502  -19.2848   18.6632 O   0  0  0  0  0  0  0  0  0  0  0  0
    7.4591  -18.2794   19.0288 C   0  0  0  0  0  0  0  0  0  0  0  0
    7.5831  -18.1672   20.5364 C   0  0  2  0  0  0  0  0  0  0  0  0
    6.3296  -17.7072   21.0969 N   0  0  0  0  0  0  0  0  0  0  0  0
    8.6613  -17.2385   20.9209 C   0  0  0  0  0  0  0  0  0  0  0  0
    9.8417  -17.6702   20.8412 O   0  0  0  0  0  0  0  0  0  0  0  0
    8.4471  -15.9098   21.3679 N   0  0  0  0  0  0  0  0  0  0  0  0
    9.4630  -15.0260   21.8326 C   0  0  0  0  0  0  0  0  0  0  0  0
    9.4527  -14.7458   23.2687 C   0  0  0  0  0  0  0  0  0  0  0  0
   10.4790  -14.1472   23.7501 O   0  0  0  0  0  0  0  0  0  0  0  0
    7.7380  -12.0388   25.0255 C   0  0  0  0  0  0  0  0  0  0  0  0
    7.4818  -12.7581   26.3297 C   0  0  1  0  0  0  0  0  0  0  0  0
    6.1054  -12.2774   26.8140 C   0  0  0  0  0  0  0  0  0  0  0  0
    7.4085  -14.2363   26.1760 C   0  0  0  0  0  0  0  0  0  0  0  0
    8.6482  -14.8801   25.6326 C   0  0  2  0  0  0  0  0  0  0  0  0
    8.4448  -15.0547   24.1888 N   0  0  0  0  0  0  0  0  0  0  0  0
    8.8429  -16.2090   26.2793 C   0  0  0  0  0  0  0  0  0  0  0  0
    8.4739  -17.2843   25.7553 O   0  0  0  0  0  0  0  0  0  0  0  0
    9.4618  -16.2732   27.5233 O   0  0  0  0  0  0  0  0  0  0  0  0
  2  1  1  0
  2  3  2  0
  4  2  1  0
  5  4  1  0
  5  6  1  6
  7  9  1  0
  7  5  1  0
  8  7  2  0
 10 11  1  0
 10  9  1  0
 11 18  1  0
 12 11  2  0
 14 13  1  6
 14 15  1  0
 16 14  1  0
 17 16  1  1
 18 17  1  0
 19 21  1  0
 19 17  1  0
 20 19  2  0
M  END
$$$$
