NGL.pdb
     RDKit          3D

 21 20  0  0  1  0  0  0  0  0999 V2000
    1.8343  -19.0265   20.8190 N   0  0  0  0  0  0  0  0  0  0  0  0
    3.2001  -19.3818   20.7527 C   0  0  0  0  0  0  0  0  0  0  0  0
    3.5378  -20.5862   20.8288 O   0  0  0  0  0  0  0  0  0  0  0  0
    4.2502  -18.3436   20.5931 C   0  0  0  0  0  0  0  0  0  0  0  0
    5.3925  -18.6101   21.5548 C   0  0  2  0  0  0  0  0  0  0  0  0
    4.9461  -18.3948   22.9154 N   0  0  0  0  0  0  0  0  0  0  0  0
    6.5474  -17.7380   21.2747 C   0  0  0  0  0  0  0  0  0  0  0  0
    7.2722  -18.0487   20.2928 O   0  0  0  0  0  0  0  0  0  0  0  0
    6.8819  -16.5892   22.0361 N   0  0  0  0  0  0  0  0  0  0  0  0
    8.0984  -15.8564   21.9255 C   0  0  0  0  0  0  0  0  0  0  0  0
    8.6269  -15.3107   23.1759 C   0  0  0  0  0  0  0  0  0  0  0  0
    9.8363  -14.8857   23.1577 O   0  0  0  0  0  0  0  0  0  0  0  0
    5.8903  -12.3329   26.7099 C   0  0  0  0  0  0  0  0  0  0  0  0
    6.9844  -12.9206   25.8488 C   0  0  1  0  0  0  0  0  0  0  0  0
    8.0250  -11.8050   25.6681 C   0  0  0  0  0  0  0  0  0  0  0  0
    7.6742  -14.0736   26.4883 C   0  0  0  0  0  0  0  0  0  0  0  0
    8.6711  -14.7785   25.6188 C   0  0  2  0  0  0  0  0  0  0  0  0
    7.9624  -15.1942   24.4017 N   0  0  0  0  0  0  0  0  0  0  0  0
    9.1939  -15.9778   26.3333 C   0  0  0  0  0  0  0  0  0  0  0  0
    8.8867  -17.1493   26.0166 O   0  0  0  0  0  0  0  0  0  0  0  0
   10.0646  -15.8030   27.4037 O   0  0  0  0  0  0  0  0  0  0  0  0
  2  1  1  0
  2  3  2  0
  4  2  1  0
  5  4  1  0
  5  6  1  1
  7  9  1  0
  7  5  1  0
  8  7  2  0
 10 11  1  0
 10  9  1  0
 11 18  1  0
 12 11  2  0
 14 13  1  1
 14 15  1  0
 16 14  1  0
 17 16  1  1
 18 17  1  0
 19 21  1  0
 19 17  1  0
 20 19  2  0
M  END
$$$$
