NGL.pdb
     RDKit          3D

 21 20  0  0  1  0  0  0  0  0999 V2000
    8.8880  -14.5740   16.7868 N   0  0  0  0  0  0  0  0  0  0  0  0
    8.3504  -13.6162   17.6754 C   0  0  0  0  0  0  0  0  0  0  0  0
    7.8468  -12.5599   17.2272 O   0  0  0  0  0  0  0  0  0  0  0  0
    8.3722  -13.8425   19.1432 C   0  0  0  0  0  0  0  0  0  0  0  0
    8.4999  -15.3251   19.4369 C   0  0  2  0  0  0  0  0  0  0  0  0
    7.2241  -15.9768   19.2255 N   0  0  0  0  0  0  0  0  0  0  0  0
    8.9481  -15.5638   20.8207 C   0  0  0  0  0  0  0  0  0  0  0  0
   10.1241  -15.2163   21.1076 O   0  0  0  0  0  0  0  0  0  0  0  0
    8.1432  -16.1528   21.8289 N   0  0  0  0  0  0  0  0  0  0  0  0
    8.6331  -16.7565   23.0224 C   0  0  0  0  0  0  0  0  0  0  0  0
    8.9989  -15.8334   24.0971 C   0  0  0  0  0  0  0  0  0  0  0  0
   10.2430  -15.5490   24.2188 O   0  0  0  0  0  0  0  0  0  0  0  0
    5.5440  -12.2420   26.4096 C   0  0  0  0  0  0  0  0  0  0  0  0
    6.7270  -12.9466   25.7866 C   0  0  1  0  0  0  0  0  0  0  0  0
    7.6315  -11.8385   25.2261 C   0  0  0  0  0  0  0  0  0  0  0  0
    7.5297  -13.7209   26.7716 C   0  0  0  0  0  0  0  0  0  0  0  0
    8.6677  -14.5028   26.1883 C   0  0  2  0  0  0  0  0  0  0  0  0
    8.1437  -15.2159   25.0164 N   0  0  0  0  0  0  0  0  0  0  0  0
    9.1652  -15.4832   27.1949 C   0  0  0  0  0  0  0  0  0  0  0  0
    9.7637  -15.1441   28.2408 O   0  0  0  0  0  0  0  0  0  0  0  0
    8.9624  -16.8417   26.9758 O   0  0  0  0  0  0  0  0  0  0  0  0
  2  1  1  0
  2  3  2  0
  4  2  1  0
  5  4  1  0
  5  6  1  1
  7  9  1  0
  7  5  1  0
  8  7  2  0
 10 11  1  0
 10  9  1  0
 11 18  1  0
 12 11  2  0
 14 13  1  1
 14 15  1  0
 16 14  1  0
 17 16  1  1
 18 17  1  0
 19 21  1  0
 19 17  1  0
 20 19  2  0
M  END
$$$$
