NGL.pdb
     RDKit          3D

 21 20  0  0  1  0  0  0  0  0999 V2000
    7.3361  -12.7852   17.3603 N   0  0  0  0  0  0  0  0  0  0  0  0
    8.0772  -13.9707   17.5637 C   0  0  0  0  0  0  0  0  0  0  0  0
    7.9611  -14.9268   16.7620 O   0  0  0  0  0  0  0  0  0  0  0  0
    8.9988  -14.1035   18.7209 C   0  0  0  0  0  0  0  0  0  0  0  0
    8.6055  -15.3035   19.5613 C   0  0  2  0  0  0  0  0  0  0  0  0
    7.2897  -15.0930   20.1280 N   0  0  0  0  0  0  0  0  0  0  0  0
    9.5736  -15.5418   20.6469 C   0  0  0  0  0  0  0  0  0  0  0  0
   10.5137  -16.3449   20.4072 O   0  0  0  0  0  0  0  0  0  0  0  0
    9.5064  -14.9282   21.9238 N   0  0  0  0  0  0  0  0  0  0  0  0
   10.3213  -15.2676   23.0418 C   0  0  0  0  0  0  0  0  0  0  0  0
    9.6239  -15.3887   24.3224 C   0  0  0  0  0  0  0  0  0  0  0  0
   10.3238  -15.7572   25.3312 O   0  0  0  0  0  0  0  0  0  0  0  0
    5.8547  -12.0052   25.7550 C   0  0  0  0  0  0  0  0  0  0  0  0
    7.0245  -12.9595   25.8248 C   0  0  1  0  0  0  0  0  0  0  0  0
    7.8894  -12.4820   27.0013 C   0  0  0  0  0  0  0  0  0  0  0  0
    6.6172  -14.3616   26.1119 C   0  0  0  0  0  0  0  0  0  0  0  0
    7.6898  -15.3885   25.9075 C   0  0  2  0  0  0  0  0  0  0  0  0
    8.2703  -15.1459   24.5806 N   0  0  0  0  0  0  0  0  0  0  0  0
    7.0885  -16.7517   25.9540 C   0  0  0  0  0  0  0  0  0  0  0  0
    6.9388  -17.4672   24.9378 O   0  0  0  0  0  0  0  0  0  0  0  0
    6.6695  -17.2663   27.1764 O   0  0  0  0  0  0  0  0  0  0  0  0
  2  1  1  0
  2  3  2  0
  4  2  1  0
  5  4  1  0
  5  6  1  1
  7  9  1  0
  7  5  1  0
  8  7  2  0
 10 11  1  0
 10  9  1  0
 11 18  1  0
 12 11  2  0
 14 13  1  1
 14 15  1  0
 16 14  1  0
 17 16  1  6
 18 17  1  0
 19 21  1  0
 19 17  1  0
 20 19  2  0
M  END
$$$$
