NGL.pdb
     RDKit          3D

 21 20  0  0  1  0  0  0  0  0999 V2000
    2.4062  -20.3831   19.9273 N   0  0  0  0  0  0  0  0  0  0  0  0
    3.0464  -19.5898   20.9055 C   0  0  0  0  0  0  0  0  0  0  0  0
    2.4735  -19.3570   21.9955 O   0  0  0  0  0  0  0  0  0  0  0  0
    4.3974  -19.0231   20.6616 C   0  0  0  0  0  0  0  0  0  0  0  0
    4.9754  -18.4859   21.9571 C   0  0  2  0  0  0  0  0  0  0  0  0
    4.0487  -17.5464   22.5531 N   0  0  0  0  0  0  0  0  0  0  0  0
    6.2715  -17.8204   21.7338 C   0  0  0  0  0  0  0  0  0  0  0  0
    7.2918  -18.5575   21.6915 O   0  0  0  0  0  0  0  0  0  0  0  0
    6.4308  -16.4210   21.5675 N   0  0  0  0  0  0  0  0  0  0  0  0
    7.6792  -15.7437   21.4597 C   0  0  0  0  0  0  0  0  0  0  0  0
    8.2035  -15.1767   22.7025 C   0  0  0  0  0  0  0  0  0  0  0  0
    9.3638  -14.6343   22.6482 O   0  0  0  0  0  0  0  0  0  0  0  0
    8.1657  -11.4368   26.3075 C   0  0  0  0  0  0  0  0  0  0  0  0
    7.1850  -12.5415   26.6265 C   0  0  1  0  0  0  0  0  0  0  0  0
    5.8657  -11.8431   26.9898 C   0  0  0  0  0  0  0  0  0  0  0  0
    6.9123  -13.4325   25.4663 C   0  0  0  0  0  0  0  0  0  0  0  0
    8.0683  -14.2832   25.0341 C   0  0  2  0  0  0  0  0  0  0  0  0
    7.5822  -15.1537   23.9560 N   0  0  0  0  0  0  0  0  0  0  0  0
    8.5320  -15.1127   26.1825 C   0  0  0  0  0  0  0  0  0  0  0  0
    9.1548  -14.6391   27.1597 O   0  0  0  0  0  0  0  0  0  0  0  0
    8.2680  -16.4783   26.1825 O   0  0  0  0  0  0  0  0  0  0  0  0
  2  1  1  0
  2  3  2  0
  4  2  1  0
  5  4  1  0
  5  6  1  6
  7  9  1  0
  7  5  1  0
  8  7  2  0
 10 11  1  0
 10  9  1  0
 11 18  1  0
 12 11  2  0
 14 13  1  6
 14 15  1  0
 16 14  1  0
 17 16  1  1
 18 17  1  0
 19 21  1  0
 19 17  1  0
 20 19  2  0
M  END
$$$$
