NGL.pdb
     RDKit          3D

 21 20  0  0  1  0  0  0  0  0999 V2000
    8.3210  -19.0805   16.2918 N   0  0  0  0  0  0  0  0  0  0  0  0
    8.7552  -17.9886   17.0761 C   0  0  0  0  0  0  0  0  0  0  0  0
    9.7736  -17.3412   16.7384 O   0  0  0  0  0  0  0  0  0  0  0  0
    8.0188  -17.5921   18.3036 C   0  0  0  0  0  0  0  0  0  0  0  0
    8.9994  -17.2819   19.4184 C   0  0  2  0  0  0  0  0  0  0  0  0
    9.4869  -18.5162   19.9979 N   0  0  0  0  0  0  0  0  0  0  0  0
    8.3761  -16.4596   20.4710 C   0  0  0  0  0  0  0  0  0  0  0  0
    8.4013  -15.2108   20.3094 O   0  0  0  0  0  0  0  0  0  0  0  0
    7.7611  -16.9869   21.6350 N   0  0  0  0  0  0  0  0  0  0  0  0
    7.0555  -16.2231   22.6087 C   0  0  0  0  0  0  0  0  0  0  0  0
    7.8708  -15.6540   23.6821 C   0  0  0  0  0  0  0  0  0  0  0  0
    9.1421  -15.7768   23.5720 O   0  0  0  0  0  0  0  0  0  0  0  0
    5.7160  -11.8040   26.9732 C   0  0  0  0  0  0  0  0  0  0  0  0
    6.5724  -12.5802   25.9995 C   0  0  1  0  0  0  0  0  0  0  0  0
    7.3717  -11.5317   25.2110 C   0  0  0  0  0  0  0  0  0  0  0  0
    7.5533  -13.4756   26.6707 C   0  0  0  0  0  0  0  0  0  0  0  0
    8.3647  -14.3334   25.7473 C   0  0  2  0  0  0  0  0  0  0  0  0
    7.4239  -14.9829   24.8257 N   0  0  0  0  0  0  0  0  0  0  0  0
    9.0911  -15.3670   26.5386 C   0  0  0  0  0  0  0  0  0  0  0  0
    8.7055  -16.5546   26.6280 O   0  0  0  0  0  0  0  0  0  0  0  0
   10.2531  -15.0103   27.2148 O   0  0  0  0  0  0  0  0  0  0  0  0
  2  1  1  0
  2  3  2  0
  4  2  1  0
  5  4  1  0
  5  6  1  1
  7  9  1  0
  7  5  1  0
  8  7  2  0
 10 11  1  0
 10  9  1  0
 11 18  1  0
 12 11  2  0
 14 13  1  1
 14 15  1  0
 16 14  1  0
 17 16  1  1
 18 17  1  0
 19 21  1  0
 19 17  1  0
 20 19  2  0
M  END
$$$$
