NGL.pdb
     RDKit          3D

 21 20  0  0  1  0  0  0  0  0999 V2000
   11.3165  -18.6318   18.8604 N   0  0  0  0  0  0  0  0  0  0  0  0
   10.0524  -18.0328   18.6622 C   0  0  0  0  0  0  0  0  0  0  0  0
    9.5170  -18.0614   17.5295 O   0  0  0  0  0  0  0  0  0  0  0  0
    9.3422  -17.3647   19.7826 C   0  0  0  0  0  0  0  0  0  0  0  0
    8.5095  -18.3775   20.5453 C   0  0  2  0  0  0  0  0  0  0  0  0
    7.2982  -18.6692   19.8074 N   0  0  0  0  0  0  0  0  0  0  0  0
    8.1574  -17.8835   21.8887 C   0  0  0  0  0  0  0  0  0  0  0  0
    9.1094  -17.6604   22.6824 O   0  0  0  0  0  0  0  0  0  0  0  0
    6.8298  -17.6499   22.3293 N   0  0  0  0  0  0  0  0  0  0  0  0
    6.4683  -17.1114   23.5976 C   0  0  0  0  0  0  0  0  0  0  0  0
    7.4522  -16.2202   24.2129 C   0  0  0  0  0  0  0  0  0  0  0  0
    8.6155  -16.1815   23.6755 O   0  0  0  0  0  0  0  0  0  0  0  0
    5.7818  -11.7338   26.6311 C   0  0  0  0  0  0  0  0  0  0  0  0
    6.5400  -12.7355   25.7911 C   0  0  1  0  0  0  0  0  0  0  0  0
    7.1312  -11.9407   24.6168 C   0  0  0  0  0  0  0  0  0  0  0  0
    7.6749  -13.3662   26.5180 C   0  0  0  0  0  0  0  0  0  0  0  0
    8.3387  -14.5002   25.7968 C   0  0  2  0  0  0  0  0  0  0  0  0
    7.2726  -15.3950   25.3285 N   0  0  0  0  0  0  0  0  0  0  0  0
    9.2345  -15.2314   26.7376 C   0  0  0  0  0  0  0  0  0  0  0  0
    8.9402  -16.3403   27.2383 O   0  0  0  0  0  0  0  0  0  0  0  0
   10.4579  -14.6678   27.0846 O   0  0  0  0  0  0  0  0  0  0  0  0
  2  1  1  0
  2  3  2  0
  4  2  1  0
  5  4  1  0
  5  6  1  6
  7  9  1  0
  7  5  1  0
  8  7  2  0
 10 11  1  0
 10  9  1  0
 11 18  1  0
 12 11  2  0
 14 13  1  1
 14 15  1  0
 16 14  1  0
 17 16  1  1
 18 17  1  0
 19 21  1  0
 19 17  1  0
 20 19  2  0
M  END
$$$$
