NGL.pdb
     RDKit          3D

 21 20  0  0  1  0  0  0  0  0999 V2000
    9.3691  -20.6588   18.7555 N   0  0  0  0  0  0  0  0  0  0  0  0
    8.6169  -19.6469   18.1180 C   0  0  0  0  0  0  0  0  0  0  0  0
    8.9975  -19.1835   17.0176 O   0  0  0  0  0  0  0  0  0  0  0  0
    7.3731  -19.1195   18.7351 C   0  0  0  0  0  0  0  0  0  0  0  0
    7.5074  -17.6282   18.9775 C   0  0  2  0  0  0  0  0  0  0  0  0
    8.9082  -17.2702   19.0576 N   0  0  0  0  0  0  0  0  0  0  0  0
    6.8262  -17.2207   20.2196 C   0  0  0  0  0  0  0  0  0  0  0  0
    5.6065  -17.5164   20.3250 O   0  0  0  0  0  0  0  0  0  0  0  0
    7.4566  -16.5262   21.2834 N   0  0  0  0  0  0  0  0  0  0  0  0
    6.8098  -16.0851   22.4734 C   0  0  0  0  0  0  0  0  0  0  0  0
    7.6871  -15.5316   23.5053 C   0  0  0  0  0  0  0  0  0  0  0  0
    8.9460  -15.5430   23.2632 O   0  0  0  0  0  0  0  0  0  0  0  0
    5.8757  -11.6683   26.9075 C   0  0  0  0  0  0  0  0  0  0  0  0
    6.7026  -12.4664   25.9261 C   0  0  1  0  0  0  0  0  0  0  0  0
    7.6373  -11.4570   25.2423 C   0  0  0  0  0  0  0  0  0  0  0  0
    7.5583  -13.4917   26.5825 C   0  0  0  0  0  0  0  0  0  0  0  0
    8.3038  -14.3915   25.6437 C   0  0  2  0  0  0  0  0  0  0  0  0
    7.3121  -14.9838   24.7370 N   0  0  0  0  0  0  0  0  0  0  0  0
    8.9835  -15.4670   26.4205 C   0  0  0  0  0  0  0  0  0  0  0  0
   10.0020  -15.2650   27.1197 O   0  0  0  0  0  0  0  0  0  0  0  0
    8.4740  -16.7605   26.3761 O   0  0  0  0  0  0  0  0  0  0  0  0
  2  1  1  0
  2  3  2  0
  4  2  1  0
  5  4  1  0
  5  6  1  1
  7  9  1  0
  7  5  1  0
  8  7  2  0
 10 11  1  0
 10  9  1  0
 11 18  1  0
 12 11  2  0
 14 13  1  1
 14 15  1  0
 16 14  1  0
 17 16  1  1
 18 17  1  0
 19 21  1  0
 19 17  1  0
 20 19  2  0
M  END
$$$$
