NGL.pdb
     RDKit          3D

 21 20  0  0  1  0  0  0  0  0999 V2000
    5.8292  -20.8649   22.8269 N   0  0  0  0  0  0  0  0  0  0  0  0
    5.8924  -19.6760   23.5876 C   0  0  0  0  0  0  0  0  0  0  0  0
    6.4251  -19.6863   24.7218 O   0  0  0  0  0  0  0  0  0  0  0  0
    5.3338  -18.4045   23.0610 C   0  0  0  0  0  0  0  0  0  0  0  0
    6.0640  -18.0036   21.7934 C   0  0  2  0  0  0  0  0  0  0  0  0
    6.9190  -19.0882   21.3582 N   0  0  0  0  0  0  0  0  0  0  0  0
    6.8774  -16.7918   22.0003 C   0  0  0  0  0  0  0  0  0  0  0  0
    6.2592  -15.7297   22.2760 O   0  0  0  0  0  0  0  0  0  0  0  0
    8.2921  -16.7559   21.9074 N   0  0  0  0  0  0  0  0  0  0  0  0
    9.0998  -15.6015   22.1172 C   0  0  0  0  0  0  0  0  0  0  0  0
    9.3127  -15.2208   23.5139 C   0  0  0  0  0  0  0  0  0  0  0  0
   10.4922  -14.8362   23.8367 O   0  0  0  0  0  0  0  0  0  0  0  0
    6.0705  -12.2017   26.3644 C   0  0  0  0  0  0  0  0  0  0  0  0
    7.3158  -12.8725   25.8320 C   0  0  1  0  0  0  0  0  0  0  0  0
    8.4667  -11.8861   26.0821 C   0  0  0  0  0  0  0  0  0  0  0  0
    7.6486  -14.1352   26.5454 C   0  0  0  0  0  0  0  0  0  0  0  0
    8.7607  -14.9343   25.9359 C   0  0  2  0  0  0  0  0  0  0  0  0
    8.3722  -15.2247   24.5499 N   0  0  0  0  0  0  0  0  0  0  0  0
    8.9288  -16.2087   26.6907 C   0  0  0  0  0  0  0  0  0  0  0  0
    8.5653  -17.3201   26.2439 O   0  0  0  0  0  0  0  0  0  0  0  0
    9.5153  -16.1774   27.9515 O   0  0  0  0  0  0  0  0  0  0  0  0
  2  1  1  0
  2  3  2  0
  4  2  1  0
  5  4  1  0
  5  6  1  1
  7  9  1  0
  7  5  1  0
  8  7  2  0
 10 11  1  0
 10  9  1  0
 11 18  1  0
 12 11  2  0
 14 13  1  1
 14 15  1  0
 16 14  1  0
 17 16  1  1
 18 17  1  0
 19 21  1  0
 19 17  1  0
 20 19  2  0
M  END
$$$$
