NGL.pdb
     RDKit          3D

 21 20  0  0  1  0  0  0  0  0999 V2000
    6.8816  -21.0566   18.6222 N   0  0  0  0  0  0  0  0  0  0  0  0
    6.5131  -20.2715   19.7375 C   0  0  0  0  0  0  0  0  0  0  0  0
    5.7112  -20.7270   20.5859 O   0  0  0  0  0  0  0  0  0  0  0  0
    7.0648  -18.9050   19.9225 C   0  0  0  0  0  0  0  0  0  0  0  0
    7.2044  -18.5986   21.4015 C   0  0  2  0  0  0  0  0  0  0  0  0
    6.0174  -17.9166   21.8735 N   0  0  0  0  0  0  0  0  0  0  0  0
    8.3885  -17.7625   21.6692 C   0  0  0  0  0  0  0  0  0  0  0  0
    9.5123  -18.3274   21.6053 O   0  0  0  0  0  0  0  0  0  0  0  0
    8.3335  -16.3820   21.9894 N   0  0  0  0  0  0  0  0  0  0  0  0
    9.4601  -15.5624   22.2862 C   0  0  0  0  0  0  0  0  0  0  0  0
    9.5562  -15.0910   23.6680 C   0  0  0  0  0  0  0  0  0  0  0  0
   10.6322  -14.4772   23.9978 O   0  0  0  0  0  0  0  0  0  0  0  0
    5.7374  -12.5476   26.2736 C   0  0  0  0  0  0  0  0  0  0  0  0
    7.0629  -13.0620   25.7610 C   0  0  1  0  0  0  0  0  0  0  0  0
    8.0434  -11.8842   25.8692 C   0  0  0  0  0  0  0  0  0  0  0  0
    7.6127  -14.1758   26.5803 C   0  0  0  0  0  0  0  0  0  0  0  0
    8.8772  -14.7856   26.0552 C   0  0  2  0  0  0  0  0  0  0  0  0
    8.6028  -15.2300   24.6827 N   0  0  0  0  0  0  0  0  0  0  0  0
    9.2528  -15.9556   26.8991 C   0  0  0  0  0  0  0  0  0  0  0  0
    9.1127  -17.1416   26.5237 O   0  0  0  0  0  0  0  0  0  0  0  0
    9.7850  -15.7352   28.1651 O   0  0  0  0  0  0  0  0  0  0  0  0
  2  1  1  0
  2  3  2  0
  4  2  1  0
  5  4  1  0
  5  6  1  6
  7  9  1  0
  7  5  1  0
  8  7  2  0
 10 11  1  0
 10  9  1  0
 11 18  1  0
 12 11  2  0
 14 13  1  1
 14 15  1  0
 16 14  1  0
 17 16  1  1
 18 17  1  0
 19 21  1  0
 19 17  1  0
 20 19  2  0
M  END
$$$$
