NGL.pdb
     RDKit          3D

 21 20  0  0  1  0  0  0  0  0999 V2000
    6.9955  -21.3448   24.8636 N   0  0  0  0  0  0  0  0  0  0  0  0
    6.7502  -20.1254   25.5335 C   0  0  0  0  0  0  0  0  0  0  0  0
    6.9285  -20.0444   26.7712 O   0  0  0  0  0  0  0  0  0  0  0  0
    6.2810  -18.9287   24.7893 C   0  0  0  0  0  0  0  0  0  0  0  0
    6.1640  -19.2507   23.3116 C   0  0  2  0  0  0  0  0  0  0  0  0
    7.1699  -20.2248   22.9426 N   0  0  0  0  0  0  0  0  0  0  0  0
    6.3250  -18.0427   22.4824 C   0  0  0  0  0  0  0  0  0  0  0  0
    5.8743  -18.0927   21.3075 O   0  0  0  0  0  0  0  0  0  0  0  0
    6.9485  -16.8486   22.9261 N   0  0  0  0  0  0  0  0  0  0  0  0
    8.2805  -16.4525   22.6131 C   0  0  0  0  0  0  0  0  0  0  0  0
    8.6982  -15.1545   23.1436 C   0  0  0  0  0  0  0  0  0  0  0  0
    9.8099  -14.6828   22.7134 O   0  0  0  0  0  0  0  0  0  0  0  0
    5.5195  -12.0251   26.5186 C   0  0  0  0  0  0  0  0  0  0  0  0
    6.6609  -12.4435   25.6207 C   0  0  1  0  0  0  0  0  0  0  0  0
    7.5121  -11.1830   25.4044 C   0  0  0  0  0  0  0  0  0  0  0  0
    7.5399  -13.4742   26.2365 C   0  0  0  0  0  0  0  0  0  0  0  0
    8.6379  -13.9826   25.3518 C   0  0  2  0  0  0  0  0  0  0  0  0
    8.0211  -14.3570   24.0728 N   0  0  0  0  0  0  0  0  0  0  0  0
    9.2672  -15.1798   25.9784 C   0  0  0  0  0  0  0  0  0  0  0  0
   10.0325  -15.1107   26.9666 O   0  0  0  0  0  0  0  0  0  0  0  0
    9.0012  -16.4393   25.4516 O   0  0  0  0  0  0  0  0  0  0  0  0
  2  1  1  0
  2  3  2  0
  4  2  1  0
  5  4  1  0
  5  6  1  6
  7  9  1  0
  7  5  1  0
  8  7  2  0
 10 11  1  0
 10  9  1  0
 11 18  1  0
 12 11  2  0
 14 13  1  1
 14 15  1  0
 16 14  1  0
 17 16  1  1
 18 17  1  0
 19 21  1  0
 19 17  1  0
 20 19  2  0
M  END
$$$$
