NGL.pdb
     RDKit          3D

 21 20  0  0  1  0  0  0  0  0999 V2000
    6.8553  -18.5487   16.8647 N   0  0  0  0  0  0  0  0  0  0  0  0
    6.9123  -18.4629   18.2737 C   0  0  0  0  0  0  0  0  0  0  0  0
    6.1806  -19.1994   18.9756 O   0  0  0  0  0  0  0  0  0  0  0  0
    7.8321  -17.5072   18.9418 C   0  0  0  0  0  0  0  0  0  0  0  0
    7.7162  -17.6437   20.4481 C   0  0  2  0  0  0  0  0  0  0  0  0
    6.4916  -17.0187   20.9026 N   0  0  0  0  0  0  0  0  0  0  0  0
    8.8650  -17.0265   21.1352 C   0  0  0  0  0  0  0  0  0  0  0  0
    9.8417  -17.7763   21.3998 O   0  0  0  0  0  0  0  0  0  0  0  0
    8.9304  -15.6599   21.5084 N   0  0  0  0  0  0  0  0  0  0  0  0
   10.0195  -15.0463   22.1912 C   0  0  0  0  0  0  0  0  0  0  0  0
    9.8982  -14.9775   23.6477 C   0  0  0  0  0  0  0  0  0  0  0  0
   10.9620  -14.6966   24.3056 O   0  0  0  0  0  0  0  0  0  0  0  0
    5.7274  -12.7418   26.1737 C   0  0  0  0  0  0  0  0  0  0  0  0
    7.1168  -13.1983   25.7929 C   0  0  1  0  0  0  0  0  0  0  0  0
    8.0837  -12.1996   26.4470 C   0  0  0  0  0  0  0  0  0  0  0  0
    7.4509  -14.5502   26.3173 C   0  0  0  0  0  0  0  0  0  0  0  0
    8.7798  -15.0894   25.8815 C   0  0  2  0  0  0  0  0  0  0  0  0
    8.7470  -15.1820   24.4163 N   0  0  0  0  0  0  0  0  0  0  0  0
    8.9835  -16.4443   26.4686 C   0  0  0  0  0  0  0  0  0  0  0  0
    9.1299  -16.6419   27.6960 O   0  0  0  0  0  0  0  0  0  0  0  0
    9.0146  -17.5505   25.6259 O   0  0  0  0  0  0  0  0  0  0  0  0
  2  1  1  0
  2  3  2  0
  4  2  1  0
  5  4  1  0
  5  6  1  1
  7  9  1  0
  7  5  1  0
  8  7  2  0
 10 11  1  0
 10  9  1  0
 11 18  1  0
 12 11  2  0
 14 13  1  1
 14 15  1  0
 16 14  1  0
 17 16  1  1
 18 17  1  0
 19 21  1  0
 19 17  1  0
 20 19  2  0
M  END
$$$$
