NGL.pdb
     RDKit          3D

 21 20  0  0  1  0  0  0  0  0999 V2000
    6.3003  -21.6706   24.7761 N   0  0  0  0  0  0  0  0  0  0  0  0
    5.6540  -20.6972   23.9820 C   0  0  0  0  0  0  0  0  0  0  0  0
    4.7085  -21.0302   23.2300 O   0  0  0  0  0  0  0  0  0  0  0  0
    6.0798  -19.2749   24.0240 C   0  0  0  0  0  0  0  0  0  0  0  0
    6.2653  -18.7478   22.6138 C   0  0  2  0  0  0  0  0  0  0  0  0
    7.1201  -19.6454   21.8652 N   0  0  0  0  0  0  0  0  0  0  0  0
    6.8563  -17.3975   22.6166 C   0  0  0  0  0  0  0  0  0  0  0  0
    6.0720  -16.4317   22.8123 O   0  0  0  0  0  0  0  0  0  0  0  0
    8.2343  -17.1301   22.4143 N   0  0  0  0  0  0  0  0  0  0  0  0
    8.8230  -15.8335   22.3820 C   0  0  0  0  0  0  0  0  0  0  0  0
    9.0532  -15.2080   23.6846 C   0  0  0  0  0  0  0  0  0  0  0  0
   10.0601  -14.4202   23.7797 O   0  0  0  0  0  0  0  0  0  0  0  0
    5.3260  -12.9917   26.5630 C   0  0  0  0  0  0  0  0  0  0  0  0
    6.6426  -13.3622   25.9201 C   0  0  1  0  0  0  0  0  0  0  0  0
    7.3964  -12.0404   25.7090 C   0  0  0  0  0  0  0  0  0  0  0  0
    7.4915  -14.2256   26.7850 C   0  0  0  0  0  0  0  0  0  0  0  0
    8.7209  -14.7723   26.1245 C   0  0  2  0  0  0  0  0  0  0  0  0
    8.2964  -15.3671   24.8507 N   0  0  0  0  0  0  0  0  0  0  0  0
    9.3281  -15.8203   26.9935 C   0  0  0  0  0  0  0  0  0  0  0  0
    9.8634  -15.5671   28.0964 O   0  0  0  0  0  0  0  0  0  0  0  0
    9.3066  -17.1459   26.5726 O   0  0  0  0  0  0  0  0  0  0  0  0
  2  1  1  0
  2  3  2  0
  4  2  1  0
  5  4  1  0
  5  6  1  6
  7  9  1  0
  7  5  1  0
  8  7  2  0
 10 11  1  0
 10  9  1  0
 11 18  1  0
 12 11  2  0
 14 13  1  1
 14 15  1  0
 16 14  1  0
 17 16  1  1
 18 17  1  0
 19 21  1  0
 19 17  1  0
 20 19  2  0
M  END
$$$$
