EIV.pdb
     RDKit          3D

 25 24  0  0  1  0  0  0  0  0999 V2000
   28.6672  -20.6941  -15.0039 N   0  0  0  0  0  0  0  0  0  0  0  0
   27.8467  -19.8550  -14.2030 C   0  0  1  0  0  0  0  0  0  0  0  0
   27.2294  -18.6767  -14.9073 C   0  0  0  0  0  0  0  0  0  0  0  0
   28.1383  -17.7699  -15.6349 C   0  0  0  0  0  0  0  0  0  0  0  0
   28.2531  -17.9049  -17.0737 C   0  0  0  0  0  0  0  0  0  0  0  0
   27.4179  -17.4896  -17.8837 O   0  0  0  0  0  0  0  0  0  0  0  0
   26.7252  -20.5361  -13.5111 C   0  0  0  0  0  0  0  0  0  0  0  0
   26.1944  -21.5014  -14.1190 O   0  0  0  0  0  0  0  0  0  0  0  0
   29.3742  -18.5435  -17.5991 O   0  0  0  0  0  0  0  0  0  0  0  0
   26.6272  -20.4696   -8.0838 C   0  0  0  0  0  0  0  0  0  0  0  0
   26.5838  -20.9794   -9.5380 C   0  0  0  0  0  0  0  0  0  0  0  0
   25.2746  -20.6083  -10.1246 C   0  0  2  0  0  0  0  0  0  0  0  0
   24.0966  -21.1471   -9.3366 C   0  0  0  0  0  0  0  0  0  0  0  0
   25.1272  -20.8990  -11.6010 C   0  0  2  0  0  0  0  0  0  0  0  0
   26.2446  -20.1685  -12.2520 N   0  0  0  0  0  0  0  0  0  0  0  0
   23.8736  -20.4359  -12.1926 C   0  0  0  0  0  0  0  0  0  0  0  0
   23.6132  -19.1795  -12.1665 O   0  0  0  0  0  0  0  0  0  0  0  0
   21.4962  -22.4541  -15.0685 C   0  0  0  0  0  0  0  0  0  0  0  0
   21.5177  -20.9800  -14.8301 C   0  0  2  0  0  0  0  0  0  0  0  0
   22.6325  -20.3605  -15.6356 C   0  0  0  0  0  0  0  0  0  0  0  0
   21.6422  -20.6788  -13.3591 C   0  0  2  0  0  0  0  0  0  0  0  0
   22.8839  -21.2230  -12.8114 N   0  0  0  0  0  0  0  0  0  0  0  0
   20.4687  -21.1897  -12.6030 C   0  0  0  0  0  0  0  0  0  0  0  0
   20.5347  -22.2931  -11.7623 O   0  0  0  0  0  0  0  0  0  0  0  0
   19.3593  -20.6120  -12.7159 O   0  0  0  0  0  0  0  0  0  0  0  0
  2  1  1  6
  2  3  1  0
  3  4  1  0
  4  5  1  0
  5  6  2  0
  7  2  1  0
  7  8  2  0
  9  5  1  0
 10 11  1  0
 11 12  1  0
 12 14  1  0
 12 13  1  1
 14 15  1  6
 15  7  1  0
 16 14  1  0
 17 16  2  0
 19 21  1  0
 19 18  1  1
 20 19  1  0
 21 22  1  1
 22 16  1  0
 23 21  1  0
 24 23  1  0
 25 23  2  0
M  END
$$$$
