EIV.pdb
     RDKit          3D

 25 24  0  0  1  0  0  0  0  0999 V2000
   28.4671  -22.2713  -15.8688 N   0  0  0  0  0  0  0  0  0  0  0  0
   27.5807  -21.2324  -15.4765 C   0  0  1  0  0  0  0  0  0  0  0  0
   26.8427  -20.5441  -16.5932 C   0  0  0  0  0  0  0  0  0  0  0  0
   27.6530  -19.8967  -17.6430 C   0  0  0  0  0  0  0  0  0  0  0  0
   28.4825  -18.7633  -17.2839 C   0  0  0  0  0  0  0  0  0  0  0  0
   28.0545  -17.7069  -16.8074 O   0  0  0  0  0  0  0  0  0  0  0  0
   26.5401  -21.6223  -14.4940 C   0  0  0  0  0  0  0  0  0  0  0  0
   26.0189  -22.7569  -14.6493 O   0  0  0  0  0  0  0  0  0  0  0  0
   29.8586  -18.8511  -17.4817 O   0  0  0  0  0  0  0  0  0  0  0  0
   27.0450  -20.5623   -9.2864 C   0  0  0  0  0  0  0  0  0  0  0  0
   26.6897  -21.3102  -10.5867 C   0  0  0  0  0  0  0  0  0  0  0  0
   25.4596  -20.7074  -11.1517 C   0  0  2  0  0  0  0  0  0  0  0  0
   24.2962  -20.7106  -10.1794 C   0  0  0  0  0  0  0  0  0  0  0  0
   25.0464  -21.2408  -12.5047 C   0  0  2  0  0  0  0  0  0  0  0  0
   26.1236  -20.8137  -13.4337 N   0  0  0  0  0  0  0  0  0  0  0  0
   23.7775  -20.7173  -13.0061 C   0  0  0  0  0  0  0  0  0  0  0  0
   23.6842  -19.4581  -13.2360 O   0  0  0  0  0  0  0  0  0  0  0  0
   19.8191  -21.0195  -15.7777 C   0  0  0  0  0  0  0  0  0  0  0  0
   21.0910  -21.5512  -15.2033 C   0  0  2  0  0  0  0  0  0  0  0  0
   20.9814  -23.0477  -15.0487 C   0  0  0  0  0  0  0  0  0  0  0  0
   21.4163  -20.8662  -13.9013 C   0  0  2  0  0  0  0  0  0  0  0  0
   22.6057  -21.4477  -13.2809 N   0  0  0  0  0  0  0  0  0  0  0  0
   20.2624  -20.9119  -12.9652 C   0  0  0  0  0  0  0  0  0  0  0  0
   19.1684  -20.0632  -13.0736 O   0  0  0  0  0  0  0  0  0  0  0  0
   20.2573  -21.7479  -12.0280 O   0  0  0  0  0  0  0  0  0  0  0  0
  2  1  1  6
  2  3  1  0
  3  4  1  0
  4  5  1  0
  5  6  2  0
  7  2  1  0
  7  8  2  0
  9  5  1  0
 10 11  1  0
 11 12  1  0
 12 14  1  0
 12 13  1  1
 14 15  1  6
 15  7  1  0
 16 14  1  0
 17 16  2  0
 19 21  1  0
 19 18  1  1
 20 19  1  0
 21 22  1  1
 22 16  1  0
 23 21  1  0
 24 23  1  0
 25 23  2  0
M  END
$$$$
