EIV.pdb
     RDKit          3D

 25 24  0  0  1  0  0  0  0  0999 V2000
   28.1945  -22.4342  -15.8645 N   0  0  0  0  0  0  0  0  0  0  0  0
   27.4310  -21.3219  -15.4186 C   0  0  1  0  0  0  0  0  0  0  0  0
   26.6901  -20.5647  -16.4877 C   0  0  0  0  0  0  0  0  0  0  0  0
   27.4828  -20.0276  -17.6106 C   0  0  0  0  0  0  0  0  0  0  0  0
   28.5935  -19.1426  -17.3194 C   0  0  0  0  0  0  0  0  0  0  0  0
   28.4769  -18.0048  -16.8522 O   0  0  0  0  0  0  0  0  0  0  0  0
   26.4225  -21.6216  -14.3730 C   0  0  0  0  0  0  0  0  0  0  0  0
   25.7108  -22.6429  -14.5563 O   0  0  0  0  0  0  0  0  0  0  0  0
   29.8887  -19.5863  -17.5766 O   0  0  0  0  0  0  0  0  0  0  0  0
   27.3243  -20.5266   -9.1404 C   0  0  0  0  0  0  0  0  0  0  0  0
   26.9120  -21.2306  -10.4484 C   0  0  0  0  0  0  0  0  0  0  0  0
   25.6506  -20.6203  -10.9303 C   0  0  2  0  0  0  0  0  0  0  0  0
   24.5528  -20.6217   -9.8845 C   0  0  0  0  0  0  0  0  0  0  0  0
   25.1480  -21.1470  -12.2553 C   0  0  2  0  0  0  0  0  0  0  0  0
   26.2312  -20.8470  -13.2262 N   0  0  0  0  0  0  0  0  0  0  0  0
   23.9186  -20.5194  -12.7354 C   0  0  0  0  0  0  0  0  0  0  0  0
   23.9258  -19.2563  -12.9628 O   0  0  0  0  0  0  0  0  0  0  0  0
   19.9534  -20.2700  -15.4292 C   0  0  0  0  0  0  0  0  0  0  0  0
   21.1970  -20.9241  -14.9231 C   0  0  2  0  0  0  0  0  0  0  0  0
   21.0389  -22.4223  -14.9988 C   0  0  0  0  0  0  0  0  0  0  0  0
   21.5171  -20.4547  -13.5276 C   0  0  2  0  0  0  0  0  0  0  0  0
   22.6861  -21.1501  -12.9912 N   0  0  0  0  0  0  0  0  0  0  0  0
   20.3495  -20.6192  -12.6224 C   0  0  0  0  0  0  0  0  0  0  0  0
   19.2421  -19.7817  -12.6591 O   0  0  0  0  0  0  0  0  0  0  0  0
   20.3446  -21.5505  -11.7800 O   0  0  0  0  0  0  0  0  0  0  0  0
  2  1  1  6
  2  3  1  0
  3  4  1  0
  4  5  1  0
  5  6  2  0
  7  2  1  0
  7  8  2  0
  9  5  1  0
 10 11  1  0
 11 12  1  0
 12 14  1  0
 12 13  1  1
 14 15  1  6
 15  7  1  0
 16 14  1  0
 17 16  2  0
 19 21  1  0
 19 18  1  1
 20 19  1  0
 21 22  1  1
 22 16  1  0
 23 21  1  0
 24 23  1  0
 25 23  2  0
M  END
$$$$
