EIV.pdb
     RDKit          3D

 25 24  0  0  1  0  0  0  0  0999 V2000
   22.5764  -20.3453  -14.7356 N   0  0  0  0  0  0  0  0  0  0  0  0
   22.3450  -19.3237  -15.6956 C   0  0  1  0  0  0  0  0  0  0  0  0
   20.9196  -19.1633  -16.1514 C   0  0  0  0  0  0  0  0  0  0  0  0
   20.2258  -20.3691  -16.6438 C   0  0  0  0  0  0  0  0  0  0  0  0
   19.7597  -21.3474  -15.6808 C   0  0  0  0  0  0  0  0  0  0  0  0
   18.9447  -21.1112  -14.7829 O   0  0  0  0  0  0  0  0  0  0  0  0
   22.7900  -17.9657  -15.2981 C   0  0  0  0  0  0  0  0  0  0  0  0
   22.5392  -17.6169  -14.1155 O   0  0  0  0  0  0  0  0  0  0  0  0
   20.2523  -22.6483  -15.7558 O   0  0  0  0  0  0  0  0  0  0  0  0
   27.6048  -16.4985  -15.6192 C   0  0  0  0  0  0  0  0  0  0  0  0
   26.1298  -16.6436  -15.1950 C   0  0  0  0  0  0  0  0  0  0  0  0
   25.3311  -15.6329  -15.9273 C   0  0  2  0  0  0  0  0  0  0  0  0
   25.8402  -14.2181  -15.7317 C   0  0  0  0  0  0  0  0  0  0  0  0
   23.8373  -15.7144  -15.7092 C   0  0  2  0  0  0  0  0  0  0  0  0
   23.4566  -17.0809  -16.1492 N   0  0  0  0  0  0  0  0  0  0  0  0
   23.0538  -14.7519  -16.4810 C   0  0  0  0  0  0  0  0  0  0  0  0
   23.2664  -14.6637  -17.7436 O   0  0  0  0  0  0  0  0  0  0  0  0
   19.1140  -12.2061  -17.6416 C   0  0  0  0  0  0  0  0  0  0  0  0
   19.8533  -13.2192  -16.8307 C   0  0  2  0  0  0  0  0  0  0  0  0
   19.2855  -13.2507  -15.4335 C   0  0  0  0  0  0  0  0  0  0  0  0
   21.3325  -12.9330  -16.8383 C   0  0  2  0  0  0  0  0  0  0  0  0
   22.0588  -13.8820  -15.9958 N   0  0  0  0  0  0  0  0  0  0  0  0
   21.6135  -11.5360  -16.4149 C   0  0  0  0  0  0  0  0  0  0  0  0
   21.5014  -10.4502  -17.2735 O   0  0  0  0  0  0  0  0  0  0  0  0
   21.9693  -11.3063  -15.2326 O   0  0  0  0  0  0  0  0  0  0  0  0
  2  1  1  1
  2  3  1  0
  3  4  1  0
  4  5  1  0
  5  6  2  0
  7  2  1  0
  7  8  2  0
  9  5  1  0
 10 11  1  0
 11 12  1  0
 12 14  1  0
 12 13  1  1
 14 15  1  6
 15  7  1  0
 16 14  1  0
 17 16  2  0
 19 21  1  0
 19 18  1  6
 20 19  1  0
 21 22  1  1
 22 16  1  0
 23 21  1  0
 24 23  1  0
 25 23  2  0
M  END
$$$$
