EIV.pdb
     RDKit          3D

 25 24  0  0  1  0  0  0  0  0999 V2000
   30.1309  -23.2508  -17.3455 N   0  0  0  0  0  0  0  0  0  0  0  0
   28.8985  -22.6195  -17.6644 C   0  0  1  0  0  0  0  0  0  0  0  0
   27.7960  -23.5320  -18.1303 C   0  0  0  0  0  0  0  0  0  0  0  0
   27.9665  -24.1858  -19.4422 C   0  0  0  0  0  0  0  0  0  0  0  0
   27.9124  -23.3706  -20.6397 C   0  0  0  0  0  0  0  0  0  0  0  0
   27.3032  -22.2996  -20.7294 O   0  0  0  0  0  0  0  0  0  0  0  0
   28.3045  -21.8008  -16.5795 C   0  0  0  0  0  0  0  0  0  0  0  0
   28.6552  -22.0860  -15.4052 O   0  0  0  0  0  0  0  0  0  0  0  0
   28.5866  -23.8069  -21.7780 O   0  0  0  0  0  0  0  0  0  0  0  0
   28.3740  -16.6390  -17.1017 C   0  0  0  0  0  0  0  0  0  0  0  0
   28.4318  -18.0526  -16.4894 C   0  0  0  0  0  0  0  0  0  0  0  0
   27.0487  -18.4852  -16.1803 C   0  0  2  0  0  0  0  0  0  0  0  0
   26.3083  -17.5118  -15.2842 C   0  0  0  0  0  0  0  0  0  0  0  0
   26.9177  -19.9046  -15.6766 C   0  0  2  0  0  0  0  0  0  0  0  0
   27.4010  -20.7570  -16.7927 N   0  0  0  0  0  0  0  0  0  0  0  0
   25.5532  -20.3129  -15.3488 C   0  0  0  0  0  0  0  0  0  0  0  0
   24.6770  -20.3246  -16.2864 O   0  0  0  0  0  0  0  0  0  0  0  0
   23.9516  -21.3916  -11.4087 C   0  0  0  0  0  0  0  0  0  0  0  0
   23.5531  -22.0405  -12.6934 C   0  0  2  0  0  0  0  0  0  0  0  0
   24.3879  -23.2786  -12.9070 C   0  0  0  0  0  0  0  0  0  0  0  0
   23.6691  -21.0703  -13.8402 C   0  0  2  0  0  0  0  0  0  0  0  0
   25.0644  -20.7118  -14.0901 N   0  0  0  0  0  0  0  0  0  0  0  0
   22.8508  -19.8525  -13.6009 C   0  0  0  0  0  0  0  0  0  0  0  0
   23.4066  -18.6205  -13.2812 O   0  0  0  0  0  0  0  0  0  0  0  0
   21.5997  -19.9197  -13.6867 O   0  0  0  0  0  0  0  0  0  0  0  0
  2  1  1  1
  2  3  1  0
  3  4  1  0
  4  5  1  0
  5  6  2  0
  7  2  1  0
  7  8  2  0
  9  5  1  0
 10 11  1  0
 11 12  1  0
 12 14  1  0
 12 13  1  1
 14 15  1  6
 15  7  1  0
 16 14  1  0
 17 16  2  0
 19 21  1  0
 19 18  1  1
 20 19  1  0
 21 22  1  1
 22 16  1  0
 23 21  1  0
 24 23  1  0
 25 23  2  0
M  END
$$$$
