EIV.pdb
     RDKit          3D

 25 24  0  0  1  0  0  0  0  0999 V2000
   28.1666  -22.0111  -15.9942 N   0  0  0  0  0  0  0  0  0  0  0  0
   27.3587  -20.9636  -15.4755 C   0  0  1  0  0  0  0  0  0  0  0  0
   26.6215  -20.1380  -16.4954 C   0  0  0  0  0  0  0  0  0  0  0  0
   27.4207  -19.5123  -17.5666 C   0  0  0  0  0  0  0  0  0  0  0  0
   28.6768  -18.8774  -17.2189 C   0  0  0  0  0  0  0  0  0  0  0  0
   29.7757  -19.4414  -17.2441 O   0  0  0  0  0  0  0  0  0  0  0  0
   26.3345  -21.3810  -14.4871 C   0  0  0  0  0  0  0  0  0  0  0  0
   25.7245  -22.4542  -14.7306 O   0  0  0  0  0  0  0  0  0  0  0  0
   28.6657  -17.5406  -16.8271 O   0  0  0  0  0  0  0  0  0  0  0  0
   26.9949  -20.6090   -9.1833 C   0  0  0  0  0  0  0  0  0  0  0  0
   26.6204  -21.2773  -10.5210 C   0  0  0  0  0  0  0  0  0  0  0  0
   25.3907  -20.6319  -11.0379 C   0  0  2  0  0  0  0  0  0  0  0  0
   24.2433  -20.6612  -10.0473 C   0  0  0  0  0  0  0  0  0  0  0  0
   24.9476  -21.0983  -12.4061 C   0  0  2  0  0  0  0  0  0  0  0  0
   26.0243  -20.6609  -13.3309 N   0  0  0  0  0  0  0  0  0  0  0  0
   23.6868  -20.5223  -12.8691 C   0  0  0  0  0  0  0  0  0  0  0  0
   23.6220  -19.2521  -13.0409 O   0  0  0  0  0  0  0  0  0  0  0  0
   19.7909  -20.3933  -15.6541 C   0  0  0  0  0  0  0  0  0  0  0  0
   21.0638  -20.9798  -15.1379 C   0  0  2  0  0  0  0  0  0  0  0  0
   21.0239  -22.4791  -15.2994 C   0  0  0  0  0  0  0  0  0  0  0  0
   21.3009  -20.5667  -13.7085 C   0  0  2  0  0  0  0  0  0  0  0  0
   22.4947  -21.2112  -13.1633 N   0  0  0  0  0  0  0  0  0  0  0  0
   20.1156  -20.8572  -12.8598 C   0  0  0  0  0  0  0  0  0  0  0  0
   18.9916  -20.0420  -12.8286 O   0  0  0  0  0  0  0  0  0  0  0  0
   20.1105  -21.8802  -12.1313 O   0  0  0  0  0  0  0  0  0  0  0  0
  2  1  1  6
  2  3  1  0
  3  4  1  0
  4  5  1  0
  5  6  2  0
  7  2  1  0
  7  8  2  0
  9  5  1  0
 10 11  1  0
 11 12  1  0
 12 14  1  0
 12 13  1  1
 14 15  1  6
 15  7  1  0
 16 14  1  0
 17 16  2  0
 19 21  1  0
 19 18  1  1
 20 19  1  0
 21 22  1  1
 22 16  1  0
 23 21  1  0
 24 23  1  0
 25 23  2  0
M  END
$$$$
