EIV.pdb
     RDKit          3D

 25 24  0  0  1  0  0  0  0  0999 V2000
   28.4412  -21.8840  -15.5065 N   0  0  0  0  0  0  0  0  0  0  0  0
   27.6984  -20.7877  -14.9915 C   0  0  1  0  0  0  0  0  0  0  0  0
   27.0967  -19.8644  -16.0167 C   0  0  0  0  0  0  0  0  0  0  0  0
   28.0141  -19.2466  -16.9936 C   0  0  0  0  0  0  0  0  0  0  0  0
   27.4889  -18.2585  -17.9151 C   0  0  0  0  0  0  0  0  0  0  0  0
   27.5538  -18.3460  -19.1457 O   0  0  0  0  0  0  0  0  0  0  0  0
   26.5857  -21.1468  -14.0788 C   0  0  0  0  0  0  0  0  0  0  0  0
   25.8807  -22.1333  -14.4148 O   0  0  0  0  0  0  0  0  0  0  0  0
   26.8645  -17.1256  -17.3981 O   0  0  0  0  0  0  0  0  0  0  0  0
   27.3286  -20.5308   -8.8328 C   0  0  0  0  0  0  0  0  0  0  0  0
   26.8984  -21.1670  -10.1694 C   0  0  0  0  0  0  0  0  0  0  0  0
   25.6389  -20.5226  -10.6100 C   0  0  2  0  0  0  0  0  0  0  0  0
   24.5127  -20.6716   -9.6059 C   0  0  0  0  0  0  0  0  0  0  0  0
   25.1840  -20.8891  -12.0045 C   0  0  2  0  0  0  0  0  0  0  0  0
   26.2918  -20.4624  -12.8969 N   0  0  0  0  0  0  0  0  0  0  0  0
   23.9611  -20.2202  -12.4437 C   0  0  0  0  0  0  0  0  0  0  0  0
   23.9766  -18.9437  -12.5756 O   0  0  0  0  0  0  0  0  0  0  0  0
   20.1981  -19.5700  -15.2492 C   0  0  0  0  0  0  0  0  0  0  0  0
   21.3962  -20.3047  -14.7439 C   0  0  2  0  0  0  0  0  0  0  0  0
   21.2686  -21.7668  -15.0929 C   0  0  0  0  0  0  0  0  0  0  0  0
   21.5719  -20.0855  -13.2637 C   0  0  2  0  0  0  0  0  0  0  0  0
   22.7270  -20.8227  -12.7536 N   0  0  0  0  0  0  0  0  0  0  0  0
   20.3425  -20.4555  -12.5143 C   0  0  0  0  0  0  0  0  0  0  0  0
   19.2365  -19.6209  -12.4195 O   0  0  0  0  0  0  0  0  0  0  0  0
   20.2814  -21.5676  -11.9341 O   0  0  0  0  0  0  0  0  0  0  0  0
  2  1  1  6
  2  3  1  0
  3  4  1  0
  4  5  1  0
  5  6  2  0
  7  2  1  0
  7  8  2  0
  9  5  1  0
 10 11  1  0
 11 12  1  0
 12 14  1  0
 12 13  1  1
 14 15  1  6
 15  7  1  0
 16 14  1  0
 17 16  2  0
 19 21  1  0
 19 18  1  1
 20 19  1  0
 21 22  1  1
 22 16  1  0
 23 21  1  0
 24 23  1  0
 25 23  2  0
M  END
$$$$
