EIV.pdb
     RDKit          3D

 25 24  0  0  1  0  0  0  0  0999 V2000
   21.3967  -20.1616  -14.4925 N   0  0  0  0  0  0  0  0  0  0  0  0
   20.8757  -19.8081  -13.2188 C   0  0  1  0  0  0  0  0  0  0  0  0
   19.4186  -19.4319  -13.1881 C   0  0  0  0  0  0  0  0  0  0  0  0
   18.5823  -19.8675  -14.3232 C   0  0  0  0  0  0  0  0  0  0  0  0
   17.8783  -21.1310  -14.2262 C   0  0  0  0  0  0  0  0  0  0  0  0
   17.1621  -21.6024  -15.1156 O   0  0  0  0  0  0  0  0  0  0  0  0
   21.0443  -20.8304  -12.1573 C   0  0  0  0  0  0  0  0  0  0  0  0
   21.3450  -21.9910  -12.5389 O   0  0  0  0  0  0  0  0  0  0  0  0
   18.0049  -21.8803  -13.0586 O   0  0  0  0  0  0  0  0  0  0  0  0
   24.3071  -21.1017   -7.4536 C   0  0  0  0  0  0  0  0  0  0  0  0
   23.0489  -21.8154   -7.9865 C   0  0  0  0  0  0  0  0  0  0  0  0
   22.4107  -20.9431   -9.0003 C   0  0  2  0  0  0  0  0  0  0  0  0
   22.0217  -19.5835   -8.4535 C   0  0  0  0  0  0  0  0  0  0  0  0
   21.2693  -21.5755   -9.7639 C   0  0  2  0  0  0  0  0  0  0  0  0
   20.8908  -20.5735  -10.7927 N   0  0  0  0  0  0  0  0  0  0  0  0
   20.0861  -21.8721   -8.9591 C   0  0  0  0  0  0  0  0  0  0  0  0
   19.2489  -20.9263   -8.7318 O   0  0  0  0  0  0  0  0  0  0  0  0
   18.2805  -25.6576   -8.4835 C   0  0  0  0  0  0  0  0  0  0  0  0
   17.6109  -24.3265   -8.3821 C   0  0  2  0  0  0  0  0  0  0  0  0
   17.2371  -23.8495   -9.7634 C   0  0  0  0  0  0  0  0  0  0  0  0
   18.4899  -23.3406   -7.6572 C   0  0  2  0  0  0  0  0  0  0  0  0
   19.7367  -23.1093   -8.3851 N   0  0  0  0  0  0  0  0  0  0  0  0
   18.7706  -23.7885   -6.2678 C   0  0  0  0  0  0  0  0  0  0  0  0
   20.0306  -24.1908   -5.8445 O   0  0  0  0  0  0  0  0  0  0  0  0
   17.8406  -23.8115   -5.4242 O   0  0  0  0  0  0  0  0  0  0  0  0
  2  1  1  6
  2  3  1  0
  3  4  1  0
  4  5  1  0
  5  6  2  0
  7  2  1  0
  7  8  2  0
  9  5  1  0
 10 11  1  0
 11 12  1  0
 12 14  1  0
 12 13  1  1
 14 15  1  6
 15  7  1  0
 16 14  1  0
 17 16  2  0
 19 21  1  0
 19 18  1  6
 20 19  1  0
 21 22  1  6
 22 16  1  0
 23 21  1  0
 24 23  1  0
 25 23  2  0
M  END
$$$$
