EIV.pdb
     RDKit          3D

 25 24  0  0  1  0  0  0  0  0999 V2000
   28.4199  -21.9931  -15.7666 N   0  0  0  0  0  0  0  0  0  0  0  0
   27.8833  -20.9142  -15.0138 C   0  0  1  0  0  0  0  0  0  0  0  0
   27.4915  -19.6946  -15.8041 C   0  0  0  0  0  0  0  0  0  0  0  0
   27.0664  -19.9008  -17.2021 C   0  0  0  0  0  0  0  0  0  0  0  0
   25.8387  -19.2781  -17.6566 C   0  0  0  0  0  0  0  0  0  0  0  0
   25.7668  -18.4768  -18.5942 O   0  0  0  0  0  0  0  0  0  0  0  0
   26.7004  -21.2456  -14.1826 C   0  0  0  0  0  0  0  0  0  0  0  0
   25.9634  -22.1756  -14.6011 O   0  0  0  0  0  0  0  0  0  0  0  0
   24.6479  -19.5911  -17.0051 O   0  0  0  0  0  0  0  0  0  0  0  0
   27.0789  -20.3960   -8.8452 C   0  0  0  0  0  0  0  0  0  0  0  0
   26.8270  -21.0739  -10.2066 C   0  0  0  0  0  0  0  0  0  0  0  0
   25.5529  -20.5561  -10.7582 C   0  0  2  0  0  0  0  0  0  0  0  0
   24.3774  -20.7502   -9.8205 C   0  0  0  0  0  0  0  0  0  0  0  0
   25.2225  -21.0232  -12.1576 C   0  0  2  0  0  0  0  0  0  0  0  0
   26.3751  -20.5942  -12.9904 N   0  0  0  0  0  0  0  0  0  0  0  0
   24.0081  -20.4410  -12.7251 C   0  0  0  0  0  0  0  0  0  0  0  0
   23.9082  -19.1624  -12.7731 O   0  0  0  0  0  0  0  0  0  0  0  0
   22.4536  -20.8154  -16.0753 C   0  0  0  0  0  0  0  0  0  0  0  0
   21.3216  -20.9855  -15.1160 C   0  0  2  0  0  0  0  0  0  0  0  0
   20.0940  -20.3038  -15.6670 C   0  0  0  0  0  0  0  0  0  0  0  0
   21.6961  -20.4688  -13.7512 C   0  0  2  0  0  0  0  0  0  0  0  0
   22.8976  -21.1318  -13.2464 N   0  0  0  0  0  0  0  0  0  0  0  0
   20.5720  -20.6205  -12.7903 C   0  0  0  0  0  0  0  0  0  0  0  0
   19.6732  -19.5988  -12.5128 O   0  0  0  0  0  0  0  0  0  0  0  0
   20.4107  -21.7131  -12.1925 O   0  0  0  0  0  0  0  0  0  0  0  0
  2  1  1  6
  2  3  1  0
  3  4  1  0
  4  5  1  0
  5  6  2  0
  7  2  1  0
  7  8  2  0
  9  5  1  0
 10 11  1  0
 11 12  1  0
 12 14  1  0
 12 13  1  1
 14 15  1  6
 15  7  1  0
 16 14  1  0
 17 16  2  0
 19 21  1  0
 19 18  1  6
 20 19  1  0
 21 22  1  1
 22 16  1  0
 23 21  1  0
 24 23  1  0
 25 23  2  0
M  END
$$$$
