EIV.pdb
     RDKit          3D

 25 24  0  0  1  0  0  0  0  0999 V2000
   17.6633  -11.9779  -18.4121 N   0  0  0  0  0  0  0  0  0  0  0  0
   17.4946  -11.1609  -17.2619 C   0  0  1  0  0  0  0  0  0  0  0  0
   17.7939  -11.8183  -15.9415 C   0  0  0  0  0  0  0  0  0  0  0  0
   17.0071  -13.0153  -15.5866 C   0  0  0  0  0  0  0  0  0  0  0  0
   16.1208  -12.9526  -14.4412 C   0  0  0  0  0  0  0  0  0  0  0  0
   16.0993  -12.0267  -13.6236 O   0  0  0  0  0  0  0  0  0  0  0  0
   18.2705   -9.8968  -17.2611 C   0  0  0  0  0  0  0  0  0  0  0  0
   19.3204   -9.8825  -17.9544 O   0  0  0  0  0  0  0  0  0  0  0  0
   15.2244  -13.9979  -14.2300 O   0  0  0  0  0  0  0  0  0  0  0  0
   16.0355   -5.2686  -18.2857 C   0  0  0  0  0  0  0  0  0  0  0  0
   17.0629   -6.4157  -18.2148 C   0  0  0  0  0  0  0  0  0  0  0  0
   17.6825   -6.4060  -16.8688 C   0  0  2  0  0  0  0  0  0  0  0  0
   18.2312   -5.0478  -16.4774 C   0  0  0  0  0  0  0  0  0  0  0  0
   18.6957   -7.5003  -16.6207 C   0  0  2  0  0  0  0  0  0  0  0  0
   17.9015   -8.7532  -16.5487 N   0  0  0  0  0  0  0  0  0  0  0  0
   19.4482   -7.3651  -15.3752 C   0  0  0  0  0  0  0  0  0  0  0  0
   18.7955   -7.2242  -14.2792 O   0  0  0  0  0  0  0  0  0  0  0  0
   23.6306   -8.2792  -14.7917 C   0  0  0  0  0  0  0  0  0  0  0  0
   22.5271   -8.4492  -13.7998 C   0  0  2  0  0  0  0  0  0  0  0  0
   21.8988   -9.8087  -13.9807 C   0  0  0  0  0  0  0  0  0  0  0  0
   21.5205   -7.3351  -13.9248 C   0  0  2  0  0  0  0  0  0  0  0  0
   20.8478   -7.3737  -15.2224 N   0  0  0  0  0  0  0  0  0  0  0  0
   22.1542   -6.0088  -13.7032 C   0  0  0  0  0  0  0  0  0  0  0  0
   22.4926   -5.5352  -12.4423 O   0  0  0  0  0  0  0  0  0  0  0  0
   22.4029   -5.2685  -14.6867 O   0  0  0  0  0  0  0  0  0  0  0  0
  2  1  1  6
  2  3  1  0
  3  4  1  0
  4  5  1  0
  5  6  2  0
  7  2  1  0
  7  8  2  0
  9  5  1  0
 10 11  1  0
 11 12  1  0
 12 14  1  0
 12 13  1  6
 14 15  1  1
 15  7  1  0
 16 14  1  0
 17 16  2  0
 19 21  1  0
 19 18  1  6
 20 19  1  0
 21 22  1  6
 22 16  1  0
 23 21  1  0
 24 23  1  0
 25 23  2  0
M  END
$$$$
