EIV.pdb
     RDKit          3D

 25 24  0  0  1  0  0  0  0  0999 V2000
   28.5266  -20.8506  -15.6360 N   0  0  0  0  0  0  0  0  0  0  0  0
   27.5317  -20.0179  -15.0567 C   0  0  1  0  0  0  0  0  0  0  0  0
   26.8829  -19.0279  -15.9866 C   0  0  0  0  0  0  0  0  0  0  0  0
   27.7737  -18.1595  -16.7803 C   0  0  0  0  0  0  0  0  0  0  0  0
   28.1689  -18.5920  -18.1063 C   0  0  0  0  0  0  0  0  0  0  0  0
   29.3333  -18.6056  -18.5191 O   0  0  0  0  0  0  0  0  0  0  0  0
   26.4132  -20.7315  -14.3934 C   0  0  0  0  0  0  0  0  0  0  0  0
   25.8736  -21.6605  -15.0482 O   0  0  0  0  0  0  0  0  0  0  0  0
   27.1839  -19.0259  -18.9906 O   0  0  0  0  0  0  0  0  0  0  0  0
   25.3638  -20.2046   -8.7663 C   0  0  0  0  0  0  0  0  0  0  0  0
   25.1143  -19.9855  -10.2717 C   0  0  0  0  0  0  0  0  0  0  0  0
   25.3298  -21.2726  -10.9736 C   0  0  2  0  0  0  0  0  0  0  0  0
   26.7264  -21.8294  -10.7774 C   0  0  0  0  0  0  0  0  0  0  0  0
   24.9344  -21.2820  -12.4328 C   0  0  2  0  0  0  0  0  0  0  0  0
   25.9443  -20.4310  -13.1122 N   0  0  0  0  0  0  0  0  0  0  0  0
   23.6105  -20.7287  -12.7105 C   0  0  0  0  0  0  0  0  0  0  0  0
   23.4534  -19.4568  -12.6425 O   0  0  0  0  0  0  0  0  0  0  0  0
   20.5966  -22.3424  -15.1355 C   0  0  0  0  0  0  0  0  0  0  0  0
   20.7305  -20.9130  -14.7239 C   0  0  2  0  0  0  0  0  0  0  0  0
   21.6982  -20.2163  -15.6479 C   0  0  0  0  0  0  0  0  0  0  0  0
   21.1471  -20.8100  -13.2796 C   0  0  2  0  0  0  0  0  0  0  0  0
   22.4472  -21.4414  -13.0583 N   0  0  0  0  0  0  0  0  0  0  0  0
   20.1203  -21.3970  -12.3793 C   0  0  0  0  0  0  0  0  0  0  0  0
   18.8754  -20.8164  -12.1743 O   0  0  0  0  0  0  0  0  0  0  0  0
   20.3699  -22.4651  -11.7676 O   0  0  0  0  0  0  0  0  0  0  0  0
  2  1  1  6
  2  3  1  0
  3  4  1  0
  4  5  1  0
  5  6  2  0
  7  2  1  0
  7  8  2  0
  9  5  1  0
 10 11  1  0
 11 12  1  0
 12 14  1  0
 12 13  1  6
 14 15  1  6
 15  7  1  0
 16 14  1  0
 17 16  2  0
 19 21  1  0
 19 18  1  6
 20 19  1  0
 21 22  1  6
 22 16  1  0
 23 21  1  0
 24 23  1  0
 25 23  2  0
M  END
$$$$
