HDF.pdb
     RDKit          3D

 30 31  0  0  1  0  0  0  0  0999 V2000
    9.7037  -16.2016   19.7967 N   0  0  0  0  0  0  0  0  0  0  0  0
    9.2018  -15.2966   20.8291 C   0  0  1  0  0  0  0  0  0  0  0  0
    7.8793  -14.7925   20.3577 C   0  0  0  0  0  0  0  0  0  0  0  0
    7.9280  -14.2334   18.9927 C   0  0  0  0  0  0  0  0  0  0  0  0
    8.4109  -13.0058   18.5994 C   0  0  0  0  0  0  0  0  0  0  0  0
    8.2800  -12.8657   17.2681 N   0  0  0  0  0  0  0  0  0  0  0  0
    7.7184  -13.9970   16.8224 C   0  0  0  0  0  0  0  0  0  0  0  0
    7.5027  -14.8312   17.8678 N   0  0  0  0  0  0  0  0  0  0  0  0
    9.1688  -16.0198   22.1175 C   0  0  0  0  0  0  0  0  0  0  0  0
    8.1699  -15.8480   22.8717 O   0  0  0  0  0  0  0  0  0  0  0  0
   10.1900  -16.8973   22.5543 N   0  0  0  0  0  0  0  0  0  0  0  0
   10.0322  -17.5617   23.8631 C   0  0  1  0  0  0  0  0  0  0  0  0
   10.7450  -18.9054   23.7644 C   0  0  0  0  0  0  0  0  0  0  0  0
   10.7670  -19.5894   25.0431 C   0  0  0  0  0  0  0  0  0  0  0  0
    9.9585  -19.3580   25.9584 O   0  0  0  0  0  0  0  0  0  0  0  0
   10.5653  -16.7038   24.9223 C   0  0  0  0  0  0  0  0  0  0  0  0
   11.7048  -16.2085   24.8410 O   0  0  0  0  0  0  0  0  0  0  0  0
   11.7374  -20.5690   25.2934 O   0  0  0  0  0  0  0  0  0  0  0  0
    9.8537  -16.3532   26.1264 N   0  0  0  0  0  0  0  0  0  0  0  0
   10.4495  -15.6237   27.1948 C   0  0  1  0  0  0  0  0  0  0  0  0
   10.4603  -14.1468   27.0187 C   0  0  0  0  0  0  0  0  0  0  0  0
    9.1350  -13.5429   26.8710 C   0  0  0  0  0  0  0  0  0  0  0  0
    8.6075  -12.7254   27.8422 C   0  0  0  0  0  0  0  0  0  0  0  0
    7.3508  -12.1496   27.7125 C   0  0  0  0  0  0  0  0  0  0  0  0
    6.5909  -12.3850   26.5944 C   0  0  0  0  0  0  0  0  0  0  0  0
    7.0945  -13.1930   25.6175 C   0  0  0  0  0  0  0  0  0  0  0  0
    8.3608  -13.7696   25.7547 C   0  0  0  0  0  0  0  0  0  0  0  0
    9.9133  -15.9653   28.5455 C   0  0  0  0  0  0  0  0  0  0  0  0
    8.9575  -16.7647   28.6820 O   0  0  0  0  0  0  0  0  0  0  0  0
   10.4492  -15.4137   29.7022 O   0  0  0  0  0  0  0  0  0  0  0  0
  2  1  1  6
  2  9  1  0
  2  3  1  0
  3  4  1  0
  4  5  2  0
  4  8  1  0
  5  6  1  0
  6  7  1  0
  8  7  2  0
  9 10  2  0
 11 12  1  0
 11  9  1  0
 12 13  1  6
 13 14  1  0
 14 18  1  0
 14 15  2  0
 16 17  2  0
 16 12  1  0
 19 16  1  0
 20 21  1  6
 20 19  1  0
 22 27  1  0
 22 21  1  0
 23 22  2  0
 24 25  2  0
 24 23  1  0
 25 26  1  0
 26 27  2  0
 28 20  1  0
 28 30  1  0
 29 28  2  0
M  END
$$$$
