HDF.pdb
     RDKit          3D

 30 31  0  0  1  0  0  0  0  0999 V2000
    6.7181  -16.2119   20.9256 N   0  0  0  0  0  0  0  0  0  0  0  0
    8.0513  -15.7668   21.3275 C   0  0  1  0  0  0  0  0  0  0  0  0
    8.0475  -14.2764   21.2656 C   0  0  0  0  0  0  0  0  0  0  0  0
    8.0276  -13.7563   19.8845 C   0  0  0  0  0  0  0  0  0  0  0  0
    8.0794  -14.4737   18.7108 C   0  0  0  0  0  0  0  0  0  0  0  0
    8.0383  -13.6368   17.6587 N   0  0  0  0  0  0  0  0  0  0  0  0
    7.9608  -12.3985   18.1634 C   0  0  0  0  0  0  0  0  0  0  0  0
    7.9540  -12.4668   19.5164 N   0  0  0  0  0  0  0  0  0  0  0  0
    8.3586  -16.3336   22.6574 C   0  0  0  0  0  0  0  0  0  0  0  0
    7.4253  -16.4014   23.5062 O   0  0  0  0  0  0  0  0  0  0  0  0
    9.6376  -16.8086   23.0344 N   0  0  0  0  0  0  0  0  0  0  0  0
    9.7906  -17.4338   24.3629 C   0  0  1  0  0  0  0  0  0  0  0  0
   10.8447  -18.5251   24.2181 C   0  0  0  0  0  0  0  0  0  0  0  0
   10.3697  -19.6145   23.3868 C   0  0  0  0  0  0  0  0  0  0  0  0
   10.9172  -19.9551   22.3241 O   0  0  0  0  0  0  0  0  0  0  0  0
   10.1480  -16.4158   25.3520 C   0  0  0  0  0  0  0  0  0  0  0  0
   11.0407  -15.5782   25.1239 O   0  0  0  0  0  0  0  0  0  0  0  0
    9.2363  -20.3431   23.7725 O   0  0  0  0  0  0  0  0  0  0  0  0
    9.5270  -16.2792   26.6460 N   0  0  0  0  0  0  0  0  0  0  0  0
    9.9579  -15.3302   27.6168 C   0  0  1  0  0  0  0  0  0  0  0  0
    8.8814  -14.4698   28.1764 C   0  0  0  0  0  0  0  0  0  0  0  0
    8.1360  -13.7024   27.1772 C   0  0  0  0  0  0  0  0  0  0  0  0
    6.7891  -13.8970   26.9825 C   0  0  0  0  0  0  0  0  0  0  0  0
    6.0736  -13.1758   26.0362 C   0  0  0  0  0  0  0  0  0  0  0  0
    6.7017  -12.2356   25.2586 C   0  0  0  0  0  0  0  0  0  0  0  0
    8.0381  -12.0256   25.4348 C   0  0  0  0  0  0  0  0  0  0  0  0
    8.7523  -12.7555   26.3896 C   0  0  0  0  0  0  0  0  0  0  0  0
   10.7653  -15.9131   28.7289 C   0  0  0  0  0  0  0  0  0  0  0  0
   10.9218  -17.1520   28.8380 O   0  0  0  0  0  0  0  0  0  0  0  0
   11.3739  -15.1101   29.6850 O   0  0  0  0  0  0  0  0  0  0  0  0
  2  1  1  1
  2  9  1  0
  2  3  1  0
  3  4  1  0
  4  5  2  0
  4  8  1  0
  5  6  1  0
  6  7  1  0
  8  7  2  0
  9 10  2  0
 11 12  1  0
 11  9  1  0
 12 13  1  6
 13 14  1  0
 14 18  1  0
 14 15  2  0
 16 17  2  0
 16 12  1  0
 19 16  1  0
 20 21  1  1
 20 19  1  0
 22 27  1  0
 22 21  1  0
 23 22  2  0
 24 25  2  0
 24 23  1  0
 25 26  1  0
 26 27  2  0
 28 20  1  0
 28 30  1  0
 29 28  2  0
M  END
$$$$
