HDF.pdb
     RDKit          3D

 30 31  0  0  1  0  0  0  0  0999 V2000
    9.6759  -15.4472   20.5029 N   0  0  0  0  0  0  0  0  0  0  0  0
    8.5406  -14.9566   21.2823 C   0  0  1  0  0  0  0  0  0  0  0  0
    7.3499  -14.9945   20.3843 C   0  0  0  0  0  0  0  0  0  0  0  0
    7.5560  -14.2593   19.1214 C   0  0  0  0  0  0  0  0  0  0  0  0
    8.7162  -13.6781   18.6618 C   0  0  0  0  0  0  0  0  0  0  0  0
    8.4987  -13.1011   17.4665 N   0  0  0  0  0  0  0  0  0  0  0  0
    7.2100  -13.3161   17.1717 C   0  0  0  0  0  0  0  0  0  0  0  0
    6.6332  -14.0199   18.1753 N   0  0  0  0  0  0  0  0  0  0  0  0
    8.4209  -15.7719   22.5092 C   0  0  0  0  0  0  0  0  0  0  0  0
    7.4466  -15.5468   23.2812 O   0  0  0  0  0  0  0  0  0  0  0  0
    9.3328  -16.7933   22.8678 N   0  0  0  0  0  0  0  0  0  0  0  0
    9.1380  -17.4876   24.1559 C   0  0  1  0  0  0  0  0  0  0  0  0
    9.7622  -18.8705   24.0106 C   0  0  0  0  0  0  0  0  0  0  0  0
    9.6976  -19.6150   25.2535 C   0  0  0  0  0  0  0  0  0  0  0  0
    8.6313  -19.9370   25.8052 O   0  0  0  0  0  0  0  0  0  0  0  0
    9.7295  -16.6999   25.2385 C   0  0  0  0  0  0  0  0  0  0  0  0
   10.8385  -16.1495   25.1059 O   0  0  0  0  0  0  0  0  0  0  0  0
   10.8809  -20.0086   25.8930 O   0  0  0  0  0  0  0  0  0  0  0  0
    9.1135  -16.4848   26.5242 N   0  0  0  0  0  0  0  0  0  0  0  0
    9.7487  -15.7675   27.5782 C   0  0  1  0  0  0  0  0  0  0  0  0
    8.9110  -14.7190   28.2194 C   0  0  0  0  0  0  0  0  0  0  0  0
    8.1785  -13.8681   27.2801 C   0  0  0  0  0  0  0  0  0  0  0  0
    8.7437  -12.7319   26.7515 C   0  0  0  0  0  0  0  0  0  0  0  0
    8.0566  -11.9173   25.8616 C   0  0  0  0  0  0  0  0  0  0  0  0
    6.7758  -12.2297   25.4806 C   0  0  0  0  0  0  0  0  0  0  0  0
    6.1950  -13.3528   25.9925 C   0  0  0  0  0  0  0  0  0  0  0  0
    6.8928  -14.1686   26.8882 C   0  0  0  0  0  0  0  0  0  0  0  0
   10.3612  -16.6340   28.6283 C   0  0  0  0  0  0  0  0  0  0  0  0
   10.1663  -17.8721   28.6441 O   0  0  0  0  0  0  0  0  0  0  0  0
   11.1691  -16.1061   29.6273 O   0  0  0  0  0  0  0  0  0  0  0  0
  2  1  1  6
  2  9  1  0
  2  3  1  0
  3  4  1  0
  4  5  2  0
  4  8  1  0
  5  6  1  0
  6  7  1  0
  8  7  2  0
  9 10  2  0
 11 12  1  0
 11  9  1  0
 12 13  1  6
 13 14  1  0
 14 18  1  0
 14 15  2  0
 16 17  2  0
 16 12  1  0
 19 16  1  0
 20 21  1  1
 20 19  1  0
 22 27  1  0
 22 21  1  0
 23 22  2  0
 24 25  2  0
 24 23  1  0
 25 26  1  0
 26 27  2  0
 28 20  1  0
 28 30  1  0
 29 28  2  0
M  END
$$$$
