HDF.pdb
     RDKit          3D

 30 31  0  0  1  0  0  0  0  0999 V2000
    8.8899  -16.9262   17.8673 N   0  0  0  0  0  0  0  0  0  0  0  0
    9.9855  -16.5197   18.7456 C   0  0  1  0  0  0  0  0  0  0  0  0
   10.1790  -15.0539   18.5470 C   0  0  0  0  0  0  0  0  0  0  0  0
    9.0183  -14.2541   18.9844 C   0  0  0  0  0  0  0  0  0  0  0  0
    8.1872  -13.4774   18.2091 C   0  0  0  0  0  0  0  0  0  0  0  0
    7.2440  -12.9048   18.9783 N   0  0  0  0  0  0  0  0  0  0  0  0
    7.4767  -13.3166   20.2313 C   0  0  0  0  0  0  0  0  0  0  0  0
    8.5546  -14.1372   20.2395 N   0  0  0  0  0  0  0  0  0  0  0  0
    9.6575  -16.9223   20.1293 C   0  0  0  0  0  0  0  0  0  0  0  0
    8.4747  -17.2899   20.3781 O   0  0  0  0  0  0  0  0  0  0  0  0
   10.5928  -16.9235   21.1916 N   0  0  0  0  0  0  0  0  0  0  0  0
   10.2875  -17.7227   22.3947 C   0  0  1  0  0  0  0  0  0  0  0  0
   11.5093  -18.5918   22.6687 C   0  0  0  0  0  0  0  0  0  0  0  0
   11.2921  -19.4700   23.8023 C   0  0  0  0  0  0  0  0  0  0  0  0
   10.2465  -20.1190   23.9764 O   0  0  0  0  0  0  0  0  0  0  0  0
    9.9516  -16.8342   23.5083 C   0  0  0  0  0  0  0  0  0  0  0  0
   10.6745  -15.8638   23.8017 O   0  0  0  0  0  0  0  0  0  0  0  0
   12.2936  -19.6183   24.7715 O   0  0  0  0  0  0  0  0  0  0  0  0
    8.7911  -16.9822   24.3510 N   0  0  0  0  0  0  0  0  0  0  0  0
    8.5772  -16.1982   25.5208 C   0  0  1  0  0  0  0  0  0  0  0  0
    7.1802  -15.7260   25.7147 C   0  0  0  0  0  0  0  0  0  0  0  0
    7.0418  -14.2742   25.8418 C   0  0  0  0  0  0  0  0  0  0  0  0
    6.9673  -13.6662   27.0726 C   0  0  0  0  0  0  0  0  0  0  0  0
    6.8339  -12.2905   27.2036 C   0  0  0  0  0  0  0  0  0  0  0  0
    6.7721  -11.4894   26.0912 C   0  0  0  0  0  0  0  0  0  0  0  0
    6.8443  -12.0712   24.8594 C   0  0  0  0  0  0  0  0  0  0  0  0
    6.9785  -13.4572   24.7348 C   0  0  0  0  0  0  0  0  0  0  0  0
    9.0753  -16.8263   26.7802 C   0  0  0  0  0  0  0  0  0  0  0  0
    9.1906  -18.0701   26.8845 O   0  0  0  0  0  0  0  0  0  0  0  0
    9.4299  -16.0615   27.8841 O   0  0  0  0  0  0  0  0  0  0  0  0
  2  1  1  6
  2  9  1  0
  2  3  1  0
  3  4  1  0
  4  5  2  0
  4  8  1  0
  5  6  1  0
  6  7  1  0
  8  7  2  0
  9 10  2  0
 11 12  1  0
 11  9  1  0
 12 13  1  1
 13 14  1  0
 14 18  1  0
 14 15  2  0
 16 17  2  0
 16 12  1  0
 19 16  1  0
 20 21  1  1
 20 19  1  0
 22 27  1  0
 22 21  1  0
 23 22  2  0
 24 25  2  0
 24 23  1  0
 25 26  1  0
 26 27  2  0
 28 20  1  0
 28 30  1  0
 29 28  2  0
M  END
$$$$
