HDF.pdb
     RDKit          3D

 30 31  0  0  1  0  0  0  0  0999 V2000
    8.2827  -16.8204   20.3450 N   0  0  0  0  0  0  0  0  0  0  0  0
    9.1562  -15.9376   21.1162 C   0  0  1  0  0  0  0  0  0  0  0  0
    8.4496  -14.6298   21.2407 C   0  0  0  0  0  0  0  0  0  0  0  0
    8.2395  -13.9613   19.9418 C   0  0  0  0  0  0  0  0  0  0  0  0
    8.9486  -12.9085   19.4091 C   0  0  0  0  0  0  0  0  0  0  0  0
    8.4512  -12.5834   18.2025 N   0  0  0  0  0  0  0  0  0  0  0  0
    7.4346  -13.4248   17.9735 C   0  0  0  0  0  0  0  0  0  0  0  0
    7.3025  -14.2642   19.0285 N   0  0  0  0  0  0  0  0  0  0  0  0
    9.4796  -16.5949   22.3998 C   0  0  0  0  0  0  0  0  0  0  0  0
    8.5304  -17.0870   23.0728 O   0  0  0  0  0  0  0  0  0  0  0  0
   10.7921  -16.7087   22.9174 N   0  0  0  0  0  0  0  0  0  0  0  0
   10.9776  -17.3809   24.2185 C   0  0  1  0  0  0  0  0  0  0  0  0
   12.1021  -18.3934   24.0355 C   0  0  0  0  0  0  0  0  0  0  0  0
   12.3996  -19.0855   25.2748 C   0  0  0  0  0  0  0  0  0  0  0  0
   11.5508  -19.7145   25.9298 O   0  0  0  0  0  0  0  0  0  0  0  0
   11.2612  -16.3866   25.2545 C   0  0  0  0  0  0  0  0  0  0  0  0
   12.2634  -15.6508   25.1872 O   0  0  0  0  0  0  0  0  0  0  0  0
   13.7030  -19.0649   25.7897 O   0  0  0  0  0  0  0  0  0  0  0  0
   10.4405  -16.1615   26.4184 N   0  0  0  0  0  0  0  0  0  0  0  0
   10.8648  -15.3723   27.5256 C   0  0  1  0  0  0  0  0  0  0  0  0
   10.4120  -13.9557   27.4985 C   0  0  0  0  0  0  0  0  0  0  0  0
    8.9878  -13.7786   27.2102 C   0  0  0  0  0  0  0  0  0  0  0  0
    8.1081  -13.3533   28.1773 C   0  0  0  0  0  0  0  0  0  0  0  0
    6.7554  -13.1842   27.9144 C   0  0  0  0  0  0  0  0  0  0  0  0
    6.2534  -13.4411   26.6634 C   0  0  0  0  0  0  0  0  0  0  0  0
    7.1081  -13.8641   25.6880 C   0  0  0  0  0  0  0  0  0  0  0  0
    8.4692  -14.0322   25.9597 C   0  0  0  0  0  0  0  0  0  0  0  0
   10.5617  -15.9718   28.8588 C   0  0  0  0  0  0  0  0  0  0  0  0
   10.9615  -15.4351   29.9186 O   0  0  0  0  0  0  0  0  0  0  0  0
    9.8272  -17.1446   28.9794 O   0  0  0  0  0  0  0  0  0  0  0  0
  2  1  1  6
  2  9  1  0
  2  3  1  0
  3  4  1  0
  4  5  2  0
  4  8  1  0
  5  6  1  0
  6  7  1  0
  8  7  2  0
  9 10  2  0
 11 12  1  0
 11  9  1  0
 12 13  1  6
 13 14  1  0
 14 18  1  0
 14 15  2  0
 16 17  2  0
 16 12  1  0
 19 16  1  0
 20 21  1  1
 20 19  1  0
 22 27  1  0
 22 21  1  0
 23 22  2  0
 24 25  2  0
 24 23  1  0
 25 26  1  0
 26 27  2  0
 28 20  1  0
 28 30  1  0
 29 28  2  0
M  END
$$$$
