HDF.pdb
     RDKit          3D

 30 31  0  0  1  0  0  0  0  0999 V2000
    7.3886  -16.8105   20.8905 N   0  0  0  0  0  0  0  0  0  0  0  0
    8.5292  -15.9997   21.3132 C   0  0  1  0  0  0  0  0  0  0  0  0
    8.0375  -14.5979   21.4493 C   0  0  0  0  0  0  0  0  0  0  0  0
    7.8651  -13.9181   20.1507 C   0  0  0  0  0  0  0  0  0  0  0  0
    8.1483  -14.4088   18.8961 C   0  0  0  0  0  0  0  0  0  0  0  0
    7.8538  -13.4848   17.9642 N   0  0  0  0  0  0  0  0  0  0  0  0
    7.3873  -12.4171   18.6247 C   0  0  0  0  0  0  0  0  0  0  0  0
    7.3925  -12.6764   19.9543 N   0  0  0  0  0  0  0  0  0  0  0  0
    9.0937  -16.5838   22.5478 C   0  0  0  0  0  0  0  0  0  0  0  0
    8.3102  -17.1881   23.3332 O   0  0  0  0  0  0  0  0  0  0  0  0
   10.4627  -16.5090   22.8997 N   0  0  0  0  0  0  0  0  0  0  0  0
   10.9138  -17.2112   24.1173 C   0  0  1  0  0  0  0  0  0  0  0  0
   12.3871  -17.5447   23.9140 C   0  0  0  0  0  0  0  0  0  0  0  0
   12.5873  -18.3665   22.7359 C   0  0  0  0  0  0  0  0  0  0  0  0
   13.0988  -17.9448   21.6844 O   0  0  0  0  0  0  0  0  0  0  0  0
   10.6701  -16.3732   25.2923 C   0  0  0  0  0  0  0  0  0  0  0  0
   11.2891  -15.3067   25.4652 O   0  0  0  0  0  0  0  0  0  0  0  0
   12.1951  -19.7120   22.7493 O   0  0  0  0  0  0  0  0  0  0  0  0
    9.7223  -16.6815   26.3342 N   0  0  0  0  0  0  0  0  0  0  0  0
    9.7480  -16.0587   27.6150 C   0  0  1  0  0  0  0  0  0  0  0  0
    8.4829  -15.3849   28.0122 C   0  0  0  0  0  0  0  0  0  0  0  0
    8.0301  -14.3473   27.0842 C   0  0  0  0  0  0  0  0  0  0  0  0
    8.6929  -13.1482   26.9707 C   0  0  0  0  0  0  0  0  0  0  0  0
    8.2702  -12.1571   26.0951 C   0  0  0  0  0  0  0  0  0  0  0  0
    7.1630  -12.3513   25.3082 C   0  0  0  0  0  0  0  0  0  0  0  0
    6.4897  -13.5338   25.4040 C   0  0  0  0  0  0  0  0  0  0  0  0
    6.9209  -14.5276   26.2878 C   0  0  0  0  0  0  0  0  0  0  0  0
   10.2132  -16.9476   28.7205 C   0  0  0  0  0  0  0  0  0  0  0  0
   10.4211  -16.4979   29.8719 O   0  0  0  0  0  0  0  0  0  0  0  0
   10.4340  -18.3041   28.5197 O   0  0  0  0  0  0  0  0  0  0  0  0
  2  1  1  1
  2  9  1  0
  2  3  1  0
  3  4  1  0
  4  5  2  0
  4  8  1  0
  5  6  1  0
  6  7  1  0
  8  7  2  0
  9 10  2  0
 11 12  1  0
 11  9  1  0
 12 13  1  6
 13 14  1  0
 14 18  1  0
 14 15  2  0
 16 17  2  0
 16 12  1  0
 19 16  1  0
 20 21  1  1
 20 19  1  0
 22 27  1  0
 22 21  1  0
 23 22  2  0
 24 25  2  0
 24 23  1  0
 25 26  1  0
 26 27  2  0
 28 20  1  0
 28 30  1  0
 29 28  2  0
M  END
$$$$
