HDF.pdb
     RDKit          3D

 30 31  0  0  1  0  0  0  0  0999 V2000
    7.4569  -16.3107   20.5834 N   0  0  0  0  0  0  0  0  0  0  0  0
    8.5793  -16.2205   21.5157 C   0  0  1  0  0  0  0  0  0  0  0  0
    9.1457  -14.8471   21.3804 C   0  0  0  0  0  0  0  0  0  0  0  0
    8.4970  -14.0577   20.3154 C   0  0  0  0  0  0  0  0  0  0  0  0
    7.5202  -14.4672   19.4361 C   0  0  0  0  0  0  0  0  0  0  0  0
    7.1878  -13.4552   18.6150 N   0  0  0  0  0  0  0  0  0  0  0  0
    7.9489  -12.4126   18.9724 C   0  0  0  0  0  0  0  0  0  0  0  0
    8.7463  -12.7747   20.0060 N   0  0  0  0  0  0  0  0  0  0  0  0
    8.0985  -16.5647   22.8701 C   0  0  0  0  0  0  0  0  0  0  0  0
    6.9874  -17.1568   22.9752 O   0  0  0  0  0  0  0  0  0  0  0  0
    8.8125  -16.2727   24.0569 N   0  0  0  0  0  0  0  0  0  0  0  0
    9.2415  -17.3967   24.9124 C   0  0  1  0  0  0  0  0  0  0  0  0
   10.0838  -18.3193   24.0391 C   0  0  0  0  0  0  0  0  0  0  0  0
   10.5419  -19.4788   24.7800 C   0  0  0  0  0  0  0  0  0  0  0  0
    9.8039  -20.4295   25.0907 O   0  0  0  0  0  0  0  0  0  0  0  0
    9.9668  -16.8854   26.0764 C   0  0  0  0  0  0  0  0  0  0  0  0
   10.4557  -17.6563   26.9232 O   0  0  0  0  0  0  0  0  0  0  0  0
   11.8817  -19.5646   25.1823 O   0  0  0  0  0  0  0  0  0  0  0  0
   10.1849  -15.4876   26.3547 N   0  0  0  0  0  0  0  0  0  0  0  0
   10.2237  -14.9568   27.6759 C   0  0  1  0  0  0  0  0  0  0  0  0
    8.9133  -14.4947   28.2067 C   0  0  0  0  0  0  0  0  0  0  0  0
    8.1117  -13.7214   27.2568 C   0  0  0  0  0  0  0  0  0  0  0  0
    8.6795  -12.7578   26.4574 C   0  0  0  0  0  0  0  0  0  0  0  0
    7.9276  -12.0177   25.5549 C   0  0  0  0  0  0  0  0  0  0  0  0
    6.5775  -12.2319   25.4354 C   0  0  0  0  0  0  0  0  0  0  0  0
    5.9927  -13.1835   26.2187 C   0  0  0  0  0  0  0  0  0  0  0  0
    6.7559  -13.9251   27.1254 C   0  0  0  0  0  0  0  0  0  0  0  0
   10.8860  -15.8461   28.6755 C   0  0  0  0  0  0  0  0  0  0  0  0
   11.8363  -15.4349   29.3820 O   0  0  0  0  0  0  0  0  0  0  0  0
   10.4785  -17.1606   28.8632 O   0  0  0  0  0  0  0  0  0  0  0  0
  2  1  1  6
  2  9  1  0
  2  3  1  0
  3  4  1  0
  4  5  2  0
  4  8  1  0
  5  6  1  0
  6  7  1  0
  8  7  2  0
  9 10  2  0
 11 12  1  0
 11  9  1  0
 12 13  1  6
 13 14  1  0
 14 18  1  0
 14 15  2  0
 16 17  2  0
 16 12  1  0
 19 16  1  0
 20 21  1  1
 20 19  1  0
 22 27  1  0
 22 21  1  0
 23 22  2  0
 24 25  2  0
 24 23  1  0
 25 26  1  0
 26 27  2  0
 28 20  1  0
 28 30  1  0
 29 28  2  0
M  END
$$$$
