HDF.pdb
     RDKit          3D

 30 31  0  0  1  0  0  0  0  0999 V2000
    7.0528  -20.9081   22.6678 N   0  0  0  0  0  0  0  0  0  0  0  0
    6.5776  -19.6601   23.2625 C   0  0  1  0  0  0  0  0  0  0  0  0
    6.5881  -19.8534   24.7416 C   0  0  0  0  0  0  0  0  0  0  0  0
    5.6395  -20.8893   25.1950 C   0  0  0  0  0  0  0  0  0  0  0  0
    4.3876  -21.1658   24.6938 C   0  0  0  0  0  0  0  0  0  0  0  0
    3.8343  -22.1843   25.3762 N   0  0  0  0  0  0  0  0  0  0  0  0
    4.7302  -22.5496   26.3024 C   0  0  0  0  0  0  0  0  0  0  0  0
    5.8292  -21.7648   26.1956 N   0  0  0  0  0  0  0  0  0  0  0  0
    7.4231  -18.5507   22.7739 C   0  0  0  0  0  0  0  0  0  0  0  0
    8.6562  -18.7699   22.6084 O   0  0  0  0  0  0  0  0  0  0  0  0
    6.9307  -17.2574   22.4768 N   0  0  0  0  0  0  0  0  0  0  0  0
    7.9032  -16.1878   22.1776 C   0  0  1  0  0  0  0  0  0  0  0  0
    7.1334  -15.0758   21.4746 C   0  0  0  0  0  0  0  0  0  0  0  0
    8.0247  -14.1880   20.7529 C   0  0  0  0  0  0  0  0  0  0  0  0
    9.2561  -14.3484   20.6984 O   0  0  0  0  0  0  0  0  0  0  0  0
    8.5513  -15.7467   23.4136 C   0  0  0  0  0  0  0  0  0  0  0  0
    9.4776  -14.9149   23.3965 O   0  0  0  0  0  0  0  0  0  0  0  0
    7.5034  -13.0810   20.0693 O   0  0  0  0  0  0  0  0  0  0  0  0
    8.1981  -16.2102   24.7325 N   0  0  0  0  0  0  0  0  0  0  0  0
    8.8425  -15.7473   25.9154 C   0  0  1  0  0  0  0  0  0  0  0  0
    7.9311  -15.1949   26.9530 C   0  0  0  0  0  0  0  0  0  0  0  0
    7.3621  -13.8861   26.6271 C   0  0  0  0  0  0  0  0  0  0  0  0
    8.1631  -12.7897   26.4119 C   0  0  0  0  0  0  0  0  0  0  0  0
    7.6331  -11.5438   26.1044 C   0  0  0  0  0  0  0  0  0  0  0  0
    6.2753  -11.3716   26.0057 C   0  0  0  0  0  0  0  0  0  0  0  0
    5.4611  -12.4459   26.2151 C   0  0  0  0  0  0  0  0  0  0  0  0
    6.0016  -13.6976   26.5244 C   0  0  0  0  0  0  0  0  0  0  0  0
    9.7704  -16.7380   26.5368 C   0  0  0  0  0  0  0  0  0  0  0  0
   10.4025  -16.4677   27.5849 O   0  0  0  0  0  0  0  0  0  0  0  0
    9.9710  -17.9952   25.9813 O   0  0  0  0  0  0  0  0  0  0  0  0
  2  1  1  6
  2  9  1  0
  2  3  1  0
  3  4  1  0
  4  5  2  0
  4  8  1  0
  5  6  1  0
  6  7  1  0
  8  7  2  0
  9 10  2  0
 11 12  1  0
 11  9  1  0
 12 13  1  1
 13 14  1  0
 14 18  1  0
 14 15  2  0
 16 17  2  0
 16 12  1  0
 19 16  1  0
 20 21  1  1
 20 19  1  0
 22 27  1  0
 22 21  1  0
 23 22  2  0
 24 25  2  0
 24 23  1  0
 25 26  1  0
 26 27  2  0
 28 20  1  0
 28 30  1  0
 29 28  2  0
M  END
$$$$
