HDF.pdb
     RDKit          3D

 30 31  0  0  1  0  0  0  0  0999 V2000
   10.1184  -14.9303   20.8187 N   0  0  0  0  0  0  0  0  0  0  0  0
    8.8931  -14.8075   21.6064 C   0  0  1  0  0  0  0  0  0  0  0  0
    7.7537  -15.0620   20.6779 C   0  0  0  0  0  0  0  0  0  0  0  0
    7.7488  -14.1601   19.5096 C   0  0  0  0  0  0  0  0  0  0  0  0
    8.6763  -13.1970   19.1820 C   0  0  0  0  0  0  0  0  0  0  0  0
    8.3184  -12.5846   18.0393 N   0  0  0  0  0  0  0  0  0  0  0  0
    7.1727  -13.1564   17.6466 C   0  0  0  0  0  0  0  0  0  0  0  0
    6.8229  -14.1149   18.5378 N   0  0  0  0  0  0  0  0  0  0  0  0
    8.9759  -15.7306   22.7576 C   0  0  0  0  0  0  0  0  0  0  0  0
    7.9451  -15.8870   23.4711 O   0  0  0  0  0  0  0  0  0  0  0  0
   10.1424  -16.4531   23.1053 N   0  0  0  0  0  0  0  0  0  0  0  0
   10.1311  -17.2478   24.3492 C   0  0  1  0  0  0  0  0  0  0  0  0
   11.1830  -18.3387   24.1853 C   0  0  0  0  0  0  0  0  0  0  0  0
   11.2376  -19.2021   25.3493 C   0  0  0  0  0  0  0  0  0  0  0  0
   12.2844  -19.7291   25.7636 O   0  0  0  0  0  0  0  0  0  0  0  0
   10.3808  -16.3753   25.4975 C   0  0  0  0  0  0  0  0  0  0  0  0
   11.4086  -15.6758   25.5665 O   0  0  0  0  0  0  0  0  0  0  0  0
   10.0668  -19.4777   26.0688 O   0  0  0  0  0  0  0  0  0  0  0  0
    9.4959  -16.2375   26.6275 N   0  0  0  0  0  0  0  0  0  0  0  0
    9.8126  -15.4458   27.7685 C   0  0  1  0  0  0  0  0  0  0  0  0
    8.7453  -14.5016   28.1946 C   0  0  0  0  0  0  0  0  0  0  0  0
    8.1790  -13.6959   27.1115 C   0  0  0  0  0  0  0  0  0  0  0  0
    7.0134  -14.0609   26.4806 C   0  0  0  0  0  0  0  0  0  0  0  0
    6.4694  -13.3047   25.4511 C   0  0  0  0  0  0  0  0  0  0  0  0
    7.0904  -12.1558   25.0299 C   0  0  0  0  0  0  0  0  0  0  0  0
    8.2483  -11.7742   25.6419 C   0  0  0  0  0  0  0  0  0  0  0  0
    8.7905  -12.5405   26.6780 C   0  0  0  0  0  0  0  0  0  0  0  0
   10.2906  -16.2294   28.9458 C   0  0  0  0  0  0  0  0  0  0  0  0
   10.6697  -15.6588   29.9955 O   0  0  0  0  0  0  0  0  0  0  0  0
   10.3350  -17.6175   28.9268 O   0  0  0  0  0  0  0  0  0  0  0  0
  2  1  1  6
  2  9  1  0
  2  3  1  0
  3  4  1  0
  4  5  2  0
  4  8  1  0
  5  6  1  0
  6  7  1  0
  8  7  2  0
  9 10  2  0
 11 12  1  0
 11  9  1  0
 12 13  1  6
 13 14  1  0
 14 18  1  0
 14 15  2  0
 16 17  2  0
 16 12  1  0
 19 16  1  0
 20 21  1  1
 20 19  1  0
 22 27  1  0
 22 21  1  0
 23 22  2  0
 24 25  2  0
 24 23  1  0
 25 26  1  0
 26 27  2  0
 28 20  1  0
 28 30  1  0
 29 28  2  0
M  END
$$$$
