HDF.pdb
     RDKit          3D

 30 31  0  0  1  0  0  0  0  0999 V2000
    8.0640  -17.8477   19.2715 N   0  0  0  0  0  0  0  0  0  0  0  0
    8.8689  -16.7474   19.7991 C   0  0  1  0  0  0  0  0  0  0  0  0
    7.9497  -15.5868   19.9817 C   0  0  0  0  0  0  0  0  0  0  0  0
    7.9730  -14.6475   18.8435 C   0  0  0  0  0  0  0  0  0  0  0  0
    8.6623  -14.7730   17.6586 C   0  0  0  0  0  0  0  0  0  0  0  0
    8.4258  -13.7063   16.8744 N   0  0  0  0  0  0  0  0  0  0  0  0
    7.5925  -12.9115   17.5583 C   0  0  0  0  0  0  0  0  0  0  0  0
    7.3147  -13.4801   18.7562 N   0  0  0  0  0  0  0  0  0  0  0  0
    9.5463  -17.2044   21.0306 C   0  0  0  0  0  0  0  0  0  0  0  0
    8.8714  -17.8605   21.8732 O   0  0  0  0  0  0  0  0  0  0  0  0
   10.9091  -16.9530   21.3192 N   0  0  0  0  0  0  0  0  0  0  0  0
   11.4285  -17.3398   22.6458 C   0  0  1  0  0  0  0  0  0  0  0  0
   12.9478  -17.3797   22.5301 C   0  0  0  0  0  0  0  0  0  0  0  0
   13.5646  -17.7801   23.7802 C   0  0  0  0  0  0  0  0  0  0  0  0
   12.9911  -18.4756   24.6359 O   0  0  0  0  0  0  0  0  0  0  0  0
   10.9529  -16.3966   23.6589 C   0  0  0  0  0  0  0  0  0  0  0  0
   11.0992  -15.1681   23.5178 O   0  0  0  0  0  0  0  0  0  0  0  0
   14.8758  -17.3794   24.0706 O   0  0  0  0  0  0  0  0  0  0  0  0
   10.2886  -16.7755   24.8812 N   0  0  0  0  0  0  0  0  0  0  0  0
    9.5974  -15.8449   25.7089 C   0  0  1  0  0  0  0  0  0  0  0  0
    8.6805  -14.9220   24.9878 C   0  0  0  0  0  0  0  0  0  0  0  0
    8.0193  -13.9332   25.8410 C   0  0  0  0  0  0  0  0  0  0  0  0
    6.6602  -13.9577   26.0460 C   0  0  0  0  0  0  0  0  0  0  0  0
    6.0235  -13.0233   26.8516 C   0  0  0  0  0  0  0  0  0  0  0  0
    6.7452  -12.0358   27.4739 C   0  0  0  0  0  0  0  0  0  0  0  0
    8.0955  -11.9923   27.2848 C   0  0  0  0  0  0  0  0  0  0  0  0
    8.7301  -12.9365   26.4722 C   0  0  0  0  0  0  0  0  0  0  0  0
    8.8822  -16.4638   26.8639 C   0  0  0  0  0  0  0  0  0  0  0  0
    8.4231  -15.7620   27.7955 O   0  0  0  0  0  0  0  0  0  0  0  0
    8.6968  -17.8374   26.9537 O   0  0  0  0  0  0  0  0  0  0  0  0
  2  1  1  1
  2  9  1  0
  2  3  1  0
  3  4  1  0
  4  5  2  0
  4  8  1  0
  5  6  1  0
  6  7  1  0
  8  7  2  0
  9 10  2  0
 11 12  1  0
 11  9  1  0
 12 13  1  6
 13 14  1  0
 14 18  1  0
 14 15  2  0
 16 17  2  0
 16 12  1  0
 19 16  1  0
 20 21  1  6
 20 19  1  0
 22 27  1  0
 22 21  1  0
 23 22  2  0
 24 25  2  0
 24 23  1  0
 25 26  1  0
 26 27  2  0
 28 20  1  0
 28 30  1  0
 29 28  2  0
M  END
$$$$
