HDF.pdb
     RDKit          3D

 30 31  0  0  1  0  0  0  0  0999 V2000
    7.3517  -16.8075   20.7437 N   0  0  0  0  0  0  0  0  0  0  0  0
    8.5386  -16.0912   21.2078 C   0  0  1  0  0  0  0  0  0  0  0  0
    8.1598  -14.6528   21.3212 C   0  0  0  0  0  0  0  0  0  0  0  0
    8.2126  -13.9386   20.0307 C   0  0  0  0  0  0  0  0  0  0  0  0
    8.5681  -14.4428   18.8001 C   0  0  0  0  0  0  0  0  0  0  0  0
    8.4904  -13.4764   17.8678 N   0  0  0  0  0  0  0  0  0  0  0  0
    8.0885  -12.3686   18.5043 C   0  0  0  0  0  0  0  0  0  0  0  0
    7.9184  -12.6453   19.8195 N   0  0  0  0  0  0  0  0  0  0  0  0
    9.0053  -16.7128   22.4647 C   0  0  0  0  0  0  0  0  0  0  0  0
    8.1364  -17.1273   23.2828 O   0  0  0  0  0  0  0  0  0  0  0  0
   10.3701  -16.8742   22.8039 N   0  0  0  0  0  0  0  0  0  0  0  0
   10.7022  -17.5154   24.0914 C   0  0  1  0  0  0  0  0  0  0  0  0
   11.8678  -18.4609   23.8256 C   0  0  0  0  0  0  0  0  0  0  0  0
   11.5332  -19.4439   22.8130 C   0  0  0  0  0  0  0  0  0  0  0  0
   10.6430  -20.2995   22.9556 O   0  0  0  0  0  0  0  0  0  0  0  0
   11.0083  -16.4913   25.0912 C   0  0  0  0  0  0  0  0  0  0  0  0
   11.8845  -15.6304   24.8874 O   0  0  0  0  0  0  0  0  0  0  0  0
   12.2305  -19.4579   21.5973 O   0  0  0  0  0  0  0  0  0  0  0  0
   10.3515  -16.3742   26.3694 N   0  0  0  0  0  0  0  0  0  0  0  0
   10.8527  -15.5628   27.4274 C   0  0  1  0  0  0  0  0  0  0  0  0
   10.5518  -14.1115   27.3036 C   0  0  0  0  0  0  0  0  0  0  0  0
    9.1549  -13.8051   26.9910 C   0  0  0  0  0  0  0  0  0  0  0  0
    8.3416  -13.1652   27.8959 C   0  0  0  0  0  0  0  0  0  0  0  0
    7.0150  -12.8721   27.6097 C   0  0  0  0  0  0  0  0  0  0  0  0
    6.4728  -13.2187   26.3977 C   0  0  0  0  0  0  0  0  0  0  0  0
    7.2616  -13.8544   25.4842 C   0  0  0  0  0  0  0  0  0  0  0  0
    8.5967  -14.1465   25.7791 C   0  0  0  0  0  0  0  0  0  0  0  0
   10.4834  -16.0384   28.7934 C   0  0  0  0  0  0  0  0  0  0  0  0
    9.6939  -16.9984   28.9559 O   0  0  0  0  0  0  0  0  0  0  0  0
   10.9972  -15.4392   29.9364 O   0  0  0  0  0  0  0  0  0  0  0  0
  2  1  1  1
  2  9  1  0
  2  3  1  0
  3  4  1  0
  4  5  2  0
  4  8  1  0
  5  6  1  0
  6  7  1  0
  8  7  2  0
  9 10  2  0
 11 12  1  0
 11  9  1  0
 12 13  1  6
 13 14  1  0
 14 18  1  0
 14 15  2  0
 16 17  2  0
 16 12  1  0
 19 16  1  0
 20 21  1  6
 20 19  1  0
 22 27  1  0
 22 21  1  0
 23 22  2  0
 24 25  2  0
 24 23  1  0
 25 26  1  0
 26 27  2  0
 28 20  1  0
 28 30  1  0
 29 28  2  0
M  END
$$$$
