HDF.pdb
     RDKit          3D

 30 31  0  0  1  0  0  0  0  0999 V2000
    7.7567  -17.0536   20.4425 N   0  0  0  0  0  0  0  0  0  0  0  0
    8.6848  -16.1495   21.1194 C   0  0  1  0  0  0  0  0  0  0  0  0
    7.9285  -14.9002   21.4235 C   0  0  0  0  0  0  0  0  0  0  0  0
    7.7772  -14.0172   20.2505 C   0  0  0  0  0  0  0  0  0  0  0  0
    8.2710  -14.2085   18.9799 C   0  0  0  0  0  0  0  0  0  0  0  0
    7.9194  -13.1779   18.1904 N   0  0  0  0  0  0  0  0  0  0  0  0
    7.2079  -12.3406   18.9563 C   0  0  0  0  0  0  0  0  0  0  0  0
    7.1191  -12.8472   20.2096 N   0  0  0  0  0  0  0  0  0  0  0  0
    9.2437  -16.8414   22.2997 C   0  0  0  0  0  0  0  0  0  0  0  0
    8.5638  -17.7680   22.8244 O   0  0  0  0  0  0  0  0  0  0  0  0
   10.4989  -16.5288   22.8746 N   0  0  0  0  0  0  0  0  0  0  0  0
   10.9679  -17.3364   24.0178 C   0  0  1  0  0  0  0  0  0  0  0  0
   12.4046  -17.7426   23.7109 C   0  0  0  0  0  0  0  0  0  0  0  0
   12.9460  -18.6012   24.7469 C   0  0  0  0  0  0  0  0  0  0  0  0
   14.1127  -18.5166   25.1672 O   0  0  0  0  0  0  0  0  0  0  0  0
   10.8396  -16.5657   25.2554 C   0  0  0  0  0  0  0  0  0  0  0  0
   11.5312  -15.5505   25.4595 O   0  0  0  0  0  0  0  0  0  0  0  0
   12.1382  -19.5888   25.3268 O   0  0  0  0  0  0  0  0  0  0  0  0
    9.9320  -16.8873   26.3286 N   0  0  0  0  0  0  0  0  0  0  0  0
    9.9447  -16.2131   27.5833 C   0  0  1  0  0  0  0  0  0  0  0  0
    8.6502  -15.5965   27.9790 C   0  0  0  0  0  0  0  0  0  0  0  0
    8.2133  -14.4958   27.1185 C   0  0  0  0  0  0  0  0  0  0  0  0
    8.8925  -13.3011   27.0825 C   0  0  0  0  0  0  0  0  0  0  0  0
    8.4851  -12.2506   26.2714 C   0  0  0  0  0  0  0  0  0  0  0  0
    7.3770  -12.3792   25.4722 C   0  0  0  0  0  0  0  0  0  0  0  0
    6.6876  -13.5562   25.4917 C   0  0  0  0  0  0  0  0  0  0  0  0
    7.1035  -14.6099   26.3110 C   0  0  0  0  0  0  0  0  0  0  0  0
   10.4796  -17.0289   28.7132 C   0  0  0  0  0  0  0  0  0  0  0  0
   10.7381  -18.2471   28.5697 O   0  0  0  0  0  0  0  0  0  0  0  0
   10.7121  -16.4743   29.9653 O   0  0  0  0  0  0  0  0  0  0  0  0
  2  1  1  1
  2  9  1  0
  2  3  1  0
  3  4  1  0
  4  5  2  0
  4  8  1  0
  5  6  1  0
  6  7  1  0
  8  7  2  0
  9 10  2  0
 11 12  1  0
 11  9  1  0
 12 13  1  6
 13 14  1  0
 14 18  1  0
 14 15  2  0
 16 17  2  0
 16 12  1  0
 19 16  1  0
 20 21  1  1
 20 19  1  0
 22 27  1  0
 22 21  1  0
 23 22  2  0
 24 25  2  0
 24 23  1  0
 25 26  1  0
 26 27  2  0
 28 20  1  0
 28 30  1  0
 29 28  2  0
M  END
$$$$
