DCF.pdb
     RDKit          3D

 26 26  0  0  1  0  0  0  0  0999 V2000
    9.4147  -18.9902   19.4796 N   0  0  0  0  0  0  0  0  0  0  0  0
    9.4177  -18.9031   20.9315 C   0  0  1  0  0  0  0  0  0  0  0  0
   10.4957  -19.8309   21.4524 C   0  0  0  0  0  0  0  0  0  0  0  0
   10.1445  -21.2501   21.1087 C   0  0  0  0  0  0  0  0  0  0  0  0
    8.9587  -21.6215   20.9665 O   0  0  0  0  0  0  0  0  0  0  0  0
    9.6976  -17.5156   21.3887 C   0  0  0  0  0  0  0  0  0  0  0  0
   10.8699  -17.2096   21.6390 O   0  0  0  0  0  0  0  0  0  0  0  0
   11.1594  -22.1928   20.9400 O   0  0  0  0  0  0  0  0  0  0  0  0
    8.6940  -16.5335   21.5509 N   0  0  0  0  0  0  0  0  0  0  0  0
    8.9342  -15.1890   21.9755 C   0  0  1  0  0  0  0  0  0  0  0  0
    7.8693  -14.2184   21.5726 C   0  0  0  0  0  0  0  0  0  0  0  0
    6.2024  -14.8686   21.8341 S   0  0  0  0  0  0  0  0  0  0  0  0
    9.1209  -15.1014   23.4580 C   0  0  0  0  0  0  0  0  0  0  0  0
    9.6968  -14.1130   23.9927 O   0  0  0  0  0  0  0  0  0  0  0  0
    8.6634  -16.1179   24.3384 N   0  0  0  0  0  0  0  0  0  0  0  0
    8.8817  -16.0778   25.7842 C   0  0  1  0  0  0  0  0  0  0  0  0
    7.6144  -15.8671   26.5333 C   0  0  0  0  0  0  0  0  0  0  0  0
    7.2354  -14.4378   26.5064 C   0  0  0  0  0  0  0  0  0  0  0  0
    8.1823  -13.4876   26.9034 C   0  0  0  0  0  0  0  0  0  0  0  0
    7.9054  -12.1505   26.8866 C   0  0  0  0  0  0  0  0  0  0  0  0
    6.6508  -11.7494   26.4625 C   0  0  0  0  0  0  0  0  0  0  0  0
    5.6989  -12.6537   26.0663 C   0  0  0  0  0  0  0  0  0  0  0  0
    5.9883  -13.9970   26.0873 C   0  0  0  0  0  0  0  0  0  0  0  0
    9.7009  -17.2207   26.2278 C   0  0  0  0  0  0  0  0  0  0  0  0
   10.1800  -18.2292   25.4089 O   0  0  0  0  0  0  0  0  0  0  0  0
   10.0325  -17.3530   27.4625 O   0  0  0  0  0  0  0  0  0  0  0  0
  2  1  1  6
  3  2  1  0
  3  4  1  0
  4  8  1  0
  5  4  2  0
  6  2  1  0
  6  7  2  0
  9  6  1  0
 10 13  1  0
 10  9  1  0
 10 11  1  1
 12 11  1  0
 13 15  1  0
 14 13  2  0
 15 16  1  0
 16 24  1  0
 16 17  1  1
 18 17  1  0
 19 18  2  0
 20 19  1  0
 21 20  2  0
 21 22  1  0
 22 23  2  0
 23 18  1  0
 24 26  2  0
 24 25  1  0
M  END
$$$$
