DCF.pdb
     RDKit          3D

 26 26  0  0  1  0  0  0  0  0999 V2000
    9.0283  -18.6077   18.4873 N   0  0  0  0  0  0  0  0  0  0  0  0
    9.9801  -18.2530   19.5283 C   0  0  1  0  0  0  0  0  0  0  0  0
   11.0896  -17.4431   18.8899 C   0  0  0  0  0  0  0  0  0  0  0  0
   11.9544  -18.3461   18.0580 C   0  0  0  0  0  0  0  0  0  0  0  0
   12.4369  -17.9761   16.9650 O   0  0  0  0  0  0  0  0  0  0  0  0
    9.3342  -17.4472   20.5989 C   0  0  0  0  0  0  0  0  0  0  0  0
    8.8614  -16.3453   20.2942 O   0  0  0  0  0  0  0  0  0  0  0  0
   12.2365  -19.6379   18.5039 O   0  0  0  0  0  0  0  0  0  0  0  0
    9.2347  -17.8768   21.9418 N   0  0  0  0  0  0  0  0  0  0  0  0
    8.5344  -17.1717   22.9705 C   0  0  1  0  0  0  0  0  0  0  0  0
    7.4527  -17.9658   23.6321 C   0  0  0  0  0  0  0  0  0  0  0  0
    8.0855  -19.4390   24.4683 S   0  0  0  0  0  0  0  0  0  0  0  0
    9.4655  -16.6645   24.0269 C   0  0  0  0  0  0  0  0  0  0  0  0
   10.6572  -16.3455   23.7574 O   0  0  0  0  0  0  0  0  0  0  0  0
    9.0626  -16.5150   25.3808 N   0  0  0  0  0  0  0  0  0  0  0  0
    9.8154  -15.7240   26.3538 C   0  0  1  0  0  0  0  0  0  0  0  0
    9.9221  -14.2971   25.9487 C   0  0  0  0  0  0  0  0  0  0  0  0
    8.6088  -13.6291   26.0759 C   0  0  0  0  0  0  0  0  0  0  0  0
    8.3202  -12.9421   27.2599 C   0  0  0  0  0  0  0  0  0  0  0  0
    7.1344  -12.2886   27.4377 C   0  0  0  0  0  0  0  0  0  0  0  0
    6.2111  -12.3206   26.4076 C   0  0  0  0  0  0  0  0  0  0  0  0
    6.4611  -12.9842   25.2337 C   0  0  0  0  0  0  0  0  0  0  0  0
    7.6579  -13.6385   25.0656 C   0  0  0  0  0  0  0  0  0  0  0  0
    9.3237  -15.9618   27.7235 C   0  0  0  0  0  0  0  0  0  0  0  0
    8.1864  -16.6791   28.0534 O   0  0  0  0  0  0  0  0  0  0  0  0
    9.9542  -15.4918   28.7401 O   0  0  0  0  0  0  0  0  0  0  0  0
  2  1  1  6
  3  2  1  0
  3  4  1  0
  4  8  1  0
  5  4  2  0
  6  2  1  0
  6  7  2  0
  9  6  1  0
 10 13  1  0
 10  9  1  0
 10 11  1  1
 12 11  1  0
 13 15  1  0
 14 13  2  0
 15 16  1  0
 16 24  1  0
 16 17  1  6
 18 17  1  0
 19 18  2  0
 20 19  1  0
 21 20  2  0
 21 22  1  0
 22 23  2  0
 23 18  1  0
 24 26  2  0
 24 25  1  0
M  END
$$$$
