DCF.pdb
     RDKit          3D

 26 26  0  0  1  0  0  0  0  0999 V2000
    9.0993  -18.9533   20.7922 N   0  0  0  0  0  0  0  0  0  0  0  0
   10.2581  -18.0845   20.6594 C   0  0  1  0  0  0  0  0  0  0  0  0
   10.6979  -18.1114   19.2102 C   0  0  0  0  0  0  0  0  0  0  0  0
   10.1723  -19.3536   18.5499 C   0  0  0  0  0  0  0  0  0  0  0  0
    9.4773  -20.1881   19.1703 O   0  0  0  0  0  0  0  0  0  0  0  0
    9.9329  -16.6867   21.0506 C   0  0  0  0  0  0  0  0  0  0  0  0
   10.8231  -15.8329   20.9565 O   0  0  0  0  0  0  0  0  0  0  0  0
   10.4592  -19.5976   17.2063 O   0  0  0  0  0  0  0  0  0  0  0  0
    8.6617  -16.2877   21.5228 N   0  0  0  0  0  0  0  0  0  0  0  0
    8.3503  -14.9799   22.0109 C   0  0  1  0  0  0  0  0  0  0  0  0
    6.9824  -14.4974   21.6443 C   0  0  0  0  0  0  0  0  0  0  0  0
    5.8188  -15.8537   21.3677 S   0  0  0  0  0  0  0  0  0  0  0  0
    8.5025  -14.8927   23.4973 C   0  0  0  0  0  0  0  0  0  0  0  0
    8.1449  -13.8647   24.1375 O   0  0  0  0  0  0  0  0  0  0  0  0
    9.0531  -15.9541   24.2640 N   0  0  0  0  0  0  0  0  0  0  0  0
    9.0206  -15.9818   25.7260 C   0  0  1  0  0  0  0  0  0  0  0  0
    7.6612  -15.6985   26.2584 C   0  0  0  0  0  0  0  0  0  0  0  0
    7.4673  -14.2411   26.4180 C   0  0  0  0  0  0  0  0  0  0  0  0
    8.5274  -13.4764   26.9165 C   0  0  0  0  0  0  0  0  0  0  0  0
    8.4231  -12.1238   27.0729 C   0  0  0  0  0  0  0  0  0  0  0  0
    7.2300  -11.5168   26.7228 C   0  0  0  0  0  0  0  0  0  0  0  0
    6.1707  -12.2358   26.2310 C   0  0  0  0  0  0  0  0  0  0  0  0
    6.2867  -13.5966   26.0779 C   0  0  0  0  0  0  0  0  0  0  0  0
    9.6672  -17.2003   26.2471 C   0  0  0  0  0  0  0  0  0  0  0  0
   10.2130  -18.2110   25.4741 O   0  0  0  0  0  0  0  0  0  0  0  0
    9.7647  -17.4041   27.5123 O   0  0  0  0  0  0  0  0  0  0  0  0
  2  1  1  6
  3  2  1  0
  3  4  1  0
  4  8  1  0
  5  4  2  0
  6  2  1  0
  6  7  2  0
  9  6  1  0
 10 13  1  0
 10  9  1  0
 10 11  1  1
 12 11  1  0
 13 15  1  0
 14 13  2  0
 15 16  1  0
 16 24  1  0
 16 17  1  6
 18 17  1  0
 19 18  2  0
 20 19  1  0
 21 20  2  0
 21 22  1  0
 22 23  2  0
 23 18  1  0
 24 26  2  0
 24 25  1  0
M  END
$$$$
