DCF.pdb
     RDKit          3D

 26 26  0  0  1  0  0  0  0  0999 V2000
    9.5676  -19.1900   19.8122 N   0  0  0  0  0  0  0  0  0  0  0  0
    9.0523  -18.7380   21.0950 C   0  0  1  0  0  0  0  0  0  0  0  0
    9.6992  -19.5752   22.1790 C   0  0  0  0  0  0  0  0  0  0  0  0
    9.1976  -20.9878   22.0877 C   0  0  0  0  0  0  0  0  0  0  0  0
    8.4232  -21.3565   21.1773 O   0  0  0  0  0  0  0  0  0  0  0  0
    9.3653  -17.3025   21.3273 C   0  0  0  0  0  0  0  0  0  0  0  0
   10.5088  -16.9063   21.0707 O   0  0  0  0  0  0  0  0  0  0  0  0
    9.5982  -21.9273   23.0384 O   0  0  0  0  0  0  0  0  0  0  0  0
    8.4242  -16.3727   21.8251 N   0  0  0  0  0  0  0  0  0  0  0  0
    8.6781  -14.9764   22.0034 C   0  0  1  0  0  0  0  0  0  0  0  0
    7.5763  -14.0858   21.5225 C   0  0  0  0  0  0  0  0  0  0  0  0
    6.2278  -15.0070   20.7460 S   0  0  0  0  0  0  0  0  0  0  0  0
    8.9674  -14.6444   23.4339 C   0  0  0  0  0  0  0  0  0  0  0  0
    8.7304  -13.4972   23.9054 O   0  0  0  0  0  0  0  0  0  0  0  0
    9.5201  -15.5948   24.3332 N   0  0  0  0  0  0  0  0  0  0  0  0
    9.1596  -15.6558   25.7494 C   0  0  1  0  0  0  0  0  0  0  0  0
    7.6863  -15.6967   25.9479 C   0  0  0  0  0  0  0  0  0  0  0  0
    7.1741  -14.3451   26.2607 C   0  0  0  0  0  0  0  0  0  0  0  0
    8.0814  -13.3677   26.6833 C   0  0  0  0  0  0  0  0  0  0  0  0
    7.6798  -12.0948   26.9719 C   0  0  0  0  0  0  0  0  0  0  0  0
    6.3375  -11.7876   26.8354 C   0  0  0  0  0  0  0  0  0  0  0  0
    5.4210  -12.7209   26.4233 C   0  0  0  0  0  0  0  0  0  0  0  0
    5.8363  -13.9990   26.1357 C   0  0  0  0  0  0  0  0  0  0  0  0
    9.9252  -16.7060   26.4460 C   0  0  0  0  0  0  0  0  0  0  0  0
   10.4253  -17.8560   25.8590 O   0  0  0  0  0  0  0  0  0  0  0  0
   10.1837  -16.6092   27.7012 O   0  0  0  0  0  0  0  0  0  0  0  0
  2  1  1  6
  3  2  1  0
  3  4  1  0
  4  8  1  0
  5  4  2  0
  6  2  1  0
  6  7  2  0
  9  6  1  0
 10 13  1  0
 10  9  1  0
 10 11  1  1
 12 11  1  0
 13 15  1  0
 14 13  2  0
 15 16  1  0
 16 24  1  0
 16 17  1  6
 18 17  1  0
 19 18  2  0
 20 19  1  0
 21 20  2  0
 21 22  1  0
 22 23  2  0
 23 18  1  0
 24 26  2  0
 24 25  1  0
M  END
$$$$
