DCF.pdb
     RDKit          3D

 26 26  0  0  1  0  0  0  0  0999 V2000
   10.2848  -18.5632   19.6902 N   0  0  0  0  0  0  0  0  0  0  0  0
   10.9029  -17.2526   19.5654 C   0  0  1  0  0  0  0  0  0  0  0  0
   10.7919  -16.8202   18.1179 C   0  0  0  0  0  0  0  0  0  0  0  0
   11.5294  -17.7953   17.2456 C   0  0  0  0  0  0  0  0  0  0  0  0
   12.5619  -18.3826   17.6374 O   0  0  0  0  0  0  0  0  0  0  0  0
   10.2261  -16.2515   20.4327 C   0  0  0  0  0  0  0  0  0  0  0  0
   10.6357  -15.0845   20.4051 O   0  0  0  0  0  0  0  0  0  0  0  0
   11.0617  -18.0640   15.9588 O   0  0  0  0  0  0  0  0  0  0  0  0
    9.1424  -16.5668   21.2837 N   0  0  0  0  0  0  0  0  0  0  0  0
    8.5875  -15.6767   22.2561 C   0  0  1  0  0  0  0  0  0  0  0  0
    7.1194  -15.4348   22.0999 C   0  0  0  0  0  0  0  0  0  0  0  0
    6.1251  -16.4559   23.2129 S   0  0  0  0  0  0  0  0  0  0  0  0
    8.8450  -16.1514   23.6521 C   0  0  0  0  0  0  0  0  0  0  0  0
    8.5020  -17.3065   24.0294 O   0  0  0  0  0  0  0  0  0  0  0  0
    9.4852  -15.3345   24.6218 N   0  0  0  0  0  0  0  0  0  0  0  0
    9.3962  -15.5858   26.0600 C   0  0  1  0  0  0  0  0  0  0  0  0
    7.9948  -15.5136   26.5524 C   0  0  0  0  0  0  0  0  0  0  0  0
    7.5465  -14.1058   26.6166 C   0  0  0  0  0  0  0  0  0  0  0  0
    8.5120  -13.1024   26.7516 C   0  0  0  0  0  0  0  0  0  0  0  0
    8.1697  -11.7812   26.7997 C   0  0  0  0  0  0  0  0  0  0  0  0
    6.8289  -11.4511   26.7109 C   0  0  0  0  0  0  0  0  0  0  0  0
    5.8564  -12.4089   26.5778 C   0  0  0  0  0  0  0  0  0  0  0  0
    6.2122  -13.7354   26.5305 C   0  0  0  0  0  0  0  0  0  0  0  0
   10.1397  -16.8037   26.4317 C   0  0  0  0  0  0  0  0  0  0  0  0
    9.8235  -18.0900   26.0286 O   0  0  0  0  0  0  0  0  0  0  0  0
   11.1750  -16.7371   27.1904 O   0  0  0  0  0  0  0  0  0  0  0  0
  2  1  1  6
  3  2  1  0
  3  4  1  0
  4  8  1  0
  5  4  2  0
  6  2  1  0
  6  7  2  0
  9  6  1  0
 10 13  1  0
 10  9  1  0
 10 11  1  6
 12 11  1  0
 13 15  1  0
 14 13  2  0
 15 16  1  0
 16 24  1  0
 16 17  1  6
 18 17  1  0
 19 18  2  0
 20 19  1  0
 21 20  2  0
 21 22  1  0
 22 23  2  0
 23 18  1  0
 24 26  2  0
 24 25  1  0
M  END
$$$$
