DCF.pdb
     RDKit          3D

 26 26  0  0  1  0  0  0  0  0999 V2000
    9.3918  -16.9615   17.3869 N   0  0  0  0  0  0  0  0  0  0  0  0
    9.7495  -17.5119   18.6848 C   0  0  1  0  0  0  0  0  0  0  0  0
   11.2608  -17.5724   18.7656 C   0  0  0  0  0  0  0  0  0  0  0  0
   11.7677  -18.6613   17.8641 C   0  0  0  0  0  0  0  0  0  0  0  0
   11.1730  -19.7558   17.7509 O   0  0  0  0  0  0  0  0  0  0  0  0
    9.2295  -16.6656   19.7921 C   0  0  0  0  0  0  0  0  0  0  0  0
    9.5910  -15.4835   19.8414 O   0  0  0  0  0  0  0  0  0  0  0  0
   12.9343  -18.4611   17.1252 O   0  0  0  0  0  0  0  0  0  0  0  0
    8.3466  -17.1438   20.7868 N   0  0  0  0  0  0  0  0  0  0  0  0
    7.7237  -16.3261   21.7813 C   0  0  1  0  0  0  0  0  0  0  0  0
    6.2313  -16.4272   21.8128 C   0  0  0  0  0  0  0  0  0  0  0  0
    5.6570  -18.0619   22.3304 S   0  0  0  0  0  0  0  0  0  0  0  0
    8.2491  -16.6229   23.1510 C   0  0  0  0  0  0  0  0  0  0  0  0
    8.7228  -17.7562   23.4441 O   0  0  0  0  0  0  0  0  0  0  0  0
    8.2441  -15.6531   24.1888 N   0  0  0  0  0  0  0  0  0  0  0  0
    8.7000  -15.9386   25.5490 C   0  0  1  0  0  0  0  0  0  0  0  0
    9.1718  -14.7131   26.2470 C   0  0  0  0  0  0  0  0  0  0  0  0
    8.1302  -13.6643   26.2007 C   0  0  0  0  0  0  0  0  0  0  0  0
    8.1247  -12.7750   25.1208 C   0  0  0  0  0  0  0  0  0  0  0  0
    7.1817  -11.7940   25.0058 C   0  0  0  0  0  0  0  0  0  0  0  0
    6.2179  -11.6967   25.9939 C   0  0  0  0  0  0  0  0  0  0  0  0
    6.1935  -12.5517   27.0660 C   0  0  0  0  0  0  0  0  0  0  0  0
    7.1475  -13.5352   27.1715 C   0  0  0  0  0  0  0  0  0  0  0  0
    7.7075  -16.7463   26.2815 C   0  0  0  0  0  0  0  0  0  0  0  0
    7.9577  -17.4712   27.4343 O   0  0  0  0  0  0  0  0  0  0  0  0
    6.4926  -16.8284   25.8701 O   0  0  0  0  0  0  0  0  0  0  0  0
  2  1  1  6
  3  2  1  0
  3  4  1  0
  4  8  1  0
  5  4  2  0
  6  2  1  0
  6  7  2  0
  9  6  1  0
 10 13  1  0
 10  9  1  0
 10 11  1  1
 12 11  1  0
 13 15  1  0
 14 13  2  0
 15 16  1  0
 16 24  1  0
 16 17  1  1
 18 17  1  0
 19 18  2  0
 20 19  1  0
 21 20  2  0
 21 22  1  0
 22 23  2  0
 23 18  1  0
 24 26  2  0
 24 25  1  0
M  END
$$$$
