DCF.pdb
     RDKit          3D

 26 26  0  0  1  0  0  0  0  0999 V2000
    9.8008  -19.0075   20.6988 N   0  0  0  0  0  0  0  0  0  0  0  0
   10.8854  -18.0491   20.8425 C   0  0  1  0  0  0  0  0  0  0  0  0
   11.6638  -18.0272   19.5433 C   0  0  0  0  0  0  0  0  0  0  0  0
   11.1692  -19.1237   18.6441 C   0  0  0  0  0  0  0  0  0  0  0  0
   11.7036  -19.3635   17.5390 O   0  0  0  0  0  0  0  0  0  0  0  0
   10.3662  -16.6850   21.1297 C   0  0  0  0  0  0  0  0  0  0  0  0
   11.1786  -15.7545   21.1976 O   0  0  0  0  0  0  0  0  0  0  0  0
   10.0834  -19.9060   19.0392 O   0  0  0  0  0  0  0  0  0  0  0  0
    8.9959  -16.4010   21.3284 N   0  0  0  0  0  0  0  0  0  0  0  0
    8.4818  -15.1355   21.7525 C   0  0  1  0  0  0  0  0  0  0  0  0
    7.0718  -14.8719   21.3274 C   0  0  0  0  0  0  0  0  0  0  0  0
    5.9295  -16.1637   21.8720 S   0  0  0  0  0  0  0  0  0  0  0  0
    8.5689  -14.9720   23.2377 C   0  0  0  0  0  0  0  0  0  0  0  0
    8.2663  -13.8826   23.7999 O   0  0  0  0  0  0  0  0  0  0  0  0
    8.9932  -16.0259   24.0903 N   0  0  0  0  0  0  0  0  0  0  0  0
    8.8368  -15.9873   25.5440 C   0  0  1  0  0  0  0  0  0  0  0  0
    7.4387  -15.6784   25.9459 C   0  0  0  0  0  0  0  0  0  0  0  0
    7.2896  -14.2307   26.2090 C   0  0  0  0  0  0  0  0  0  0  0  0
    6.0263  -13.6500   26.0551 C   0  0  0  0  0  0  0  0  0  0  0  0
    5.8137  -12.3231   26.2981 C   0  0  0  0  0  0  0  0  0  0  0  0
    6.8894  -11.5541   26.7057 C   0  0  0  0  0  0  0  0  0  0  0  0
    8.1412  -12.0907   26.8668 C   0  0  0  0  0  0  0  0  0  0  0  0
    8.3437  -13.4272   26.6194 C   0  0  0  0  0  0  0  0  0  0  0  0
    9.4305  -17.1818   26.1724 C   0  0  0  0  0  0  0  0  0  0  0  0
    9.9645  -17.2342   27.4488 O   0  0  0  0  0  0  0  0  0  0  0  0
    9.4903  -18.2982   25.5384 O   0  0  0  0  0  0  0  0  0  0  0  0
  2  1  1  6
  3  2  1  0
  3  4  1  0
  4  8  1  0
  5  4  2  0
  6  2  1  0
  6  7  2  0
  9  6  1  0
 10 13  1  0
 10  9  1  0
 10 11  1  1
 12 11  1  0
 13 15  1  0
 14 13  2  0
 15 16  1  0
 16 24  1  0
 16 17  1  6
 18 17  1  0
 19 18  2  0
 20 19  1  0
 21 20  2  0
 21 22  1  0
 22 23  2  0
 23 18  1  0
 24 26  2  0
 24 25  1  0
M  END
$$$$
