DCF.pdb
     RDKit          3D

 26 26  0  0  1  0  0  0  0  0999 V2000
    8.3737  -12.4954   19.7665 N   0  0  0  0  0  0  0  0  0  0  0  0
    7.8341  -13.6299   19.0337 C   0  0  1  0  0  0  0  0  0  0  0  0
    8.5181  -13.6811   17.6832 C   0  0  0  0  0  0  0  0  0  0  0  0
    7.9043  -14.7707   16.8515 C   0  0  0  0  0  0  0  0  0  0  0  0
    6.8510  -15.3507   17.1955 O   0  0  0  0  0  0  0  0  0  0  0  0
    8.0771  -14.9060   19.7586 C   0  0  0  0  0  0  0  0  0  0  0  0
    7.5603  -15.9375   19.3121 O   0  0  0  0  0  0  0  0  0  0  0  0
    8.5152  -15.1580   15.6582 O   0  0  0  0  0  0  0  0  0  0  0  0
    8.8660  -14.9973   20.9278 N   0  0  0  0  0  0  0  0  0  0  0  0
    8.9310  -16.1471   21.7761 C   0  0  1  0  0  0  0  0  0  0  0  0
    9.9260  -17.1760   21.3405 C   0  0  0  0  0  0  0  0  0  0  0  0
   11.3850  -17.2264   22.4077 S   0  0  0  0  0  0  0  0  0  0  0  0
    9.2248  -15.7725   23.1951 C   0  0  0  0  0  0  0  0  0  0  0  0
   10.1089  -14.9177   23.4817 O   0  0  0  0  0  0  0  0  0  0  0  0
    8.5301  -16.3536   24.2893 N   0  0  0  0  0  0  0  0  0  0  0  0
    8.7647  -15.9647   25.6797 C   0  0  1  0  0  0  0  0  0  0  0  0
    7.5172  -15.5092   26.3488 C   0  0  0  0  0  0  0  0  0  0  0  0
    7.3626  -14.0457   26.2024 C   0  0  0  0  0  0  0  0  0  0  0  0
    6.1668  -13.5496   25.6723 C   0  0  0  0  0  0  0  0  0  0  0  0
    5.9502  -12.2092   25.5256 C   0  0  0  0  0  0  0  0  0  0  0  0
    6.9525  -11.3398   25.9180 C   0  0  0  0  0  0  0  0  0  0  0  0
    8.1369  -11.7916   26.4415 C   0  0  0  0  0  0  0  0  0  0  0  0
    8.3442  -13.1426   26.5845 C   0  0  0  0  0  0  0  0  0  0  0  0
    9.5302  -17.0006   26.3973 C   0  0  0  0  0  0  0  0  0  0  0  0
   10.1699  -16.8265   27.6128 O   0  0  0  0  0  0  0  0  0  0  0  0
    9.6545  -18.1834   25.9099 O   0  0  0  0  0  0  0  0  0  0  0  0
  2  1  1  1
  3  2  1  0
  3  4  1  0
  4  8  1  0
  5  4  2  0
  6  2  1  0
  6  7  2  0
  9  6  1  0
 10 13  1  0
 10  9  1  0
 10 11  1  6
 12 11  1  0
 13 15  1  0
 14 13  2  0
 15 16  1  0
 16 24  1  0
 16 17  1  1
 18 17  1  0
 19 18  2  0
 20 19  1  0
 21 20  2  0
 21 22  1  0
 22 23  2  0
 23 18  1  0
 24 26  2  0
 24 25  1  0
M  END
$$$$
