DCF.pdb
     RDKit          3D

 26 26  0  0  1  0  0  0  0  0999 V2000
    8.5992  -14.8607   20.4058 N   0  0  0  0  0  0  0  0  0  0  0  0
    8.0233  -15.4302   21.6138 C   0  0  1  0  0  0  0  0  0  0  0  0
    8.6716  -16.7788   21.8489 C   0  0  0  0  0  0  0  0  0  0  0  0
    8.0837  -17.7888   20.9057 C   0  0  0  0  0  0  0  0  0  0  0  0
    7.3098  -17.4572   19.9809 O   0  0  0  0  0  0  0  0  0  0  0  0
    8.2645  -14.5546   22.7919 C   0  0  0  0  0  0  0  0  0  0  0  0
    9.3728  -14.0158   22.9005 O   0  0  0  0  0  0  0  0  0  0  0  0
    8.4007  -19.1398   21.0526 O   0  0  0  0  0  0  0  0  0  0  0  0
    7.2936  -14.3092   23.7893 N   0  0  0  0  0  0  0  0  0  0  0  0
    7.5472  -13.6230   25.0184 C   0  0  1  0  0  0  0  0  0  0  0  0
    6.3290  -13.0303   25.6533 C   0  0  0  0  0  0  0  0  0  0  0  0
    6.6728  -12.3089   27.2755 S   0  0  0  0  0  0  0  0  0  0  0  0
    8.2209  -14.5094   26.0187 C   0  0  0  0  0  0  0  0  0  0  0  0
    7.7328  -15.6281   26.3426 O   0  0  0  0  0  0  0  0  0  0  0  0
    9.4378  -14.1438   26.6537 N   0  0  0  0  0  0  0  0  0  0  0  0
   10.0485  -14.9344   27.7220 C   0  0  1  0  0  0  0  0  0  0  0  0
   11.4096  -15.4085   27.3557 C   0  0  0  0  0  0  0  0  0  0  0  0
   11.3260  -16.4340   26.2934 C   0  0  0  0  0  0  0  0  0  0  0  0
   11.3254  -16.0153   24.9586 C   0  0  0  0  0  0  0  0  0  0  0  0
   11.2680  -16.9091   23.9278 C   0  0  0  0  0  0  0  0  0  0  0  0
   11.2097  -18.2569   24.2356 C   0  0  0  0  0  0  0  0  0  0  0  0
   11.2087  -18.7023   25.5327 C   0  0  0  0  0  0  0  0  0  0  0  0
   11.2667  -17.7939   26.5622 C   0  0  0  0  0  0  0  0  0  0  0  0
    9.9433  -14.2421   29.0196 C   0  0  0  0  0  0  0  0  0  0  0  0
    9.3839  -12.9910   29.2173 O   0  0  0  0  0  0  0  0  0  0  0  0
   10.3883  -14.7876   30.0948 O   0  0  0  0  0  0  0  0  0  0  0  0
  2  1  1  6
  3  2  1  0
  3  4  1  0
  4  8  1  0
  5  4  2  0
  6  2  1  0
  6  7  2  0
  9  6  1  0
 10 13  1  0
 10  9  1  0
 10 11  1  1
 12 11  1  0
 13 15  1  0
 14 13  2  0
 15 16  1  0
 16 24  1  0
 16 17  1  6
 18 17  1  0
 19 18  2  0
 20 19  1  0
 21 20  2  0
 21 22  1  0
 22 23  2  0
 23 18  1  0
 24 26  2  0
 24 25  1  0
M  END
$$$$
