DCF.pdb
     RDKit          3D

 26 26  0  0  1  0  0  0  0  0999 V2000
    9.5196  -19.6733   20.3664 N   0  0  0  0  0  0  0  0  0  0  0  0
    8.7045  -19.0428   21.3928 C   0  0  1  0  0  0  0  0  0  0  0  0
    8.9621  -19.7622   22.7006 C   0  0  0  0  0  0  0  0  0  0  0  0
    8.7213  -21.2334   22.5192 C   0  0  0  0  0  0  0  0  0  0  0  0
    8.4418  -21.7246   21.4034 O   0  0  0  0  0  0  0  0  0  0  0  0
    9.0469  -17.6033   21.5456 C   0  0  0  0  0  0  0  0  0  0  0  0
   10.2429  -17.2902   21.5907 O   0  0  0  0  0  0  0  0  0  0  0  0
    8.8084  -22.0897   23.6175 O   0  0  0  0  0  0  0  0  0  0  0  0
    8.0767  -16.5798   21.6418 N   0  0  0  0  0  0  0  0  0  0  0  0
    8.3708  -15.2030   21.8941 C   0  0  1  0  0  0  0  0  0  0  0  0
    7.2367  -14.2703   21.6067 C   0  0  0  0  0  0  0  0  0  0  0  0
    7.7612  -12.5413   21.5341 S   0  0  0  0  0  0  0  0  0  0  0  0
    8.8219  -14.9824   23.3041 C   0  0  0  0  0  0  0  0  0  0  0  0
    9.3973  -13.9138   23.6526 O   0  0  0  0  0  0  0  0  0  0  0  0
    8.6285  -15.9559   24.3203 N   0  0  0  0  0  0  0  0  0  0  0  0
    9.1507  -15.8053   25.6782 C   0  0  1  0  0  0  0  0  0  0  0  0
    8.0736  -15.5068   26.6593 C   0  0  0  0  0  0  0  0  0  0  0  0
    7.6720  -14.0868   26.5625 C   0  0  0  0  0  0  0  0  0  0  0  0
    6.3367  -13.7881   26.2717 C   0  0  0  0  0  0  0  0  0  0  0  0
    5.8937  -12.4993   26.1848 C   0  0  0  0  0  0  0  0  0  0  0  0
    6.8063  -11.4804   26.3936 C   0  0  0  0  0  0  0  0  0  0  0  0
    8.1226  -11.7372   26.6807 C   0  0  0  0  0  0  0  0  0  0  0  0
    8.5574  -13.0380   26.7656 C   0  0  0  0  0  0  0  0  0  0  0  0
   10.0401  -16.9272   26.0310 C   0  0  0  0  0  0  0  0  0  0  0  0
   10.7366  -17.0541   27.2208 O   0  0  0  0  0  0  0  0  0  0  0  0
   10.2299  -17.8994   25.2120 O   0  0  0  0  0  0  0  0  0  0  0  0
  2  1  1  6
  3  2  1  0
  3  4  1  0
  4  8  1  0
  5  4  2  0
  6  2  1  0
  6  7  2  0
  9  6  1  0
 10 13  1  0
 10  9  1  0
 10 11  1  1
 12 11  1  0
 13 15  1  0
 14 13  2  0
 15 16  1  0
 16 24  1  0
 16 17  1  1
 18 17  1  0
 19 18  2  0
 20 19  1  0
 21 20  2  0
 21 22  1  0
 22 23  2  0
 23 18  1  0
 24 26  2  0
 24 25  1  0
M  END
$$$$
