RQI.pdb
     RDKit          3D

 29 28  0  0  1  0  0  0  0  0999 V2000
   28.2845  -20.5732  -20.1499 N   0  0  0  0  0  0  0  0  0  0  0  0
   28.8652  -21.6927  -19.5173 C   0  0  0  0  0  0  0  0  0  0  0  0
   29.8497  -22.3003  -20.0557 N   0  0  0  0  0  0  0  0  0  0  0  0
   28.3724  -22.1906  -18.2479 N   0  0  0  0  0  0  0  0  0  0  0  0
   27.3841  -21.4589  -17.5392 C   0  0  0  0  0  0  0  0  0  0  0  0
   27.7717  -20.0858  -17.1643 C   0  0  0  0  0  0  0  0  0  0  0  0
   27.3591  -19.5292  -15.8532 C   0  0  0  0  0  0  0  0  0  0  0  0
   27.7744  -20.2509  -14.6530 C   0  0  2  0  0  0  0  0  0  0  0  0
   27.3500  -21.6410  -14.6360 N   0  0  0  0  0  0  0  0  0  0  0  0
   27.2857  -19.6428  -13.3789 C   0  0  0  0  0  0  0  0  0  0  0  0
   27.0848  -18.4107  -13.3933 O   0  0  0  0  0  0  0  0  0  0  0  0
   30.3055  -23.0915  -19.5756 N   0  0  0  0  0  0  0  0  0  0  0  0
   22.4006  -21.5150  -13.4689 C   0  0  0  0  0  0  0  0  0  0  0  0
   22.2158  -21.0663  -12.1297 O   0  0  0  0  0  0  0  0  0  0  0  0
   21.0526  -21.1187  -11.6589 C   0  0  0  0  0  0  0  0  0  0  0  0
   23.3675  -20.5557  -11.3269 C   0  0  0  0  0  0  0  0  0  0  0  0
   24.6074  -20.6189  -12.1556 C   0  0  1  0  0  0  0  0  0  0  0  0
   25.8438  -20.1597  -11.4148 N   0  0  0  0  0  0  0  0  0  0  0  0
   27.0432  -20.3447  -12.1970 C   0  0  0  0  0  0  0  0  0  0  0  0
   25.8518  -20.8775  -10.1191 O   0  0  0  0  0  0  0  0  0  0  0  0
   25.8612  -22.1216  -10.0874 C   0  0  0  0  0  0  0  0  0  0  0  0
   29.0301  -19.9389   -5.1613 C   0  0  0  0  0  0  0  0  0  0  0  0
   27.8659  -20.6975   -5.7913 C   0  0  2  0  0  0  0  0  0  0  0  0
   27.3942  -20.0353   -7.0424 C   0  0  0  0  0  0  0  0  0  0  0  0
   26.9389  -18.6368   -6.7015 C   0  0  2  0  0  0  0  0  0  0  0  0
   26.2681  -20.8345   -7.6837 N   0  0  0  0  0  0  0  0  0  0  0  0
   25.8494  -20.1398   -8.9185 C   0  0  0  0  0  0  0  0  0  0  0  0
   25.0867  -20.9926   -6.8007 O   0  0  0  0  0  0  0  0  0  0  0  0
   24.0282  -20.3323   -6.8873 O   0  0  0  0  0  0  0  0  0  0  0  0
  2  3  2  0
  2  1  1  0
  4  2  1  0
  5  4  1  0
  6  5  1  0
  7  6  1  0
  8  7  1  0
  8  9  1  6
 10  8  1  0
 10 11  2  0
 13 12  1  0
 13 14  2  0
 15 16  1  0
 15 13  1  0
 17 16  1  6
 17 18  1  0
 17 19  1  0
 18 10  1  0
 19 20  2  0
 19 26  1  0
 22 21  1  0
 23 22  1  0
 23 25  1  0
 23 24  1  6
 25 27  1  0
 25 26  1  1
 27 28  2  0
 27 29  1  0
M  END
$$$$
