RQI.pdb
     RDKit          3D

 29 28  0  0  1  0  0  0  0  0999 V2000
   21.9097  -21.8321   -7.0839 N   0  0  0  0  0  0  0  0  0  0  0  0
   21.0243  -21.3329   -8.0624 C   0  0  0  0  0  0  0  0  0  0  0  0
   19.8970  -20.8408   -7.7227 N   0  0  0  0  0  0  0  0  0  0  0  0
   21.3557  -21.3595   -9.4737 N   0  0  0  0  0  0  0  0  0  0  0  0
   22.7150  -21.4159   -9.8779 C   0  0  0  0  0  0  0  0  0  0  0  0
   23.5410  -20.2689   -9.4554 C   0  0  0  0  0  0  0  0  0  0  0  0
   24.9126  -20.1028   -9.9939 C   0  0  0  0  0  0  0  0  0  0  0  0
   25.2663  -20.8682  -11.1868 C   0  0  2  0  0  0  0  0  0  0  0  0
   26.0202  -22.0770  -10.8981 N   0  0  0  0  0  0  0  0  0  0  0  0
   26.0657  -20.0988  -12.1873 C   0  0  0  0  0  0  0  0  0  0  0  0
   27.3054  -20.1189  -12.0409 O   0  0  0  0  0  0  0  0  0  0  0  0
   19.2464  -20.4758   -8.4352 N   0  0  0  0  0  0  0  0  0  0  0  0
   28.5934  -21.3046  -16.6375 C   0  0  0  0  0  0  0  0  0  0  0  0
   27.8656  -21.8859  -15.5598 O   0  0  0  0  0  0  0  0  0  0  0  0
   27.9627  -23.1280  -15.4015 C   0  0  0  0  0  0  0  0  0  0  0  0
   27.0235  -21.0413  -14.6603 C   0  0  0  0  0  0  0  0  0  0  0  0
   27.2456  -19.6027  -14.9910 C   0  0  1  0  0  0  0  0  0  0  0  0
   26.3565  -18.6657  -14.2037 N   0  0  0  0  0  0  0  0  0  0  0  0
   25.5314  -19.3735  -13.2536 C   0  0  0  0  0  0  0  0  0  0  0  0
   25.5916  -17.8749  -15.1956 O   0  0  0  0  0  0  0  0  0  0  0  0
   24.4711  -18.2579  -15.5786 C   0  0  0  0  0  0  0  0  0  0  0  0
   26.7610  -12.5189  -15.3418 C   0  0  0  0  0  0  0  0  0  0  0  0
   26.0800  -13.8832  -15.2910 C   0  0  2  0  0  0  0  0  0  0  0  0
   25.9011  -14.4569  -16.6568 C   0  0  0  0  0  0  0  0  0  0  0  0
   25.0216  -13.5255  -17.4558 C   0  0  2  0  0  0  0  0  0  0  0  0
   25.2926  -15.8505  -16.5806 N   0  0  0  0  0  0  0  0  0  0  0  0
   26.1428  -16.6818  -15.7039 C   0  0  0  0  0  0  0  0  0  0  0  0
   25.1795  -16.5123  -17.9032 O   0  0  0  0  0  0  0  0  0  0  0  0
   26.1295  -17.0185  -18.5399 O   0  0  0  0  0  0  0  0  0  0  0  0
  2  3  2  0
  2  1  1  0
  4  2  1  0
  5  4  1  0
  6  5  1  0
  7  6  1  0
  8  7  1  0
  8  9  1  1
 10  8  1  0
 10 11  2  0
 13 12  1  0
 13 14  2  0
 15 16  1  0
 15 13  1  0
 17 16  1  1
 17 18  1  0
 17 19  1  0
 18 10  1  0
 19 20  2  0
 19 26  1  0
 22 21  1  0
 23 22  1  0
 23 25  1  0
 23 24  1  6
 25 27  1  0
 25 26  1  1
 27 28  2  0
 27 29  1  0
M  END
$$$$
