RQI.pdb
     RDKit          3D

 29 28  0  0  1  0  0  0  0  0999 V2000
   19.9656  -21.2879  -16.0788 N   0  0  0  0  0  0  0  0  0  0  0  0
   20.9998  -20.3461  -16.2640 C   0  0  0  0  0  0  0  0  0  0  0  0
   20.8718  -19.4054  -17.1165 N   0  0  0  0  0  0  0  0  0  0  0  0
   22.2327  -20.4098  -15.5034 N   0  0  0  0  0  0  0  0  0  0  0  0
   22.3880  -21.3946  -14.4933 C   0  0  0  0  0  0  0  0  0  0  0  0
   21.5029  -21.2358  -13.3238 C   0  0  0  0  0  0  0  0  0  0  0  0
   22.0570  -21.3439  -11.9527 C   0  0  0  0  0  0  0  0  0  0  0  0
   23.0570  -20.3584  -11.5494 C   0  0  2  0  0  0  0  0  0  0  0  0
   23.7934  -19.7889  -12.6658 N   0  0  0  0  0  0  0  0  0  0  0  0
   24.0770  -20.8843  -10.5929 C   0  0  0  0  0  0  0  0  0  0  0  0
   23.6446  -21.3296   -9.5098 O   0  0  0  0  0  0  0  0  0  0  0  0
   21.6481  -18.7506  -17.2977 N   0  0  0  0  0  0  0  0  0  0  0  0
   30.1806  -22.1346  -11.5709 C   0  0  0  0  0  0  0  0  0  0  0  0
   29.4954  -20.9658  -12.0106 O   0  0  0  0  0  0  0  0  0  0  0  0
   30.0455  -20.2763  -12.9045 C   0  0  0  0  0  0  0  0  0  0  0  0
   28.1751  -20.5856  -11.4240 C   0  0  0  0  0  0  0  0  0  0  0  0
   27.7668  -21.6191  -10.4274 C   0  0  1  0  0  0  0  0  0  0  0  0
   26.3993  -21.3663   -9.8322 N   0  0  0  0  0  0  0  0  0  0  0  0
   25.4535  -20.9112  -10.8236 C   0  0  0  0  0  0  0  0  0  0  0  0
   26.5953  -20.4226   -8.7073 O   0  0  0  0  0  0  0  0  0  0  0  0
   26.1270  -19.2708   -8.7616 C   0  0  0  0  0  0  0  0  0  0  0  0
   28.4315  -20.4977   -2.7840 C   0  0  0  0  0  0  0  0  0  0  0  0
   27.8856  -19.7737   -4.0110 C   0  0  2  0  0  0  0  0  0  0  0  0
   27.8826  -20.6585   -5.2124 C   0  0  0  0  0  0  0  0  0  0  0  0
   29.2701  -21.2255   -5.3928 C   0  0  2  0  0  0  0  0  0  0  0  0
   27.4436  -19.8867   -6.4492 N   0  0  0  0  0  0  0  0  0  0  0  0
   27.3175  -20.8393   -7.5714 C   0  0  0  0  0  0  0  0  0  0  0  0
   28.3927  -18.8148   -6.8371 O   0  0  0  0  0  0  0  0  0  0  0  0
   29.3188  -18.9378   -7.6685 O   0  0  0  0  0  0  0  0  0  0  0  0
  2  3  2  0
  2  1  1  0
  4  2  1  0
  5  4  1  0
  6  5  1  0
  7  6  1  0
  8  7  1  0
  8  9  1  6
 10  8  1  0
 10 11  2  0
 13 12  1  0
 13 14  2  0
 15 16  1  0
 15 13  1  0
 17 16  1  6
 17 18  1  0
 17 19  1  0
 18 10  1  0
 19 20  2  0
 19 26  1  0
 22 21  1  0
 23 22  1  0
 23 25  1  0
 23 24  1  6
 25 27  1  0
 25 26  1  6
 27 28  2  0
 27 29  1  0
M  END
$$$$
