RQI.pdb
     RDKit          3D

 29 28  0  0  1  0  0  0  0  0999 V2000
   31.9472  -24.9480  -17.5125 N   0  0  0  0  0  0  0  0  0  0  0  0
   30.7268  -25.6356  -17.3437 C   0  0  0  0  0  0  0  0  0  0  0  0
   30.7135  -26.8229  -16.8763 N   0  0  0  0  0  0  0  0  0  0  0  0
   29.4566  -25.0285  -17.6906 N   0  0  0  0  0  0  0  0  0  0  0  0
   29.4131  -23.6711  -18.1030 C   0  0  0  0  0  0  0  0  0  0  0  0
   29.9620  -22.7050  -17.1327 C   0  0  0  0  0  0  0  0  0  0  0  0
   29.0473  -21.8650  -16.3223 C   0  0  0  0  0  0  0  0  0  0  0  0
   27.8288  -22.4906  -15.8147 C   0  0  2  0  0  0  0  0  0  0  0  0
   27.0792  -23.2100  -16.8312 N   0  0  0  0  0  0  0  0  0  0  0  0
   26.8728  -21.5330  -15.1812 C   0  0  0  0  0  0  0  0  0  0  0  0
   27.3486  -20.7581  -14.3259 O   0  0  0  0  0  0  0  0  0  0  0  0
   29.8222  -27.3232  -16.7368 N   0  0  0  0  0  0  0  0  0  0  0  0
   21.1823  -19.6356  -17.0980 C   0  0  0  0  0  0  0  0  0  0  0  0
   21.4206  -18.8215  -15.9538 O   0  0  0  0  0  0  0  0  0  0  0  0
   20.6111  -17.8875  -15.7314 C   0  0  0  0  0  0  0  0  0  0  0  0
   22.5905  -19.0783  -15.0610 C   0  0  0  0  0  0  0  0  0  0  0  0
   23.4570  -20.1248  -15.6792 C   0  0  2  0  0  0  0  0  0  0  0  0
   24.6279  -20.5210  -14.8071 N   0  0  0  0  0  0  0  0  0  0  0  0
   25.5109  -21.4475  -15.4752 C   0  0  0  0  0  0  0  0  0  0  0  0
   24.0571  -21.0374  -13.5415 O   0  0  0  0  0  0  0  0  0  0  0  0
   23.5534  -22.1745  -13.4945 C   0  0  0  0  0  0  0  0  0  0  0  0
   26.7044  -20.0607   -9.0537 C   0  0  0  0  0  0  0  0  0  0  0  0
   25.8271  -20.6696  -10.1434 C   0  0  2  0  0  0  0  0  0  0  0  0
   24.3963  -20.2818   -9.9745 C   0  0  0  0  0  0  0  0  0  0  0  0
   23.9029  -20.8332   -8.6585 C   0  0  2  0  0  0  0  0  0  0  0  0
   23.5565  -20.8020  -11.1332 N   0  0  0  0  0  0  0  0  0  0  0  0
   24.0891  -20.2301  -12.3870 C   0  0  0  0  0  0  0  0  0  0  0  0
   22.1204  -20.4486  -11.0194 O   0  0  0  0  0  0  0  0  0  0  0  0
   21.6033  -19.3889  -11.4361 O   0  0  0  0  0  0  0  0  0  0  0  0
  2  3  2  0
  2  1  1  0
  4  2  1  0
  5  4  1  0
  6  5  1  0
  7  6  1  0
  8  7  1  0
  8  9  1  6
 10  8  1  0
 10 11  2  0
 13 12  1  0
 13 14  2  0
 15 16  1  0
 15 13  1  0
 17 16  1  6
 17 18  1  0
 17 19  1  0
 18 10  1  0
 19 20  2  0
 19 26  1  0
 22 21  1  0
 23 22  1  0
 23 25  1  0
 23 24  1  6
 25 27  1  0
 25 26  1  6
 27 28  2  0
 27 29  1  0
M  END
$$$$
