RQI.pdb
     RDKit          3D

 29 28  0  0  1  0  0  0  0  0999 V2000
   25.4638  -12.8862  -18.4686 N   0  0  0  0  0  0  0  0  0  0  0  0
   24.6694  -12.7169  -17.3149 C   0  0  0  0  0  0  0  0  0  0  0  0
   23.6611  -11.9351  -17.3339 N   0  0  0  0  0  0  0  0  0  0  0  0
   24.9639  -13.4149  -16.0786 N   0  0  0  0  0  0  0  0  0  0  0  0
   26.0611  -14.3133  -16.0202 C   0  0  0  0  0  0  0  0  0  0  0  0
   25.7058  -15.7415  -16.1210 C   0  0  0  0  0  0  0  0  0  0  0  0
   26.3124  -16.7253  -15.1920 C   0  0  0  0  0  0  0  0  0  0  0  0
   27.2430  -17.7002  -15.7553 C   0  0  2  0  0  0  0  0  0  0  0  0
   26.9159  -18.0961  -17.1151 N   0  0  0  0  0  0  0  0  0  0  0  0
   27.3555  -18.9613  -14.9621 C   0  0  0  0  0  0  0  0  0  0  0  0
   26.4686  -19.8187  -15.1541 O   0  0  0  0  0  0  0  0  0  0  0  0
   23.0773  -11.8094  -16.4928 N   0  0  0  0  0  0  0  0  0  0  0  0
   31.8914  -21.0192  -11.0505 C   0  0  0  0  0  0  0  0  0  0  0  0
   30.7692  -21.8014  -10.6535 O   0  0  0  0  0  0  0  0  0  0  0  0
   30.9704  -22.7165   -9.8172 C   0  0  0  0  0  0  0  0  0  0  0  0
   29.4114  -21.5343  -11.2165 C   0  0  0  0  0  0  0  0  0  0  0  0
   29.5134  -20.4649  -12.2528 C   0  0  2  0  0  0  0  0  0  0  0  0
   28.2244  -20.2469  -13.0137 N   0  0  0  0  0  0  0  0  0  0  0  0
   28.3650  -19.2406  -14.0393 C   0  0  0  0  0  0  0  0  0  0  0  0
   27.1843  -19.9389  -12.0048 O   0  0  0  0  0  0  0  0  0  0  0  0
   27.1195  -18.8072  -11.4913 C   0  0  0  0  0  0  0  0  0  0  0  0
   21.4167  -20.1700  -11.2215 C   0  0  0  0  0  0  0  0  0  0  0  0
   22.7588  -20.1835  -10.4959 C   0  0  2  0  0  0  0  0  0  0  0  0
   23.8671  -20.6025  -11.4027 C   0  0  0  0  0  0  0  0  0  0  0  0
   23.5649  -21.9885  -11.9194 C   0  0  2  0  0  0  0  0  0  0  0  0
   25.2023  -20.5719  -10.6718 N   0  0  0  0  0  0  0  0  0  0  0  0
   26.2654  -20.9392  -11.6297 C   0  0  0  0  0  0  0  0  0  0  0  0
   25.2583  -21.5011   -9.5169 O   0  0  0  0  0  0  0  0  0  0  0  0
   25.7406  -22.6547   -9.5423 O   0  0  0  0  0  0  0  0  0  0  0  0
  2  3  2  0
  2  1  1  0
  4  2  1  0
  5  4  1  0
  6  5  1  0
  7  6  1  0
  8  7  1  0
  8  9  1  6
 10  8  1  0
 10 11  2  0
 13 12  1  0
 13 14  2  0
 15 16  1  0
 15 13  1  0
 17 16  1  6
 17 18  1  0
 17 19  1  0
 18 10  1  0
 19 20  2  0
 19 26  1  0
 22 21  1  0
 23 22  1  0
 23 25  1  0
 23 24  1  6
 25 27  1  0
 25 26  1  1
 27 28  2  0
 27 29  1  0
M  END
$$$$
