RQI.pdb
     RDKit          3D

 29 28  0  0  1  0  0  0  0  0999 V2000
   27.3912  -19.1412  -20.0104 N   0  0  0  0  0  0  0  0  0  0  0  0
   27.8308  -17.8224  -19.7689 C   0  0  0  0  0  0  0  0  0  0  0  0
   27.4848  -16.8732  -20.5483 N   0  0  0  0  0  0  0  0  0  0  0  0
   28.6822  -17.4982  -18.6409 N   0  0  0  0  0  0  0  0  0  0  0  0
   28.9048  -18.4640  -17.6250 C   0  0  0  0  0  0  0  0  0  0  0  0
   28.5276  -18.0380  -16.2639 C   0  0  0  0  0  0  0  0  0  0  0  0
   27.4225  -18.7228  -15.5507 C   0  0  0  0  0  0  0  0  0  0  0  0
   27.7538  -19.9234  -14.7874 C   0  0  2  0  0  0  0  0  0  0  0  0
   28.3561  -20.9741  -15.5912 N   0  0  0  0  0  0  0  0  0  0  0  0
   26.5861  -20.5406  -14.0890 C   0  0  0  0  0  0  0  0  0  0  0  0
   26.0318  -21.4952  -14.6721 O   0  0  0  0  0  0  0  0  0  0  0  0
   27.7787  -15.9029  -20.3580 N   0  0  0  0  0  0  0  0  0  0  0  0
   25.3166  -20.7585   -7.9617 C   0  0  0  0  0  0  0  0  0  0  0  0
   26.5250  -20.9139   -8.6995 O   0  0  0  0  0  0  0  0  0  0  0  0
   27.5980  -20.9516   -8.0481 C   0  0  0  0  0  0  0  0  0  0  0  0
   26.5041  -21.0264  -10.1890 C   0  0  0  0  0  0  0  0  0  0  0  0
   25.1240  -20.7427  -10.6816 C   0  0  2  0  0  0  0  0  0  0  0  0
   25.0012  -20.8170  -12.1875 N   0  0  0  0  0  0  0  0  0  0  0  0
   26.0830  -20.1307  -12.8531 C   0  0  0  0  0  0  0  0  0  0  0  0
   23.6566  -20.2975  -12.5286 O   0  0  0  0  0  0  0  0  0  0  0  0
   23.4666  -19.0741  -12.6552 C   0  0  0  0  0  0  0  0  0  0  0  0
   19.7426  -20.4913  -16.6678 C   0  0  0  0  0  0  0  0  0  0  0  0
   19.8749  -20.3131  -15.1583 C   0  0  2  0  0  0  0  0  0  0  0  0
   21.1766  -20.8425  -14.6568 C   0  0  0  0  0  0  0  0  0  0  0  0
   21.2738  -22.3031  -15.0263 C   0  0  2  0  0  0  0  0  0  0  0  0
   21.2915  -20.6520  -13.1505 N   0  0  0  0  0  0  0  0  0  0  0  0
   22.5905  -21.2010  -12.7101 C   0  0  0  0  0  0  0  0  0  0  0  0
   20.2077  -21.3229  -12.3919 O   0  0  0  0  0  0  0  0  0  0  0  0
   20.3013  -22.4388  -11.8349 O   0  0  0  0  0  0  0  0  0  0  0  0
  2  3  2  0
  2  1  1  0
  4  2  1  0
  5  4  1  0
  6  5  1  0
  7  6  1  0
  8  7  1  0
  8  9  1  6
 10  8  1  0
 10 11  2  0
 13 12  1  0
 13 14  2  0
 15 16  1  0
 15 13  1  0
 17 16  1  6
 17 18  1  0
 17 19  1  0
 18 10  1  0
 19 20  2  0
 19 26  1  0
 22 21  1  0
 23 22  1  0
 23 25  1  0
 23 24  1  6
 25 27  1  0
 25 26  1  1
 27 28  2  0
 27 29  1  0
M  END
$$$$
