RQI.pdb
     RDKit          3D

 29 28  0  0  1  0  0  0  0  0999 V2000
   22.3997  -18.9419  -18.7580 N   0  0  0  0  0  0  0  0  0  0  0  0
   23.7324  -19.3828  -18.6156 C   0  0  0  0  0  0  0  0  0  0  0  0
   24.6172  -19.0527  -19.4737 N   0  0  0  0  0  0  0  0  0  0  0  0
   24.1433  -20.2178  -17.5037 N   0  0  0  0  0  0  0  0  0  0  0  0
   23.1640  -20.7756  -16.6411 C   0  0  0  0  0  0  0  0  0  0  0  0
   22.8475  -19.9668  -15.4487 C   0  0  0  0  0  0  0  0  0  0  0  0
   21.8304  -20.4398  -14.4788 C   0  0  0  0  0  0  0  0  0  0  0  0
   20.4921  -20.7251  -14.9900 C   0  0  2  0  0  0  0  0  0  0  0  0
   19.8579  -19.5820  -15.6256 N   0  0  0  0  0  0  0  0  0  0  0  0
   19.5371  -21.2164  -13.9513 C   0  0  0  0  0  0  0  0  0  0  0  0
   19.1640  -20.3816  -13.1013 O   0  0  0  0  0  0  0  0  0  0  0  0
   25.5910  -19.3791  -19.3771 N   0  0  0  0  0  0  0  0  0  0  0  0
   15.5448  -26.0165  -14.1603 C   0  0  0  0  0  0  0  0  0  0  0  0
   15.2567  -25.4355  -12.8921 O   0  0  0  0  0  0  0  0  0  0  0  0
   14.2409  -25.8536  -12.2833 C   0  0  0  0  0  0  0  0  0  0  0  0
   16.1353  -24.3717  -12.3193 C   0  0  0  0  0  0  0  0  0  0  0  0
   17.2153  -24.0499  -13.2981 C   0  0  2  0  0  0  0  0  0  0  0  0
   18.1325  -22.9414  -12.8309 N   0  0  0  0  0  0  0  0  0  0  0  0
   19.0434  -22.5194  -13.8685 C   0  0  0  0  0  0  0  0  0  0  0  0
   18.8015  -23.4344  -11.6046 O   0  0  0  0  0  0  0  0  0  0  0  0
   19.6430  -24.3490  -11.6696 C   0  0  0  0  0  0  0  0  0  0  0  0
   21.1184  -20.1441   -8.4149 C   0  0  0  0  0  0  0  0  0  0  0  0
   20.6436  -21.3790   -9.1747 C   0  0  2  0  0  0  0  0  0  0  0  0
   19.6919  -22.1901   -8.3606 C   0  0  0  0  0  0  0  0  0  0  0  0
   20.4033  -22.6521   -7.1117 C   0  0  2  0  0  0  0  0  0  0  0  0
   19.1715  -23.3754   -9.1622 N   0  0  0  0  0  0  0  0  0  0  0  0
   18.4781  -22.8584  -10.3599 C   0  0  0  0  0  0  0  0  0  0  0  0
   18.2309  -24.2306   -8.3978 O   0  0  0  0  0  0  0  0  0  0  0  0
   18.5628  -25.1628   -7.6330 O   0  0  0  0  0  0  0  0  0  0  0  0
  2  3  2  0
  2  1  1  0
  4  2  1  0
  5  4  1  0
  6  5  1  0
  7  6  1  0
  8  7  1  0
  8  9  1  1
 10  8  1  0
 10 11  2  0
 13 12  1  0
 13 14  2  0
 15 16  1  0
 15 13  1  0
 17 16  1  6
 17 18  1  0
 17 19  1  0
 18 10  1  0
 19 20  2  0
 19 26  1  0
 22 21  1  0
 23 22  1  0
 23 25  1  0
 23 24  1  1
 25 27  1  0
 25 26  1  6
 27 28  2  0
 27 29  1  0
M  END
$$$$
