RQI.pdb
     RDKit          3D

 29 28  0  0  1  0  0  0  0  0999 V2000
   17.9608   -2.6668  -14.8563 N   0  0  0  0  0  0  0  0  0  0  0  0
   16.6160   -2.7361  -15.2775 C   0  0  0  0  0  0  0  0  0  0  0  0
   15.7735   -1.8570  -14.8960 N   0  0  0  0  0  0  0  0  0  0  0  0
   16.1446   -3.7952  -16.1484 N   0  0  0  0  0  0  0  0  0  0  0  0
   17.0031   -4.8789  -16.4692 C   0  0  0  0  0  0  0  0  0  0  0  0
   16.3873   -6.2156  -16.3675 C   0  0  0  0  0  0  0  0  0  0  0  0
   17.1281   -7.4123  -16.8344 C   0  0  0  0  0  0  0  0  0  0  0  0
   16.4031   -8.6796  -16.8793 C   0  0  2  0  0  0  0  0  0  0  0  0
   15.4057   -8.7403  -17.9350 N   0  0  0  0  0  0  0  0  0  0  0  0
   15.6960   -9.0203  -15.6081 C   0  0  0  0  0  0  0  0  0  0  0  0
   14.4699   -8.7876  -15.5754 O   0  0  0  0  0  0  0  0  0  0  0  0
   14.7948   -1.8910  -15.2203 N   0  0  0  0  0  0  0  0  0  0  0  0
   16.0224  -13.8585  -12.0089 C   0  0  0  0  0  0  0  0  0  0  0  0
   15.1513  -13.0377  -11.2366 O   0  0  0  0  0  0  0  0  0  0  0  0
   14.5742  -13.5709  -10.2568 C   0  0  0  0  0  0  0  0  0  0  0  0
   14.9407  -11.6011  -11.5878 C   0  0  0  0  0  0  0  0  0  0  0  0
   15.7445  -11.2714  -12.8016 C   0  0  2  0  0  0  0  0  0  0  0  0
   15.5738   -9.8397  -13.2591 N   0  0  0  0  0  0  0  0  0  0  0  0
   16.3012   -9.5705  -14.4768 C   0  0  0  0  0  0  0  0  0  0  0  0
   15.9683   -8.9810  -12.1183 O   0  0  0  0  0  0  0  0  0  0  0  0
   17.1575   -8.6497  -11.9601 C   0  0  0  0  0  0  0  0  0  0  0  0
   11.9197   -6.1051   -9.5122 C   0  0  0  0  0  0  0  0  0  0  0  0
   13.2110   -6.4502  -10.2479 C   0  0  2  0  0  0  0  0  0  0  0  0
   14.1644   -7.1840   -9.3654 C   0  0  0  0  0  0  0  0  0  0  0  0
   14.5332   -6.2870   -8.2084 C   0  0  2  0  0  0  0  0  0  0  0  0
   15.4026   -7.6074  -10.1437 N   0  0  0  0  0  0  0  0  0  0  0  0
   14.9848   -8.5398  -11.2108 C   0  0  0  0  0  0  0  0  0  0  0  0
   16.4241   -8.2742   -9.2999 O   0  0  0  0  0  0  0  0  0  0  0  0
   17.2168   -7.6890   -8.5296 O   0  0  0  0  0  0  0  0  0  0  0  0
  2  3  2  0
  2  1  1  0
  4  2  1  0
  5  4  1  0
  6  5  1  0
  7  6  1  0
  8  7  1  0
  8  9  1  6
 10  8  1  0
 10 11  2  0
 13 12  1  0
 13 14  2  0
 15 16  1  0
 15 13  1  0
 17 16  1  6
 17 18  1  0
 17 19  1  0
 18 10  1  0
 19 20  2  0
 19 26  1  0
 22 21  1  0
 23 22  1  0
 23 25  1  0
 23 24  1  1
 25 27  1  0
 25 26  1  6
 27 28  2  0
 27 29  1  0
M  END
$$$$
