RQI.pdb
     RDKit          3D

 29 28  0  0  1  0  0  0  0  0999 V2000
   28.2962  -17.7826  -15.2438 N   0  0  0  0  0  0  0  0  0  0  0  0
   27.6242  -18.5612  -16.2097 C   0  0  0  0  0  0  0  0  0  0  0  0
   28.1358  -18.7401  -17.3649 N   0  0  0  0  0  0  0  0  0  0  0  0
   26.3427  -19.1799  -15.9316 N   0  0  0  0  0  0  0  0  0  0  0  0
   26.0829  -19.7152  -14.6431 C   0  0  0  0  0  0  0  0  0  0  0  0
   25.5620  -18.7486  -13.6579 C   0  0  0  0  0  0  0  0  0  0  0  0
   25.3977  -19.1491  -12.2396 C   0  0  0  0  0  0  0  0  0  0  0  0
   25.2669  -20.5752  -11.9521 C   0  0  2  0  0  0  0  0  0  0  0  0
   23.8885  -21.0348  -11.9112 N   0  0  0  0  0  0  0  0  0  0  0  0
   25.8920  -20.9945  -10.6615 C   0  0  0  0  0  0  0  0  0  0  0  0
   25.1267  -21.0918   -9.6800 O   0  0  0  0  0  0  0  0  0  0  0  0
   27.6568  -19.3242  -18.0674 N   0  0  0  0  0  0  0  0  0  0  0  0
   31.8374  -22.9065   -9.4984 C   0  0  0  0  0  0  0  0  0  0  0  0
   31.5074  -21.6374  -10.0546 O   0  0  0  0  0  0  0  0  0  0  0  0
   32.4482  -20.9515  -10.5255 C   0  0  0  0  0  0  0  0  0  0  0  0
   30.0946  -21.1523  -10.0713 C   0  0  0  0  0  0  0  0  0  0  0  0
   29.2371  -22.1176   -9.3223 C   0  0  1  0  0  0  0  0  0  0  0  0
   27.7969  -21.6699   -9.2057 N   0  0  0  0  0  0  0  0  0  0  0  0
   27.2467  -21.2793  -10.4821 C   0  0  0  0  0  0  0  0  0  0  0  0
   27.7682  -20.5986   -8.1831 O   0  0  0  0  0  0  0  0  0  0  0  0
   27.4680  -19.4329   -8.4992 C   0  0  0  0  0  0  0  0  0  0  0  0
   28.4230  -19.9312   -2.0281 C   0  0  0  0  0  0  0  0  0  0  0  0
   28.0633  -19.3861   -3.4069 C   0  0  2  0  0  0  0  0  0  0  0  0
   28.2536  -20.4162   -4.4694 C   0  0  0  0  0  0  0  0  0  0  0  0
   29.6610  -20.9533   -4.3689 C   0  0  2  0  0  0  0  0  0  0  0  0
   27.9930  -19.8236   -5.8475 N   0  0  0  0  0  0  0  0  0  0  0  0
   28.0836  -20.9093   -6.8453 C   0  0  0  0  0  0  0  0  0  0  0  0
   28.9537  -18.7551   -6.2159 O   0  0  0  0  0  0  0  0  0  0  0  0
   28.7774  -17.5311   -6.0291 O   0  0  0  0  0  0  0  0  0  0  0  0
  2  3  2  0
  2  1  1  0
  4  2  1  0
  5  4  1  0
  6  5  1  0
  7  6  1  0
  8  7  1  0
  8  9  1  1
 10  8  1  0
 10 11  2  0
 13 12  1  0
 13 14  2  0
 15 16  1  0
 15 13  1  0
 17 16  1  6
 17 18  1  0
 17 19  1  0
 18 10  1  0
 19 20  2  0
 19 26  1  0
 22 21  1  0
 23 22  1  0
 23 25  1  0
 23 24  1  6
 25 27  1  0
 25 26  1  6
 27 28  2  0
 27 29  1  0
M  END
$$$$
