RQI.pdb
     RDKit          3D

 29 28  0  0  1  0  0  0  0  0999 V2000
   28.7368  -20.6951  -18.6812 N   0  0  0  0  0  0  0  0  0  0  0  0
   29.0142  -22.0766  -18.7537 C   0  0  0  0  0  0  0  0  0  0  0  0
   29.5410  -22.5754  -19.8034 N   0  0  0  0  0  0  0  0  0  0  0  0
   28.7150  -22.9720  -17.6533 N   0  0  0  0  0  0  0  0  0  0  0  0
   28.0335  -22.4803  -16.5094 C   0  0  0  0  0  0  0  0  0  0  0  0
   28.8350  -21.6064  -15.6319 C   0  0  0  0  0  0  0  0  0  0  0  0
   28.2509  -21.0787  -14.3752 C   0  0  0  0  0  0  0  0  0  0  0  0
   26.8977  -20.5323  -14.4375 C   0  0  2  0  0  0  0  0  0  0  0  0
   26.7572  -19.4370  -15.3827 N   0  0  0  0  0  0  0  0  0  0  0  0
   26.3845  -20.0300  -13.1274 C   0  0  0  0  0  0  0  0  0  0  0  0
   26.7788  -18.8996  -12.7734 O   0  0  0  0  0  0  0  0  0  0  0  0
   29.8258  -23.5665  -19.8287 N   0  0  0  0  0  0  0  0  0  0  0  0
   20.9811  -20.9786  -10.3661 C   0  0  0  0  0  0  0  0  0  0  0  0
   21.3192  -20.1753  -11.4927 O   0  0  0  0  0  0  0  0  0  0  0  0
   20.3739  -19.7400  -12.1955 C   0  0  0  0  0  0  0  0  0  0  0  0
   22.7455  -19.8697  -11.8153 C   0  0  0  0  0  0  0  0  0  0  0  0
   23.6215  -20.4452  -10.7525 C   0  0  2  0  0  0  0  0  0  0  0  0
   25.0950  -20.2139  -11.0043 N   0  0  0  0  0  0  0  0  0  0  0  0
   25.5112  -20.7249  -12.2889 C   0  0  0  0  0  0  0  0  0  0  0  0
   25.8187  -20.8070   -9.8559 O   0  0  0  0  0  0  0  0  0  0  0  0
   26.1534  -22.0056   -9.8724 C   0  0  0  0  0  0  0  0  0  0  0  0
   28.9899  -19.3162   -4.7903 C   0  0  0  0  0  0  0  0  0  0  0  0
   28.1364  -20.3081   -5.5748 C   0  0  2  0  0  0  0  0  0  0  0  0
   27.5594  -19.6838   -6.8010 C   0  0  0  0  0  0  0  0  0  0  0  0
   26.7866  -18.4527   -6.3930 C   0  0  2  0  0  0  0  0  0  0  0  0
   26.6643  -20.6705   -7.5380 N   0  0  0  0  0  0  0  0  0  0  0  0
   26.1272  -20.0022   -8.7411 C   0  0  0  0  0  0  0  0  0  0  0  0
   25.5299  -21.1580   -6.7160 O   0  0  0  0  0  0  0  0  0  0  0  0
   24.3515  -20.7473   -6.7975 O   0  0  0  0  0  0  0  0  0  0  0  0
  2  3  2  0
  2  1  1  0
  4  2  1  0
  5  4  1  0
  6  5  1  0
  7  6  1  0
  8  7  1  0
  8  9  1  6
 10  8  1  0
 10 11  2  0
 13 12  1  0
 13 14  2  0
 15 16  1  0
 15 13  1  0
 17 16  1  6
 17 18  1  0
 17 19  1  0
 18 10  1  0
 19 20  2  0
 19 26  1  0
 22 21  1  0
 23 22  1  0
 23 25  1  0
 23 24  1  6
 25 27  1  0
 25 26  1  1
 27 28  2  0
 27 29  1  0
M  END
$$$$
