RQI.pdb
     RDKit          3D

 29 28  0  0  1  0  0  0  0  0999 V2000
   28.6851  -18.2830  -20.2324 N   0  0  0  0  0  0  0  0  0  0  0  0
   28.7222  -16.9733  -19.7091 C   0  0  0  0  0  0  0  0  0  0  0  0
   28.4693  -15.9713  -20.4576 N   0  0  0  0  0  0  0  0  0  0  0  0
   29.0455  -16.7177  -18.3190 N   0  0  0  0  0  0  0  0  0  0  0  0
   29.1587  -17.8022  -17.4104 C   0  0  0  0  0  0  0  0  0  0  0  0
   28.0441  -18.7679  -17.4476 C   0  0  0  0  0  0  0  0  0  0  0  0
   27.3657  -19.1680  -16.1912 C   0  0  0  0  0  0  0  0  0  0  0  0
   27.8643  -20.3569  -15.5044 C   0  0  2  0  0  0  0  0  0  0  0  0
   28.1945  -21.4505  -16.4032 N   0  0  0  0  0  0  0  0  0  0  0  0
   26.9197  -20.9130  -14.4893 C   0  0  0  0  0  0  0  0  0  0  0  0
   26.0729  -21.7294  -14.9077 O   0  0  0  0  0  0  0  0  0  0  0  0
   28.5596  -15.0091  -20.0965 N   0  0  0  0  0  0  0  0  0  0  0  0
   26.8226  -20.1722   -8.1933 C   0  0  0  0  0  0  0  0  0  0  0  0
   25.5906  -20.8437   -8.4387 O   0  0  0  0  0  0  0  0  0  0  0  0
   24.8924  -21.1513   -7.4412 C   0  0  0  0  0  0  0  0  0  0  0  0
   25.1568  -21.1638   -9.8320 C   0  0  0  0  0  0  0  0  0  0  0  0
   26.2174  -20.7267  -10.7870 C   0  0  2  0  0  0  0  0  0  0  0  0
   25.8691  -21.0040  -12.2327 N   0  0  0  0  0  0  0  0  0  0  0  0
   26.9196  -20.5883  -13.1317 C   0  0  0  0  0  0  0  0  0  0  0  0
   24.5642  -20.3505  -12.4865 O   0  0  0  0  0  0  0  0  0  0  0  0
   24.4773  -19.1097  -12.5252 C   0  0  0  0  0  0  0  0  0  0  0  0
   20.2465  -20.3789  -16.3768 C   0  0  0  0  0  0  0  0  0  0  0  0
   20.5605  -20.1190  -14.9066 C   0  0  2  0  0  0  0  0  0  0  0  0
   21.8366  -20.7736  -14.4954 C   0  0  0  0  0  0  0  0  0  0  0  0
   21.7028  -22.2617  -14.7117 C   0  0  2  0  0  0  0  0  0  0  0  0
   22.1586  -20.4606  -13.0405 N   0  0  0  0  0  0  0  0  0  0  0  0
   23.4181  -21.1460  -12.6851 C   0  0  0  0  0  0  0  0  0  0  0  0
   21.0968  -20.8948  -12.1001 O   0  0  0  0  0  0  0  0  0  0  0  0
   21.0934  -21.9713  -11.4636 O   0  0  0  0  0  0  0  0  0  0  0  0
  2  3  2  0
  2  1  1  0
  4  2  1  0
  5  4  1  0
  6  5  1  0
  7  6  1  0
  8  7  1  0
  8  9  1  6
 10  8  1  0
 10 11  2  0
 13 12  1  0
 13 14  2  0
 15 16  1  0
 15 13  1  0
 17 16  1  1
 17 18  1  0
 17 19  1  0
 18 10  1  0
 19 20  2  0
 19 26  1  0
 22 21  1  0
 23 22  1  0
 23 25  1  0
 23 24  1  6
 25 27  1  0
 25 26  1  1
 27 28  2  0
 27 29  1  0
M  END
$$$$
