RQI.pdb
     RDKit          3D

 29 28  0  0  1  0  0  0  0  0999 V2000
   30.7763  -22.4439  -17.8851 N   0  0  0  0  0  0  0  0  0  0  0  0
   29.5487  -22.9971  -18.3064 C   0  0  0  0  0  0  0  0  0  0  0  0
   29.3987  -23.3955  -19.5093 N   0  0  0  0  0  0  0  0  0  0  0  0
   28.4240  -23.1324  -17.4013 N   0  0  0  0  0  0  0  0  0  0  0  0
   28.5279  -22.6503  -16.0704 C   0  0  0  0  0  0  0  0  0  0  0  0
   28.8334  -21.2122  -15.9485 C   0  0  0  0  0  0  0  0  0  0  0  0
   27.8632  -20.2994  -15.2972 C   0  0  0  0  0  0  0  0  0  0  0  0
   26.6975  -20.9009  -14.6544 C   0  0  2  0  0  0  0  0  0  0  0  0
   25.5485  -21.0252  -15.5360 N   0  0  0  0  0  0  0  0  0  0  0  0
   26.2247  -20.1654  -13.4430 C   0  0  0  0  0  0  0  0  0  0  0  0
   25.7815  -19.0136  -13.6309 O   0  0  0  0  0  0  0  0  0  0  0  0
   28.5220  -23.8504  -19.8071 N   0  0  0  0  0  0  0  0  0  0  0  0
   21.5373  -19.1908  -11.5396 C   0  0  0  0  0  0  0  0  0  0  0  0
   21.9331  -20.5562  -11.4518 O   0  0  0  0  0  0  0  0  0  0  0  0
   21.0258  -21.4237  -11.4908 C   0  0  0  0  0  0  0  0  0  0  0  0
   23.3736  -20.9293  -11.3188 C   0  0  0  0  0  0  0  0  0  0  0  0
   24.1941  -19.6860  -11.2244 C   0  0  1  0  0  0  0  0  0  0  0  0
   25.6685  -19.9583  -11.0240 N   0  0  0  0  0  0  0  0  0  0  0  0
   26.2442  -20.6688  -12.1412 C   0  0  0  0  0  0  0  0  0  0  0  0
   25.7959  -20.6657   -9.7287 O   0  0  0  0  0  0  0  0  0  0  0  0
   25.5962  -21.8920   -9.6576 C   0  0  0  0  0  0  0  0  0  0  0  0
   29.0242  -18.4032   -5.8569 C   0  0  0  0  0  0  0  0  0  0  0  0
   28.3419  -19.3834   -6.8063 C   0  0  2  0  0  0  0  0  0  0  0  0
   26.9985  -19.7903   -6.3002 C   0  0  0  0  0  0  0  0  0  0  0  0
   27.1789  -20.4989   -4.9794 C   0  0  2  0  0  0  0  0  0  0  0  0
   26.2916  -20.6863   -7.3080 N   0  0  0  0  0  0  0  0  0  0  0  0
   26.1466  -19.9384   -8.5738 C   0  0  0  0  0  0  0  0  0  0  0  0
   24.9489  -21.1275   -6.8575 O   0  0  0  0  0  0  0  0  0  0  0  0
   23.8820  -20.5050   -7.0534 O   0  0  0  0  0  0  0  0  0  0  0  0
  2  3  2  0
  2  1  1  0
  4  2  1  0
  5  4  1  0
  6  5  1  0
  7  6  1  0
  8  7  1  0
  8  9  1  6
 10  8  1  0
 10 11  2  0
 13 12  1  0
 13 14  2  0
 15 16  1  0
 15 13  1  0
 17 16  1  6
 17 18  1  0
 17 19  1  0
 18 10  1  0
 19 20  2  0
 19 26  1  0
 22 21  1  0
 23 22  1  0
 23 25  1  0
 23 24  1  6
 25 27  1  0
 25 26  1  6
 27 28  2  0
 27 29  1  0
M  END
$$$$
