RQI.pdb
     RDKit          3D

 29 28  0  0  1  0  0  0  0  0999 V2000
   30.1900  -16.3729  -19.1639 N   0  0  0  0  0  0  0  0  0  0  0  0
   30.4102  -17.7449  -18.9192 C   0  0  0  0  0  0  0  0  0  0  0  0
   31.5366  -18.2774  -19.1947 N   0  0  0  0  0  0  0  0  0  0  0  0
   29.3790  -18.5925  -18.3532 N   0  0  0  0  0  0  0  0  0  0  0  0
   28.1671  -18.0158  -17.8913 C   0  0  0  0  0  0  0  0  0  0  0  0
   27.9113  -18.1717  -16.4469 C   0  0  0  0  0  0  0  0  0  0  0  0
   26.5281  -18.3832  -15.9560 C   0  0  0  0  0  0  0  0  0  0  0  0
   25.8577  -19.6226  -16.3409 C   0  0  2  0  0  0  0  0  0  0  0  0
   26.3495  -20.1852  -17.5877 N   0  0  0  0  0  0  0  0  0  0  0  0
   24.3770  -19.4914  -16.4900 C   0  0  0  0  0  0  0  0  0  0  0  0
   23.9655  -19.0648  -17.5888 O   0  0  0  0  0  0  0  0  0  0  0  0
   31.6975  -19.2828  -19.0289 N   0  0  0  0  0  0  0  0  0  0  0  0
   21.0946  -23.8869  -16.1598 C   0  0  0  0  0  0  0  0  0  0  0  0
   20.1344  -23.0125  -16.7449 O   0  0  0  0  0  0  0  0  0  0  0  0
   19.0016  -23.4893  -17.0031 C   0  0  0  0  0  0  0  0  0  0  0  0
   20.4732  -21.5868  -17.0353 C   0  0  0  0  0  0  0  0  0  0  0  0
   21.8882  -21.3293  -16.6361 C   0  0  2  0  0  0  0  0  0  0  0  0
   22.0548  -20.0763  -15.8051 N   0  0  0  0  0  0  0  0  0  0  0  0
   23.4409  -19.8072  -15.5039 C   0  0  0  0  0  0  0  0  0  0  0  0
   21.1991  -20.2457  -14.6078 O   0  0  0  0  0  0  0  0  0  0  0  0
   21.5492  -21.0033  -13.6846 C   0  0  0  0  0  0  0  0  0  0  0  0
   19.2734  -15.5701  -13.3504 C   0  0  0  0  0  0  0  0  0  0  0  0
   19.8481  -16.9834  -13.3422 C   0  0  2  0  0  0  0  0  0  0  0  0
   18.7943  -18.0011  -13.0593 C   0  0  0  0  0  0  0  0  0  0  0  0
   18.2558  -17.7591  -11.6697 C   0  0  2  0  0  0  0  0  0  0  0  0
   19.3571  -19.4100  -13.1885 N   0  0  0  0  0  0  0  0  0  0  0  0
   19.9822  -19.5406  -14.5208 C   0  0  0  0  0  0  0  0  0  0  0  0
   18.3273  -20.4671  -13.0385 O   0  0  0  0  0  0  0  0  0  0  0  0
   17.5666  -20.8668  -13.9471 O   0  0  0  0  0  0  0  0  0  0  0  0
  2  3  2  0
  2  1  1  0
  4  2  1  0
  5  4  1  0
  6  5  1  0
  7  6  1  0
  8  7  1  0
  8  9  1  6
 10  8  1  0
 10 11  2  0
 13 12  1  0
 13 14  2  0
 15 16  1  0
 15 13  1  0
 17 16  1  6
 17 18  1  0
 17 19  1  0
 18 10  1  0
 19 20  2  0
 19 26  1  0
 22 21  1  0
 23 22  1  0
 23 25  1  0
 23 24  1  6
 25 27  1  0
 25 26  1  1
 27 28  2  0
 27 29  1  0
M  END
$$$$
