NAA.pdb
     RDKit          3D

 19 18  0  0  1  0  0  0  0  0999 V2000
   16.1299  -12.6316  -15.5008 N   0  0  0  0  0  0  0  0  0  0  0  0
   16.9181  -12.1180  -14.4524 C   0  0  0  0  0  0  0  0  0  0  0  0
   16.7997  -12.6602  -13.3187 O   0  0  0  0  0  0  0  0  0  0  0  0
   17.8438  -10.9803  -14.7057 C   0  0  0  0  0  0  0  0  0  0  0  0
   17.5805  -10.4975  -16.1138 C   0  0  2  0  0  0  0  0  0  0  0  0
   18.0029  -11.5114  -17.0525 N   0  0  0  0  0  0  0  0  0  0  0  0
   18.3103   -9.2450  -16.4179 C   0  0  0  0  0  0  0  0  0  0  0  0
   19.3837   -9.2506  -17.1128 O   0  0  0  0  0  0  0  0  0  0  0  0
   17.6717   -5.5808  -16.0638 C   0  0  0  0  0  0  0  0  0  0  0  0
   18.6306   -6.7526  -16.1816 C   0  0  2  0  0  0  0  0  0  0  0  0
   17.8744   -7.9685  -15.9649 N   0  0  0  0  0  0  0  0  0  0  0  0
   19.7588   -6.6280  -15.2250 C   0  0  0  0  0  0  0  0  0  0  0  0
   19.6080   -7.0425  -14.0494 O   0  0  0  0  0  0  0  0  0  0  0  0
   23.4236   -5.6534  -15.3547 C   0  0  0  0  0  0  0  0  0  0  0  0
   22.1268   -5.9543  -14.6821 C   0  0  2  0  0  0  0  0  0  0  0  0
   21.0093   -6.0613  -15.5691 N   0  0  0  0  0  0  0  0  0  0  0  0
   21.8887   -4.9503  -13.6048 C   0  0  0  0  0  0  0  0  0  0  0  0
   21.0960   -4.0087  -13.8596 O   0  0  0  0  0  0  0  0  0  0  0  0
   22.4815   -5.0052  -12.3755 O   0  0  0  0  0  0  0  0  0  0  0  0
  2  1  1  0
  3  2  2  0
  4  2  1  0
  5  4  1  0
  5  6  1  6
  7  5  1  0
  7  8  2  0
 10  9  1  1
 10 11  1  0
 10 12  1  0
 11  7  1  0
 12 13  2  0
 15 14  1  6
 15 17  1  0
 16 12  1  0
 16 15  1  0
 17 18  2  0
 17 19  1  0
M  END
$$$$
