NAA.pdb
     RDKit          3D

 19 18  0  0  1  0  0  0  0  0999 V2000
   17.4880  -11.0553  -20.1626 N   0  0  0  0  0  0  0  0  0  0  0  0
   17.4599   -9.6483  -20.1040 C   0  0  0  0  0  0  0  0  0  0  0  0
   17.0256   -9.0343  -21.1178 O   0  0  0  0  0  0  0  0  0  0  0  0
   17.9308   -8.9447  -18.8799 C   0  0  0  0  0  0  0  0  0  0  0  0
   18.4198  -10.0038  -17.9184 C   0  0  2  0  0  0  0  0  0  0  0  0
   17.2866  -10.7260  -17.3876 N   0  0  0  0  0  0  0  0  0  0  0  0
   19.1754   -9.4205  -16.7857 C   0  0  0  0  0  0  0  0  0  0  0  0
   18.5829   -9.0133  -15.7283 O   0  0  0  0  0  0  0  0  0  0  0  0
   22.7881   -8.9735  -15.8832 C   0  0  0  0  0  0  0  0  0  0  0  0
   21.3229   -8.5985  -15.7452 C   0  0  2  0  0  0  0  0  0  0  0  0
   20.5907   -9.2751  -16.7957 N   0  0  0  0  0  0  0  0  0  0  0  0
   21.1325   -7.1274  -15.8010 C   0  0  0  0  0  0  0  0  0  0  0  0
   21.0846   -6.5623  -16.9212 O   0  0  0  0  0  0  0  0  0  0  0  0
   19.9273   -4.3725  -13.5960 C   0  0  0  0  0  0  0  0  0  0  0  0
   20.8248   -4.8977  -14.6652 C   0  0  2  0  0  0  0  0  0  0  0  0
   21.0004   -6.3176  -14.6477 N   0  0  0  0  0  0  0  0  0  0  0  0
   22.1283   -4.1745  -14.6103 C   0  0  0  0  0  0  0  0  0  0  0  0
   23.0850   -4.7541  -14.0371 O   0  0  0  0  0  0  0  0  0  0  0  0
   22.3276   -2.9334  -15.1445 O   0  0  0  0  0  0  0  0  0  0  0  0
  2  1  1  0
  3  2  2  0
  4  2  1  0
  5  4  1  0
  5  6  1  1
  7  5  1  0
  7  8  2  0
 10  9  1  6
 10 11  1  0
 10 12  1  0
 11  7  1  0
 12 13  2  0
 15 14  1  1
 15 17  1  0
 16 12  1  0
 16 15  1  0
 17 18  2  0
 17 19  1  0
M  END
$$$$
