NAA.pdb
     RDKit          3D

 19 18  0  0  1  0  0  0  0  0999 V2000
   17.7343  -11.8751  -18.5355 N   0  0  0  0  0  0  0  0  0  0  0  0
   17.0672  -10.6442  -18.3809 C   0  0  0  0  0  0  0  0  0  0  0  0
   16.2706  -10.2975  -19.2965 O   0  0  0  0  0  0  0  0  0  0  0  0
   17.3148   -9.8099  -17.1735 C   0  0  0  0  0  0  0  0  0  0  0  0
   18.2871  -10.5692  -16.2998 C   0  0  2  0  0  0  0  0  0  0  0  0
   17.5702  -11.5764  -15.5520 N   0  0  0  0  0  0  0  0  0  0  0  0
   18.9834   -9.6810  -15.3404 C   0  0  0  0  0  0  0  0  0  0  0  0
   18.3338   -8.9229  -14.5414 O   0  0  0  0  0  0  0  0  0  0  0  0
   22.5282   -9.1556  -14.2328 C   0  0  0  0  0  0  0  0  0  0  0  0
   21.0880   -8.6909  -14.3603 C   0  0  2  0  0  0  0  0  0  0  0  0
   20.4012   -9.6110  -15.2430 N   0  0  0  0  0  0  0  0  0  0  0  0
   21.0112   -7.2932  -14.8543 C   0  0  0  0  0  0  0  0  0  0  0  0
   21.1040   -7.0780  -16.0878 O   0  0  0  0  0  0  0  0  0  0  0  0
   19.7889   -3.9825  -13.6463 C   0  0  0  0  0  0  0  0  0  0  0  0
   20.7275   -4.8216  -14.4461 C   0  0  2  0  0  0  0  0  0  0  0  0
   20.8372   -6.1770  -14.0015 N   0  0  0  0  0  0  0  0  0  0  0  0
   22.0564   -4.1467  -14.5090 C   0  0  0  0  0  0  0  0  0  0  0  0
   22.9560   -4.5731  -13.7418 O   0  0  0  0  0  0  0  0  0  0  0  0
   22.3366   -3.1050  -15.3468 O   0  0  0  0  0  0  0  0  0  0  0  0
  2  1  1  0
  3  2  2  0
  4  2  1  0
  5  4  1  0
  5  6  1  1
  7  5  1  0
  7  8  2  0
 10  9  1  6
 10 11  1  0
 10 12  1  0
 11  7  1  0
 12 13  2  0
 15 14  1  1
 15 17  1  0
 16 12  1  0
 16 15  1  0
 17 18  2  0
 17 19  1  0
M  END
$$$$
