NAA.pdb
     RDKit          3D

 19 18  0  0  1  0  0  0  0  0999 V2000
   19.8899  -12.3978  -20.2206 N   0  0  0  0  0  0  0  0  0  0  0  0
   19.9063  -10.9935  -20.3284 C   0  0  0  0  0  0  0  0  0  0  0  0
   20.0041  -10.5020  -21.4869 O   0  0  0  0  0  0  0  0  0  0  0  0
   19.8103  -10.1518  -19.1046 C   0  0  0  0  0  0  0  0  0  0  0  0
   19.7561  -11.0914  -17.9216 C   0  0  2  0  0  0  0  0  0  0  0  0
   18.4574  -11.7228  -17.8732 N   0  0  0  0  0  0  0  0  0  0  0  0
   19.9811  -10.3848  -16.6394 C   0  0  0  0  0  0  0  0  0  0  0  0
   19.0059   -9.9283  -15.9496 O   0  0  0  0  0  0  0  0  0  0  0  0
   22.8403   -9.7832  -14.3166 C   0  0  0  0  0  0  0  0  0  0  0  0
   21.5161   -9.3520  -14.9226 C   0  0  2  0  0  0  0  0  0  0  0  0
   21.2776  -10.1684  -16.0948 N   0  0  0  0  0  0  0  0  0  0  0  0
   21.5160   -7.9044  -15.2506 C   0  0  0  0  0  0  0  0  0  0  0  0
   22.0636   -7.5215  -16.3136 O   0  0  0  0  0  0  0  0  0  0  0  0
   19.6124   -4.8558  -14.1933 C   0  0  0  0  0  0  0  0  0  0  0  0
   20.8166   -5.5335  -14.7545 C   0  0  2  0  0  0  0  0  0  0  0  0
   20.9259   -6.9206  -14.4215 N   0  0  0  0  0  0  0  0  0  0  0  0
   22.0364   -4.7690  -14.3634 C   0  0  0  0  0  0  0  0  0  0  0  0
   22.7095   -5.2121  -13.3989 O   0  0  0  0  0  0  0  0  0  0  0  0
   22.4491   -3.6296  -14.9935 O   0  0  0  0  0  0  0  0  0  0  0  0
  2  1  1  0
  3  2  2  0
  4  2  1  0
  5  4  1  0
  5  6  1  1
  7  5  1  0
  7  8  2  0
 10  9  1  6
 10 11  1  0
 10 12  1  0
 11  7  1  0
 12 13  2  0
 15 14  1  1
 15 17  1  0
 16 12  1  0
 16 15  1  0
 17 18  2  0
 17 19  1  0
M  END
$$$$
