NAA.pdb
     RDKit          3D

 19 18  0  0  1  0  0  0  0  0999 V2000
   16.9979  -11.3747  -18.7465 N   0  0  0  0  0  0  0  0  0  0  0  0
   16.5786  -10.2586  -17.9965 C   0  0  0  0  0  0  0  0  0  0  0  0
   15.5003   -9.7002  -18.3413 O   0  0  0  0  0  0  0  0  0  0  0  0
   17.3981   -9.7825  -16.8489 C   0  0  0  0  0  0  0  0  0  0  0  0
   18.5860  -10.7104  -16.7353 C   0  0  2  0  0  0  0  0  0  0  0  0
   18.2028  -11.8868  -15.9891 N   0  0  0  0  0  0  0  0  0  0  0  0
   19.7285  -10.0693  -16.0441 C   0  0  0  0  0  0  0  0  0  0  0  0
   19.7275   -9.8926  -14.7776 O   0  0  0  0  0  0  0  0  0  0  0  0
   23.2052   -9.0297  -16.9387 C   0  0  0  0  0  0  0  0  0  0  0  0
   21.9623   -8.8949  -16.0764 C   0  0  2  0  0  0  0  0  0  0  0  0
   20.8881   -9.6128  -16.7307 N   0  0  0  0  0  0  0  0  0  0  0  0
   21.6132   -7.4703  -15.8479 C   0  0  0  0  0  0  0  0  0  0  0  0
   20.9024   -6.8749  -16.6944 O   0  0  0  0  0  0  0  0  0  0  0  0
   21.5974   -5.1075  -12.9308 C   0  0  0  0  0  0  0  0  0  0  0  0
   21.6111   -5.4130  -14.3906 C   0  0  2  0  0  0  0  0  0  0  0  0
   22.0424   -6.7380  -14.7152 N   0  0  0  0  0  0  0  0  0  0  0  0
   22.4143   -4.3760  -15.1011 C   0  0  0  0  0  0  0  0  0  0  0  0
   23.6162   -4.6479  -15.3489 O   0  0  0  0  0  0  0  0  0  0  0  0
   21.9135   -3.1657  -15.4885 O   0  0  0  0  0  0  0  0  0  0  0  0
  2  1  1  0
  3  2  2  0
  4  2  1  0
  5  4  1  0
  5  6  1  1
  7  5  1  0
  7  8  2  0
 10  9  1  6
 10 11  1  0
 10 12  1  0
 11  7  1  0
 12 13  2  0
 15 14  1  1
 15 17  1  0
 16 12  1  0
 16 15  1  0
 17 18  2  0
 17 19  1  0
M  END
$$$$
