NAA.pdb
     RDKit          3D

 19 18  0  0  1  0  0  0  0  0999 V2000
   16.2240  -12.4328  -15.3775 N   0  0  0  0  0  0  0  0  0  0  0  0
   17.4830  -12.4282  -14.7460 C   0  0  0  0  0  0  0  0  0  0  0  0
   17.6864  -13.2955  -13.8518 O   0  0  0  0  0  0  0  0  0  0  0  0
   18.5105  -11.4266  -15.1416 C   0  0  0  0  0  0  0  0  0  0  0  0
   17.8825  -10.5347  -16.1882 C   0  0  2  0  0  0  0  0  0  0  0  0
   18.0010  -11.1630  -17.4838 N   0  0  0  0  0  0  0  0  0  0  0  0
   18.5348   -9.2063  -16.2508 C   0  0  0  0  0  0  0  0  0  0  0  0
   19.6663   -9.0455  -16.8244 O   0  0  0  0  0  0  0  0  0  0  0  0
   17.5075   -5.6981  -15.3899 C   0  0  0  0  0  0  0  0  0  0  0  0
   18.5458   -6.7192  -15.8209 C   0  0  2  0  0  0  0  0  0  0  0  0
   17.9567   -8.0353  -15.6859 N   0  0  0  0  0  0  0  0  0  0  0  0
   19.7940   -6.5909  -15.0279 C   0  0  0  0  0  0  0  0  0  0  0  0
   19.8645   -7.1557  -13.9088 O   0  0  0  0  0  0  0  0  0  0  0  0
   23.2965   -5.2366  -15.5947 C   0  0  0  0  0  0  0  0  0  0  0  0
   22.1812   -5.8153  -14.7912 C   0  0  2  0  0  0  0  0  0  0  0  0
   20.9219   -5.8584  -15.4690 N   0  0  0  0  0  0  0  0  0  0  0  0
   22.0886   -5.0930  -13.4893 C   0  0  0  0  0  0  0  0  0  0  0  0
   21.2797   -4.1336  -13.4189 O   0  0  0  0  0  0  0  0  0  0  0  0
   22.8288   -5.4197  -12.3889 O   0  0  0  0  0  0  0  0  0  0  0  0
  2  1  1  0
  3  2  2  0
  4  2  1  0
  5  4  1  0
  5  6  1  6
  7  5  1  0
  7  8  2  0
 10  9  1  1
 10 11  1  0
 10 12  1  0
 11  7  1  0
 12 13  2  0
 15 14  1  6
 15 17  1  0
 16 12  1  0
 16 15  1  0
 17 18  2  0
 17 19  1  0
M  END
$$$$
