NAA.pdb
     RDKit          3D

 19 18  0  0  1  0  0  0  0  0999 V2000
   18.2660  -13.2862  -15.7892 N   0  0  0  0  0  0  0  0  0  0  0  0
   17.8349  -12.6680  -16.9792 C   0  0  0  0  0  0  0  0  0  0  0  0
   17.4510  -13.4202  -17.9173 O   0  0  0  0  0  0  0  0  0  0  0  0
   17.8444  -11.1839  -17.0926 C   0  0  0  0  0  0  0  0  0  0  0  0
   18.4193  -10.6428  -15.8034 C   0  0  2  0  0  0  0  0  0  0  0  0
   17.3960  -10.6535  -14.7834 N   0  0  0  0  0  0  0  0  0  0  0  0
   18.9149   -9.2552  -15.9547 C   0  0  0  0  0  0  0  0  0  0  0  0
   20.0244   -9.0034  -16.5383 O   0  0  0  0  0  0  0  0  0  0  0  0
   17.5323   -5.8326  -15.2365 C   0  0  0  0  0  0  0  0  0  0  0  0
   18.6575   -6.7621  -15.6566 C   0  0  2  0  0  0  0  0  0  0  0  0
   18.2018   -8.1239  -15.4686 N   0  0  0  0  0  0  0  0  0  0  0  0
   19.9008   -6.4875  -14.8936 C   0  0  0  0  0  0  0  0  0  0  0  0
   20.0336   -6.9837  -13.7480 O   0  0  0  0  0  0  0  0  0  0  0  0
   23.2715   -4.8800  -15.5673 C   0  0  0  0  0  0  0  0  0  0  0  0
   22.1936   -5.4549  -14.7117 C   0  0  2  0  0  0  0  0  0  0  0  0
   20.9568   -5.6877  -15.3923 N   0  0  0  0  0  0  0  0  0  0  0  0
   22.0129   -4.5946  -13.5065 C   0  0  0  0  0  0  0  0  0  0  0  0
   21.0860   -3.7463  -13.5379 O   0  0  0  0  0  0  0  0  0  0  0  0
   22.7940   -4.6839  -12.3896 O   0  0  0  0  0  0  0  0  0  0  0  0
  2  1  1  0
  3  2  2  0
  4  2  1  0
  5  4  1  0
  5  6  1  1
  7  5  1  0
  7  8  2  0
 10  9  1  1
 10 11  1  0
 10 12  1  0
 11  7  1  0
 12 13  2  0
 15 14  1  6
 15 17  1  0
 16 12  1  0
 16 15  1  0
 17 18  2  0
 17 19  1  0
M  END
$$$$
