NAA.pdb
     RDKit          3D

 19 18  0  0  1  0  0  0  0  0999 V2000
   15.7852  -10.2138  -15.7145 N   0  0  0  0  0  0  0  0  0  0  0  0
   16.5709  -11.2804  -15.2359 C   0  0  0  0  0  0  0  0  0  0  0  0
   15.9782  -12.3616  -14.9658 O   0  0  0  0  0  0  0  0  0  0  0  0
   18.0393  -11.1058  -15.0669 C   0  0  0  0  0  0  0  0  0  0  0  0
   18.3556   -9.6629  -15.3879 C   0  0  2  0  0  0  0  0  0  0  0  0
   18.0560   -9.4067  -16.7780 N   0  0  0  0  0  0  0  0  0  0  0  0
   19.7813   -9.3396  -15.1492 C   0  0  0  0  0  0  0  0  0  0  0  0
   20.2860   -9.3776  -13.9749 O   0  0  0  0  0  0  0  0  0  0  0  0
   22.7933   -9.0399  -17.3145 C   0  0  0  0  0  0  0  0  0  0  0  0
   22.0960   -8.7858  -15.9895 C   0  0  2  0  0  0  0  0  0  0  0  0
   20.6741   -8.9702  -16.1937 N   0  0  0  0  0  0  0  0  0  0  0  0
   22.4058   -7.4322  -15.4649 C   0  0  0  0  0  0  0  0  0  0  0  0
   23.6009   -7.1319  -15.2245 O   0  0  0  0  0  0  0  0  0  0  0  0
   20.6017   -4.1406  -15.0140 C   0  0  0  0  0  0  0  0  0  0  0  0
   21.6821   -5.1301  -14.7348 C   0  0  2  0  0  0  0  0  0  0  0  0
   21.4166   -6.4504  -15.2179 N   0  0  0  0  0  0  0  0  0  0  0  0
   21.9889   -5.1224  -13.2749 C   0  0  0  0  0  0  0  0  0  0  0  0
   21.5556   -6.0831  -12.5900 O   0  0  0  0  0  0  0  0  0  0  0  0
   22.7063   -4.1372  -12.6581 O   0  0  0  0  0  0  0  0  0  0  0  0
  2  1  1  0
  3  2  2  0
  4  2  1  0
  5  4  1  0
  5  6  1  6
  7  5  1  0
  7  8  2  0
 10  9  1  6
 10 11  1  0
 10 12  1  0
 11  7  1  0
 12 13  2  0
 15 14  1  1
 15 17  1  0
 16 12  1  0
 16 15  1  0
 17 18  2  0
 17 19  1  0
M  END
$$$$
