NAA.pdb
     RDKit          3D

 19 18  0  0  1  0  0  0  0  0999 V2000
   22.9902  -11.6151  -22.0482 N   0  0  0  0  0  0  0  0  0  0  0  0
   22.7527  -10.2472  -21.8108 C   0  0  0  0  0  0  0  0  0  0  0  0
   23.2846   -9.4204  -22.6025 O   0  0  0  0  0  0  0  0  0  0  0  0
   21.9033   -9.8275  -20.6629 C   0  0  0  0  0  0  0  0  0  0  0  0
   22.6303   -8.7046  -19.9588 C   0  0  2  0  0  0  0  0  0  0  0  0
   23.8462   -9.2181  -19.3710 N   0  0  0  0  0  0  0  0  0  0  0  0
   21.8104   -8.0990  -18.8840 C   0  0  0  0  0  0  0  0  0  0  0  0
   20.7578   -7.4230  -19.1490 O   0  0  0  0  0  0  0  0  0  0  0  0
   21.7881   -8.2518  -15.1304 C   0  0  0  0  0  0  0  0  0  0  0  0
   21.3188   -7.6594  -16.4477 C   0  0  2  0  0  0  0  0  0  0  0  0
   22.1322   -8.2255  -17.5038 N   0  0  0  0  0  0  0  0  0  0  0  0
   21.3914   -6.1769  -16.4317 C   0  0  0  0  0  0  0  0  0  0  0  0
   22.5003   -5.6200  -16.6234 O   0  0  0  0  0  0  0  0  0  0  0  0
   18.9552   -3.2742  -16.3667 C   0  0  0  0  0  0  0  0  0  0  0  0
   20.2937   -3.9166  -16.2253 C   0  0  2  0  0  0  0  0  0  0  0  0
   20.2665   -5.3470  -16.2096 N   0  0  0  0  0  0  0  0  0  0  0  0
   20.9806   -3.3594  -15.0240 C   0  0  0  0  0  0  0  0  0  0  0  0
   21.0613   -4.0995  -14.0114 O   0  0  0  0  0  0  0  0  0  0  0  0
   21.5169   -2.1042  -14.9738 O   0  0  0  0  0  0  0  0  0  0  0  0
  2  1  1  0
  3  2  2  0
  4  2  1  0
  5  4  1  0
  5  6  1  1
  7  5  1  0
  7  8  2  0
 10  9  1  1
 10 11  1  0
 10 12  1  0
 11  7  1  0
 12 13  2  0
 15 14  1  1
 15 17  1  0
 16 12  1  0
 16 15  1  0
 17 18  2  0
 17 19  1  0
M  END
$$$$
