NAA.pdb
     RDKit          3D

 19 18  0  0  1  0  0  0  0  0999 V2000
   17.0767  -12.4150  -16.5734 N   0  0  0  0  0  0  0  0  0  0  0  0
   17.3256  -11.8000  -15.3309 C   0  0  0  0  0  0  0  0  0  0  0  0
   16.5278  -12.0562  -14.3869 O   0  0  0  0  0  0  0  0  0  0  0  0
   18.4921  -10.8894  -15.1715 C   0  0  0  0  0  0  0  0  0  0  0  0
   19.1884  -10.8197  -16.5115 C   0  0  2  0  0  0  0  0  0  0  0  0
   20.0552  -11.9662  -16.6588 N   0  0  0  0  0  0  0  0  0  0  0  0
   20.0072   -9.5931  -16.6497 C   0  0  0  0  0  0  0  0  0  0  0  0
   21.1795   -9.5136  -16.1451 O   0  0  0  0  0  0  0  0  0  0  0  0
   19.7671   -6.4228  -18.6280 C   0  0  0  0  0  0  0  0  0  0  0  0
   20.3529   -7.2378  -17.4882 C   0  0  2  0  0  0  0  0  0  0  0  0
   19.5531   -8.4363  -17.3426 N   0  0  0  0  0  0  0  0  0  0  0  0
   20.4018   -6.4523  -16.2296 C   0  0  0  0  0  0  0  0  0  0  0  0
   19.4258   -6.5048  -15.4416 O   0  0  0  0  0  0  0  0  0  0  0  0
   22.9341   -4.3957  -14.3020 C   0  0  0  0  0  0  0  0  0  0  0  0
   21.5599   -4.8302  -14.6856 C   0  0  2  0  0  0  0  0  0  0  0  0
   21.5007   -5.6383  -15.8648 N   0  0  0  0  0  0  0  0  0  0  0  0
   20.6770   -3.6320  -14.7866 C   0  0  0  0  0  0  0  0  0  0  0  0
   20.3263   -3.2702  -15.9380 O   0  0  0  0  0  0  0  0  0  0  0  0
   20.2394   -2.9218  -13.7051 O   0  0  0  0  0  0  0  0  0  0  0  0
  2  1  1  0
  3  2  2  0
  4  2  1  0
  5  4  1  0
  5  6  1  1
  7  5  1  0
  7  8  2  0
 10  9  1  6
 10 11  1  0
 10 12  1  0
 11  7  1  0
 12 13  2  0
 15 14  1  6
 15 17  1  0
 16 12  1  0
 16 15  1  0
 17 18  2  0
 17 19  1  0
M  END
$$$$
