NAA.pdb
     RDKit          3D

 19 18  0  0  1  0  0  0  0  0999 V2000
   18.5577  -16.5266  -14.9384 N   0  0  0  0  0  0  0  0  0  0  0  0
   17.8138  -15.3320  -14.9977 C   0  0  0  0  0  0  0  0  0  0  0  0
   16.5969  -15.3897  -14.6678 O   0  0  0  0  0  0  0  0  0  0  0  0
   18.4678  -14.0689  -15.4364 C   0  0  0  0  0  0  0  0  0  0  0  0
   17.5538  -13.4249  -16.4539 C   0  0  2  0  0  0  0  0  0  0  0  0
   17.5603  -14.2111  -17.6661 N   0  0  0  0  0  0  0  0  0  0  0  0
   17.9781  -12.0457  -16.7883 C   0  0  0  0  0  0  0  0  0  0  0  0
   18.9823  -11.8227  -17.5478 O   0  0  0  0  0  0  0  0  0  0  0  0
   16.5647   -8.6116  -16.2480 C   0  0  0  0  0  0  0  0  0  0  0  0
   17.6975   -9.5414  -16.6464 C   0  0  2  0  0  0  0  0  0  0  0  0
   17.3080  -10.8914  -16.2953 N   0  0  0  0  0  0  0  0  0  0  0  0
   18.9737   -9.1502  -15.9969 C   0  0  0  0  0  0  0  0  0  0  0  0
   19.2359   -9.5965  -14.8530 O   0  0  0  0  0  0  0  0  0  0  0  0
   22.0578   -7.1093  -16.8869 C   0  0  0  0  0  0  0  0  0  0  0  0
   21.1259   -7.8372  -15.9779 C   0  0  2  0  0  0  0  0  0  0  0  0
   19.9219   -8.2919  -16.6031 N   0  0  0  0  0  0  0  0  0  0  0  0
   20.8469   -6.9908  -14.7816 C   0  0  0  0  0  0  0  0  0  0  0  0
   19.8426   -6.2367  -14.8309 O   0  0  0  0  0  0  0  0  0  0  0  0
   21.6184   -6.9968  -13.6545 O   0  0  0  0  0  0  0  0  0  0  0  0
  2  1  1  0
  3  2  2  0
  4  2  1  0
  5  4  1  0
  5  6  1  6
  7  5  1  0
  7  8  2  0
 10  9  1  1
 10 11  1  0
 10 12  1  0
 11  7  1  0
 12 13  2  0
 15 14  1  6
 15 17  1  0
 16 12  1  0
 16 15  1  0
 17 18  2  0
 17 19  1  0
M  END
$$$$
