NAA.pdb
     RDKit          3D

 19 18  0  0  1  0  0  0  0  0999 V2000
   16.7157  -12.3822  -16.2189 N   0  0  0  0  0  0  0  0  0  0  0  0
   17.6146  -11.7049  -17.0657 C   0  0  0  0  0  0  0  0  0  0  0  0
   17.5053  -11.9061  -18.3071 O   0  0  0  0  0  0  0  0  0  0  0  0
   18.6407  -10.7951  -16.4870 C   0  0  0  0  0  0  0  0  0  0  0  0
   19.9193  -11.0159  -17.2627 C   0  0  2  0  0  0  0  0  0  0  0  0
   20.4741  -12.3029  -16.9114 N   0  0  0  0  0  0  0  0  0  0  0  0
   20.9322   -9.9747  -16.9732 C   0  0  0  0  0  0  0  0  0  0  0  0
   21.3032   -9.7199  -15.7764 O   0  0  0  0  0  0  0  0  0  0  0  0
   23.4868   -8.1270  -18.9214 C   0  0  0  0  0  0  0  0  0  0  0  0
   22.5656   -8.1997  -17.7162 C   0  0  2  0  0  0  0  0  0  0  0  0
   21.5531   -9.1981  -17.9911 N   0  0  0  0  0  0  0  0  0  0  0  0
   21.9656   -6.8765  -17.4120 C   0  0  0  0  0  0  0  0  0  0  0  0
   22.7108   -5.9477  -17.0141 O   0  0  0  0  0  0  0  0  0  0  0  0
   18.6083   -5.1846  -17.9102 C   0  0  0  0  0  0  0  0  0  0  0  0
   19.9870   -5.3149  -17.3565 C   0  0  2  0  0  0  0  0  0  0  0  0
   20.5838   -6.6012  -17.5475 N   0  0  0  0  0  0  0  0  0  0  0  0
   19.9787   -4.9125  -15.9201 C   0  0  0  0  0  0  0  0  0  0  0  0
   19.9800   -5.8327  -15.0639 O   0  0  0  0  0  0  0  0  0  0  0  0
   19.9698   -3.6133  -15.4988 O   0  0  0  0  0  0  0  0  0  0  0  0
  2  1  1  0
  3  2  2  0
  4  2  1  0
  5  4  1  0
  5  6  1  1
  7  5  1  0
  7  8  2  0
 10  9  1  6
 10 11  1  0
 10 12  1  0
 11  7  1  0
 12 13  2  0
 15 14  1  1
 15 17  1  0
 16 12  1  0
 16 15  1  0
 17 18  2  0
 17 19  1  0
M  END
$$$$
