NAA.pdb
     RDKit          3D

 19 18  0  0  1  0  0  0  0  0999 V2000
   14.3511  -11.3551  -14.2987 N   0  0  0  0  0  0  0  0  0  0  0  0
   15.2702  -10.9501  -15.2862 C   0  0  0  0  0  0  0  0  0  0  0  0
   14.9673  -11.1804  -16.4897 O   0  0  0  0  0  0  0  0  0  0  0  0
   16.5392  -10.2797  -14.8917 C   0  0  0  0  0  0  0  0  0  0  0  0
   17.5705  -10.6266  -15.9413 C   0  0  2  0  0  0  0  0  0  0  0  0
   18.1162  -11.9345  -15.6599 N   0  0  0  0  0  0  0  0  0  0  0  0
   18.6846   -9.6509  -15.9701 C   0  0  0  0  0  0  0  0  0  0  0  0
   19.6790   -9.7506  -15.1723 O   0  0  0  0  0  0  0  0  0  0  0  0
   19.7365   -6.8703  -18.2518 C   0  0  0  0  0  0  0  0  0  0  0  0
   19.8312   -7.6196  -16.9341 C   0  0  2  0  0  0  0  0  0  0  0  0
   18.7249   -8.5523  -16.8733 N   0  0  0  0  0  0  0  0  0  0  0  0
   19.8292   -6.6872  -15.7791 C   0  0  0  0  0  0  0  0  0  0  0  0
   18.7302   -6.3186  -15.2968 O   0  0  0  0  0  0  0  0  0  0  0  0
   22.3682   -5.2210  -13.3762 C   0  0  0  0  0  0  0  0  0  0  0  0
   21.0462   -5.2988  -14.0622 C   0  0  2  0  0  0  0  0  0  0  0  0
   21.0117   -6.1850  -15.1849 N   0  0  0  0  0  0  0  0  0  0  0  0
   20.6003   -3.9223  -14.4251 C   0  0  0  0  0  0  0  0  0  0  0  0
   20.6521   -3.6013  -15.6392 O   0  0  0  0  0  0  0  0  0  0  0  0
   20.1461   -3.0101  -13.5157 O   0  0  0  0  0  0  0  0  0  0  0  0
  2  1  1  0
  3  2  2  0
  4  2  1  0
  5  4  1  0
  5  6  1  1
  7  5  1  0
  7  8  2  0
 10  9  1  6
 10 11  1  0
 10 12  1  0
 11  7  1  0
 12 13  2  0
 15 14  1  6
 15 17  1  0
 16 12  1  0
 16 15  1  0
 17 18  2  0
 17 19  1  0
M  END
$$$$
