VRA.pdb
     RDKit          3D

 24 23  0  0  1  0  0  0  0  0999 V2000
   28.5920  -17.9894  -16.1595 C   0  0  0  0  0  0  0  0  0  0  0  0
   27.7597  -18.1464  -17.4625 C   0  0  2  0  0  0  0  0  0  0  0  0
   28.0444  -16.8858  -18.2550 C   0  0  0  0  0  0  0  0  0  0  0  0
   26.3525  -18.2947  -17.0198 C   0  0  2  0  0  0  0  0  0  0  0  0
   25.8602  -16.9601  -16.6481 N   0  0  0  0  0  0  0  0  0  0  0  0
   26.0826  -19.2179  -15.9087 C   0  0  0  0  0  0  0  0  0  0  0  0
   26.2514  -20.4762  -16.0996 O   0  0  0  0  0  0  0  0  0  0  0  0
   22.8290  -20.5812   -9.6367 N   0  0  0  0  0  0  0  0  0  0  0  0
   23.7790  -21.0274   -8.7026 C   0  0  0  0  0  0  0  0  0  0  0  0
   23.3798  -21.7192   -7.6636 N   0  0  0  0  0  0  0  0  0  0  0  0
   25.1616  -20.7370   -8.8724 N   0  0  0  0  0  0  0  0  0  0  0  0
   25.5194  -19.8722   -9.9823 C   0  0  0  0  0  0  0  0  0  0  0  0
   25.6577  -20.6393  -11.2725 C   0  0  0  0  0  0  0  0  0  0  0  0
   26.1184  -19.8289  -12.4252 C   0  0  0  0  0  0  0  0  0  0  0  0
   25.2223  -19.8718  -13.6310 C   0  0  2  0  0  0  0  0  0  0  0  0
   25.6501  -18.8726  -14.6201 N   0  0  0  0  0  0  0  0  0  0  0  0
   23.7838  -19.7688  -13.3421 C   0  0  0  0  0  0  0  0  0  0  0  0
   23.2516  -18.6535  -13.0979 O   0  0  0  0  0  0  0  0  0  0  0  0
   24.0315  -22.0164   -6.9222 C   0  0  0  0  0  0  0  0  0  0  0  0
   21.1965  -19.4513  -12.3209 C   0  0  2  0  0  0  0  0  0  0  0  0
   21.4855  -20.7162  -13.0933 N   0  0  0  0  0  0  0  0  0  0  0  0
   22.9030  -20.8849  -13.3151 C   0  0  0  0  0  0  0  0  0  0  0  0
   20.7307  -20.7056  -14.3708 O   0  0  0  0  0  0  0  0  0  0  0  0
   21.3570  -20.6443  -15.4589 O   0  0  0  0  0  0  0  0  0  0  0  0
  2  1  1  1
  2  3  1  0
  4  2  1  0
  4  6  1  0
  4  5  1  1
  6  7  2  0
  9  8  1  0
  9 11  1  0
 10  9  2  0
 12 11  1  0
 13 12  1  0
 14 13  1  0
 15 14  1  1
 16  6  1  0
 16 15  1  0
 17 18  2  0
 17 15  1  0
 20 19  1  1
 20 21  1  0
 21 17  1  0
 22 24  1  0
 22 20  1  0
 23 22  2  0
M  END
$$$$
