VRA.pdb
     RDKit          3D

 24 23  0  0  1  0  0  0  0  0999 V2000
   26.6297  -12.3937  -20.8194 C   0  0  0  0  0  0  0  0  0  0  0  0
   27.9151  -13.0920  -21.3442 C   0  0  2  0  0  0  0  0  0  0  0  0
   27.5505  -14.5614  -21.4210 C   0  0  0  0  0  0  0  0  0  0  0  0
   28.9742  -12.7677  -20.3587 C   0  0  2  0  0  0  0  0  0  0  0  0
   28.6294  -13.4404  -19.0977 N   0  0  0  0  0  0  0  0  0  0  0  0
   29.2288  -11.3481  -20.0759 C   0  0  0  0  0  0  0  0  0  0  0  0
   29.5989  -10.5857  -21.0402 O   0  0  0  0  0  0  0  0  0  0  0  0
   23.2284   -6.8132  -18.8220 N   0  0  0  0  0  0  0  0  0  0  0  0
   23.6427   -7.2171  -20.1024 C   0  0  0  0  0  0  0  0  0  0  0  0
   22.8156   -7.0946  -21.1116 N   0  0  0  0  0  0  0  0  0  0  0  0
   24.9433   -7.7547  -20.3127 N   0  0  0  0  0  0  0  0  0  0  0  0
   25.8169   -7.8316  -19.1557 C   0  0  0  0  0  0  0  0  0  0  0  0
   27.1334   -8.4872  -19.4863 C   0  0  0  0  0  0  0  0  0  0  0  0
   28.0964   -8.5386  -18.3603 C   0  0  0  0  0  0  0  0  0  0  0  0
   29.3747   -9.2740  -18.6503 C   0  0  2  0  0  0  0  0  0  0  0  0
   29.1079  -10.7075  -18.8343 N   0  0  0  0  0  0  0  0  0  0  0  0
   30.4592   -9.0431  -17.6840 C   0  0  0  0  0  0  0  0  0  0  0  0
   30.4101   -9.5376  -16.5265 O   0  0  0  0  0  0  0  0  0  0  0  0
   23.0996   -7.3078  -22.0794 C   0  0  0  0  0  0  0  0  0  0  0  0
   33.9895   -7.8204  -17.6150 C   0  0  1  0  0  0  0  0  0  0  0  0
   32.6438   -8.0611  -16.9735 N   0  0  0  0  0  0  0  0  0  0  0  0
   31.6161   -8.2664  -17.9678 C   0  0  0  0  0  0  0  0  0  0  0  0
   32.3113   -6.9319  -16.0701 O   0  0  0  0  0  0  0  0  0  0  0  0
   31.4166   -6.1149  -16.4044 O   0  0  0  0  0  0  0  0  0  0  0  0
  2  1  1  1
  2  3  1  0
  4  2  1  0
  4  6  1  0
  4  5  1  1
  6  7  2  0
  9  8  1  0
  9 11  1  0
 10  9  2  0
 12 11  1  0
 13 12  1  0
 14 13  1  0
 15 14  1  1
 16  6  1  0
 16 15  1  0
 17 18  2  0
 17 15  1  0
 20 19  1  1
 20 21  1  0
 21 17  1  0
 22 24  1  0
 22 20  1  0
 23 22  2  0
M  END
$$$$
