VRA.pdb
     RDKit          3D

 24 23  0  0  1  0  0  0  0  0999 V2000
   22.6951  -38.7280  -13.1036 C   0  0  0  0  0  0  0  0  0  0  0  0
   22.5101  -37.3594  -13.8162 C   0  0  2  0  0  0  0  0  0  0  0  0
   23.7888  -37.1609  -14.6058 C   0  0  0  0  0  0  0  0  0  0  0  0
   22.2931  -36.3725  -12.7313 C   0  0  2  0  0  0  0  0  0  0  0  0
   21.9021  -35.1013  -13.3579 N   0  0  0  0  0  0  0  0  0  0  0  0
   23.4106  -36.1154  -11.8120 C   0  0  0  0  0  0  0  0  0  0  0  0
   24.2377  -35.1758  -12.0971 O   0  0  0  0  0  0  0  0  0  0  0  0
   24.9118  -33.9078   -5.2962 N   0  0  0  0  0  0  0  0  0  0  0  0
   25.9332  -32.9823   -5.5689 C   0  0  0  0  0  0  0  0  0  0  0  0
   26.7018  -32.5699   -4.5908 N   0  0  0  0  0  0  0  0  0  0  0  0
   26.1398  -32.4912   -6.8884 N   0  0  0  0  0  0  0  0  0  0  0  0
   25.2124  -32.9432   -7.9098 C   0  0  0  0  0  0  0  0  0  0  0  0
   25.4233  -34.3941   -8.2601 C   0  0  0  0  0  0  0  0  0  0  0  0
   24.5182  -34.9118   -9.3140 C   0  0  0  0  0  0  0  0  0  0  0  0
   24.7203  -36.3575   -9.6715 C   0  0  2  0  0  0  0  0  0  0  0  0
   23.6863  -36.7980  -10.6184 N   0  0  0  0  0  0  0  0  0  0  0  0
   24.8331  -37.2728   -8.5258 C   0  0  0  0  0  0  0  0  0  0  0  0
   23.8605  -37.4559   -7.7465 O   0  0  0  0  0  0  0  0  0  0  0  0
   27.3985  -31.8215   -4.7220 C   0  0  0  0  0  0  0  0  0  0  0  0
   25.9186  -38.0836   -5.7755 C   0  0  2  0  0  0  0  0  0  0  0  0
   26.0747  -38.8671   -7.0568 N   0  0  0  0  0  0  0  0  0  0  0  0
   26.0124  -38.0031   -8.2129 C   0  0  0  0  0  0  0  0  0  0  0  0
   25.0468  -39.9355   -7.1181 O   0  0  0  0  0  0  0  0  0  0  0  0
   24.2604  -39.9821   -8.0976 O   0  0  0  0  0  0  0  0  0  0  0  0
  2  1  1  1
  2  3  1  0
  4  2  1  0
  4  6  1  0
  4  5  1  6
  6  7  2  0
  9  8  1  0
  9 11  1  0
 10  9  2  0
 12 11  1  0
 13 12  1  0
 14 13  1  0
 15 14  1  1
 16  6  1  0
 16 15  1  0
 17 18  2  0
 17 15  1  0
 20 19  1  1
 20 21  1  0
 21 17  1  0
 22 24  1  0
 22 20  1  0
 23 22  2  0
M  END
$$$$
