VRA.pdb
     RDKit          3D

 24 23  0  0  1  0  0  0  0  0999 V2000
   21.9826  -24.6470  -16.6786 C   0  0  0  0  0  0  0  0  0  0  0  0
   20.8285  -25.2419  -15.8246 C   0  0  2  0  0  0  0  0  0  0  0  0
   20.1536  -24.0377  -15.1979 C   0  0  0  0  0  0  0  0  0  0  0  0
   21.4803  -26.1584  -14.8586 C   0  0  2  0  0  0  0  0  0  0  0  0
   22.1145  -27.2384  -15.6287 N   0  0  0  0  0  0  0  0  0  0  0  0
   20.6367  -26.7612  -13.8170 C   0  0  0  0  0  0  0  0  0  0  0  0
   19.7739  -27.6474  -14.1609 O   0  0  0  0  0  0  0  0  0  0  0  0
   23.4756  -31.3534   -8.1627 N   0  0  0  0  0  0  0  0  0  0  0  0
   23.2732  -31.7710   -9.4889 C   0  0  0  0  0  0  0  0  0  0  0  0
   23.7579  -32.9246   -9.8783 N   0  0  0  0  0  0  0  0  0  0  0  0
   22.5518  -30.9585  -10.4078 N   0  0  0  0  0  0  0  0  0  0  0  0
   21.8651  -29.8015   -9.8623 C   0  0  0  0  0  0  0  0  0  0  0  0
   21.1158  -29.0384  -10.9246 C   0  0  0  0  0  0  0  0  0  0  0  0
   20.4104  -27.8303  -10.4340 C   0  0  0  0  0  0  0  0  0  0  0  0
   19.6992  -27.0355  -11.4929 C   0  0  2  0  0  0  0  0  0  0  0  0
   20.6673  -26.4731  -12.4449 N   0  0  0  0  0  0  0  0  0  0  0  0
   18.7761  -26.0086  -10.9864 C   0  0  0  0  0  0  0  0  0  0  0  0
   19.1459  -24.8106  -10.8639 O   0  0  0  0  0  0  0  0  0  0  0  0
   23.5654  -33.3099  -10.8149 C   0  0  0  0  0  0  0  0  0  0  0  0
   17.3763  -24.5613   -8.8681 C   0  0  2  0  0  0  0  0  0  0  0  0
   16.6190  -25.2645   -9.9692 N   0  0  0  0  0  0  0  0  0  0  0  0
   17.4325  -26.2752  -10.6047 C   0  0  0  0  0  0  0  0  0  0  0  0
   16.1220  -24.2679  -10.9497 O   0  0  0  0  0  0  0  0  0  0  0  0
   16.4807  -24.3503  -12.1516 O   0  0  0  0  0  0  0  0  0  0  0  0
  2  1  1  6
  2  3  1  0
  4  2  1  0
  4  6  1  0
  4  5  1  6
  6  7  2  0
  9  8  1  0
  9 11  1  0
 10  9  2  0
 12 11  1  0
 13 12  1  0
 14 13  1  0
 15 14  1  1
 16  6  1  0
 16 15  1  0
 17 18  2  0
 17 15  1  0
 20 19  1  1
 20 21  1  0
 21 17  1  0
 22 24  1  0
 22 20  1  0
 23 22  2  0
M  END
$$$$
