VRA.pdb
     RDKit          3D

 24 23  0  0  1  0  0  0  0  0999 V2000
   26.9745  -16.1873  -16.0230 C   0  0  0  0  0  0  0  0  0  0  0  0
   27.1152  -17.0237  -17.3253 C   0  0  2  0  0  0  0  0  0  0  0  0
   25.7212  -17.0454  -17.9209 C   0  0  0  0  0  0  0  0  0  0  0  0
   27.6248  -18.3475  -16.8944 C   0  0  2  0  0  0  0  0  0  0  0  0
   27.9344  -19.1208  -18.1059 N   0  0  0  0  0  0  0  0  0  0  0  0
   26.7588  -19.1614  -16.0298 C   0  0  0  0  0  0  0  0  0  0  0  0
   25.7802  -19.7980  -16.5640 O   0  0  0  0  0  0  0  0  0  0  0  0
   23.5720  -19.6616   -9.4038 N   0  0  0  0  0  0  0  0  0  0  0  0
   23.7594  -20.9648   -8.9134 C   0  0  0  0  0  0  0  0  0  0  0  0
   22.8532  -21.4891   -8.1251 N   0  0  0  0  0  0  0  0  0  0  0  0
   24.9163  -21.7164   -9.2620 N   0  0  0  0  0  0  0  0  0  0  0  0
   25.8975  -21.0578  -10.1055 C   0  0  0  0  0  0  0  0  0  0  0  0
   25.3957  -20.8733  -11.5149 C   0  0  0  0  0  0  0  0  0  0  0  0
   26.3479  -20.1918  -12.4240 C   0  0  0  0  0  0  0  0  0  0  0  0
   25.8513  -19.9878  -13.8278 C   0  0  2  0  0  0  0  0  0  0  0  0
   26.8827  -19.3314  -14.6433 N   0  0  0  0  0  0  0  0  0  0  0  0
   24.5548  -19.3019  -13.9365 C   0  0  0  0  0  0  0  0  0  0  0  0
   24.4844  -18.0445  -13.9101 O   0  0  0  0  0  0  0  0  0  0  0  0
   22.9606  -22.4309   -7.7199 C   0  0  0  0  0  0  0  0  0  0  0  0
   22.1236  -18.5366  -15.6429 C   0  0  2  0  0  0  0  0  0  0  0  0
   22.0859  -19.2567  -14.3162 N   0  0  0  0  0  0  0  0  0  0  0  0
   23.3128  -19.9804  -14.0754 C   0  0  0  0  0  0  0  0  0  0  0  0
   20.9047  -20.1535  -14.2674 O   0  0  0  0  0  0  0  0  0  0  0  0
   21.0603  -21.3908  -14.4251 O   0  0  0  0  0  0  0  0  0  0  0  0
  2  1  1  1
  2  3  1  0
  4  2  1  0
  4  6  1  0
  4  5  1  6
  6  7  2  0
  9  8  1  0
  9 11  1  0
 10  9  2  0
 12 11  1  0
 13 12  1  0
 14 13  1  0
 15 14  1  1
 16  6  1  0
 16 15  1  0
 17 18  2  0
 17 15  1  0
 20 19  1  1
 20 21  1  0
 21 17  1  0
 22 24  1  0
 22 20  1  0
 23 22  2  0
M  END
$$$$
