VRA.pdb
     RDKit          3D

 24 23  0  0  1  0  0  0  0  0999 V2000
   27.4412  -17.5549  -16.7213 C   0  0  0  0  0  0  0  0  0  0  0  0
   25.9125  -17.5359  -17.0006 C   0  0  2  0  0  0  0  0  0  0  0  0
   25.4418  -16.1950  -16.4727 C   0  0  0  0  0  0  0  0  0  0  0  0
   25.3627  -18.7111  -16.2831 C   0  0  2  0  0  0  0  0  0  0  0  0
   25.2055  -19.7964  -17.2623 N   0  0  0  0  0  0  0  0  0  0  0  0
   24.0895  -18.5382  -15.5697 C   0  0  0  0  0  0  0  0  0  0  0  0
   24.1003  -17.9589  -14.4240 O   0  0  0  0  0  0  0  0  0  0  0  0
   17.0441  -14.6023  -17.3113 N   0  0  0  0  0  0  0  0  0  0  0  0
   18.0991  -14.2039  -16.4732 C   0  0  0  0  0  0  0  0  0  0  0  0
   18.3626  -12.9273  -16.3379 N   0  0  0  0  0  0  0  0  0  0  0  0
   18.8794  -15.1670  -15.7743 N   0  0  0  0  0  0  0  0  0  0  0  0
   18.4821  -16.5569  -15.9092 C   0  0  0  0  0  0  0  0  0  0  0  0
   19.4214  -17.4846  -15.1817 C   0  0  0  0  0  0  0  0  0  0  0  0
   20.6906  -17.7614  -15.8961 C   0  0  0  0  0  0  0  0  0  0  0  0
   21.6020  -18.7435  -15.2153 C   0  0  2  0  0  0  0  0  0  0  0  0
   22.8215  -18.9435  -16.0106 N   0  0  0  0  0  0  0  0  0  0  0  0
   20.9766  -20.0232  -14.8487 C   0  0  0  0  0  0  0  0  0  0  0  0
   20.7511  -20.9054  -15.7192 O   0  0  0  0  0  0  0  0  0  0  0  0
   19.1361  -12.5890  -15.7463 C   0  0  0  0  0  0  0  0  0  0  0  0
   20.0453  -21.9308  -11.7361 C   0  0  1  0  0  0  0  0  0  0  0  0
   19.9973  -21.6424  -13.2175 N   0  0  0  0  0  0  0  0  0  0  0  0
   20.5866  -20.3594  -13.5231 C   0  0  0  0  0  0  0  0  0  0  0  0
   18.5962  -21.7279  -13.6985 O   0  0  0  0  0  0  0  0  0  0  0  0
   18.0011  -20.6814  -14.0597 O   0  0  0  0  0  0  0  0  0  0  0  0
  2  1  1  1
  2  3  1  0
  4  2  1  0
  4  6  1  0
  4  5  1  6
  6  7  2  0
  9  8  1  0
  9 11  1  0
 10  9  2  0
 12 11  1  0
 13 12  1  0
 14 13  1  0
 15 14  1  6
 16  6  1  0
 16 15  1  0
 17 18  2  0
 17 15  1  0
 20 19  1  6
 20 21  1  0
 21 17  1  0
 22 24  1  0
 22 20  1  0
 23 22  2  0
M  END
$$$$
