VRA.pdb
     RDKit          3D

 24 23  0  0  1  0  0  0  0  0999 V2000
   28.8835  -17.9390  -16.5340 C   0  0  0  0  0  0  0  0  0  0  0  0
   28.4172  -18.0167  -18.0145 C   0  0  2  0  0  0  0  0  0  0  0  0
   28.9301  -16.7379  -18.6468 C   0  0  0  0  0  0  0  0  0  0  0  0
   26.9400  -18.1314  -17.9605 C   0  0  2  0  0  0  0  0  0  0  0  0
   26.3954  -16.7783  -17.7755 N   0  0  0  0  0  0  0  0  0  0  0  0
   26.3630  -19.0110  -16.9342 C   0  0  0  0  0  0  0  0  0  0  0  0
   26.3126  -20.2732  -17.1638 O   0  0  0  0  0  0  0  0  0  0  0  0
   26.0266  -19.1056   -9.8318 N   0  0  0  0  0  0  0  0  0  0  0  0
   25.5939  -20.4366   -9.7079 C   0  0  0  0  0  0  0  0  0  0  0  0
   24.7727  -20.7554   -8.7376 N   0  0  0  0  0  0  0  0  0  0  0  0
   26.0358  -21.4355  -10.6198 N   0  0  0  0  0  0  0  0  0  0  0  0
   26.9343  -21.0080  -11.6771 C   0  0  0  0  0  0  0  0  0  0  0  0
   26.2461  -20.9628  -13.0174 C   0  0  0  0  0  0  0  0  0  0  0  0
   25.8459  -19.6055  -13.4594 C   0  0  0  0  0  0  0  0  0  0  0  0
   25.1505  -19.5497  -14.7906 C   0  0  2  0  0  0  0  0  0  0  0  0
   25.8461  -18.6194  -15.6908 N   0  0  0  0  0  0  0  0  0  0  0  0
   23.7080  -19.2693  -14.7287 C   0  0  0  0  0  0  0  0  0  0  0  0
   23.2605  -18.1219  -14.9932 O   0  0  0  0  0  0  0  0  0  0  0  0
   24.4512  -21.7237   -8.5902 C   0  0  0  0  0  0  0  0  0  0  0  0
   21.0673  -18.6104  -15.1071 C   0  0  2  0  0  0  0  0  0  0  0  0
   21.3190  -19.9365  -14.4302 N   0  0  0  0  0  0  0  0  0  0  0  0
   22.7304  -20.2398  -14.3757 C   0  0  0  0  0  0  0  0  0  0  0  0
   20.5577  -21.0046  -15.1239 O   0  0  0  0  0  0  0  0  0  0  0  0
   21.1777  -21.9541  -15.6660 O   0  0  0  0  0  0  0  0  0  0  0  0
  2  1  1  1
  2  3  1  0
  4  2  1  0
  4  6  1  0
  4  5  1  1
  6  7  2  0
  9  8  1  0
  9 11  1  0
 10  9  2  0
 12 11  1  0
 13 12  1  0
 14 13  1  0
 15 14  1  1
 16  6  1  0
 16 15  1  0
 17 18  2  0
 17 15  1  0
 20 19  1  1
 20 21  1  0
 21 17  1  0
 22 24  1  0
 22 20  1  0
 23 22  2  0
M  END
$$$$
