VRA.pdb
     RDKit          3D

 24 23  0  0  1  0  0  0  0  0999 V2000
   27.5912  -18.0672  -18.9121 C   0  0  0  0  0  0  0  0  0  0  0  0
   27.9785  -17.2029  -17.6800 C   0  0  2  0  0  0  0  0  0  0  0  0
   29.0802  -17.9850  -16.9925 C   0  0  0  0  0  0  0  0  0  0  0  0
   26.7337  -17.0601  -16.8875 C   0  0  2  0  0  0  0  0  0  0  0  0
   26.9049  -15.9046  -15.9947 N   0  0  0  0  0  0  0  0  0  0  0  0
   26.3038  -18.2121  -16.0825 C   0  0  0  0  0  0  0  0  0  0  0  0
   25.8573  -19.2527  -16.6874 O   0  0  0  0  0  0  0  0  0  0  0  0
   24.6575  -19.5242   -8.6292 N   0  0  0  0  0  0  0  0  0  0  0  0
   24.6693  -20.9292   -8.6426 C   0  0  0  0  0  0  0  0  0  0  0  0
   23.8783  -21.5842   -7.8285 N   0  0  0  0  0  0  0  0  0  0  0  0
   25.5266  -21.6433   -9.5257 N   0  0  0  0  0  0  0  0  0  0  0  0
   26.3350  -20.8538  -10.4373 C   0  0  0  0  0  0  0  0  0  0  0  0
   25.5958  -20.5308  -11.7106 C   0  0  0  0  0  0  0  0  0  0  0  0
   26.3420  -19.6640  -12.6538 C   0  0  0  0  0  0  0  0  0  0  0  0
   25.6376  -19.3820  -13.9511 C   0  0  2  0  0  0  0  0  0  0  0  0
   26.3277  -18.3113  -14.6838 N   0  0  0  0  0  0  0  0  0  0  0  0
   24.1958  -19.1169  -13.8322 C   0  0  0  0  0  0  0  0  0  0  0  0
   23.7706  -18.1502  -13.1457 O   0  0  0  0  0  0  0  0  0  0  0  0
   23.8440  -22.6143   -7.8115 C   0  0  0  0  0  0  0  0  0  0  0  0
   21.0524  -19.5818  -15.5862 C   0  0  1  0  0  0  0  0  0  0  0  0
   21.7898  -19.6285  -14.2693 N   0  0  0  0  0  0  0  0  0  0  0  0
   23.1943  -19.9058  -14.4624 C   0  0  0  0  0  0  0  0  0  0  0  0
   21.1541  -20.6278  -13.3754 O   0  0  0  0  0  0  0  0  0  0  0  0
   20.0038  -20.4068  -12.9194 O   0  0  0  0  0  0  0  0  0  0  0  0
  2  1  1  6
  2  3  1  0
  4  2  1  0
  4  6  1  0
  4  5  1  1
  6  7  2  0
  9  8  1  0
  9 11  1  0
 10  9  2  0
 12 11  1  0
 13 12  1  0
 14 13  1  0
 15 14  1  1
 16  6  1  0
 16 15  1  0
 17 18  2  0
 17 15  1  0
 20 19  1  6
 20 21  1  0
 21 17  1  0
 22 24  1  0
 22 20  1  0
 23 22  2  0
M  END
$$$$
