VRA.pdb
     RDKit          3D

 24 23  0  0  1  0  0  0  0  0999 V2000
   27.4816  -20.3891  -16.9024 C   0  0  0  0  0  0  0  0  0  0  0  0
   26.2730  -20.4858  -17.8746 C   0  0  2  0  0  0  0  0  0  0  0  0
   26.6022  -19.5189  -18.9948 C   0  0  0  0  0  0  0  0  0  0  0  0
   25.0842  -20.1178  -17.0687 C   0  0  2  0  0  0  0  0  0  0  0  0
   25.0247  -18.6500  -17.0084 N   0  0  0  0  0  0  0  0  0  0  0  0
   25.0008  -20.6449  -15.6993 C   0  0  0  0  0  0  0  0  0  0  0  0
   24.8949  -21.9136  -15.5341 O   0  0  0  0  0  0  0  0  0  0  0  0
   29.6869  -21.5471   -9.3450 N   0  0  0  0  0  0  0  0  0  0  0  0
   30.1328  -21.7117  -10.6671 C   0  0  0  0  0  0  0  0  0  0  0  0
   31.1556  -22.4958  -10.9053 N   0  0  0  0  0  0  0  0  0  0  0  0
   29.4890  -21.0395  -11.7435 N   0  0  0  0  0  0  0  0  0  0  0  0
   28.2229  -20.3924  -11.4500 C   0  0  0  0  0  0  0  0  0  0  0  0
   27.1556  -20.7644  -12.4472 C   0  0  0  0  0  0  0  0  0  0  0  0
   25.8466  -20.1052  -12.2239 C   0  0  0  0  0  0  0  0  0  0  0  0
   24.7660  -20.4928  -13.1939 C   0  0  2  0  0  0  0  0  0  0  0  0
   25.0271  -19.8985  -14.5124 N   0  0  0  0  0  0  0  0  0  0  0  0
   23.3938  -20.2228  -12.7384 C   0  0  0  0  0  0  0  0  0  0  0  0
   22.8319  -19.1249  -12.9945 O   0  0  0  0  0  0  0  0  0  0  0  0
   31.5292  -22.6325  -11.8562 C   0  0  0  0  0  0  0  0  0  0  0  0
   21.1887  -19.5294  -10.8533 C   0  0  2  0  0  0  0  0  0  0  0  0
   21.2586  -20.8410  -11.5983 N   0  0  0  0  0  0  0  0  0  0  0  0
   22.6131  -21.1497  -11.9944 C   0  0  0  0  0  0  0  0  0  0  0  0
   20.3439  -20.8022  -12.7661 O   0  0  0  0  0  0  0  0  0  0  0  0
   20.8214  -20.8487  -13.9278 O   0  0  0  0  0  0  0  0  0  0  0  0
  2  1  1  1
  2  3  1  0
  4  2  1  0
  4  6  1  0
  4  5  1  1
  6  7  2  0
  9  8  1  0
  9 11  1  0
 10  9  2  0
 12 11  1  0
 13 12  1  0
 14 13  1  0
 15 14  1  1
 16  6  1  0
 16 15  1  0
 17 18  2  0
 17 15  1  0
 20 19  1  1
 20 21  1  0
 21 17  1  0
 22 24  1  0
 22 20  1  0
 23 22  2  0
M  END
$$$$
