VRA.pdb
     RDKit          3D

 24 23  0  0  1  0  0  0  0  0999 V2000
   16.8781  -12.8465  -12.7823 C   0  0  0  0  0  0  0  0  0  0  0  0
   16.9740  -11.3249  -13.0836 C   0  0  2  0  0  0  0  0  0  0  0  0
   18.3948  -11.1180  -13.5702 C   0  0  0  0  0  0  0  0  0  0  0  0
   16.6524  -10.6456  -11.8057 C   0  0  2  0  0  0  0  0  0  0  0  0
   15.2709  -11.0002  -11.4489 N   0  0  0  0  0  0  0  0  0  0  0  0
   16.7851   -9.1826  -11.7607 C   0  0  0  0  0  0  0  0  0  0  0  0
   16.0936   -8.4768  -12.5804 O   0  0  0  0  0  0  0  0  0  0  0  0
   14.1505   -3.8332   -9.1823 N   0  0  0  0  0  0  0  0  0  0  0  0
   13.7025   -4.7309   -8.1987 C   0  0  0  0  0  0  0  0  0  0  0  0
   12.4198   -4.8130   -7.9429 N   0  0  0  0  0  0  0  0  0  0  0  0
   14.6221   -5.5464   -7.4818 N   0  0  0  0  0  0  0  0  0  0  0  0
   16.0053   -5.5193   -7.9221 C   0  0  0  0  0  0  0  0  0  0  0  0
   16.1925   -6.2343   -9.2358 C   0  0  0  0  0  0  0  0  0  0  0  0
   17.5989   -6.3183   -9.6970 C   0  0  0  0  0  0  0  0  0  0  0  0
   17.7926   -6.9913  -11.0268 C   0  0  2  0  0  0  0  0  0  0  0  0
   17.6048   -8.4429  -10.8960 N   0  0  0  0  0  0  0  0  0  0  0  0
   19.0530   -6.6662  -11.7118 C   0  0  0  0  0  0  0  0  0  0  0  0
   20.1278   -7.2420  -11.3957 O   0  0  0  0  0  0  0  0  0  0  0  0
   12.0323   -5.5375   -7.3203 C   0  0  0  0  0  0  0  0  0  0  0  0
   21.5843   -5.4655  -12.6305 C   0  0  2  0  0  0  0  0  0  0  0  0
   20.3723   -5.5658  -13.5256 N   0  0  0  0  0  0  0  0  0  0  0  0
   19.1587   -5.7049  -12.7544 C   0  0  0  0  0  0  0  0  0  0  0  0
   20.5457   -6.6904  -14.4780 O   0  0  0  0  0  0  0  0  0  0  0  0
   21.5315   -6.6945  -15.2577 O   0  0  0  0  0  0  0  0  0  0  0  0
  2  1  1  1
  2  3  1  0
  4  2  1  0
  4  6  1  0
  4  5  1  6
  6  7  2  0
  9  8  1  0
  9 11  1  0
 10  9  2  0
 12 11  1  0
 13 12  1  0
 14 13  1  0
 15 14  1  1
 16  6  1  0
 16 15  1  0
 17 18  2  0
 17 15  1  0
 20 19  1  1
 20 21  1  0
 21 17  1  0
 22 24  1  0
 22 20  1  0
 23 22  2  0
M  END
$$$$
