VRA.pdb
     RDKit          3D

 24 23  0  0  1  0  0  0  0  0999 V2000
   28.4710  -22.6477  -15.4476 C   0  0  0  0  0  0  0  0  0  0  0  0
   28.1047  -22.5884  -16.9567 C   0  0  2  0  0  0  0  0  0  0  0  0
   29.3202  -21.9753  -17.6237 C   0  0  0  0  0  0  0  0  0  0  0  0
   26.8743  -21.7650  -17.0351 C   0  0  2  0  0  0  0  0  0  0  0  0
   27.2641  -20.3623  -16.8303 N   0  0  0  0  0  0  0  0  0  0  0  0
   25.7808  -22.0858  -16.1072 C   0  0  0  0  0  0  0  0  0  0  0  0
   25.1977  -23.2245  -16.2140 O   0  0  0  0  0  0  0  0  0  0  0  0
   23.9519  -19.5035   -9.9602 N   0  0  0  0  0  0  0  0  0  0  0  0
   24.1427  -20.7729   -9.3888 C   0  0  0  0  0  0  0  0  0  0  0  0
   23.3769  -21.1493   -8.3941 N   0  0  0  0  0  0  0  0  0  0  0  0
   25.1532  -21.6482   -9.8763 N   0  0  0  0  0  0  0  0  0  0  0  0
   26.0838  -21.1006  -10.8468 C   0  0  0  0  0  0  0  0  0  0  0  0
   25.8050  -21.6029  -12.2404 C   0  0  0  0  0  0  0  0  0  0  0  0
   24.4791  -21.2182  -12.7806 C   0  0  0  0  0  0  0  0  0  0  0  0
   24.2032  -21.6871  -14.1816 C   0  0  2  0  0  0  0  0  0  0  0  0
   25.2852  -21.2663  -15.0827 N   0  0  0  0  0  0  0  0  0  0  0  0
   22.8812  -21.3208  -14.7121 C   0  0  0  0  0  0  0  0  0  0  0  0
   22.6489  -20.1512  -15.1181 O   0  0  0  0  0  0  0  0  0  0  0  0
   23.4089  -22.1062   -8.0120 C   0  0  0  0  0  0  0  0  0  0  0  0
   19.6566  -22.9757  -15.7258 C   0  0  1  0  0  0  0  0  0  0  0  0
   20.4987  -21.7999  -15.2918 N   0  0  0  0  0  0  0  0  0  0  0  0
   21.7904  -22.2282  -14.8069 C   0  0  0  0  0  0  0  0  0  0  0  0
   19.7668  -21.0104  -14.2706 O   0  0  0  0  0  0  0  0  0  0  0  0
   20.1045  -21.0966  -13.0629 O   0  0  0  0  0  0  0  0  0  0  0  0
  2  1  1  1
  2  3  1  0
  4  2  1  0
  4  6  1  0
  4  5  1  1
  6  7  2  0
  9  8  1  0
  9 11  1  0
 10  9  2  0
 12 11  1  0
 13 12  1  0
 14 13  1  0
 15 14  1  1
 16  6  1  0
 16 15  1  0
 17 18  2  0
 17 15  1  0
 20 19  1  6
 20 21  1  0
 21 17  1  0
 22 24  1  0
 22 20  1  0
 23 22  2  0
M  END
$$$$
