VRA.pdb
     RDKit          3D

 24 23  0  0  1  0  0  0  0  0999 V2000
   25.7592  -21.7250  -10.7617 C   0  0  0  0  0  0  0  0  0  0  0  0
   25.0340  -20.4148  -10.3462 C   0  0  2  0  0  0  0  0  0  0  0  0
   24.8797  -20.5210   -8.8419 C   0  0  0  0  0  0  0  0  0  0  0  0
   23.7577  -20.4105  -11.1006 C   0  0  2  0  0  0  0  0  0  0  0  0
   22.9394  -21.5231  -10.5966 N   0  0  0  0  0  0  0  0  0  0  0  0
   23.8326  -20.5122  -12.5648 C   0  0  0  0  0  0  0  0  0  0  0  0
   23.9832  -21.6722  -13.0939 O   0  0  0  0  0  0  0  0  0  0  0  0
   20.6013  -21.9542  -16.4289 N   0  0  0  0  0  0  0  0  0  0  0  0
   19.5246  -21.0537  -16.4912 C   0  0  0  0  0  0  0  0  0  0  0  0
   18.4541  -21.3814  -17.1725 N   0  0  0  0  0  0  0  0  0  0  0  0
   19.5847  -19.7972  -15.8260 N   0  0  0  0  0  0  0  0  0  0  0  0
   20.8522  -19.4370  -15.2164 C   0  0  0  0  0  0  0  0  0  0  0  0
   21.8511  -18.9542  -16.2368 C   0  0  0  0  0  0  0  0  0  0  0  0
   23.1654  -18.5610  -15.6748 C   0  0  0  0  0  0  0  0  0  0  0  0
   23.8903  -19.6484  -14.9325 C   0  0  2  0  0  0  0  0  0  0  0  0
   23.7534  -19.4545  -13.4822 N   0  0  0  0  0  0  0  0  0  0  0  0
   25.2947  -19.8409  -15.3247 C   0  0  0  0  0  0  0  0  0  0  0  0
   26.2053  -19.1150  -14.8446 O   0  0  0  0  0  0  0  0  0  0  0  0
   17.6279  -20.7667  -17.2206 C   0  0  0  0  0  0  0  0  0  0  0  0
   27.8111  -21.6181  -15.2538 C   0  0  1  0  0  0  0  0  0  0  0  0
   27.1308  -21.0734  -16.4870 N   0  0  0  0  0  0  0  0  0  0  0  0
   25.7266  -20.8310  -16.2495 C   0  0  0  0  0  0  0  0  0  0  0  0
   27.3394  -22.0027  -17.6249 O   0  0  0  0  0  0  0  0  0  0  0  0
   26.3444  -22.5283  -18.1848 O   0  0  0  0  0  0  0  0  0  0  0  0
  2  1  1  6
  2  3  1  0
  4  2  1  0
  4  6  1  0
  4  5  1  1
  6  7  2  0
  9  8  1  0
  9 11  1  0
 10  9  2  0
 12 11  1  0
 13 12  1  0
 14 13  1  0
 15 14  1  6
 16  6  1  0
 16 15  1  0
 17 18  2  0
 17 15  1  0
 20 19  1  1
 20 21  1  0
 21 17  1  0
 22 24  1  0
 22 20  1  0
 23 22  2  0
M  END
$$$$
