VRA.pdb
     RDKit          3D

 24 23  0  0  1  0  0  0  0  0999 V2000
   37.7478   -9.2913  -15.8795 C   0  0  0  0  0  0  0  0  0  0  0  0
   36.5625   -9.2393  -14.8758 C   0  0  2  0  0  0  0  0  0  0  0  0
   35.8526  -10.5675  -15.0498 C   0  0  0  0  0  0  0  0  0  0  0  0
   35.7623   -8.0540  -15.2666 C   0  0  2  0  0  0  0  0  0  0  0  0
   35.0659   -7.5716  -14.0651 N   0  0  0  0  0  0  0  0  0  0  0  0
   34.7748   -8.2242  -16.3417 C   0  0  0  0  0  0  0  0  0  0  0  0
   35.1936   -8.3255  -17.5511 O   0  0  0  0  0  0  0  0  0  0  0  0
   28.4545  -13.5358  -18.1337 N   0  0  0  0  0  0  0  0  0  0  0  0
   29.8244  -13.4861  -18.4418 C   0  0  0  0  0  0  0  0  0  0  0  0
   30.4522  -14.5944  -18.7500 N   0  0  0  0  0  0  0  0  0  0  0  0
   30.5325  -12.2520  -18.4223 N   0  0  0  0  0  0  0  0  0  0  0  0
   29.7592  -11.0558  -18.1411 C   0  0  0  0  0  0  0  0  0  0  0  0
   30.5906   -9.8048  -18.2675 C   0  0  0  0  0  0  0  0  0  0  0  0
   31.6127   -9.6342  -17.2073 C   0  0  0  0  0  0  0  0  0  0  0  0
   32.4668   -8.4047  -17.3397 C   0  0  2  0  0  0  0  0  0  0  0  0
   33.3819   -8.2937  -16.1951 N   0  0  0  0  0  0  0  0  0  0  0  0
   31.7272   -7.1539  -17.5672 C   0  0  0  0  0  0  0  0  0  0  0  0
   30.9913   -6.6654  -16.6690 O   0  0  0  0  0  0  0  0  0  0  0  0
   31.4641  -14.6125  -18.9460 C   0  0  0  0  0  0  0  0  0  0  0  0
   31.7693   -4.2388  -19.8838 C   0  0  1  0  0  0  0  0  0  0  0  0
   31.0570   -5.1752  -18.9373 N   0  0  0  0  0  0  0  0  0  0  0  0
   31.7798   -6.4163  -18.7819 C   0  0  0  0  0  0  0  0  0  0  0  0
   29.6704   -5.4071  -19.4123 O   0  0  0  0  0  0  0  0  0  0  0  0
   29.3926   -6.4759  -20.0125 O   0  0  0  0  0  0  0  0  0  0  0  0
  2  1  1  6
  2  3  1  0
  4  2  1  0
  4  6  1  0
  4  5  1  1
  6  7  2  0
  9  8  1  0
  9 11  1  0
 10  9  2  0
 12 11  1  0
 13 12  1  0
 14 13  1  0
 15 14  1  1
 16  6  1  0
 16 15  1  0
 17 18  2  0
 17 15  1  0
 20 19  1  1
 20 21  1  0
 21 17  1  0
 22 24  1  0
 22 20  1  0
 23 22  2  0
M  END
$$$$
