MVS.pdb
     RDKit          3D

 22 21  0  0  1  0  0  0  0  0999 V2000
   29.0519  -12.2350  -17.4114 C   0  0  0  0  0  0  0  0  0  0  0  0
   28.6687  -12.7400  -15.7122 S   0  0  0  0  0  0  0  0  0  0  0  0
   26.9146  -13.2777  -15.7084 C   0  0  0  0  0  0  0  0  0  0  0  0
   26.1174  -12.1355  -16.2539 C   0  0  0  0  0  0  0  0  0  0  0  0
   24.6660  -12.5323  -16.3740 C   0  0  2  0  0  0  0  0  0  0  0  0
   24.5767  -13.5538  -17.4345 N   0  0  0  0  0  0  0  0  0  0  0  0
   23.8818  -11.3584  -16.8140 C   0  0  0  0  0  0  0  0  0  0  0  0
   23.8099  -10.9480  -17.9951 O   0  0  0  0  0  0  0  0  0  0  0  0
   20.6807  -10.4083  -14.7706 C   0  0  0  0  0  0  0  0  0  0  0  0
   20.9205   -9.8795  -16.1896 C   0  0  1  0  0  0  0  0  0  0  0  0
   20.0141   -8.7117  -16.3874 C   0  0  0  0  0  0  0  0  0  0  0  0
   22.3943   -9.4778  -16.2265 C   0  0  2  0  0  0  0  0  0  0  0  0
   23.1466  -10.6244  -15.8488 N   0  0  0  0  0  0  0  0  0  0  0  0
   22.6540   -8.2851  -15.4011 C   0  0  0  0  0  0  0  0  0  0  0  0
   22.7339   -8.3383  -14.1508 O   0  0  0  0  0  0  0  0  0  0  0  0
   22.9065   -4.7286  -17.2293 O   0  0  0  0  0  0  0  0  0  0  0  0
   23.7017   -4.7461  -16.0685 C   0  0  0  0  0  0  0  0  0  0  0  0
   23.1530   -5.8721  -15.2119 C   0  0  2  0  0  0  0  0  0  0  0  0
   22.8236   -7.0176  -16.0188 N   0  0  0  0  0  0  0  0  0  0  0  0
   21.9557   -5.3523  -14.5028 C   0  0  0  0  0  0  0  0  0  0  0  0
   22.0425   -4.4828  -13.6123 O   0  0  0  0  0  0  0  0  0  0  0  0
   20.7066   -5.8500  -14.8435 O   0  0  0  0  0  0  0  0  0  0  0  0
  1  2  1  0
  2  3  1  0
  4  3  1  0
  5  6  1  6
  5  4  1  0
  7  5  1  0
  8  7  2  0
 10  9  1  1
 10 12  1  0
 11 10  1  0
 12 13  1  1
 12 14  1  0
 13  7  1  0
 14 19  1  0
 15 14  2  0
 16 17  1  0
 18 17  1  6
 18 20  1  0
 19 18  1  0
 20 21  2  0
 20 22  1  0
M  END
$$$$
