MVS.pdb
     RDKit          3D

 22 21  0  0  1  0  0  0  0  0999 V2000
   27.2093  -19.2507   -5.6952 C   0  0  0  0  0  0  0  0  0  0  0  0
   27.0404  -18.8779   -7.4620 S   0  0  0  0  0  0  0  0  0  0  0  0
   26.3793  -20.3936   -8.2566 C   0  0  0  0  0  0  0  0  0  0  0  0
   26.2959  -20.1050   -9.7221 C   0  0  0  0  0  0  0  0  0  0  0  0
   25.7445  -21.3056  -10.4522 C   0  0  2  0  0  0  0  0  0  0  0  0
   26.7752  -22.3599  -10.4040 N   0  0  0  0  0  0  0  0  0  0  0  0
   25.5325  -20.9492  -11.8715 C   0  0  0  0  0  0  0  0  0  0  0  0
   26.3940  -21.0614  -12.7736 O   0  0  0  0  0  0  0  0  0  0  0  0
   21.9387  -20.9011  -12.1996 C   0  0  0  0  0  0  0  0  0  0  0  0
   22.4267  -21.0112  -13.6488 C   0  0  1  0  0  0  0  0  0  0  0  0
   21.5304  -20.1613  -14.4849 C   0  0  0  0  0  0  0  0  0  0  0  0
   23.8631  -20.4905  -13.6314 C   0  0  2  0  0  0  0  0  0  0  0  0
   24.2699  -20.4406  -12.2693 N   0  0  0  0  0  0  0  0  0  0  0  0
   23.9857  -19.2080  -14.3465 C   0  0  0  0  0  0  0  0  0  0  0  0
   23.6265  -18.1191  -13.8388 O   0  0  0  0  0  0  0  0  0  0  0  0
   26.8870  -18.2055  -16.5443 O   0  0  0  0  0  0  0  0  0  0  0  0
   25.7592  -17.9006  -17.3286 C   0  0  0  0  0  0  0  0  0  0  0  0
   24.5775  -17.9297  -16.3770 C   0  0  2  0  0  0  0  0  0  0  0  0
   24.5265  -19.1763  -15.6593 N   0  0  0  0  0  0  0  0  0  0  0  0
   23.3476  -17.7240  -17.1844 C   0  0  0  0  0  0  0  0  0  0  0  0
   22.4817  -18.6140  -17.3055 O   0  0  0  0  0  0  0  0  0  0  0  0
   23.1596  -16.5057  -17.8204 O   0  0  0  0  0  0  0  0  0  0  0  0
  1  2  1  0
  2  3  1  0
  4  3  1  0
  5  6  1  6
  5  4  1  0
  7  5  1  0
  8  7  2  0
 10  9  1  1
 10 12  1  0
 11 10  1  0
 12 13  1  1
 12 14  1  0
 13  7  1  0
 14 19  1  0
 15 14  2  0
 16 17  1  0
 18 17  1  6
 18 20  1  0
 19 18  1  0
 20 21  2  0
 20 22  1  0
M  END
$$$$
