MVS.pdb
     RDKit          3D

 22 21  0  0  1  0  0  0  0  0999 V2000
   15.0794  -10.6728  -17.2473 C   0  0  0  0  0  0  0  0  0  0  0  0
   16.2912  -10.3934  -18.5675 S   0  0  0  0  0  0  0  0  0  0  0  0
   17.9491  -10.5169  -17.7917 C   0  0  0  0  0  0  0  0  0  0  0  0
   18.0389   -9.4021  -16.7981 C   0  0  0  0  0  0  0  0  0  0  0  0
   19.3676   -9.4558  -16.0837 C   0  0  2  0  0  0  0  0  0  0  0  0
   19.4210  -10.7356  -15.3520 N   0  0  0  0  0  0  0  0  0  0  0  0
   19.4211   -8.3655  -15.0862 C   0  0  0  0  0  0  0  0  0  0  0  0
   18.8030   -8.3615  -13.9969 O   0  0  0  0  0  0  0  0  0  0  0  0
   22.5816   -6.1002  -15.2795 C   0  0  0  0  0  0  0  0  0  0  0  0
   21.7645   -6.0592  -13.9829 C   0  0  1  0  0  0  0  0  0  0  0  0
   22.0630   -4.7616  -13.3107 C   0  0  0  0  0  0  0  0  0  0  0  0
   20.3046   -6.1578  -14.4230 C   0  0  2  0  0  0  0  0  0  0  0  0
   20.2238   -7.2281  -15.3563 N   0  0  0  0  0  0  0  0  0  0  0  0
   19.8023   -4.8703  -14.9343 C   0  0  0  0  0  0  0  0  0  0  0  0
   20.1733   -4.3935  -16.0332 O   0  0  0  0  0  0  0  0  0  0  0  0
   16.7254   -1.2223  -14.5138 O   0  0  0  0  0  0  0  0  0  0  0  0
   17.1777   -2.3906  -13.8729 C   0  0  0  0  0  0  0  0  0  0  0  0
   18.3515   -2.8836  -14.6987 C   0  0  2  0  0  0  0  0  0  0  0  0
   18.8639   -4.1225  -14.1748 N   0  0  0  0  0  0  0  0  0  0  0  0
   19.3900   -1.8216  -14.6790 C   0  0  0  0  0  0  0  0  0  0  0  0
   19.4987   -0.9883  -15.6011 O   0  0  0  0  0  0  0  0  0  0  0  0
   20.2621   -1.7573  -13.6022 O   0  0  0  0  0  0  0  0  0  0  0  0
  1  2  1  0
  2  3  1  0
  4  3  1  0
  5  6  1  1
  5  4  1  0
  7  5  1  0
  8  7  2  0
 10  9  1  6
 10 12  1  0
 11 10  1  0
 12 13  1  6
 12 14  1  0
 13  7  1  0
 14 19  1  0
 15 14  2  0
 16 17  1  0
 18 17  1  1
 18 20  1  0
 19 18  1  0
 20 21  2  0
 20 22  1  0
M  END
$$$$
