MVS.pdb
     RDKit          3D

 22 21  0  0  1  0  0  0  0  0999 V2000
   28.1184  -17.9171   -6.1047 C   0  0  0  0  0  0  0  0  0  0  0  0
   28.0024  -19.4458   -5.1359 S   0  0  0  0  0  0  0  0  0  0  0  0
   27.4706  -20.7629   -6.2970 C   0  0  0  0  0  0  0  0  0  0  0  0
   27.1622  -20.0873   -7.5957 C   0  0  0  0  0  0  0  0  0  0  0  0
   26.6957  -21.1059   -8.6072 C   0  0  2  0  0  0  0  0  0  0  0  0
   27.8517  -21.9626   -8.9325 N   0  0  0  0  0  0  0  0  0  0  0  0
   26.2940  -20.4043   -9.8454 C   0  0  0  0  0  0  0  0  0  0  0  0
   27.0225  -19.6138  -10.4880 O   0  0  0  0  0  0  0  0  0  0  0  0
   26.9964  -20.8523  -12.0981 C   0  0  0  0  0  0  0  0  0  0  0  0
   25.5725  -21.0690  -12.6236 C   0  0  1  0  0  0  0  0  0  0  0  0
   25.2846  -22.5299  -12.5365 C   0  0  0  0  0  0  0  0  0  0  0  0
   24.6728  -20.2484  -11.7006 C   0  0  2  0  0  0  0  0  0  0  0  0
   24.9937  -20.6241  -10.3667 N   0  0  0  0  0  0  0  0  0  0  0  0
   23.2494  -20.4057  -12.0474 C   0  0  0  0  0  0  0  0  0  0  0  0
   22.4892  -21.1859  -11.4262 O   0  0  0  0  0  0  0  0  0  0  0  0
   21.9911  -18.3796  -15.1472 O   0  0  0  0  0  0  0  0  0  0  0  0
   20.8482  -18.7094  -14.3954 C   0  0  0  0  0  0  0  0  0  0  0  0
   21.2926  -19.7875  -13.4244 C   0  0  2  0  0  0  0  0  0  0  0  0
   22.6934  -19.6587  -13.1197 N   0  0  0  0  0  0  0  0  0  0  0  0
   20.9976  -21.1022  -14.0499 C   0  0  0  0  0  0  0  0  0  0  0  0
   21.8956  -21.8142  -14.5433 O   0  0  0  0  0  0  0  0  0  0  0  0
   19.6846  -21.5483  -14.0843 O   0  0  0  0  0  0  0  0  0  0  0  0
  1  2  1  0
  2  3  1  0
  4  3  1  0
  5  6  1  6
  5  4  1  0
  7  5  1  0
  8  7  2  0
 10  9  1  1
 10 12  1  0
 11 10  1  0
 12 13  1  1
 12 14  1  0
 13  7  1  0
 14 19  1  0
 15 14  2  0
 16 17  1  0
 18 17  1  6
 18 20  1  0
 19 18  1  0
 20 21  2  0
 20 22  1  0
M  END
$$$$
