MVS.pdb
     RDKit          3D

 22 21  0  0  1  0  0  0  0  0999 V2000
   26.2173  -18.1471   -7.3741 C   0  0  0  0  0  0  0  0  0  0  0  0
   27.3911  -19.5296   -7.3637 S   0  0  0  0  0  0  0  0  0  0  0  0
   26.6090  -20.8881   -8.3167 C   0  0  0  0  0  0  0  0  0  0  0  0
   26.5889  -20.4491   -9.7467 C   0  0  0  0  0  0  0  0  0  0  0  0
   25.8707  -21.4748  -10.5896 C   0  0  2  0  0  0  0  0  0  0  0  0
   26.6606  -22.7194  -10.5339 N   0  0  0  0  0  0  0  0  0  0  0  0
   25.8545  -21.0155  -11.9951 C   0  0  0  0  0  0  0  0  0  0  0  0
   26.8032  -21.1480  -12.8019 O   0  0  0  0  0  0  0  0  0  0  0  0
   23.4399  -22.4234  -13.9855 C   0  0  0  0  0  0  0  0  0  0  0  0
   23.1725  -20.9332  -14.2273 C   0  0  1  0  0  0  0  0  0  0  0  0
   22.0674  -20.5261  -13.3120 C   0  0  0  0  0  0  0  0  0  0  0  0
   24.4865  -20.2284  -13.8933 C   0  0  2  0  0  0  0  0  0  0  0  0
   24.6917  -20.3748  -12.4934 N   0  0  0  0  0  0  0  0  0  0  0  0
   24.4891  -18.8315  -14.3622 C   0  0  0  0  0  0  0  0  0  0  0  0
   23.8484  -17.9258  -13.7776 O   0  0  0  0  0  0  0  0  0  0  0  0
   27.5614  -17.1130  -16.0787 O   0  0  0  0  0  0  0  0  0  0  0  0
   26.4266  -16.8254  -16.8595 C   0  0  0  0  0  0  0  0  0  0  0  0
   25.2322  -17.1042  -15.9659 C   0  0  2  0  0  0  0  0  0  0  0  0
   25.2358  -18.4713  -15.5153 N   0  0  0  0  0  0  0  0  0  0  0  0
   24.0070  -16.7998  -16.7487 C   0  0  0  0  0  0  0  0  0  0  0  0
   23.6295  -15.6285  -16.9539 O   0  0  0  0  0  0  0  0  0  0  0  0
   23.2636  -17.8509  -17.2653 O   0  0  0  0  0  0  0  0  0  0  0  0
  1  2  1  0
  2  3  1  0
  4  3  1  0
  5  6  1  6
  5  4  1  0
  7  5  1  0
  8  7  2  0
 10  9  1  1
 10 12  1  0
 11 10  1  0
 12 13  1  1
 12 14  1  0
 13  7  1  0
 14 19  1  0
 15 14  2  0
 16 17  1  0
 18 17  1  6
 18 20  1  0
 19 18  1  0
 20 21  2  0
 20 22  1  0
M  END
$$$$
