MVS.pdb
     RDKit          3D

 22 21  0  0  1  0  0  0  0  0999 V2000
   20.2300  -19.0915   -9.9024 C   0  0  0  0  0  0  0  0  0  0  0  0
   20.2214  -20.7605  -10.6121 S   0  0  0  0  0  0  0  0  0  0  0  0
   21.9223  -21.4204  -10.4200 C   0  0  0  0  0  0  0  0  0  0  0  0
   22.8357  -20.4485  -11.0976 C   0  0  0  0  0  0  0  0  0  0  0  0
   24.2680  -20.9028  -10.9539 C   0  0  2  0  0  0  0  0  0  0  0  0
   24.6792  -20.6248   -9.5648 N   0  0  0  0  0  0  0  0  0  0  0  0
   25.1217  -20.0897  -11.8464 C   0  0  0  0  0  0  0  0  0  0  0  0
   25.6562  -19.0023  -11.5295 O   0  0  0  0  0  0  0  0  0  0  0  0
   28.0755  -20.7367  -12.7545 C   0  0  0  0  0  0  0  0  0  0  0  0
   27.5144  -20.6265  -14.1771 C   0  0  1  0  0  0  0  0  0  0  0  0
   27.2643  -22.0138  -14.6645 C   0  0  0  0  0  0  0  0  0  0  0  0
   26.2224  -19.8223  -14.0398 C   0  0  2  0  0  0  0  0  0  0  0  0
   25.3711  -20.5511  -13.1639 N   0  0  0  0  0  0  0  0  0  0  0  0
   25.6255  -19.5232  -15.3534 C   0  0  0  0  0  0  0  0  0  0  0  0
   24.9015  -20.3447  -15.9646 O   0  0  0  0  0  0  0  0  0  0  0  0
   26.0771  -15.8485  -16.7695 O   0  0  0  0  0  0  0  0  0  0  0  0
   25.0078  -16.4990  -17.4125 C   0  0  0  0  0  0  0  0  0  0  0  0
   25.2766  -17.9842  -17.2552 C   0  0  2  0  0  0  0  0  0  0  0  0
   25.8631  -18.2669  -15.9715 N   0  0  0  0  0  0  0  0  0  0  0  0
   26.1798  -18.3950  -18.3607 C   0  0  0  0  0  0  0  0  0  0  0  0
   27.3408  -18.7992  -18.1480 O   0  0  0  0  0  0  0  0  0  0  0  0
   25.7154  -18.3262  -19.6660 O   0  0  0  0  0  0  0  0  0  0  0  0
  1  2  1  0
  2  3  1  0
  4  3  1  0
  5  6  1  1
  5  4  1  0
  7  5  1  0
  8  7  2  0
 10  9  1  1
 10 12  1  0
 11 10  1  0
 12 13  1  1
 12 14  1  0
 13  7  1  0
 14 19  1  0
 15 14  2  0
 16 17  1  0
 18 17  1  1
 18 20  1  0
 19 18  1  0
 20 21  2  0
 20 22  1  0
M  END
$$$$
