MVS.pdb
     RDKit          3D

 22 21  0  0  1  0  0  0  0  0999 V2000
   22.0716  -12.7185  -22.6323 C   0  0  0  0  0  0  0  0  0  0  0  0
   21.7297  -14.4007  -22.0471 S   0  0  0  0  0  0  0  0  0  0  0  0
   22.8903  -14.7198  -20.6625 C   0  0  0  0  0  0  0  0  0  0  0  0
   22.6055  -13.6849  -19.6205 C   0  0  0  0  0  0  0  0  0  0  0  0
   23.6327  -13.7691  -18.5177 C   0  0  2  0  0  0  0  0  0  0  0  0
   23.6713  -15.1710  -18.0602 N   0  0  0  0  0  0  0  0  0  0  0  0
   23.1853  -12.9374  -17.3798 C   0  0  0  0  0  0  0  0  0  0  0  0
   22.2282  -13.2172  -16.6221 O   0  0  0  0  0  0  0  0  0  0  0  0
   25.2076  -12.0195  -14.7221 C   0  0  0  0  0  0  0  0  0  0  0  0
   24.7268  -10.6368  -15.1777 C   0  0  1  0  0  0  0  0  0  0  0  0
   25.8251  -10.0276  -15.9821 C   0  0  0  0  0  0  0  0  0  0  0  0
   23.4767  -10.9005  -16.0158 C   0  0  2  0  0  0  0  0  0  0  0  0
   23.8727  -11.7285  -17.1025 N   0  0  0  0  0  0  0  0  0  0  0  0
   22.8179   -9.6460  -16.4199 C   0  0  0  0  0  0  0  0  0  0  0  0
   23.1794   -8.9919  -17.4269 O   0  0  0  0  0  0  0  0  0  0  0  0
   19.1195   -9.1438  -16.2993 O   0  0  0  0  0  0  0  0  0  0  0  0
   19.6073   -7.9488  -15.7387 C   0  0  0  0  0  0  0  0  0  0  0  0
   21.0886   -7.9162  -16.0668 C   0  0  2  0  0  0  0  0  0  0  0  0
   21.7321   -9.1374  -15.6588 N   0  0  0  0  0  0  0  0  0  0  0  0
   21.6751   -6.7417  -15.3717 C   0  0  0  0  0  0  0  0  0  0  0  0
   22.5854   -6.8621  -14.5270 O   0  0  0  0  0  0  0  0  0  0  0  0
   21.1946   -5.4759  -15.6734 O   0  0  0  0  0  0  0  0  0  0  0  0
  1  2  1  0
  2  3  1  0
  4  3  1  0
  5  6  1  1
  5  4  1  0
  7  5  1  0
  8  7  2  0
 10  9  1  6
 10 12  1  0
 11 10  1  0
 12 13  1  6
 12 14  1  0
 13  7  1  0
 14 19  1  0
 15 14  2  0
 16 17  1  0
 18 17  1  1
 18 20  1  0
 19 18  1  0
 20 21  2  0
 20 22  1  0
M  END
$$$$
