MVS.pdb
     RDKit          3D

 22 21  0  0  1  0  0  0  0  0999 V2000
   28.5027  -18.9574   -4.8213 C   0  0  0  0  0  0  0  0  0  0  0  0
   27.2019  -19.7830   -5.7781 S   0  0  0  0  0  0  0  0  0  0  0  0
   28.0228  -20.5415   -7.2329 C   0  0  0  0  0  0  0  0  0  0  0  0
   27.3676  -19.9578   -8.4445 C   0  0  0  0  0  0  0  0  0  0  0  0
   27.0083  -21.0569   -9.4147 C   0  0  2  0  0  0  0  0  0  0  0  0
   28.2713  -21.6525   -9.8904 N   0  0  0  0  0  0  0  0  0  0  0  0
   26.3243  -20.4620  -10.5829 C   0  0  0  0  0  0  0  0  0  0  0  0
   26.7015  -19.4297  -11.1835 O   0  0  0  0  0  0  0  0  0  0  0  0
   24.4689  -23.0092  -12.9497 C   0  0  0  0  0  0  0  0  0  0  0  0
   25.0315  -21.6502  -13.3822 C   0  0  1  0  0  0  0  0  0  0  0  0
   24.4534  -21.3358  -14.7208 C   0  0  0  0  0  0  0  0  0  0  0  0
   24.5718  -20.6636  -12.3098 C   0  0  2  0  0  0  0  0  0  0  0  0
   25.1523  -21.0854  -11.0817 N   0  0  0  0  0  0  0  0  0  0  0  0
   23.1036  -20.5430  -12.2750 C   0  0  0  0  0  0  0  0  0  0  0  0
   22.3986  -21.1624  -11.4432 O   0  0  0  0  0  0  0  0  0  0  0  0
   21.3778  -18.4697  -15.1821 O   0  0  0  0  0  0  0  0  0  0  0  0
   20.5134  -18.4859  -14.0719 C   0  0  0  0  0  0  0  0  0  0  0  0
   21.0014  -19.6190  -13.1883 C   0  0  2  0  0  0  0  0  0  0  0  0
   22.4383  -19.7018  -13.2059 N   0  0  0  0  0  0  0  0  0  0  0  0
   20.3848  -20.8743  -13.6891 C   0  0  0  0  0  0  0  0  0  0  0  0
   21.0193  -21.6855  -14.3933 O   0  0  0  0  0  0  0  0  0  0  0  0
   19.0652  -21.1495  -13.3619 O   0  0  0  0  0  0  0  0  0  0  0  0
  1  2  1  0
  2  3  1  0
  4  3  1  0
  5  6  1  6
  5  4  1  0
  7  5  1  0
  8  7  2  0
 10  9  1  1
 10 12  1  0
 11 10  1  0
 12 13  1  1
 12 14  1  0
 13  7  1  0
 14 19  1  0
 15 14  2  0
 16 17  1  0
 18 17  1  6
 18 20  1  0
 19 18  1  0
 20 21  2  0
 20 22  1  0
M  END
$$$$
