MVS.pdb
     RDKit          3D

 22 21  0  0  1  0  0  0  0  0999 V2000
   13.8846  -28.5220   -7.5415 C   0  0  0  0  0  0  0  0  0  0  0  0
   12.8611  -27.0685   -7.9005 S   0  0  0  0  0  0  0  0  0  0  0  0
   13.7532  -25.6179   -7.2179 C   0  0  0  0  0  0  0  0  0  0  0  0
   14.6497  -26.1378   -6.1390 C   0  0  0  0  0  0  0  0  0  0  0  0
   15.4755  -25.0103   -5.5688 C   0  0  2  0  0  0  0  0  0  0  0  0
   16.4253  -24.5890   -6.6160 N   0  0  0  0  0  0  0  0  0  0  0  0
   16.2636  -25.5218   -4.4270 C   0  0  0  0  0  0  0  0  0  0  0  0
   17.4394  -25.9468   -4.5025 O   0  0  0  0  0  0  0  0  0  0  0  0
   14.7589  -24.7408   -0.7127 C   0  0  0  0  0  0  0  0  0  0  0  0
   16.2680  -24.8870   -0.9403 C   0  0  1  0  0  0  0  0  0  0  0  0
   16.8763  -25.2897    0.3607 C   0  0  0  0  0  0  0  0  0  0  0  0
   16.4118  -25.9739   -2.0046 C   0  0  2  0  0  0  0  0  0  0  0  0
   15.6698  -25.5442   -3.1395 N   0  0  0  0  0  0  0  0  0  0  0  0
   16.0166  -27.2963   -1.4888 C   0  0  0  0  0  0  0  0  0  0  0  0
   14.8163  -27.6410   -1.3741 O   0  0  0  0  0  0  0  0  0  0  0  0
   18.9335  -29.7813   -0.5887 O   0  0  0  0  0  0  0  0  0  0  0  0
   17.7495  -30.5263   -0.7420 C   0  0  0  0  0  0  0  0  0  0  0  0
   16.6156  -29.5267   -0.6089 C   0  0  2  0  0  0  0  0  0  0  0  0
   17.0110  -28.2328   -1.1003 N   0  0  0  0  0  0  0  0  0  0  0  0
   16.2403  -29.4643    0.8270 C   0  0  0  0  0  0  0  0  0  0  0  0
   15.5547  -30.3548    1.3688 O   0  0  0  0  0  0  0  0  0  0  0  0
   16.6665  -28.3832    1.5845 O   0  0  0  0  0  0  0  0  0  0  0  0
  1  2  1  0
  2  3  1  0
  4  3  1  0
  5  6  1  6
  5  4  1  0
  7  5  1  0
  8  7  2  0
 10  9  1  1
 10 12  1  0
 11 10  1  0
 12 13  1  6
 12 14  1  0
 13  7  1  0
 14 19  1  0
 15 14  2  0
 16 17  1  0
 18 17  1  1
 18 20  1  0
 19 18  1  0
 20 21  2  0
 20 22  1  0
M  END
$$$$
