MVS.pdb
     RDKit          3D

 22 21  0  0  1  0  0  0  0  0999 V2000
   20.8840  -12.1902  -21.8668 C   0  0  0  0  0  0  0  0  0  0  0  0
   20.1500  -13.7867  -21.4179 S   0  0  0  0  0  0  0  0  0  0  0  0
   20.7843  -14.2041  -19.7478 C   0  0  0  0  0  0  0  0  0  0  0  0
   20.6555  -12.9641  -18.9208 C   0  0  0  0  0  0  0  0  0  0  0  0
   21.2919  -13.1792  -17.5690 C   0  0  2  0  0  0  0  0  0  0  0  0
   20.7491  -14.4378  -17.0237 N   0  0  0  0  0  0  0  0  0  0  0  0
   20.8810  -12.0837  -16.6648 C   0  0  0  0  0  0  0  0  0  0  0  0
   19.8073  -12.0525  -16.0208 O   0  0  0  0  0  0  0  0  0  0  0  0
   22.6377  -11.2407  -13.9219 C   0  0  0  0  0  0  0  0  0  0  0  0
   22.5731   -9.8544  -14.5737 C   0  0  1  0  0  0  0  0  0  0  0  0
   23.8867   -9.6145  -15.2382 C   0  0  0  0  0  0  0  0  0  0  0  0
   21.4250   -9.9345  -15.5788 C   0  0  2  0  0  0  0  0  0  0  0  0
   21.7472  -10.9739  -16.4949 N   0  0  0  0  0  0  0  0  0  0  0  0
   21.1639   -8.6298  -16.2118 C   0  0  0  0  0  0  0  0  0  0  0  0
   21.8675   -8.1860  -17.1502 O   0  0  0  0  0  0  0  0  0  0  0  0
   17.8391   -6.6212  -15.1388 O   0  0  0  0  0  0  0  0  0  0  0  0
   18.2573   -6.3723  -16.4591 C   0  0  0  0  0  0  0  0  0  0  0  0
   19.7551   -6.6156  -16.4680 C   0  0  2  0  0  0  0  0  0  0  0  0
   20.0831   -7.8261  -15.7616 N   0  0  0  0  0  0  0  0  0  0  0  0
   20.4039   -5.4353  -15.8414 C   0  0  0  0  0  0  0  0  0  0  0  0
   21.0647   -5.5282  -14.7872 O   0  0  0  0  0  0  0  0  0  0  0  0
   20.2694   -4.1956  -16.4489 O   0  0  0  0  0  0  0  0  0  0  0  0
  1  2  1  0
  2  3  1  0
  4  3  1  0
  5  6  1  1
  5  4  1  0
  7  5  1  0
  8  7  2  0
 10  9  1  6
 10 12  1  0
 11 10  1  0
 12 13  1  6
 12 14  1  0
 13  7  1  0
 14 19  1  0
 15 14  2  0
 16 17  1  0
 18 17  1  1
 18 20  1  0
 19 18  1  0
 20 21  2  0
 20 22  1  0
M  END
$$$$
