MVS.pdb
     RDKit          3D

 22 21  0  0  1  0  0  0  0  0999 V2000
   26.6107  -39.7898   -8.7594 C   0  0  0  0  0  0  0  0  0  0  0  0
   28.2922  -40.3597   -8.3896 S   0  0  0  0  0  0  0  0  0  0  0  0
   29.3619  -38.8692   -8.3871 C   0  0  0  0  0  0  0  0  0  0  0  0
   28.6531  -37.8371   -7.5684 C   0  0  0  0  0  0  0  0  0  0  0  0
   29.4370  -36.5473   -7.5759 C   0  0  2  0  0  0  0  0  0  0  0  0
   30.6955  -36.7944   -6.8470 N   0  0  0  0  0  0  0  0  0  0  0  0
   28.6796  -35.5203   -6.8288 C   0  0  0  0  0  0  0  0  0  0  0  0
   28.8431  -35.2516   -5.6165 O   0  0  0  0  0  0  0  0  0  0  0  0
   25.5703  -33.7331   -8.8491 C   0  0  0  0  0  0  0  0  0  0  0  0
   26.3525  -32.8433   -7.8759 C   0  0  1  0  0  0  0  0  0  0  0  0
   25.3877  -31.8653   -7.2950 C   0  0  0  0  0  0  0  0  0  0  0  0
   26.9134  -33.7955   -6.8208 C   0  0  2  0  0  0  0  0  0  0  0  0
   27.6888  -34.7685   -7.5101 N   0  0  0  0  0  0  0  0  0  0  0  0
   25.8467  -34.3603   -5.9755 C   0  0  0  0  0  0  0  0  0  0  0  0
   25.0754  -35.2621   -6.3809 O   0  0  0  0  0  0  0  0  0  0  0  0
   26.4461  -34.4729   -2.2587 O   0  0  0  0  0  0  0  0  0  0  0  0
   25.0494  -34.3186   -2.3337 C   0  0  0  0  0  0  0  0  0  0  0  0
   24.6927  -34.5143   -3.7956 C   0  0  2  0  0  0  0  0  0  0  0  0
   25.6641  -33.8836   -4.6502 N   0  0  0  0  0  0  0  0  0  0  0  0
   23.3387  -33.9408   -4.0065 C   0  0  0  0  0  0  0  0  0  0  0  0
   22.3279  -34.4141   -3.4492 O   0  0  0  0  0  0  0  0  0  0  0  0
   23.1981  -32.8469   -4.8479 O   0  0  0  0  0  0  0  0  0  0  0  0
  1  2  1  0
  2  3  1  0
  4  3  1  0
  5  6  1  1
  5  4  1  0
  7  5  1  0
  8  7  2  0
 10  9  1  6
 10 12  1  0
 11 10  1  0
 12 13  1  6
 12 14  1  0
 13  7  1  0
 14 19  1  0
 15 14  2  0
 16 17  1  0
 18 17  1  1
 18 20  1  0
 19 18  1  0
 20 21  2  0
 20 22  1  0
M  END
$$$$
