CRQ.pdb
     RDKit          3D

 27 26  0  0  1  0  0  0  0  0999 V2000
   29.5643  -23.4764  -17.4462 N   0  0  0  0  0  0  0  0  0  0  0  0
   29.0614  -22.2272  -16.9673 C   0  0  1  0  0  0  0  0  0  0  0  0
   28.7122  -21.3112  -18.1474 C   0  0  0  0  0  0  0  0  0  0  0  0
   30.1934  -20.8257  -19.0493 S   0  0  0  0  0  0  0  0  0  0  0  0
   27.8688  -22.3483  -16.1150 C   0  0  0  0  0  0  0  0  0  0  0  0
   27.0020  -23.1998  -16.4459 O   0  0  0  0  0  0  0  0  0  0  0  0
   23.0419  -20.0786  -11.0090 N   0  0  0  0  0  0  0  0  0  0  0  0
   23.4235  -20.6630   -9.7649 C   0  0  0  0  0  0  0  0  0  0  0  0
   22.5537  -20.8507   -8.8464 N   0  0  0  0  0  0  0  0  0  0  0  0
   24.7640  -21.0483   -9.5087 N   0  0  0  0  0  0  0  0  0  0  0  0
   25.8154  -20.8508  -10.4486 C   0  0  0  0  0  0  0  0  0  0  0  0
   25.5016  -21.4374  -11.8395 C   0  0  0  0  0  0  0  0  0  0  0  0
   26.6752  -21.2355  -12.7558 C   0  0  0  0  0  0  0  0  0  0  0  0
   26.4401  -21.7819  -14.1288 C   0  0  2  0  0  0  0  0  0  0  0  0
   27.6366  -21.5718  -14.9530 N   0  0  0  0  0  0  0  0  0  0  0  0
   25.2645  -21.1669  -14.7926 C   0  0  0  0  0  0  0  0  0  0  0  0
   25.1937  -19.9718  -15.1622 O   0  0  0  0  0  0  0  0  0  0  0  0
   22.8462  -21.3037   -7.9590 N   0  0  0  0  0  0  0  0  0  0  0  0
   20.4914  -24.0799  -17.9763 C   0  0  0  0  0  0  0  0  0  0  0  0
   20.1580  -22.7092  -17.9285 O   0  0  0  0  0  0  0  0  0  0  0  0
   19.1520  -22.2876  -18.5294 C   0  0  0  0  0  0  0  0  0  0  0  0
   20.9702  -21.6942  -17.1718 C   0  0  0  0  0  0  0  0  0  0  0  0
   22.1377  -22.3451  -16.4875 C   0  0  2  0  0  0  0  0  0  0  0  0
   22.9363  -21.3390  -15.7436 N   0  0  0  0  0  0  0  0  0  0  0  0
   24.0776  -21.9336  -15.0677 C   0  0  0  0  0  0  0  0  0  0  0  0
   22.1190  -20.6137  -14.7650 O   0  0  0  0  0  0  0  0  0  0  0  0
   22.0180  -21.1128  -13.5842 O   0  0  0  0  0  0  0  0  0  0  0  0
  2  1  1  6
  3  2  1  0
  4  3  1  0
  5  2  1  0
  5  6  2  0
  7  8  1  0
  8 10  1  0
  9  8  2  0
 10 11  1  0
 12 11  1  0
 12 13  1  0
 14 15  1  0
 14 13  1  1
 15  5  1  0
 16 14  1  0
 17 16  2  0
 18 19  1  0
 19 21  1  0
 19 20  2  0
 21 22  1  0
 23 22  1  6
 23 25  1  0
 23 24  1  0
 24 16  1  0
 25 27  1  0
 26 25  2  0
M  END
$$$$
