CRQ.pdb
     RDKit          3D

 27 26  0  0  1  0  0  0  0  0999 V2000
   27.4888  -16.3021  -16.9227 N   0  0  0  0  0  0  0  0  0  0  0  0
   26.3907  -16.3125  -16.0078 C   0  0  1  0  0  0  0  0  0  0  0  0
   25.6395  -14.9763  -16.0694 C   0  0  0  0  0  0  0  0  0  0  0  0
   26.5797  -13.6683  -15.2644 S   0  0  0  0  0  0  0  0  0  0  0  0
   25.4215  -17.3926  -16.2471 C   0  0  0  0  0  0  0  0  0  0  0  0
   25.2311  -17.7491  -17.4398 O   0  0  0  0  0  0  0  0  0  0  0  0
   26.9929  -20.8598  -10.8891 N   0  0  0  0  0  0  0  0  0  0  0  0
   25.6925  -20.9014  -10.3041 C   0  0  0  0  0  0  0  0  0  0  0  0
   25.5423  -20.6996   -9.0503 N   0  0  0  0  0  0  0  0  0  0  0  0
   24.5384  -21.1665  -11.0844 N   0  0  0  0  0  0  0  0  0  0  0  0
   24.5833  -21.3176  -12.4997 C   0  0  0  0  0  0  0  0  0  0  0  0
   24.0703  -20.0766  -13.2572 C   0  0  0  0  0  0  0  0  0  0  0  0
   24.0764  -20.3421  -14.7361 C   0  0  0  0  0  0  0  0  0  0  0  0
   23.7466  -19.1272  -15.5450 C   0  0  2  0  0  0  0  0  0  0  0  0
   24.6940  -18.0522  -15.2259 N   0  0  0  0  0  0  0  0  0  0  0  0
   22.3598  -18.6517  -15.3183 C   0  0  0  0  0  0  0  0  0  0  0  0
   21.9663  -18.0528  -14.2905 O   0  0  0  0  0  0  0  0  0  0  0  0
   24.6054  -20.8401   -8.6250 N   0  0  0  0  0  0  0  0  0  0  0  0
   17.3309  -18.7314  -19.4507 C   0  0  0  0  0  0  0  0  0  0  0  0
   16.9259  -18.0226  -18.2993 O   0  0  0  0  0  0  0  0  0  0  0  0
   15.8043  -17.4830  -18.2577 C   0  0  0  0  0  0  0  0  0  0  0  0
   17.7947  -17.8746  -17.0803 C   0  0  0  0  0  0  0  0  0  0  0  0
   19.1103  -18.5726  -17.2725 C   0  0  2  0  0  0  0  0  0  0  0  0
   19.9636  -18.4228  -16.0671 N   0  0  0  0  0  0  0  0  0  0  0  0
   21.3311  -18.8548  -16.3047 C   0  0  0  0  0  0  0  0  0  0  0  0
   19.4169  -19.1572  -14.9210 O   0  0  0  0  0  0  0  0  0  0  0  0
   19.7864  -20.3787  -14.7630 O   0  0  0  0  0  0  0  0  0  0  0  0
  2  1  1  6
  3  2  1  0
  4  3  1  0
  5  2  1  0
  5  6  2  0
  7  8  1  0
  8 10  1  0
  9  8  2  0
 10 11  1  0
 12 11  1  0
 12 13  1  0
 14 15  1  0
 14 13  1  1
 15  5  1  0
 16 14  1  0
 17 16  2  0
 18 19  1  0
 19 21  1  0
 19 20  2  0
 21 22  1  0
 23 22  1  6
 23 25  1  0
 23 24  1  0
 24 16  1  0
 25 27  1  0
 26 25  2  0
M  END
$$$$
