CRQ.pdb
     RDKit          3D

 27 26  0  0  1  0  0  0  0  0999 V2000
   27.2966  -16.1723  -16.8929 N   0  0  0  0  0  0  0  0  0  0  0  0
   26.3630  -16.1928  -15.8108 C   0  0  1  0  0  0  0  0  0  0  0  0
   25.4767  -14.9414  -15.8543 C   0  0  0  0  0  0  0  0  0  0  0  0
   26.3366  -13.5159  -15.1677 S   0  0  0  0  0  0  0  0  0  0  0  0
   25.4858  -17.3733  -15.7983 C   0  0  0  0  0  0  0  0  0  0  0  0
   25.1027  -17.8246  -16.9098 O   0  0  0  0  0  0  0  0  0  0  0  0
   23.4096  -24.5943  -14.7594 N   0  0  0  0  0  0  0  0  0  0  0  0
   24.8240  -24.4532  -14.6386 C   0  0  0  0  0  0  0  0  0  0  0  0
   25.6066  -25.1399  -15.3811 N   0  0  0  0  0  0  0  0  0  0  0  0
   25.4009  -23.5591  -13.7012 N   0  0  0  0  0  0  0  0  0  0  0  0
   24.6295  -22.6285  -12.9484 C   0  0  0  0  0  0  0  0  0  0  0  0
   23.9525  -21.5554  -13.8244 C   0  0  0  0  0  0  0  0  0  0  0  0
   24.7953  -20.3117  -13.8514 C   0  0  0  0  0  0  0  0  0  0  0  0
   24.2010  -19.2262  -14.6924 C   0  0  2  0  0  0  0  0  0  0  0  0
   25.0485  -18.0296  -14.6214 N   0  0  0  0  0  0  0  0  0  0  0  0
   22.8177  -18.8812  -14.2822 C   0  0  0  0  0  0  0  0  0  0  0  0
   22.4872  -18.4786  -13.1427 O   0  0  0  0  0  0  0  0  0  0  0  0
   26.6332  -25.0353  -15.2652 N   0  0  0  0  0  0  0  0  0  0  0  0
   17.5618  -17.1101  -17.8958 C   0  0  0  0  0  0  0  0  0  0  0  0
   17.1962  -17.8126  -16.7275 O   0  0  0  0  0  0  0  0  0  0  0  0
   16.0699  -18.3362  -16.6377 C   0  0  0  0  0  0  0  0  0  0  0  0
   18.1138  -17.9725  -15.5465 C   0  0  0  0  0  0  0  0  0  0  0  0
   19.4833  -18.4034  -15.9869 C   0  0  2  0  0  0  0  0  0  0  0  0
   20.3679  -18.6161  -14.8140 N   0  0  0  0  0  0  0  0  0  0  0  0
   21.7173  -18.9903  -15.2039 C   0  0  0  0  0  0  0  0  0  0  0  0
   19.8280  -19.6329  -13.9049 O   0  0  0  0  0  0  0  0  0  0  0  0
   19.0857  -19.2326  -12.9341 O   0  0  0  0  0  0  0  0  0  0  0  0
  2  1  1  6
  3  2  1  0
  4  3  1  0
  5  2  1  0
  5  6  2  0
  7  8  1  0
  8 10  1  0
  9  8  2  0
 10 11  1  0
 12 11  1  0
 12 13  1  0
 14 15  1  0
 14 13  1  1
 15  5  1  0
 16 14  1  0
 17 16  2  0
 18 19  1  0
 19 21  1  0
 19 20  2  0
 21 22  1  0
 23 22  1  6
 23 25  1  0
 23 24  1  0
 24 16  1  0
 25 27  1  0
 26 25  2  0
M  END
$$$$
