CRQ.pdb
     RDKit          3D

 27 26  0  0  1  0  0  0  0  0999 V2000
   30.7245  -20.2126  -10.8811 N   0  0  0  0  0  0  0  0  0  0  0  0
   29.9026  -21.1822  -11.5348 C   0  0  1  0  0  0  0  0  0  0  0  0
   29.3111  -22.1534  -10.5050 C   0  0  0  0  0  0  0  0  0  0  0  0
   30.6111  -23.0591   -9.6491 S   0  0  0  0  0  0  0  0  0  0  0  0
   28.7926  -20.6041  -12.3073 C   0  0  0  0  0  0  0  0  0  0  0  0
   27.9717  -19.8759  -11.6893 O   0  0  0  0  0  0  0  0  0  0  0  0
   27.1506  -16.4533  -18.9831 N   0  0  0  0  0  0  0  0  0  0  0  0
   26.1281  -17.3842  -19.3341 C   0  0  0  0  0  0  0  0  0  0  0  0
   25.0756  -16.9874  -19.9426 N   0  0  0  0  0  0  0  0  0  0  0  0
   26.2435  -18.7626  -19.0218 N   0  0  0  0  0  0  0  0  0  0  0  0
   27.2568  -19.2757  -18.1629 C   0  0  0  0  0  0  0  0  0  0  0  0
   26.8316  -19.3147  -16.6814 C   0  0  0  0  0  0  0  0  0  0  0  0
   27.8921  -19.9958  -15.8633 C   0  0  0  0  0  0  0  0  0  0  0  0
   27.5230  -20.1145  -14.4181 C   0  0  2  0  0  0  0  0  0  0  0  0
   28.5912  -20.8141  -13.6938 N   0  0  0  0  0  0  0  0  0  0  0  0
   26.2367  -20.8252  -14.2156 C   0  0  0  0  0  0  0  0  0  0  0  0
   26.1050  -22.0704  -14.1700 O   0  0  0  0  0  0  0  0  0  0  0  0
   24.3193  -17.6707  -20.1411 N   0  0  0  0  0  0  0  0  0  0  0  0
   21.0739  -21.1487  -10.7217 C   0  0  0  0  0  0  0  0  0  0  0  0
   21.0287  -19.9607  -11.4827 O   0  0  0  0  0  0  0  0  0  0  0  0
   20.0740  -19.1713  -11.3559 C   0  0  0  0  0  0  0  0  0  0  0  0
   22.0979  -19.5782  -12.4691 C   0  0  0  0  0  0  0  0  0  0  0  0
   23.2244  -20.5710  -12.4496 C   0  0  1  0  0  0  0  0  0  0  0  0
   23.7471  -20.7970  -13.8204 N   0  0  0  0  0  0  0  0  0  0  0  0
   25.0028  -20.1020  -14.0513 C   0  0  0  0  0  0  0  0  0  0  0  0
   22.7766  -20.3945  -14.8441 O   0  0  0  0  0  0  0  0  0  0  0  0
   22.9846  -19.2858  -15.4613 O   0  0  0  0  0  0  0  0  0  0  0  0
  2  1  1  1
  3  2  1  0
  4  3  1  0
  5  2  1  0
  5  6  2  0
  7  8  1  0
  8 10  1  0
  9  8  2  0
 10 11  1  0
 12 11  1  0
 12 13  1  0
 14 15  1  0
 14 13  1  6
 15  5  1  0
 16 14  1  0
 17 16  2  0
 18 19  1  0
 19 21  1  0
 19 20  2  0
 21 22  1  0
 23 22  1  1
 23 25  1  0
 23 24  1  0
 24 16  1  0
 25 27  1  0
 26 25  2  0
M  END
$$$$
