CRQ.pdb
     RDKit          3D

 27 26  0  0  1  0  0  0  0  0999 V2000
   27.4352  -16.3354  -16.8472 N   0  0  0  0  0  0  0  0  0  0  0  0
   26.4932  -16.2689  -15.7742 C   0  0  1  0  0  0  0  0  0  0  0  0
   25.8082  -14.8963  -15.7573 C   0  0  0  0  0  0  0  0  0  0  0  0
   26.9319  -13.6201  -15.1643 S   0  0  0  0  0  0  0  0  0  0  0  0
   25.4467  -17.3007  -15.8306 C   0  0  0  0  0  0  0  0  0  0  0  0
   25.0322  -17.6468  -16.9684 O   0  0  0  0  0  0  0  0  0  0  0  0
   25.1867  -25.0634  -15.6278 N   0  0  0  0  0  0  0  0  0  0  0  0
   24.2481  -24.3031  -14.8688 C   0  0  0  0  0  0  0  0  0  0  0  0
   22.9926  -24.5011  -15.0103 N   0  0  0  0  0  0  0  0  0  0  0  0
   24.6717  -23.3137  -13.9454 N   0  0  0  0  0  0  0  0  0  0  0  0
   23.7601  -22.4788  -13.2385 C   0  0  0  0  0  0  0  0  0  0  0  0
   23.2641  -21.2814  -14.0736 C   0  0  0  0  0  0  0  0  0  0  0  0
   24.3007  -20.1936  -14.0729 C   0  0  0  0  0  0  0  0  0  0  0  0
   23.8677  -18.9791  -14.8321 C   0  0  2  0  0  0  0  0  0  0  0  0
   24.8800  -17.9252  -14.6922 N   0  0  0  0  0  0  0  0  0  0  0  0
   22.5503  -18.4663  -14.3823 C   0  0  0  0  0  0  0  0  0  0  0  0
   22.2883  -18.0875  -13.2171 O   0  0  0  0  0  0  0  0  0  0  0  0
   22.3271  -23.9621  -14.4229 N   0  0  0  0  0  0  0  0  0  0  0  0
   17.8371  -16.2514  -18.0797 C   0  0  0  0  0  0  0  0  0  0  0  0
   18.9708  -15.5657  -17.5933 O   0  0  0  0  0  0  0  0  0  0  0  0
   19.3296  -14.4956  -18.1196 C   0  0  0  0  0  0  0  0  0  0  0  0
   19.7986  -16.0650  -16.4409 C   0  0  0  0  0  0  0  0  0  0  0  0
   19.3028  -17.4000  -15.9643 C   0  0  2  0  0  0  0  0  0  0  0  0
   20.1378  -17.8989  -14.8429 N   0  0  0  0  0  0  0  0  0  0  0  0
   21.4392  -18.3656  -15.2920 C   0  0  0  0  0  0  0  0  0  0  0  0
   19.4671  -18.9742  -14.1042 O   0  0  0  0  0  0  0  0  0  0  0  0
   18.4878  -18.6506  -13.3362 O   0  0  0  0  0  0  0  0  0  0  0  0
  2  1  1  6
  3  2  1  0
  4  3  1  0
  5  2  1  0
  5  6  2  0
  7  8  1  0
  8 10  1  0
  9  8  2  0
 10 11  1  0
 12 11  1  0
 12 13  1  0
 14 15  1  0
 14 13  1  1
 15  5  1  0
 16 14  1  0
 17 16  2  0
 18 19  1  0
 19 21  1  0
 19 20  2  0
 21 22  1  0
 23 22  1  1
 23 25  1  0
 23 24  1  0
 24 16  1  0
 25 27  1  0
 26 25  2  0
M  END
$$$$
