CRQ.pdb
     RDKit          3D

 27 26  0  0  1  0  0  0  0  0999 V2000
   16.8212  -17.1485  -16.1341 N   0  0  0  0  0  0  0  0  0  0  0  0
   16.4673  -15.8647  -16.6533 C   0  0  1  0  0  0  0  0  0  0  0  0
   15.3211  -15.2606  -15.8319 C   0  0  0  0  0  0  0  0  0  0  0  0
   13.7668  -16.1037  -16.1732 S   0  0  0  0  0  0  0  0  0  0  0  0
   17.5760  -14.8983  -16.6694 C   0  0  0  0  0  0  0  0  0  0  0  0
   18.2724  -14.7951  -15.6252 O   0  0  0  0  0  0  0  0  0  0  0  0
   24.2202  -13.9728  -21.5838 N   0  0  0  0  0  0  0  0  0  0  0  0
   23.7345  -14.7129  -20.4651 C   0  0  0  0  0  0  0  0  0  0  0  0
   24.1707  -15.8925  -20.2334 N   0  0  0  0  0  0  0  0  0  0  0  0
   22.7626  -14.1718  -19.5856 N   0  0  0  0  0  0  0  0  0  0  0  0
   22.2453  -12.8526  -19.7267 C   0  0  0  0  0  0  0  0  0  0  0  0
   21.2211  -12.4844  -18.6346 C   0  0  0  0  0  0  0  0  0  0  0  0
   20.0549  -13.4304  -18.6881 C   0  0  0  0  0  0  0  0  0  0  0  0
   18.9875  -13.0923  -17.6955 C   0  0  2  0  0  0  0  0  0  0  0  0
   17.9068  -14.0824  -17.7792 N   0  0  0  0  0  0  0  0  0  0  0  0
   18.4323  -11.7316  -17.8981 C   0  0  0  0  0  0  0  0  0  0  0  0
   17.6997  -11.3914  -18.8560 O   0  0  0  0  0  0  0  0  0  0  0  0
   23.7236  -16.4584  -19.4862 N   0  0  0  0  0  0  0  0  0  0  0  0
   15.1375   -7.1361  -16.5690 C   0  0  0  0  0  0  0  0  0  0  0  0
   14.8219   -8.5117  -16.5490 O   0  0  0  0  0  0  0  0  0  0  0  0
   13.6516   -8.8891  -16.7456 C   0  0  0  0  0  0  0  0  0  0  0  0
   15.8462   -9.5839  -16.2964 C   0  0  0  0  0  0  0  0  0  0  0  0
   17.2011   -8.9834  -16.0537 C   0  0  2  0  0  0  0  0  0  0  0  0
   18.1370   -9.3429  -17.1484 N   0  0  0  0  0  0  0  0  0  0  0  0
   18.7095  -10.6671  -16.9694 C   0  0  0  0  0  0  0  0  0  0  0  0
   19.2198   -8.3620  -17.2801 O   0  0  0  0  0  0  0  0  0  0  0  0
   19.8566   -8.0286  -16.2140 O   0  0  0  0  0  0  0  0  0  0  0  0
  2  1  1  1
  3  2  1  0
  4  3  1  0
  5  2  1  0
  5  6  2  0
  7  8  1  0
  8 10  1  0
  9  8  2  0
 10 11  1  0
 12 11  1  0
 12 13  1  0
 14 15  1  0
 14 13  1  6
 15  5  1  0
 16 14  1  0
 17 16  2  0
 18 19  1  0
 19 21  1  0
 19 20  2  0
 21 22  1  0
 23 22  1  6
 23 25  1  0
 23 24  1  0
 24 16  1  0
 25 27  1  0
 26 25  2  0
M  END
$$$$
