CRQ.pdb
     RDKit          3D

 27 26  0  0  1  0  0  0  0  0999 V2000
   25.0328  -19.8688  -19.5237 N   0  0  0  0  0  0  0  0  0  0  0  0
   25.2427  -19.0435  -18.3757 C   0  0  1  0  0  0  0  0  0  0  0  0
   24.0979  -18.0319  -18.2362 C   0  0  0  0  0  0  0  0  0  0  0  0
   23.8990  -17.0685  -19.7446 S   0  0  0  0  0  0  0  0  0  0  0  0
   25.3491  -19.7896  -17.1126 C   0  0  0  0  0  0  0  0  0  0  0  0
   25.0470  -21.0120  -17.1323 O   0  0  0  0  0  0  0  0  0  0  0  0
   29.7829  -19.7449  -10.7198 N   0  0  0  0  0  0  0  0  0  0  0  0
   29.4337  -21.1156  -10.9052 C   0  0  0  0  0  0  0  0  0  0  0  0
   30.3445  -21.9943  -11.0885 N   0  0  0  0  0  0  0  0  0  0  0  0
   28.0815  -21.5425  -10.8942 N   0  0  0  0  0  0  0  0  0  0  0  0
   27.1230  -21.0903  -11.8453 C   0  0  0  0  0  0  0  0  0  0  0  0
   27.7175  -20.8860  -13.2531 C   0  0  0  0  0  0  0  0  0  0  0  0
   27.0849  -19.6897  -13.9062 C   0  0  0  0  0  0  0  0  0  0  0  0
   25.8394  -20.0319  -14.6615 C   0  0  2  0  0  0  0  0  0  0  0  0
   25.7676  -19.2221  -15.8839 N   0  0  0  0  0  0  0  0  0  0  0  0
   24.6107  -19.8267  -13.8560 C   0  0  0  0  0  0  0  0  0  0  0  0
   24.1011  -18.7118  -13.5970 O   0  0  0  0  0  0  0  0  0  0  0  0
   30.0722  -22.9922  -11.1801 N   0  0  0  0  0  0  0  0  0  0  0  0
   23.0907  -21.2217   -8.5388 C   0  0  0  0  0  0  0  0  0  0  0  0
   21.9709  -20.9415   -9.3510 O   0  0  0  0  0  0  0  0  0  0  0  0
   20.9593  -21.6656   -9.2949 C   0  0  0  0  0  0  0  0  0  0  0  0
   21.9237  -19.7845  -10.3109 C   0  0  0  0  0  0  0  0  0  0  0  0
   23.0717  -19.8433  -11.2772 C   0  0  2  0  0  0  0  0  0  0  0  0
   22.7505  -20.7365  -12.4184 N   0  0  0  0  0  0  0  0  0  0  0  0
   23.8921  -20.9407  -13.2948 C   0  0  0  0  0  0  0  0  0  0  0  0
   21.6222  -20.2267  -13.2052 O   0  0  0  0  0  0  0  0  0  0  0  0
   21.8431  -19.2345  -13.9927 O   0  0  0  0  0  0  0  0  0  0  0  0
  2  1  1  6
  3  2  1  0
  4  3  1  0
  5  2  1  0
  5  6  2  0
  7  8  1  0
  8 10  1  0
  9  8  2  0
 10 11  1  0
 12 11  1  0
 12 13  1  0
 14 15  1  0
 14 13  1  1
 15  5  1  0
 16 14  1  0
 17 16  2  0
 18 19  1  0
 19 21  1  0
 19 20  2  0
 21 22  1  0
 23 22  1  1
 23 25  1  0
 23 24  1  0
 24 16  1  0
 25 27  1  0
 26 25  2  0
M  END
$$$$
