CRQ.pdb
     RDKit          3D

 27 26  0  0  1  0  0  0  0  0999 V2000
   27.3975  -16.0974  -17.2970 N   0  0  0  0  0  0  0  0  0  0  0  0
   26.5181  -16.0530  -16.1711 C   0  0  1  0  0  0  0  0  0  0  0  0
   25.7005  -14.7551  -16.1904 C   0  0  0  0  0  0  0  0  0  0  0  0
   26.7428  -13.3291  -15.8393 S   0  0  0  0  0  0  0  0  0  0  0  0
   25.5792  -17.1829  -16.0991 C   0  0  0  0  0  0  0  0  0  0  0  0
   24.8856  -17.4284  -17.1211 O   0  0  0  0  0  0  0  0  0  0  0  0
   26.8430  -21.7191  -11.4024 N   0  0  0  0  0  0  0  0  0  0  0  0
   25.6255  -21.4063  -10.7280 C   0  0  0  0  0  0  0  0  0  0  0  0
   25.6466  -20.9835   -9.5213 N   0  0  0  0  0  0  0  0  0  0  0  0
   24.3675  -21.5540  -11.3656 N   0  0  0  0  0  0  0  0  0  0  0  0
   24.2176  -22.1700  -12.6407 C   0  0  0  0  0  0  0  0  0  0  0  0
   23.7727  -21.1847  -13.7400 C   0  0  0  0  0  0  0  0  0  0  0  0
   24.7749  -20.0722  -13.8650 C   0  0  0  0  0  0  0  0  0  0  0  0
   24.4398  -19.1098  -14.9606 C   0  0  2  0  0  0  0  0  0  0  0  0
   25.4083  -18.0065  -14.9591 N   0  0  0  0  0  0  0  0  0  0  0  0
   23.0652  -18.5652  -14.8391 C   0  0  0  0  0  0  0  0  0  0  0  0
   22.6984  -17.7296  -13.9806 O   0  0  0  0  0  0  0  0  0  0  0  0
   24.7498  -20.7522   -9.0516 N   0  0  0  0  0  0  0  0  0  0  0  0
   18.7435  -17.6882  -19.4200 C   0  0  0  0  0  0  0  0  0  0  0  0
   18.1149  -17.3105  -18.2140 O   0  0  0  0  0  0  0  0  0  0  0  0
   16.9741  -16.8114  -18.2315 C   0  0  0  0  0  0  0  0  0  0  0  0
   18.7599  -17.4794  -16.8657 C   0  0  0  0  0  0  0  0  0  0  0  0
   20.0941  -18.1570  -16.9916 C   0  0  2  0  0  0  0  0  0  0  0  0
   20.6845  -18.4041  -15.6523 N   0  0  0  0  0  0  0  0  0  0  0  0
   22.0177  -18.9774  -15.7365 C   0  0  0  0  0  0  0  0  0  0  0  0
   19.8334  -19.2777  -14.8372 O   0  0  0  0  0  0  0  0  0  0  0  0
   20.0921  -20.5373  -14.8421 O   0  0  0  0  0  0  0  0  0  0  0  0
  2  1  1  6
  3  2  1  0
  4  3  1  0
  5  2  1  0
  5  6  2  0
  7  8  1  0
  8 10  1  0
  9  8  2  0
 10 11  1  0
 12 11  1  0
 12 13  1  0
 14 15  1  0
 14 13  1  1
 15  5  1  0
 16 14  1  0
 17 16  2  0
 18 19  1  0
 19 21  1  0
 19 20  2  0
 21 22  1  0
 23 22  1  6
 23 25  1  0
 23 24  1  0
 24 16  1  0
 25 27  1  0
 26 25  2  0
M  END
$$$$
