CRQ.pdb
     RDKit          3D

 27 26  0  0  1  0  0  0  0  0999 V2000
   18.5864  -20.6741  -11.8231 N   0  0  0  0  0  0  0  0  0  0  0  0
   19.4528  -21.5838  -12.5051 C   0  0  1  0  0  0  0  0  0  0  0  0
   18.6559  -22.4089  -13.5237 C   0  0  0  0  0  0  0  0  0  0  0  0
   17.6397  -23.6465  -12.6999 S   0  0  0  0  0  0  0  0  0  0  0  0
   20.5655  -20.9341  -13.2143 C   0  0  0  0  0  0  0  0  0  0  0  0
   20.3049  -19.8954  -13.8770 O   0  0  0  0  0  0  0  0  0  0  0  0
   28.1634  -21.8238  -15.7439 N   0  0  0  0  0  0  0  0  0  0  0  0
   27.8748  -20.4801  -16.1263 C   0  0  0  0  0  0  0  0  0  0  0  0
   28.2085  -20.0531  -17.2846 N   0  0  0  0  0  0  0  0  0  0  0  0
   27.2182  -19.5846  -15.2442 N   0  0  0  0  0  0  0  0  0  0  0  0
   26.3277  -20.0232  -14.2232 C   0  0  0  0  0  0  0  0  0  0  0  0
   25.3129  -21.0741  -14.7161 C   0  0  0  0  0  0  0  0  0  0  0  0
   24.2802  -21.3246  -13.6537 C   0  0  0  0  0  0  0  0  0  0  0  0
   22.9452  -20.7402  -13.9930 C   0  0  2  0  0  0  0  0  0  0  0  0
   21.9029  -21.4011  -13.1981 N   0  0  0  0  0  0  0  0  0  0  0  0
   22.6215  -20.8601  -15.4358 C   0  0  0  0  0  0  0  0  0  0  0  0
   22.2309  -21.9094  -15.9981 O   0  0  0  0  0  0  0  0  0  0  0  0
   27.9701  -19.0782  -17.5513 N   0  0  0  0  0  0  0  0  0  0  0  0
   20.0776  -16.5367  -19.2460 C   0  0  0  0  0  0  0  0  0  0  0  0
   20.3542  -17.6460  -20.0736 O   0  0  0  0  0  0  0  0  0  0  0  0
   19.9550  -17.6629  -21.2531 C   0  0  0  0  0  0  0  0  0  0  0  0
   21.1265  -18.8477  -19.6024 C   0  0  0  0  0  0  0  0  0  0  0  0
   21.4669  -18.7275  -18.1448 C   0  0  1  0  0  0  0  0  0  0  0  0
   22.3636  -19.8329  -17.7234 N   0  0  0  0  0  0  0  0  0  0  0  0
   22.7394  -19.7324  -16.3228 C   0  0  0  0  0  0  0  0  0  0  0  0
   23.5766  -19.8909  -18.5464 O   0  0  0  0  0  0  0  0  0  0  0  0
   24.6748  -19.4763  -18.0215 O   0  0  0  0  0  0  0  0  0  0  0  0
  2  1  1  6
  3  2  1  0
  4  3  1  0
  5  2  1  0
  5  6  2  0
  7  8  1  0
  8 10  1  0
  9  8  2  0
 10 11  1  0
 12 11  1  0
 12 13  1  0
 14 15  1  0
 14 13  1  6
 15  5  1  0
 16 14  1  0
 17 16  2  0
 18 19  1  0
 19 21  1  0
 19 20  2  0
 21 22  1  0
 23 22  1  1
 23 25  1  0
 23 24  1  0
 24 16  1  0
 25 27  1  0
 26 25  2  0
M  END
$$$$
