CRQ.pdb
     RDKit          3D

 27 26  0  0  1  0  0  0  0  0999 V2000
   28.2362  -22.0865  -17.0117 N   0  0  0  0  0  0  0  0  0  0  0  0
   27.8381  -20.9036  -16.3150 C   0  0  1  0  0  0  0  0  0  0  0  0
   27.4326  -19.8132  -17.3150 C   0  0  0  0  0  0  0  0  0  0  0  0
   28.8765  -19.1265  -18.1437 S   0  0  0  0  0  0  0  0  0  0  0  0
   26.7197  -21.1057  -15.3814 C   0  0  0  0  0  0  0  0  0  0  0  0
   25.7123  -21.7297  -15.8075 O   0  0  0  0  0  0  0  0  0  0  0  0
   22.5527  -21.7110   -9.9682 N   0  0  0  0  0  0  0  0  0  0  0  0
   22.9804  -21.3537   -8.6550 C   0  0  0  0  0  0  0  0  0  0  0  0
   22.3610  -21.8027   -7.6303 N   0  0  0  0  0  0  0  0  0  0  0  0
   24.0917  -20.4980   -8.4461 N   0  0  0  0  0  0  0  0  0  0  0  0
   25.1466  -20.3600   -9.3927 C   0  0  0  0  0  0  0  0  0  0  0  0
   24.6981  -20.6330  -10.8423 C   0  0  0  0  0  0  0  0  0  0  0  0
   25.8769  -20.5350  -11.7689 C   0  0  0  0  0  0  0  0  0  0  0  0
   25.5197  -20.8175  -13.1942 C   0  0  2  0  0  0  0  0  0  0  0  0
   26.7058  -20.6450  -14.0418 N   0  0  0  0  0  0  0  0  0  0  0  0
   24.4239  -19.9485  -13.6893 C   0  0  0  0  0  0  0  0  0  0  0  0
   24.4898  -18.7018  -13.7952 O   0  0  0  0  0  0  0  0  0  0  0  0
   22.7014  -21.5479   -6.6828 N   0  0  0  0  0  0  0  0  0  0  0  0
   21.2721  -20.5073  -18.7524 C   0  0  0  0  0  0  0  0  0  0  0  0
   22.1283  -19.4400  -18.4059 O   0  0  0  0  0  0  0  0  0  0  0  0
   22.6646  -18.7527  -19.2952 C   0  0  0  0  0  0  0  0  0  0  0  0
   22.4424  -19.0706  -16.9820 C   0  0  0  0  0  0  0  0  0  0  0  0
   21.7507  -19.9968  -16.0235 C   0  0  2  0  0  0  0  0  0  0  0  0
   22.1001  -19.6560  -14.6216 N   0  0  0  0  0  0  0  0  0  0  0  0
   23.1596  -20.5025  -14.0979 C   0  0  0  0  0  0  0  0  0  0  0  0
   20.9333  -19.7388  -13.7364 O   0  0  0  0  0  0  0  0  0  0  0  0
   20.3907  -18.6359  -13.3587 O   0  0  0  0  0  0  0  0  0  0  0  0
  2  1  1  6
  3  2  1  0
  4  3  1  0
  5  2  1  0
  5  6  2  0
  7  8  1  0
  8 10  1  0
  9  8  2  0
 10 11  1  0
 12 11  1  0
 12 13  1  0
 14 15  1  0
 14 13  1  1
 15  5  1  0
 16 14  1  0
 17 16  2  0
 18 19  1  0
 19 21  1  0
 19 20  2  0
 21 22  1  0
 23 22  1  6
 23 25  1  0
 23 24  1  0
 24 16  1  0
 25 27  1  0
 26 25  2  0
M  END
$$$$
