CRQ.pdb
     RDKit          3D

 27 26  0  0  1  0  0  0  0  0999 V2000
   28.0006  -20.2913  -19.7898 N   0  0  0  0  0  0  0  0  0  0  0  0
   27.7639  -19.3771  -18.7168 C   0  0  1  0  0  0  0  0  0  0  0  0
   27.1011  -18.0997  -19.2480 C   0  0  0  0  0  0  0  0  0  0  0  0
   28.2897  -17.0727  -20.1287 S   0  0  0  0  0  0  0  0  0  0  0  0
   26.9163  -19.9189  -17.6438 C   0  0  0  0  0  0  0  0  0  0  0  0
   25.8570  -20.5099  -17.9821 O   0  0  0  0  0  0  0  0  0  0  0  0
   26.4614  -19.6848   -8.7995 N   0  0  0  0  0  0  0  0  0  0  0  0
   25.6178  -20.6176   -9.4729 C   0  0  0  0  0  0  0  0  0  0  0  0
   24.3637  -20.6492   -9.2248 N   0  0  0  0  0  0  0  0  0  0  0  0
   26.1368  -21.5302  -10.4261 N   0  0  0  0  0  0  0  0  0  0  0  0
   26.9303  -21.1184  -11.5345 C   0  0  0  0  0  0  0  0  0  0  0  0
   26.1054  -20.8871  -12.8164 C   0  0  0  0  0  0  0  0  0  0  0  0
   27.0128  -20.4723  -13.9400 C   0  0  0  0  0  0  0  0  0  0  0  0
   26.2971  -20.3481  -15.2481 C   0  0  2  0  0  0  0  0  0  0  0  0
   27.2159  -19.8179  -16.2628 N   0  0  0  0  0  0  0  0  0  0  0  0
   25.0978  -19.4792  -15.1604 C   0  0  0  0  0  0  0  0  0  0  0  0
   25.1152  -18.2270  -15.2012 O   0  0  0  0  0  0  0  0  0  0  0  0
   23.7704  -21.3493   -9.7108 N   0  0  0  0  0  0  0  0  0  0  0  0
   21.2111  -20.3636  -19.1966 C   0  0  0  0  0  0  0  0  0  0  0  0
   20.6955  -19.1853  -18.6152 O   0  0  0  0  0  0  0  0  0  0  0  0
   19.6754  -18.6486  -19.0865 C   0  0  0  0  0  0  0  0  0  0  0  0
   21.3236  -18.5171  -17.4230 C   0  0  0  0  0  0  0  0  0  0  0  0
   22.5457  -19.2645  -16.9724 C   0  0  2  0  0  0  0  0  0  0  0  0
   22.6031  -19.3295  -15.4905 N   0  0  0  0  0  0  0  0  0  0  0  0
   23.7797  -20.0397  -15.0167 C   0  0  0  0  0  0  0  0  0  0  0  0
   21.4016  -19.9554  -14.9281 O   0  0  0  0  0  0  0  0  0  0  0  0
   21.5105  -21.1514  -14.4686 O   0  0  0  0  0  0  0  0  0  0  0  0
  2  1  1  6
  3  2  1  0
  4  3  1  0
  5  2  1  0
  5  6  2  0
  7  8  1  0
  8 10  1  0
  9  8  2  0
 10 11  1  0
 12 11  1  0
 12 13  1  0
 14 15  1  0
 14 13  1  1
 15  5  1  0
 16 14  1  0
 17 16  2  0
 18 19  1  0
 19 21  1  0
 19 20  2  0
 21 22  1  0
 23 22  1  1
 23 25  1  0
 23 24  1  0
 24 16  1  0
 25 27  1  0
 26 25  2  0
M  END
$$$$
