CRQ.pdb
     RDKit          3D

 27 26  0  0  1  0  0  0  0  0999 V2000
   28.1869  -21.1978  -18.1414 N   0  0  0  0  0  0  0  0  0  0  0  0
   27.8687  -20.2755  -17.0968 C   0  0  1  0  0  0  0  0  0  0  0  0
   27.2252  -19.0131  -17.6848 C   0  0  0  0  0  0  0  0  0  0  0  0
   26.9823  -19.1787  -19.4615 S   0  0  0  0  0  0  0  0  0  0  0  0
   26.9602  -20.8174  -16.0750 C   0  0  0  0  0  0  0  0  0  0  0  0
   26.1240  -21.6846  -16.4417 O   0  0  0  0  0  0  0  0  0  0  0  0
   22.7953  -20.3702  -10.0006 N   0  0  0  0  0  0  0  0  0  0  0  0
   23.5084  -20.9483   -8.9086 C   0  0  0  0  0  0  0  0  0  0  0  0
   22.8773  -21.3931   -7.8892 N   0  0  0  0  0  0  0  0  0  0  0  0
   24.9231  -21.0453   -8.9172 N   0  0  0  0  0  0  0  0  0  0  0  0
   25.7260  -20.5055   -9.9621 C   0  0  0  0  0  0  0  0  0  0  0  0
   25.3618  -21.0608  -11.3535 C   0  0  0  0  0  0  0  0  0  0  0  0
   26.3265  -20.5390  -12.3805 C   0  0  0  0  0  0  0  0  0  0  0  0
   25.9537  -20.9268  -13.7767 C   0  0  2  0  0  0  0  0  0  0  0  0
   26.9678  -20.4270  -14.7131 N   0  0  0  0  0  0  0  0  0  0  0  0
   24.6177  -20.4169  -14.1715 C   0  0  0  0  0  0  0  0  0  0  0  0
   24.3445  -19.2132  -14.3866 O   0  0  0  0  0  0  0  0  0  0  0  0
   23.4120  -21.8439   -7.1215 N   0  0  0  0  0  0  0  0  0  0  0  0
   21.5033  -19.1905  -17.6220 C   0  0  0  0  0  0  0  0  0  0  0  0
   20.3062  -19.7989  -17.1875 O   0  0  0  0  0  0  0  0  0  0  0  0
   19.2058  -19.3675  -17.5797 C   0  0  0  0  0  0  0  0  0  0  0  0
   20.2779  -20.9744  -16.2494 C   0  0  0  0  0  0  0  0  0  0  0  0
   21.6693  -21.4512  -15.9464 C   0  0  1  0  0  0  0  0  0  0  0  0
   22.1868  -20.8069  -14.7133 N   0  0  0  0  0  0  0  0  0  0  0  0
   23.4996  -21.3078  -14.3408 C   0  0  0  0  0  0  0  0  0  0  0  0
   21.2659  -20.9785  -13.5844 O   0  0  0  0  0  0  0  0  0  0  0  0
   20.3489  -20.0918  -13.4215 O   0  0  0  0  0  0  0  0  0  0  0  0
  2  1  1  6
  3  2  1  0
  4  3  1  0
  5  2  1  0
  5  6  2  0
  7  8  1  0
  8 10  1  0
  9  8  2  0
 10 11  1  0
 12 11  1  0
 12 13  1  0
 14 15  1  0
 14 13  1  1
 15  5  1  0
 16 14  1  0
 17 16  2  0
 18 19  1  0
 19 21  1  0
 19 20  2  0
 21 22  1  0
 23 22  1  6
 23 25  1  0
 23 24  1  0
 24 16  1  0
 25 27  1  0
 26 25  2  0
M  END
$$$$
