CRQ.pdb
     RDKit          3D

 27 26  0  0  1  0  0  0  0  0999 V2000
   22.5208  -20.0697   -7.9544 N   0  0  0  0  0  0  0  0  0  0  0  0
   22.6208  -21.0796   -8.9609 C   0  0  1  0  0  0  0  0  0  0  0  0
   21.2323  -21.6513   -9.2751 C   0  0  0  0  0  0  0  0  0  0  0  0
   20.6186  -22.6478   -7.9064 S   0  0  0  0  0  0  0  0  0  0  0  0
   23.2181  -20.6127  -10.2213 C   0  0  0  0  0  0  0  0  0  0  0  0
   22.7876  -19.5317  -10.7032 O   0  0  0  0  0  0  0  0  0  0  0  0
   28.5384  -22.0046  -16.0774 N   0  0  0  0  0  0  0  0  0  0  0  0
   28.3839  -20.5942  -16.2257 C   0  0  0  0  0  0  0  0  0  0  0  0
   28.4085  -20.0611  -17.3878 N   0  0  0  0  0  0  0  0  0  0  0  0
   28.2023  -19.7477  -15.1025 N   0  0  0  0  0  0  0  0  0  0  0  0
   27.8129  -20.2377  -13.8234 C   0  0  0  0  0  0  0  0  0  0  0  0
   26.5733  -21.1529  -13.8778 C   0  0  0  0  0  0  0  0  0  0  0  0
   26.0852  -21.4353  -12.4851 C   0  0  0  0  0  0  0  0  0  0  0  0
   24.7772  -20.7742  -12.1834 C   0  0  2  0  0  0  0  0  0  0  0  0
   24.2407  -21.2988  -10.9217 N   0  0  0  0  0  0  0  0  0  0  0  0
   23.7803  -20.9647  -13.2654 C   0  0  0  0  0  0  0  0  0  0  0  0
   23.0525  -21.9757  -13.3997 O   0  0  0  0  0  0  0  0  0  0  0  0
   28.3374  -19.0285  -17.4712 N   0  0  0  0  0  0  0  0  0  0  0  0
   18.9571  -18.6283  -12.6183 C   0  0  0  0  0  0  0  0  0  0  0  0
   18.7892  -18.9001  -13.9931 O   0  0  0  0  0  0  0  0  0  0  0  0
   17.6772  -18.7437  -14.5316 C   0  0  0  0  0  0  0  0  0  0  0  0
   19.9075  -19.3827  -14.8757 C   0  0  0  0  0  0  0  0  0  0  0  0
   21.1781  -19.5415  -14.0912 C   0  0  1  0  0  0  0  0  0  0  0  0
   22.3138  -19.8598  -14.9926 N   0  0  0  0  0  0  0  0  0  0  0  0
   23.5740  -19.9593  -14.2749 C   0  0  0  0  0  0  0  0  0  0  0  0
   22.4466  -18.8705  -16.0676 O   0  0  0  0  0  0  0  0  0  0  0  0
   21.5065  -18.8097  -16.9428 O   0  0  0  0  0  0  0  0  0  0  0  0
  2  1  1  1
  3  2  1  0
  4  3  1  0
  5  2  1  0
  5  6  2  0
  7  8  1  0
  8 10  1  0
  9  8  2  0
 10 11  1  0
 12 11  1  0
 12 13  1  0
 14 15  1  0
 14 13  1  6
 15  5  1  0
 16 14  1  0
 17 16  2  0
 18 19  1  0
 19 21  1  0
 19 20  2  0
 21 22  1  0
 23 22  1  1
 23 25  1  0
 23 24  1  0
 24 16  1  0
 25 27  1  0
 26 25  2  0
M  END
$$$$
