TRH.pdb
     RDKit          3D

 29 29  0  0  1  0  0  0  0  0999 V2000
   29.2701  -21.9765  -15.4855 C   0  0  0  0  0  0  0  0  0  0  0  0
   28.3781  -22.7722  -16.4016 C   0  0  1  0  0  0  0  0  0  0  0  0
   27.4717  -23.5506  -15.6881 O   0  0  0  0  0  0  0  0  0  0  0  0
   27.6588  -21.7765  -17.3027 C   0  0  2  0  0  0  0  0  0  0  0  0
   28.5520  -21.1218  -18.2075 N   0  0  0  0  0  0  0  0  0  0  0  0
   26.9202  -20.7676  -16.4637 C   0  0  0  0  0  0  0  0  0  0  0  0
   27.3120  -19.5856  -16.3629 O   0  0  0  0  0  0  0  0  0  0  0  0
   18.8398  -18.3137  -15.3686 N   0  0  0  0  0  0  0  0  0  0  0  0
   19.6395  -17.3904  -16.1272 C   0  0  0  0  0  0  0  0  0  0  0  0
   19.2190  -16.1872  -16.2920 N   0  0  0  0  0  0  0  0  0  0  0  0
   20.8767  -17.7739  -16.6950 N   0  0  0  0  0  0  0  0  0  0  0  0
   21.3900  -19.1118  -16.5740 C   0  0  0  0  0  0  0  0  0  0  0  0
   22.5686  -19.1913  -15.6292 C   0  0  0  0  0  0  0  0  0  0  0  0
   23.6927  -19.9924  -16.1487 C   0  0  0  0  0  0  0  0  0  0  0  0
   24.8212  -20.2002  -15.1785 C   0  0  2  0  0  0  0  0  0  0  0  0
   25.7693  -21.1770  -15.7860 N   0  0  0  0  0  0  0  0  0  0  0  0
   24.3747  -20.8002  -13.9095 C   0  0  0  0  0  0  0  0  0  0  0  0
   23.8122  -21.9522  -13.9545 O   0  0  0  0  0  0  0  0  0  0  0  0
   19.7406  -15.4801  -16.8225 N   0  0  0  0  0  0  0  0  0  0  0  0
   24.5139  -20.2238  -12.6512 C   0  0  2  0  0  0  0  0  0  0  0  0
   24.1181  -20.9236  -11.4113 C   0  0  0  0  0  0  0  0  0  0  0  0
   24.8612  -20.3354  -10.2319 C   0  0  0  0  0  0  0  0  0  0  0  0
   26.3000  -20.6422  -10.3285 C   0  0  0  0  0  0  0  0  0  0  0  0
   26.9617  -21.3486  -11.3399 N   0  0  0  0  0  0  0  0  0  0  0  0
   28.2531  -21.3777  -11.0072 C   0  0  0  0  0  0  0  0  0  0  0  0
   28.4656  -20.7351   -9.8459 N   0  0  0  0  0  0  0  0  0  0  0  0
   27.2755  -20.2949   -9.4459 C   0  0  0  0  0  0  0  0  0  0  0  0
   22.6629  -20.9078  -11.2718 O   0  0  0  0  0  0  0  0  0  0  0  0
   21.9687  -19.9818  -11.7603 O   0  0  0  0  0  0  0  0  0  0  0  0
  2  1  1  1
  2  4  1  0
  3  2  1  0
  4  6  1  0
  4  5  1  1
  6  7  2  0
  9  8  1  0
 10  9  2  0
 11  9  1  0
 12 13  1  0
 12 11  1  0
 13 14  1  0
 15 14  1  6
 16 15  1  0
 16  6  1  0
 17 15  1  0
 18 17  2  0
 19 17  1  0
 20 27  1  0
 20 19  1  0
 20 21  1  6
 22 21  1  0
 23 22  2  0
 24 23  1  0
 25 24  1  0
 25 26  2  0
 26 22  1  0
 27 29  1  0
 28 27  2  0
M  END
$$$$
