TRH.pdb
     RDKit          3D

 29 29  0  0  1  0  0  0  0  0999 V2000
   25.9613  -22.3950  -18.3658 C   0  0  0  0  0  0  0  0  0  0  0  0
   25.3811  -22.2263  -16.9863 C   0  0  1  0  0  0  0  0  0  0  0  0
   24.0338  -22.5729  -16.9494 O   0  0  0  0  0  0  0  0  0  0  0  0
   26.2004  -23.1007  -16.0456 C   0  0  2  0  0  0  0  0  0  0  0  0
   26.1300  -24.4856  -16.3948 N   0  0  0  0  0  0  0  0  0  0  0  0
   25.7479  -22.8883  -14.6252 C   0  0  0  0  0  0  0  0  0  0  0  0
   24.9028  -23.6350  -14.0875 O   0  0  0  0  0  0  0  0  0  0  0  0
   30.9337  -21.9893   -8.5964 N   0  0  0  0  0  0  0  0  0  0  0  0
   30.9463  -21.8920  -10.0308 C   0  0  0  0  0  0  0  0  0  0  0  0
   31.7790  -22.6072  -10.6992 N   0  0  0  0  0  0  0  0  0  0  0  0
   30.0647  -21.0296  -10.7232 N   0  0  0  0  0  0  0  0  0  0  0  0
   28.7607  -20.7016  -10.2134 C   0  0  0  0  0  0  0  0  0  0  0  0
   27.6626  -21.4831  -10.8999 C   0  0  0  0  0  0  0  0  0  0  0  0
   26.8689  -20.6818  -11.8503 C   0  0  0  0  0  0  0  0  0  0  0  0
   25.7799  -21.4378  -12.5578 C   0  0  2  0  0  0  0  0  0  0  0  0
   26.2947  -21.8258  -13.9018 N   0  0  0  0  0  0  0  0  0  0  0  0
   24.5837  -20.6134  -12.8015 C   0  0  0  0  0  0  0  0  0  0  0  0
   24.7354  -19.5047  -13.4286 O   0  0  0  0  0  0  0  0  0  0  0  0
   31.8658  -22.5567  -11.7207 N   0  0  0  0  0  0  0  0  0  0  0  0
   23.2881  -20.9359  -12.4111 C   0  0  1  0  0  0  0  0  0  0  0  0
   22.1242  -20.0931  -12.7555 C   0  0  0  0  0  0  0  0  0  0  0  0
   22.0515  -19.9085  -14.2554 C   0  0  0  0  0  0  0  0  0  0  0  0
   20.8502  -19.1347  -14.6185 C   0  0  0  0  0  0  0  0  0  0  0  0
   20.7113  -17.7431  -14.6812 N   0  0  0  0  0  0  0  0  0  0  0  0
   19.4539  -17.4984  -15.0532 C   0  0  0  0  0  0  0  0  0  0  0  0
   18.7738  -18.6436  -15.2341 N   0  0  0  0  0  0  0  0  0  0  0  0
   19.6305  -19.6262  -14.9677 C   0  0  0  0  0  0  0  0  0  0  0  0
   20.9107  -20.6501  -12.1601 O   0  0  0  0  0  0  0  0  0  0  0  0
   20.7909  -21.8830  -11.9510 O   0  0  0  0  0  0  0  0  0  0  0  0
  2  1  1  6
  2  4  1  0
  3  2  1  0
  4  6  1  0
  4  5  1  6
  6  7  2  0
  9  8  1  0
 10  9  2  0
 11  9  1  0
 12 13  1  0
 12 11  1  0
 13 14  1  0
 15 14  1  6
 16 15  1  0
 16  6  1  0
 17 15  1  0
 18 17  2  0
 19 17  1  0
 20 27  1  0
 20 19  1  0
 20 21  1  1
 22 21  1  0
 23 22  2  0
 24 23  1  0
 25 24  1  0
 25 26  2  0
 26 22  1  0
 27 29  1  0
 28 27  2  0
M  END
$$$$
