TRH.pdb
     RDKit          3D

 29 29  0  0  1  0  0  0  0  0999 V2000
   25.0717  -17.9584  -17.7745 C   0  0  0  0  0  0  0  0  0  0  0  0
   24.4307  -19.2575  -18.1861 C   0  0  1  0  0  0  0  0  0  0  0  0
   23.3548  -19.0508  -19.0442 O   0  0  0  0  0  0  0  0  0  0  0  0
   25.5117  -20.0996  -18.8517 C   0  0  2  0  0  0  0  0  0  0  0  0
   25.9818  -19.5135  -20.0686 N   0  0  0  0  0  0  0  0  0  0  0  0
   24.9959  -21.4925  -19.0987 C   0  0  0  0  0  0  0  0  0  0  0  0
   24.7860  -21.9190  -20.2540 O   0  0  0  0  0  0  0  0  0  0  0  0
   28.3715  -28.7970  -16.1084 N   0  0  0  0  0  0  0  0  0  0  0  0
   27.0386  -29.1916  -16.4759 C   0  0  0  0  0  0  0  0  0  0  0  0
   26.7227  -30.4369  -16.4410 N   0  0  0  0  0  0  0  0  0  0  0  0
   26.0678  -28.2432  -16.8737 N   0  0  0  0  0  0  0  0  0  0  0  0
   26.3210  -26.8283  -16.8318 C   0  0  0  0  0  0  0  0  0  0  0  0
   25.2030  -26.0262  -17.4600 C   0  0  0  0  0  0  0  0  0  0  0  0
   25.4416  -24.5707  -17.4553 C   0  0  0  0  0  0  0  0  0  0  0  0
   24.3911  -23.7566  -18.1565 C   0  0  2  0  0  0  0  0  0  0  0  0
   24.7501  -22.3184  -17.9991 N   0  0  0  0  0  0  0  0  0  0  0  0
   23.0564  -23.9123  -17.5528 C   0  0  0  0  0  0  0  0  0  0  0  0
   22.9074  -23.5668  -16.3265 O   0  0  0  0  0  0  0  0  0  0  0  0
   25.7727  -30.7783  -16.6261 N   0  0  0  0  0  0  0  0  0  0  0  0
   21.9289  -24.4028  -18.2031 C   0  0  1  0  0  0  0  0  0  0  0  0
   20.6297  -24.5692  -17.5190 C   0  0  0  0  0  0  0  0  0  0  0  0
   20.7393  -25.6524  -16.4683 C   0  0  0  0  0  0  0  0  0  0  0  0
   19.4305  -25.8797  -15.8288 C   0  0  0  0  0  0  0  0  0  0  0  0
   18.1719  -25.9242  -16.4400 N   0  0  0  0  0  0  0  0  0  0  0  0
   17.2826  -26.1552  -15.4729 C   0  0  0  0  0  0  0  0  0  0  0  0
   17.8881  -26.2623  -14.2777 N   0  0  0  0  0  0  0  0  0  0  0  0
   19.1877  -26.0935  -14.5072 C   0  0  0  0  0  0  0  0  0  0  0  0
   20.1666  -23.2808  -17.0063 O   0  0  0  0  0  0  0  0  0  0  0  0
   20.9755  -22.3724  -16.6925 O   0  0  0  0  0  0  0  0  0  0  0  0
  2  1  1  6
  2  4  1  0
  3  2  1  0
  4  6  1  0
  4  5  1  6
  6  7  2  0
  9  8  1  0
 10  9  2  0
 11  9  1  0
 12 13  1  0
 12 11  1  0
 13 14  1  0
 15 14  1  1
 16 15  1  0
 16  6  1  0
 17 15  1  0
 18 17  2  0
 19 17  1  0
 20 27  1  0
 20 19  1  0
 20 21  1  6
 22 21  1  0
 23 22  2  0
 24 23  1  0
 25 24  1  0
 25 26  2  0
 26 22  1  0
 27 29  1  0
 28 27  2  0
M  END
$$$$
