TRH.pdb
     RDKit          3D

 29 29  0  0  1  0  0  0  0  0999 V2000
   20.0723  -11.2911  -18.7090 C   0  0  0  0  0  0  0  0  0  0  0  0
   19.6313  -12.3761  -17.7623 C   0  0  1  0  0  0  0  0  0  0  0  0
   18.8427  -13.3275  -18.4024 O   0  0  0  0  0  0  0  0  0  0  0  0
   20.8922  -13.0055  -17.1835 C   0  0  2  0  0  0  0  0  0  0  0  0
   20.6126  -14.2000  -16.4485 N   0  0  0  0  0  0  0  0  0  0  0  0
   21.6118  -12.0060  -16.3171 C   0  0  0  0  0  0  0  0  0  0  0  0
   21.1326  -11.6133  -15.2323 O   0  0  0  0  0  0  0  0  0  0  0  0
   29.8761  -12.4734  -16.8057 N   0  0  0  0  0  0  0  0  0  0  0  0
   28.6687  -12.7548  -17.5340 C   0  0  0  0  0  0  0  0  0  0  0  0
   28.7444  -13.3866  -18.6506 N   0  0  0  0  0  0  0  0  0  0  0  0
   27.4013  -12.3541  -17.0513 N   0  0  0  0  0  0  0  0  0  0  0  0
   27.2166  -11.8526  -15.7162 C   0  0  0  0  0  0  0  0  0  0  0  0
   25.7569  -11.6493  -15.3760 C   0  0  0  0  0  0  0  0  0  0  0  0
   25.0680  -10.6940  -16.2636 C   0  0  0  0  0  0  0  0  0  0  0  0
   23.6077  -10.4980  -15.9683 C   0  0  2  0  0  0  0  0  0  0  0  0
   22.8455  -11.5136  -16.7493 N   0  0  0  0  0  0  0  0  0  0  0  0
   23.1106   -9.1845  -16.4125 C   0  0  0  0  0  0  0  0  0  0  0  0
   23.1022   -8.9395  -17.6716 O   0  0  0  0  0  0  0  0  0  0  0  0
   27.9230  -13.6075  -19.2251 N   0  0  0  0  0  0  0  0  0  0  0  0
   22.6401   -8.1756  -15.5785 C   0  0  1  0  0  0  0  0  0  0  0  0
   22.0131   -6.9439  -16.1014 C   0  0  0  0  0  0  0  0  0  0  0  0
   20.9259   -7.3029  -17.0905 C   0  0  0  0  0  0  0  0  0  0  0  0
   20.2318   -6.0869  -17.5522 C   0  0  0  0  0  0  0  0  0  0  0  0
   20.5178   -4.7568  -17.2222 N   0  0  0  0  0  0  0  0  0  0  0  0
   19.6326   -4.0002  -17.8728 C   0  0  0  0  0  0  0  0  0  0  0  0
   18.7945   -4.7579  -18.6009 N   0  0  0  0  0  0  0  0  0  0  0  0
   19.1682   -6.0187  -18.3979 C   0  0  0  0  0  0  0  0  0  0  0  0
   21.5622   -6.1038  -14.9931 O   0  0  0  0  0  0  0  0  0  0  0  0
   20.9717   -5.0138  -15.1964 O   0  0  0  0  0  0  0  0  0  0  0  0
  2  1  1  6
  2  4  1  0
  3  2  1  0
  4  6  1  0
  4  5  1  1
  6  7  2  0
  9  8  1  0
 10  9  2  0
 11  9  1  0
 12 13  1  0
 12 11  1  0
 13 14  1  0
 15 14  1  6
 16 15  1  0
 16  6  1  0
 17 15  1  0
 18 17  2  0
 19 17  1  0
 20 27  1  0
 20 19  1  0
 20 21  1  6
 22 21  1  0
 23 22  2  0
 24 23  1  0
 25 24  1  0
 25 26  2  0
 26 22  1  0
 27 29  1  0
 28 27  2  0
M  END
$$$$
