TRH.pdb
     RDKit          3D

 29 29  0  0  1  0  0  0  0  0999 V2000
   27.8595  -20.4020  -18.4753 C   0  0  0  0  0  0  0  0  0  0  0  0
   27.1286  -20.5505  -17.1670 C   0  0  1  0  0  0  0  0  0  0  0  0
   25.7850  -20.8571  -17.3607 O   0  0  0  0  0  0  0  0  0  0  0  0
   27.8355  -21.6471  -16.3806 C   0  0  2  0  0  0  0  0  0  0  0  0
   27.8579  -22.8908  -17.0862 N   0  0  0  0  0  0  0  0  0  0  0  0
   27.1827  -21.8133  -15.0339 C   0  0  0  0  0  0  0  0  0  0  0  0
   26.3492  -22.7180  -14.8162 O   0  0  0  0  0  0  0  0  0  0  0  0
   32.4645  -22.5485   -9.9882 N   0  0  0  0  0  0  0  0  0  0  0  0
   31.5104  -22.0656   -9.0270 C   0  0  0  0  0  0  0  0  0  0  0  0
   31.7160  -22.2839   -7.7773 N   0  0  0  0  0  0  0  0  0  0  0  0
   30.3528  -21.3563   -9.4234 N   0  0  0  0  0  0  0  0  0  0  0  0
   30.2464  -20.7286  -10.7128 C   0  0  0  0  0  0  0  0  0  0  0  0
   29.1602  -21.3471  -11.5645 C   0  0  0  0  0  0  0  0  0  0  0  0
   27.9414  -20.5224  -11.6632 C   0  0  0  0  0  0  0  0  0  0  0  0
   26.9229  -21.0168  -12.6511 C   0  0  2  0  0  0  0  0  0  0  0  0
   27.5269  -20.9264  -14.0109 N   0  0  0  0  0  0  0  0  0  0  0  0
   25.7126  -20.1779  -12.6856 C   0  0  0  0  0  0  0  0  0  0  0  0
   25.7574  -19.0857  -13.3568 O   0  0  0  0  0  0  0  0  0  0  0  0
   31.0816  -21.9554   -7.0403 N   0  0  0  0  0  0  0  0  0  0  0  0
   24.5098  -20.4700  -12.0510 C   0  0  2  0  0  0  0  0  0  0  0  0
   23.1986  -20.1501  -12.6527 C   0  0  0  0  0  0  0  0  0  0  0  0
   23.1068  -20.7602  -14.0342 C   0  0  0  0  0  0  0  0  0  0  0  0
   21.8087  -20.4344  -14.6526 C   0  0  0  0  0  0  0  0  0  0  0  0
   20.7464  -19.7155  -14.0919 N   0  0  0  0  0  0  0  0  0  0  0  0
   19.7838  -19.6694  -15.0142 C   0  0  0  0  0  0  0  0  0  0  0  0
   20.1582  -20.3129  -16.1334 N   0  0  0  0  0  0  0  0  0  0  0  0
   21.3856  -20.7711  -15.9012 C   0  0  0  0  0  0  0  0  0  0  0  0
   22.1227  -20.5504  -11.7475 O   0  0  0  0  0  0  0  0  0  0  0  0
   21.0736  -19.8684  -11.6361 O   0  0  0  0  0  0  0  0  0  0  0  0
  2  1  1  6
  2  4  1  0
  3  2  1  0
  4  6  1  0
  4  5  1  6
  6  7  2  0
  9  8  1  0
 10  9  2  0
 11  9  1  0
 12 13  1  0
 12 11  1  0
 13 14  1  0
 15 14  1  1
 16 15  1  0
 16  6  1  0
 17 15  1  0
 18 17  2  0
 19 17  1  0
 20 27  1  0
 20 19  1  0
 20 21  1  6
 22 21  1  0
 23 22  2  0
 24 23  1  0
 25 24  1  0
 25 26  2  0
 26 22  1  0
 27 29  1  0
 28 27  2  0
M  END
$$$$
