TRH.pdb
     RDKit          3D

 29 29  0  0  1  0  0  0  0  0999 V2000
   25.2110  -12.2156  -16.3391 C   0  0  0  0  0  0  0  0  0  0  0  0
   24.0153  -11.3056  -16.2391 C   0  0  1  0  0  0  0  0  0  0  0  0
   24.3878   -9.9648  -16.2423 O   0  0  0  0  0  0  0  0  0  0  0  0
   23.1073  -11.6274  -17.4192 C   0  0  2  0  0  0  0  0  0  0  0  0
   23.7317  -11.3471  -18.6749 N   0  0  0  0  0  0  0  0  0  0  0  0
   21.8123  -10.8700  -17.2902 C   0  0  0  0  0  0  0  0  0  0  0  0
   21.5958   -9.8254  -17.9403 O   0  0  0  0  0  0  0  0  0  0  0  0
   15.2905  -11.1809  -12.2454 N   0  0  0  0  0  0  0  0  0  0  0  0
   14.4671  -11.2426  -13.4225 C   0  0  0  0  0  0  0  0  0  0  0  0
   13.2673  -10.7848  -13.3716 N   0  0  0  0  0  0  0  0  0  0  0  0
   14.9457  -11.7938  -14.6338 N   0  0  0  0  0  0  0  0  0  0  0  0
   16.2943  -12.2728  -14.7743 C   0  0  0  0  0  0  0  0  0  0  0  0
   17.2160  -11.2286  -15.3641 C   0  0  0  0  0  0  0  0  0  0  0  0
   18.5796  -11.7232  -15.6311 C   0  0  0  0  0  0  0  0  0  0  0  0
   19.4840  -10.7404  -16.3198 C   0  0  2  0  0  0  0  0  0  0  0  0
   20.8368  -11.3587  -16.4178 N   0  0  0  0  0  0  0  0  0  0  0  0
   19.6588   -9.4959  -15.5514 C   0  0  0  0  0  0  0  0  0  0  0  0
   20.4243   -9.5273  -14.5226 O   0  0  0  0  0  0  0  0  0  0  0  0
   12.6312  -10.7921  -14.1771 N   0  0  0  0  0  0  0  0  0  0  0  0
   19.0638   -8.2741  -15.8480 C   0  0  1  0  0  0  0  0  0  0  0  0
   19.5562   -6.9973  -15.2903 C   0  0  0  0  0  0  0  0  0  0  0  0
   21.0158   -6.8132  -15.6436 C   0  0  0  0  0  0  0  0  0  0  0  0
   21.4918   -5.4958  -15.1838 C   0  0  0  0  0  0  0  0  0  0  0  0
   20.7828   -4.5320  -14.4570 N   0  0  0  0  0  0  0  0  0  0  0  0
   21.6132   -3.5054  -14.2672 C   0  0  0  0  0  0  0  0  0  0  0  0
   22.8120   -3.7464  -14.8255 N   0  0  0  0  0  0  0  0  0  0  0  0
   22.7250   -4.9542  -15.3768 C   0  0  0  0  0  0  0  0  0  0  0  0
   18.6921   -5.8987  -15.7191 O   0  0  0  0  0  0  0  0  0  0  0  0
   17.7936   -6.0707  -16.5800 O   0  0  0  0  0  0  0  0  0  0  0  0
  2  1  1  6
  2  4  1  0
  3  2  1  0
  4  6  1  0
  4  5  1  6
  6  7  2  0
  9  8  1  0
 10  9  2  0
 11  9  1  0
 12 13  1  0
 12 11  1  0
 13 14  1  0
 15 14  1  1
 16 15  1  0
 16  6  1  0
 17 15  1  0
 18 17  2  0
 19 17  1  0
 20 27  1  0
 20 19  1  0
 20 21  1  6
 22 21  1  0
 23 22  2  0
 24 23  1  0
 25 24  1  0
 25 26  2  0
 26 22  1  0
 27 29  1  0
 28 27  2  0
M  END
$$$$
