TRH.pdb
     RDKit          3D

 29 29  0  0  1  0  0  0  0  0999 V2000
   25.7944  -11.7323  -15.7411 C   0  0  0  0  0  0  0  0  0  0  0  0
   25.2918  -13.1376  -15.9424 C   0  0  1  0  0  0  0  0  0  0  0  0
   24.1527  -13.1668  -16.7412 O   0  0  0  0  0  0  0  0  0  0  0  0
   26.4272  -13.9335  -16.5735 C   0  0  2  0  0  0  0  0  0  0  0  0
   26.7396  -13.4780  -17.8926 N   0  0  0  0  0  0  0  0  0  0  0  0
   26.0796  -15.3986  -16.5869 C   0  0  0  0  0  0  0  0  0  0  0  0
   25.4272  -15.9094  -17.5218 O   0  0  0  0  0  0  0  0  0  0  0  0
   25.5977  -21.1517  -10.7100 N   0  0  0  0  0  0  0  0  0  0  0  0
   25.9829  -21.9089  -11.8700 C   0  0  0  0  0  0  0  0  0  0  0  0
   25.2507  -22.8967  -12.2439 N   0  0  0  0  0  0  0  0  0  0  0  0
   27.1465  -21.5926  -12.6090 N   0  0  0  0  0  0  0  0  0  0  0  0
   27.5085  -20.2359  -12.9192 C   0  0  0  0  0  0  0  0  0  0  0  0
   26.5952  -19.6207  -13.9561 C   0  0  0  0  0  0  0  0  0  0  0  0
   27.0008  -18.2662  -14.3756 C   0  0  0  0  0  0  0  0  0  0  0  0
   26.1018  -17.6253  -15.3950 C   0  0  2  0  0  0  0  0  0  0  0  0
   26.5035  -16.1953  -15.5206 N   0  0  0  0  0  0  0  0  0  0  0  0
   24.6887  -17.6171  -14.9793 C   0  0  0  0  0  0  0  0  0  0  0  0
   24.3776  -16.9644  -13.9198 O   0  0  0  0  0  0  0  0  0  0  0  0
   25.4155  -23.4177  -13.1127 N   0  0  0  0  0  0  0  0  0  0  0  0
   23.6484  -18.2584  -15.6437 C   0  0  2  0  0  0  0  0  0  0  0  0
   22.2487  -18.1919  -15.1744 C   0  0  0  0  0  0  0  0  0  0  0  0
   21.4560  -17.2549  -16.0591 C   0  0  0  0  0  0  0  0  0  0  0  0
   20.0522  -17.1943  -15.6129 C   0  0  0  0  0  0  0  0  0  0  0  0
   19.4745  -17.8278  -14.5062 N   0  0  0  0  0  0  0  0  0  0  0  0
   18.1853  -17.4855  -14.4966 C   0  0  0  0  0  0  0  0  0  0  0  0
   17.8955  -16.6718  -15.5265 N   0  0  0  0  0  0  0  0  0  0  0  0
   19.0341  -16.5037  -16.1941 C   0  0  0  0  0  0  0  0  0  0  0  0
   21.6905  -19.5396  -15.0758 O   0  0  0  0  0  0  0  0  0  0  0  0
   22.0637  -20.4603  -15.8447 O   0  0  0  0  0  0  0  0  0  0  0  0
  2  1  1  6
  2  4  1  0
  3  2  1  0
  4  6  1  0
  4  5  1  6
  6  7  2  0
  9  8  1  0
 10  9  2  0
 11  9  1  0
 12 13  1  0
 12 11  1  0
 13 14  1  0
 15 14  1  1
 16 15  1  0
 16  6  1  0
 17 15  1  0
 18 17  2  0
 19 17  1  0
 20 27  1  0
 20 19  1  0
 20 21  1  6
 22 21  1  0
 23 22  2  0
 24 23  1  0
 25 24  1  0
 25 26  2  0
 26 22  1  0
 27 29  1  0
 28 27  2  0
M  END
$$$$
