TRH.pdb
     RDKit          3D

 29 29  0  0  1  0  0  0  0  0999 V2000
   26.3475  -19.3751  -17.0823 C   0  0  0  0  0  0  0  0  0  0  0  0
   27.0204  -20.4866  -17.8439 C   0  0  1  0  0  0  0  0  0  0  0  0
   27.6806  -20.0101  -18.9725 O   0  0  0  0  0  0  0  0  0  0  0  0
   27.9900  -21.1645  -16.8841 C   0  0  2  0  0  0  0  0  0  0  0  0
   28.6829  -22.2558  -17.4957 N   0  0  0  0  0  0  0  0  0  0  0  0
   27.2540  -21.6261  -15.6543 C   0  0  0  0  0  0  0  0  0  0  0  0
   26.5888  -22.6836  -15.6462 O   0  0  0  0  0  0  0  0  0  0  0  0
   30.5144  -22.5987   -8.7151 N   0  0  0  0  0  0  0  0  0  0  0  0
   31.2644  -22.3449   -9.9153 C   0  0  0  0  0  0  0  0  0  0  0  0
   32.2552  -23.1095  -10.2074 N   0  0  0  0  0  0  0  0  0  0  0  0
   30.9377  -21.2757  -10.7815 N   0  0  0  0  0  0  0  0  0  0  0  0
   29.6142  -20.7162  -10.8379 C   0  0  0  0  0  0  0  0  0  0  0  0
   28.7822  -21.3204  -11.9472 C   0  0  0  0  0  0  0  0  0  0  0  0
   27.4476  -20.7089  -12.0887 C   0  0  0  0  0  0  0  0  0  0  0  0
   26.6327  -21.2308  -13.2382 C   0  0  2  0  0  0  0  0  0  0  0  0
   27.3252  -20.8426  -14.4999 N   0  0  0  0  0  0  0  0  0  0  0  0
   25.2923  -20.6235  -13.3050 C   0  0  0  0  0  0  0  0  0  0  0  0
   25.2153  -19.3549  -13.4784 O   0  0  0  0  0  0  0  0  0  0  0  0
   32.8604  -22.9543  -11.0218 N   0  0  0  0  0  0  0  0  0  0  0  0
   24.0883  -21.3119  -13.1996 C   0  0  1  0  0  0  0  0  0  0  0  0
   22.7780  -20.6379  -13.3124 C   0  0  0  0  0  0  0  0  0  0  0  0
   21.8082  -21.5258  -14.0609 C   0  0  0  0  0  0  0  0  0  0  0  0
   22.0917  -21.4887  -15.5072 C   0  0  0  0  0  0  0  0  0  0  0  0
   23.0505  -20.7178  -16.1752 N   0  0  0  0  0  0  0  0  0  0  0  0
   22.9458  -21.0125  -17.4719 C   0  0  0  0  0  0  0  0  0  0  0  0
   21.9805  -21.9241  -17.6821 N   0  0  0  0  0  0  0  0  0  0  0  0
   21.4717  -22.2036  -16.4849 C   0  0  0  0  0  0  0  0  0  0  0  0
   22.3138  -20.2240  -11.9894 O   0  0  0  0  0  0  0  0  0  0  0  0
   22.8948  -20.6056  -10.9430 O   0  0  0  0  0  0  0  0  0  0  0  0
  2  1  1  1
  2  4  1  0
  3  2  1  0
  4  6  1  0
  4  5  1  6
  6  7  2  0
  9  8  1  0
 10  9  2  0
 11  9  1  0
 12 13  1  0
 12 11  1  0
 13 14  1  0
 15 14  1  1
 16 15  1  0
 16  6  1  0
 17 15  1  0
 18 17  2  0
 19 17  1  0
 20 27  1  0
 20 19  1  0
 20 21  1  6
 22 21  1  0
 23 22  2  0
 24 23  1  0
 25 24  1  0
 25 26  2  0
 26 22  1  0
 27 29  1  0
 28 27  2  0
M  END
$$$$
