TRH.pdb
     RDKit          3D

 29 29  0  0  1  0  0  0  0  0999 V2000
   25.8512  -13.3738  -15.5365 C   0  0  0  0  0  0  0  0  0  0  0  0
   26.8541  -13.5432  -16.6470 C   0  0  1  0  0  0  0  0  0  0  0  0
   27.9808  -14.2398  -16.2204 O   0  0  0  0  0  0  0  0  0  0  0  0
   26.1487  -14.2782  -17.7797 C   0  0  2  0  0  0  0  0  0  0  0  0
   27.0435  -14.6251  -18.8399 N   0  0  0  0  0  0  0  0  0  0  0  0
   25.0086  -13.4432  -18.2999 C   0  0  0  0  0  0  0  0  0  0  0  0
   25.2047  -12.3555  -18.8823 O   0  0  0  0  0  0  0  0  0  0  0  0
   18.6755  -14.9425  -14.9967 N   0  0  0  0  0  0  0  0  0  0  0  0
   19.2461  -16.2553  -15.1322 C   0  0  0  0  0  0  0  0  0  0  0  0
   19.2063  -17.0611  -14.1318 N   0  0  0  0  0  0  0  0  0  0  0  0
   19.8487  -16.6808  -16.3388 N   0  0  0  0  0  0  0  0  0  0  0  0
   19.9713  -15.8124  -17.4785 C   0  0  0  0  0  0  0  0  0  0  0  0
   21.1568  -14.8799  -17.3649 C   0  0  0  0  0  0  0  0  0  0  0  0
   21.3213  -13.9849  -18.5256 C   0  0  0  0  0  0  0  0  0  0  0  0
   22.5149  -13.0746  -18.4567 C   0  0  2  0  0  0  0  0  0  0  0  0
   23.7038  -13.9083  -18.1199 N   0  0  0  0  0  0  0  0  0  0  0  0
   22.4022  -12.0721  -17.3834 C   0  0  0  0  0  0  0  0  0  0  0  0
   22.7193  -12.4283  -16.1926 O   0  0  0  0  0  0  0  0  0  0  0  0
   19.5047  -18.0414  -14.1910 N   0  0  0  0  0  0  0  0  0  0  0  0
   21.9815  -10.7567  -17.5488 C   0  0  2  0  0  0  0  0  0  0  0  0
   21.7841   -9.8388  -16.4076 C   0  0  0  0  0  0  0  0  0  0  0  0
   22.4487   -8.5109  -16.6976 C   0  0  0  0  0  0  0  0  0  0  0  0
   22.0924   -7.5232  -15.6628 C   0  0  0  0  0  0  0  0  0  0  0  0
   22.2812   -7.6224  -14.2792 N   0  0  0  0  0  0  0  0  0  0  0  0
   21.8092   -6.4952  -13.7446 C   0  0  0  0  0  0  0  0  0  0  0  0
   21.3282   -5.6759  -14.6956 N   0  0  0  0  0  0  0  0  0  0  0  0
   21.5058   -6.3101  -15.8517 C   0  0  0  0  0  0  0  0  0  0  0  0
   20.3613   -9.7401  -16.0863 O   0  0  0  0  0  0  0  0  0  0  0  0
   19.4785   -9.9385  -16.9577 O   0  0  0  0  0  0  0  0  0  0  0  0
  2  1  1  1
  2  4  1  0
  3  2  1  0
  4  6  1  0
  4  5  1  6
  6  7  2  0
  9  8  1  0
 10  9  2  0
 11  9  1  0
 12 13  1  0
 12 11  1  0
 13 14  1  0
 15 14  1  1
 16 15  1  0
 16  6  1  0
 17 15  1  0
 18 17  2  0
 19 17  1  0
 20 27  1  0
 20 19  1  0
 20 21  1  6
 22 21  1  0
 23 22  2  0
 24 23  1  0
 25 24  1  0
 25 26  2  0
 26 22  1  0
 27 29  1  0
 28 27  2  0
M  END
$$$$
