TRH.pdb
     RDKit          3D

 29 29  0  0  1  0  0  0  0  0999 V2000
   27.7876  -19.1054  -15.1821 C   0  0  0  0  0  0  0  0  0  0  0  0
   26.3332  -19.4323  -14.9686 C   0  0  1  0  0  0  0  0  0  0  0  0
   25.5975  -19.2935  -16.1417 O   0  0  0  0  0  0  0  0  0  0  0  0
   26.2673  -20.8608  -14.4433 C   0  0  2  0  0  0  0  0  0  0  0  0
   26.7742  -21.8084  -15.3869 N   0  0  0  0  0  0  0  0  0  0  0  0
   24.8514  -21.2002  -14.0594 C   0  0  0  0  0  0  0  0  0  0  0  0
   24.0961  -21.8304  -14.8296 O   0  0  0  0  0  0  0  0  0  0  0  0
   19.5596  -22.5227   -8.5968 N   0  0  0  0  0  0  0  0  0  0  0  0
   20.6751  -22.2816   -7.7223 C   0  0  0  0  0  0  0  0  0  0  0  0
   20.7631  -22.9424   -6.6236 N   0  0  0  0  0  0  0  0  0  0  0  0
   21.6772  -21.3362   -8.0422 N   0  0  0  0  0  0  0  0  0  0  0  0
   21.4308  -20.2348   -8.9333 C   0  0  0  0  0  0  0  0  0  0  0  0
   21.4985  -20.6463  -10.3873 C   0  0  0  0  0  0  0  0  0  0  0  0
   22.8714  -20.7123  -10.9221 C   0  0  0  0  0  0  0  0  0  0  0  0
   22.9617  -20.9780  -12.3984 C   0  0  2  0  0  0  0  0  0  0  0  0
   24.3832  -20.7940  -12.8075 N   0  0  0  0  0  0  0  0  0  0  0  0
   22.1800  -20.0176  -13.1962 C   0  0  0  0  0  0  0  0  0  0  0  0
   22.7257  -18.8941  -13.4881 O   0  0  0  0  0  0  0  0  0  0  0  0
   20.1105  -23.6922   -6.3680 N   0  0  0  0  0  0  0  0  0  0  0  0
   20.8888  -20.2247  -13.6703 C   0  0  2  0  0  0  0  0  0  0  0  0
   20.2542  -19.3271  -14.6578 C   0  0  0  0  0  0  0  0  0  0  0  0
   21.1177  -19.2367  -15.8968 C   0  0  0  0  0  0  0  0  0  0  0  0
   20.4488  -18.4239  -16.9290 C   0  0  0  0  0  0  0  0  0  0  0  0
   19.6966  -17.2569  -16.7496 N   0  0  0  0  0  0  0  0  0  0  0  0
   19.2901  -16.8714  -17.9601 C   0  0  0  0  0  0  0  0  0  0  0  0
   19.7323  -17.7155  -18.9081 N   0  0  0  0  0  0  0  0  0  0  0  0
   20.4322  -18.6504  -18.2705 C   0  0  0  0  0  0  0  0  0  0  0  0
   18.8807  -19.7577  -14.9139 O   0  0  0  0  0  0  0  0  0  0  0  0
   18.5464  -20.9654  -14.8256 O   0  0  0  0  0  0  0  0  0  0  0  0
  2  1  1  6
  2  4  1  0
  3  2  1  0
  4  6  1  0
  4  5  1  6
  6  7  2  0
  9  8  1  0
 10  9  2  0
 11  9  1  0
 12 13  1  0
 12 11  1  0
 13 14  1  0
 15 14  1  1
 16 15  1  0
 16  6  1  0
 17 15  1  0
 18 17  2  0
 19 17  1  0
 20 27  1  0
 20 19  1  0
 20 21  1  6
 22 21  1  0
 23 22  2  0
 24 23  1  0
 25 24  1  0
 25 26  2  0
 26 22  1  0
 27 29  1  0
 28 27  2  0
M  END
$$$$
