TRH.pdb
     RDKit          3D

 29 29  0  0  1  0  0  0  0  0999 V2000
   18.1602  -21.9817   -9.6184 C   0  0  0  0  0  0  0  0  0  0  0  0
   17.5066  -21.9158  -10.9735 C   0  0  1  0  0  0  0  0  0  0  0  0
   17.7773  -20.7118  -11.6168 O   0  0  0  0  0  0  0  0  0  0  0  0
   18.0260  -23.0995  -11.7797 C   0  0  2  0  0  0  0  0  0  0  0  0
   17.4957  -23.1246  -13.1075 N   0  0  0  0  0  0  0  0  0  0  0  0
   17.7146  -24.3849  -11.0600 C   0  0  0  0  0  0  0  0  0  0  0  0
   16.5387  -24.7473  -10.8436 O   0  0  0  0  0  0  0  0  0  0  0  0
   19.9074  -28.6233  -13.2075 N   0  0  0  0  0  0  0  0  0  0  0  0
   21.1122  -29.4037  -13.1253 C   0  0  0  0  0  0  0  0  0  0  0  0
   21.4063  -30.2038  -14.0870 N   0  0  0  0  0  0  0  0  0  0  0  0
   21.9807  -29.3115  -12.0129 N   0  0  0  0  0  0  0  0  0  0  0  0
   21.6433  -28.5474  -10.8423 C   0  0  0  0  0  0  0  0  0  0  0  0
   20.3035  -27.8577  -10.9734 C   0  0  0  0  0  0  0  0  0  0  0  0
   19.8790  -27.1486   -9.7518 C   0  0  0  0  0  0  0  0  0  0  0  0
   18.5577  -26.4411   -9.8596 C   0  0  2  0  0  0  0  0  0  0  0  0
   18.7769  -25.1831  -10.6286 N   0  0  0  0  0  0  0  0  0  0  0  0
   18.0258  -26.0305   -8.5487 C   0  0  0  0  0  0  0  0  0  0  0  0
   18.6844  -25.1561   -7.8800 O   0  0  0  0  0  0  0  0  0  0  0  0
   22.2383  -30.8048  -14.0801 N   0  0  0  0  0  0  0  0  0  0  0  0
   16.8569  -26.5093   -7.9663 C   0  0  1  0  0  0  0  0  0  0  0  0
   16.3587  -26.0129   -6.6666 C   0  0  0  0  0  0  0  0  0  0  0  0
   15.6268  -24.7036   -6.8650 C   0  0  0  0  0  0  0  0  0  0  0  0
   14.9338  -24.3113   -5.6243 C   0  0  0  0  0  0  0  0  0  0  0  0
   14.8726  -25.0145   -4.4153 N   0  0  0  0  0  0  0  0  0  0  0  0
   14.1395  -24.2782   -3.5788 C   0  0  0  0  0  0  0  0  0  0  0  0
   13.7244  -23.1456   -4.1717 N   0  0  0  0  0  0  0  0  0  0  0  0
   14.2120  -23.1782   -5.4092 C   0  0  0  0  0  0  0  0  0  0  0  0
   15.5662  -27.0492   -6.0068 O   0  0  0  0  0  0  0  0  0  0  0  0
   15.0805  -26.8719   -4.8619 O   0  0  0  0  0  0  0  0  0  0  0  0
  2  1  1  1
  2  4  1  0
  3  2  1  0
  4  6  1  0
  4  5  1  6
  6  7  2  0
  9  8  1  0
 10  9  2  0
 11  9  1  0
 12 13  1  0
 12 11  1  0
 13 14  1  0
 15 14  1  1
 16 15  1  0
 16  6  1  0
 17 15  1  0
 18 17  2  0
 19 17  1  0
 20 27  1  0
 20 19  1  0
 20 21  1  1
 22 21  1  0
 23 22  2  0
 24 23  1  0
 25 24  1  0
 25 26  2  0
 26 22  1  0
 27 29  1  0
 28 27  2  0
M  END
$$$$
