TRH.pdb
     RDKit          3D

 29 29  0  0  1  0  0  0  0  0999 V2000
   28.3055  -13.8994  -15.5894 C   0  0  0  0  0  0  0  0  0  0  0  0
   27.1332  -13.0057  -15.8973 C   0  0  1  0  0  0  0  0  0  0  0  0
   27.5435  -11.7270  -16.2622 O   0  0  0  0  0  0  0  0  0  0  0  0
   26.3442  -13.6713  -17.0177 C   0  0  2  0  0  0  0  0  0  0  0  0
   27.1447  -13.9025  -18.1800 N   0  0  0  0  0  0  0  0  0  0  0  0
   25.1392  -12.8363  -17.3612 C   0  0  0  0  0  0  0  0  0  0  0  0
   25.1872  -11.9430  -18.2334 O   0  0  0  0  0  0  0  0  0  0  0  0
   16.4705  -14.3479  -15.5258 N   0  0  0  0  0  0  0  0  0  0  0  0
   16.5603  -13.0405  -16.1175 C   0  0  0  0  0  0  0  0  0  0  0  0
   15.4798  -12.3901  -16.3648 N   0  0  0  0  0  0  0  0  0  0  0  0
   17.8078  -12.4536  -16.4328 N   0  0  0  0  0  0  0  0  0  0  0  0
   19.0537  -13.1232  -16.1737 C   0  0  0  0  0  0  0  0  0  0  0  0
   20.2448  -12.3294  -16.6626 C   0  0  0  0  0  0  0  0  0  0  0  0
   21.5358  -13.0151  -16.4673 C   0  0  0  0  0  0  0  0  0  0  0  0
   22.7431  -12.2124  -16.8624 C   0  0  2  0  0  0  0  0  0  0  0  0
   23.9437  -13.0769  -16.6799 N   0  0  0  0  0  0  0  0  0  0  0  0
   22.9508  -11.0379  -15.9980 C   0  0  0  0  0  0  0  0  0  0  0  0
   23.3988  -11.2358  -14.8125 O   0  0  0  0  0  0  0  0  0  0  0  0
   15.4737  -11.4599  -16.7986 N   0  0  0  0  0  0  0  0  0  0  0  0
   22.7053   -9.7171  -16.3586 C   0  0  2  0  0  0  0  0  0  0  0  0
   23.0829   -8.5775  -15.4968 C   0  0  0  0  0  0  0  0  0  0  0  0
   23.9321   -7.6016  -16.2813 C   0  0  0  0  0  0  0  0  0  0  0  0
   25.1748   -8.2530  -16.7341 C   0  0  0  0  0  0  0  0  0  0  0  0
   25.6177   -9.5502  -16.4494 N   0  0  0  0  0  0  0  0  0  0  0  0
   26.7883   -9.7020  -17.0706 C   0  0  0  0  0  0  0  0  0  0  0  0
   27.1280   -8.5853  -17.7373 N   0  0  0  0  0  0  0  0  0  0  0  0
   26.1429   -7.7164  -17.5253 C   0  0  0  0  0  0  0  0  0  0  0  0
   21.8872   -7.9861  -14.8987 O   0  0  0  0  0  0  0  0  0  0  0  0
   20.7351   -8.3520  -15.2406 O   0  0  0  0  0  0  0  0  0  0  0  0
  2  1  1  6
  2  4  1  0
  3  2  1  0
  4  6  1  0
  4  5  1  6
  6  7  2  0
  9  8  1  0
 10  9  2  0
 11  9  1  0
 12 13  1  0
 12 11  1  0
 13 14  1  0
 15 14  1  1
 16 15  1  0
 16  6  1  0
 17 15  1  0
 18 17  2  0
 19 17  1  0
 20 27  1  0
 20 19  1  0
 20 21  1  6
 22 21  1  0
 23 22  2  0
 24 23  1  0
 25 24  1  0
 25 26  2  0
 26 22  1  0
 27 29  1  0
 28 27  2  0
M  END
$$$$
