TRH.pdb
     RDKit          3D

 29 29  0  0  1  0  0  0  0  0999 V2000
   28.0838  -17.1611  -19.4331 C   0  0  0  0  0  0  0  0  0  0  0  0
   27.0959  -18.1915  -18.9533 C   0  0  1  0  0  0  0  0  0  0  0  0
   27.5197  -19.4847  -19.2442 O   0  0  0  0  0  0  0  0  0  0  0  0
   26.9323  -17.9905  -17.4521 C   0  0  2  0  0  0  0  0  0  0  0  0
   28.1327  -18.2845  -16.7325 N   0  0  0  0  0  0  0  0  0  0  0  0
   25.7905  -18.8309  -16.9446 C   0  0  0  0  0  0  0  0  0  0  0  0
   24.9459  -19.3269  -17.7201 O   0  0  0  0  0  0  0  0  0  0  0  0
   27.8566  -21.0791   -9.2168 N   0  0  0  0  0  0  0  0  0  0  0  0
   28.6064  -21.3309  -10.4175 C   0  0  0  0  0  0  0  0  0  0  0  0
   29.8313  -21.7083  -10.3228 N   0  0  0  0  0  0  0  0  0  0  0  0
   28.0286  -21.1742  -11.6988 N   0  0  0  0  0  0  0  0  0  0  0  0
   26.6619  -20.7630  -11.8748 C   0  0  0  0  0  0  0  0  0  0  0  0
   26.2890  -20.6189  -13.3335 C   0  0  0  0  0  0  0  0  0  0  0  0
   24.9126  -20.1348  -13.5493 C   0  0  0  0  0  0  0  0  0  0  0  0
   24.5640  -19.8407  -14.9811 C   0  0  2  0  0  0  0  0  0  0  0  0
   25.6849  -19.0538  -15.5696 N   0  0  0  0  0  0  0  0  0  0  0  0
   23.3623  -18.9987  -15.1106 C   0  0  0  0  0  0  0  0  0  0  0  0
   23.5138  -17.7254  -15.0737 O   0  0  0  0  0  0  0  0  0  0  0  0
   30.4326  -21.8662  -11.1394 N   0  0  0  0  0  0  0  0  0  0  0  0
   22.0629  -19.4668  -15.2754 C   0  0  1  0  0  0  0  0  0  0  0  0
   20.9121  -18.5593  -15.4645 C   0  0  0  0  0  0  0  0  0  0  0  0
   21.1015  -17.7486  -16.7279 C   0  0  0  0  0  0  0  0  0  0  0  0
   19.9277  -16.8888  -16.9654 C   0  0  0  0  0  0  0  0  0  0  0  0
   19.3619  -16.5277  -18.1939 N   0  0  0  0  0  0  0  0  0  0  0  0
   18.3191  -15.7419  -17.9209 C   0  0  0  0  0  0  0  0  0  0  0  0
   18.1770  -15.5737  -16.5949 N   0  0  0  0  0  0  0  0  0  0  0  0
   19.1569  -16.2731  -16.0284 C   0  0  0  0  0  0  0  0  0  0  0  0
   19.6641  -19.3196  -15.4211 O   0  0  0  0  0  0  0  0  0  0  0  0
   19.6395  -20.5515  -15.6657 O   0  0  0  0  0  0  0  0  0  0  0  0
  2  1  1  1
  2  4  1  0
  3  2  1  0
  4  6  1  0
  4  5  1  1
  6  7  2  0
  9  8  1  0
 10  9  2  0
 11  9  1  0
 12 13  1  0
 12 11  1  0
 13 14  1  0
 15 14  1  1
 16 15  1  0
 16  6  1  0
 17 15  1  0
 18 17  2  0
 19 17  1  0
 20 27  1  0
 20 19  1  0
 20 21  1  1
 22 21  1  0
 23 22  2  0
 24 23  1  0
 25 24  1  0
 25 26  2  0
 26 22  1  0
 27 29  1  0
 28 27  2  0
M  END
$$$$
