DET.pdb
     RDKit          3D

 25 24  0  0  1  0  0  0  0  0999 V2000
   10.2876  -17.6675   17.0099 N   0  0  0  0  0  0  0  0  0  0  0  0
    9.0979  -16.8336   17.3193 C   0  0  1  0  0  0  0  0  0  0  0  0
    8.0086  -17.4108   16.4547 C   0  0  0  0  0  0  0  0  0  0  0  0
    8.1933  -17.3548   15.0188 C   0  0  0  0  0  0  0  0  0  0  0  0
    7.3916  -17.6078   14.1040 O   0  0  0  0  0  0  0  0  0  0  0  0
    8.8362  -17.0746   18.7615 C   0  0  0  0  0  0  0  0  0  0  0  0
    7.7126  -16.7415   19.2321 O   0  0  0  0  0  0  0  0  0  0  0  0
    9.4762  -16.9524   14.5701 O   0  0  0  0  0  0  0  0  0  0  0  0
    9.7534  -17.6575   19.6608 N   0  0  0  0  0  0  0  0  0  0  0  0
    9.3344  -17.9655   21.0566 C   0  0  1  0  0  0  0  0  0  0  0  0
   10.2932  -18.9884   21.5760 C   0  0  0  0  0  0  0  0  0  0  0  0
   10.0070  -20.4101   21.2809 C   0  0  0  0  0  0  0  0  0  0  0  0
   11.1169  -21.2285   21.8581 C   0  0  0  0  0  0  0  0  0  0  0  0
   11.1288  -21.4684   23.0829 O   0  0  0  0  0  0  0  0  0  0  0  0
    9.4592  -16.7088   21.8152 C   0  0  0  0  0  0  0  0  0  0  0  0
   10.4680  -15.9896   21.6012 O   0  0  0  0  0  0  0  0  0  0  0  0
   12.1144  -21.7133   21.0542 O   0  0  0  0  0  0  0  0  0  0  0  0
    7.6118  -13.5606   21.6845 C   0  0  0  0  0  0  0  0  0  0  0  0
    7.6570  -13.9766   23.1213 C   0  0  1  0  0  0  0  0  0  0  0  0
    6.4406  -14.5424   23.4592 O   0  0  0  0  0  0  0  0  0  0  0  0
    8.7366  -14.9868   23.4242 C   0  0  2  0  0  0  0  0  0  0  0  0
    8.5137  -16.2491   22.7710 N   0  0  0  0  0  0  0  0  0  0  0  0
    8.9619  -15.1646   24.8654 C   0  0  0  0  0  0  0  0  0  0  0  0
    8.8822  -16.3124   25.3647 O   0  0  0  0  0  0  0  0  0  0  0  0
    9.2637  -14.1293   25.7354 O   0  0  0  0  0  0  0  0  0  0  0  0
  2  1  1  6
  2  3  1  0
  3  4  1  0
  4  5  2  0
  6  2  1  0
  7  6  2  0
  8  4  1  0
  9  6  1  0
 10  9  1  0
 10 11  1  1
 11 12  1  0
 12 13  1  0
 13 17  1  0
 14 13  2  0
 15 10  1  0
 16 15  2  0
 19 18  1  6
 19 21  1  0
 19 20  1  0
 21 22  1  1
 22 15  1  0
 23 21  1  0
 23 25  1  0
 24 23  2  0
M  END
$$$$
