DET.pdb
     RDKit          3D

 25 24  0  0  1  0  0  0  0  0999 V2000
   10.6461  -14.6926   15.2108 N   0  0  0  0  0  0  0  0  0  0  0  0
    9.3221  -14.9028   15.8505 C   0  0  1  0  0  0  0  0  0  0  0  0
    8.6618  -15.9509   14.9945 C   0  0  0  0  0  0  0  0  0  0  0  0
    8.3743  -15.6063   13.6168 C   0  0  0  0  0  0  0  0  0  0  0  0
    9.1526  -15.3673   12.6784 O   0  0  0  0  0  0  0  0  0  0  0  0
    9.6388  -15.4237   17.2050 C   0  0  0  0  0  0  0  0  0  0  0  0
    8.6937  -15.8727   17.9123 O   0  0  0  0  0  0  0  0  0  0  0  0
    7.0030  -15.5248   13.2674 O   0  0  0  0  0  0  0  0  0  0  0  0
   10.9295  -15.4616   17.7727 N   0  0  0  0  0  0  0  0  0  0  0  0
   11.1159  -15.9517   19.1669 C   0  0  1  0  0  0  0  0  0  0  0  0
   12.5805  -15.8718   19.4569 C   0  0  0  0  0  0  0  0  0  0  0  0
   13.2512  -14.5688   19.2511 C   0  0  0  0  0  0  0  0  0  0  0  0
   14.6904  -14.7328   19.6205 C   0  0  0  0  0  0  0  0  0  0  0  0
   15.2553  -13.8468   20.2942 O   0  0  0  0  0  0  0  0  0  0  0  0
   10.3664  -15.0281   20.0361 C   0  0  0  0  0  0  0  0  0  0  0  0
   10.2870  -13.8233   19.6855 O   0  0  0  0  0  0  0  0  0  0  0  0
   15.3877  -15.8437   19.2256 O   0  0  0  0  0  0  0  0  0  0  0  0
    8.5872  -12.8963   20.0217 C   0  0  0  0  0  0  0  0  0  0  0  0
    7.9772  -13.6829   21.1391 C   0  0  1  0  0  0  0  0  0  0  0  0
    7.1155  -14.6230   20.6029 O   0  0  0  0  0  0  0  0  0  0  0  0
    8.9897  -14.4141   21.9864 C   0  0  2  0  0  0  0  0  0  0  0  0
    9.7208  -15.4061   21.2441 N   0  0  0  0  0  0  0  0  0  0  0  0
    8.4042  -14.9857   23.2070 C   0  0  0  0  0  0  0  0  0  0  0  0
    8.4813  -16.2215   23.4073 O   0  0  0  0  0  0  0  0  0  0  0  0
    7.7561  -14.2392   24.1779 O   0  0  0  0  0  0  0  0  0  0  0  0
  2  1  1  6
  2  3  1  0
  3  4  1  0
  4  5  2  0
  6  2  1  0
  7  6  2  0
  8  4  1  0
  9  6  1  0
 10  9  1  0
 10 11  1  1
 11 12  1  0
 12 13  1  0
 13 17  1  0
 14 13  2  0
 15 10  1  0
 16 15  2  0
 19 18  1  6
 19 21  1  0
 19 20  1  0
 21 22  1  6
 22 15  1  0
 23 21  1  0
 23 25  1  0
 24 23  2  0
M  END
$$$$
