DET.pdb
     RDKit          3D

 25 24  0  0  1  0  0  0  0  0999 V2000
   12.9732  -20.2020   18.0377 N   0  0  0  0  0  0  0  0  0  0  0  0
   13.2557  -19.0836   18.9735 C   0  0  1  0  0  0  0  0  0  0  0  0
   13.4688  -17.8953   18.0735 C   0  0  0  0  0  0  0  0  0  0  0  0
   14.7994  -17.6915   17.5375 C   0  0  0  0  0  0  0  0  0  0  0  0
   15.8221  -18.3854   17.6645 O   0  0  0  0  0  0  0  0  0  0  0  0
   12.0142  -18.9446   19.7771 C   0  0  0  0  0  0  0  0  0  0  0  0
   10.9021  -19.0441   19.1869 O   0  0  0  0  0  0  0  0  0  0  0  0
   14.9817  -16.5301   16.7457 O   0  0  0  0  0  0  0  0  0  0  0  0
   11.9759  -18.7107   21.1676 N   0  0  0  0  0  0  0  0  0  0  0  0
   10.6702  -18.6929   21.8842 C   0  0  1  0  0  0  0  0  0  0  0  0
   10.7694  -19.7043   22.9808 C   0  0  0  0  0  0  0  0  0  0  0  0
   11.3935  -19.2782   24.2534 C   0  0  0  0  0  0  0  0  0  0  0  0
   11.3685  -20.4453   25.1872 C   0  0  0  0  0  0  0  0  0  0  0  0
   10.4076  -21.2409   25.1486 O   0  0  0  0  0  0  0  0  0  0  0  0
   10.5210  -17.3381   22.4433 C   0  0  0  0  0  0  0  0  0  0  0  0
   11.5659  -16.6801   22.6791 O   0  0  0  0  0  0  0  0  0  0  0  0
   12.3887  -20.6443   26.0794 O   0  0  0  0  0  0  0  0  0  0  0  0
    8.1016  -14.3254   21.2779 C   0  0  0  0  0  0  0  0  0  0  0  0
    8.0824  -14.5750   22.7534 C   0  0  1  0  0  0  0  0  0  0  0  0
    6.9325  -15.2752   23.0713 O   0  0  0  0  0  0  0  0  0  0  0  0
    9.2626  -15.3764   23.2460 C   0  0  2  0  0  0  0  0  0  0  0  0
    9.2745  -16.7195   22.7307 N   0  0  0  0  0  0  0  0  0  0  0  0
    9.3867  -15.3658   24.7102 C   0  0  0  0  0  0  0  0  0  0  0  0
    9.3739  -16.4517   25.3377 O   0  0  0  0  0  0  0  0  0  0  0  0
    9.5203  -14.2133   25.4676 O   0  0  0  0  0  0  0  0  0  0  0  0
  2  1  1  6
  2  3  1  0
  3  4  1  0
  4  5  2  0
  6  2  1  0
  7  6  2  0
  8  4  1  0
  9  6  1  0
 10  9  1  0
 10 11  1  1
 11 12  1  0
 12 13  1  0
 13 17  1  0
 14 13  2  0
 15 10  1  0
 16 15  2  0
 19 18  1  6
 19 21  1  0
 19 20  1  0
 21 22  1  1
 22 15  1  0
 23 21  1  0
 23 25  1  0
 24 23  2  0
M  END
$$$$
