DET.pdb
     RDKit          3D

 25 24  0  0  1  0  0  0  0  0999 V2000
    9.6839  -15.6558   19.4879 N   0  0  0  0  0  0  0  0  0  0  0  0
    8.6243  -14.6749   19.8363 C   0  0  1  0  0  0  0  0  0  0  0  0
    7.5762  -14.8718   18.7733 C   0  0  0  0  0  0  0  0  0  0  0  0
    8.0302  -15.0264   17.4061 C   0  0  0  0  0  0  0  0  0  0  0  0
    9.1856  -15.0465   16.9499 O   0  0  0  0  0  0  0  0  0  0  0  0
    8.1369  -15.1080   21.1710 C   0  0  0  0  0  0  0  0  0  0  0  0
    6.9296  -14.8890   21.4700 O   0  0  0  0  0  0  0  0  0  0  0  0
    7.0175  -15.1791   16.4261 O   0  0  0  0  0  0  0  0  0  0  0  0
    8.9241  -15.7573   22.1449 N   0  0  0  0  0  0  0  0  0  0  0  0
    8.3179  -16.1619   23.4439 C   0  0  1  0  0  0  0  0  0  0  0  0
    8.9895  -17.4335   23.8527 C   0  0  0  0  0  0  0  0  0  0  0  0
   10.3915  -17.3503   24.3191 C   0  0  0  0  0  0  0  0  0  0  0  0
   10.8327  -18.7303   24.6875 C   0  0  0  0  0  0  0  0  0  0  0  0
   11.7094  -19.2969   24.0031 O   0  0  0  0  0  0  0  0  0  0  0  0
    8.6263  -15.0846   24.4003 C   0  0  0  0  0  0  0  0  0  0  0  0
    9.7601  -14.5455   24.3344 O   0  0  0  0  0  0  0  0  0  0  0  0
   10.2829  -19.3719   25.7657 O   0  0  0  0  0  0  0  0  0  0  0  0
    6.7392  -11.7222   25.2677 C   0  0  0  0  0  0  0  0  0  0  0  0
    7.0739  -12.5142   26.4926 C   0  0  1  0  0  0  0  0  0  0  0  0
    5.9358  -13.1736   26.9209 O   0  0  0  0  0  0  0  0  0  0  0  0
    8.1503  -13.5481   26.2682 C   0  0  2  0  0  0  0  0  0  0  0  0
    7.7271  -14.6076   25.3918 N   0  0  0  0  0  0  0  0  0  0  0  0
    8.6984  -14.0810   27.5232 C   0  0  0  0  0  0  0  0  0  0  0  0
    8.7117  -15.3208   27.7125 O   0  0  0  0  0  0  0  0  0  0  0  0
    9.2149  -13.2928   28.5390 O   0  0  0  0  0  0  0  0  0  0  0  0
  2  1  1  6
  2  3  1  0
  3  4  1  0
  4  5  2  0
  6  2  1  0
  7  6  2  0
  8  4  1  0
  9  6  1  0
 10  9  1  0
 10 11  1  1
 11 12  1  0
 12 13  1  0
 13 17  1  0
 14 13  2  0
 15 10  1  0
 16 15  2  0
 19 18  1  6
 19 21  1  0
 19 20  1  0
 21 22  1  6
 22 15  1  0
 23 21  1  0
 23 25  1  0
 24 23  2  0
M  END
$$$$
