DET.pdb
     RDKit          3D

 25 24  0  0  1  0  0  0  0  0999 V2000
   11.7245  -17.6739   17.3037 N   0  0  0  0  0  0  0  0  0  0  0  0
   10.2619  -17.4644   17.4568 C   0  0  1  0  0  0  0  0  0  0  0  0
    9.6446  -18.6138   16.7049 C   0  0  0  0  0  0  0  0  0  0  0  0
    9.9255  -18.7142   15.2871 C   0  0  0  0  0  0  0  0  0  0  0  0
   10.0204  -17.8193   14.4305 O   0  0  0  0  0  0  0  0  0  0  0  0
   10.0186  -17.5740   18.9181 C   0  0  0  0  0  0  0  0  0  0  0  0
    8.8287  -17.5075   19.3358 O   0  0  0  0  0  0  0  0  0  0  0  0
   10.1252  -20.0234   14.7820 O   0  0  0  0  0  0  0  0  0  0  0  0
   11.0238  -17.7526   19.8915 N   0  0  0  0  0  0  0  0  0  0  0  0
   10.6516  -17.9261   21.3233 C   0  0  1  0  0  0  0  0  0  0  0  0
   11.8938  -18.3472   22.0409 C   0  0  0  0  0  0  0  0  0  0  0  0
   11.8032  -18.5613   23.5025 C   0  0  0  0  0  0  0  0  0  0  0  0
   13.1752  -18.8805   24.0029 C   0  0  0  0  0  0  0  0  0  0  0  0
   14.0958  -19.0791   23.1839 O   0  0  0  0  0  0  0  0  0  0  0  0
   10.2026  -16.6062   21.7993 C   0  0  0  0  0  0  0  0  0  0  0  0
   10.9552  -15.6198   21.5962 O   0  0  0  0  0  0  0  0  0  0  0  0
   13.4252  -18.9556   25.3477 O   0  0  0  0  0  0  0  0  0  0  0  0
    7.8405  -14.0935   20.7371 C   0  0  0  0  0  0  0  0  0  0  0  0
    7.5154  -14.4187   22.1612 C   0  0  1  0  0  0  0  0  0  0  0  0
    6.4630  -15.3163   22.1837 O   0  0  0  0  0  0  0  0  0  0  0  0
    8.6660  -15.0365   22.9178 C   0  0  2  0  0  0  0  0  0  0  0  0
    8.9725  -16.3687   22.4695 N   0  0  0  0  0  0  0  0  0  0  0  0
    8.4778  -14.9941   24.3745 C   0  0  0  0  0  0  0  0  0  0  0  0
    8.3119  -13.8882   24.9426 O   0  0  0  0  0  0  0  0  0  0  0  0
    8.4701  -16.1162   25.1873 O   0  0  0  0  0  0  0  0  0  0  0  0
  2  1  1  1
  2  3  1  0
  3  4  1  0
  4  5  2  0
  6  2  1  0
  7  6  2  0
  8  4  1  0
  9  6  1  0
 10  9  1  0
 10 11  1  1
 11 12  1  0
 12 13  1  0
 13 17  1  0
 14 13  2  0
 15 10  1  0
 16 15  2  0
 19 18  1  6
 19 21  1  0
 19 20  1  0
 21 22  1  6
 22 15  1  0
 23 21  1  0
 23 25  1  0
 24 23  2  0
M  END
$$$$
