DET.pdb
     RDKit          3D

 25 24  0  0  1  0  0  0  0  0999 V2000
    9.8012  -16.7605   20.1145 N   0  0  0  0  0  0  0  0  0  0  0  0
    8.3924  -16.4366   20.4564 C   0  0  1  0  0  0  0  0  0  0  0  0
    7.6018  -17.5840   19.8855 C   0  0  0  0  0  0  0  0  0  0  0  0
    7.5822  -17.7319   18.4443 C   0  0  0  0  0  0  0  0  0  0  0  0
    6.7252  -17.3717   17.6201 O   0  0  0  0  0  0  0  0  0  0  0  0
    8.3580  -16.4349   21.9414 C   0  0  0  0  0  0  0  0  0  0  0  0
    7.2338  -16.4156   22.5164 O   0  0  0  0  0  0  0  0  0  0  0  0
    8.7017  -18.3837   17.8689 O   0  0  0  0  0  0  0  0  0  0  0  0
    9.4963  -16.4569   22.7741 N   0  0  0  0  0  0  0  0  0  0  0  0
    9.3362  -16.5479   24.2522 C   0  0  1  0  0  0  0  0  0  0  0  0
   10.6153  -17.1064   24.7882 C   0  0  0  0  0  0  0  0  0  0  0  0
   10.8760  -18.5481   24.5791 C   0  0  0  0  0  0  0  0  0  0  0  0
   12.2103  -18.8620   25.1757 C   0  0  0  0  0  0  0  0  0  0  0  0
   13.2352  -18.3335   24.6980 O   0  0  0  0  0  0  0  0  0  0  0  0
    9.1322  -15.1708   24.7340 C   0  0  0  0  0  0  0  0  0  0  0  0
    9.9237  -14.2819   24.3289 O   0  0  0  0  0  0  0  0  0  0  0  0
   12.3128  -19.7213   26.2376 O   0  0  0  0  0  0  0  0  0  0  0  0
    6.5110  -12.5191   24.3049 C   0  0  0  0  0  0  0  0  0  0  0  0
    6.7387  -12.7367   25.7679 C   0  0  1  0  0  0  0  0  0  0  0  0
    5.7231  -13.5353   26.2624 O   0  0  0  0  0  0  0  0  0  0  0  0
    8.0517  -13.4118   26.0812 C   0  0  2  0  0  0  0  0  0  0  0  0
    8.0972  -14.7749   25.6234 N   0  0  0  0  0  0  0  0  0  0  0  0
    8.4179  -13.3136   27.5009 C   0  0  0  0  0  0  0  0  0  0  0  0
    8.4728  -12.1856   28.0467 O   0  0  0  0  0  0  0  0  0  0  0  0
    8.7148  -14.4050   28.3013 O   0  0  0  0  0  0  0  0  0  0  0  0
  2  1  1  1
  2  3  1  0
  3  4  1  0
  4  5  2  0
  6  2  1  0
  7  6  2  0
  8  4  1  0
  9  6  1  0
 10  9  1  0
 10 11  1  1
 11 12  1  0
 12 13  1  0
 13 17  1  0
 14 13  2  0
 15 10  1  0
 16 15  2  0
 19 18  1  6
 19 21  1  0
 19 20  1  0
 21 22  1  1
 22 15  1  0
 23 21  1  0
 23 25  1  0
 24 23  2  0
M  END
$$$$
