DET.pdb
     RDKit          3D

 25 24  0  0  1  0  0  0  0  0999 V2000
   10.0540  -19.3483   17.1097 N   0  0  0  0  0  0  0  0  0  0  0  0
   10.0108  -17.8900   17.3890 C   0  0  1  0  0  0  0  0  0  0  0  0
    8.6816  -17.4485   16.8363 C   0  0  0  0  0  0  0  0  0  0  0  0
    8.6340  -17.0524   15.4435 C   0  0  0  0  0  0  0  0  0  0  0  0
    9.5482  -16.9841   14.6050 O   0  0  0  0  0  0  0  0  0  0  0  0
   10.0465  -17.7911   18.8707 C   0  0  0  0  0  0  0  0  0  0  0  0
    9.1265  -18.3485   19.5325 O   0  0  0  0  0  0  0  0  0  0  0  0
    7.3601  -16.6834   14.9431 O   0  0  0  0  0  0  0  0  0  0  0  0
   11.0415  -17.1181   19.6100 N   0  0  0  0  0  0  0  0  0  0  0  0
   11.0793  -17.2429   21.0938 C   0  0  1  0  0  0  0  0  0  0  0  0
   12.5169  -17.1545   21.4948 C   0  0  0  0  0  0  0  0  0  0  0  0
   12.8266  -17.1417   22.9420 C   0  0  0  0  0  0  0  0  0  0  0  0
   14.3040  -16.9690   23.0911 C   0  0  0  0  0  0  0  0  0  0  0  0
   14.7870  -15.8185   23.1205 O   0  0  0  0  0  0  0  0  0  0  0  0
   10.3232  -16.0965   21.6271 C   0  0  0  0  0  0  0  0  0  0  0  0
   10.6984  -14.9414   21.3023 O   0  0  0  0  0  0  0  0  0  0  0  0
   15.1250  -18.0607   23.1951 O   0  0  0  0  0  0  0  0  0  0  0  0
    7.1804  -14.4388   21.0394 C   0  0  0  0  0  0  0  0  0  0  0  0
    7.2204  -14.7466   22.5034 C   0  0  1  0  0  0  0  0  0  0  0  0
    6.4577  -15.8758   22.7418 O   0  0  0  0  0  0  0  0  0  0  0  0
    8.6111  -15.0090   23.0279 C   0  0  2  0  0  0  0  0  0  0  0  0
    9.1930  -16.2058   22.4813 N   0  0  0  0  0  0  0  0  0  0  0  0
    8.6758  -15.0070   24.4959 C   0  0  0  0  0  0  0  0  0  0  0  0
    9.0895  -16.0278   25.0960 O   0  0  0  0  0  0  0  0  0  0  0  0
    8.3031  -13.9315   25.2860 O   0  0  0  0  0  0  0  0  0  0  0  0
  2  1  1  1
  2  3  1  0
  3  4  1  0
  4  5  2  0
  6  2  1  0
  7  6  2  0
  8  4  1  0
  9  6  1  0
 10  9  1  0
 10 11  1  1
 11 12  1  0
 12 13  1  0
 13 17  1  0
 14 13  2  0
 15 10  1  0
 16 15  2  0
 19 18  1  6
 19 21  1  0
 19 20  1  0
 21 22  1  1
 22 15  1  0
 23 21  1  0
 23 25  1  0
 24 23  2  0
M  END
$$$$
