DET.pdb
     RDKit          3D

 25 24  0  0  1  0  0  0  0  0999 V2000
    8.5806  -18.2662   20.5008 N   0  0  0  0  0  0  0  0  0  0  0  0
    9.7117  -17.6040   21.1998 C   0  0  1  0  0  0  0  0  0  0  0  0
   10.0200  -16.4029   20.3456 C   0  0  0  0  0  0  0  0  0  0  0  0
   11.2274  -16.4426   19.5456 C   0  0  0  0  0  0  0  0  0  0  0  0
   11.5220  -17.1764   18.5874 O   0  0  0  0  0  0  0  0  0  0  0  0
    9.1565  -17.2080   22.5194 C   0  0  0  0  0  0  0  0  0  0  0  0
    7.9630  -16.7982   22.5706 O   0  0  0  0  0  0  0  0  0  0  0  0
   12.2370  -15.5105   19.8935 O   0  0  0  0  0  0  0  0  0  0  0  0
    9.8636  -17.2567   23.7389 N   0  0  0  0  0  0  0  0  0  0  0  0
    9.1324  -17.1225   25.0297 C   0  0  1  0  0  0  0  0  0  0  0  0
    9.9178  -17.8846   26.0483 C   0  0  0  0  0  0  0  0  0  0  0  0
    9.4635  -17.8192   27.4553 C   0  0  0  0  0  0  0  0  0  0  0  0
   10.4434  -18.5823   28.2873 C   0  0  0  0  0  0  0  0  0  0  0  0
   11.3441  -17.9662   28.8931 O   0  0  0  0  0  0  0  0  0  0  0  0
    9.1224  -15.6856   25.3547 C   0  0  0  0  0  0  0  0  0  0  0  0
   10.1522  -15.0149   25.0897 O   0  0  0  0  0  0  0  0  0  0  0  0
   10.3580  -19.9458   28.3873 O   0  0  0  0  0  0  0  0  0  0  0  0
    6.7535  -12.6195   24.4886 C   0  0  0  0  0  0  0  0  0  0  0  0
    6.9625  -12.7903   25.9606 C   0  0  1  0  0  0  0  0  0  0  0  0
    5.8536  -13.4194   26.4975 O   0  0  0  0  0  0  0  0  0  0  0  0
    8.1762  -13.6180   26.3065 C   0  0  2  0  0  0  0  0  0  0  0  0
    8.0250  -15.0020   25.9439 N   0  0  0  0  0  0  0  0  0  0  0  0
    8.5804  -13.4761   27.7122 C   0  0  0  0  0  0  0  0  0  0  0  0
    8.7473  -14.5034   28.4122 O   0  0  0  0  0  0  0  0  0  0  0  0
    8.7960  -12.2582   28.3367 O   0  0  0  0  0  0  0  0  0  0  0  0
  2  1  1  6
  2  3  1  0
  3  4  1  0
  4  5  2  0
  6  2  1  0
  7  6  2  0
  8  4  1  0
  9  6  1  0
 10  9  1  0
 10 11  1  1
 11 12  1  0
 12 13  1  0
 13 17  1  0
 14 13  2  0
 15 10  1  0
 16 15  2  0
 19 18  1  6
 19 21  1  0
 19 20  1  0
 21 22  1  1
 22 15  1  0
 23 21  1  0
 23 25  1  0
 24 23  2  0
M  END
$$$$
