DET.pdb
     RDKit          3D

 25 24  0  0  1  0  0  0  0  0999 V2000
    7.2716  -19.3254   16.3998 N   0  0  0  0  0  0  0  0  0  0  0  0
    8.4011  -18.3910   16.6393 C   0  0  1  0  0  0  0  0  0  0  0  0
    7.9185  -17.0789   16.0801 C   0  0  0  0  0  0  0  0  0  0  0  0
    8.1724  -16.8148   14.6783 C   0  0  0  0  0  0  0  0  0  0  0  0
    7.8339  -15.8458   13.9781 O   0  0  0  0  0  0  0  0  0  0  0  0
    8.5366  -18.3380   18.1176 C   0  0  0  0  0  0  0  0  0  0  0  0
    7.4960  -18.1582   18.8103 O   0  0  0  0  0  0  0  0  0  0  0  0
    8.9185  -17.7993   13.9832 O   0  0  0  0  0  0  0  0  0  0  0  0
    9.7509  -18.4780   18.8214 N   0  0  0  0  0  0  0  0  0  0  0  0
    9.7411  -18.6090   20.3051 C   0  0  1  0  0  0  0  0  0  0  0  0
   11.0029  -19.3173   20.6812 C   0  0  0  0  0  0  0  0  0  0  0  0
   11.2356  -19.5899   22.1171 C   0  0  0  0  0  0  0  0  0  0  0  0
   12.5953  -20.1963   22.2522 C   0  0  0  0  0  0  0  0  0  0  0  0
   12.7027  -21.4266   22.4328 O   0  0  0  0  0  0  0  0  0  0  0  0
    9.7385  -17.2379   20.8438 C   0  0  0  0  0  0  0  0  0  0  0  0
   10.5189  -16.3999   20.3247 O   0  0  0  0  0  0  0  0  0  0  0  0
   13.7167  -19.4131   22.1790 O   0  0  0  0  0  0  0  0  0  0  0  0
    7.1750  -14.4854   20.9356 C   0  0  0  0  0  0  0  0  0  0  0  0
    7.7012  -14.6982   22.3204 C   0  0  1  0  0  0  0  0  0  0  0  0
    6.7806  -15.4421   23.0367 O   0  0  0  0  0  0  0  0  0  0  0  0
    9.0194  -15.4320   22.3598 C   0  0  2  0  0  0  0  0  0  0  0  0
    8.9095  -16.7938   21.9089 N   0  0  0  0  0  0  0  0  0  0  0  0
    9.6741  -15.3564   23.6732 C   0  0  0  0  0  0  0  0  0  0  0  0
    9.9259  -16.4143   24.2981 O   0  0  0  0  0  0  0  0  0  0  0  0
   10.0430  -14.1704   24.2873 O   0  0  0  0  0  0  0  0  0  0  0  0
  2  1  1  1
  2  3  1  0
  3  4  1  0
  4  5  2  0
  6  2  1  0
  7  6  2  0
  8  4  1  0
  9  6  1  0
 10  9  1  0
 10 11  1  1
 11 12  1  0
 12 13  1  0
 13 17  1  0
 14 13  2  0
 15 10  1  0
 16 15  2  0
 19 18  1  6
 19 21  1  0
 19 20  1  0
 21 22  1  1
 22 15  1  0
 23 21  1  0
 23 25  1  0
 24 23  2  0
M  END
$$$$
