MAV.pdb
     RDKit          3D

 21 20  0  0  1  0  0  0  0  0999 V2000
   28.7702   -9.6951  -17.6514 C   0  0  0  0  0  0  0  0  0  0  0  0
   29.5274  -11.2907  -17.1903 S   0  0  0  0  0  0  0  0  0  0  0  0
   28.2285  -12.4426  -16.7417 C   0  0  0  0  0  0  0  0  0  0  0  0
   26.8678  -11.7391  -16.7345 C   0  0  0  0  0  0  0  0  0  0  0  0
   25.7639  -12.6979  -16.3979 C   0  0  2  0  0  0  0  0  0  0  0  0
   25.6468  -13.7372  -17.4006 N   0  0  0  0  0  0  0  0  0  0  0  0
   24.5027  -11.8889  -16.3298 C   0  0  0  0  0  0  0  0  0  0  0  0
   23.9732  -11.4206  -17.3623 O   0  0  0  0  0  0  0  0  0  0  0  0
   21.9694  -11.1094  -13.6121 C   0  0  0  0  0  0  0  0  0  0  0  0
   22.6346  -10.8971  -14.9334 C   0  0  2  0  0  0  0  0  0  0  0  0
   23.8592  -11.6223  -15.0904 N   0  0  0  0  0  0  0  0  0  0  0  0
   22.7997   -9.4461  -15.2580 C   0  0  0  0  0  0  0  0  0  0  0  0
   23.8997   -8.8966  -15.0037 O   0  0  0  0  0  0  0  0  0  0  0  0
   20.3446   -7.5270  -18.1682 C   0  0  0  0  0  0  0  0  0  0  0  0
   21.6948   -7.0456  -17.6770 C   0  0  2  0  0  0  0  0  0  0  0  0
   22.8234   -7.6757  -18.4663 C   0  0  0  0  0  0  0  0  0  0  0  0
   21.8716   -7.2837  -16.2004 C   0  0  2  0  0  0  0  0  0  0  0  0
   21.7857   -8.6636  -15.8341 N   0  0  0  0  0  0  0  0  0  0  0  0
   20.9172   -6.4280  -15.4428 C   0  0  0  0  0  0  0  0  0  0  0  0
   21.2247   -5.0775  -15.3595 O   0  0  0  0  0  0  0  0  0  0  0  0
   19.8909   -6.8527  -14.8992 O   0  0  0  0  0  0  0  0  0  0  0  0
  2  1  1  0
  3  2  1  0
  4  3  1  0
  5  4  1  0
  5  6  1  6
  5  7  1  0
  7  8  2  0
 10  9  1  1
 10 12  1  0
 11  7  1  0
 11 10  1  0
 12 13  2  0
 12 18  1  0
 15 16  1  6
 15 14  1  0
 17 15  1  0
 17 18  1  6
 19 17  1  0
 19 20  1  0
 21 19  2  0
M  END
$$$$
