MAV.pdb
     RDKit          3D

 21 20  0  0  1  0  0  0  0  0999 V2000
   19.7211  -13.9068  -22.2085 C   0  0  0  0  0  0  0  0  0  0  0  0
   20.6982  -14.9806  -21.1021 S   0  0  0  0  0  0  0  0  0  0  0  0
   21.5369  -13.9581  -19.8911 C   0  0  0  0  0  0  0  0  0  0  0  0
   20.5811  -12.9016  -19.3283 C   0  0  0  0  0  0  0  0  0  0  0  0
   21.2945  -11.9672  -18.3961 C   0  0  2  0  0  0  0  0  0  0  0  0
   21.8744  -12.6825  -17.2774 N   0  0  0  0  0  0  0  0  0  0  0  0
   20.2717  -10.9809  -17.9159 C   0  0  0  0  0  0  0  0  0  0  0  0
   19.6947  -10.2035  -18.7087 O   0  0  0  0  0  0  0  0  0  0  0  0
   18.5400  -10.3026  -14.5985 C   0  0  0  0  0  0  0  0  0  0  0  0
   18.9657   -9.9721  -15.9922 C   0  0  2  0  0  0  0  0  0  0  0  0
   19.9171  -10.8902  -16.5421 N   0  0  0  0  0  0  0  0  0  0  0  0
   19.4189   -8.5526  -16.1248 C   0  0  0  0  0  0  0  0  0  0  0  0
   20.6487   -8.3076  -16.0590 O   0  0  0  0  0  0  0  0  0  0  0  0
   16.9020   -5.5308  -17.8919 C   0  0  0  0  0  0  0  0  0  0  0  0
   18.4133   -5.5109  -17.7842 C   0  0  2  0  0  0  0  0  0  0  0  0
   19.0575   -6.2100  -18.9633 C   0  0  0  0  0  0  0  0  0  0  0  0
   18.8906   -6.0994  -16.4826 C   0  0  2  0  0  0  0  0  0  0  0  0
   18.5383   -7.4759  -16.3196 N   0  0  0  0  0  0  0  0  0  0  0  0
   18.4224   -5.2492  -15.3534 C   0  0  0  0  0  0  0  0  0  0  0  0
   19.0350   -4.0124  -15.2112 O   0  0  0  0  0  0  0  0  0  0  0  0
   17.5370   -5.5845  -14.5579 O   0  0  0  0  0  0  0  0  0  0  0  0
  2  1  1  0
  3  2  1  0
  4  3  1  0
  5  4  1  0
  5  6  1  1
  5  7  1  0
  7  8  2  0
 10  9  1  1
 10 12  1  0
 11  7  1  0
 11 10  1  0
 12 13  2  0
 12 18  1  0
 15 16  1  6
 15 14  1  0
 17 15  1  0
 17 18  1  1
 19 17  1  0
 19 20  1  0
 21 19  2  0
M  END
$$$$
