MAV.pdb
     RDKit          3D

 21 20  0  0  1  0  0  0  0  0999 V2000
   16.5987  -15.2090  -17.8924 C   0  0  0  0  0  0  0  0  0  0  0  0
   17.6444  -16.4918  -18.6623 S   0  0  0  0  0  0  0  0  0  0  0  0
   18.8729  -15.6960  -19.6982 C   0  0  0  0  0  0  0  0  0  0  0  0
   19.6004  -14.5969  -18.9179 C   0  0  0  0  0  0  0  0  0  0  0  0
   20.8943  -14.2270  -19.5814 C   0  0  2  0  0  0  0  0  0  0  0  0
   21.9082  -15.2368  -19.3549 N   0  0  0  0  0  0  0  0  0  0  0  0
   21.3172  -12.9154  -18.9895 C   0  0  0  0  0  0  0  0  0  0  0  0
   22.1711  -12.8584  -18.0766 O   0  0  0  0  0  0  0  0  0  0  0  0
   20.6039   -9.2644  -19.8032 C   0  0  0  0  0  0  0  0  0  0  0  0
   21.1546  -10.3861  -18.9837 C   0  0  2  0  0  0  0  0  0  0  0  0
   20.7655  -11.6857  -19.4420 N   0  0  0  0  0  0  0  0  0  0  0  0
   20.8860  -10.2059  -17.5231 C   0  0  0  0  0  0  0  0  0  0  0  0
   19.8173  -10.6642  -17.0493 O   0  0  0  0  0  0  0  0  0  0  0  0
   23.9724   -9.5407  -14.5582 C   0  0  0  0  0  0  0  0  0  0  0  0
   22.5593  -10.0593  -14.3843 C   0  0  2  0  0  0  0  0  0  0  0  0
   22.4862  -11.5506  -14.6381 C   0  0  0  0  0  0  0  0  0  0  0  0
   21.5785   -9.3162  -15.2527 C   0  0  2  0  0  0  0  0  0  0  0  0
   21.7694   -9.5490  -16.6509 N   0  0  0  0  0  0  0  0  0  0  0  0
   21.6040   -7.8693  -14.9026 C   0  0  0  0  0  0  0  0  0  0  0  0
   21.1029   -7.5226  -13.6561 O   0  0  0  0  0  0  0  0  0  0  0  0
   22.0393   -6.9857  -15.6504 O   0  0  0  0  0  0  0  0  0  0  0  0
  2  1  1  0
  3  2  1  0
  4  3  1  0
  5  4  1  0
  5  6  1  1
  5  7  1  0
  7  8  2  0
 10  9  1  6
 10 12  1  0
 11  7  1  0
 11 10  1  0
 12 13  2  0
 12 18  1  0
 15 16  1  6
 15 14  1  0
 17 15  1  0
 17 18  1  6
 19 17  1  0
 19 20  1  0
 21 19  2  0
M  END
$$$$
