MAV.pdb
     RDKit          3D

 21 20  0  0  1  0  0  0  0  0999 V2000
   26.4686  -15.4454  -14.4814 C   0  0  0  0  0  0  0  0  0  0  0  0
   27.7139  -15.8068  -15.7660 S   0  0  0  0  0  0  0  0  0  0  0  0
   28.3602  -17.4583  -15.5011 C   0  0  0  0  0  0  0  0  0  0  0  0
   27.2718  -18.3746  -14.9336 C   0  0  0  0  0  0  0  0  0  0  0  0
   27.8123  -19.7444  -14.6459 C   0  0  2  0  0  0  0  0  0  0  0  0
   28.2695  -20.3939  -15.8577 N   0  0  0  0  0  0  0  0  0  0  0  0
   26.6917  -20.5227  -14.0230 C   0  0  0  0  0  0  0  0  0  0  0  0
   25.8457  -21.1207  -14.7248 O   0  0  0  0  0  0  0  0  0  0  0  0
   25.5116  -21.0930  -10.4396 C   0  0  0  0  0  0  0  0  0  0  0  0
   25.3958  -21.1229  -11.9292 C   0  0  2  0  0  0  0  0  0  0  0  0
   26.5465  -20.6122  -12.6115 N   0  0  0  0  0  0  0  0  0  0  0  0
   24.1318  -20.4851  -12.4122 C   0  0  0  0  0  0  0  0  0  0  0  0
   24.0476  -19.2324  -12.3937 O   0  0  0  0  0  0  0  0  0  0  0  0
   22.5978  -20.5148  -15.6882 C   0  0  0  0  0  0  0  0  0  0  0  0
   21.4821  -20.9844  -14.7767 C   0  0  2  0  0  0  0  0  0  0  0  0
   20.1499  -20.3941  -15.1898 C   0  0  0  0  0  0  0  0  0  0  0  0
   21.7776  -20.6876  -13.3300 C   0  0  2  0  0  0  0  0  0  0  0  0
   23.0306  -21.2161  -12.8870 N   0  0  0  0  0  0  0  0  0  0  0  0
   20.6347  -21.1377  -12.4886 C   0  0  0  0  0  0  0  0  0  0  0  0
   19.6299  -20.2092  -12.2570 O   0  0  0  0  0  0  0  0  0  0  0  0
   20.5412  -22.2697  -11.9996 O   0  0  0  0  0  0  0  0  0  0  0  0
  2  1  1  0
  3  2  1  0
  4  3  1  0
  5  4  1  0
  5  6  1  6
  5  7  1  0
  7  8  2  0
 10  9  1  1
 10 12  1  0
 11  7  1  0
 11 10  1  0
 12 13  2  0
 12 18  1  0
 15 16  1  6
 15 14  1  0
 17 15  1  0
 17 18  1  1
 19 17  1  0
 19 20  1  0
 21 19  2  0
M  END
$$$$
