MAV.pdb
     RDKit          3D

 21 20  0  0  1  0  0  0  0  0999 V2000
   28.3129  -19.5635   -3.1243 C   0  0  0  0  0  0  0  0  0  0  0  0
   28.8309  -20.1237   -4.7825 S   0  0  0  0  0  0  0  0  0  0  0  0
   28.2435  -18.9486   -6.0030 C   0  0  0  0  0  0  0  0  0  0  0  0
   28.6185  -19.4101   -7.4146 C   0  0  0  0  0  0  0  0  0  0  0  0
   28.3132  -20.8664   -7.6076 C   0  0  2  0  0  0  0  0  0  0  0  0
   29.5281  -21.6457   -7.7332 N   0  0  0  0  0  0  0  0  0  0  0  0
   27.4920  -20.9676   -8.8587 C   0  0  0  0  0  0  0  0  0  0  0  0
   28.0275  -20.9791   -9.9896 O   0  0  0  0  0  0  0  0  0  0  0  0
   23.7619  -20.9973   -9.6287 C   0  0  0  0  0  0  0  0  0  0  0  0
   25.2120  -21.1673   -9.9474 C   0  0  2  0  0  0  0  0  0  0  0  0
   26.0738  -21.0547   -8.8094 N   0  0  0  0  0  0  0  0  0  0  0  0
   25.6527  -20.2833  -11.0708 C   0  0  0  0  0  0  0  0  0  0  0  0
   25.9704  -19.0967  -10.8105 O   0  0  0  0  0  0  0  0  0  0  0  0
   26.8644  -21.7676  -15.0092 C   0  0  0  0  0  0  0  0  0  0  0  0
   27.1986  -20.4430  -14.3537 C   0  0  2  0  0  0  0  0  0  0  0  0
   28.4486  -20.5497  -13.5051 C   0  0  0  0  0  0  0  0  0  0  0  0
   26.0440  -19.9093  -13.5472 C   0  0  2  0  0  0  0  0  0  0  0  0
   25.7302  -20.7122  -12.4060 N   0  0  0  0  0  0  0  0  0  0  0  0
   24.8717  -19.6979  -14.4405 C   0  0  0  0  0  0  0  0  0  0  0  0
   24.9658  -18.6573  -15.3536 O   0  0  0  0  0  0  0  0  0  0  0  0
   23.8457  -20.3875  -14.4080 O   0  0  0  0  0  0  0  0  0  0  0  0
  2  1  1  0
  3  2  1  0
  4  3  1  0
  5  4  1  0
  5  6  1  6
  5  7  1  0
  7  8  2  0
 10  9  1  1
 10 12  1  0
 11  7  1  0
 11 10  1  0
 12 13  2  0
 12 18  1  0
 15 16  1  1
 15 14  1  0
 17 15  1  0
 17 18  1  1
 19 17  1  0
 19 20  1  0
 21 19  2  0
M  END
$$$$
