MAV.pdb
     RDKit          3D

 21 20  0  0  1  0  0  0  0  0999 V2000
   11.1283  -11.9039   -9.5360 C   0  0  0  0  0  0  0  0  0  0  0  0
   11.9405  -10.5383  -10.4345 S   0  0  0  0  0  0  0  0  0  0  0  0
   13.7152  -10.7922  -10.3975 C   0  0  0  0  0  0  0  0  0  0  0  0
   14.4313   -9.6821  -11.1728 C   0  0  0  0  0  0  0  0  0  0  0  0
   15.9192   -9.8728  -11.1421 C   0  0  2  0  0  0  0  0  0  0  0  0
   16.4026  -10.0157   -9.7837 N   0  0  0  0  0  0  0  0  0  0  0  0
   16.5179   -8.6588  -11.7881 C   0  0  0  0  0  0  0  0  0  0  0  0
   16.5636   -7.5597  -11.1916 O   0  0  0  0  0  0  0  0  0  0  0  0
   18.4487   -7.9886  -14.9907 C   0  0  0  0  0  0  0  0  0  0  0  0
   17.6256   -7.5983  -13.8060 C   0  0  2  0  0  0  0  0  0  0  0  0
   17.0571   -8.7085  -13.1026 N   0  0  0  0  0  0  0  0  0  0  0  0
   16.5968   -6.5669  -14.1458 C   0  0  0  0  0  0  0  0  0  0  0  0
   15.5058   -6.9479  -14.6370 O   0  0  0  0  0  0  0  0  0  0  0  0
   14.6255   -4.2500  -12.1245 C   0  0  0  0  0  0  0  0  0  0  0  0
   15.3826   -3.3659  -13.0947 C   0  0  2  0  0  0  0  0  0  0  0  0
   14.5438   -2.1818  -13.5284 C   0  0  0  0  0  0  0  0  0  0  0  0
   15.8799   -4.1396  -14.2873 C   0  0  2  0  0  0  0  0  0  0  0  0
   16.7875   -5.1902  -13.9436 N   0  0  0  0  0  0  0  0  0  0  0  0
   16.4474   -3.1953  -15.2889 C   0  0  0  0  0  0  0  0  0  0  0  0
   17.8302   -3.0876  -15.3278 O   0  0  0  0  0  0  0  0  0  0  0  0
   15.7627   -2.5206  -16.0669 O   0  0  0  0  0  0  0  0  0  0  0  0
  2  1  1  0
  3  2  1  0
  4  3  1  0
  5  4  1  0
  5  6  1  1
  5  7  1  0
  7  8  2  0
 10  9  1  6
 10 12  1  0
 11  7  1  0
 11 10  1  0
 12 13  2  0
 12 18  1  0
 15 16  1  6
 15 14  1  0
 17 15  1  0
 17 18  1  1
 19 17  1  0
 19 20  1  0
 21 19  2  0
M  END
$$$$
