MAV.pdb
     RDKit          3D

 21 20  0  0  1  0  0  0  0  0999 V2000
   20.0414  -21.0616  -11.6656 C   0  0  0  0  0  0  0  0  0  0  0  0
   20.5253  -19.7860  -12.8783 S   0  0  0  0  0  0  0  0  0  0  0  0
   22.1273  -20.2118  -13.5621 C   0  0  0  0  0  0  0  0  0  0  0  0
   23.1068  -20.5788  -12.4431 C   0  0  0  0  0  0  0  0  0  0  0  0
   24.4714  -20.8738  -12.9925 C   0  0  2  0  0  0  0  0  0  0  0  0
   24.4370  -21.9934  -13.9115 N   0  0  0  0  0  0  0  0  0  0  0  0
   25.3465  -21.1868  -11.8153 C   0  0  0  0  0  0  0  0  0  0  0  0
   24.8849  -21.7318  -10.7878 O   0  0  0  0  0  0  0  0  0  0  0  0
   29.0835  -20.9830  -11.1211 C   0  0  0  0  0  0  0  0  0  0  0  0
   27.6455  -21.1472  -10.7491 C   0  0  2  0  0  0  0  0  0  0  0  0
   26.7341  -20.8772  -11.8201 N   0  0  0  0  0  0  0  0  0  0  0  0
   27.2906  -20.3885   -9.5097 C   0  0  0  0  0  0  0  0  0  0  0  0
   26.7296  -19.2716   -9.6307 O   0  0  0  0  0  0  0  0  0  0  0  0
   25.4133  -21.4507   -6.2365 C   0  0  0  0  0  0  0  0  0  0  0  0
   26.7993  -20.9531   -5.8796 C   0  0  2  0  0  0  0  0  0  0  0  0
   26.7863  -20.1760   -4.5796 C   0  0  0  0  0  0  0  0  0  0  0  0
   27.4047  -20.1352   -6.9901 C   0  0  2  0  0  0  0  0  0  0  0  0
   27.5525  -20.8613   -8.2134 N   0  0  0  0  0  0  0  0  0  0  0  0
   28.6832  -19.5331   -6.5215 C   0  0  0  0  0  0  0  0  0  0  0  0
   28.5814  -18.4175   -5.7026 O   0  0  0  0  0  0  0  0  0  0  0  0
   29.8016  -19.9686   -6.8197 O   0  0  0  0  0  0  0  0  0  0  0  0
  2  1  1  0
  3  2  1  0
  4  3  1  0
  5  4  1  0
  5  6  1  6
  5  7  1  0
  7  8  2  0
 10  9  1  6
 10 12  1  0
 11  7  1  0
 11 10  1  0
 12 13  2  0
 12 18  1  0
 15 16  1  1
 15 14  1  0
 17 15  1  0
 17 18  1  6
 19 17  1  0
 19 20  1  0
 21 19  2  0
M  END
$$$$
