MAV.pdb
     RDKit          3D

 21 20  0  0  1  0  0  0  0  0999 V2000
   17.1674  -16.8396  -20.3228 C   0  0  0  0  0  0  0  0  0  0  0  0
   17.7700  -15.4067  -19.3660 S   0  0  0  0  0  0  0  0  0  0  0  0
   19.2932  -14.8141  -20.1035 C   0  0  0  0  0  0  0  0  0  0  0  0
   19.8341  -13.6123  -19.3229 C   0  0  0  0  0  0  0  0  0  0  0  0
   21.0942  -13.0854  -19.9439 C   0  0  2  0  0  0  0  0  0  0  0  0
   22.1427  -14.0852  -19.9339 N   0  0  0  0  0  0  0  0  0  0  0  0
   21.5004  -11.8896  -19.1348 C   0  0  0  0  0  0  0  0  0  0  0  0
   22.0976  -12.0152  -18.0424 O   0  0  0  0  0  0  0  0  0  0  0  0
   21.2945   -8.1153  -19.6380 C   0  0  0  0  0  0  0  0  0  0  0  0
   21.5821   -9.3694  -18.8781 C   0  0  2  0  0  0  0  0  0  0  0  0
   21.2236  -10.5669  -19.5766 N   0  0  0  0  0  0  0  0  0  0  0  0
   21.0116   -9.3378  -17.4956 C   0  0  0  0  0  0  0  0  0  0  0  0
   19.8547   -9.7910  -17.3141 O   0  0  0  0  0  0  0  0  0  0  0  0
   21.0994   -9.8406  -12.7874 C   0  0  0  0  0  0  0  0  0  0  0  0
   21.6789   -9.9123  -14.1856 C   0  0  2  0  0  0  0  0  0  0  0  0
   23.1902  -10.0055  -14.1499 C   0  0  0  0  0  0  0  0  0  0  0  0
   21.2306   -8.7547  -15.0384 C   0  0  2  0  0  0  0  0  0  0  0  0
   21.7043   -8.8262  -16.3860 N   0  0  0  0  0  0  0  0  0  0  0  0
   21.5948   -7.4757  -14.3687 C   0  0  0  0  0  0  0  0  0  0  0  0
   22.5965   -6.7244  -14.9667 O   0  0  0  0  0  0  0  0  0  0  0  0
   21.0610   -7.0626  -13.3325 O   0  0  0  0  0  0  0  0  0  0  0  0
  2  1  1  0
  3  2  1  0
  4  3  1  0
  5  4  1  0
  5  6  1  1
  5  7  1  0
  7  8  2  0
 10  9  1  6
 10 12  1  0
 11  7  1  0
 11 10  1  0
 12 13  2  0
 12 18  1  0
 15 16  1  1
 15 14  1  0
 17 15  1  0
 17 18  1  6
 19 17  1  0
 19 20  1  0
 21 19  2  0
M  END
$$$$
