MAV.pdb
     RDKit          3D

 21 20  0  0  1  0  0  0  0  0999 V2000
   20.3260  -13.8166  -23.7902 C   0  0  0  0  0  0  0  0  0  0  0  0
   19.9602  -12.7688  -22.3410 S   0  0  0  0  0  0  0  0  0  0  0  0
   20.5402  -13.5997  -20.8615 C   0  0  0  0  0  0  0  0  0  0  0  0
   20.3108  -12.7201  -19.6286 C   0  0  0  0  0  0  0  0  0  0  0  0
   20.7726  -13.4088  -18.3782 C   0  0  2  0  0  0  0  0  0  0  0  0
   19.8774  -14.4874  -18.0112 N   0  0  0  0  0  0  0  0  0  0  0  0
   20.8047  -12.3636  -17.3029 C   0  0  0  0  0  0  0  0  0  0  0  0
   19.7505  -11.8768  -16.8366 O   0  0  0  0  0  0  0  0  0  0  0  0
   23.4578  -10.9445  -15.0087 C   0  0  0  0  0  0  0  0  0  0  0  0
   22.1604  -10.8908  -15.7484 C   0  0  2  0  0  0  0  0  0  0  0  0
   22.0333  -11.8851  -16.7710 N   0  0  0  0  0  0  0  0  0  0  0  0
   21.8578   -9.5191  -16.2631 C   0  0  0  0  0  0  0  0  0  0  0  0
   22.0065   -9.2928  -17.4892 O   0  0  0  0  0  0  0  0  0  0  0  0
   18.6057   -7.5317  -16.0760 C   0  0  0  0  0  0  0  0  0  0  0  0
   19.8761   -7.0997  -16.7798 C   0  0  2  0  0  0  0  0  0  0  0  0
   20.1214   -7.9244  -18.0262 C   0  0  0  0  0  0  0  0  0  0  0  0
   21.0688   -7.1439  -15.8612 C   0  0  2  0  0  0  0  0  0  0  0  0
   21.4147   -8.4676  -15.4442 N   0  0  0  0  0  0  0  0  0  0  0  0
   20.8455   -6.2206  -14.7146 C   0  0  0  0  0  0  0  0  0  0  0  0
   20.5796   -6.8082  -13.4861 O   0  0  0  0  0  0  0  0  0  0  0  0
   20.8848   -4.9877  -14.8034 O   0  0  0  0  0  0  0  0  0  0  0  0
  2  1  1  0
  3  2  1  0
  4  3  1  0
  5  4  1  0
  5  6  1  1
  5  7  1  0
  7  8  2  0
 10  9  1  6
 10 12  1  0
 11  7  1  0
 11 10  1  0
 12 13  2  0
 12 18  1  0
 15 16  1  6
 15 14  1  0
 17 15  1  0
 17 18  1  1
 19 17  1  0
 19 20  1  0
 21 19  2  0
M  END
$$$$
