MAV.pdb
     RDKit          3D

 21 20  0  0  1  0  0  0  0  0999 V2000
   22.2725  -17.6293  -18.2584 C   0  0  0  0  0  0  0  0  0  0  0  0
   22.6344  -18.7835  -16.8915 S   0  0  0  0  0  0  0  0  0  0  0  0
   23.7743  -17.9969  -15.7526 C   0  0  0  0  0  0  0  0  0  0  0  0
   24.1032  -18.9373  -14.5891 C   0  0  0  0  0  0  0  0  0  0  0  0
   25.0054  -20.0516  -15.0314 C   0  0  2  0  0  0  0  0  0  0  0  0
   24.2912  -21.0142  -15.8453 N   0  0  0  0  0  0  0  0  0  0  0  0
   25.5244  -20.7010  -13.7830 C   0  0  0  0  0  0  0  0  0  0  0  0
   24.7755  -21.3732  -13.0393 O   0  0  0  0  0  0  0  0  0  0  0  0
   28.9297  -21.0255  -12.1123 C   0  0  0  0  0  0  0  0  0  0  0  0
   27.4359  -21.0258  -12.1507 C   0  0  2  0  0  0  0  0  0  0  0  0
   26.8868  -20.5789  -13.3953 N   0  0  0  0  0  0  0  0  0  0  0  0
   26.8389  -20.3022  -10.9854 C   0  0  0  0  0  0  0  0  0  0  0  0
   26.6693  -19.0612  -11.0737 O   0  0  0  0  0  0  0  0  0  0  0  0
   24.4136  -20.4115   -6.6587 C   0  0  0  0  0  0  0  0  0  0  0  0
   25.0897  -21.1873   -7.7709 C   0  0  2  0  0  0  0  0  0  0  0  0
   25.8408  -22.3850   -7.2275 C   0  0  0  0  0  0  0  0  0  0  0  0
   25.9965  -20.3111   -8.5946 C   0  0  2  0  0  0  0  0  0  0  0  0
   26.4566  -20.9400   -9.7939 N   0  0  0  0  0  0  0  0  0  0  0  0
   27.1117  -19.8131   -7.7430 C   0  0  0  0  0  0  0  0  0  0  0  0
   26.8294  -18.7338   -6.9179 O   0  0  0  0  0  0  0  0  0  0  0  0
   28.2472  -20.3030   -7.7365 O   0  0  0  0  0  0  0  0  0  0  0  0
  2  1  1  0
  3  2  1  0
  4  3  1  0
  5  4  1  0
  5  6  1  6
  5  7  1  0
  7  8  2  0
 10  9  1  6
 10 12  1  0
 11  7  1  0
 11 10  1  0
 12 13  2  0
 12 18  1  0
 15 16  1  1
 15 14  1  0
 17 15  1  0
 17 18  1  6
 19 17  1  0
 19 20  1  0
 21 19  2  0
M  END
$$$$
