MAV.pdb
     RDKit          3D

 21 20  0  0  1  0  0  0  0  0999 V2000
   20.5942  -20.7104  -11.0255 C   0  0  0  0  0  0  0  0  0  0  0  0
   21.4752  -19.4204  -11.9697 S   0  0  0  0  0  0  0  0  0  0  0  0
   22.9479  -20.1375  -12.6995 C   0  0  0  0  0  0  0  0  0  0  0  0
   23.8646  -20.7024  -11.6101 C   0  0  0  0  0  0  0  0  0  0  0  0
   25.1940  -21.1063  -12.1764 C   0  0  2  0  0  0  0  0  0  0  0  0
   25.0606  -22.2324  -13.0782 N   0  0  0  0  0  0  0  0  0  0  0  0
   26.0627  -21.4683  -11.0084 C   0  0  0  0  0  0  0  0  0  0  0  0
   25.8152  -22.4685  -10.2985 O   0  0  0  0  0  0  0  0  0  0  0  0
   29.5195  -20.8093   -9.8687 C   0  0  0  0  0  0  0  0  0  0  0  0
   28.0657  -20.9396   -9.5483 C   0  0  2  0  0  0  0  0  0  0  0  0
   27.2009  -20.6901  -10.6620 N   0  0  0  0  0  0  0  0  0  0  0  0
   27.6757  -20.1365   -8.3480 C   0  0  0  0  0  0  0  0  0  0  0  0
   27.0196  -19.0800   -8.5212 O   0  0  0  0  0  0  0  0  0  0  0  0
   29.4150  -20.9132   -4.3408 C   0  0  0  0  0  0  0  0  0  0  0  0
   27.9738  -20.5107   -4.5792 C   0  0  2  0  0  0  0  0  0  0  0  0
   27.0582  -21.7172   -4.5737 C   0  0  0  0  0  0  0  0  0  0  0  0
   27.8156  -19.7202   -5.8514 C   0  0  2  0  0  0  0  0  0  0  0  0
   28.0059  -20.5032   -7.0330 N   0  0  0  0  0  0  0  0  0  0  0  0
   28.7024  -18.5250   -5.8055 C   0  0  0  0  0  0  0  0  0  0  0  0
   28.3913  -17.5563   -4.8621 O   0  0  0  0  0  0  0  0  0  0  0  0
   29.6770  -18.3596   -6.5485 O   0  0  0  0  0  0  0  0  0  0  0  0
  2  1  1  0
  3  2  1  0
  4  3  1  0
  5  4  1  0
  5  6  1  6
  5  7  1  0
  7  8  2  0
 10  9  1  6
 10 12  1  0
 11  7  1  0
 11 10  1  0
 12 13  2  0
 12 18  1  0
 15 16  1  6
 15 14  1  0
 17 15  1  0
 17 18  1  6
 19 17  1  0
 19 20  1  0
 21 19  2  0
M  END
$$$$
