MAV.pdb
     RDKit          3D

 21 20  0  0  1  0  0  0  0  0999 V2000
   21.2275  -18.4829  -10.1792 C   0  0  0  0  0  0  0  0  0  0  0  0
   20.9692  -19.8665  -11.3415 S   0  0  0  0  0  0  0  0  0  0  0  0
   22.5531  -20.3537  -12.0265 C   0  0  0  0  0  0  0  0  0  0  0  0
   23.5621  -20.6210  -10.9054 C   0  0  0  0  0  0  0  0  0  0  0  0
   24.9362  -20.8594  -11.4585 C   0  0  2  0  0  0  0  0  0  0  0  0
   24.9325  -21.9352  -12.4290 N   0  0  0  0  0  0  0  0  0  0  0  0
   25.8111  -21.2077  -10.2911 C   0  0  0  0  0  0  0  0  0  0  0  0
   25.3697  -21.8596   -9.3184 O   0  0  0  0  0  0  0  0  0  0  0  0
   29.5206  -20.9871   -9.5432 C   0  0  0  0  0  0  0  0  0  0  0  0
   28.0780  -21.0813   -9.1647 C   0  0  2  0  0  0  0  0  0  0  0  0
   27.1757  -20.8115  -10.2433 N   0  0  0  0  0  0  0  0  0  0  0  0
   27.7563  -20.2678   -7.9512 C   0  0  0  0  0  0  0  0  0  0  0  0
   27.0669  -19.2278   -8.0924 O   0  0  0  0  0  0  0  0  0  0  0  0
   30.0180  -20.7876   -4.2273 C   0  0  0  0  0  0  0  0  0  0  0  0
   28.5287  -20.5083   -4.2299 C   0  0  2  0  0  0  0  0  0  0  0  0
   27.7309  -21.7792   -4.0246 C   0  0  0  0  0  0  0  0  0  0  0  0
   28.0940  -19.7959   -5.4836 C   0  0  2  0  0  0  0  0  0  0  0  0
   28.1862  -20.6072   -6.6578 N   0  0  0  0  0  0  0  0  0  0  0  0
   28.8425  -18.5150   -5.6103 C   0  0  0  0  0  0  0  0  0  0  0  0
   28.5518  -17.5303   -4.6769 O   0  0  0  0  0  0  0  0  0  0  0  0
   29.6884  -18.2934   -6.4848 O   0  0  0  0  0  0  0  0  0  0  0  0
  2  1  1  0
  3  2  1  0
  4  3  1  0
  5  4  1  0
  5  6  1  6
  5  7  1  0
  7  8  2  0
 10  9  1  6
 10 12  1  0
 11  7  1  0
 11 10  1  0
 12 13  2  0
 12 18  1  0
 15 16  1  6
 15 14  1  0
 17 15  1  0
 17 18  1  6
 19 17  1  0
 19 20  1  0
 21 19  2  0
M  END
$$$$
