MAV.pdb
     RDKit          3D

 21 20  0  0  1  0  0  0  0  0999 V2000
   26.6091  -17.9187  -16.3252 C   0  0  0  0  0  0  0  0  0  0  0  0
   25.5802  -18.1894  -14.8420 S   0  0  0  0  0  0  0  0  0  0  0  0
   24.6882  -19.7340  -15.0273 C   0  0  0  0  0  0  0  0  0  0  0  0
   23.7538  -19.9590  -13.8346 C   0  0  0  0  0  0  0  0  0  0  0  0
   23.0264  -21.2657  -13.9551 C   0  0  2  0  0  0  0  0  0  0  0  0
   22.4972  -21.4511  -15.2911 N   0  0  0  0  0  0  0  0  0  0  0  0
   21.9141  -21.2288  -12.9496 C   0  0  0  0  0  0  0  0  0  0  0  0
   22.1344  -20.9748  -11.7443 O   0  0  0  0  0  0  0  0  0  0  0  0
   18.2087  -20.9134  -12.9517 C   0  0  0  0  0  0  0  0  0  0  0  0
   19.4551  -21.5477  -12.4251 C   0  0  2  0  0  0  0  0  0  0  0  0
   20.5663  -21.4803  -13.3257 N   0  0  0  0  0  0  0  0  0  0  0  0
   19.2181  -22.9409  -11.9344 C   0  0  0  0  0  0  0  0  0  0  0  0
   19.5916  -23.9008  -12.6525 O   0  0  0  0  0  0  0  0  0  0  0  0
   17.1258  -23.8456   -8.0872 C   0  0  0  0  0  0  0  0  0  0  0  0
   18.3307  -24.5617   -8.6629 C   0  0  2  0  0  0  0  0  0  0  0  0
   19.6220  -23.9993   -8.1059 C   0  0  0  0  0  0  0  0  0  0  0  0
   18.3347  -24.5307  -10.1686 C   0  0  2  0  0  0  0  0  0  0  0  0
   18.5979  -23.2327  -10.7085 N   0  0  0  0  0  0  0  0  0  0  0  0
   17.0659  -25.1188  -10.6796 C   0  0  0  0  0  0  0  0  0  0  0  0
   16.9464  -26.4992  -10.6053 O   0  0  0  0  0  0  0  0  0  0  0  0
   16.1383  -24.4527  -11.1543 O   0  0  0  0  0  0  0  0  0  0  0  0
  2  1  1  0
  3  2  1  0
  4  3  1  0
  5  4  1  0
  5  6  1  6
  5  7  1  0
  7  8  2  0
 10  9  1  6
 10 12  1  0
 11  7  1  0
 11 10  1  0
 12 13  2  0
 12 18  1  0
 15 16  1  1
 15 14  1  0
 17 15  1  0
 17 18  1  1
 19 17  1  0
 19 20  1  0
 21 19  2  0
M  END
$$$$
