MAV.pdb
     RDKit          3D

 21 20  0  0  1  0  0  0  0  0999 V2000
   25.5317  -19.9707   -8.7600 C   0  0  0  0  0  0  0  0  0  0  0  0
   26.2103  -21.3200   -9.7850 S   0  0  0  0  0  0  0  0  0  0  0  0
   26.7776  -20.6376  -11.3432 C   0  0  0  0  0  0  0  0  0  0  0  0
   25.5971  -20.4239  -12.2956 C   0  0  0  0  0  0  0  0  0  0  0  0
   24.7218  -21.6410  -12.3553 C   0  0  2  0  0  0  0  0  0  0  0  0
   25.3742  -22.7230  -13.0644 N   0  0  0  0  0  0  0  0  0  0  0  0
   23.4665  -21.2288  -13.0652 C   0  0  0  0  0  0  0  0  0  0  0  0
   23.3876  -21.2512  -14.3139 O   0  0  0  0  0  0  0  0  0  0  0  0
   20.0046  -20.0842  -11.9443 C   0  0  0  0  0  0  0  0  0  0  0  0
   21.0732  -20.4044  -12.9387 C   0  0  2  0  0  0  0  0  0  0  0  0
   22.3172  -20.7971  -12.3483 N   0  0  0  0  0  0  0  0  0  0  0  0
   21.2536  -19.3146  -13.9475 C   0  0  0  0  0  0  0  0  0  0  0  0
   22.0812  -18.4025  -13.7028 O   0  0  0  0  0  0  0  0  0  0  0  0
   21.4879  -17.6160  -18.4358 C   0  0  0  0  0  0  0  0  0  0  0  0
   21.2665  -18.7413  -17.4455 C   0  0  2  0  0  0  0  0  0  0  0  0
   20.4389  -19.8541  -18.0544 C   0  0  0  0  0  0  0  0  0  0  0  0
   20.6462  -18.2473  -16.1650 C   0  0  2  0  0  0  0  0  0  0  0  0
   20.5436  -19.2577  -15.1580 N   0  0  0  0  0  0  0  0  0  0  0  0
   19.3390  -17.6007  -16.4651 C   0  0  0  0  0  0  0  0  0  0  0  0
   19.3873  -16.3459  -17.0554 O   0  0  0  0  0  0  0  0  0  0  0  0
   18.2417  -18.1155  -16.2196 O   0  0  0  0  0  0  0  0  0  0  0  0
  2  1  1  0
  3  2  1  0
  4  3  1  0
  5  4  1  0
  5  6  1  6
  5  7  1  0
  7  8  2  0
 10  9  1  1
 10 12  1  0
 11  7  1  0
 11 10  1  0
 12 13  2  0
 12 18  1  0
 15 16  1  6
 15 14  1  0
 17 15  1  0
 17 18  1  1
 19 17  1  0
 19 20  1  0
 21 19  2  0
M  END
$$$$
