WHP.pdb
     RDKit          3D

 32 35  0  0  1  0  0  0  0  0999 V2000
   29.3842  -20.8557  -18.4303 N   0  0  0  0  0  0  0  0  0  0  0  0
   28.3990  -19.9516  -17.8991 C   0  0  1  0  0  0  0  0  0  0  0  0
   27.3472  -19.7126  -18.9385 C   0  0  0  0  0  0  0  0  0  0  0  0
   27.8409  -18.8774  -20.0629 C   0  0  0  0  0  0  0  0  0  0  0  0
   28.1251  -19.2470  -21.3485 C   0  0  0  0  0  0  0  0  0  0  0  0
   28.5425  -18.1781  -22.0272 N   0  0  0  0  0  0  0  0  0  0  0  0
   28.5290  -17.1278  -21.1909 C   0  0  0  0  0  0  0  0  0  0  0  0
   28.8592  -15.7856  -21.3543 C   0  0  0  0  0  0  0  0  0  0  0  0
   28.7530  -14.9055  -20.3156 C   0  0  0  0  0  0  0  0  0  0  0  0
   28.3183  -15.3324  -19.0939 C   0  0  0  0  0  0  0  0  0  0  0  0
   27.9829  -16.6616  -18.9026 C   0  0  0  0  0  0  0  0  0  0  0  0
   28.0965  -17.5328  -19.9603 C   0  0  0  0  0  0  0  0  0  0  0  0
   27.7675  -20.4667  -16.6571 C   0  0  0  0  0  0  0  0  0  0  0  0
   27.5639  -21.7073  -16.5811 O   0  0  0  0  0  0  0  0  0  0  0  0
   27.3911  -19.6549  -15.5790 N   0  0  0  0  0  0  0  0  0  0  0  0
   26.7998  -20.2305  -14.3835 C   0  0  1  0  0  0  0  0  0  0  0  0
   27.2835  -19.4522  -13.1670 C   0  0  0  0  0  0  0  0  0  0  0  0
   26.6819  -19.9588  -11.9129 C   0  0  0  0  0  0  0  0  0  0  0  0
   27.2200  -20.9292  -11.0990 C   0  0  0  0  0  0  0  0  0  0  0  0
   26.4107  -21.1286  -10.0686 N   0  0  0  0  0  0  0  0  0  0  0  0
   25.3585  -20.3064  -10.1987 C   0  0  0  0  0  0  0  0  0  0  0  0
   25.5362  -19.6004  -11.3249 N   0  0  0  0  0  0  0  0  0  0  0  0
   25.2901  -20.1185  -14.4215 C   0  0  0  0  0  0  0  0  0  0  0  0
   24.8859  -18.9309  -14.4883 O   0  0  0  0  0  0  0  0  0  0  0  0
   24.4709  -21.2478  -14.3840 N   0  0  0  0  0  0  0  0  0  0  0  0
   24.9440  -22.6028  -14.7595 C   0  0  0  0  0  0  0  0  0  0  0  0
   24.4137  -23.4134  -13.6094 C   0  0  0  0  0  0  0  0  0  0  0  0
   23.2508  -22.6291  -13.0421 C   0  0  0  0  0  0  0  0  0  0  0  0
   23.1025  -21.4987  -14.0931 C   0  0  1  0  0  0  0  0  0  0  0  0
   22.2622  -20.4391  -13.6026 C   0  0  0  0  0  0  0  0  0  0  0  0
   21.9408  -20.4387  -12.2295 O   0  0  0  0  0  0  0  0  0  0  0  0
   21.7857  -19.5168  -14.2662 O   0  0  0  0  0  0  0  0  0  0  0  0
  2 13  1  0
  2  1  1  6
  3  2  1  0
  4  3  1  0
  4  5  2  0
  6  5  1  0
  7 12  2  0
  7  6  1  0
  8  7  1  0
  9 10  1  0
  9  8  2  0
 10 11  2  0
 11 12  1  0
 12  4  1  0
 13 14  2  0
 15 16  1  0
 15 13  1  0
 16 17  1  1
 18 17  1  0
 19 18  2  0
 20 21  1  0
 20 19  1  0
 21 22  2  0
 22 18  1  0
 23 16  1  0
 24 23  2  0
 25 23  1  0
 25 29  1  0
 26 25  1  0
 27 26  1  0
 27 28  1  0
 28 29  1  0
 29 30  1  1
 30 31  1  0
 32 30  2  0
M  END
$$$$
