WHP.pdb
     RDKit          3D

 32 35  0  0  1  0  0  0  0  0999 V2000
   26.1370  -20.0584  -13.2265 N   0  0  0  0  0  0  0  0  0  0  0  0
   25.9656  -21.4731  -13.0277 C   0  0  1  0  0  0  0  0  0  0  0  0
   25.1393  -21.6952  -11.7983 C   0  0  0  0  0  0  0  0  0  0  0  0
   25.7824  -21.1477  -10.5767 C   0  0  0  0  0  0  0  0  0  0  0  0
   25.1979  -20.5888   -9.4739 C   0  0  0  0  0  0  0  0  0  0  0  0
   26.1488  -20.2298   -8.6112 N   0  0  0  0  0  0  0  0  0  0  0  0
   27.3360  -20.5523   -9.1488 C   0  0  0  0  0  0  0  0  0  0  0  0
   28.6461  -20.4107   -8.7004 C   0  0  0  0  0  0  0  0  0  0  0  0
   29.6979  -20.8325   -9.4623 C   0  0  0  0  0  0  0  0  0  0  0  0
   29.4780  -21.4030  -10.6830 C   0  0  0  0  0  0  0  0  0  0  0  0
   28.1857  -21.5565  -11.1543 C   0  0  0  0  0  0  0  0  0  0  0  0
   27.1395  -21.1256  -10.3727 C   0  0  0  0  0  0  0  0  0  0  0  0
   25.3206  -22.1351  -14.1906 C   0  0  0  0  0  0  0  0  0  0  0  0
   24.8446  -21.3933  -15.0903 O   0  0  0  0  0  0  0  0  0  0  0  0
   25.2152  -23.5245  -14.3374 N   0  0  0  0  0  0  0  0  0  0  0  0
   24.7299  -24.1084  -15.5759 C   0  0  1  0  0  0  0  0  0  0  0  0
   25.6039  -25.3023  -15.9371 C   0  0  0  0  0  0  0  0  0  0  0  0
   26.9196  -24.8818  -16.4696 C   0  0  0  0  0  0  0  0  0  0  0  0
   27.1357  -24.2647  -17.6805 C   0  0  0  0  0  0  0  0  0  0  0  0
   28.4332  -24.0363  -17.8253 N   0  0  0  0  0  0  0  0  0  0  0  0
   29.0622  -24.4933  -16.7319 C   0  0  0  0  0  0  0  0  0  0  0  0
   28.1297  -25.0051  -15.9153 N   0  0  0  0  0  0  0  0  0  0  0  0
   23.3131  -24.6177  -15.4128 C   0  0  0  0  0  0  0  0  0  0  0  0
   23.1819  -25.4064  -14.4437 O   0  0  0  0  0  0  0  0  0  0  0  0
   22.2894  -24.2233  -16.2753 N   0  0  0  0  0  0  0  0  0  0  0  0
   22.3702  -23.0095  -17.1245 C   0  0  0  0  0  0  0  0  0  0  0  0
   21.9105  -23.5609  -18.4457 C   0  0  0  0  0  0  0  0  0  0  0  0
   21.0826  -24.7863  -18.1259 C   0  0  0  0  0  0  0  0  0  0  0  0
   20.9835  -24.6936  -16.5811 C   0  0  1  0  0  0  0  0  0  0  0  0
   20.5094  -25.9283  -16.0151 C   0  0  0  0  0  0  0  0  0  0  0  0
   21.4527  -26.9526  -15.7917 O   0  0  0  0  0  0  0  0  0  0  0  0
   19.3474  -26.1898  -15.6998 O   0  0  0  0  0  0  0  0  0  0  0  0
  2 13  1  0
  2  1  1  6
  3  2  1  0
  4  3  1  0
  4  5  2  0
  6  5  1  0
  7 12  2  0
  7  6  1  0
  8  7  1  0
  9 10  1  0
  9  8  2  0
 10 11  2  0
 11 12  1  0
 12  4  1  0
 13 14  2  0
 15 16  1  0
 15 13  1  0
 16 17  1  1
 18 17  1  0
 19 18  2  0
 20 21  1  0
 20 19  1  0
 21 22  2  0
 22 18  1  0
 23 16  1  0
 24 23  2  0
 25 23  1  0
 25 29  1  0
 26 25  1  0
 27 26  1  0
 27 28  1  0
 28 29  1  0
 29 30  1  1
 30 31  1  0
 32 30  2  0
M  END
$$$$
