WHP.pdb
     RDKit          3D

 32 35  0  0  1  0  0  0  0  0999 V2000
   25.3362  -19.1629   -9.9710 N   0  0  0  0  0  0  0  0  0  0  0  0
   26.3730  -20.0222  -10.4778 C   0  0  1  0  0  0  0  0  0  0  0  0
   26.4683  -21.2365   -9.6060 C   0  0  0  0  0  0  0  0  0  0  0  0
   26.5289  -20.8941   -8.1621 C   0  0  0  0  0  0  0  0  0  0  0  0
   25.5029  -20.7369   -7.2718 C   0  0  0  0  0  0  0  0  0  0  0  0
   26.0065  -20.4305   -6.0760 N   0  0  0  0  0  0  0  0  0  0  0  0
   27.3436  -20.3896   -6.1901 C   0  0  0  0  0  0  0  0  0  0  0  0
   28.3620  -20.1239   -5.2793 C   0  0  0  0  0  0  0  0  0  0  0  0
   29.6718  -20.1478   -5.6647 C   0  0  0  0  0  0  0  0  0  0  0  0
   30.0033  -20.4347   -6.9576 C   0  0  0  0  0  0  0  0  0  0  0  0
   29.0114  -20.7031   -7.8849 C   0  0  0  0  0  0  0  0  0  0  0  0
   27.6982  -20.6742   -7.4780 C   0  0  0  0  0  0  0  0  0  0  0  0
   26.1313  -20.4338  -11.8846 C   0  0  0  0  0  0  0  0  0  0  0  0
   24.9342  -20.5686  -12.2523 O   0  0  0  0  0  0  0  0  0  0  0  0
   27.1525  -20.6770  -12.8125 N   0  0  0  0  0  0  0  0  0  0  0  0
   26.8573  -20.8054  -14.2290 C   0  0  1  0  0  0  0  0  0  0  0  0
   27.7467  -19.8467  -15.0097 C   0  0  0  0  0  0  0  0  0  0  0  0
   27.2993  -18.4424  -14.8712 C   0  0  0  0  0  0  0  0  0  0  0  0
   26.2036  -17.8841  -15.4889 C   0  0  0  0  0  0  0  0  0  0  0  0
   26.1091  -16.6102  -15.1359 N   0  0  0  0  0  0  0  0  0  0  0  0
   27.1221  -16.3318  -14.3014 C   0  0  0  0  0  0  0  0  0  0  0  0
   27.8384  -17.4552  -14.1489 N   0  0  0  0  0  0  0  0  0  0  0  0
   27.1624  -22.2057  -14.7183 C   0  0  0  0  0  0  0  0  0  0  0  0
   28.3741  -22.5157  -14.5998 O   0  0  0  0  0  0  0  0  0  0  0  0
   26.1663  -23.0322  -15.2401 N   0  0  0  0  0  0  0  0  0  0  0  0
   24.7181  -22.7721  -15.0502 C   0  0  0  0  0  0  0  0  0  0  0  0
   24.2130  -22.9626  -16.4536 C   0  0  0  0  0  0  0  0  0  0  0  0
   25.2235  -23.8487  -17.1485 C   0  0  0  0  0  0  0  0  0  0  0  0
   26.1394  -24.2545  -15.9648 C   0  0  1  0  0  0  0  0  0  0  0  0
   27.3654  -24.8435  -16.4336 C   0  0  0  0  0  0  0  0  0  0  0  0
   27.7685  -26.0658  -15.8573 O   0  0  0  0  0  0  0  0  0  0  0  0
   28.1127  -24.3853  -17.2994 O   0  0  0  0  0  0  0  0  0  0  0  0
  2 13  1  0
  2  1  1  1
  3  2  1  0
  4  3  1  0
  4  5  2  0
  6  5  1  0
  7 12  2  0
  7  6  1  0
  8  7  1  0
  9 10  1  0
  9  8  2  0
 10 11  2  0
 11 12  1  0
 12  4  1  0
 13 14  2  0
 15 16  1  0
 15 13  1  0
 16 17  1  6
 18 17  1  0
 19 18  2  0
 20 21  1  0
 20 19  1  0
 21 22  2  0
 22 18  1  0
 23 16  1  0
 24 23  2  0
 25 23  1  0
 25 29  1  0
 26 25  1  0
 27 26  1  0
 27 28  1  0
 28 29  1  0
 29 30  1  6
 30 31  1  0
 32 30  2  0
M  END
$$$$
