WHP.pdb
     RDKit          3D

 32 35  0  0  1  0  0  0  0  0999 V2000
   21.7579  -17.0317  -17.8434 N   0  0  0  0  0  0  0  0  0  0  0  0
   22.6558  -18.0179  -17.3036 C   0  0  1  0  0  0  0  0  0  0  0  0
   24.0460  -17.7204  -17.7754 C   0  0  0  0  0  0  0  0  0  0  0  0
   24.2452  -18.0661  -19.2059 C   0  0  0  0  0  0  0  0  0  0  0  0
   24.4849  -17.2360  -20.2659 C   0  0  0  0  0  0  0  0  0  0  0  0
   24.6003  -17.9672  -21.3748 N   0  0  0  0  0  0  0  0  0  0  0  0
   24.4370  -19.2564  -21.0372 C   0  0  0  0  0  0  0  0  0  0  0  0
   24.4549  -20.4361  -21.7756 C   0  0  0  0  0  0  0  0  0  0  0  0
   24.2557  -21.6447  -21.1720 C   0  0  0  0  0  0  0  0  0  0  0  0
   24.0348  -21.7136  -19.8266 C   0  0  0  0  0  0  0  0  0  0  0  0
   24.0118  -20.5566  -19.0672 C   0  0  0  0  0  0  0  0  0  0  0  0
   24.2143  -19.3490  -19.6928 C   0  0  0  0  0  0  0  0  0  0  0  0
   22.6288  -18.0574  -15.8189 C   0  0  0  0  0  0  0  0  0  0  0  0
   22.7931  -16.9693  -15.2063 O   0  0  0  0  0  0  0  0  0  0  0  0
   22.4325  -19.2273  -15.0733 N   0  0  0  0  0  0  0  0  0  0  0  0
   22.3699  -19.1848  -13.6226 C   0  0  1  0  0  0  0  0  0  0  0  0
   20.9817  -18.7230  -13.1996 C   0  0  0  0  0  0  0  0  0  0  0  0
   19.9211  -19.6158  -13.7189 C   0  0  0  0  0  0  0  0  0  0  0  0
   19.6168  -20.8674  -13.2345 C   0  0  0  0  0  0  0  0  0  0  0  0
   18.6155  -21.3736  -13.9400 N   0  0  0  0  0  0  0  0  0  0  0  0
   18.2650  -20.4746  -14.8722 C   0  0  0  0  0  0  0  0  0  0  0  0
   19.0672  -19.4099  -14.7264 N   0  0  0  0  0  0  0  0  0  0  0  0
   22.5877  -20.5627  -13.0332 C   0  0  0  0  0  0  0  0  0  0  0  0
   21.8537  -21.4412  -13.5507 O   0  0  0  0  0  0  0  0  0  0  0  0
   23.5204  -20.7864  -12.0195 N   0  0  0  0  0  0  0  0  0  0  0  0
   24.7900  -20.0272  -11.9069 C   0  0  0  0  0  0  0  0  0  0  0  0
   24.7781  -19.6769  -10.4447 C   0  0  0  0  0  0  0  0  0  0  0  0
   23.8952  -20.7053   -9.7722 C   0  0  0  0  0  0  0  0  0  0  0  0
   23.6413  -21.6981  -10.9359 C   0  0  1  0  0  0  0  0  0  0  0  0
   22.5630  -22.5986  -10.6258 C   0  0  0  0  0  0  0  0  0  0  0  0
   22.8970  -23.9085  -10.2241 O   0  0  0  0  0  0  0  0  0  0  0  0
   21.3589  -22.3422  -10.6749 O   0  0  0  0  0  0  0  0  0  0  0  0
  2 13  1  0
  2  1  1  1
  3  2  1  0
  4  3  1  0
  4  5  2  0
  6  5  1  0
  7 12  2  0
  7  6  1  0
  8  7  1  0
  9 10  1  0
  9  8  2  0
 10 11  2  0
 11 12  1  0
 12  4  1  0
 13 14  2  0
 15 16  1  0
 15 13  1  0
 16 17  1  6
 18 17  1  0
 19 18  2  0
 20 21  1  0
 20 19  1  0
 21 22  2  0
 22 18  1  0
 23 16  1  0
 24 23  2  0
 25 23  1  0
 25 29  1  0
 26 25  1  0
 27 26  1  0
 27 28  1  0
 28 29  1  0
 29 30  1  1
 30 31  1  0
 32 30  2  0
M  END
$$$$
