WHP.pdb
     RDKit          3D

 32 35  0  0  1  0  0  0  0  0999 V2000
   22.7597  -19.0239  -20.0602 N   0  0  0  0  0  0  0  0  0  0  0  0
   22.2617  -19.7533  -18.9244 C   0  0  1  0  0  0  0  0  0  0  0  0
   21.4546  -20.9181  -19.4097 C   0  0  0  0  0  0  0  0  0  0  0  0
   20.2159  -20.4960  -20.1119 C   0  0  0  0  0  0  0  0  0  0  0  0
   19.9886  -20.3707  -21.4546 C   0  0  0  0  0  0  0  0  0  0  0  0
   18.7339  -19.9637  -21.6482 N   0  0  0  0  0  0  0  0  0  0  0  0
   18.1548  -19.8267  -20.4447 C   0  0  0  0  0  0  0  0  0  0  0  0
   16.8788  -19.4358  -20.0492 C   0  0  0  0  0  0  0  0  0  0  0  0
   16.5404  -19.3798  -18.7274 C   0  0  0  0  0  0  0  0  0  0  0  0
   17.4549  -19.7087  -17.7686 C   0  0  0  0  0  0  0  0  0  0  0  0
   18.7313  -20.1010  -18.1329 C   0  0  0  0  0  0  0  0  0  0  0  0
   19.0534  -20.1512  -19.4688 C   0  0  0  0  0  0  0  0  0  0  0  0
   23.3517  -20.2345  -18.0372 C   0  0  0  0  0  0  0  0  0  0  0  0
   24.4000  -20.6650  -18.5868 O   0  0  0  0  0  0  0  0  0  0  0  0
   23.2757  -20.2348  -16.6381 N   0  0  0  0  0  0  0  0  0  0  0  0
   24.4778  -20.1556  -15.8264 C   0  0  1  0  0  0  0  0  0  0  0  0
   25.1893  -18.8416  -16.1210 C   0  0  0  0  0  0  0  0  0  0  0  0
   26.4150  -18.6831  -15.3062 C   0  0  0  0  0  0  0  0  0  0  0  0
   27.7058  -18.7236  -15.7814 C   0  0  0  0  0  0  0  0  0  0  0  0
   28.5454  -18.5455  -14.7715 N   0  0  0  0  0  0  0  0  0  0  0  0
   27.8240  -18.3903  -13.6510 C   0  0  0  0  0  0  0  0  0  0  0  0
   26.5295  -18.4762  -13.9906 N   0  0  0  0  0  0  0  0  0  0  0  0
   24.1338  -20.1633  -14.3517 C   0  0  0  0  0  0  0  0  0  0  0  0
   23.3908  -19.2080  -14.0144 O   0  0  0  0  0  0  0  0  0  0  0  0
   24.6160  -21.1516  -13.4925 N   0  0  0  0  0  0  0  0  0  0  0  0
   25.3620  -22.3426  -13.9677 C   0  0  0  0  0  0  0  0  0  0  0  0
   26.5176  -22.3516  -13.0056 C   0  0  0  0  0  0  0  0  0  0  0  0
   26.0493  -21.6018  -11.7776 C   0  0  0  0  0  0  0  0  0  0  0  0
   24.5445  -21.4039  -12.0956 C   0  0  1  0  0  0  0  0  0  0  0  0
   23.9500  -20.4334  -11.2157 C   0  0  0  0  0  0  0  0  0  0  0  0
   24.3764  -19.0941  -11.3320 O   0  0  0  0  0  0  0  0  0  0  0  0
   23.0938  -20.6520  -10.3572 O   0  0  0  0  0  0  0  0  0  0  0  0
  2 13  1  0
  2  1  1  6
  3  2  1  0
  4  3  1  0
  4  5  2  0
  6  5  1  0
  7 12  2  0
  7  6  1  0
  8  7  1  0
  9 10  1  0
  9  8  2  0
 10 11  2  0
 11 12  1  0
 12  4  1  0
 13 14  2  0
 15 16  1  0
 15 13  1  0
 16 17  1  6
 18 17  1  0
 19 18  2  0
 20 21  1  0
 20 19  1  0
 21 22  2  0
 22 18  1  0
 23 16  1  0
 24 23  2  0
 25 23  1  0
 25 29  1  0
 26 25  1  0
 27 26  1  0
 27 28  1  0
 28 29  1  0
 29 30  1  1
 30 31  1  0
 32 30  2  0
M  END
$$$$
