WHP.pdb
     RDKit          3D

 32 35  0  0  1  0  0  0  0  0999 V2000
   20.8148  -11.0525  -14.9293 N   0  0  0  0  0  0  0  0  0  0  0  0
   22.2477  -11.1439  -15.0217 C   0  0  1  0  0  0  0  0  0  0  0  0
   22.8581  -10.3943  -13.8775 C   0  0  0  0  0  0  0  0  0  0  0  0
   22.7869   -8.9224  -14.0619 C   0  0  0  0  0  0  0  0  0  0  0  0
   21.9673   -8.0172  -13.4463 C   0  0  0  0  0  0  0  0  0  0  0  0
   22.2392   -6.7972  -13.9099 N   0  0  0  0  0  0  0  0  0  0  0  0
   23.2237   -6.9104  -14.8157 C   0  0  0  0  0  0  0  0  0  0  0  0
   23.8937   -5.9796  -15.6044 C   0  0  0  0  0  0  0  0  0  0  0  0
   24.8798   -6.3695  -16.4649 C   0  0  0  0  0  0  0  0  0  0  0  0
   25.2249   -7.6866  -16.5644 C   0  0  0  0  0  0  0  0  0  0  0  0
   24.5756   -8.6341  -15.7922 C   0  0  0  0  0  0  0  0  0  0  0  0
   23.5853   -8.2224  -14.9316 C   0  0  0  0  0  0  0  0  0  0  0  0
   22.7281  -12.5496  -15.0123 C   0  0  0  0  0  0  0  0  0  0  0  0
   22.6675  -13.1763  -13.9215 O   0  0  0  0  0  0  0  0  0  0  0  0
   23.2388  -13.2068  -16.1394 N   0  0  0  0  0  0  0  0  0  0  0  0
   23.7081  -14.5788  -16.0532 C   0  0  1  0  0  0  0  0  0  0  0  0
   22.6574  -15.5012  -16.6573 C   0  0  0  0  0  0  0  0  0  0  0  0
   21.3879  -15.4641  -15.8967 C   0  0  0  0  0  0  0  0  0  0  0  0
   21.0264  -16.3355  -14.8948 C   0  0  0  0  0  0  0  0  0  0  0  0
   19.8261  -16.0020  -14.4424 N   0  0  0  0  0  0  0  0  0  0  0  0
   19.4026  -14.9316  -15.1314 C   0  0  0  0  0  0  0  0  0  0  0  0
   20.3623  -14.6147  -16.0129 N   0  0  0  0  0  0  0  0  0  0  0  0
   24.9833  -14.7632  -16.8489 C   0  0  0  0  0  0  0  0  0  0  0  0
   24.9317  -14.2402  -17.9900 O   0  0  0  0  0  0  0  0  0  0  0  0
   26.0793  -15.4514  -16.3265 N   0  0  0  0  0  0  0  0  0  0  0  0
   26.4308  -15.4374  -14.8853 C   0  0  0  0  0  0  0  0  0  0  0  0
   26.6648  -16.9023  -14.6397 C   0  0  0  0  0  0  0  0  0  0  0  0
   27.0076  -17.5054  -15.9844 C   0  0  0  0  0  0  0  0  0  0  0  0
   27.1349  -16.2358  -16.8654 C   0  0  1  0  0  0  0  0  0  0  0  0
   27.1437  -16.5718  -18.2643 C   0  0  0  0  0  0  0  0  0  0  0  0
   28.2324  -16.1228  -19.0401 O   0  0  0  0  0  0  0  0  0  0  0  0
   26.2866  -17.2208  -18.8660 O   0  0  0  0  0  0  0  0  0  0  0  0
  2 13  1  0
  2  1  1  1
  3  2  1  0
  4  3  1  0
  4  5  2  0
  6  5  1  0
  7 12  2  0
  7  6  1  0
  8  7  1  0
  9 10  1  0
  9  8  2  0
 10 11  2  0
 11 12  1  0
 12  4  1  0
 13 14  2  0
 15 16  1  0
 15 13  1  0
 16 17  1  6
 18 17  1  0
 19 18  2  0
 20 21  1  0
 20 19  1  0
 21 22  2  0
 22 18  1  0
 23 16  1  0
 24 23  2  0
 25 23  1  0
 25 29  1  0
 26 25  1  0
 27 26  1  0
 27 28  1  0
 28 29  1  0
 29 30  1  6
 30 31  1  0
 32 30  2  0
M  END
$$$$
