WHP.pdb
     RDKit          3D

 32 35  0  0  1  0  0  0  0  0999 V2000
   16.2415  -18.4447    2.8012 N   0  0  0  0  0  0  0  0  0  0  0  0
   16.8610  -18.6087    4.0895 C   0  0  1  0  0  0  0  0  0  0  0  0
   17.8464  -19.7343    4.0160 C   0  0  0  0  0  0  0  0  0  0  0  0
   17.1863  -21.0642    3.9827 C   0  0  0  0  0  0  0  0  0  0  0  0
   16.1421  -21.4869    3.2075 C   0  0  0  0  0  0  0  0  0  0  0  0
   15.8672  -22.7578    3.5017 N   0  0  0  0  0  0  0  0  0  0  0  0
   16.7235  -23.1543    4.4567 C   0  0  0  0  0  0  0  0  0  0  0  0
   16.8943  -24.3596    5.1316 C   0  0  0  0  0  0  0  0  0  0  0  0
   17.8649  -24.5001    6.0818 C   0  0  0  0  0  0  0  0  0  0  0  0
   18.6871  -23.4534    6.3855 C   0  0  0  0  0  0  0  0  0  0  0  0
   18.5401  -22.2431    5.7303 C   0  0  0  0  0  0  0  0  0  0  0  0
   17.5571  -22.1207    4.7765 C   0  0  0  0  0  0  0  0  0  0  0  0
   17.5453  -17.3736    4.5510 C   0  0  0  0  0  0  0  0  0  0  0  0
   18.3275  -16.8070    3.7427 O   0  0  0  0  0  0  0  0  0  0  0  0
   17.3685  -16.8128    5.8228 N   0  0  0  0  0  0  0  0  0  0  0  0
   18.0850  -15.6111    6.2135 C   0  0  1  0  0  0  0  0  0  0  0  0
   17.1105  -14.4411    6.2454 C   0  0  0  0  0  0  0  0  0  0  0  0
   17.8052  -13.1498    6.4485 C   0  0  0  0  0  0  0  0  0  0  0  0
   18.2919  -12.3345    5.4525 C   0  0  0  0  0  0  0  0  0  0  0  0
   18.8513  -11.2658    6.0015 N   0  0  0  0  0  0  0  0  0  0  0  0
   18.7367  -11.3725    7.3340 C   0  0  0  0  0  0  0  0  0  0  0  0
   18.0984  -12.5232    7.5923 N   0  0  0  0  0  0  0  0  0  0  0  0
   18.6628  -15.7569    7.6057 C   0  0  0  0  0  0  0  0  0  0  0  0
   17.8264  -16.1752    8.4447 O   0  0  0  0  0  0  0  0  0  0  0  0
   19.9951  -15.4463    7.8818 N   0  0  0  0  0  0  0  0  0  0  0  0
   20.9746  -15.0794    6.8297 C   0  0  0  0  0  0  0  0  0  0  0  0
   21.6086  -13.8645    7.4487 C   0  0  0  0  0  0  0  0  0  0  0  0
   21.3954  -13.9922    8.9412 C   0  0  0  0  0  0  0  0  0  0  0  0
   20.8113  -15.4249    9.0451 C   0  0  1  0  0  0  0  0  0  0  0  0
   20.2294  -15.6569   10.3402 C   0  0  0  0  0  0  0  0  0  0  0  0
   19.2470  -14.7506   10.7900 O   0  0  0  0  0  0  0  0  0  0  0  0
   20.5030  -16.5787   11.1105 O   0  0  0  0  0  0  0  0  0  0  0  0
  2 13  1  0
  2  1  1  6
  3  2  1  0
  4  3  1  0
  4  5  2  0
  6  5  1  0
  7 12  2  0
  7  6  1  0
  8  7  1  0
  9 10  1  0
  9  8  2  0
 10 11  2  0
 11 12  1  0
 12  4  1  0
 13 14  2  0
 15 16  1  0
 15 13  1  0
 16 17  1  1
 18 17  1  0
 19 18  2  0
 20 21  1  0
 20 19  1  0
 21 22  2  0
 22 18  1  0
 23 16  1  0
 24 23  2  0
 25 23  1  0
 25 29  1  0
 26 25  1  0
 27 26  1  0
 27 28  1  0
 28 29  1  0
 29 30  1  1
 30 31  1  0
 32 30  2  0
M  END
$$$$
