WHP.pdb
     RDKit          3D

 32 35  0  0  1  0  0  0  0  0999 V2000
   13.6094  -15.7682    5.3560 N   0  0  0  0  0  0  0  0  0  0  0  0
   14.9588  -16.2662    5.3208 C   0  0  1  0  0  0  0  0  0  0  0  0
   15.9062  -15.1061    5.3276 C   0  0  0  0  0  0  0  0  0  0  0  0
   16.8371  -15.1277    4.1707 C   0  0  0  0  0  0  0  0  0  0  0  0
   16.9399  -16.0506    3.1667 C   0  0  0  0  0  0  0  0  0  0  0  0
   17.9117  -15.6806    2.3324 N   0  0  0  0  0  0  0  0  0  0  0  0
   18.4327  -14.5311    2.7904 C   0  0  0  0  0  0  0  0  0  0  0  0
   19.4544  -13.7065    2.3284 C   0  0  0  0  0  0  0  0  0  0  0  0
   19.7937  -12.5667    2.9996 C   0  0  0  0  0  0  0  0  0  0  0  0
   19.1312  -12.2174    4.1410 C   0  0  0  0  0  0  0  0  0  0  0  0
   18.1109  -13.0185    4.6236 C   0  0  0  0  0  0  0  0  0  0  0  0
   17.7836  -14.1623    3.9341 C   0  0  0  0  0  0  0  0  0  0  0  0
   15.2612  -17.1662    6.4633 C   0  0  0  0  0  0  0  0  0  0  0  0
   14.8715  -16.8052    7.6053 O   0  0  0  0  0  0  0  0  0  0  0  0
   15.9489  -18.3805    6.3388 N   0  0  0  0  0  0  0  0  0  0  0  0
   16.1908  -19.2222    7.4978 C   0  0  1  0  0  0  0  0  0  0  0  0
   16.0441  -20.6822    7.0896 C   0  0  0  0  0  0  0  0  0  0  0  0
   14.6322  -21.0432    6.8297 C   0  0  0  0  0  0  0  0  0  0  0  0
   13.5319  -20.3193    7.2284 C   0  0  0  0  0  0  0  0  0  0  0  0
   12.4338  -20.9410    6.8232 N   0  0  0  0  0  0  0  0  0  0  0  0
   12.8008  -22.0536    6.1696 C   0  0  0  0  0  0  0  0  0  0  0  0
   14.1409  -22.1036    6.1809 N   0  0  0  0  0  0  0  0  0  0  0  0
   17.6024  -19.0363    8.0136 C   0  0  0  0  0  0  0  0  0  0  0  0
   18.4662  -19.0521    7.1014 O   0  0  0  0  0  0  0  0  0  0  0  0
   17.8689  -18.8677    9.3731 N   0  0  0  0  0  0  0  0  0  0  0  0
   16.8513  -18.3962   10.3442 C   0  0  0  0  0  0  0  0  0  0  0  0
   17.0415  -19.3918   11.4549 C   0  0  0  0  0  0  0  0  0  0  0  0
   18.4513  -19.9214   11.3092 C   0  0  0  0  0  0  0  0  0  0  0  0
   19.0150  -18.9904   10.2046 C   0  0  1  0  0  0  0  0  0  0  0  0
   20.2456  -19.5065    9.6671 C   0  0  0  0  0  0  0  0  0  0  0  0
   21.4521  -19.0625   10.2467 O   0  0  0  0  0  0  0  0  0  0  0  0
   20.3588  -20.3084    8.7386 O   0  0  0  0  0  0  0  0  0  0  0  0
  2 13  1  0
  2  1  1  1
  3  2  1  0
  4  3  1  0
  4  5  2  0
  6  5  1  0
  7 12  2  0
  7  6  1  0
  8  7  1  0
  9 10  1  0
  9  8  2  0
 10 11  2  0
 11 12  1  0
 12  4  1  0
 13 14  2  0
 15 16  1  0
 15 13  1  0
 16 17  1  6
 18 17  1  0
 19 18  2  0
 20 21  1  0
 20 19  1  0
 21 22  2  0
 22 18  1  0
 23 16  1  0
 24 23  2  0
 25 23  1  0
 25 29  1  0
 26 25  1  0
 27 26  1  0
 27 28  1  0
 28 29  1  0
 29 30  1  6
 30 31  1  0
 32 30  2  0
M  END
$$$$
