WHP.pdb
     RDKit          3D

 32 35  0  0  1  0  0  0  0  0999 V2000
   24.8356  -19.4291  -11.7981 N   0  0  0  0  0  0  0  0  0  0  0  0
   26.0962  -20.0880  -12.0146 C   0  0  1  0  0  0  0  0  0  0  0  0
   26.1379  -21.3405  -11.1941 C   0  0  0  0  0  0  0  0  0  0  0  0
   26.0856  -21.0647   -9.7358 C   0  0  0  0  0  0  0  0  0  0  0  0
   25.0031  -21.0574   -8.9002 C   0  0  0  0  0  0  0  0  0  0  0  0
   25.4077  -20.7597   -7.6652 N   0  0  0  0  0  0  0  0  0  0  0  0
   26.7372  -20.5761   -7.7001 C   0  0  0  0  0  0  0  0  0  0  0  0
   27.6723  -20.2519   -6.7215 C   0  0  0  0  0  0  0  0  0  0  0  0
   28.9959  -20.1222   -7.0313 C   0  0  0  0  0  0  0  0  0  0  0  0
   29.4237  -20.3101   -8.3141 C   0  0  0  0  0  0  0  0  0  0  0  0
   28.5161  -20.6333   -9.3078 C   0  0  0  0  0  0  0  0  0  0  0  0
   27.1875  -20.7594   -8.9765 C   0  0  0  0  0  0  0  0  0  0  0  0
   26.3251  -20.4186  -13.4447 C   0  0  0  0  0  0  0  0  0  0  0  0
   25.3421  -20.8459  -14.1061 O   0  0  0  0  0  0  0  0  0  0  0  0
   27.5620  -20.2817  -14.0884 N   0  0  0  0  0  0  0  0  0  0  0  0
   27.6820  -20.4812  -15.5223 C   0  0  1  0  0  0  0  0  0  0  0  0
   28.5909  -19.4035  -16.0985 C   0  0  0  0  0  0  0  0  0  0  0  0
   27.8793  -18.1173  -16.2737 C   0  0  0  0  0  0  0  0  0  0  0  0
   26.5464  -17.8951  -16.0133 C   0  0  0  0  0  0  0  0  0  0  0  0
   26.2565  -16.6307  -16.2847 N   0  0  0  0  0  0  0  0  0  0  0  0
   27.3754  -16.0290  -16.7160 C   0  0  0  0  0  0  0  0  0  0  0  0
   28.3550  -16.9447  -16.7044 N   0  0  0  0  0  0  0  0  0  0  0  0
   28.3181  -21.8209  -15.8286 C   0  0  0  0  0  0  0  0  0  0  0  0
   29.3660  -22.0310  -15.1683 O   0  0  0  0  0  0  0  0  0  0  0  0
   27.7609  -22.7007  -16.7577 N   0  0  0  0  0  0  0  0  0  0  0  0
   26.3214  -22.6926  -17.1168 C   0  0  0  0  0  0  0  0  0  0  0  0
   26.4068  -22.7454  -18.6171 C   0  0  0  0  0  0  0  0  0  0  0  0
   27.7527  -23.3558  -18.9414 C   0  0  0  0  0  0  0  0  0  0  0  0
   28.2379  -23.7912  -17.5344 C   0  0  1  0  0  0  0  0  0  0  0  0
   29.6402  -24.1125  -17.5439 C   0  0  0  0  0  0  0  0  0  0  0  0
   30.0379  -25.3321  -16.9580 O   0  0  0  0  0  0  0  0  0  0  0  0
   30.5452  -23.4236  -18.0174 O   0  0  0  0  0  0  0  0  0  0  0  0
  2 13  1  0
  2  1  1  6
  3  2  1  0
  4  3  1  0
  4  5  2  0
  6  5  1  0
  7 12  2  0
  7  6  1  0
  8  7  1  0
  9 10  1  0
  9  8  2  0
 10 11  2  0
 11 12  1  0
 12  4  1  0
 13 14  2  0
 15 16  1  0
 15 13  1  0
 16 17  1  1
 18 17  1  0
 19 18  2  0
 20 21  1  0
 20 19  1  0
 21 22  2  0
 22 18  1  0
 23 16  1  0
 24 23  2  0
 25 23  1  0
 25 29  1  0
 26 25  1  0
 27 26  1  0
 27 28  1  0
 28 29  1  0
 29 30  1  6
 30 31  1  0
 32 30  2  0
M  END
$$$$
