WHP.pdb
     RDKit          3D

 32 35  0  0  1  0  0  0  0  0999 V2000
   28.1112  -20.8091   -9.4538 N   0  0  0  0  0  0  0  0  0  0  0  0
   26.6965  -21.0689   -9.4874 C   0  0  1  0  0  0  0  0  0  0  0  0
   26.0299  -20.2743   -8.4067 C   0  0  0  0  0  0  0  0  0  0  0  0
   27.0047  -19.5454   -7.5558 C   0  0  0  0  0  0  0  0  0  0  0  0
   27.6264  -18.3503   -7.7907 C   0  0  0  0  0  0  0  0  0  0  0  0
   28.4248  -18.0646   -6.7620 N   0  0  0  0  0  0  0  0  0  0  0  0
   28.3217  -19.0632   -5.8705 C   0  0  0  0  0  0  0  0  0  0  0  0
   28.9177  -19.2908   -4.6335 C   0  0  0  0  0  0  0  0  0  0  0  0
   28.6320  -20.4153   -3.9133 C   0  0  0  0  0  0  0  0  0  0  0  0
   27.7517  -21.3385   -4.3997 C   0  0  0  0  0  0  0  0  0  0  0  0
   27.1440  -21.1383   -5.6270 C   0  0  0  0  0  0  0  0  0  0  0  0
   27.4443  -19.9999   -6.3376 C   0  0  0  0  0  0  0  0  0  0  0  0
   26.0895  -20.7346  -10.8014 C   0  0  0  0  0  0  0  0  0  0  0  0
   26.5329  -19.7217  -11.4046 O   0  0  0  0  0  0  0  0  0  0  0  0
   25.0622  -21.4776  -11.3976 N   0  0  0  0  0  0  0  0  0  0  0  0
   24.5504  -21.1224  -12.7099 C   0  0  1  0  0  0  0  0  0  0  0  0
   25.0447  -22.1420  -13.7276 C   0  0  0  0  0  0  0  0  0  0  0  0
   26.4684  -21.9305  -14.0737 C   0  0  0  0  0  0  0  0  0  0  0  0
   26.9367  -21.3777  -15.2437 C   0  0  0  0  0  0  0  0  0  0  0  0
   28.2611  -21.3453  -15.2082 N   0  0  0  0  0  0  0  0  0  0  0  0
   28.6604  -21.8662  -14.0380 C   0  0  0  0  0  0  0  0  0  0  0  0
   27.5597  -22.2181  -13.3576 N   0  0  0  0  0  0  0  0  0  0  0  0
   23.0367  -21.1630  -12.7271 C   0  0  0  0  0  0  0  0  0  0  0  0
   22.5649  -22.1794  -12.1589 O   0  0  0  0  0  0  0  0  0  0  0  0
   22.2838  -20.1515  -13.3251 N   0  0  0  0  0  0  0  0  0  0  0  0
   22.8338  -18.8085  -13.6330 C   0  0  0  0  0  0  0  0  0  0  0  0
   22.3515  -18.6255  -15.0454 C   0  0  0  0  0  0  0  0  0  0  0  0
   21.1458  -19.5265  -15.1991 C   0  0  0  0  0  0  0  0  0  0  0  0
   20.9322  -20.0031  -13.7390 C   0  0  1  0  0  0  0  0  0  0  0  0
   20.0327  -21.1245  -13.6840 C   0  0  0  0  0  0  0  0  0  0  0  0
   18.9378  -21.0445  -12.7988 O   0  0  0  0  0  0  0  0  0  0  0  0
   20.1191  -22.1644  -14.3391 O   0  0  0  0  0  0  0  0  0  0  0  0
  2 13  1  0
  2  1  1  6
  3  2  1  0
  4  3  1  0
  4  5  2  0
  6  5  1  0
  7 12  2  0
  7  6  1  0
  8  7  1  0
  9 10  1  0
  9  8  2  0
 10 11  2  0
 11 12  1  0
 12  4  1  0
 13 14  2  0
 15 16  1  0
 15 13  1  0
 16 17  1  6
 18 17  1  0
 19 18  2  0
 20 21  1  0
 20 19  1  0
 21 22  2  0
 22 18  1  0
 23 16  1  0
 24 23  2  0
 25 23  1  0
 25 29  1  0
 26 25  1  0
 27 26  1  0
 27 28  1  0
 28 29  1  0
 29 30  1  6
 30 31  1  0
 32 30  2  0
M  END
$$$$
