WHP.pdb
     RDKit          3D

 32 35  0  0  1  0  0  0  0  0999 V2000
   28.1535  -20.2434   -9.4347 N   0  0  0  0  0  0  0  0  0  0  0  0
   26.7952  -20.7079   -9.3365 C   0  0  1  0  0  0  0  0  0  0  0  0
   26.1049  -19.9641   -8.2348 C   0  0  0  0  0  0  0  0  0  0  0  0
   27.0619  -19.3167   -7.3017 C   0  0  0  0  0  0  0  0  0  0  0  0
   27.5529  -18.0405   -7.3219 C   0  0  0  0  0  0  0  0  0  0  0  0
   28.3876  -17.8783   -6.2950 N   0  0  0  0  0  0  0  0  0  0  0  0
   28.4370  -19.0362   -5.6172 C   0  0  0  0  0  0  0  0  0  0  0  0
   29.1323  -19.4362   -4.4797 C   0  0  0  0  0  0  0  0  0  0  0  0
   29.0007  -20.7027   -3.9863 C   0  0  0  0  0  0  0  0  0  0  0  0
   28.1798  -21.6006   -4.6058 C   0  0  0  0  0  0  0  0  0  0  0  0
   27.4762  -21.2303   -5.7387 C   0  0  0  0  0  0  0  0  0  0  0  0
   27.6216  -19.9507   -6.2207 C   0  0  0  0  0  0  0  0  0  0  0  0
   26.0432  -20.5340  -10.6057 C   0  0  0  0  0  0  0  0  0  0  0  0
   26.1481  -19.4259  -11.1953 O   0  0  0  0  0  0  0  0  0  0  0  0
   25.2331  -21.5256  -11.1744 N   0  0  0  0  0  0  0  0  0  0  0  0
   24.5629  -21.3031  -12.4439 C   0  0  1  0  0  0  0  0  0  0  0  0
   25.0577  -22.3313  -13.4527 C   0  0  0  0  0  0  0  0  0  0  0  0
   26.3895  -21.9772  -13.9932 C   0  0  0  0  0  0  0  0  0  0  0  0
   26.6245  -21.2710  -15.1507 C   0  0  0  0  0  0  0  0  0  0  0  0
   27.9323  -21.1420  -15.3220 N   0  0  0  0  0  0  0  0  0  0  0  0
   28.5497  -21.7509  -14.2982 C   0  0  0  0  0  0  0  0  0  0  0  0
   27.5994  -22.2547  -13.4973 N   0  0  0  0  0  0  0  0  0  0  0  0
   23.0667  -21.4905  -12.3035 C   0  0  0  0  0  0  0  0  0  0  0  0
   22.7567  -22.5628  -11.7269 O   0  0  0  0  0  0  0  0  0  0  0  0
   22.1619  -20.5415  -12.7811 N   0  0  0  0  0  0  0  0  0  0  0  0
   22.5543  -19.1539  -13.1301 C   0  0  0  0  0  0  0  0  0  0  0  0
   21.8815  -19.0001  -14.4660 C   0  0  0  0  0  0  0  0  0  0  0  0
   20.7452  -19.9990  -14.4829 C   0  0  0  0  0  0  0  0  0  0  0  0
   20.7609  -20.5048  -13.0172 C   0  0  1  0  0  0  0  0  0  0  0  0
   19.9721  -21.6990  -12.8704 C   0  0  0  0  0  0  0  0  0  0  0  0
   18.9648  -21.7028  -11.8834 O   0  0  0  0  0  0  0  0  0  0  0  0
   20.0856  -22.7357  -13.5263 O   0  0  0  0  0  0  0  0  0  0  0  0
  2 13  1  0
  2  1  1  6
  3  2  1  0
  4  3  1  0
  4  5  2  0
  6  5  1  0
  7 12  2  0
  7  6  1  0
  8  7  1  0
  9 10  1  0
  9  8  2  0
 10 11  2  0
 11 12  1  0
 12  4  1  0
 13 14  2  0
 15 16  1  0
 15 13  1  0
 16 17  1  6
 18 17  1  0
 19 18  2  0
 20 21  1  0
 20 19  1  0
 21 22  2  0
 22 18  1  0
 23 16  1  0
 24 23  2  0
 25 23  1  0
 25 29  1  0
 26 25  1  0
 27 26  1  0
 27 28  1  0
 28 29  1  0
 29 30  1  6
 30 31  1  0
 32 30  2  0
M  END
$$$$
