WHP.pdb
     RDKit          3D

 32 35  0  0  1  0  0  0  0  0999 V2000
   24.3636  -21.0616   -8.5153 N   0  0  0  0  0  0  0  0  0  0  0  0
   25.4263  -20.5140   -9.3158 C   0  0  1  0  0  0  0  0  0  0  0  0
   26.7382  -21.0031   -8.7837 C   0  0  0  0  0  0  0  0  0  0  0  0
   27.1332  -20.3140   -7.5288 C   0  0  0  0  0  0  0  0  0  0  0  0
   26.3708  -19.5460   -6.6928 C   0  0  0  0  0  0  0  0  0  0  0  0
   27.1268  -19.1217   -5.6800 N   0  0  0  0  0  0  0  0  0  0  0  0
   28.3651  -19.6091   -5.8577 C   0  0  0  0  0  0  0  0  0  0  0  0
   29.5416  -19.4905   -5.1235 C   0  0  0  0  0  0  0  0  0  0  0  0
   30.6908  -20.1020   -5.5361 C   0  0  0  0  0  0  0  0  0  0  0  0
   30.7021  -20.8434   -6.6824 C   0  0  0  0  0  0  0  0  0  0  0  0
   29.5468  -20.9787   -7.4325 C   0  0  0  0  0  0  0  0  0  0  0  0
   28.3995  -20.3555   -7.0009 C   0  0  0  0  0  0  0  0  0  0  0  0
   25.3010  -20.8781  -10.7506 C   0  0  0  0  0  0  0  0  0  0  0  0
   24.9519  -22.0575  -11.0216 O   0  0  0  0  0  0  0  0  0  0  0  0
   25.5479  -19.9894  -11.8052 N   0  0  0  0  0  0  0  0  0  0  0  0
   25.1886  -20.3340  -13.1699 C   0  0  1  0  0  0  0  0  0  0  0  0
   23.9107  -19.5965  -13.5474 C   0  0  0  0  0  0  0  0  0  0  0  0
   23.4804  -19.9098  -14.9288 C   0  0  0  0  0  0  0  0  0  0  0  0
   23.5052  -19.0395  -15.9944 C   0  0  0  0  0  0  0  0  0  0  0  0
   23.0479  -19.6606  -17.0722 N   0  0  0  0  0  0  0  0  0  0  0  0
   22.7273  -20.9165  -16.7260 C   0  0  0  0  0  0  0  0  0  0  0  0
   22.9953  -21.0547  -15.4193 N   0  0  0  0  0  0  0  0  0  0  0  0
   26.2671  -19.8955  -14.1383 C   0  0  0  0  0  0  0  0  0  0  0  0
   26.4802  -18.6577  -14.1105 O   0  0  0  0  0  0  0  0  0  0  0  0
   26.9302  -20.8093  -14.9586 N   0  0  0  0  0  0  0  0  0  0  0  0
   27.0863  -22.2430  -14.6109 C   0  0  0  0  0  0  0  0  0  0  0  0
   26.6890  -22.8907  -15.9085 C   0  0  0  0  0  0  0  0  0  0  0  0
   26.9199  -21.8532  -16.9853 C   0  0  0  0  0  0  0  0  0  0  0  0
   27.6433  -20.7387  -16.1860 C   0  0  1  0  0  0  0  0  0  0  0  0
   27.6824  -19.5073  -16.9289 C   0  0  0  0  0  0  0  0  0  0  0  0
   28.9158  -18.8281  -17.0087 O   0  0  0  0  0  0  0  0  0  0  0  0
   26.7370  -18.9746  -17.5122 O   0  0  0  0  0  0  0  0  0  0  0  0
  2 13  1  0
  2  1  1  1
  3  2  1  0
  4  3  1  0
  4  5  2  0
  6  5  1  0
  7 12  2  0
  7  6  1  0
  8  7  1  0
  9 10  1  0
  9  8  2  0
 10 11  2  0
 11 12  1  0
 12  4  1  0
 13 14  2  0
 15 16  1  0
 15 13  1  0
 16 17  1  6
 18 17  1  0
 19 18  2  0
 20 21  1  0
 20 19  1  0
 21 22  2  0
 22 18  1  0
 23 16  1  0
 24 23  2  0
 25 23  1  0
 25 29  1  0
 26 25  1  0
 27 26  1  0
 27 28  1  0
 28 29  1  0
 29 30  1  6
 30 31  1  0
 32 30  2  0
M  END
$$$$
