WHP.pdb
     RDKit          3D

 32 35  0  0  1  0  0  0  0  0999 V2000
   21.9057  -19.9212  -12.9295 N   0  0  0  0  0  0  0  0  0  0  0  0
   23.3042  -19.9195  -12.5912 C   0  0  1  0  0  0  0  0  0  0  0  0
   23.6235  -21.1721  -11.8346 C   0  0  0  0  0  0  0  0  0  0  0  0
   23.8834  -20.9142  -10.3953 C   0  0  0  0  0  0  0  0  0  0  0  0
   22.9937  -20.8504   -9.3587 C   0  0  0  0  0  0  0  0  0  0  0  0
   23.6567  -20.5964   -8.2303 N   0  0  0  0  0  0  0  0  0  0  0  0
   24.9611  -20.4965   -8.5322 C   0  0  0  0  0  0  0  0  0  0  0  0
   26.0928  -20.2458   -7.7617 C   0  0  0  0  0  0  0  0  0  0  0  0
   27.3326  -20.1955   -8.3318 C   0  0  0  0  0  0  0  0  0  0  0  0
   27.4808  -20.3918   -9.6746 C   0  0  0  0  0  0  0  0  0  0  0  0
   26.3730  -20.6431  -10.4654 C   0  0  0  0  0  0  0  0  0  0  0  0
   25.1328  -20.6898   -9.8733 C   0  0  0  0  0  0  0  0  0  0  0  0
   24.1774  -19.8218  -13.7890 C   0  0  0  0  0  0  0  0  0  0  0  0
   23.6934  -20.1912  -14.8916 O   0  0  0  0  0  0  0  0  0  0  0  0
   25.4949  -19.3463  -13.7571 N   0  0  0  0  0  0  0  0  0  0  0  0
   26.2229  -19.0847  -14.9866 C   0  0  1  0  0  0  0  0  0  0  0  0
   27.2331  -17.9725  -14.7376 C   0  0  0  0  0  0  0  0  0  0  0  0
   27.9407  -17.5819  -15.9779 C   0  0  0  0  0  0  0  0  0  0  0  0
   27.6397  -16.4943  -16.7654 C   0  0  0  0  0  0  0  0  0  0  0  0
   28.4784  -16.4563  -17.7910 N   0  0  0  0  0  0  0  0  0  0  0  0
   29.3170  -17.4980  -17.6835 C   0  0  0  0  0  0  0  0  0  0  0  0
   28.9787  -18.1746  -16.5761 N   0  0  0  0  0  0  0  0  0  0  0  0
   26.9974  -20.3097  -15.4254 C   0  0  0  0  0  0  0  0  0  0  0  0
   27.8279  -20.7006  -14.5676 O   0  0  0  0  0  0  0  0  0  0  0  0
   26.7771  -20.9098  -16.6659 N   0  0  0  0  0  0  0  0  0  0  0  0
   25.6056  -20.5946  -17.5200 C   0  0  0  0  0  0  0  0  0  0  0  0
   26.2741  -20.4046  -18.8534 C   0  0  0  0  0  0  0  0  0  0  0  0
   27.5765  -21.1717  -18.7849 C   0  0  0  0  0  0  0  0  0  0  0  0
   27.4217  -21.9171  -17.4340 C   0  0  1  0  0  0  0  0  0  0  0  0
   28.6769  -22.4669  -16.9962 C   0  0  0  0  0  0  0  0  0  0  0  0
   28.7887  -23.8708  -16.9236 O   0  0  0  0  0  0  0  0  0  0  0  0
   29.6810  -21.8305  -16.6725 O   0  0  0  0  0  0  0  0  0  0  0  0
  2 13  1  0
  2  1  1  6
  3  2  1  0
  4  3  1  0
  4  5  2  0
  6  5  1  0
  7 12  2  0
  7  6  1  0
  8  7  1  0
  9 10  1  0
  9  8  2  0
 10 11  2  0
 11 12  1  0
 12  4  1  0
 13 14  2  0
 15 16  1  0
 15 13  1  0
 16 17  1  1
 18 17  1  0
 19 18  2  0
 20 21  1  0
 20 19  1  0
 21 22  2  0
 22 18  1  0
 23 16  1  0
 24 23  2  0
 25 23  1  0
 25 29  1  0
 26 25  1  0
 27 26  1  0
 27 28  1  0
 28 29  1  0
 29 30  1  1
 30 31  1  0
 32 30  2  0
M  END
$$$$
