IVM.pdb
     RDKit          3D

 24 23  0  0  1  0  0  0  0  0999 V2000
    5.8841  -11.2927   27.1210 C   0  0  0  0  0  0  0  0  0  0  0  0
    5.3405  -12.5425   26.4751 C   0  0  0  0  0  0  0  0  0  0  0  0
    6.4587  -13.3715   25.8946 C   0  0  2  0  0  0  0  0  0  0  0  0
    7.2290  -12.5059   24.8979 C   0  0  0  0  0  0  0  0  0  0  0  0
    5.9840  -14.5973   25.1875 C   0  0  2  0  0  0  0  0  0  0  0  0
    5.2325  -15.4925   26.0344 N   0  0  0  0  0  0  0  0  0  0  0  0
    7.1388  -15.3154   24.6256 C   0  0  0  0  0  0  0  0  0  0  0  0
    7.8639  -16.0612   25.3336 O   0  0  0  0  0  0  0  0  0  0  0  0
    7.2898  -15.7823   20.6110 C   0  0  0  0  0  0  0  0  0  0  0  0
    8.6635  -15.6676   21.2033 C   0  0  1  0  0  0  0  0  0  0  0  0
    9.1873  -14.2289   21.1074 C   0  0  0  0  0  0  0  0  0  0  0  0
    8.6090  -15.9963   22.6804 C   0  0  2  0  0  0  0  0  0  0  0  0
    7.5217  -15.2226   23.2483 N   0  0  0  0  0  0  0  0  0  0  0  0
    9.9057  -15.6907   23.3411 C   0  0  0  0  0  0  0  0  0  0  0  0
   10.3575  -14.5081   23.2927 O   0  0  0  0  0  0  0  0  0  0  0  0
    9.7114  -13.7860   27.7896 C   0  0  0  0  0  0  0  0  0  0  0  0
   11.1591  -14.6994   28.4099 S   0  0  0  0  0  0  0  0  0  0  0  0
   12.1304  -15.3643   27.0184 C   0  0  0  0  0  0  0  0  0  0  0  0
   11.3643  -16.3664   26.2278 C   0  0  0  0  0  0  0  0  0  0  0  0
   11.7462  -16.4780   24.7918 C   0  0  2  0  0  0  0  0  0  0  0  0
   10.5743  -16.7530   23.9976 N   0  0  0  0  0  0  0  0  0  0  0  0
   12.8029  -17.4480   24.5028 C   0  0  0  0  0  0  0  0  0  0  0  0
   13.9869  -17.3635   24.9027 O   0  0  0  0  0  0  0  0  0  0  0  0
   12.4922  -18.5556   23.7275 O   0  0  0  0  0  0  0  0  0  0  0  0
  2  1  1  0
  3  5  1  0
  3  2  1  0
  3  4  1  6
  5  6  1  1
  7  5  1  0
  8  7  2  0
 10 11  1  1
 10  9  1  0
 12 10  1  0
 12 13  1  1
 13  7  1  0
 14 12  1  0
 15 14  2  0
 17 16  1  0
 17 18  1  0
 19 18  1  0
 20 19  1  1
 20 22  1  0
 20 21  1  0
 21 14  1  0
 22 24  1  0
 23 22  2  0
M  END
$$$$
