IVM.pdb
     RDKit          3D

 24 23  0  0  1  0  0  0  0  0999 V2000
   10.5143  -20.4517   16.7260 C   0  0  0  0  0  0  0  0  0  0  0  0
    9.8959  -20.3476   18.0977 C   0  0  0  0  0  0  0  0  0  0  0  0
   10.0595  -18.9542   18.6512 C   0  0  2  0  0  0  0  0  0  0  0  0
   11.5534  -18.6753   18.8126 C   0  0  0  0  0  0  0  0  0  0  0  0
    9.3968  -18.7592   19.9744 C   0  0  2  0  0  0  0  0  0  0  0  0
    7.9915  -19.0883   19.9656 N   0  0  0  0  0  0  0  0  0  0  0  0
    9.5658  -17.3623   20.4044 C   0  0  0  0  0  0  0  0  0  0  0  0
   10.7041  -16.8423   20.5353 O   0  0  0  0  0  0  0  0  0  0  0  0
    6.2962  -14.6113   20.6470 C   0  0  0  0  0  0  0  0  0  0  0  0
    7.7292  -14.2521   20.3851 C   0  0  1  0  0  0  0  0  0  0  0  0
    8.0298  -12.8171   20.8368 C   0  0  0  0  0  0  0  0  0  0  0  0
    8.6352  -15.1477   21.2035 C   0  0  2  0  0  0  0  0  0  0  0  0
    8.4630  -16.4980   20.7031 N   0  0  0  0  0  0  0  0  0  0  0  0
    8.3105  -15.0516   22.6515 C   0  0  0  0  0  0  0  0  0  0  0  0
    7.2525  -15.5990   23.0826 O   0  0  0  0  0  0  0  0  0  0  0  0
    6.7981  -10.5240   27.0134 C   0  0  0  0  0  0  0  0  0  0  0  0
    6.0031  -12.1530   26.8421 S   0  0  0  0  0  0  0  0  0  0  0  0
    7.2598  -13.4428   26.5610 C   0  0  0  0  0  0  0  0  0  0  0  0
    7.7296  -13.4699   25.1486 C   0  0  0  0  0  0  0  0  0  0  0  0
    8.9676  -14.2609   24.8998 C   0  0  2  0  0  0  0  0  0  0  0  0
    9.2142  -14.3436   23.4813 N   0  0  0  0  0  0  0  0  0  0  0  0
    8.9862  -15.5936   25.5038 C   0  0  0  0  0  0  0  0  0  0  0  0
    7.9981  -16.3584   25.5908 O   0  0  0  0  0  0  0  0  0  0  0  0
   10.1801  -16.0678   26.0271 O   0  0  0  0  0  0  0  0  0  0  0  0
  2  1  1  0
  3  5  1  0
  3  2  1  0
  3  4  1  1
  5  6  1  6
  7  5  1  0
  8  7  2  0
 10 11  1  1
 10  9  1  0
 12 10  1  0
 12 13  1  6
 13  7  1  0
 14 12  1  0
 15 14  2  0
 17 16  1  0
 17 18  1  0
 19 18  1  0
 20 19  1  6
 20 22  1  0
 20 21  1  0
 21 14  1  0
 22 24  1  0
 23 22  2  0
M  END
$$$$
