IVM.pdb
     RDKit          3D

 24 23  0  0  1  0  0  0  0  0999 V2000
   13.9796  -17.5228   18.8769 C   0  0  0  0  0  0  0  0  0  0  0  0
   12.6332  -18.1601   18.6403 C   0  0  0  0  0  0  0  0  0  0  0  0
   11.5830  -17.5278   19.5190 C   0  0  2  0  0  0  0  0  0  0  0  0
   12.0572  -17.6132   20.9694 C   0  0  0  0  0  0  0  0  0  0  0  0
   10.2483  -18.1885   19.4187 C   0  0  2  0  0  0  0  0  0  0  0  0
    9.6407  -18.0579   18.1159 N   0  0  0  0  0  0  0  0  0  0  0  0
    9.3459  -17.6237   20.4343 C   0  0  0  0  0  0  0  0  0  0  0  0
    8.7394  -16.5366   20.2508 O   0  0  0  0  0  0  0  0  0  0  0  0
    6.4979  -18.5389   24.3289 C   0  0  0  0  0  0  0  0  0  0  0  0
    7.3590  -18.9582   23.1740 C   0  0  1  0  0  0  0  0  0  0  0  0
    6.5057  -19.4730   22.0077 C   0  0  0  0  0  0  0  0  0  0  0  0
    8.1156  -17.7590   22.6426 C   0  0  2  0  0  0  0  0  0  0  0  0
    9.0913  -18.2585   21.6930 N   0  0  0  0  0  0  0  0  0  0  0  0
    8.7611  -17.0046   23.7496 C   0  0  0  0  0  0  0  0  0  0  0  0
    9.9261  -17.3347   24.1220 O   0  0  0  0  0  0  0  0  0  0  0  0
    5.6036  -11.8771   26.0519 C   0  0  0  0  0  0  0  0  0  0  0  0
    7.0418  -11.7697   27.1632 S   0  0  0  0  0  0  0  0  0  0  0  0
    8.2016  -13.1353   26.8293 C   0  0  0  0  0  0  0  0  0  0  0  0
    7.7534  -13.9868   25.6932 C   0  0  0  0  0  0  0  0  0  0  0  0
    8.6283  -15.1518   25.3810 C   0  0  2  0  0  0  0  0  0  0  0  0
    8.0282  -15.9434   24.3355 N   0  0  0  0  0  0  0  0  0  0  0  0
    8.9773  -15.9923   26.5268 C   0  0  0  0  0  0  0  0  0  0  0  0
    8.3075  -16.9694   26.9335 O   0  0  0  0  0  0  0  0  0  0  0  0
   10.1361  -15.7033   27.2327 O   0  0  0  0  0  0  0  0  0  0  0  0
  2  1  1  0
  3  5  1  0
  3  2  1  0
  3  4  1  1
  5  6  1  6
  7  5  1  0
  8  7  2  0
 10 11  1  6
 10  9  1  0
 12 10  1  0
 12 13  1  6
 13  7  1  0
 14 12  1  0
 15 14  2  0
 17 16  1  0
 17 18  1  0
 19 18  1  0
 20 19  1  1
 20 22  1  0
 20 21  1  0
 21 14  1  0
 22 24  1  0
 23 22  2  0
M  END
$$$$
