IVM.pdb
     RDKit          3D

 24 23  0  0  1  0  0  0  0  0999 V2000
   14.1910  -17.2615   21.5081 C   0  0  0  0  0  0  0  0  0  0  0  0
   13.6597  -15.9786   20.9194 C   0  0  0  0  0  0  0  0  0  0  0  0
   12.6198  -16.2667   19.8657 C   0  0  2  0  0  0  0  0  0  0  0  0
   13.2785  -17.0811   18.7527 C   0  0  0  0  0  0  0  0  0  0  0  0
   12.0278  -15.0360   19.2633 C   0  0  2  0  0  0  0  0  0  0  0  0
   13.0134  -14.1342   18.7168 N   0  0  0  0  0  0  0  0  0  0  0  0
   11.2328  -14.3284   20.2794 C   0  0  0  0  0  0  0  0  0  0  0  0
   11.7477  -13.4758   21.0482 O   0  0  0  0  0  0  0  0  0  0  0  0
    8.0295  -12.2952   20.0683 C   0  0  0  0  0  0  0  0  0  0  0  0
    7.7706  -13.4633   20.9737 C   0  0  1  0  0  0  0  0  0  0  0  0
    7.1824  -14.6462   20.1936 C   0  0  0  0  0  0  0  0  0  0  0  0
    9.0791  -13.9544   21.5563 C   0  0  2  0  0  0  0  0  0  0  0  0
    9.8306  -14.5522   20.4695 N   0  0  0  0  0  0  0  0  0  0  0  0
    8.8396  -14.9236   22.6583 C   0  0  0  0  0  0  0  0  0  0  0  0
    9.2021  -16.1282   22.5082 O   0  0  0  0  0  0  0  0  0  0  0  0
    5.6508  -11.7387   27.0008 C   0  0  0  0  0  0  0  0  0  0  0  0
    7.1621  -12.4086   27.7636 S   0  0  0  0  0  0  0  0  0  0  0  0
    8.1183  -13.3621   26.5396 C   0  0  0  0  0  0  0  0  0  0  0  0
    7.3890  -14.5759   26.0802 C   0  0  0  0  0  0  0  0  0  0  0  0
    8.0274  -15.3216   24.9592 C   0  0  2  0  0  0  0  0  0  0  0  0
    8.2107  -14.4407   23.8321 N   0  0  0  0  0  0  0  0  0  0  0  0
    7.3335  -16.5432   24.5499 C   0  0  0  0  0  0  0  0  0  0  0  0
    7.3455  -17.6243   25.1823 O   0  0  0  0  0  0  0  0  0  0  0  0
    6.5989  -16.5260   23.3733 O   0  0  0  0  0  0  0  0  0  0  0  0
  2  1  1  0
  3  5  1  0
  3  2  1  0
  3  4  1  6
  5  6  1  1
  7  5  1  0
  8  7  2  0
 10 11  1  6
 10  9  1  0
 12 10  1  0
 12 13  1  6
 13  7  1  0
 14 12  1  0
 15 14  2  0
 17 16  1  0
 17 18  1  0
 19 18  1  0
 20 19  1  1
 20 22  1  0
 20 21  1  0
 21 14  1  0
 22 24  1  0
 23 22  2  0
M  END
$$$$
