IVM.pdb
     RDKit          3D

 24 23  0  0  1  0  0  0  0  0999 V2000
    7.6721  -11.8211   19.4987 C   0  0  0  0  0  0  0  0  0  0  0  0
    8.0150  -13.2858   19.3896 C   0  0  0  0  0  0  0  0  0  0  0  0
    7.8342  -13.9754   20.7186 C   0  0  2  0  0  0  0  0  0  0  0  0
    8.7475  -13.2964   21.7387 C   0  0  0  0  0  0  0  0  0  0  0  0
    8.1654  -15.4304   20.6827 C   0  0  2  0  0  0  0  0  0  0  0  0
    7.3232  -16.1880   19.7882 N   0  0  0  0  0  0  0  0  0  0  0  0
    8.0594  -15.9894   22.0396 C   0  0  0  0  0  0  0  0  0  0  0  0
    6.9540  -16.0820   22.6336 O   0  0  0  0  0  0  0  0  0  0  0  0
    8.9133  -19.2182   23.3681 C   0  0  0  0  0  0  0  0  0  0  0  0
    9.7024  -18.2819   24.2351 C   0  0  1  0  0  0  0  0  0  0  0  0
   11.1453  -18.1476   23.7317 C   0  0  0  0  0  0  0  0  0  0  0  0
    9.1019  -16.8938   24.1619 C   0  0  2  0  0  0  0  0  0  0  0  0
    9.1903  -16.4647   22.7793 N   0  0  0  0  0  0  0  0  0  0  0  0
    9.8116  -15.9589   25.0748 C   0  0  0  0  0  0  0  0  0  0  0  0
   10.9553  -15.5256   24.7445 O   0  0  0  0  0  0  0  0  0  0  0  0
    6.1476  -12.7033   25.6933 C   0  0  0  0  0  0  0  0  0  0  0  0
    6.9125  -11.9017   27.1379 S   0  0  0  0  0  0  0  0  0  0  0  0
    8.6477  -12.4322   27.3098 C   0  0  0  0  0  0  0  0  0  0  0  0
    8.7604  -13.8199   27.8371 C   0  0  0  0  0  0  0  0  0  0  0  0
    9.7949  -14.6714   27.1853 C   0  0  2  0  0  0  0  0  0  0  0  0
    9.1613  -15.5987   26.2806 N   0  0  0  0  0  0  0  0  0  0  0  0
   10.6880  -15.3780   28.1042 C   0  0  0  0  0  0  0  0  0  0  0  0
   10.6809  -16.6140   28.3072 O   0  0  0  0  0  0  0  0  0  0  0  0
   11.6237  -14.6422   28.8165 O   0  0  0  0  0  0  0  0  0  0  0  0
  2  1  1  0
  3  5  1  0
  3  2  1  0
  3  4  1  1
  5  6  1  6
  7  5  1  0
  8  7  2  0
 10 11  1  6
 10  9  1  0
 12 10  1  0
 12 13  1  6
 13  7  1  0
 14 12  1  0
 15 14  2  0
 17 16  1  0
 17 18  1  0
 19 18  1  0
 20 19  1  1
 20 22  1  0
 20 21  1  0
 21 14  1  0
 22 24  1  0
 23 22  2  0
M  END
$$$$
