IVM.pdb
     RDKit          3D

 24 23  0  0  1  0  0  0  0  0999 V2000
    7.7726  -11.7491   19.9151 C   0  0  0  0  0  0  0  0  0  0  0  0
    7.7286  -13.2012   19.5101 C   0  0  0  0  0  0  0  0  0  0  0  0
    7.7670  -14.0943   20.7249 C   0  0  2  0  0  0  0  0  0  0  0  0
    9.0613  -13.8112   21.4868 C   0  0  0  0  0  0  0  0  0  0  0  0
    7.7220  -15.5492   20.3941 C   0  0  2  0  0  0  0  0  0  0  0  0
    6.5346  -15.9359   19.6703 N   0  0  0  0  0  0  0  0  0  0  0  0
    7.8122  -16.3353   21.6346 C   0  0  0  0  0  0  0  0  0  0  0  0
    6.8823  -16.3449   22.4822 O   0  0  0  0  0  0  0  0  0  0  0  0
    8.6086  -19.9406   22.0935 C   0  0  0  0  0  0  0  0  0  0  0  0
    9.5978  -19.2114   22.9542 C   0  0  1  0  0  0  0  0  0  0  0  0
   10.9357  -19.0311   22.2255 C   0  0  0  0  0  0  0  0  0  0  0  0
    9.0871  -17.8158   23.2445 C   0  0  2  0  0  0  0  0  0  0  0  0
    8.9496  -17.1395   21.9689 N   0  0  0  0  0  0  0  0  0  0  0  0
   10.0118  -17.0902   24.1553 C   0  0  0  0  0  0  0  0  0  0  0  0
   10.9597  -16.4125   23.6580 O   0  0  0  0  0  0  0  0  0  0  0  0
    8.9276  -12.2182   27.4855 C   0  0  0  0  0  0  0  0  0  0  0  0
    9.6193  -13.2410   28.8235 S   0  0  0  0  0  0  0  0  0  0  0  0
   10.6213  -14.5960   28.1294 C   0  0  0  0  0  0  0  0  0  0  0  0
    9.8806  -15.3679   27.0941 C   0  0  0  0  0  0  0  0  0  0  0  0
   10.6338  -16.4932   26.4724 C   0  0  2  0  0  0  0  0  0  0  0  0
    9.7794  -17.1977   25.5485 N   0  0  0  0  0  0  0  0  0  0  0  0
   11.2503  -17.4258   27.4165 C   0  0  0  0  0  0  0  0  0  0  0  0
   10.7710  -18.5336   27.7512 O   0  0  0  0  0  0  0  0  0  0  0  0
   12.4603  -17.0771   27.9986 O   0  0  0  0  0  0  0  0  0  0  0  0
  2  1  1  0
  3  5  1  0
  3  2  1  0
  3  4  1  6
  5  6  1  1
  7  5  1  0
  8  7  2  0
 10 11  1  6
 10  9  1  0
 12 10  1  0
 12 13  1  6
 13  7  1  0
 14 12  1  0
 15 14  2  0
 17 16  1  0
 17 18  1  0
 19 18  1  0
 20 19  1  1
 20 22  1  0
 20 21  1  0
 21 14  1  0
 22 24  1  0
 23 22  2  0
M  END
$$$$
