IVM.pdb
     RDKit          3D

 24 23  0  0  1  0  0  0  0  0999 V2000
    7.5191  -12.0336   19.5022 C   0  0  0  0  0  0  0  0  0  0  0  0
    8.0466  -13.4047   19.1609 C   0  0  0  0  0  0  0  0  0  0  0  0
    7.8662  -14.3491   20.3228 C   0  0  2  0  0  0  0  0  0  0  0  0
    8.6239  -13.7822   21.5230 C   0  0  0  0  0  0  0  0  0  0  0  0
    8.3725  -15.7270   20.0524 C   0  0  2  0  0  0  0  0  0  0  0  0
    7.6279  -16.4206   19.0288 N   0  0  0  0  0  0  0  0  0  0  0  0
    8.3373  -16.5133   21.2955 C   0  0  0  0  0  0  0  0  0  0  0  0
    7.6242  -17.5439   21.4078 O   0  0  0  0  0  0  0  0  0  0  0  0
   11.1528  -18.0841   22.5891 C   0  0  0  0  0  0  0  0  0  0  0  0
    9.7942  -18.3377   23.1729 C   0  0  1  0  0  0  0  0  0  0  0  0
    9.8876  -19.2181   24.4258 C   0  0  0  0  0  0  0  0  0  0  0  0
    9.1831  -17.0282   23.6254 C   0  0  2  0  0  0  0  0  0  0  0  0
    9.1013  -16.1714   22.4581 N   0  0  0  0  0  0  0  0  0  0  0  0
    9.9941  -16.4089   24.7070 C   0  0  0  0  0  0  0  0  0  0  0  0
   11.2049  -16.1153   24.4773 O   0  0  0  0  0  0  0  0  0  0  0  0
    6.1963  -11.9637   25.8896 C   0  0  0  0  0  0  0  0  0  0  0  0
    7.0809  -11.8316   27.4755 S   0  0  0  0  0  0  0  0  0  0  0  0
    8.6274  -12.7943   27.4182 C   0  0  0  0  0  0  0  0  0  0  0  0
    8.4386  -14.1210   26.7697 C   0  0  0  0  0  0  0  0  0  0  0  0
    9.6562  -14.9765   26.6935 C   0  0  2  0  0  0  0  0  0  0  0  0
    9.3601  -16.1778   25.9525 N   0  0  0  0  0  0  0  0  0  0  0  0
   10.2678  -15.3042   27.9818 C   0  0  0  0  0  0  0  0  0  0  0  0
   10.7922  -14.4759   28.7614 O   0  0  0  0  0  0  0  0  0  0  0  0
   10.2791  -16.6292   28.3924 O   0  0  0  0  0  0  0  0  0  0  0  0
  2  1  1  0
  3  5  1  0
  3  2  1  0
  3  4  1  1
  5  6  1  6
  7  5  1  0
  8  7  2  0
 10 11  1  1
 10  9  1  0
 12 10  1  0
 12 13  1  6
 13  7  1  0
 14 12  1  0
 15 14  2  0
 17 16  1  0
 17 18  1  0
 19 18  1  0
 20 19  1  1
 20 22  1  0
 20 21  1  0
 21 14  1  0
 22 24  1  0
 23 22  2  0
M  END
$$$$
