IVM.pdb
     RDKit          3D

 24 23  0  0  1  0  0  0  0  0999 V2000
    5.7792  -11.4506   27.0483 C   0  0  0  0  0  0  0  0  0  0  0  0
    5.2860  -12.7336   26.4275 C   0  0  0  0  0  0  0  0  0  0  0  0
    6.4399  -13.5449   25.8936 C   0  0  2  0  0  0  0  0  0  0  0  0
    7.2082  -12.6834   24.8919 C   0  0  0  0  0  0  0  0  0  0  0  0
    6.0158  -14.8014   25.2085 C   0  0  2  0  0  0  0  0  0  0  0  0
    5.3713  -15.7453   26.0900 N   0  0  0  0  0  0  0  0  0  0  0  0
    7.1875  -15.4388   24.5875 C   0  0  0  0  0  0  0  0  0  0  0  0
    7.9046  -16.2610   25.2145 O   0  0  0  0  0  0  0  0  0  0  0  0
    9.6572  -16.3210   20.3803 C   0  0  0  0  0  0  0  0  0  0  0  0
    8.7171  -15.4428   21.1524 C   0  0  1  0  0  0  0  0  0  0  0  0
    7.2761  -15.6013   20.6503 C   0  0  0  0  0  0  0  0  0  0  0  0
    8.7036  -15.8670   22.6059 C   0  0  2  0  0  0  0  0  0  0  0  0
    7.5972  -15.1765   23.2401 N   0  0  0  0  0  0  0  0  0  0  0  0
    9.9993  -15.5512   23.2637 C   0  0  0  0  0  0  0  0  0  0  0  0
   10.6145  -14.4934   22.9354 O   0  0  0  0  0  0  0  0  0  0  0  0
   11.2060  -13.5420   28.4917 C   0  0  0  0  0  0  0  0  0  0  0  0
   10.2374  -15.0830   28.4460 S   0  0  0  0  0  0  0  0  0  0  0  0
   10.9214  -16.2223   27.1986 C   0  0  0  0  0  0  0  0  0  0  0  0
   11.6291  -15.4991   26.1065 C   0  0  0  0  0  0  0  0  0  0  0  0
   11.7786  -16.2531   24.8301 C   0  0  2  0  0  0  0  0  0  0  0  0
   10.4817  -16.4625   24.2349 N   0  0  0  0  0  0  0  0  0  0  0  0
   12.5061  -17.5182   24.9365 C   0  0  0  0  0  0  0  0  0  0  0  0
   13.6848  -17.6390   25.3428 O   0  0  0  0  0  0  0  0  0  0  0  0
   11.8601  -18.6880   24.5641 O   0  0  0  0  0  0  0  0  0  0  0  0
  2  1  1  0
  3  5  1  0
  3  2  1  0
  3  4  1  6
  5  6  1  1
  7  5  1  0
  8  7  2  0
 10 11  1  6
 10  9  1  0
 12 10  1  0
 12 13  1  1
 13  7  1  0
 14 12  1  0
 15 14  2  0
 17 16  1  0
 17 18  1  0
 19 18  1  0
 20 19  1  1
 20 22  1  0
 20 21  1  0
 21 14  1  0
 22 24  1  0
 23 22  2  0
M  END
$$$$
