IVM.pdb
     RDKit          3D

 24 23  0  0  1  0  0  0  0  0999 V2000
    7.1005  -20.0482   24.0293 C   0  0  0  0  0  0  0  0  0  0  0  0
    7.3890  -19.4679   22.6674 C   0  0  0  0  0  0  0  0  0  0  0  0
    6.2585  -18.5765   22.2181 C   0  0  2  0  0  0  0  0  0  0  0  0
    4.9791  -19.4114   22.1733 C   0  0  0  0  0  0  0  0  0  0  0  0
    6.4770  -17.9742   20.8700 C   0  0  2  0  0  0  0  0  0  0  0  0
    6.7301  -18.9524   19.8393 N   0  0  0  0  0  0  0  0  0  0  0  0
    7.6054  -17.0320   20.9327 C   0  0  0  0  0  0  0  0  0  0  0  0
    8.7825  -17.3893   20.6682 O   0  0  0  0  0  0  0  0  0  0  0  0
    7.3864  -13.8073   19.2763 C   0  0  0  0  0  0  0  0  0  0  0  0
    8.0255  -13.4509   20.5862 C   0  0  1  0  0  0  0  0  0  0  0  0
    6.9991  -12.8508   21.5556 C   0  0  0  0  0  0  0  0  0  0  0  0
    8.5493  -14.7050   21.2538 C   0  0  2  0  0  0  0  0  0  0  0  0
    7.4536  -15.6542   21.2947 N   0  0  0  0  0  0  0  0  0  0  0  0
    9.0692  -14.4053   22.6143 C   0  0  0  0  0  0  0  0  0  0  0  0
    9.5884  -13.2717   22.8389 O   0  0  0  0  0  0  0  0  0  0  0  0
    7.1725  -10.7206   26.6554 C   0  0  0  0  0  0  0  0  0  0  0  0
    6.4253  -12.3673   26.8671 S   0  0  0  0  0  0  0  0  0  0  0  0
    7.6902  -13.6648   26.6716 C   0  0  0  0  0  0  0  0  0  0  0  0
    7.9314  -14.0022   25.2417 C   0  0  0  0  0  0  0  0  0  0  0  0
    8.9525  -15.0591   24.9957 C   0  0  2  0  0  0  0  0  0  0  0  0
    8.9539  -15.4173   23.5988 N   0  0  0  0  0  0  0  0  0  0  0  0
    8.8265  -16.2526   25.8328 C   0  0  0  0  0  0  0  0  0  0  0  0
    8.8672  -16.2617   27.0847 O   0  0  0  0  0  0  0  0  0  0  0  0
    8.6471  -17.4809   25.2135 O   0  0  0  0  0  0  0  0  0  0  0  0
  2  1  1  0
  3  5  1  0
  3  2  1  0
  3  4  1  6
  5  6  1  6
  7  5  1  0
  8  7  2  0
 10 11  1  1
 10  9  1  0
 12 10  1  0
 12 13  1  1
 13  7  1  0
 14 12  1  0
 15 14  2  0
 17 16  1  0
 17 18  1  0
 19 18  1  0
 20 19  1  6
 20 22  1  0
 20 21  1  0
 21 14  1  0
 22 24  1  0
 23 22  2  0
M  END
$$$$
