IVM.pdb
     RDKit          3D

 24 23  0  0  1  0  0  0  0  0999 V2000
    6.2774  -11.6669   27.1910 C   0  0  0  0  0  0  0  0  0  0  0  0
    5.6788  -12.9489   26.6686 C   0  0  0  0  0  0  0  0  0  0  0  0
    6.7257  -13.7791   25.9689 C   0  0  2  0  0  0  0  0  0  0  0  0
    7.3634  -12.9231   24.8750 C   0  0  0  0  0  0  0  0  0  0  0  0
    6.1792  -15.0180   25.3410 C   0  0  2  0  0  0  0  0  0  0  0  0
    5.6285  -15.9497   26.2960 N   0  0  0  0  0  0  0  0  0  0  0  0
    7.2405  -15.6839   24.5695 C   0  0  0  0  0  0  0  0  0  0  0  0
    7.6207  -16.8530   24.8377 O   0  0  0  0  0  0  0  0  0  0  0  0
    9.6729  -15.6998   20.2585 C   0  0  0  0  0  0  0  0  0  0  0  0
    8.7979  -14.9987   21.2556 C   0  0  1  0  0  0  0  0  0  0  0  0
    7.3503  -14.9126   20.7550 C   0  0  0  0  0  0  0  0  0  0  0  0
    8.7503  -15.7981   22.5406 C   0  0  2  0  0  0  0  0  0  0  0  0
    7.9139  -15.0617   23.4687 N   0  0  0  0  0  0  0  0  0  0  0  0
   10.1177  -16.0134   23.0836 C   0  0  0  0  0  0  0  0  0  0  0  0
   11.0254  -16.4450   22.3123 O   0  0  0  0  0  0  0  0  0  0  0  0
   10.4557  -13.1235   28.4200 C   0  0  0  0  0  0  0  0  0  0  0  0
   10.3456  -14.9224   28.6786 S   0  0  0  0  0  0  0  0  0  0  0  0
   10.1321  -15.7780   27.0836 C   0  0  0  0  0  0  0  0  0  0  0  0
   11.4283  -16.2453   26.5199 C   0  0  0  0  0  0  0  0  0  0  0  0
   11.6071  -16.0270   25.0568 C   0  0  2  0  0  0  0  0  0  0  0  0
   10.3342  -15.7201   24.4524 N   0  0  0  0  0  0  0  0  0  0  0  0
   12.2666  -17.1196   24.3409 C   0  0  0  0  0  0  0  0  0  0  0  0
   11.6771  -18.0699   23.7767 O   0  0  0  0  0  0  0  0  0  0  0  0
   13.6519  -17.1239   24.2682 O   0  0  0  0  0  0  0  0  0  0  0  0
  2  1  1  0
  3  5  1  0
  3  2  1  0
  3  4  1  6
  5  6  1  1
  7  5  1  0
  8  7  2  0
 10 11  1  6
 10  9  1  0
 12 10  1  0
 12 13  1  1
 13  7  1  0
 14 12  1  0
 15 14  2  0
 17 16  1  0
 17 18  1  0
 19 18  1  0
 20 19  1  1
 20 22  1  0
 20 21  1  0
 21 14  1  0
 22 24  1  0
 23 22  2  0
M  END
$$$$
