IVM.pdb
     RDKit          3D

 24 23  0  0  1  0  0  0  0  0999 V2000
    7.2744  -20.6832   27.5760 C   0  0  0  0  0  0  0  0  0  0  0  0
    6.4540  -20.5029   26.3233 C   0  0  0  0  0  0  0  0  0  0  0  0
    7.1275  -19.5379   25.3801 C   0  0  2  0  0  0  0  0  0  0  0  0
    7.3248  -18.2111   26.1126 C   0  0  0  0  0  0  0  0  0  0  0  0
    6.3442  -19.2788   24.1362 C   0  0  2  0  0  0  0  0  0  0  0  0
    5.9877  -20.4816   23.4224 N   0  0  0  0  0  0  0  0  0  0  0  0
    7.1168  -18.3973   23.2468 C   0  0  0  0  0  0  0  0  0  0  0  0
    7.9731  -18.8513   22.4444 O   0  0  0  0  0  0  0  0  0  0  0  0
    7.9296  -13.7672   21.6574 C   0  0  0  0  0  0  0  0  0  0  0  0
    7.0115  -14.8449   22.1542 C   0  0  1  0  0  0  0  0  0  0  0  0
    5.9872  -15.2352   21.0809 C   0  0  0  0  0  0  0  0  0  0  0  0
    7.8101  -16.0977   22.4468 C   0  0  2  0  0  0  0  0  0  0  0  0
    6.9563  -16.9739   23.2257 N   0  0  0  0  0  0  0  0  0  0  0  0
    9.0677  -15.7697   23.1693 C   0  0  0  0  0  0  0  0  0  0  0  0
    9.9767  -15.1287   22.5628 O   0  0  0  0  0  0  0  0  0  0  0  0
   10.7388  -12.8969   29.0049 C   0  0  0  0  0  0  0  0  0  0  0  0
    9.2356  -13.8502   28.6223 S   0  0  0  0  0  0  0  0  0  0  0  0
    9.6426  -15.2699   27.5544 C   0  0  0  0  0  0  0  0  0  0  0  0
   10.1686  -14.8423   26.2290 C   0  0  0  0  0  0  0  0  0  0  0  0
   10.3981  -15.9386   25.2462 C   0  0  2  0  0  0  0  0  0  0  0  0
    9.1824  -16.1975   24.5148 N   0  0  0  0  0  0  0  0  0  0  0  0
   10.9328  -17.1781   25.8108 C   0  0  0  0  0  0  0  0  0  0  0  0
   10.3059  -18.2591   25.8973 O   0  0  0  0  0  0  0  0  0  0  0  0
   12.2333  -17.1799   26.2937 O   0  0  0  0  0  0  0  0  0  0  0  0
  2  1  1  0
  3  5  1  0
  3  2  1  0
  3  4  1  1
  5  6  1  6
  7  5  1  0
  8  7  2  0
 10 11  1  6
 10  9  1  0
 12 10  1  0
 12 13  1  1
 13  7  1  0
 14 12  1  0
 15 14  2  0
 17 16  1  0
 17 18  1  0
 19 18  1  0
 20 19  1  1
 20 22  1  0
 20 21  1  0
 21 14  1  0
 22 24  1  0
 23 22  2  0
M  END
$$$$
