IVM.pdb
     RDKit          3D

 24 23  0  0  1  0  0  0  0  0999 V2000
    6.2877  -21.7660   24.9033 C   0  0  0  0  0  0  0  0  0  0  0  0
    5.8475  -20.9262   23.7304 C   0  0  0  0  0  0  0  0  0  0  0  0
    6.8425  -19.8255   23.4603 C   0  0  2  0  0  0  0  0  0  0  0  0
    7.0389  -19.0302   24.7505 C   0  0  0  0  0  0  0  0  0  0  0  0
    6.4094  -18.8838   22.3862 C   0  0  2  0  0  0  0  0  0  0  0  0
    6.0136  -19.5477   21.1672 N   0  0  0  0  0  0  0  0  0  0  0  0
    7.5006  -17.9412   22.0934 C   0  0  0  0  0  0  0  0  0  0  0  0
    8.6102  -18.3304   21.6455 O   0  0  0  0  0  0  0  0  0  0  0  0
    7.2712  -15.0322   19.9553 C   0  0  0  0  0  0  0  0  0  0  0  0
    7.9043  -14.4748   21.1961 C   0  0  1  0  0  0  0  0  0  0  0  0
    6.8631  -13.7785   22.0818 C   0  0  0  0  0  0  0  0  0  0  0  0
    8.4736  -15.6050   22.0277 C   0  0  2  0  0  0  0  0  0  0  0  0
    7.3861  -16.5272   22.2929 N   0  0  0  0  0  0  0  0  0  0  0  0
    9.0761  -15.0883   23.2851 C   0  0  0  0  0  0  0  0  0  0  0  0
    9.5246  -13.9037   23.3113 O   0  0  0  0  0  0  0  0  0  0  0  0
    6.8811  -11.2421   26.3559 C   0  0  0  0  0  0  0  0  0  0  0  0
    6.3466  -12.7208   27.2739 S   0  0  0  0  0  0  0  0  0  0  0  0
    7.6551  -13.9892   27.2457 C   0  0  0  0  0  0  0  0  0  0  0  0
    7.9144  -14.4971   25.8705 C   0  0  0  0  0  0  0  0  0  0  0  0
    9.0793  -15.4163   25.7355 C   0  0  2  0  0  0  0  0  0  0  0  0
    9.1164  -15.9605   24.4005 N   0  0  0  0  0  0  0  0  0  0  0  0
    9.1446  -16.4877   26.7299 C   0  0  0  0  0  0  0  0  0  0  0  0
    8.8742  -17.6910   26.5107 O   0  0  0  0  0  0  0  0  0  0  0  0
    9.5340  -16.1696   28.0228 O   0  0  0  0  0  0  0  0  0  0  0  0
  2  1  1  0
  3  5  1  0
  3  2  1  0
  3  4  1  1
  5  6  1  6
  7  5  1  0
  8  7  2  0
 10 11  1  1
 10  9  1  0
 12 10  1  0
 12 13  1  1
 13  7  1  0
 14 12  1  0
 15 14  2  0
 17 16  1  0
 17 18  1  0
 19 18  1  0
 20 19  1  6
 20 22  1  0
 20 21  1  0
 21 14  1  0
 22 24  1  0
 23 22  2  0
M  END
$$$$
