EDT.pdb
     RDKit          3D

 25 24  0  0  1  0  0  0  0  0999 V2000
   21.1997  -11.3621  -15.7994 N   0  0  0  0  0  0  0  0  0  0  0  0
   20.2554  -10.3963  -16.2163 C   0  0  1  0  0  0  0  0  0  0  0  0
   18.8481  -10.8206  -16.4114 C   0  0  0  0  0  0  0  0  0  0  0  0
   18.5747  -11.8784  -17.4067 C   0  0  0  0  0  0  0  0  0  0  0  0
   17.1980  -12.3283  -17.4712 C   0  0  0  0  0  0  0  0  0  0  0  0
   16.4790  -12.2679  -18.4803 O   0  0  0  0  0  0  0  0  0  0  0  0
   20.3289   -9.1888  -15.3030 C   0  0  0  0  0  0  0  0  0  0  0  0
   20.1173   -9.3228  -14.0655 O   0  0  0  0  0  0  0  0  0  0  0  0
   16.6032  -12.8806  -16.3189 O   0  0  0  0  0  0  0  0  0  0  0  0
   20.6290   -7.8913  -15.7750 N   0  0  0  0  0  0  0  0  0  0  0  0
   20.6900   -6.7451  -14.8822 C   0  0  1  0  0  0  0  0  0  0  0  0
   22.1400   -6.3632  -14.7053 C   0  0  0  0  0  0  0  0  0  0  0  0
   22.3329   -5.1530  -13.8855 C   0  0  0  0  0  0  0  0  0  0  0  0
   21.8078   -5.0264  -12.7571 O   0  0  0  0  0  0  0  0  0  0  0  0
   20.0236   -5.5952  -15.5540 C   0  0  0  0  0  0  0  0  0  0  0  0
   20.4248   -5.1911  -16.6745 O   0  0  0  0  0  0  0  0  0  0  0  0
   23.1391   -4.1409  -14.4329 O   0  0  0  0  0  0  0  0  0  0  0  0
   16.0042   -4.4207  -14.7067 C   0  0  0  0  0  0  0  0  0  0  0  0
   16.7885   -4.2102  -15.9704 C   0  0  1  0  0  0  0  0  0  0  0  0
   16.2254   -3.0922  -16.6243 O   0  0  0  0  0  0  0  0  0  0  0  0
   18.2326   -3.8552  -15.7055 C   0  0  2  0  0  0  0  0  0  0  0  0
   18.9215   -4.9044  -14.9803 N   0  0  0  0  0  0  0  0  0  0  0  0
   18.3868   -2.5759  -15.0106 C   0  0  0  0  0  0  0  0  0  0  0  0
   18.0002   -1.5185  -15.5670 O   0  0  0  0  0  0  0  0  0  0  0  0
   18.9457   -2.4710  -13.7519 O   0  0  0  0  0  0  0  0  0  0  0  0
  2  1  1  1
  3  4  1  0
  3  2  1  0
  5  4  1  0
  5  6  2  0
  7  2  1  0
  7  8  2  0
  9  5  1  0
 10  7  1  0
 11 10  1  0
 11 15  1  0
 11 12  1  6
 13 17  1  0
 13 12  1  0
 14 13  2  0
 15 22  1  0
 16 15  2  0
 19 18  1  1
 19 20  1  0
 19 21  1  0
 21 23  1  0
 21 22  1  1
 23 24  2  0
 23 25  1  0
M  END
$$$$
