EDT.pdb
     RDKit          3D

 25 24  0  0  1  0  0  0  0  0999 V2000
   18.0797  -12.7519  -17.2209 N   0  0  0  0  0  0  0  0  0  0  0  0
   17.9121  -11.4724  -17.7981 C   0  0  1  0  0  0  0  0  0  0  0  0
   16.7152  -11.2262  -18.6379 C   0  0  0  0  0  0  0  0  0  0  0  0
   15.3858  -11.3562  -18.0054 C   0  0  0  0  0  0  0  0  0  0  0  0
   14.4550  -10.2821  -18.2917 C   0  0  0  0  0  0  0  0  0  0  0  0
   13.5855   -9.8701  -17.5087 O   0  0  0  0  0  0  0  0  0  0  0  0
   18.0398  -10.4112  -16.7234 C   0  0  0  0  0  0  0  0  0  0  0  0
   17.3988  -10.5312  -15.6422 O   0  0  0  0  0  0  0  0  0  0  0  0
   14.5170   -9.6376  -19.5437 O   0  0  0  0  0  0  0  0  0  0  0  0
   18.8576   -9.2685  -16.8715 N   0  0  0  0  0  0  0  0  0  0  0  0
   18.9484   -8.2507  -15.8369 C   0  0  1  0  0  0  0  0  0  0  0  0
   20.3855   -8.1706  -15.3807 C   0  0  0  0  0  0  0  0  0  0  0  0
   20.6170   -7.1461  -14.3459 C   0  0  0  0  0  0  0  0  0  0  0  0
   19.6945   -6.4191  -13.9151 O   0  0  0  0  0  0  0  0  0  0  0  0
   18.6198   -6.9335  -16.4491 C   0  0  0  0  0  0  0  0  0  0  0  0
   19.0676   -6.6275  -17.5829 O   0  0  0  0  0  0  0  0  0  0  0  0
   21.9301   -7.0223  -13.8620 O   0  0  0  0  0  0  0  0  0  0  0  0
   16.0165   -2.7002  -16.5034 C   0  0  0  0  0  0  0  0  0  0  0  0
   16.3217   -4.0136  -15.8412 C   0  0  1  0  0  0  0  0  0  0  0  0
   15.2583   -4.8895  -16.1522 O   0  0  0  0  0  0  0  0  0  0  0  0
   17.5710   -4.6632  -16.3877 C   0  0  2  0  0  0  0  0  0  0  0  0
   17.8003   -5.9690  -15.8017 N   0  0  0  0  0  0  0  0  0  0  0  0
   18.7620   -3.8255  -16.2362 C   0  0  0  0  0  0  0  0  0  0  0  0
   19.4389   -3.8967  -15.1807 O   0  0  0  0  0  0  0  0  0  0  0  0
   19.1866   -2.9453  -17.2122 O   0  0  0  0  0  0  0  0  0  0  0  0
  2  1  1  1
  3  4  1  0
  3  2  1  0
  5  4  1  0
  5  6  2  0
  7  2  1  0
  7  8  2  0
  9  5  1  0
 10  7  1  0
 11 10  1  0
 11 15  1  0
 11 12  1  6
 13 17  1  0
 13 12  1  0
 14 13  2  0
 15 22  1  0
 16 15  2  0
 19 18  1  6
 19 20  1  0
 19 21  1  0
 21 23  1  0
 21 22  1  1
 23 24  2  0
 23 25  1  0
M  END
$$$$
