EDT.pdb
     RDKit          3D

 25 24  0  0  1  0  0  0  0  0999 V2000
   18.1753  -10.7671  -17.3959 N   0  0  0  0  0  0  0  0  0  0  0  0
   17.3829  -10.3947  -16.2860 C   0  0  1  0  0  0  0  0  0  0  0  0
   17.0081  -11.4386  -15.3020 C   0  0  0  0  0  0  0  0  0  0  0  0
   16.3994  -12.6852  -15.8116 C   0  0  0  0  0  0  0  0  0  0  0  0
   16.1598  -13.7108  -14.8153 C   0  0  0  0  0  0  0  0  0  0  0  0
   15.6132  -14.8018  -15.0384 O   0  0  0  0  0  0  0  0  0  0  0  0
   18.0129   -9.2045  -15.5904 C   0  0  0  0  0  0  0  0  0  0  0  0
   17.5674   -8.8212  -14.4730 O   0  0  0  0  0  0  0  0  0  0  0  0
   16.5665  -13.4820  -13.4854 O   0  0  0  0  0  0  0  0  0  0  0  0
   19.0978   -8.4850  -16.1397 N   0  0  0  0  0  0  0  0  0  0  0  0
   19.7129   -7.3698  -15.4378 C   0  0  1  0  0  0  0  0  0  0  0  0
   21.2116   -7.5048  -15.5620 C   0  0  0  0  0  0  0  0  0  0  0  0
   21.7685   -8.6186  -14.7726 C   0  0  0  0  0  0  0  0  0  0  0  0
   21.6734   -8.6596  -13.5259 O   0  0  0  0  0  0  0  0  0  0  0  0
   19.3368   -6.1122  -16.1411 C   0  0  0  0  0  0  0  0  0  0  0  0
   19.7159   -5.9032  -17.3210 O   0  0  0  0  0  0  0  0  0  0  0  0
   22.4158   -9.6392  -15.4890 O   0  0  0  0  0  0  0  0  0  0  0  0
   15.9061   -4.9903  -16.9339 C   0  0  0  0  0  0  0  0  0  0  0  0
   16.5860   -3.8256  -16.2724 C   0  0  1  0  0  0  0  0  0  0  0  0
   16.2053   -3.8436  -14.9124 O   0  0  0  0  0  0  0  0  0  0  0  0
   18.0914   -3.9474  -16.2861 C   0  0  2  0  0  0  0  0  0  0  0  0
   18.5461   -5.0994  -15.5328 N   0  0  0  0  0  0  0  0  0  0  0  0
   18.7656   -2.7369  -15.8135 C   0  0  0  0  0  0  0  0  0  0  0  0
   19.4177   -2.7700  -14.7407 O   0  0  0  0  0  0  0  0  0  0  0  0
   18.7201   -1.5391  -16.4997 O   0  0  0  0  0  0  0  0  0  0  0  0
  2  1  1  6
  3  4  1  0
  3  2  1  0
  5  4  1  0
  5  6  2  0
  7  2  1  0
  7  8  2  0
  9  5  1  0
 10  7  1  0
 11 10  1  0
 11 15  1  0
 11 12  1  6
 13 17  1  0
 13 12  1  0
 14 13  2  0
 15 22  1  0
 16 15  2  0
 19 18  1  6
 19 20  1  0
 19 21  1  0
 21 23  1  0
 21 22  1  1
 23 24  2  0
 23 25  1  0
M  END
$$$$
