EDT.pdb
     RDKit          3D

 25 24  0  0  1  0  0  0  0  0999 V2000
   13.0577  -11.6131  -15.3323 N   0  0  0  0  0  0  0  0  0  0  0  0
   14.2610  -11.3820  -14.6275 C   0  0  1  0  0  0  0  0  0  0  0  0
   15.1348  -12.5399  -14.3204 C   0  0  0  0  0  0  0  0  0  0  0  0
   14.6977  -13.8774  -14.7724 C   0  0  0  0  0  0  0  0  0  0  0  0
   15.6136  -14.9618  -14.4773 C   0  0  0  0  0  0  0  0  0  0  0  0
   15.4233  -16.1511  -14.7742 O   0  0  0  0  0  0  0  0  0  0  0  0
   15.0482  -10.2844  -15.3152 C   0  0  0  0  0  0  0  0  0  0  0  0
   14.8125  -10.0045  -16.5236 O   0  0  0  0  0  0  0  0  0  0  0  0
   16.8187  -14.6765  -13.8042 O   0  0  0  0  0  0  0  0  0  0  0  0
   16.0551   -9.5409  -14.6596 N   0  0  0  0  0  0  0  0  0  0  0  0
   16.7994   -8.4922  -15.3385 C   0  0  1  0  0  0  0  0  0  0  0  0
   16.2839   -7.1591  -14.8518 C   0  0  0  0  0  0  0  0  0  0  0  0
   17.0091   -6.0068  -15.4178 C   0  0  0  0  0  0  0  0  0  0  0  0
   17.6498   -6.0884  -16.4892 O   0  0  0  0  0  0  0  0  0  0  0  0
   18.2236   -8.5815  -14.9127 C   0  0  0  0  0  0  0  0  0  0  0  0
   18.5191   -8.7263  -13.6997 O   0  0  0  0  0  0  0  0  0  0  0  0
   16.9478   -4.8042  -14.6941 O   0  0  0  0  0  0  0  0  0  0  0  0
   23.0436   -9.1102  -16.0130 C   0  0  0  0  0  0  0  0  0  0  0  0
   21.6186   -9.0058  -16.4767 C   0  0  1  0  0  0  0  0  0  0  0  0
   21.2063  -10.3069  -16.8396 O   0  0  0  0  0  0  0  0  0  0  0  0
   20.6815   -8.5620  -15.3785 C   0  0  2  0  0  0  0  0  0  0  0  0
   19.3057   -8.5097  -15.8320 N   0  0  0  0  0  0  0  0  0  0  0  0
   21.0662   -7.2806  -14.7840 C   0  0  0  0  0  0  0  0  0  0  0  0
   21.5915   -7.2600  -13.6434 O   0  0  0  0  0  0  0  0  0  0  0  0
   20.8775   -6.0719  -15.4251 O   0  0  0  0  0  0  0  0  0  0  0  0
  2  1  1  6
  3  4  1  0
  3  2  1  0
  5  4  1  0
  5  6  2  0
  7  2  1  0
  7  8  2  0
  9  5  1  0
 10  7  1  0
 11 10  1  0
 11 15  1  0
 11 12  1  1
 13 17  1  0
 13 12  1  0
 14 13  2  0
 15 22  1  0
 16 15  2  0
 19 18  1  1
 19 20  1  0
 19 21  1  0
 21 23  1  0
 21 22  1  6
 23 24  2  0
 23 25  1  0
M  END
$$$$
