EDT.pdb
     RDKit          3D

 25 24  0  0  1  0  0  0  0  0999 V2000
   15.7874  -12.6165  -16.0899 N   0  0  0  0  0  0  0  0  0  0  0  0
   17.0714  -13.2073  -16.0640 C   0  0  1  0  0  0  0  0  0  0  0  0
   17.2396  -14.5605  -16.6462 C   0  0  0  0  0  0  0  0  0  0  0  0
   16.1485  -15.5386  -16.4537 C   0  0  0  0  0  0  0  0  0  0  0  0
   16.2901  -16.7788  -17.1911 C   0  0  0  0  0  0  0  0  0  0  0  0
   15.8295  -16.9864  -18.3241 O   0  0  0  0  0  0  0  0  0  0  0  0
   18.0846  -12.2432  -16.6482 C   0  0  0  0  0  0  0  0  0  0  0  0
   19.1604  -12.6839  -17.1406 O   0  0  0  0  0  0  0  0  0  0  0  0
   16.9985  -17.8471  -16.6050 O   0  0  0  0  0  0  0  0  0  0  0  0
   17.8833  -10.8448  -16.6712 N   0  0  0  0  0  0  0  0  0  0  0  0
   18.8832   -9.9345  -17.2061 C   0  0  1  0  0  0  0  0  0  0  0  0
   18.1980   -8.6346  -17.5535 C   0  0  0  0  0  0  0  0  0  0  0  0
   17.3392   -8.7244  -18.7486 C   0  0  0  0  0  0  0  0  0  0  0  0
   17.8085   -8.9483  -19.8865 O   0  0  0  0  0  0  0  0  0  0  0  0
   19.8599   -9.6277  -16.1247 C   0  0  0  0  0  0  0  0  0  0  0  0
   19.4812   -9.5377  -14.9296 O   0  0  0  0  0  0  0  0  0  0  0  0
   15.9599   -8.5457  -18.5504 O   0  0  0  0  0  0  0  0  0  0  0  0
   24.4004   -9.6641  -14.2911 C   0  0  0  0  0  0  0  0  0  0  0  0
   23.4531   -9.9121  -15.4303 C   0  0  1  0  0  0  0  0  0  0  0  0
   23.0880  -11.2752  -15.3742 O   0  0  0  0  0  0  0  0  0  0  0  0
   22.1679   -9.1298  -15.2977 C   0  0  2  0  0  0  0  0  0  0  0  0
   21.2443   -9.4235  -16.3757 N   0  0  0  0  0  0  0  0  0  0  0  0
   22.3870   -7.6857  -15.1999 C   0  0  0  0  0  0  0  0  0  0  0  0
   22.4043   -6.9898  -16.2452 O   0  0  0  0  0  0  0  0  0  0  0  0
   22.5792   -7.0382  -13.9951 O   0  0  0  0  0  0  0  0  0  0  0  0
  2  1  1  6
  3  4  1  0
  3  2  1  0
  5  4  1  0
  5  6  2  0
  7  2  1  0
  7  8  2  0
  9  5  1  0
 10  7  1  0
 11 10  1  0
 11 15  1  0
 11 12  1  1
 13 17  1  0
 13 12  1  0
 14 13  2  0
 15 22  1  0
 16 15  2  0
 19 18  1  1
 19 20  1  0
 19 21  1  0
 21 23  1  0
 21 22  1  6
 23 24  2  0
 23 25  1  0
M  END
$$$$
