EDT.pdb
     RDKit          3D

 25 24  0  0  1  0  0  0  0  0999 V2000
   22.4274  -12.5716  -18.5483 N   0  0  0  0  0  0  0  0  0  0  0  0
   22.9691  -11.2724  -18.4186 C   0  0  1  0  0  0  0  0  0  0  0  0
   23.5975  -10.6458  -19.6064 C   0  0  0  0  0  0  0  0  0  0  0  0
   23.6566  -11.4331  -20.8558 C   0  0  0  0  0  0  0  0  0  0  0  0
   24.3703  -10.8059  -21.9509 C   0  0  0  0  0  0  0  0  0  0  0  0
   23.8341  -10.2925  -22.9448 O   0  0  0  0  0  0  0  0  0  0  0  0
   21.9313  -10.3491  -17.8121 C   0  0  0  0  0  0  0  0  0  0  0  0
   20.8042  -10.2201  -18.3663 O   0  0  0  0  0  0  0  0  0  0  0  0
   25.7785  -10.7593  -21.9133 O   0  0  0  0  0  0  0  0  0  0  0  0
   22.1645   -9.6084  -16.6316 N   0  0  0  0  0  0  0  0  0  0  0  0
   21.1225   -8.8062  -16.0108 C   0  0  1  0  0  0  0  0  0  0  0  0
   20.8107   -9.4041  -14.6598 C   0  0  0  0  0  0  0  0  0  0  0  0
   19.7242   -8.7083  -13.9462 C   0  0  0  0  0  0  0  0  0  0  0  0
   18.7478   -8.2103  -14.5493 O   0  0  0  0  0  0  0  0  0  0  0  0
   21.6703   -7.4444  -15.7598 C   0  0  0  0  0  0  0  0  0  0  0  0
   22.8900   -7.2849  -15.5018 O   0  0  0  0  0  0  0  0  0  0  0  0
   19.8357   -8.6292  -12.5479 O   0  0  0  0  0  0  0  0  0  0  0  0
   21.1027   -2.4920  -15.8436 C   0  0  0  0  0  0  0  0  0  0  0  0
   20.4968   -3.8580  -15.9968 C   0  0  1  0  0  0  0  0  0  0  0  0
   20.2667   -4.0550  -17.3762 O   0  0  0  0  0  0  0  0  0  0  0  0
   21.4353   -4.9612  -15.5684 C   0  0  2  0  0  0  0  0  0  0  0  0
   20.8644   -6.2738  -15.7966 N   0  0  0  0  0  0  0  0  0  0  0  0
   21.8669   -4.8335  -14.1753 C   0  0  0  0  0  0  0  0  0  0  0  0
   21.1768   -5.3522  -13.2632 O   0  0  0  0  0  0  0  0  0  0  0  0
   23.0148   -4.1596  -13.8066 O   0  0  0  0  0  0  0  0  0  0  0  0
  2  1  1  6
  3  4  1  0
  3  2  1  0
  5  4  1  0
  5  6  2  0
  7  2  1  0
  7  8  2  0
  9  5  1  0
 10  7  1  0
 11 10  1  0
 11 15  1  0
 11 12  1  1
 13 17  1  0
 13 12  1  0
 14 13  2  0
 15 22  1  0
 16 15  2  0
 19 18  1  6
 19 20  1  0
 19 21  1  0
 21 23  1  0
 21 22  1  1
 23 24  2  0
 23 25  1  0
M  END
$$$$
