EDT.pdb
     RDKit          3D

 25 24  0  0  1  0  0  0  0  0999 V2000
   17.6093  -11.4918  -15.6887 N   0  0  0  0  0  0  0  0  0  0  0  0
   18.0926  -10.2942  -16.2635 C   0  0  1  0  0  0  0  0  0  0  0  0
   17.1240   -9.2128  -16.5650 C   0  0  0  0  0  0  0  0  0  0  0  0
   15.9783   -9.5329  -17.4420 C   0  0  0  0  0  0  0  0  0  0  0  0
   15.1279   -8.4103  -17.7860 C   0  0  0  0  0  0  0  0  0  0  0  0
   13.8877   -8.4267  -17.7612 O   0  0  0  0  0  0  0  0  0  0  0  0
   19.2463   -9.7644  -15.4355 C   0  0  0  0  0  0  0  0  0  0  0  0
   19.2070   -9.8485  -14.1763 O   0  0  0  0  0  0  0  0  0  0  0  0
   15.7236   -7.1957  -18.1816 O   0  0  0  0  0  0  0  0  0  0  0  0
   20.3898   -9.1676  -16.0123 N   0  0  0  0  0  0  0  0  0  0  0  0
   21.4904   -8.6746  -15.1998 C   0  0  1  0  0  0  0  0  0  0  0  0
   22.7615   -9.3329  -15.6802 C   0  0  0  0  0  0  0  0  0  0  0  0
   22.9304  -10.7127  -15.1886 C   0  0  0  0  0  0  0  0  0  0  0  0
   22.5216  -11.0691  -14.0613 O   0  0  0  0  0  0  0  0  0  0  0  0
   21.6411   -7.2153  -15.4558 C   0  0  0  0  0  0  0  0  0  0  0  0
   22.1943   -6.8059  -16.5075 O   0  0  0  0  0  0  0  0  0  0  0  0
   23.5759  -11.6157  -16.0498 O   0  0  0  0  0  0  0  0  0  0  0  0
   18.9594   -4.6913  -15.8133 C   0  0  0  0  0  0  0  0  0  0  0  0
   19.9276   -4.1327  -14.8098 C   0  0  1  0  0  0  0  0  0  0  0  0
   19.4000   -4.4093  -13.5292 O   0  0  0  0  0  0  0  0  0  0  0  0
   21.2752   -4.8129  -14.8618 C   0  0  2  0  0  0  0  0  0  0  0  0
   21.1792   -6.2246  -14.5469 N   0  0  0  0  0  0  0  0  0  0  0  0
   22.2715   -4.1705  -14.0027 C   0  0  0  0  0  0  0  0  0  0  0  0
   22.6289   -2.9910  -14.2440 O   0  0  0  0  0  0  0  0  0  0  0  0
   22.8485   -4.8070  -12.9212 O   0  0  0  0  0  0  0  0  0  0  0  0
  2  1  1  1
  3  4  1  0
  3  2  1  0
  5  4  1  0
  5  6  2  0
  7  2  1  0
  7  8  2  0
  9  5  1  0
 10  7  1  0
 11 10  1  0
 11 15  1  0
 11 12  1  6
 13 17  1  0
 13 12  1  0
 14 13  2  0
 15 22  1  0
 16 15  2  0
 19 18  1  6
 19 20  1  0
 19 21  1  0
 21 23  1  0
 21 22  1  1
 23 24  2  0
 23 25  1  0
M  END
$$$$
