EDT.pdb
     RDKit          3D

 25 24  0  0  1  0  0  0  0  0999 V2000
   14.5368  -12.2048  -14.2675 N   0  0  0  0  0  0  0  0  0  0  0  0
   14.8552  -12.4918  -12.9204 C   0  0  1  0  0  0  0  0  0  0  0  0
   15.4185  -13.8242  -12.5949 C   0  0  0  0  0  0  0  0  0  0  0  0
   14.7556  -15.0154  -13.1657 C   0  0  0  0  0  0  0  0  0  0  0  0
   15.3947  -16.2826  -12.8694 C   0  0  0  0  0  0  0  0  0  0  0  0
   14.9058  -17.3967  -13.1113 O   0  0  0  0  0  0  0  0  0  0  0  0
   15.7313  -11.3888  -12.3608 C   0  0  0  0  0  0  0  0  0  0  0  0
   16.1192  -11.4421  -11.1605 O   0  0  0  0  0  0  0  0  0  0  0  0
   16.6664  -16.2827  -12.2618 O   0  0  0  0  0  0  0  0  0  0  0  0
   16.1462  -10.2785  -13.1299 N   0  0  0  0  0  0  0  0  0  0  0  0
   17.0325   -9.2596  -12.5905 C   0  0  1  0  0  0  0  0  0  0  0  0
   17.7599   -8.6106  -13.7434 C   0  0  0  0  0  0  0  0  0  0  0  0
   18.7051   -7.5594  -13.3245 C   0  0  0  0  0  0  0  0  0  0  0  0
   19.1253   -6.6905  -14.1205 O   0  0  0  0  0  0  0  0  0  0  0  0
   16.1961   -8.2002  -11.9614 C   0  0  0  0  0  0  0  0  0  0  0  0
   15.3395   -7.5777  -12.6384 O   0  0  0  0  0  0  0  0  0  0  0  0
   19.1157   -7.5776  -11.9810 O   0  0  0  0  0  0  0  0  0  0  0  0
   14.0147   -8.2596   -8.6775 C   0  0  0  0  0  0  0  0  0  0  0  0
   15.0004   -7.1265   -8.6489 C   0  0  1  0  0  0  0  0  0  0  0  0
   16.1206   -7.5725   -7.9134 O   0  0  0  0  0  0  0  0  0  0  0  0
   15.5177   -6.7717  -10.0230 C   0  0  2  0  0  0  0  0  0  0  0  0
   16.3155   -7.8402  -10.5913 N   0  0  0  0  0  0  0  0  0  0  0  0
   16.2690   -5.5154  -10.0424 C   0  0  0  0  0  0  0  0  0  0  0  0
   15.6822   -4.4387   -9.7708 O   0  0  0  0  0  0  0  0  0  0  0  0
   17.6141   -5.4529  -10.3496 O   0  0  0  0  0  0  0  0  0  0  0  0
  2  1  1  6
  3  4  1  0
  3  2  1  0
  5  4  1  0
  5  6  2  0
  7  2  1  0
  7  8  2  0
  9  5  1  0
 10  7  1  0
 11 10  1  0
 11 15  1  0
 11 12  1  6
 13 17  1  0
 13 12  1  0
 14 13  2  0
 15 22  1  0
 16 15  2  0
 19 18  1  6
 19 20  1  0
 19 21  1  0
 21 23  1  0
 21 22  1  1
 23 24  2  0
 23 25  1  0
M  END
$$$$
