EDT.pdb
     RDKit          3D

 25 24  0  0  1  0  0  0  0  0999 V2000
   18.1567  -12.5013  -16.6042 N   0  0  0  0  0  0  0  0  0  0  0  0
   19.1300  -11.7416  -15.9158 C   0  0  1  0  0  0  0  0  0  0  0  0
   20.5402  -12.1981  -15.9527 C   0  0  0  0  0  0  0  0  0  0  0  0
   21.3052  -11.9862  -17.1993 C   0  0  0  0  0  0  0  0  0  0  0  0
   22.6171  -12.6024  -17.2343 C   0  0  0  0  0  0  0  0  0  0  0  0
   23.5537  -12.3193  -16.4718 O   0  0  0  0  0  0  0  0  0  0  0  0
   19.0265  -10.2882  -16.3332 C   0  0  0  0  0  0  0  0  0  0  0  0
   18.8247   -9.9949  -17.5446 O   0  0  0  0  0  0  0  0  0  0  0  0
   22.8796  -13.6007  -18.1939 O   0  0  0  0  0  0  0  0  0  0  0  0
   19.1466   -9.2197  -15.4165 N   0  0  0  0  0  0  0  0  0  0  0  0
   19.0304   -7.8322  -15.8359 C   0  0  1  0  0  0  0  0  0  0  0  0
   17.8273   -7.2321  -15.1486 C   0  0  0  0  0  0  0  0  0  0  0  0
   17.5781   -5.8275  -15.5210 C   0  0  0  0  0  0  0  0  0  0  0  0
   17.9577   -5.3547  -16.6152 O   0  0  0  0  0  0  0  0  0  0  0  0
   20.2222   -7.0929  -15.3352 C   0  0  0  0  0  0  0  0  0  0  0  0
   20.7916   -7.4459  -14.2717 O   0  0  0  0  0  0  0  0  0  0  0  0
   16.8899   -5.0381  -14.5844 O   0  0  0  0  0  0  0  0  0  0  0  0
   23.9265   -3.8773  -16.1813 C   0  0  0  0  0  0  0  0  0  0  0  0
   22.6638   -4.5456  -16.6454 C   0  0  1  0  0  0  0  0  0  0  0  0
   23.0337   -5.4894  -17.6288 O   0  0  0  0  0  0  0  0  0  0  0  0
   21.9849   -5.3305  -15.5480 C   0  0  2  0  0  0  0  0  0  0  0  0
   20.7716   -5.9716  -16.0149 N   0  0  0  0  0  0  0  0  0  0  0  0
   21.7042   -4.5230  -14.3596 C   0  0  0  0  0  0  0  0  0  0  0  0
   20.7162   -3.7476  -14.3571 O   0  0  0  0  0  0  0  0  0  0  0  0
   22.4844   -4.5714  -13.2209 O   0  0  0  0  0  0  0  0  0  0  0  0
  2  1  1  6
  3  4  1  0
  3  2  1  0
  5  4  1  0
  5  6  2  0
  7  2  1  0
  7  8  2  0
  9  5  1  0
 10  7  1  0
 11 10  1  0
 11 15  1  0
 11 12  1  1
 13 17  1  0
 13 12  1  0
 14 13  2  0
 15 22  1  0
 16 15  2  0
 19 18  1  1
 19 20  1  0
 19 21  1  0
 21 23  1  0
 21 22  1  6
 23 24  2  0
 23 25  1  0
M  END
$$$$
