EDT.pdb
     RDKit          3D

 25 24  0  0  1  0  0  0  0  0999 V2000
   17.3570  -11.8233  -18.8291 N   0  0  0  0  0  0  0  0  0  0  0  0
   16.8694  -10.9023  -17.8739 C   0  0  1  0  0  0  0  0  0  0  0  0
   16.6337  -11.3771  -16.4892 C   0  0  0  0  0  0  0  0  0  0  0  0
   15.7895  -12.5756  -16.3014 C   0  0  0  0  0  0  0  0  0  0  0  0
   15.7041  -13.0670  -14.9401 C   0  0  0  0  0  0  0  0  0  0  0  0
   16.1764  -12.4915  -13.9478 O   0  0  0  0  0  0  0  0  0  0  0  0
   17.7418   -9.6629  -17.8739 C   0  0  0  0  0  0  0  0  0  0  0  0
   18.7794   -9.6246  -18.5922 O   0  0  0  0  0  0  0  0  0  0  0  0
   15.0413  -14.2859  -14.6922 O   0  0  0  0  0  0  0  0  0  0  0  0
   17.4476   -8.5218  -17.0944 N   0  0  0  0  0  0  0  0  0  0  0  0
   18.3252   -7.3625  -17.0695 C   0  0  1  0  0  0  0  0  0  0  0  0
   17.4690   -6.1273  -16.9256 C   0  0  0  0  0  0  0  0  0  0  0  0
   18.2467   -4.8754  -16.8814 C   0  0  0  0  0  0  0  0  0  0  0  0
   19.4958   -4.8686  -16.9490 O   0  0  0  0  0  0  0  0  0  0  0  0
   19.1690   -7.4432  -15.8451 C   0  0  0  0  0  0  0  0  0  0  0  0
   18.6442   -7.6429  -14.7206 O   0  0  0  0  0  0  0  0  0  0  0  0
   17.5161   -3.6816  -16.7587 O   0  0  0  0  0  0  0  0  0  0  0  0
   23.3122   -8.8243  -13.7310 C   0  0  0  0  0  0  0  0  0  0  0  0
   22.4641   -8.5689  -14.9442 C   0  0  1  0  0  0  0  0  0  0  0  0
   21.7893   -9.7745  -15.2372 O   0  0  0  0  0  0  0  0  0  0  0  0
   21.3884   -7.5385  -14.6946 C   0  0  2  0  0  0  0  0  0  0  0  0
   20.5833   -7.3022  -15.8766 N   0  0  0  0  0  0  0  0  0  0  0  0
   21.9187   -6.2732  -14.1836 C   0  0  0  0  0  0  0  0  0  0  0  0
   22.4100   -6.2291  -13.0286 O   0  0  0  0  0  0  0  0  0  0  0  0
   21.9059   -5.1049  -14.9202 O   0  0  0  0  0  0  0  0  0  0  0  0
  2  1  1  6
  3  4  1  0
  3  2  1  0
  5  4  1  0
  5  6  2  0
  7  2  1  0
  7  8  2  0
  9  5  1  0
 10  7  1  0
 11 10  1  0
 11 15  1  0
 11 12  1  1
 13 17  1  0
 13 12  1  0
 14 13  2  0
 15 22  1  0
 16 15  2  0
 19 18  1  1
 19 20  1  0
 19 21  1  0
 21 23  1  0
 21 22  1  6
 23 24  2  0
 23 25  1  0
M  END
$$$$
