EDT.pdb
     RDKit          3D

 25 24  0  0  1  0  0  0  0  0999 V2000
   15.5436  -10.5224  -17.7493 N   0  0  0  0  0  0  0  0  0  0  0  0
   16.0521  -10.1748  -16.4770 C   0  0  1  0  0  0  0  0  0  0  0  0
   16.7071  -11.2282  -15.6647 C   0  0  0  0  0  0  0  0  0  0  0  0
   15.9223  -12.4354  -15.3319 C   0  0  0  0  0  0  0  0  0  0  0  0
   16.6132  -13.4210  -14.5236 C   0  0  0  0  0  0  0  0  0  0  0  0
   17.8199  -13.3841  -14.2387 O   0  0  0  0  0  0  0  0  0  0  0  0
   16.9506   -8.9608  -16.6050 C   0  0  0  0  0  0  0  0  0  0  0  0
   17.7674   -8.8818  -17.5645 O   0  0  0  0  0  0  0  0  0  0  0  0
   15.8880  -14.5141  -14.0081 O   0  0  0  0  0  0  0  0  0  0  0  0
   16.9211   -7.8883  -15.6856 N   0  0  0  0  0  0  0  0  0  0  0  0
   17.7002   -6.6782  -15.8932 C   0  0  1  0  0  0  0  0  0  0  0  0
   16.8457   -5.4959  -15.5035 C   0  0  0  0  0  0  0  0  0  0  0  0
   17.5381   -4.2011  -15.6376 C   0  0  0  0  0  0  0  0  0  0  0  0
   17.3049   -3.2422  -14.8687 O   0  0  0  0  0  0  0  0  0  0  0  0
   18.8546   -6.7003  -14.9526 C   0  0  0  0  0  0  0  0  0  0  0  0
   18.6889   -7.0125  -13.7465 O   0  0  0  0  0  0  0  0  0  0  0  0
   18.4786   -4.0920  -16.6756 O   0  0  0  0  0  0  0  0  0  0  0  0
   23.0090   -6.8354  -16.2599 C   0  0  0  0  0  0  0  0  0  0  0  0
   22.3709   -7.4288  -15.0363 C   0  0  1  0  0  0  0  0  0  0  0  0
   23.3787   -7.5268  -14.0516 O   0  0  0  0  0  0  0  0  0  0  0  0
   21.3000   -6.5392  -14.4503 C   0  0  2  0  0  0  0  0  0  0  0  0
   20.1792   -6.3770  -15.3551 N   0  0  0  0  0  0  0  0  0  0  0  0
   21.8093   -5.2302  -14.0375 C   0  0  0  0  0  0  0  0  0  0  0  0
   21.3698   -4.1921  -14.5910 O   0  0  0  0  0  0  0  0  0  0  0  0
   22.7654   -5.0762  -13.0527 O   0  0  0  0  0  0  0  0  0  0  0  0
  2  1  1  6
  3  4  1  0
  3  2  1  0
  5  4  1  0
  5  6  2  0
  7  2  1  0
  7  8  2  0
  9  5  1  0
 10  7  1  0
 11 10  1  0
 11 15  1  0
 11 12  1  1
 13 17  1  0
 13 12  1  0
 14 13  2  0
 15 22  1  0
 16 15  2  0
 19 18  1  6
 19 20  1  0
 19 21  1  0
 21 23  1  0
 21 22  1  6
 23 24  2  0
 23 25  1  0
M  END
$$$$
