TEC.pdb
     RDKit          3D

 23 22  0  0  1  0  0  0  0  0999 V2000
   24.1493  -11.6419  -15.5401 C   0  0  0  0  0  0  0  0  0  0  0  0
   23.6707  -12.2560  -16.8110 C   0  0  1  0  0  0  0  0  0  0  0  0
   24.1435  -13.5677  -16.8815 O   0  0  0  0  0  0  0  0  0  0  0  0
   22.1626  -12.2669  -16.9221 C   0  0  2  0  0  0  0  0  0  0  0  0
   21.8695  -12.8344  -18.2559 N   0  0  0  0  0  0  0  0  0  0  0  0
   21.5661  -10.9124  -16.9113 C   0  0  0  0  0  0  0  0  0  0  0  0
   21.7713  -10.1404  -17.8838 O   0  0  0  0  0  0  0  0  0  0  0  0
   20.7602  -10.4205  -15.8522 N   0  0  0  0  0  0  0  0  0  0  0  0
   20.2385   -9.0556  -15.7882 C   0  0  1  0  0  0  0  0  0  0  0  0
   18.7839   -9.0725  -15.5615 C   0  0  0  0  0  0  0  0  0  0  0  0
   18.0796   -7.7880  -15.3450 C   0  0  0  0  0  0  0  0  0  0  0  0
   16.6606   -7.8023  -15.0454 C   0  0  0  0  0  0  0  0  0  0  0  0
   15.8860   -8.7488  -14.8985 O   0  0  0  0  0  0  0  0  0  0  0  0
   21.0809   -8.1668  -15.0131 C   0  0  0  0  0  0  0  0  0  0  0  0
   21.3687   -8.4658  -13.8257 O   0  0  0  0  0  0  0  0  0  0  0  0
   16.0588   -6.5233  -14.8957 O   0  0  0  0  0  0  0  0  0  0  0  0
   21.6194   -6.9478  -15.5277 N   0  0  0  0  0  0  0  0  0  0  0  0
   22.4565   -6.0562  -14.7939 C   0  0  1  0  0  0  0  0  0  0  0  0
   23.6067   -5.5167  -15.6217 C   0  0  0  0  0  0  0  0  0  0  0  0
   24.6263   -6.8836  -16.2397 S   0  0  0  0  0  0  0  0  0  0  0  0
   21.7272   -4.9025  -14.2165 C   0  0  0  0  0  0  0  0  0  0  0  0
   22.3361   -4.1410  -13.2319 O   0  0  0  0  0  0  0  0  0  0  0  0
   20.5685   -4.5781  -14.5813 O   0  0  0  0  0  0  0  0  0  0  0  0
  2  3  1  0
  2  1  1  1
  4  2  1  0
  4  5  1  6
  6  8  1  0
  6  4  1  0
  7  6  2  0
  9  8  1  0
  9 14  1  0
  9 10  1  1
 11 10  1  0
 12 11  1  0
 13 12  2  0
 14 17  1  0
 15 14  2  0
 16 12  1  0
 17 18  1  0
 18 19  1  6
 18 21  1  0
 20 19  1  0
 21 22  1  0
 23 21  2  0
M  END
$$$$
