TEC.pdb
     RDKit          3D

 23 22  0  0  1  0  0  0  0  0999 V2000
   13.1705  -11.9543  -11.0397 C   0  0  0  0  0  0  0  0  0  0  0  0
   13.8198  -10.6598  -10.6878 C   0  0  1  0  0  0  0  0  0  0  0  0
   14.1055  -10.6578   -9.3212 O   0  0  0  0  0  0  0  0  0  0  0  0
   15.0970  -10.4185  -11.4607 C   0  0  2  0  0  0  0  0  0  0  0  0
   16.0629  -11.4135  -10.9467 N   0  0  0  0  0  0  0  0  0  0  0  0
   15.6961   -9.0906  -11.1995 C   0  0  0  0  0  0  0  0  0  0  0  0
   16.5583   -8.9710  -10.2905 O   0  0  0  0  0  0  0  0  0  0  0  0
   15.3529   -7.9206  -11.9252 N   0  0  0  0  0  0  0  0  0  0  0  0
   15.9586   -6.6093  -11.6955 C   0  0  1  0  0  0  0  0  0  0  0  0
   16.6995   -6.1702  -12.8897 C   0  0  0  0  0  0  0  0  0  0  0  0
   17.3328   -4.8318  -12.8854 C   0  0  0  0  0  0  0  0  0  0  0  0
   18.0500   -4.3860  -14.0645 C   0  0  0  0  0  0  0  0  0  0  0  0
   19.2111   -4.5956  -14.4184 O   0  0  0  0  0  0  0  0  0  0  0  0
   15.0677   -5.6887  -11.0181 C   0  0  0  0  0  0  0  0  0  0  0  0
   13.9118   -5.4964  -11.4755 O   0  0  0  0  0  0  0  0  0  0  0  0
   17.3006   -3.5769  -14.9613 O   0  0  0  0  0  0  0  0  0  0  0  0
   15.4283   -4.9739   -9.8350 N   0  0  0  0  0  0  0  0  0  0  0  0
   14.5906   -4.0315   -9.1686 C   0  0  1  0  0  0  0  0  0  0  0  0
   14.7783   -4.0411   -7.6639 C   0  0  0  0  0  0  0  0  0  0  0  0
   14.2441   -5.6331   -6.9782 S   0  0  0  0  0  0  0  0  0  0  0  0
   14.7733   -2.6397   -9.6439 C   0  0  0  0  0  0  0  0  0  0  0  0
   13.8961   -1.6570   -9.2139 O   0  0  0  0  0  0  0  0  0  0  0  0
   15.6968   -2.3041  -10.4283 O   0  0  0  0  0  0  0  0  0  0  0  0
  2  3  1  0
  2  1  1  6
  4  2  1  0
  4  5  1  1
  6  8  1  0
  6  4  1  0
  7  6  2  0
  9  8  1  0
  9 14  1  0
  9 10  1  6
 11 10  1  0
 12 11  1  0
 13 12  2  0
 14 17  1  0
 15 14  2  0
 16 12  1  0
 17 18  1  0
 18 19  1  1
 18 21  1  0
 20 19  1  0
 21 22  1  0
 23 21  2  0
M  END
$$$$
