TEC.pdb
     RDKit          3D

 23 22  0  0  1  0  0  0  0  0999 V2000
   23.3230  -21.3430   -8.0717 C   0  0  0  0  0  0  0  0  0  0  0  0
   23.3288  -21.4589   -9.5575 C   0  0  1  0  0  0  0  0  0  0  0  0
   22.2036  -22.1830   -9.9557 O   0  0  0  0  0  0  0  0  0  0  0  0
   23.3211  -20.1133  -10.2477 C   0  0  2  0  0  0  0  0  0  0  0  0
   21.9370  -19.6098  -10.1146 N   0  0  0  0  0  0  0  0  0  0  0  0
   23.5892  -20.2003  -11.7007 C   0  0  0  0  0  0  0  0  0  0  0  0
   24.7477  -20.4903  -12.0978 O   0  0  0  0  0  0  0  0  0  0  0  0
   22.6014  -19.9738  -12.6938 N   0  0  0  0  0  0  0  0  0  0  0  0
   22.8757  -19.9567  -14.1304 C   0  0  1  0  0  0  0  0  0  0  0  0
   21.6459  -20.2345  -14.8907 C   0  0  0  0  0  0  0  0  0  0  0  0
   21.6927  -20.1798  -16.3697 C   0  0  0  0  0  0  0  0  0  0  0  0
   20.5007  -20.5110  -17.1268 C   0  0  0  0  0  0  0  0  0  0  0  0
   19.7421  -21.4773  -17.0375 O   0  0  0  0  0  0  0  0  0  0  0  0
   23.7384  -18.8614  -14.5257 C   0  0  0  0  0  0  0  0  0  0  0  0
   23.4355  -17.6855  -14.1979 O   0  0  0  0  0  0  0  0  0  0  0  0
   20.1431  -19.5758  -18.1358 O   0  0  0  0  0  0  0  0  0  0  0  0
   24.9399  -19.0400  -15.2776 N   0  0  0  0  0  0  0  0  0  0  0  0
   25.7789  -17.9798  -15.7315 C   0  0  1  0  0  0  0  0  0  0  0  0
   27.1668  -18.0286  -15.1228 C   0  0  0  0  0  0  0  0  0  0  0  0
   28.1633  -16.6391  -15.7279 S   0  0  0  0  0  0  0  0  0  0  0  0
   25.9267  -17.9337  -17.2054 C   0  0  0  0  0  0  0  0  0  0  0  0
   26.1752  -16.7185  -17.8230 O   0  0  0  0  0  0  0  0  0  0  0  0
   25.8358  -18.9567  -17.9308 O   0  0  0  0  0  0  0  0  0  0  0  0
  2  3  1  0
  2  1  1  1
  4  2  1  0
  4  5  1  6
  6  8  1  0
  6  4  1  0
  7  6  2  0
  9  8  1  0
  9 14  1  0
  9 10  1  6
 11 10  1  0
 12 11  1  0
 13 12  2  0
 14 17  1  0
 15 14  2  0
 16 12  1  0
 17 18  1  0
 18 19  1  1
 18 21  1  0
 20 19  1  0
 21 22  1  0
 23 21  2  0
M  END
$$$$
