TEC.pdb
     RDKit          3D

 23 22  0  0  1  0  0  0  0  0999 V2000
   23.0604  -11.5510  -14.3716 C   0  0  0  0  0  0  0  0  0  0  0  0
   23.4011  -11.9288  -15.7724 C   0  0  1  0  0  0  0  0  0  0  0  0
   24.0572  -13.1611  -15.7580 O   0  0  0  0  0  0  0  0  0  0  0  0
   22.1829  -12.0271  -16.6630 C   0  0  2  0  0  0  0  0  0  0  0  0
   22.7071  -12.2898  -18.0207 N   0  0  0  0  0  0  0  0  0  0  0  0
   21.4217  -10.7611  -16.7538 C   0  0  0  0  0  0  0  0  0  0  0  0
   21.8936   -9.8042  -17.4213 O   0  0  0  0  0  0  0  0  0  0  0  0
   20.1673  -10.5551  -16.1234 N   0  0  0  0  0  0  0  0  0  0  0  0
   19.4694   -9.2701  -16.0925 C   0  0  1  0  0  0  0  0  0  0  0  0
   18.0119   -9.4781  -16.0853 C   0  0  0  0  0  0  0  0  0  0  0  0
   17.1230   -8.3013  -15.9523 C   0  0  0  0  0  0  0  0  0  0  0  0
   15.6883   -8.4840  -16.0609 C   0  0  0  0  0  0  0  0  0  0  0  0
   15.0214   -9.5141  -16.1686 O   0  0  0  0  0  0  0  0  0  0  0  0
   20.0697   -8.3255  -15.1719 C   0  0  0  0  0  0  0  0  0  0  0  0
   20.3380   -8.6902  -13.9984 O   0  0  0  0  0  0  0  0  0  0  0  0
   14.9207   -7.2878  -16.0405 O   0  0  0  0  0  0  0  0  0  0  0  0
   20.3858   -6.9778  -15.5245 N   0  0  0  0  0  0  0  0  0  0  0  0
   20.9377   -6.0128  -14.6310 C   0  0  1  0  0  0  0  0  0  0  0  0
   22.4036   -5.7344  -14.9010 C   0  0  0  0  0  0  0  0  0  0  0  0
   23.0055   -4.4292  -13.7945 S   0  0  0  0  0  0  0  0  0  0  0  0
   20.2163   -4.7183  -14.6414 C   0  0  0  0  0  0  0  0  0  0  0  0
   20.0115   -4.0480  -13.4460 O   0  0  0  0  0  0  0  0  0  0  0  0
   19.7757   -4.1931  -15.6954 O   0  0  0  0  0  0  0  0  0  0  0  0
  2  3  1  0
  2  1  1  1
  4  2  1  0
  4  5  1  6
  6  8  1  0
  6  4  1  0
  7  6  2  0
  9  8  1  0
  9 14  1  0
  9 10  1  1
 11 10  1  0
 12 11  1  0
 13 12  2  0
 14 17  1  0
 15 14  2  0
 16 12  1  0
 17 18  1  0
 18 19  1  6
 18 21  1  0
 20 19  1  0
 21 22  1  0
 23 21  2  0
M  END
$$$$
