TEC.pdb
     RDKit          3D

 23 22  0  0  1  0  0  0  0  0999 V2000
   17.4086  -13.2518  -15.1264 C   0  0  0  0  0  0  0  0  0  0  0  0
   17.9206  -11.8524  -15.1553 C   0  0  1  0  0  0  0  0  0  0  0  0
   19.2748  -11.8629  -14.8159 O   0  0  0  0  0  0  0  0  0  0  0  0
   17.7546  -11.1983  -16.5086 C   0  0  2  0  0  0  0  0  0  0  0  0
   18.6302  -11.9602  -17.4250 N   0  0  0  0  0  0  0  0  0  0  0  0
   18.2385   -9.8000  -16.5450 C   0  0  0  0  0  0  0  0  0  0  0  0
   19.3077   -9.5330  -17.1530 O   0  0  0  0  0  0  0  0  0  0  0  0
   17.5580   -8.7199  -15.9258 N   0  0  0  0  0  0  0  0  0  0  0  0
   18.0235   -7.3337  -15.9594 C   0  0  1  0  0  0  0  0  0  0  0  0
   16.8964   -6.4091  -15.7537 C   0  0  0  0  0  0  0  0  0  0  0  0
   17.1710   -4.9567  -15.6649 C   0  0  0  0  0  0  0  0  0  0  0  0
   16.0683   -4.0420  -15.4392 C   0  0  0  0  0  0  0  0  0  0  0  0
   15.5429   -3.2241  -16.1957 O   0  0  0  0  0  0  0  0  0  0  0  0
   19.2615   -7.1379  -15.2320 C   0  0  0  0  0  0  0  0  0  0  0  0
   19.4043   -7.6663  -14.0995 O   0  0  0  0  0  0  0  0  0  0  0  0
   15.4959   -4.0902  -14.1390 O   0  0  0  0  0  0  0  0  0  0  0  0
   20.3548   -6.3684  -15.7353 N   0  0  0  0  0  0  0  0  0  0  0  0
   21.6001   -6.1906  -15.0632 C   0  0  1  0  0  0  0  0  0  0  0  0
   22.7932   -6.4852  -15.9514 C   0  0  0  0  0  0  0  0  0  0  0  0
   24.3313   -6.0407  -15.0989 S   0  0  0  0  0  0  0  0  0  0  0  0
   21.7760   -4.8330  -14.4956 C   0  0  0  0  0  0  0  0  0  0  0  0
   21.4492   -3.7293  -15.2671 O   0  0  0  0  0  0  0  0  0  0  0  0
   22.2130   -4.6323  -13.3339 O   0  0  0  0  0  0  0  0  0  0  0  0
  2  3  1  0
  2  1  1  6
  4  2  1  0
  4  5  1  6
  6  8  1  0
  6  4  1  0
  7  6  2  0
  9  8  1  0
  9 14  1  0
  9 10  1  1
 11 10  1  0
 12 11  1  0
 13 12  2  0
 14 17  1  0
 15 14  2  0
 16 12  1  0
 17 18  1  0
 18 19  1  6
 18 21  1  0
 20 19  1  0
 21 22  1  0
 23 21  2  0
M  END
$$$$
