TEC.pdb
     RDKit          3D

 23 22  0  0  1  0  0  0  0  0999 V2000
   13.9282  -10.4147  -15.9534 C   0  0  0  0  0  0  0  0  0  0  0  0
   15.0336   -9.4207  -15.8475 C   0  0  1  0  0  0  0  0  0  0  0  0
   15.8361   -9.7566  -14.7556 O   0  0  0  0  0  0  0  0  0  0  0  0
   15.8900   -9.3656  -17.0927 C   0  0  2  0  0  0  0  0  0  0  0  0
   16.4848  -10.7134  -17.2221 N   0  0  0  0  0  0  0  0  0  0  0  0
   17.0260   -8.4238  -16.9793 C   0  0  0  0  0  0  0  0  0  0  0  0
   18.1917   -8.8313  -17.2225 O   0  0  0  0  0  0  0  0  0  0  0  0
   16.8799   -7.0624  -16.6073 N   0  0  0  0  0  0  0  0  0  0  0  0
   17.9962   -6.1263  -16.4773 C   0  0  1  0  0  0  0  0  0  0  0  0
   17.5451   -4.7501  -16.7429 C   0  0  0  0  0  0  0  0  0  0  0  0
   18.5264   -3.6455  -16.6456 C   0  0  0  0  0  0  0  0  0  0  0  0
   18.0923   -2.2890  -16.9200 C   0  0  0  0  0  0  0  0  0  0  0  0
   18.4284   -1.5093  -17.8124 O   0  0  0  0  0  0  0  0  0  0  0  0
   18.8326   -6.4038  -15.3269 C   0  0  0  0  0  0  0  0  0  0  0  0
   18.2960   -6.6381  -14.2136 O   0  0  0  0  0  0  0  0  0  0  0  0
   17.1239   -1.7677  -16.0195 O   0  0  0  0  0  0  0  0  0  0  0  0
   20.2598   -6.4324  -15.3819 N   0  0  0  0  0  0  0  0  0  0  0  0
   21.1107   -6.6836  -14.2653 C   0  0  1  0  0  0  0  0  0  0  0  0
   21.9574   -7.9290  -14.4418 C   0  0  0  0  0  0  0  0  0  0  0  0
   22.9571   -8.2200  -12.9565 S   0  0  0  0  0  0  0  0  0  0  0  0
   22.0171   -5.5548  -13.9481 C   0  0  0  0  0  0  0  0  0  0  0  0
   22.2562   -5.2308  -12.6223 O   0  0  0  0  0  0  0  0  0  0  0  0
   22.5858   -4.8688  -14.8351 O   0  0  0  0  0  0  0  0  0  0  0  0
  2  3  1  0
  2  1  1  6
  4  2  1  0
  4  5  1  1
  6  8  1  0
  6  4  1  0
  7  6  2  0
  9  8  1  0
  9 14  1  0
  9 10  1  1
 11 10  1  0
 12 11  1  0
 13 12  2  0
 14 17  1  0
 15 14  2  0
 16 12  1  0
 17 18  1  0
 18 19  1  6
 18 21  1  0
 20 19  1  0
 21 22  1  0
 23 21  2  0
M  END
$$$$
