TEC.pdb
     RDKit          3D

 23 22  0  0  1  0  0  0  0  0999 V2000
   16.8175  -11.1302  -14.8907 C   0  0  0  0  0  0  0  0  0  0  0  0
   16.4811  -11.1891  -16.3414 C   0  0  1  0  0  0  0  0  0  0  0  0
   16.0650   -9.9231  -16.7574 O   0  0  0  0  0  0  0  0  0  0  0  0
   17.6494  -11.6310  -17.1938 C   0  0  2  0  0  0  0  0  0  0  0  0
   17.9668  -13.0044  -16.7466 N   0  0  0  0  0  0  0  0  0  0  0  0
   18.8739  -10.8312  -16.9667 C   0  0  0  0  0  0  0  0  0  0  0  0
   19.5839  -11.0644  -15.9541 O   0  0  0  0  0  0  0  0  0  0  0  0
   19.3066   -9.7979  -17.8375 N   0  0  0  0  0  0  0  0  0  0  0  0
   20.5028   -8.9869  -17.6125 C   0  0  1  0  0  0  0  0  0  0  0  0
   21.0376   -8.4955  -18.8932 C   0  0  0  0  0  0  0  0  0  0  0  0
   22.3000   -7.7215  -18.8903 C   0  0  0  0  0  0  0  0  0  0  0  0
   22.8460   -7.2561  -20.1507 C   0  0  0  0  0  0  0  0  0  0  0  0
   23.8148   -6.5309  -20.3810 O   0  0  0  0  0  0  0  0  0  0  0  0
   20.3651   -8.0799  -16.4906 C   0  0  0  0  0  0  0  0  0  0  0  0
   19.2774   -7.4731  -16.3152 O   0  0  0  0  0  0  0  0  0  0  0  0
   22.1594   -7.7038  -21.3120 O   0  0  0  0  0  0  0  0  0  0  0  0
   21.4103   -7.8308  -15.5492 N   0  0  0  0  0  0  0  0  0  0  0  0
   21.3086   -6.9405  -14.4397 C   0  0  1  0  0  0  0  0  0  0  0  0
   21.8276   -7.5479  -13.1509 C   0  0  0  0  0  0  0  0  0  0  0  0
   21.6537   -6.3637  -11.7881 S   0  0  0  0  0  0  0  0  0  0  0  0
   22.0071   -5.6508  -14.6519 C   0  0  0  0  0  0  0  0  0  0  0  0
   21.4386   -4.4850  -14.1642 O   0  0  0  0  0  0  0  0  0  0  0  0
   23.1036   -5.5627  -15.2608 O   0  0  0  0  0  0  0  0  0  0  0  0
  2  3  1  0
  2  1  1  1
  4  2  1  0
  4  5  1  1
  6  8  1  0
  6  4  1  0
  7  6  2  0
  9  8  1  0
  9 14  1  0
  9 10  1  6
 11 10  1  0
 12 11  1  0
 13 12  2  0
 14 17  1  0
 15 14  2  0
 16 12  1  0
 17 18  1  0
 18 19  1  1
 18 21  1  0
 20 19  1  0
 21 22  1  0
 23 21  2  0
M  END
$$$$
