TEC.pdb
     RDKit          3D

 23 22  0  0  1  0  0  0  0  0999 V2000
   28.4091  -21.3396  -14.9311 C   0  0  0  0  0  0  0  0  0  0  0  0
   27.7925  -21.5680  -16.2685 C   0  0  1  0  0  0  0  0  0  0  0  0
   26.9064  -22.6429  -16.1766 O   0  0  0  0  0  0  0  0  0  0  0  0
   27.0485  -20.3559  -16.7826 C   0  0  2  0  0  0  0  0  0  0  0  0
   28.0778  -19.3103  -16.9672 N   0  0  0  0  0  0  0  0  0  0  0  0
   26.0774  -19.8097  -15.8083 C   0  0  0  0  0  0  0  0  0  0  0  0
   26.4871  -19.0635  -14.8814 O   0  0  0  0  0  0  0  0  0  0  0  0
   24.6852  -20.0794  -15.8557 N   0  0  0  0  0  0  0  0  0  0  0  0
   23.7176  -19.5538  -14.8930 C   0  0  1  0  0  0  0  0  0  0  0  0
   22.5963  -18.9067  -15.5941 C   0  0  0  0  0  0  0  0  0  0  0  0
   22.8338  -17.6194  -16.2861 C   0  0  0  0  0  0  0  0  0  0  0  0
   21.7094  -16.9131  -16.8696 C   0  0  0  0  0  0  0  0  0  0  0  0
   21.3708  -16.7873  -18.0472 O   0  0  0  0  0  0  0  0  0  0  0  0
   23.4558  -20.4697  -13.8010 C   0  0  0  0  0  0  0  0  0  0  0  0
   23.2306  -21.6819  -14.0502 O   0  0  0  0  0  0  0  0  0  0  0  0
   20.8558  -16.2580  -15.9408 O   0  0  0  0  0  0  0  0  0  0  0  0
   23.4416  -20.0724  -12.4289 N   0  0  0  0  0  0  0  0  0  0  0  0
   23.1111  -20.9301  -11.3384 C   0  0  1  0  0  0  0  0  0  0  0  0
   23.9233  -20.6344  -10.0926 C   0  0  0  0  0  0  0  0  0  0  0  0
   25.6907  -20.8625  -10.4307 S   0  0  0  0  0  0  0  0  0  0  0  0
   21.6762  -20.8900  -10.9698 C   0  0  0  0  0  0  0  0  0  0  0  0
   21.1755  -21.8399  -10.0941 O   0  0  0  0  0  0  0  0  0  0  0  0
   20.8820  -20.0251  -11.4193 O   0  0  0  0  0  0  0  0  0  0  0  0
  2  3  1  0
  2  1  1  1
  4  2  1  0
  4  5  1  1
  6  8  1  0
  6  4  1  0
  7  6  2  0
  9  8  1  0
  9 14  1  0
  9 10  1  6
 11 10  1  0
 12 11  1  0
 13 12  2  0
 14 17  1  0
 15 14  2  0
 16 12  1  0
 17 18  1  0
 18 19  1  1
 18 21  1  0
 20 19  1  0
 21 22  1  0
 23 21  2  0
M  END
$$$$
