TEC.pdb
     RDKit          3D

 23 22  0  0  1  0  0  0  0  0999 V2000
   23.2158   -8.6891  -16.4601 C   0  0  0  0  0  0  0  0  0  0  0  0
   21.9026   -8.1216  -16.0424 C   0  0  1  0  0  0  0  0  0  0  0  0
   20.9044   -8.6474  -16.8648 O   0  0  0  0  0  0  0  0  0  0  0  0
   21.5671   -8.4273  -14.5998 C   0  0  2  0  0  0  0  0  0  0  0  0
   21.4806   -9.9014  -14.5189 N   0  0  0  0  0  0  0  0  0  0  0  0
   20.2418   -7.9141  -14.1867 C   0  0  0  0  0  0  0  0  0  0  0  0
   20.0646   -6.6720  -14.0886 O   0  0  0  0  0  0  0  0  0  0  0  0
   19.1360   -8.7520  -13.8893 N   0  0  0  0  0  0  0  0  0  0  0  0
   17.8260   -8.2572  -13.4669 C   0  0  1  0  0  0  0  0  0  0  0  0
   16.7528   -9.0151  -14.1314 C   0  0  0  0  0  0  0  0  0  0  0  0
   15.3442   -8.6772  -13.8247 C   0  0  0  0  0  0  0  0  0  0  0  0
   14.2821   -9.3738  -14.5248 C   0  0  0  0  0  0  0  0  0  0  0  0
   13.8070   -9.1837  -15.6453 O   0  0  0  0  0  0  0  0  0  0  0  0
   17.7542   -7.9995  -12.0426 C   0  0  0  0  0  0  0  0  0  0  0  0
   18.3868   -8.7402  -11.2469 O   0  0  0  0  0  0  0  0  0  0  0  0
   13.6885  -10.4502  -13.8110 O   0  0  0  0  0  0  0  0  0  0  0  0
   16.9958   -6.9300  -11.4753 N   0  0  0  0  0  0  0  0  0  0  0  0
   16.8833   -6.6663  -10.0782 C   0  0  1  0  0  0  0  0  0  0  0  0
   16.4160   -5.2541   -9.7838 C   0  0  0  0  0  0  0  0  0  0  0  0
   16.3644   -4.9742   -7.9924 S   0  0  0  0  0  0  0  0  0  0  0  0
   15.9796   -7.6043   -9.3713 C   0  0  0  0  0  0  0  0  0  0  0  0
   16.4040   -8.1929   -8.1909 O   0  0  0  0  0  0  0  0  0  0  0  0
   14.8328   -7.8954   -9.7968 O   0  0  0  0  0  0  0  0  0  0  0  0
  2  3  1  0
  2  1  1  6
  4  2  1  0
  4  5  1  6
  6  8  1  0
  6  4  1  0
  7  6  2  0
  9  8  1  0
  9 14  1  0
  9 10  1  1
 11 10  1  0
 12 11  1  0
 13 12  2  0
 14 17  1  0
 15 14  2  0
 16 12  1  0
 17 18  1  0
 18 19  1  6
 18 21  1  0
 20 19  1  0
 21 22  1  0
 23 21  2  0
M  END
$$$$
