TEC.pdb
     RDKit          3D

 23 22  0  0  1  0  0  0  0  0999 V2000
   15.9156  -11.2469  -17.1239 C   0  0  0  0  0  0  0  0  0  0  0  0
   16.2461  -10.4355  -15.9181 C   0  0  1  0  0  0  0  0  0  0  0  0
   15.2374  -10.6107  -14.9690 O   0  0  0  0  0  0  0  0  0  0  0  0
   17.5746  -10.8168  -15.3046 C   0  0  2  0  0  0  0  0  0  0  0  0
   17.4228  -12.2250  -14.8790 N   0  0  0  0  0  0  0  0  0  0  0  0
   17.8945  -10.0493  -14.0802 C   0  0  0  0  0  0  0  0  0  0  0  0
   17.5420  -10.5008  -12.9595 O   0  0  0  0  0  0  0  0  0  0  0  0
   18.5888   -8.8120  -14.0911 N   0  0  0  0  0  0  0  0  0  0  0  0
   18.9005   -8.0391  -12.8891 C   0  0  1  0  0  0  0  0  0  0  0  0
   20.0801   -7.1882  -13.1179 C   0  0  0  0  0  0  0  0  0  0  0  0
   20.4928   -6.2393  -12.0587 C   0  0  0  0  0  0  0  0  0  0  0  0
   21.6077   -5.3454  -12.3066 C   0  0  0  0  0  0  0  0  0  0  0  0
   22.7967   -5.5918  -12.5136 O   0  0  0  0  0  0  0  0  0  0  0  0
   17.7212   -7.4849  -12.2547 C   0  0  0  0  0  0  0  0  0  0  0  0
   16.9304   -6.7768  -12.9294 O   0  0  0  0  0  0  0  0  0  0  0  0
   21.2858   -3.9609  -12.3135 O   0  0  0  0  0  0  0  0  0  0  0  0
   17.3928   -7.7019  -10.8815 N   0  0  0  0  0  0  0  0  0  0  0  0
   16.3243   -7.0578  -10.1905 C   0  0  1  0  0  0  0  0  0  0  0  0
   15.5931   -7.9887   -9.2429 C   0  0  0  0  0  0  0  0  0  0  0  0
   14.1675   -7.1400   -8.5099 S   0  0  0  0  0  0  0  0  0  0  0  0
   16.7526   -5.8655   -9.4214 C   0  0  0  0  0  0  0  0  0  0  0  0
   15.9193   -4.7598   -9.3674 O   0  0  0  0  0  0  0  0  0  0  0  0
   17.8491   -5.8086   -8.8088 O   0  0  0  0  0  0  0  0  0  0  0  0
  2  3  1  0
  2  1  1  6
  4  2  1  0
  4  5  1  1
  6  8  1  0
  6  4  1  0
  7  6  2  0
  9  8  1  0
  9 14  1  0
  9 10  1  6
 11 10  1  0
 12 11  1  0
 13 12  2  0
 14 17  1  0
 15 14  2  0
 16 12  1  0
 17 18  1  0
 18 19  1  1
 18 21  1  0
 20 19  1  0
 21 22  1  0
 23 21  2  0
M  END
$$$$
