WGP.pdb
     RDKit          3D

 26 28  0  0  1  0  0  0  0  0999 V2000
   23.2559  -19.2858  -14.8112 N   0  0  0  0  0  0  0  0  0  0  0  0
   23.4645  -20.0222  -13.6093 C   0  0  1  0  0  0  0  0  0  0  0  0
   22.3899  -20.9755  -13.2190 C   0  0  0  0  0  0  0  0  0  0  0  0
   21.9077  -20.8070  -11.8324 C   0  0  0  0  0  0  0  0  0  0  0  0
   20.6038  -20.5379  -11.4589 C   0  0  0  0  0  0  0  0  0  0  0  0
   20.5196  -20.4331  -10.1285 N   0  0  0  0  0  0  0  0  0  0  0  0
   21.7573  -20.6290   -9.5905 C   0  0  0  0  0  0  0  0  0  0  0  0
   22.1659  -20.6207   -8.2758 C   0  0  0  0  0  0  0  0  0  0  0  0
   23.4896  -20.8541   -7.9989 C   0  0  0  0  0  0  0  0  0  0  0  0
   24.3728  -21.0889   -9.0223 C   0  0  0  0  0  0  0  0  0  0  0  0
   23.9295  -21.0901  -10.3293 C   0  0  0  0  0  0  0  0  0  0  0  0
   22.6129  -20.8607  -10.6552 C   0  0  0  0  0  0  0  0  0  0  0  0
   24.8173  -20.6667  -13.5672 C   0  0  0  0  0  0  0  0  0  0  0  0
   25.1626  -21.3367  -14.5677 O   0  0  0  0  0  0  0  0  0  0  0  0
   25.7108  -20.5636  -12.4816 N   0  0  0  0  0  0  0  0  0  0  0  0
   26.9901  -21.1883  -12.4040 C   0  0  0  0  0  0  0  0  0  0  0  0
   27.9852  -20.3733  -13.1388 C   0  0  0  0  0  0  0  0  0  0  0  0
   27.6035  -19.3074  -13.6814 O   0  0  0  0  0  0  0  0  0  0  0  0
   29.3422  -20.7527  -13.2492 N   0  0  0  0  0  0  0  0  0  0  0  0
   29.9518  -21.9375  -12.7084 C   0  0  0  0  0  0  0  0  0  0  0  0
   31.4410  -21.7341  -12.7900 C   0  0  0  0  0  0  0  0  0  0  0  0
   31.6406  -20.2818  -13.1832 C   0  0  0  0  0  0  0  0  0  0  0  0
   30.3617  -20.0023  -13.9357 C   0  0  1  0  0  0  0  0  0  0  0  0
   30.4377  -20.5177  -15.3415 C   0  0  0  0  0  0  0  0  0  0  0  0
   29.9536  -21.7612  -15.7087 O   0  0  0  0  0  0  0  0  0  0  0  0
   30.9636  -19.8069  -16.2617 O   0  0  0  0  0  0  0  0  0  0  0  0
  2 13  1  0
  2  1  1  6
  3  2  1  0
  4  3  1  0
  5  4  2  0
  6  7  1  0
  6  5  1  0
  7 12  2  0
  8  7  1  0
  8  9  2  0
  9 10  1  0
 10 11  2  0
 12  4  1  0
 12 11  1  0
 13 15  1  0
 14 13  2  0
 16 15  1  0
 17 16  1  0
 18 17  2  0
 19 17  1  0
 19 23  1  0
 20 21  1  0
 20 19  1  0
 21 22  1  0
 22 23  1  0
 23 24  1  6
 24 25  1  0
 26 24  2  0
M  END
$$$$
