WGP.pdb
     RDKit          3D

 26 28  0  0  1  0  0  0  0  0999 V2000
   24.8887  -20.3487   -9.8102 N   0  0  0  0  0  0  0  0  0  0  0  0
   26.3084  -20.4264   -9.9028 C   0  0  1  0  0  0  0  0  0  0  0  0
   26.9870  -21.3475   -8.9504 C   0  0  0  0  0  0  0  0  0  0  0  0
   26.8207  -20.9768   -7.5297 C   0  0  0  0  0  0  0  0  0  0  0  0
   25.6391  -21.0348   -6.8139 C   0  0  0  0  0  0  0  0  0  0  0  0
   25.8402  -20.6143   -5.5606 N   0  0  0  0  0  0  0  0  0  0  0  0
   27.1516  -20.2696   -5.4152 C   0  0  0  0  0  0  0  0  0  0  0  0
   27.8273  -19.7893   -4.3160 C   0  0  0  0  0  0  0  0  0  0  0  0
   29.1678  -19.5211   -4.4358 C   0  0  0  0  0  0  0  0  0  0  0  0
   29.8049  -19.7330   -5.6324 C   0  0  0  0  0  0  0  0  0  0  0  0
   29.0973  -20.2154   -6.7146 C   0  0  0  0  0  0  0  0  0  0  0  0
   27.7530  -20.4980   -6.6423 C   0  0  0  0  0  0  0  0  0  0  0  0
   26.7733  -20.6465  -11.3108 C   0  0  0  0  0  0  0  0  0  0  0  0
   26.2506  -21.5925  -11.9441 O   0  0  0  0  0  0  0  0  0  0  0  0
   27.7512  -19.8610  -11.9544 N   0  0  0  0  0  0  0  0  0  0  0  0
   28.1601  -20.0027  -13.3130 C   0  0  0  0  0  0  0  0  0  0  0  0
   27.3078  -19.1547  -14.1783 C   0  0  0  0  0  0  0  0  0  0  0  0
   26.1745  -18.8169  -13.7567 O   0  0  0  0  0  0  0  0  0  0  0  0
   27.7247  -18.7153  -15.4554 N   0  0  0  0  0  0  0  0  0  0  0  0
   28.9547  -19.0487  -16.1215 C   0  0  0  0  0  0  0  0  0  0  0  0
   29.0944  -18.0933  -17.2763 C   0  0  0  0  0  0  0  0  0  0  0  0
   28.0050  -17.0534  -17.0888 C   0  0  0  0  0  0  0  0  0  0  0  0
   26.9728  -17.8438  -16.3207 C   0  0  1  0  0  0  0  0  0  0  0  0
   26.1583  -18.7052  -17.2384 C   0  0  0  0  0  0  0  0  0  0  0  0
   26.4275  -20.0481  -17.4375 O   0  0  0  0  0  0  0  0  0  0  0  0
   25.1697  -18.2125  -17.8773 O   0  0  0  0  0  0  0  0  0  0  0  0
  2 13  1  0
  2  1  1  6
  3  2  1  0
  4  3  1  0
  5  4  2  0
  6  7  1  0
  6  5  1  0
  7 12  2  0
  8  7  1  0
  8  9  2  0
  9 10  1  0
 10 11  2  0
 12  4  1  0
 12 11  1  0
 13 15  1  0
 14 13  2  0
 16 15  1  0
 17 16  1  0
 18 17  2  0
 19 17  1  0
 19 23  1  0
 20 21  1  0
 20 19  1  0
 21 22  1  0
 22 23  1  0
 23 24  1  6
 24 25  1  0
 26 24  2  0
M  END
$$$$
