WGP.pdb
     RDKit          3D

 26 28  0  0  1  0  0  0  0  0999 V2000
   25.7751  -22.7124  -11.7857 N   0  0  0  0  0  0  0  0  0  0  0  0
   25.4583  -21.4614  -11.1817 C   0  0  1  0  0  0  0  0  0  0  0  0
   26.5359  -20.4345  -11.1756 C   0  0  0  0  0  0  0  0  0  0  0  0
   27.6010  -20.6831  -10.1820 C   0  0  0  0  0  0  0  0  0  0  0  0
   28.8191  -21.2851  -10.4387 C   0  0  0  0  0  0  0  0  0  0  0  0
   29.5376  -21.3658   -9.3138 N   0  0  0  0  0  0  0  0  0  0  0  0
   28.8186  -20.8226   -8.2902 C   0  0  0  0  0  0  0  0  0  0  0  0
   29.1388  -20.6768   -6.9592 C   0  0  0  0  0  0  0  0  0  0  0  0
   28.2244  -20.0826   -6.1259 C   0  0  0  0  0  0  0  0  0  0  0  0
   27.0222  -19.6492   -6.6254 C   0  0  0  0  0  0  0  0  0  0  0  0
   26.7333  -19.8113   -7.9652 C   0  0  0  0  0  0  0  0  0  0  0  0
   27.6179  -20.4011   -8.8380 C   0  0  0  0  0  0  0  0  0  0  0  0
   24.1630  -20.9004  -11.6864 C   0  0  0  0  0  0  0  0  0  0  0  0
   24.1335  -19.6754  -11.9467 O   0  0  0  0  0  0  0  0  0  0  0  0
   22.9925  -21.6615  -11.8822 N   0  0  0  0  0  0  0  0  0  0  0  0
   21.7417  -21.1490  -12.3360 C   0  0  0  0  0  0  0  0  0  0  0  0
   21.6255  -21.3492  -13.7991 C   0  0  0  0  0  0  0  0  0  0  0  0
   22.5806  -20.9903  -14.5307 O   0  0  0  0  0  0  0  0  0  0  0  0
   20.4822  -21.9273  -14.3963 N   0  0  0  0  0  0  0  0  0  0  0  0
   19.2651  -22.3104  -13.7333 C   0  0  0  0  0  0  0  0  0  0  0  0
   18.4975  -23.1711  -14.7007 C   0  0  0  0  0  0  0  0  0  0  0  0
   19.4468  -23.4500  -15.8515 C   0  0  0  0  0  0  0  0  0  0  0  0
   20.3416  -22.2350  -15.7960 C   0  0  1  0  0  0  0  0  0  0  0  0
   19.6945  -21.0561  -16.4586 C   0  0  0  0  0  0  0  0  0  0  0  0
   19.6609  -20.8967  -17.8331 O   0  0  0  0  0  0  0  0  0  0  0  0
   19.1430  -20.1440  -15.7569 O   0  0  0  0  0  0  0  0  0  0  0  0
  2 13  1  0
  2  1  1  6
  3  2  1  0
  4  3  1  0
  5  4  2  0
  6  7  1  0
  6  5  1  0
  7 12  2  0
  8  7  1  0
  8  9  2  0
  9 10  1  0
 10 11  2  0
 12  4  1  0
 12 11  1  0
 13 15  1  0
 14 13  2  0
 16 15  1  0
 17 16  1  0
 18 17  2  0
 19 17  1  0
 19 23  1  0
 20 21  1  0
 20 19  1  0
 21 22  1  0
 22 23  1  0
 23 24  1  6
 24 25  1  0
 26 24  2  0
M  END
$$$$
