WGP.pdb
     RDKit          3D

 26 28  0  0  1  0  0  0  0  0999 V2000
   28.0938  -20.2058  -10.1848 N   0  0  0  0  0  0  0  0  0  0  0  0
   27.0655  -21.1537   -9.9118 C   0  0  1  0  0  0  0  0  0  0  0  0
   26.2150  -20.8867   -8.7197 C   0  0  0  0  0  0  0  0  0  0  0  0
   26.8713  -20.0651   -7.6816 C   0  0  0  0  0  0  0  0  0  0  0  0
   27.0110  -18.6897   -7.7101 C   0  0  0  0  0  0  0  0  0  0  0  0
   27.6661  -18.2720   -6.6218 N   0  0  0  0  0  0  0  0  0  0  0  0
   27.9747  -19.3528   -5.8497 C   0  0  0  0  0  0  0  0  0  0  0  0
   28.6363  -19.4236   -4.6444 C   0  0  0  0  0  0  0  0  0  0  0  0
   28.8153  -20.6552   -4.0659 C   0  0  0  0  0  0  0  0  0  0  0  0
   28.3388  -21.7809   -4.6890 C   0  0  0  0  0  0  0  0  0  0  0  0
   27.6800  -21.6740   -5.8970 C   0  0  0  0  0  0  0  0  0  0  0  0
   27.4774  -20.4618   -6.5148 C   0  0  0  0  0  0  0  0  0  0  0  0
   26.2382  -21.4573  -11.1244 C   0  0  0  0  0  0  0  0  0  0  0  0
   26.0563  -20.5244  -11.9405 O   0  0  0  0  0  0  0  0  0  0  0  0
   25.6611  -22.7147  -11.3955 N   0  0  0  0  0  0  0  0  0  0  0  0
   25.3119  -23.2002  -12.6899 C   0  0  0  0  0  0  0  0  0  0  0  0
   24.1486  -22.4425  -13.2065 C   0  0  0  0  0  0  0  0  0  0  0  0
   23.7546  -21.4383  -12.5642 O   0  0  0  0  0  0  0  0  0  0  0  0
   23.4710  -22.8094  -14.3914 N   0  0  0  0  0  0  0  0  0  0  0  0
   23.7691  -23.9298  -15.2420 C   0  0  0  0  0  0  0  0  0  0  0  0
   23.0141  -23.7118  -16.5258 C   0  0  0  0  0  0  0  0  0  0  0  0
   22.4649  -22.2989  -16.4495 C   0  0  0  0  0  0  0  0  0  0  0  0
   22.3463  -22.1096  -14.9561 C   0  0  1  0  0  0  0  0  0  0  0  0
   21.0986  -22.7509  -14.4271 C   0  0  0  0  0  0  0  0  0  0  0  0
   19.8570  -22.1441  -14.5019 O   0  0  0  0  0  0  0  0  0  0  0  0
   21.1476  -23.9026  -13.8795 O   0  0  0  0  0  0  0  0  0  0  0  0
  2 13  1  0
  2  1  1  6
  3  2  1  0
  4  3  1  0
  5  4  2  0
  6  7  1  0
  6  5  1  0
  7 12  2  0
  8  7  1  0
  8  9  2  0
  9 10  1  0
 10 11  2  0
 12  4  1  0
 12 11  1  0
 13 15  1  0
 14 13  2  0
 16 15  1  0
 17 16  1  0
 18 17  2  0
 19 17  1  0
 19 23  1  0
 20 21  1  0
 20 19  1  0
 21 22  1  0
 22 23  1  0
 23 24  1  1
 24 25  1  0
 26 24  2  0
M  END
$$$$
