WGP.pdb
     RDKit          3D

 26 28  0  0  1  0  0  0  0  0999 V2000
   24.6310  -21.8737   -9.1609 N   0  0  0  0  0  0  0  0  0  0  0  0
   24.2548  -20.5160   -9.3742 C   0  0  1  0  0  0  0  0  0  0  0  0
   24.8514  -19.5089   -8.4546 C   0  0  0  0  0  0  0  0  0  0  0  0
   25.3522  -20.0732   -7.1841 C   0  0  0  0  0  0  0  0  0  0  0  0
   24.6573  -20.9337   -6.3542 C   0  0  0  0  0  0  0  0  0  0  0  0
   25.3981  -21.2370   -5.2831 N   0  0  0  0  0  0  0  0  0  0  0  0
   26.5948  -20.5895   -5.3758 C   0  0  0  0  0  0  0  0  0  0  0  0
   27.6752  -20.5933   -4.5225 C   0  0  0  0  0  0  0  0  0  0  0  0
   28.7773  -19.8467   -4.8565 C   0  0  0  0  0  0  0  0  0  0  0  0
   28.7850  -19.1184   -6.0193 C   0  0  0  0  0  0  0  0  0  0  0  0
   27.6846  -19.1370   -6.8520 C   0  0  0  0  0  0  0  0  0  0  0  0
   26.5579  -19.8696   -6.5589 C   0  0  0  0  0  0  0  0  0  0  0  0
   24.3976  -20.1072  -10.8093 C   0  0  0  0  0  0  0  0  0  0  0  0
   24.5042  -18.8819  -11.0468 O   0  0  0  0  0  0  0  0  0  0  0  0
   24.4184  -21.0098  -11.8921 N   0  0  0  0  0  0  0  0  0  0  0  0
   25.2731  -20.9142  -13.0294 C   0  0  0  0  0  0  0  0  0  0  0  0
   26.5911  -21.5104  -12.7107 C   0  0  0  0  0  0  0  0  0  0  0  0
   26.6245  -22.6751  -12.2431 O   0  0  0  0  0  0  0  0  0  0  0  0
   27.8057  -20.8168  -12.9141 N   0  0  0  0  0  0  0  0  0  0  0  0
   27.9574  -19.4634  -13.3757 C   0  0  0  0  0  0  0  0  0  0  0  0
   29.4054  -19.2934  -13.7502 C   0  0  0  0  0  0  0  0  0  0  0  0
   30.0125  -20.6835  -13.7020 C   0  0  0  0  0  0  0  0  0  0  0  0
   29.1204  -21.3592  -12.6883 C   0  0  1  0  0  0  0  0  0  0  0  0
   29.5254  -21.0039  -11.2893 C   0  0  0  0  0  0  0  0  0  0  0  0
   28.7689  -20.1740  -10.4802 O   0  0  0  0  0  0  0  0  0  0  0  0
   30.6055  -21.4680  -10.7928 O   0  0  0  0  0  0  0  0  0  0  0  0
  2 13  1  0
  2  1  1  6
  3  2  1  0
  4  3  1  0
  5  4  2  0
  6  7  1  0
  6  5  1  0
  7 12  2  0
  8  7  1  0
  8  9  2  0
  9 10  1  0
 10 11  2  0
 12  4  1  0
 12 11  1  0
 13 15  1  0
 14 13  2  0
 16 15  1  0
 17 16  1  0
 18 17  2  0
 19 17  1  0
 19 23  1  0
 20 21  1  0
 20 19  1  0
 21 22  1  0
 22 23  1  0
 23 24  1  1
 24 25  1  0
 26 24  2  0
M  END
$$$$
