WGP.pdb
     RDKit          3D

 26 28  0  0  1  0  0  0  0  0999 V2000
   28.5492  -10.8327  -18.2012 N   0  0  0  0  0  0  0  0  0  0  0  0
   29.7267  -11.1325  -17.4569 C   0  0  1  0  0  0  0  0  0  0  0  0
   29.9992  -12.5724  -17.1958 C   0  0  0  0  0  0  0  0  0  0  0  0
   28.8276  -13.3300  -16.7091 C   0  0  0  0  0  0  0  0  0  0  0  0
   28.2165  -13.1683  -15.4793 C   0  0  0  0  0  0  0  0  0  0  0  0
   27.1954  -14.0231  -15.3579 N   0  0  0  0  0  0  0  0  0  0  0  0
   27.1045  -14.7677  -16.4968 C   0  0  0  0  0  0  0  0  0  0  0  0
   26.2185  -15.7646  -16.8380 C   0  0  0  0  0  0  0  0  0  0  0  0
   26.3437  -16.3607  -18.0679 C   0  0  0  0  0  0  0  0  0  0  0  0
   27.3361  -15.9593  -18.9262 C   0  0  0  0  0  0  0  0  0  0  0  0
   28.2076  -14.9566  -18.5522 C   0  0  0  0  0  0  0  0  0  0  0  0
   28.1213  -14.3307  -17.3303 C   0  0  0  0  0  0  0  0  0  0  0  0
   30.9348  -10.4310  -18.0006 C   0  0  0  0  0  0  0  0  0  0  0  0
   31.1413  -10.5204  -19.2329 O   0  0  0  0  0  0  0  0  0  0  0  0
   31.8392   -9.6869  -17.2159 N   0  0  0  0  0  0  0  0  0  0  0  0
   33.0599   -9.1162  -17.6820 C   0  0  0  0  0  0  0  0  0  0  0  0
   33.7152   -8.3774  -16.5779 C   0  0  0  0  0  0  0  0  0  0  0  0
   33.1530   -8.3547  -15.4556 O   0  0  0  0  0  0  0  0  0  0  0  0
   34.9452   -7.7011  -16.7439 N   0  0  0  0  0  0  0  0  0  0  0  0
   35.7250   -7.6157  -17.9490 C   0  0  0  0  0  0  0  0  0  0  0  0
   37.0808   -7.0964  -17.5516 C   0  0  0  0  0  0  0  0  0  0  0  0
   37.1051   -7.1181  -16.0342 C   0  0  0  0  0  0  0  0  0  0  0  0
   35.6369   -6.9696  -15.7143 C   0  0  1  0  0  0  0  0  0  0  0  0
   35.2056   -5.5366  -15.8060 C   0  0  0  0  0  0  0  0  0  0  0  0
   35.2660   -4.6678  -14.7303 O   0  0  0  0  0  0  0  0  0  0  0  0
   34.7598   -5.0661  -16.9052 O   0  0  0  0  0  0  0  0  0  0  0  0
  2 13  1  0
  2  1  1  6
  3  2  1  0
  4  3  1  0
  5  4  2  0
  6  7  1  0
  6  5  1  0
  7 12  2  0
  8  7  1  0
  8  9  2  0
  9 10  1  0
 10 11  2  0
 12  4  1  0
 12 11  1  0
 13 15  1  0
 14 13  2  0
 16 15  1  0
 17 16  1  0
 18 17  2  0
 19 17  1  0
 19 23  1  0
 20 21  1  0
 20 19  1  0
 21 22  1  0
 22 23  1  0
 23 24  1  6
 24 25  1  0
 26 24  2  0
M  END
$$$$
