WGP.pdb
     RDKit          3D

 26 28  0  0  1  0  0  0  0  0999 V2000
   27.1528  -22.6705  -10.4361 N   0  0  0  0  0  0  0  0  0  0  0  0
   26.5704  -21.3706  -10.3982 C   0  0  1  0  0  0  0  0  0  0  0  0
   27.4722  -20.2494  -10.0168 C   0  0  0  0  0  0  0  0  0  0  0  0
   28.2858  -20.5121   -8.8117 C   0  0  0  0  0  0  0  0  0  0  0  0
   29.4761  -21.2152   -8.7795 C   0  0  0  0  0  0  0  0  0  0  0  0
   29.9387  -21.2777   -7.5264 N   0  0  0  0  0  0  0  0  0  0  0  0
   29.0726  -20.6218   -6.7022 C   0  0  0  0  0  0  0  0  0  0  0  0
   29.1235  -20.4173   -5.3417 C   0  0  0  0  0  0  0  0  0  0  0  0
   28.1102  -19.7083   -4.7467 C   0  0  0  0  0  0  0  0  0  0  0  0
   27.0768  -19.2211   -5.5065 C   0  0  0  0  0  0  0  0  0  0  0  0
   27.0569  -19.4445   -6.8682 C   0  0  0  0  0  0  0  0  0  0  0  0
   28.0496  -20.1495   -7.5083 C   0  0  0  0  0  0  0  0  0  0  0  0
   25.7979  -21.0593  -11.6446 C   0  0  0  0  0  0  0  0  0  0  0  0
   26.1391  -21.6551  -12.6924 O   0  0  0  0  0  0  0  0  0  0  0  0
   24.7245  -20.1473  -11.7045 N   0  0  0  0  0  0  0  0  0  0  0  0
   24.1886  -19.5814  -12.8985 C   0  0  0  0  0  0  0  0  0  0  0  0
   22.7186  -19.7627  -12.9168 C   0  0  0  0  0  0  0  0  0  0  0  0
   22.0905  -19.6739  -11.8333 O   0  0  0  0  0  0  0  0  0  0  0  0
   22.0029  -20.0305  -14.1058 N   0  0  0  0  0  0  0  0  0  0  0  0
   22.5568  -20.4107  -15.3771 C   0  0  0  0  0  0  0  0  0  0  0  0
   21.4573  -20.2535  -16.3930 C   0  0  0  0  0  0  0  0  0  0  0  0
   20.3266  -19.5409  -15.6738 C   0  0  0  0  0  0  0  0  0  0  0  0
   20.5711  -19.9671  -14.2461 C   0  0  1  0  0  0  0  0  0  0  0  0
   20.0273  -21.3407  -13.9910 C   0  0  0  0  0  0  0  0  0  0  0  0
   18.7056  -21.5698  -13.6502 O   0  0  0  0  0  0  0  0  0  0  0  0
   20.7863  -22.3625  -14.0832 O   0  0  0  0  0  0  0  0  0  0  0  0
  2 13  1  0
  2  1  1  6
  3  2  1  0
  4  3  1  0
  5  4  2  0
  6  7  1  0
  6  5  1  0
  7 12  2  0
  8  7  1  0
  8  9  2  0
  9 10  1  0
 10 11  2  0
 12  4  1  0
 12 11  1  0
 13 15  1  0
 14 13  2  0
 16 15  1  0
 17 16  1  0
 18 17  2  0
 19 17  1  0
 19 23  1  0
 20 21  1  0
 20 19  1  0
 21 22  1  0
 22 23  1  0
 23 24  1  6
 24 25  1  0
 26 24  2  0
M  END
$$$$
