WGP.pdb
     RDKit          3D

 26 28  0  0  1  0  0  0  0  0999 V2000
   27.2066  -20.5002  -11.6497 N   0  0  0  0  0  0  0  0  0  0  0  0
   26.1463  -21.1455  -10.9500 C   0  0  1  0  0  0  0  0  0  0  0  0
   26.1447  -21.0038   -9.4682 C   0  0  0  0  0  0  0  0  0  0  0  0
   27.4918  -20.8958   -8.8707 C   0  0  0  0  0  0  0  0  0  0  0  0
   28.6538  -21.4269   -9.3995 C   0  0  0  0  0  0  0  0  0  0  0  0
   29.6890  -21.1565   -8.5973 N   0  0  0  0  0  0  0  0  0  0  0  0
   29.2419  -20.4439   -7.5239 C   0  0  0  0  0  0  0  0  0  0  0  0
   29.9300  -19.9407   -6.4429 C   0  0  0  0  0  0  0  0  0  0  0  0
   29.2324  -19.2447   -5.4877 C   0  0  0  0  0  0  0  0  0  0  0  0
   27.8791  -19.0638   -5.6231 C   0  0  0  0  0  0  0  0  0  0  0  0
   27.2204  -19.5819   -6.7196 C   0  0  0  0  0  0  0  0  0  0  0  0
   27.8770  -20.2863   -7.7018 C   0  0  0  0  0  0  0  0  0  0  0  0
   24.8041  -20.8278  -11.5371 C   0  0  0  0  0  0  0  0  0  0  0  0
   24.4232  -19.6357  -11.4808 O   0  0  0  0  0  0  0  0  0  0  0  0
   23.9576  -21.7800  -12.1407 N   0  0  0  0  0  0  0  0  0  0  0  0
   22.6406  -21.5244  -12.6237 C   0  0  0  0  0  0  0  0  0  0  0  0
   22.7155  -20.9472  -13.9859 C   0  0  0  0  0  0  0  0  0  0  0  0
   23.8257  -20.5337  -14.4012 O   0  0  0  0  0  0  0  0  0  0  0  0
   21.5858  -20.8469  -14.8294 N   0  0  0  0  0  0  0  0  0  0  0  0
   20.2501  -21.2917  -14.5363 C   0  0  0  0  0  0  0  0  0  0  0  0
   19.4945  -21.2807  -15.8381 C   0  0  0  0  0  0  0  0  0  0  0  0
   20.5323  -21.0359  -16.9182 C   0  0  0  0  0  0  0  0  0  0  0  0
   21.5826  -20.2708  -16.1491 C   0  0  1  0  0  0  0  0  0  0  0  0
   21.2083  -18.8253  -16.0140 C   0  0  0  0  0  0  0  0  0  0  0  0
   21.4327  -17.8983  -17.0170 O   0  0  0  0  0  0  0  0  0  0  0  0
   20.6588  -18.3985  -14.9443 O   0  0  0  0  0  0  0  0  0  0  0  0
  2 13  1  0
  2  1  1  6
  3  2  1  0
  4  3  1  0
  5  4  2  0
  6  7  1  0
  6  5  1  0
  7 12  2  0
  8  7  1  0
  8  9  2  0
  9 10  1  0
 10 11  2  0
 12  4  1  0
 12 11  1  0
 13 15  1  0
 14 13  2  0
 16 15  1  0
 17 16  1  0
 18 17  2  0
 19 17  1  0
 19 23  1  0
 20 21  1  0
 20 19  1  0
 21 22  1  0
 22 23  1  0
 23 24  1  1
 24 25  1  0
 26 24  2  0
M  END
$$$$
