WGP.pdb
     RDKit          3D

 26 28  0  0  1  0  0  0  0  0999 V2000
   25.1286  -21.2387   -9.3613 N   0  0  0  0  0  0  0  0  0  0  0  0
   26.3283  -20.6439   -9.8485 C   0  0  1  0  0  0  0  0  0  0  0  0
   27.5359  -20.7840   -8.9895 C   0  0  0  0  0  0  0  0  0  0  0  0
   27.3436  -20.3255   -7.5980 C   0  0  0  0  0  0  0  0  0  0  0  0
   26.1536  -19.8798   -7.0527 C   0  0  0  0  0  0  0  0  0  0  0  0
   26.3367  -19.5288   -5.7755 N   0  0  0  0  0  0  0  0  0  0  0  0
   27.6439  -19.7320   -5.4444 C   0  0  0  0  0  0  0  0  0  0  0  0
   28.3016  -19.5216   -4.2533 C   0  0  0  0  0  0  0  0  0  0  0  0
   29.6401  -19.8162   -4.1823 C   0  0  0  0  0  0  0  0  0  0  0  0
   30.2928  -20.3092   -5.2840 C   0  0  0  0  0  0  0  0  0  0  0  0
   29.6029  -20.5081   -6.4626 C   0  0  0  0  0  0  0  0  0  0  0  0
   28.2617  -20.2269   -6.5814 C   0  0  0  0  0  0  0  0  0  0  0  0
   26.6135  -21.0257  -11.2697 C   0  0  0  0  0  0  0  0  0  0  0  0
   26.7053  -22.2485  -11.5256 O   0  0  0  0  0  0  0  0  0  0  0  0
   26.7819  -20.1007  -12.3203 N   0  0  0  0  0  0  0  0  0  0  0  0
   25.7258  -19.4774  -13.0477 C   0  0  0  0  0  0  0  0  0  0  0  0
   26.2711  -18.8507  -14.2741 C   0  0  0  0  0  0  0  0  0  0  0  0
   26.0184  -17.6403  -14.4915 O   0  0  0  0  0  0  0  0  0  0  0  0
   27.0619  -19.5649  -15.2027 N   0  0  0  0  0  0  0  0  0  0  0  0
   27.5486  -20.9108  -15.0635 C   0  0  0  0  0  0  0  0  0  0  0  0
   28.6002  -21.1028  -16.1233 C   0  0  0  0  0  0  0  0  0  0  0  0
   28.8512  -19.7269  -16.7129 C   0  0  0  0  0  0  0  0  0  0  0  0
   27.5212  -19.0550  -16.4687 C   0  0  1  0  0  0  0  0  0  0  0  0
   26.5169  -19.4491  -17.5097 C   0  0  0  0  0  0  0  0  0  0  0  0
   26.5380  -18.9432  -18.7978 O   0  0  0  0  0  0  0  0  0  0  0  0
   25.5916  -20.2824  -17.2306 O   0  0  0  0  0  0  0  0  0  0  0  0
  2 13  1  0
  2  1  1  1
  3  2  1  0
  4  3  1  0
  5  4  2  0
  6  7  1  0
  6  5  1  0
  7 12  2  0
  8  7  1  0
  8  9  2  0
  9 10  1  0
 10 11  2  0
 12  4  1  0
 12 11  1  0
 13 15  1  0
 14 13  2  0
 16 15  1  0
 17 16  1  0
 18 17  2  0
 19 17  1  0
 19 23  1  0
 20 21  1  0
 20 19  1  0
 21 22  1  0
 22 23  1  0
 23 24  1  6
 24 25  1  0
 26 24  2  0
M  END
$$$$
