WGP.pdb
     RDKit          3D

 26 28  0  0  1  0  0  0  0  0999 V2000
   26.7743  -22.5728  -12.8542 N   0  0  0  0  0  0  0  0  0  0  0  0
   25.9144  -21.5464  -12.3669 C   0  0  1  0  0  0  0  0  0  0  0  0
   26.5746  -20.3653  -11.7466 C   0  0  0  0  0  0  0  0  0  0  0  0
   27.5629  -20.7053  -10.7021 C   0  0  0  0  0  0  0  0  0  0  0  0
   28.7729  -21.3406  -10.9128 C   0  0  0  0  0  0  0  0  0  0  0  0
   29.4131  -21.5063   -9.7505 N   0  0  0  0  0  0  0  0  0  0  0  0
   28.6486  -20.9882   -8.7471 C   0  0  0  0  0  0  0  0  0  0  0  0
   28.8862  -20.9227   -7.3926 C   0  0  0  0  0  0  0  0  0  0  0  0
   27.9411  -20.3364   -6.5886 C   0  0  0  0  0  0  0  0  0  0  0  0
   26.7903  -19.8316   -7.1395 C   0  0  0  0  0  0  0  0  0  0  0  0
   26.5840  -19.9140   -8.5016 C   0  0  0  0  0  0  0  0  0  0  0  0
   27.5020  -20.4928   -9.3467 C   0  0  0  0  0  0  0  0  0  0  0  0
   24.8890  -21.1374  -13.3811 C   0  0  0  0  0  0  0  0  0  0  0  0
   25.3112  -20.6933  -14.4736 O   0  0  0  0  0  0  0  0  0  0  0  0
   23.4964  -21.2227  -13.1788 N   0  0  0  0  0  0  0  0  0  0  0  0
   22.5022  -20.9759  -14.1706 C   0  0  0  0  0  0  0  0  0  0  0  0
   21.1567  -21.1763  -13.5845 C   0  0  0  0  0  0  0  0  0  0  0  0
   20.8021  -22.3423  -13.2829 O   0  0  0  0  0  0  0  0  0  0  0  0
   20.2633  -20.1055  -13.3543 N   0  0  0  0  0  0  0  0  0  0  0  0
   20.4311  -18.7394  -13.7708 C   0  0  0  0  0  0  0  0  0  0  0  0
   19.4117  -17.9284  -13.0167 C   0  0  0  0  0  0  0  0  0  0  0  0
   18.8203  -18.8657  -11.9798 C   0  0  0  0  0  0  0  0  0  0  0  0
   19.0106  -20.2048  -12.6510 C   0  0  1  0  0  0  0  0  0  0  0  0
   17.9372  -20.4582  -13.6665 C   0  0  0  0  0  0  0  0  0  0  0  0
   16.6678  -20.8881  -13.3207 O   0  0  0  0  0  0  0  0  0  0  0  0
   18.1693  -20.2804  -14.9087 O   0  0  0  0  0  0  0  0  0  0  0  0
  2 13  1  0
  2  1  1  6
  3  2  1  0
  4  3  1  0
  5  4  2  0
  6  7  1  0
  6  5  1  0
  7 12  2  0
  8  7  1  0
  8  9  2  0
  9 10  1  0
 10 11  2  0
 12  4  1  0
 12 11  1  0
 13 15  1  0
 14 13  2  0
 16 15  1  0
 17 16  1  0
 18 17  2  0
 19 17  1  0
 19 23  1  0
 20 21  1  0
 20 19  1  0
 21 22  1  0
 22 23  1  0
 23 24  1  6
 24 25  1  0
 26 24  2  0
M  END
$$$$
