WGP.pdb
     RDKit          3D

 26 28  0  0  1  0  0  0  0  0999 V2000
   24.7601  -20.3201   -9.5135 N   0  0  0  0  0  0  0  0  0  0  0  0
   26.1782  -20.3848   -9.6363 C   0  0  1  0  0  0  0  0  0  0  0  0
   26.8928  -21.2369   -8.6467 C   0  0  0  0  0  0  0  0  0  0  0  0
   26.7392  -20.7933   -7.2456 C   0  0  0  0  0  0  0  0  0  0  0  0
   25.5453  -20.7060   -6.5534 C   0  0  0  0  0  0  0  0  0  0  0  0
   25.7652  -20.2557   -5.3137 N   0  0  0  0  0  0  0  0  0  0  0  0
   27.1015  -20.0350   -5.1541 C   0  0  0  0  0  0  0  0  0  0  0  0
   27.8020  -19.5780   -4.0605 C   0  0  0  0  0  0  0  0  0  0  0  0
   29.1643  -19.4473   -4.1623 C   0  0  0  0  0  0  0  0  0  0  0  0
   29.7981  -19.7696   -5.3357 C   0  0  0  0  0  0  0  0  0  0  0  0
   29.0652  -20.2249   -6.4129 C   0  0  0  0  0  0  0  0  0  0  0  0
   27.6986  -20.3716   -6.3581 C   0  0  0  0  0  0  0  0  0  0  0  0
   26.6124  -20.6845  -11.0394 C   0  0  0  0  0  0  0  0  0  0  0  0
   25.9029  -21.4777  -11.7002 O   0  0  0  0  0  0  0  0  0  0  0  0
   27.7573  -20.1326  -11.6496 N   0  0  0  0  0  0  0  0  0  0  0  0
   28.1286  -20.3059  -13.0153 C   0  0  0  0  0  0  0  0  0  0  0  0
   27.3630  -19.3611  -13.8611 C   0  0  0  0  0  0  0  0  0  0  0  0
   26.3861  -18.7583  -13.3526 O   0  0  0  0  0  0  0  0  0  0  0  0
   27.6931  -19.1163  -15.2134 N   0  0  0  0  0  0  0  0  0  0  0  0
   28.7408  -19.7452  -15.9714 C   0  0  0  0  0  0  0  0  0  0  0  0
   28.9171  -18.9307  -17.2250 C   0  0  0  0  0  0  0  0  0  0  0  0
   28.0832  -17.6781  -17.0267 C   0  0  0  0  0  0  0  0  0  0  0  0
   27.0222  -18.1784  -16.0759 C   0  0  1  0  0  0  0  0  0  0  0  0
   25.9466  -18.9225  -16.8087 C   0  0  0  0  0  0  0  0  0  0  0  0
   25.9268  -20.3030  -16.9066 O   0  0  0  0  0  0  0  0  0  0  0  0
   24.9958  -18.2886  -17.3768 O   0  0  0  0  0  0  0  0  0  0  0  0
  2 13  1  0
  2  1  1  6
  3  2  1  0
  4  3  1  0
  5  4  2  0
  6  7  1  0
  6  5  1  0
  7 12  2  0
  8  7  1  0
  8  9  2  0
  9 10  1  0
 10 11  2  0
 12  4  1  0
 12 11  1  0
 13 15  1  0
 14 13  2  0
 16 15  1  0
 17 16  1  0
 18 17  2  0
 19 17  1  0
 19 23  1  0
 20 21  1  0
 20 19  1  0
 21 22  1  0
 22 23  1  0
 23 24  1  6
 24 25  1  0
 26 24  2  0
M  END
$$$$
