WGP.pdb
     RDKit          3D

 26 28  0  0  1  0  0  0  0  0999 V2000
   27.2549  -22.3636  -10.3238 N   0  0  0  0  0  0  0  0  0  0  0  0
   26.4880  -21.2259   -9.9395 C   0  0  1  0  0  0  0  0  0  0  0  0
   27.2427  -20.0795   -9.3633 C   0  0  0  0  0  0  0  0  0  0  0  0
   28.2083  -20.4599   -8.3114 C   0  0  0  0  0  0  0  0  0  0  0  0
   29.3313  -21.2460   -8.4934 C   0  0  0  0  0  0  0  0  0  0  0  0
   29.9740  -21.4047   -7.3315 N   0  0  0  0  0  0  0  0  0  0  0  0
   29.2977  -20.7319   -6.3569 C   0  0  0  0  0  0  0  0  0  0  0  0
   29.5720  -20.6008   -5.0142 C   0  0  0  0  0  0  0  0  0  0  0  0
   28.7198  -19.8531   -4.2407 C   0  0  0  0  0  0  0  0  0  0  0  0
   27.6233  -19.2561   -4.8098 C   0  0  0  0  0  0  0  0  0  0  0  0
   27.3780  -19.4081   -6.1594 C   0  0  0  0  0  0  0  0  0  0  0  0
   28.2032  -20.1481   -6.9740 C   0  0  0  0  0  0  0  0  0  0  0  0
   25.5506  -20.7824  -11.0219 C   0  0  0  0  0  0  0  0  0  0  0  0
   25.9461  -20.9009  -12.2046 O   0  0  0  0  0  0  0  0  0  0  0  0
   24.2673  -20.2472  -10.7887 N   0  0  0  0  0  0  0  0  0  0  0  0
   23.3492  -19.8356  -11.7990 C   0  0  0  0  0  0  0  0  0  0  0  0
   22.0929  -20.6103  -11.6727 C   0  0  0  0  0  0  0  0  0  0  0  0
   21.9770  -21.4115  -10.7132 O   0  0  0  0  0  0  0  0  0  0  0  0
   21.0261  -20.4787  -12.5906 N   0  0  0  0  0  0  0  0  0  0  0  0
   21.0275  -19.7144  -13.8086 C   0  0  0  0  0  0  0  0  0  0  0  0
   19.5938  -19.6078  -14.2545 C   0  0  0  0  0  0  0  0  0  0  0  0
   18.7607  -20.1450  -13.1053 C   0  0  0  0  0  0  0  0  0  0  0  0
   19.7341  -21.1006  -12.4577 C   0  0  1  0  0  0  0  0  0  0  0  0
   19.7797  -22.4067  -13.1923 C   0  0  0  0  0  0  0  0  0  0  0  0
   18.8748  -23.4275  -12.9586 O   0  0  0  0  0  0  0  0  0  0  0  0
   20.6761  -22.6192  -14.0755 O   0  0  0  0  0  0  0  0  0  0  0  0
  2 13  1  0
  2  1  1  6
  3  2  1  0
  4  3  1  0
  5  4  2  0
  6  7  1  0
  6  5  1  0
  7 12  2  0
  8  7  1  0
  8  9  2  0
  9 10  1  0
 10 11  2  0
 12  4  1  0
 12 11  1  0
 13 15  1  0
 14 13  2  0
 16 15  1  0
 17 16  1  0
 18 17  2  0
 19 17  1  0
 19 23  1  0
 20 21  1  0
 20 19  1  0
 21 22  1  0
 22 23  1  0
 23 24  1  6
 24 25  1  0
 26 24  2  0
M  END
$$$$
