WGP.pdb
     RDKit          3D

 26 28  0  0  1  0  0  0  0  0999 V2000
   24.5410  -20.7757  -10.5069 N   0  0  0  0  0  0  0  0  0  0  0  0
   25.9186  -20.4114  -10.5035 C   0  0  1  0  0  0  0  0  0  0  0  0
   26.7989  -21.1498   -9.5571 C   0  0  0  0  0  0  0  0  0  0  0  0
   26.5830  -20.8041   -8.1368 C   0  0  0  0  0  0  0  0  0  0  0  0
   25.3654  -20.8086   -7.4815 C   0  0  0  0  0  0  0  0  0  0  0  0
   25.5273  -20.4310   -6.2090 N   0  0  0  0  0  0  0  0  0  0  0  0
   26.8476  -20.1688   -5.9904 C   0  0  0  0  0  0  0  0  0  0  0  0
   27.4938  -19.7563   -4.8468 C   0  0  0  0  0  0  0  0  0  0  0  0
   28.8521  -19.5659   -4.8936 C   0  0  0  0  0  0  0  0  0  0  0  0
   29.5353  -19.7866   -6.0628 C   0  0  0  0  0  0  0  0  0  0  0  0
   28.8562  -20.1998   -7.1910 C   0  0  0  0  0  0  0  0  0  0  0  0
   27.4958  -20.4032   -7.1922 C   0  0  0  0  0  0  0  0  0  0  0  0
   26.4988  -20.3761  -11.8852 C   0  0  0  0  0  0  0  0  0  0  0  0
   26.1194  -21.2604  -12.6872 O   0  0  0  0  0  0  0  0  0  0  0  0
   27.4337  -19.4182  -12.3278 N   0  0  0  0  0  0  0  0  0  0  0  0
   27.1103  -18.1621  -12.9200 C   0  0  0  0  0  0  0  0  0  0  0  0
   26.6383  -18.3751  -14.3078 C   0  0  0  0  0  0  0  0  0  0  0  0
   25.4033  -18.4711  -14.5126 O   0  0  0  0  0  0  0  0  0  0  0  0
   27.5259  -18.4734  -15.4034 N   0  0  0  0  0  0  0  0  0  0  0  0
   28.9546  -18.6255  -15.3430 C   0  0  0  0  0  0  0  0  0  0  0  0
   29.4786  -18.3454  -16.7261 C   0  0  0  0  0  0  0  0  0  0  0  0
   28.3022  -17.7966  -17.5124 C   0  0  0  0  0  0  0  0  0  0  0  0
   27.1411  -18.4375  -16.7905 C   0  0  1  0  0  0  0  0  0  0  0  0
   26.9372  -19.8522  -17.2432 C   0  0  0  0  0  0  0  0  0  0  0  0
   26.4225  -20.1718  -18.4876 O   0  0  0  0  0  0  0  0  0  0  0  0
   27.2398  -20.8253  -16.4750 O   0  0  0  0  0  0  0  0  0  0  0  0
  2 13  1  0
  2  1  1  6
  3  2  1  0
  4  3  1  0
  5  4  2  0
  6  7  1  0
  6  5  1  0
  7 12  2  0
  8  7  1  0
  8  9  2  0
  9 10  1  0
 10 11  2  0
 12  4  1  0
 12 11  1  0
 13 15  1  0
 14 13  2  0
 16 15  1  0
 17 16  1  0
 18 17  2  0
 19 17  1  0
 19 23  1  0
 20 21  1  0
 20 19  1  0
 21 22  1  0
 22 23  1  0
 23 24  1  6
 24 25  1  0
 26 24  2  0
M  END
$$$$
