WGP.pdb
     RDKit          3D

 26 28  0  0  1  0  0  0  0  0999 V2000
   24.7090  -19.7014   -9.5750 N   0  0  0  0  0  0  0  0  0  0  0  0
   26.0585  -20.0863   -9.8221 C   0  0  1  0  0  0  0  0  0  0  0  0
   26.6719  -21.0244   -8.8425 C   0  0  0  0  0  0  0  0  0  0  0  0
   26.6398  -20.5445   -7.4453 C   0  0  0  0  0  0  0  0  0  0  0  0
   25.4994  -20.2978   -6.7032 C   0  0  0  0  0  0  0  0  0  0  0  0
   25.8308  -19.8605   -5.4837 N   0  0  0  0  0  0  0  0  0  0  0  0
   27.1901  -19.8071   -5.3877 C   0  0  0  0  0  0  0  0  0  0  0  0
   27.9920  -19.4257   -4.3355 C   0  0  0  0  0  0  0  0  0  0  0  0
   29.3538  -19.4686   -4.4997 C   0  0  0  0  0  0  0  0  0  0  0  0
   29.8875  -19.8852   -5.6931 C   0  0  0  0  0  0  0  0  0  0  0  0
   29.0545  -20.2606   -6.7275 C   0  0  0  0  0  0  0  0  0  0  0  0
   27.6843  -20.2337   -6.6097 C   0  0  0  0  0  0  0  0  0  0  0  0
   26.2672  -20.5464  -11.2334 C   0  0  0  0  0  0  0  0  0  0  0  0
   25.2450  -20.7068  -11.9394 O   0  0  0  0  0  0  0  0  0  0  0  0
   27.5302  -20.8052  -11.8039 N   0  0  0  0  0  0  0  0  0  0  0  0
   28.0509  -20.1784  -12.9740 C   0  0  0  0  0  0  0  0  0  0  0  0
   27.2690  -20.6083  -14.1564 C   0  0  0  0  0  0  0  0  0  0  0  0
   26.0497  -20.8670  -14.0066 O   0  0  0  0  0  0  0  0  0  0  0  0
   27.8458  -20.7362  -15.4404 N   0  0  0  0  0  0  0  0  0  0  0  0
   29.2366  -20.5957  -15.7775 C   0  0  0  0  0  0  0  0  0  0  0  0
   29.3095  -20.4830  -17.2768 C   0  0  0  0  0  0  0  0  0  0  0  0
   27.8763  -20.3284  -17.7516 C   0  0  0  0  0  0  0  0  0  0  0  0
   27.1235  -21.0350  -16.6498 C   0  0  1  0  0  0  0  0  0  0  0  0
   27.1527  -22.5216  -16.8421 C   0  0  0  0  0  0  0  0  0  0  0  0
   26.4055  -23.1643  -17.8138 O   0  0  0  0  0  0  0  0  0  0  0  0
   27.8853  -23.2542  -16.0970 O   0  0  0  0  0  0  0  0  0  0  0  0
  2 13  1  0
  2  1  1  1
  3  2  1  0
  4  3  1  0
  5  4  2  0
  6  7  1  0
  6  5  1  0
  7 12  2  0
  8  7  1  0
  8  9  2  0
  9 10  1  0
 10 11  2  0
 12  4  1  0
 12 11  1  0
 13 15  1  0
 14 13  2  0
 16 15  1  0
 17 16  1  0
 18 17  2  0
 19 17  1  0
 19 23  1  0
 20 21  1  0
 20 19  1  0
 21 22  1  0
 22 23  1  0
 23 24  1  6
 24 25  1  0
 26 24  2  0
M  END
$$$$
