PMS.pdb
     RDKit          3D

 22 22  0  0  1  0  0  0  0  0999 V2000
   21.7460  -11.3371  -18.1795 N   0  0  0  0  0  0  0  0  0  0  0  0
   21.3104  -12.5777  -18.7886 C   0  0  0  0  0  0  0  0  0  0  0  0
   19.8012  -12.3166  -18.9016 C   0  0  0  0  0  0  0  0  0  0  0  0
   19.8655  -10.9527  -19.6024 C   0  0  0  0  0  0  0  0  0  0  0  0
   21.0477  -10.3182  -18.8916 C   0  0  1  0  0  0  0  0  0  0  0  0
   20.4484   -9.2868  -17.9642 C   0  0  0  0  0  0  0  0  0  0  0  0
   19.8446   -8.3419  -18.5318 O   0  0  0  0  0  0  0  0  0  0  0  0
   18.0768   -9.2845  -11.4272 C   0  0  0  0  0  0  0  0  0  0  0  0
   17.7604  -10.4544  -12.7613 S   0  0  0  0  0  0  0  0  0  0  0  0
   18.2329   -9.6748  -14.3381 C   0  0  0  0  0  0  0  0  0  0  0  0
   19.6791   -9.2598  -14.3044 C   0  0  0  0  0  0  0  0  0  0  0  0
   20.0298   -8.5494  -15.6209 C   0  0  2  0  0  0  0  0  0  0  0  0
   20.5977   -9.4416  -16.5719 N   0  0  0  0  0  0  0  0  0  0  0  0
   20.8815   -7.3655  -15.3588 C   0  0  0  0  0  0  0  0  0  0  0  0
   22.1147   -7.5432  -15.2967 O   0  0  0  0  0  0  0  0  0  0  0  0
   21.0767   -2.5201  -14.9354 O   0  0  0  0  0  0  0  0  0  0  0  0
   20.2921   -3.6549  -15.1123 C   0  0  0  0  0  0  0  0  0  0  0  0
   21.1735   -4.8851  -14.9705 C   0  0  2  0  0  0  0  0  0  0  0  0
   20.3749   -6.0585  -15.1776 N   0  0  0  0  0  0  0  0  0  0  0  0
   21.9059   -4.8722  -13.7109 C   0  0  0  0  0  0  0  0  0  0  0  0
   21.4788   -5.4948  -12.7137 O   0  0  0  0  0  0  0  0  0  0  0  0
   23.0886   -4.1693  -13.5975 O   0  0  0  0  0  0  0  0  0  0  0  0
  1  5  1  0
  2  1  1  0
  3  2  1  0
  3  4  1  0
  4  5  1  0
  5  6  1  1
  6  7  2  0
  8  9  1  0
  9 10  1  0
 11 10  1  0
 12 11  1  1
 12 14  1  0
 13  6  1  0
 13 12  1  0
 14 19  1  0
 14 15  2  0
 16 17  1  0
 18 17  1  1
 18 20  1  0
 19 18  1  0
 20 21  2  0
 20 22  1  0
M  END
$$$$
