PMS.pdb
     RDKit          3D

 22 22  0  0  1  0  0  0  0  0999 V2000
   24.1803  -11.3191  -15.6468 N   0  0  0  0  0  0  0  0  0  0  0  0
   24.2859  -12.7607  -15.5449 C   0  0  0  0  0  0  0  0  0  0  0  0
   22.8024  -13.1528  -15.6072 C   0  0  0  0  0  0  0  0  0  0  0  0
   22.4215  -12.3733  -16.8732 C   0  0  0  0  0  0  0  0  0  0  0  0
   23.2211  -11.0973  -16.6781 C   0  0  1  0  0  0  0  0  0  0  0  0
   22.2065  -10.0461  -16.2929 C   0  0  0  0  0  0  0  0  0  0  0  0
   21.3494   -9.7803  -17.1729 O   0  0  0  0  0  0  0  0  0  0  0  0
   17.4295  -10.6364  -11.5064 C   0  0  0  0  0  0  0  0  0  0  0  0
   18.9511   -9.6729  -11.4351 S   0  0  0  0  0  0  0  0  0  0  0  0
   19.5877   -9.4713  -13.1297 C   0  0  0  0  0  0  0  0  0  0  0  0
   20.9073   -8.7482  -13.1107 C   0  0  0  0  0  0  0  0  0  0  0  0
   21.3531   -8.4763  -14.5557 C   0  0  2  0  0  0  0  0  0  0  0  0
   22.2806   -9.4503  -15.0185 N   0  0  0  0  0  0  0  0  0  0  0  0
   21.8570   -7.0892  -14.6892 C   0  0  0  0  0  0  0  0  0  0  0  0
   23.0180   -6.8559  -14.2972 O   0  0  0  0  0  0  0  0  0  0  0  0
   21.2183   -2.7177  -16.6785 O   0  0  0  0  0  0  0  0  0  0  0  0
   20.6923   -3.9815  -16.4316 C   0  0  0  0  0  0  0  0  0  0  0  0
   21.5670   -4.6826  -15.4051 C   0  0  2  0  0  0  0  0  0  0  0  0
   21.0987   -6.0273  -15.2326 N   0  0  0  0  0  0  0  0  0  0  0  0
   21.6563   -3.9150  -14.1697 C   0  0  0  0  0  0  0  0  0  0  0  0
   20.8275   -4.0834  -13.2481 O   0  0  0  0  0  0  0  0  0  0  0  0
   22.6619   -2.9854  -13.9958 O   0  0  0  0  0  0  0  0  0  0  0  0
  1  5  1  0
  2  1  1  0
  3  2  1  0
  3  4  1  0
  4  5  1  0
  5  6  1  1
  6  7  2  0
  8  9  1  0
  9 10  1  0
 11 10  1  0
 12 11  1  1
 12 14  1  0
 13  6  1  0
 13 12  1  0
 14 19  1  0
 14 15  2  0
 16 17  1  0
 18 17  1  6
 18 20  1  0
 19 18  1  0
 20 21  2  0
 20 22  1  0
M  END
$$$$
