PMS.pdb
     RDKit          3D

 22 22  0  0  1  0  0  0  0  0999 V2000
   27.1187  -18.8049  -15.8134 N   0  0  0  0  0  0  0  0  0  0  0  0
   28.3347  -18.0322  -15.9683 C   0  0  0  0  0  0  0  0  0  0  0  0
   29.2526  -18.7565  -14.9726 C   0  0  0  0  0  0  0  0  0  0  0  0
   29.0361  -20.1901  -15.4761 C   0  0  0  0  0  0  0  0  0  0  0  0
   27.5516  -20.1632  -15.7943 C   0  0  1  0  0  0  0  0  0  0  0  0
   26.8925  -20.9533  -14.6877 C   0  0  0  0  0  0  0  0  0  0  0  0
   26.9935  -22.2021  -14.7872 O   0  0  0  0  0  0  0  0  0  0  0  0
   26.5004  -19.6986   -8.5814 C   0  0  0  0  0  0  0  0  0  0  0  0
   25.0597  -20.7810   -8.6210 S   0  0  0  0  0  0  0  0  0  0  0  0
   24.7153  -21.2221  -10.3542 C   0  0  0  0  0  0  0  0  0  0  0  0
   25.6843  -20.5287  -11.2734 C   0  0  0  0  0  0  0  0  0  0  0  0
   25.3555  -20.9035  -12.7268 C   0  0  2  0  0  0  0  0  0  0  0  0
   26.2297  -20.2674  -13.6510 N   0  0  0  0  0  0  0  0  0  0  0  0
   23.9247  -20.6485  -13.0156 C   0  0  0  0  0  0  0  0  0  0  0  0
   23.5407  -19.4618  -13.0306 O   0  0  0  0  0  0  0  0  0  0  0  0
   21.4193  -23.7699  -14.1264 O   0  0  0  0  0  0  0  0  0  0  0  0
   21.2346  -22.5140  -14.6950 C   0  0  0  0  0  0  0  0  0  0  0  0
   21.6220  -21.4547  -13.6761 C   0  0  2  0  0  0  0  0  0  0  0  0
   22.9816  -21.6696  -13.2727 N   0  0  0  0  0  0  0  0  0  0  0  0
   20.6700  -21.4035  -12.5742 C   0  0  0  0  0  0  0  0  0  0  0  0
   21.0324  -21.6427  -11.4011 O   0  0  0  0  0  0  0  0  0  0  0  0
   19.3464  -21.0885  -12.8084 O   0  0  0  0  0  0  0  0  0  0  0  0
  1  5  1  0
  2  1  1  0
  3  2  1  0
  3  4  1  0
  4  5  1  0
  5  6  1  1
  6  7  2  0
  8  9  1  0
  9 10  1  0
 11 10  1  0
 12 11  1  1
 12 14  1  0
 13  6  1  0
 13 12  1  0
 14 19  1  0
 14 15  2  0
 16 17  1  0
 18 17  1  6
 18 20  1  0
 19 18  1  0
 20 21  2  0
 20 22  1  0
M  END
$$$$
