PMS.pdb
     RDKit          3D

 22 22  0  0  1  0  0  0  0  0999 V2000
   20.7880  -11.0899  -19.0815 N   0  0  0  0  0  0  0  0  0  0  0  0
   20.7795  -12.4782  -19.4967 C   0  0  0  0  0  0  0  0  0  0  0  0
   20.8138  -13.1770  -18.1296 C   0  0  0  0  0  0  0  0  0  0  0  0
   19.6418  -12.4346  -17.4732 C   0  0  0  0  0  0  0  0  0  0  0  0
   19.8585  -11.0279  -18.0022 C   0  0  1  0  0  0  0  0  0  0  0  0
   20.3998  -10.2408  -16.8316 C   0  0  0  0  0  0  0  0  0  0  0  0
   19.6577  -10.2093  -15.8177 O   0  0  0  0  0  0  0  0  0  0  0  0
   26.3295  -11.2002  -16.8646 C   0  0  0  0  0  0  0  0  0  0  0  0
   25.7931  -10.8544  -15.1790 S   0  0  0  0  0  0  0  0  0  0  0  0
   24.0108  -10.4805  -15.2045 C   0  0  0  0  0  0  0  0  0  0  0  0
   23.7697   -9.1197  -15.8003 C   0  0  0  0  0  0  0  0  0  0  0  0
   22.2562   -8.8705  -15.8901 C   0  0  2  0  0  0  0  0  0  0  0  0
   21.6563   -9.6138  -16.9441 N   0  0  0  0  0  0  0  0  0  0  0  0
   21.9753   -7.4180  -15.9749 C   0  0  0  0  0  0  0  0  0  0  0  0
   22.2481   -6.8382  -17.0451 O   0  0  0  0  0  0  0  0  0  0  0  0
   19.3336   -3.7145  -14.7876 O   0  0  0  0  0  0  0  0  0  0  0  0
   19.6479   -5.0605  -14.6317 C   0  0  0  0  0  0  0  0  0  0  0  0
   21.1149   -5.2624  -14.9742 C   0  0  2  0  0  0  0  0  0  0  0  0
   21.4195   -6.6629  -14.9172 N   0  0  0  0  0  0  0  0  0  0  0  0
   21.9743   -4.4270  -14.1455 C   0  0  0  0  0  0  0  0  0  0  0  0
   22.6725   -4.9275  -13.2364 O   0  0  0  0  0  0  0  0  0  0  0  0
   22.0319   -3.0631  -14.3516 O   0  0  0  0  0  0  0  0  0  0  0  0
  1  5  1  0
  2  1  1  0
  3  2  1  0
  3  4  1  0
  4  5  1  0
  5  6  1  1
  6  7  2  0
  8  9  1  0
  9 10  1  0
 11 10  1  0
 12 11  1  6
 12 14  1  0
 13  6  1  0
 13 12  1  0
 14 19  1  0
 14 15  2  0
 16 17  1  0
 18 17  1  1
 18 20  1  0
 19 18  1  0
 20 21  2  0
 20 22  1  0
M  END
$$$$
