PMS.pdb
     RDKit          3D

 22 22  0  0  1  0  0  0  0  0999 V2000
   22.0832  -13.1627  -18.9777 N   0  0  0  0  0  0  0  0  0  0  0  0
   22.3040  -14.5930  -19.0508 C   0  0  0  0  0  0  0  0  0  0  0  0
   22.2793  -14.9543  -17.5584 C   0  0  0  0  0  0  0  0  0  0  0  0
   20.9543  -14.2736  -17.1888 C   0  0  0  0  0  0  0  0  0  0  0  0
   21.0402  -13.0049  -18.0185 C   0  0  1  0  0  0  0  0  0  0  0  0
   21.3403  -11.9020  -17.0302 C   0  0  0  0  0  0  0  0  0  0  0  0
   20.5663  -11.8427  -16.0418 O   0  0  0  0  0  0  0  0  0  0  0  0
   27.5591  -11.9020  -14.7808 C   0  0  0  0  0  0  0  0  0  0  0  0
   26.7880  -10.5656  -15.7126 S   0  0  0  0  0  0  0  0  0  0  0  0
   24.9929  -10.8670  -15.7777 C   0  0  0  0  0  0  0  0  0  0  0  0
   24.2872   -9.6933  -16.4016 C   0  0  0  0  0  0  0  0  0  0  0  0
   22.7743   -9.9611  -16.4082 C   0  0  2  0  0  0  0  0  0  0  0  0
   22.4287  -11.0398  -17.2684 N   0  0  0  0  0  0  0  0  0  0  0  0
   22.0301   -8.7168  -16.7143 C   0  0  0  0  0  0  0  0  0  0  0  0
   22.0788   -8.2874  -17.8844 O   0  0  0  0  0  0  0  0  0  0  0  0
   18.6418   -7.6987  -14.9239 O   0  0  0  0  0  0  0  0  0  0  0  0
   19.0573   -7.1426  -16.1292 C   0  0  0  0  0  0  0  0  0  0  0  0
   20.5344   -6.7994  -16.0254 C   0  0  2  0  0  0  0  0  0  0  0  0
   21.2751   -7.9985  -15.7593 N   0  0  0  0  0  0  0  0  0  0  0  0
   20.7649   -5.7263  -15.0669 C   0  0  0  0  0  0  0  0  0  0  0  0
   21.4747   -5.9121  -14.0539 O   0  0  0  0  0  0  0  0  0  0  0  0
   20.2008   -4.4816  -15.2625 O   0  0  0  0  0  0  0  0  0  0  0  0
  1  5  1  0
  2  1  1  0
  3  2  1  0
  3  4  1  0
  4  5  1  0
  5  6  1  1
  6  7  2  0
  8  9  1  0
  9 10  1  0
 11 10  1  0
 12 11  1  6
 12 14  1  0
 13  6  1  0
 13 12  1  0
 14 19  1  0
 14 15  2  0
 16 17  1  0
 18 17  1  1
 18 20  1  0
 19 18  1  0
 20 21  2  0
 20 22  1  0
M  END
$$$$
