PMS.pdb
     RDKit          3D

 22 22  0  0  1  0  0  0  0  0999 V2000
   26.8657  -18.6570  -16.1076 N   0  0  0  0  0  0  0  0  0  0  0  0
   28.1987  -18.0889  -16.1258 C   0  0  0  0  0  0  0  0  0  0  0  0
   28.8918  -18.9735  -15.0790 C   0  0  0  0  0  0  0  0  0  0  0  0
   28.4971  -20.3420  -15.6509 C   0  0  0  0  0  0  0  0  0  0  0  0
   27.0724  -20.0677  -16.0987 C   0  0  1  0  0  0  0  0  0  0  0  0
   26.1949  -20.7634  -15.0843 C   0  0  0  0  0  0  0  0  0  0  0  0
   26.1789  -22.0178  -15.1599 O   0  0  0  0  0  0  0  0  0  0  0  0
   26.6979  -20.7704   -9.4317 C   0  0  0  0  0  0  0  0  0  0  0  0
   25.2565  -21.7234   -9.9442 S   0  0  0  0  0  0  0  0  0  0  0  0
   24.0678  -20.5931  -10.7360 C   0  0  0  0  0  0  0  0  0  0  0  0
   24.7450  -19.7944  -11.8169 C   0  0  0  0  0  0  0  0  0  0  0  0
   24.6417  -20.5577  -13.1464 C   0  0  2  0  0  0  0  0  0  0  0  0
   25.4751  -19.9921  -14.1506 N   0  0  0  0  0  0  0  0  0  0  0  0
   23.2258  -20.6727  -13.5680 C   0  0  0  0  0  0  0  0  0  0  0  0
   22.6066  -19.6168  -13.8081 O   0  0  0  0  0  0  0  0  0  0  0  0
   21.7168  -23.8248  -15.5582 O   0  0  0  0  0  0  0  0  0  0  0  0
   20.9125  -23.4976  -14.4716 C   0  0  0  0  0  0  0  0  0  0  0  0
   21.1713  -22.0490  -14.0909 C   0  0  2  0  0  0  0  0  0  0  0  0
   22.5469  -21.9042  -13.7114 N   0  0  0  0  0  0  0  0  0  0  0  0
   20.2203  -21.5844  -13.0894 C   0  0  0  0  0  0  0  0  0  0  0  0
   18.9971  -21.5261  -13.3440 O   0  0  0  0  0  0  0  0  0  0  0  0
   20.6563  -21.1993  -11.8374 O   0  0  0  0  0  0  0  0  0  0  0  0
  1  5  1  0
  2  1  1  0
  3  2  1  0
  3  4  1  0
  4  5  1  0
  5  6  1  1
  6  7  2  0
  8  9  1  0
  9 10  1  0
 11 10  1  0
 12 11  1  1
 12 14  1  0
 13  6  1  0
 13 12  1  0
 14 19  1  0
 14 15  2  0
 16 17  1  0
 18 17  1  1
 18 20  1  0
 19 18  1  0
 20 21  2  0
 20 22  1  0
M  END
$$$$
