PMS.pdb
     RDKit          3D

 22 22  0  0  1  0  0  0  0  0999 V2000
   18.9370  -22.5766  -13.1645 N   0  0  0  0  0  0  0  0  0  0  0  0
   18.1168  -23.0404  -12.0635 C   0  0  0  0  0  0  0  0  0  0  0  0
   18.5486  -22.0597  -10.9634 C   0  0  0  0  0  0  0  0  0  0  0  0
   18.3428  -20.7523  -11.7407 C   0  0  0  0  0  0  0  0  0  0  0  0
   18.8357  -21.1552  -13.1191 C   0  0  1  0  0  0  0  0  0  0  0  0
   20.1813  -20.4853  -13.2727 C   0  0  0  0  0  0  0  0  0  0  0  0
   20.1696  -19.2318  -13.1819 O   0  0  0  0  0  0  0  0  0  0  0  0
   25.9081  -21.1916  -10.2911 C   0  0  0  0  0  0  0  0  0  0  0  0
   26.2856  -21.5452  -12.0178 S   0  0  0  0  0  0  0  0  0  0  0  0
   25.0121  -20.7643  -13.0597 C   0  0  0  0  0  0  0  0  0  0  0  0
   23.6923  -21.4668  -12.8884 C   0  0  0  0  0  0  0  0  0  0  0  0
   22.6216  -20.7345  -13.7119 C   0  0  2  0  0  0  0  0  0  0  0  0
   21.3241  -21.2772  -13.5001 N   0  0  0  0  0  0  0  0  0  0  0  0
   23.0056  -20.6969  -15.1426 C   0  0  0  0  0  0  0  0  0  0  0  0
   23.0810  -21.7841  -15.7495 O   0  0  0  0  0  0  0  0  0  0  0  0
   24.4698  -17.2635  -16.7557 O   0  0  0  0  0  0  0  0  0  0  0  0
   23.6904  -17.9756  -17.6614 C   0  0  0  0  0  0  0  0  0  0  0  0
   23.6538  -19.4337  -17.2337 C   0  0  2  0  0  0  0  0  0  0  0  0
   23.2878  -19.5054  -15.8487 N   0  0  0  0  0  0  0  0  0  0  0  0
   24.8993  -20.1154  -17.5615 C   0  0  0  0  0  0  0  0  0  0  0  0
   25.6812  -20.4919  -16.6607 O   0  0  0  0  0  0  0  0  0  0  0  0
   25.2377  -20.3577  -18.8777 O   0  0  0  0  0  0  0  0  0  0  0  0
  1  5  1  0
  2  1  1  0
  3  2  1  0
  3  4  1  0
  4  5  1  0
  5  6  1  1
  6  7  2  0
  8  9  1  0
  9 10  1  0
 11 10  1  0
 12 11  1  1
 12 14  1  0
 13  6  1  0
 13 12  1  0
 14 19  1  0
 14 15  2  0
 16 17  1  0
 18 17  1  1
 18 20  1  0
 19 18  1  0
 20 21  2  0
 20 22  1  0
M  END
$$$$
