PMS.pdb
     RDKit          3D

 22 22  0  0  1  0  0  0  0  0999 V2000
   18.5240   -9.1356  -12.8623 N   0  0  0  0  0  0  0  0  0  0  0  0
   18.8031  -10.4561  -13.3897 C   0  0  0  0  0  0  0  0  0  0  0  0
   17.3814  -11.0321  -13.4627 C   0  0  0  0  0  0  0  0  0  0  0  0
   16.7181   -9.8842  -14.2361 C   0  0  0  0  0  0  0  0  0  0  0  0
   17.3929   -8.6810  -13.6016 C   0  0  1  0  0  0  0  0  0  0  0  0
   16.3436   -8.0602  -12.7091 C   0  0  0  0  0  0  0  0  0  0  0  0
   15.3206   -7.6332  -13.3012 O   0  0  0  0  0  0  0  0  0  0  0  0
   11.5145  -10.5409   -8.6525 C   0  0  0  0  0  0  0  0  0  0  0  0
   13.2418  -10.1289   -8.3435 S   0  0  0  0  0  0  0  0  0  0  0  0
   13.7730   -8.9002   -9.5785 C   0  0  0  0  0  0  0  0  0  0  0  0
   15.2063   -8.5065   -9.3427 C   0  0  0  0  0  0  0  0  0  0  0  0
   15.6237   -7.4702  -10.3974 C   0  0  2  0  0  0  0  0  0  0  0  0
   16.5680   -8.0003  -11.3195 N   0  0  0  0  0  0  0  0  0  0  0  0
   16.0913   -6.2257   -9.7429 C   0  0  0  0  0  0  0  0  0  0  0  0
   17.0300   -6.3195   -8.9267 O   0  0  0  0  0  0  0  0  0  0  0  0
   14.7775   -2.5672  -11.0772 O   0  0  0  0  0  0  0  0  0  0  0  0
   16.0267   -2.6443  -10.4704 C   0  0  0  0  0  0  0  0  0  0  0  0
   15.9847   -3.7237   -9.4010 C   0  0  2  0  0  0  0  0  0  0  0  0
   15.5352   -4.9505   -9.9929 N   0  0  0  0  0  0  0  0  0  0  0  0
   15.2090   -3.2958   -8.2440 C   0  0  0  0  0  0  0  0  0  0  0  0
   14.2132   -3.9490   -7.8617 O   0  0  0  0  0  0  0  0  0  0  0  0
   15.5627   -2.1574   -7.5479 O   0  0  0  0  0  0  0  0  0  0  0  0
  1  5  1  0
  2  1  1  0
  3  2  1  0
  3  4  1  0
  4  5  1  0
  5  6  1  1
  6  7  2  0
  8  9  1  0
  9 10  1  0
 11 10  1  0
 12 11  1  1
 12 14  1  0
 13  6  1  0
 13 12  1  0
 14 19  1  0
 14 15  2  0
 16 17  1  0
 18 17  1  6
 18 20  1  0
 19 18  1  0
 20 21  2  0
 20 22  1  0
M  END
$$$$
