PMS.pdb
     RDKit          3D

 22 22  0  0  1  0  0  0  0  0999 V2000
   27.1372  -19.3234  -15.0843 N   0  0  0  0  0  0  0  0  0  0  0  0
   28.4699  -18.7549  -15.0662 C   0  0  0  0  0  0  0  0  0  0  0  0
   29.1069  -19.5765  -13.9358 C   0  0  0  0  0  0  0  0  0  0  0  0
   28.7407  -20.9764  -14.4477 C   0  0  0  0  0  0  0  0  0  0  0  0
   27.3414  -20.7309  -14.9836 C   0  0  1  0  0  0  0  0  0  0  0  0
   26.4117  -21.3686  -13.9776 C   0  0  0  0  0  0  0  0  0  0  0  0
   26.2611  -22.6105  -14.0989 O   0  0  0  0  0  0  0  0  0  0  0  0
   26.2285  -19.2607   -8.1385 C   0  0  0  0  0  0  0  0  0  0  0  0
   26.3469  -21.0472   -8.3465 S   0  0  0  0  0  0  0  0  0  0  0  0
   26.1084  -21.4411  -10.1087 C   0  0  0  0  0  0  0  0  0  0  0  0
   24.9914  -20.6127  -10.6839 C   0  0  0  0  0  0  0  0  0  0  0  0
   24.7581  -21.0274  -12.1448 C   0  0  2  0  0  0  0  0  0  0  0  0
   25.7936  -20.5623  -13.0017 N   0  0  0  0  0  0  0  0  0  0  0  0
   23.4079  -20.6108  -12.5913 C   0  0  0  0  0  0  0  0  0  0  0  0
   23.1697  -19.3877  -12.6476 O   0  0  0  0  0  0  0  0  0  0  0  0
   20.9992  -23.3267  -14.3978 O   0  0  0  0  0  0  0  0  0  0  0  0
   20.8106  -21.9846  -14.7109 C   0  0  0  0  0  0  0  0  0  0  0  0
   21.1019  -21.1491  -13.4750 C   0  0  2  0  0  0  0  0  0  0  0  0
   22.3862  -21.5179  -12.9537 N   0  0  0  0  0  0  0  0  0  0  0  0
   20.0150  -21.2331  -12.5081 C   0  0  0  0  0  0  0  0  0  0  0  0
   20.2135  -21.6785  -11.3563 O   0  0  0  0  0  0  0  0  0  0  0  0
   18.7426  -20.8204  -12.8495 O   0  0  0  0  0  0  0  0  0  0  0  0
  1  5  1  0
  2  1  1  0
  3  2  1  0
  3  4  1  0
  4  5  1  0
  5  6  1  1
  6  7  2  0
  8  9  1  0
  9 10  1  0
 11 10  1  0
 12 11  1  1
 12 14  1  0
 13  6  1  0
 13 12  1  0
 14 19  1  0
 14 15  2  0
 16 17  1  0
 18 17  1  6
 18 20  1  0
 19 18  1  0
 20 21  2  0
 20 22  1  0
M  END
$$$$
