PMS.pdb
     RDKit          3D

 22 22  0  0  1  0  0  0  0  0999 V2000
   21.3306  -15.5901  -18.9509 N   0  0  0  0  0  0  0  0  0  0  0  0
   21.2566  -17.0372  -18.9644 C   0  0  0  0  0  0  0  0  0  0  0  0
   21.3137  -17.3322  -17.4584 C   0  0  0  0  0  0  0  0  0  0  0  0
   20.1936  -16.3855  -17.0058 C   0  0  0  0  0  0  0  0  0  0  0  0
   20.4428  -15.1908  -17.9093 C   0  0  1  0  0  0  0  0  0  0  0  0
   21.0537  -14.1362  -17.0161 C   0  0  0  0  0  0  0  0  0  0  0  0
   20.3500  -13.7934  -16.0328 O   0  0  0  0  0  0  0  0  0  0  0  0
   27.6827  -10.3685  -15.9644 C   0  0  0  0  0  0  0  0  0  0  0  0
   26.9656  -11.9948  -15.6650 S   0  0  0  0  0  0  0  0  0  0  0  0
   25.1520  -11.8300  -15.6328 C   0  0  0  0  0  0  0  0  0  0  0  0
   24.5194  -12.8218  -16.5714 C   0  0  0  0  0  0  0  0  0  0  0  0
   22.9933  -12.6478  -16.5336 C   0  0  2  0  0  0  0  0  0  0  0  0
   22.3271  -13.6210  -17.3286 N   0  0  0  0  0  0  0  0  0  0  0  0
   22.6222  -11.2582  -16.8900 C   0  0  0  0  0  0  0  0  0  0  0  0
   22.9165  -10.8568  -18.0338 O   0  0  0  0  0  0  0  0  0  0  0  0
   19.5496   -9.2676  -15.1569 O   0  0  0  0  0  0  0  0  0  0  0  0
   20.0820   -8.9163  -16.3929 C   0  0  0  0  0  0  0  0  0  0  0  0
   21.5967   -9.0196  -16.3196 C   0  0  2  0  0  0  0  0  0  0  0  0
   21.9583  -10.3728  -16.0106 N   0  0  0  0  0  0  0  0  0  0  0  0
   22.1539   -8.0268  -15.4101 C   0  0  0  0  0  0  0  0  0  0  0  0
   21.9792   -6.8044  -15.6090 O   0  0  0  0  0  0  0  0  0  0  0  0
   22.8871   -8.4215  -14.3090 O   0  0  0  0  0  0  0  0  0  0  0  0
  1  5  1  0
  2  1  1  0
  3  2  1  0
  3  4  1  0
  4  5  1  0
  5  6  1  1
  6  7  2  0
  8  9  1  0
  9 10  1  0
 11 10  1  0
 12 11  1  6
 12 14  1  0
 13  6  1  0
 13 12  1  0
 14 19  1  0
 14 15  2  0
 16 17  1  0
 18 17  1  1
 18 20  1  0
 19 18  1  0
 20 21  2  0
 20 22  1  0
M  END
$$$$
