PMS.pdb
     RDKit          3D

 22 22  0  0  1  0  0  0  0  0999 V2000
   26.9679  -19.2834  -14.0744 N   0  0  0  0  0  0  0  0  0  0  0  0
   28.2118  -18.8490  -14.6776 C   0  0  0  0  0  0  0  0  0  0  0  0
   29.2212  -19.6394  -13.8320 C   0  0  0  0  0  0  0  0  0  0  0  0
   28.5939  -21.0318  -13.9847 C   0  0  0  0  0  0  0  0  0  0  0  0
   27.1158  -20.6921  -13.9117 C   0  0  1  0  0  0  0  0  0  0  0  0
   26.6673  -21.1557  -12.5453 C   0  0  0  0  0  0  0  0  0  0  0  0
   26.7591  -22.3926  -12.3420 O   0  0  0  0  0  0  0  0  0  0  0  0
   28.3226  -19.9262   -5.9282 C   0  0  0  0  0  0  0  0  0  0  0  0
   27.0151  -19.1822   -6.9211 S   0  0  0  0  0  0  0  0  0  0  0  0
   26.6900  -20.2616   -8.3516 C   0  0  0  0  0  0  0  0  0  0  0  0
   25.7093  -19.6088   -9.2880 C   0  0  0  0  0  0  0  0  0  0  0  0
   25.4318  -20.5553  -10.4661 C   0  0  2  0  0  0  0  0  0  0  0  0
   26.1913  -20.2084  -11.6175 N   0  0  0  0  0  0  0  0  0  0  0  0
   23.9767  -20.6328  -10.7355 C   0  0  0  0  0  0  0  0  0  0  0  0
   23.5481  -20.0672  -11.7614 O   0  0  0  0  0  0  0  0  0  0  0  0
   19.6387  -22.2448   -9.2015 O   0  0  0  0  0  0  0  0  0  0  0  0
   20.9906  -22.0630   -8.9290 C   0  0  0  0  0  0  0  0  0  0  0  0
   21.6448  -21.3942  -10.1269 C   0  0  2  0  0  0  0  0  0  0  0  0
   23.0583  -21.3077   -9.8995 N   0  0  0  0  0  0  0  0  0  0  0  0
   21.0079  -20.1212  -10.4386 C   0  0  0  0  0  0  0  0  0  0  0  0
   19.8610  -20.0821  -10.9363 O   0  0  0  0  0  0  0  0  0  0  0  0
   21.6634  -18.9323  -10.1884 O   0  0  0  0  0  0  0  0  0  0  0  0
  1  5  1  0
  2  1  1  0
  3  2  1  0
  3  4  1  0
  4  5  1  0
  5  6  1  1
  6  7  2  0
  8  9  1  0
  9 10  1  0
 11 10  1  0
 12 11  1  1
 12 14  1  0
 13  6  1  0
 13 12  1  0
 14 19  1  0
 14 15  2  0
 16 17  1  0
 18 17  1  1
 18 20  1  0
 19 18  1  0
 20 21  2  0
 20 22  1  0
M  END
$$$$
