PMS.pdb
     RDKit          3D

 22 22  0  0  1  0  0  0  0  0999 V2000
  -32.6326   11.4349  -23.6538 N   0  0  0  0  0  0  0  0  0  0  0  0
  -32.2633   12.5060  -24.5572 C   0  0  0  0  0  0  0  0  0  0  0  0
  -30.7898   12.6999  -24.1703 C   0  0  0  0  0  0  0  0  0  0  0  0
  -30.3372   11.2380  -24.2872 C   0  0  0  0  0  0  0  0  0  0  0  0
  -31.5447   10.5155  -23.7168 C   0  0  1  0  0  0  0  0  0  0  0  0
  -31.1177   10.0468  -22.3453 C   0  0  0  0  0  0  0  0  0  0  0  0
  -30.0715    9.3507  -22.3183 O   0  0  0  0  0  0  0  0  0  0  0  0
  -33.4468    4.1993  -20.3029 C   0  0  0  0  0  0  0  0  0  0  0  0
  -32.4583    5.5222  -19.5808 S   0  0  0  0  0  0  0  0  0  0  0  0
  -33.1973    7.1190  -20.0511 C   0  0  0  0  0  0  0  0  0  0  0  0
  -32.1205    8.1345  -20.3231 C   0  0  0  0  0  0  0  0  0  0  0  0
  -32.7708    9.5062  -20.5606 C   0  0  2  0  0  0  0  0  0  0  0  0
  -31.8896   10.4052  -21.2227 N   0  0  0  0  0  0  0  0  0  0  0  0
  -33.3059   10.0516  -19.2910 C   0  0  0  0  0  0  0  0  0  0  0  0
  -33.9623    9.2810  -18.5621 O   0  0  0  0  0  0  0  0  0  0  0  0
  -36.0892   11.0656  -18.1974 O   0  0  0  0  0  0  0  0  0  0  0  0
  -35.3613   12.1901  -18.5722 C   0  0  0  0  0  0  0  0  0  0  0  0
  -33.9713   12.0973  -17.9641 C   0  0  2  0  0  0  0  0  0  0  0  0
  -33.1130   11.3861  -18.8667 N   0  0  0  0  0  0  0  0  0  0  0  0
  -34.0163   11.5439  -16.6169 C   0  0  0  0  0  0  0  0  0  0  0  0
  -34.1063   12.2918  -15.6184 O   0  0  0  0  0  0  0  0  0  0  0  0
  -33.9601   10.1786  -16.4201 O   0  0  0  0  0  0  0  0  0  0  0  0
  1  5  1  0
  2  1  1  0
  3  2  1  0
  3  4  1  0
  4  5  1  0
  5  6  1  1
  6  7  2  0
  8  9  1  0
  9 10  1  0
 11 10  1  0
 12 11  1  1
 12 14  1  0
 13  6  1  0
 13 12  1  0
 14 19  1  0
 14 15  2  0
 16 17  1  0
 18 17  1  6
 18 20  1  0
 19 18  1  0
 20 21  2  0
 20 22  1  0
M  END
$$$$
