GTV.pdb
     RDKit          3D

 19 18  0  0  1  0  0  0  0  0999 V2000
   11.8744  -16.3320   19.5034 N   0  0  0  0  0  0  0  0  0  0  0  0
   10.7150  -17.1070   19.8900 C   0  0  0  0  0  0  0  0  0  0  0  0
    9.6870  -16.2342   20.4833 C   0  0  0  0  0  0  0  0  0  0  0  0
    9.1954  -15.3065   19.7965 O   0  0  0  0  0  0  0  0  0  0  0  0
    6.4712  -17.1201   21.0514 C   0  0  0  0  0  0  0  0  0  0  0  0
    6.8899  -16.6201   22.4041 C   0  0  1  0  0  0  0  0  0  0  0  0
    7.0586  -17.6767   23.2619 O   0  0  0  0  0  0  0  0  0  0  0  0
    8.1127  -15.7318   22.3532 C   0  0  2  0  0  0  0  0  0  0  0  0
    9.2456  -16.4254   21.8147 N   0  0  0  0  0  0  0  0  0  0  0  0
    8.4576  -15.1200   23.6537 C   0  0  0  0  0  0  0  0  0  0  0  0
    9.5713  -15.3935   24.1633 O   0  0  0  0  0  0  0  0  0  0  0  0
    6.7496  -11.6675   25.2613 C   0  0  0  0  0  0  0  0  0  0  0  0
    6.9251  -12.8064   26.2416 C   0  0  2  0  0  0  0  0  0  0  0  0
    7.3693  -12.3027   27.5872 C   0  0  0  0  0  0  0  0  0  0  0  0
    7.9510  -13.8136   25.7277 C   0  0  2  0  0  0  0  0  0  0  0  0
    7.6154  -14.2371   24.3762 N   0  0  0  0  0  0  0  0  0  0  0  0
    7.9105  -14.9735   26.6423 C   0  0  0  0  0  0  0  0  0  0  0  0
    8.8177  -15.0320   27.6814 O   0  0  0  0  0  0  0  0  0  0  0  0
    7.0841  -15.9051   26.5101 O   0  0  0  0  0  0  0  0  0  0  0  0
  2  1  1  0
  3  2  1  0
  3  4  2  0
  6  5  1  6
  6  8  1  0
  7  6  1  0
  8  9  1  1
  9  3  1  0
 10  8  1  0
 11 10  2  0
 13 12  1  6
 13 14  1  0
 15 13  1  0
 15 16  1  6
 16 10  1  0
 17 15  1  0
 18 17  1  0
 19 17  2  0
M  END
$$$$
