GTV.pdb
     RDKit          3D

 19 18  0  0  1  0  0  0  0  0999 V2000
    8.1119  -15.9078   18.0752 N   0  0  0  0  0  0  0  0  0  0  0  0
    8.8455  -15.2810   19.1537 C   0  0  0  0  0  0  0  0  0  0  0  0
    8.2231  -15.5970   20.4511 C   0  0  0  0  0  0  0  0  0  0  0  0
    7.0398  -16.0128   20.4817 O   0  0  0  0  0  0  0  0  0  0  0  0
    8.3457  -18.2813   22.2115 C   0  0  0  0  0  0  0  0  0  0  0  0
    8.8222  -17.2938   23.2377 C   0  0  1  0  0  0  0  0  0  0  0  0
   10.1780  -17.4123   23.4070 O   0  0  0  0  0  0  0  0  0  0  0  0
    8.4132  -15.8721   22.9241 C   0  0  2  0  0  0  0  0  0  0  0  0
    8.9382  -15.4391   21.6626 N   0  0  0  0  0  0  0  0  0  0  0  0
    8.7652  -14.9046   23.9845 C   0  0  0  0  0  0  0  0  0  0  0  0
    9.8746  -14.3223   23.9144 O   0  0  0  0  0  0  0  0  0  0  0  0
    5.9844  -13.3896   26.8180 C   0  0  0  0  0  0  0  0  0  0  0  0
    7.2561  -12.6589   26.4467 C   0  0  2  0  0  0  0  0  0  0  0  0
    7.0380  -11.7515   25.2674 C   0  0  0  0  0  0  0  0  0  0  0  0
    8.3724  -13.6451   26.1116 C   0  0  2  0  0  0  0  0  0  0  0  0
    7.9338  -14.5810   25.0868 N   0  0  0  0  0  0  0  0  0  0  0  0
    8.6892  -14.3754   27.3564 C   0  0  0  0  0  0  0  0  0  0  0  0
    9.2934  -13.6914   28.3924 O   0  0  0  0  0  0  0  0  0  0  0  0
    8.4302  -15.5914   27.5068 O   0  0  0  0  0  0  0  0  0  0  0  0
  2  1  1  0
  3  2  1  0
  3  4  2  0
  6  5  1  6
  6  8  1  0
  7  6  1  0
  8  9  1  6
  9  3  1  0
 10  8  1  0
 11 10  2  0
 13 12  1  6
 13 14  1  0
 15 13  1  0
 15 16  1  6
 16 10  1  0
 17 15  1  0
 18 17  1  0
 19 17  2  0
M  END
$$$$
