GTV.pdb
     RDKit          3D

 19 18  0  0  1  0  0  0  0  0999 V2000
   12.3463  -15.8156   19.3962 N   0  0  0  0  0  0  0  0  0  0  0  0
   11.6654  -16.3092   20.5739 C   0  0  0  0  0  0  0  0  0  0  0  0
   10.8478  -15.2440   21.1800 C   0  0  0  0  0  0  0  0  0  0  0  0
   11.3218  -14.0869   21.2834 O   0  0  0  0  0  0  0  0  0  0  0  0
    7.6392  -13.6654   20.1570 C   0  0  0  0  0  0  0  0  0  0  0  0
    7.4350  -14.2815   21.5112 C   0  0  1  0  0  0  0  0  0  0  0  0
    6.7124  -15.4412   21.3935 O   0  0  0  0  0  0  0  0  0  0  0  0
    8.7288  -14.4949   22.2644 C   0  0  2  0  0  0  0  0  0  0  0  0
    9.5372  -15.5048   21.6472 N   0  0  0  0  0  0  0  0  0  0  0  0
    8.5388  -14.7969   23.6987 C   0  0  0  0  0  0  0  0  0  0  0  0
    8.9899  -15.8800   24.1436 O   0  0  0  0  0  0  0  0  0  0  0  0
    5.6401  -12.8093   26.0603 C   0  0  0  0  0  0  0  0  0  0  0  0
    6.8987  -13.2702   26.7620 C   0  0  2  0  0  0  0  0  0  0  0  0
    7.8687  -12.1351   26.9412 C   0  0  0  0  0  0  0  0  0  0  0  0
    7.5830  -14.3854   25.9752 C   0  0  2  0  0  0  0  0  0  0  0  0
    7.8784  -13.9446   24.6198 N   0  0  0  0  0  0  0  0  0  0  0  0
    6.6436  -15.5254   25.9392 C   0  0  0  0  0  0  0  0  0  0  0  0
    6.4260  -16.2436   27.0982 O   0  0  0  0  0  0  0  0  0  0  0  0
    6.0376  -15.8644   24.8970 O   0  0  0  0  0  0  0  0  0  0  0  0
  2  1  1  0
  3  2  1  0
  3  4  2  0
  6  5  1  6
  6  8  1  0
  7  6  1  0
  8  9  1  6
  9  3  1  0
 10  8  1  0
 11 10  2  0
 13 12  1  6
 13 14  1  0
 15 13  1  0
 15 16  1  6
 16 10  1  0
 17 15  1  0
 18 17  1  0
 19 17  2  0
M  END
$$$$
