GTV.pdb
     RDKit          3D

 19 18  0  0  1  0  0  0  0  0999 V2000
    7.5319  -17.4054   18.3322 N   0  0  0  0  0  0  0  0  0  0  0  0
    8.2354  -16.5972   19.3049 C   0  0  0  0  0  0  0  0  0  0  0  0
    7.5586  -16.6599   20.6121 C   0  0  0  0  0  0  0  0  0  0  0  0
    6.5447  -17.3865   20.7466 O   0  0  0  0  0  0  0  0  0  0  0  0
    7.5523  -18.6826   22.5391 C   0  0  0  0  0  0  0  0  0  0  0  0
    8.1043  -17.6246   23.4507 C   0  0  1  0  0  0  0  0  0  0  0  0
    9.4695  -17.7342   23.5221 O   0  0  0  0  0  0  0  0  0  0  0  0
    7.6681  -16.2283   23.0674 C   0  0  2  0  0  0  0  0  0  0  0  0
    8.0336  -15.9141   21.7175 N   0  0  0  0  0  0  0  0  0  0  0  0
    8.1562  -15.1795   23.9874 C   0  0  0  0  0  0  0  0  0  0  0  0
    9.2374  -14.6041   23.7139 O   0  0  0  0  0  0  0  0  0  0  0  0
    5.9014  -12.3431   25.4400 C   0  0  0  0  0  0  0  0  0  0  0  0
    6.8032  -12.8581   26.5402 C   0  0  2  0  0  0  0  0  0  0  0  0
    7.3448  -11.7292   27.3732 C   0  0  0  0  0  0  0  0  0  0  0  0
    7.9730  -13.6490   25.9595 C   0  0  2  0  0  0  0  0  0  0  0  0
    7.4866  -14.7698   25.1683 N   0  0  0  0  0  0  0  0  0  0  0  0
    8.7650  -14.1475   27.1030 C   0  0  0  0  0  0  0  0  0  0  0  0
    9.5348  -13.2521   27.8185 O   0  0  0  0  0  0  0  0  0  0  0  0
    8.7640  -15.3516   27.4473 O   0  0  0  0  0  0  0  0  0  0  0  0
  2  1  1  0
  3  2  1  0
  3  4  2  0
  6  5  1  6
  6  8  1  0
  7  6  1  0
  8  9  1  6
  9  3  1  0
 10  8  1  0
 11 10  2  0
 13 12  1  6
 13 14  1  0
 15 13  1  0
 15 16  1  1
 16 10  1  0
 17 15  1  0
 18 17  1  0
 19 17  2  0
M  END
$$$$
