GTV.pdb
     RDKit          3D

 19 18  0  0  1  0  0  0  0  0999 V2000
   12.1669  -16.8274   19.7858 N   0  0  0  0  0  0  0  0  0  0  0  0
   11.1951  -17.2043   20.7897 C   0  0  0  0  0  0  0  0  0  0  0  0
   10.4168  -16.0295   21.2192 C   0  0  0  0  0  0  0  0  0  0  0  0
   10.8186  -14.8801   20.9165 O   0  0  0  0  0  0  0  0  0  0  0  0
    7.1640  -14.6117   20.4320 C   0  0  0  0  0  0  0  0  0  0  0  0
    7.1339  -14.9270   21.9000 C   0  0  1  0  0  0  0  0  0  0  0  0
    6.3710  -16.0445   22.1230 O   0  0  0  0  0  0  0  0  0  0  0  0
    8.5139  -15.0538   22.5054 C   0  0  2  0  0  0  0  0  0  0  0  0
    9.2240  -16.1766   21.9673 N   0  0  0  0  0  0  0  0  0  0  0  0
    8.5123  -15.1089   23.9823 C   0  0  0  0  0  0  0  0  0  0  0  0
    9.0552  -16.0923   24.5417 O   0  0  0  0  0  0  0  0  0  0  0  0
    5.8945  -12.7380   26.3352 C   0  0  0  0  0  0  0  0  0  0  0  0
    7.2375  -13.0935   26.9343 C   0  0  2  0  0  0  0  0  0  0  0  0
    8.2127  -11.9569   26.7973 C   0  0  0  0  0  0  0  0  0  0  0  0
    7.8237  -14.3315   26.2597 C   0  0  2  0  0  0  0  0  0  0  0  0
    7.9375  -14.1227   24.8238 N   0  0  0  0  0  0  0  0  0  0  0  0
    6.8971  -15.4496   26.5329 C   0  0  0  0  0  0  0  0  0  0  0  0
    6.9594  -16.0791   27.7602 O   0  0  0  0  0  0  0  0  0  0  0  0
    6.0576  -15.8474   25.6931 O   0  0  0  0  0  0  0  0  0  0  0  0
  2  1  1  0
  3  2  1  0
  3  4  2  0
  6  5  1  6
  6  8  1  0
  7  6  1  0
  8  9  1  6
  9  3  1  0
 10  8  1  0
 11 10  2  0
 13 12  1  6
 13 14  1  0
 15 13  1  0
 15 16  1  6
 16 10  1  0
 17 15  1  0
 18 17  1  0
 19 17  2  0
M  END
$$$$
