GTV.pdb
     RDKit          3D

 19 18  0  0  1  0  0  0  0  0999 V2000
    4.2053  -21.1253   23.1174 N   0  0  0  0  0  0  0  0  0  0  0  0
    4.5221  -19.7473   22.8091 C   0  0  0  0  0  0  0  0  0  0  0  0
    5.4543  -19.1975   23.8087 C   0  0  0  0  0  0  0  0  0  0  0  0
    5.5596  -19.7577   24.9264 O   0  0  0  0  0  0  0  0  0  0  0  0
    8.7146  -19.5760   23.9964 C   0  0  0  0  0  0  0  0  0  0  0  0
    8.6193  -18.0774   24.0143 C   0  0  1  0  0  0  0  0  0  0  0  0
    9.0132  -17.5690   22.8030 O   0  0  0  0  0  0  0  0  0  0  0  0
    7.2511  -17.5772   24.4199 C   0  0  2  0  0  0  0  0  0  0  0  0
    6.2323  -18.0486   23.5285 N   0  0  0  0  0  0  0  0  0  0  0  0
    7.1718  -16.1077   24.5567 C   0  0  0  0  0  0  0  0  0  0  0  0
    6.6604  -15.4494   23.6187 O   0  0  0  0  0  0  0  0  0  0  0  0
    7.4107  -13.7422   28.0523 C   0  0  0  0  0  0  0  0  0  0  0  0
    7.0809  -13.2084   26.6757 C   0  0  2  0  0  0  0  0  0  0  0  0
    5.6139  -13.3471   26.3752 C   0  0  0  0  0  0  0  0  0  0  0  0
    7.8772  -13.9451   25.6012 C   0  0  2  0  0  0  0  0  0  0  0  0
    7.6348  -15.3781   25.6811 N   0  0  0  0  0  0  0  0  0  0  0  0
    9.3052  -13.6622   25.8543 C   0  0  0  0  0  0  0  0  0  0  0  0
    9.7669  -12.3721   25.6848 O   0  0  0  0  0  0  0  0  0  0  0  0
   10.1121  -14.5487   26.2167 O   0  0  0  0  0  0  0  0  0  0  0  0
  2  1  1  0
  3  2  1  0
  3  4  2  0
  6  5  1  6
  6  8  1  0
  7  6  1  0
  8  9  1  6
  9  3  1  0
 10  8  1  0
 11 10  2  0
 13 12  1  1
 13 14  1  0
 15 13  1  0
 15 16  1  1
 16 10  1  0
 17 15  1  0
 18 17  1  0
 19 17  2  0
M  END
$$$$
