GTV.pdb
     RDKit          3D

 19 18  0  0  1  0  0  0  0  0999 V2000
    4.9733  -17.7440   19.5853 N   0  0  0  0  0  0  0  0  0  0  0  0
    5.7697  -16.6157   20.0176 C   0  0  0  0  0  0  0  0  0  0  0  0
    6.3867  -16.8926   21.3265 C   0  0  0  0  0  0  0  0  0  0  0  0
    5.9095  -17.7969   22.0535 O   0  0  0  0  0  0  0  0  0  0  0  0
    9.2521  -18.5016   22.1371 C   0  0  0  0  0  0  0  0  0  0  0  0
    9.4434  -17.1869   22.8373 C   0  0  1  0  0  0  0  0  0  0  0  0
   10.3863  -16.4392   22.1796 O   0  0  0  0  0  0  0  0  0  0  0  0
    8.1506  -16.4261   23.0289 C   0  0  2  0  0  0  0  0  0  0  0  0
    7.5082  -16.1553   21.7765 N   0  0  0  0  0  0  0  0  0  0  0  0
    8.3048  -15.1781   23.8056 C   0  0  0  0  0  0  0  0  0  0  0  0
    8.7180  -14.1537   23.2101 O   0  0  0  0  0  0  0  0  0  0  0  0
    5.9673  -12.9327   25.5494 C   0  0  0  0  0  0  0  0  0  0  0  0
    7.0156  -13.2977   26.5773 C   0  0  2  0  0  0  0  0  0  0  0  0
    7.3661  -12.1170   27.4403 C   0  0  0  0  0  0  0  0  0  0  0  0
    8.2852  -13.8101   25.9016 C   0  0  2  0  0  0  0  0  0  0  0  0
    8.0170  -15.0502   25.1883 N   0  0  0  0  0  0  0  0  0  0  0  0
    9.2752  -14.0503   26.9720 C   0  0  0  0  0  0  0  0  0  0  0  0
    9.8459  -12.9640   27.6049 O   0  0  0  0  0  0  0  0  0  0  0  0
    9.6158  -15.2021   27.3264 O   0  0  0  0  0  0  0  0  0  0  0  0
  2  1  1  0
  3  2  1  0
  3  4  2  0
  6  5  1  6
  6  8  1  0
  7  6  1  0
  8  9  1  6
  9  3  1  0
 10  8  1  0
 11 10  2  0
 13 12  1  6
 13 14  1  0
 15 13  1  0
 15 16  1  1
 16 10  1  0
 17 15  1  0
 18 17  1  0
 19 17  2  0
M  END
$$$$
