GTV.pdb
     RDKit          3D

 19 18  0  0  1  0  0  0  0  0999 V2000
   -0.4533  -20.0891   22.3381 N   0  0  0  0  0  0  0  0  0  0  0  0
    0.5349  -19.3652   23.1084 C   0  0  0  0  0  0  0  0  0  0  0  0
    1.8908  -19.6615   22.6142 C   0  0  0  0  0  0  0  0  0  0  0  0
    2.1246  -20.7758   22.0873 O   0  0  0  0  0  0  0  0  0  0  0  0
    3.7451  -17.8142   20.0417 C   0  0  0  0  0  0  0  0  0  0  0  0
    4.6719  -17.9050   21.2200 C   0  0  1  0  0  0  0  0  0  0  0  0
    4.8127  -16.6707   21.8007 O   0  0  0  0  0  0  0  0  0  0  0  0
    4.2525  -18.9573   22.2218 C   0  0  2  0  0  0  0  0  0  0  0  0
    2.9331  -18.7099   22.7244 N   0  0  0  0  0  0  0  0  0  0  0  0
    5.2035  -19.1254   23.3406 C   0  0  0  0  0  0  0  0  0  0  0  0
    4.9767  -18.5120   24.4116 O   0  0  0  0  0  0  0  0  0  0  0  0
    8.6255  -21.6075   25.8321 C   0  0  0  0  0  0  0  0  0  0  0  0
    7.7402  -21.4787   24.6121 C   0  0  2  0  0  0  0  0  0  0  0  0
    8.4668  -21.9019   23.3652 C   0  0  0  0  0  0  0  0  0  0  0  0
    7.2582  -20.0403   24.4389 C   0  0  2  0  0  0  0  0  0  0  0  0
    6.3652  -19.9373   23.2941 N   0  0  0  0  0  0  0  0  0  0  0  0
    8.4587  -19.2082   24.2161 C   0  0  0  0  0  0  0  0  0  0  0  0
    8.7339  -18.7683   22.9366 O   0  0  0  0  0  0  0  0  0  0  0  0
    9.2357  -18.8872   25.1443 O   0  0  0  0  0  0  0  0  0  0  0  0
  2  1  1  0
  3  2  1  0
  3  4  2  0
  6  5  1  6
  6  8  1  0
  7  6  1  0
  8  9  1  1
  9  3  1  0
 10  8  1  0
 11 10  2  0
 13 12  1  1
 13 14  1  0
 15 13  1  0
 15 16  1  6
 16 10  1  0
 17 15  1  0
 18 17  1  0
 19 17  2  0
M  END
$$$$
