GTV.pdb
     RDKit          3D

 19 18  0  0  1  0  0  0  0  0999 V2000
   11.7552  -16.9943   19.4672 N   0  0  0  0  0  0  0  0  0  0  0  0
   11.1581  -17.2071   20.7682 C   0  0  0  0  0  0  0  0  0  0  0  0
   10.3887  -16.0207   21.1816 C   0  0  0  0  0  0  0  0  0  0  0  0
   10.7482  -14.8852   20.7872 O   0  0  0  0  0  0  0  0  0  0  0  0
    7.0714  -14.6837   20.5114 C   0  0  0  0  0  0  0  0  0  0  0  0
    7.1327  -14.9393   21.9900 C   0  0  1  0  0  0  0  0  0  0  0  0
    6.4199  -16.0693   22.2995 O   0  0  0  0  0  0  0  0  0  0  0  0
    8.5473  -14.9994   22.5209 C   0  0  2  0  0  0  0  0  0  0  0  0
    9.2515  -16.1413   22.0159 N   0  0  0  0  0  0  0  0  0  0  0  0
    8.6310  -14.9575   23.9959 C   0  0  0  0  0  0  0  0  0  0  0  0
    9.3709  -15.7901   24.5740 O   0  0  0  0  0  0  0  0  0  0  0  0
    5.8198  -12.8439   26.3377 C   0  0  0  0  0  0  0  0  0  0  0  0
    7.2154  -12.9775   26.9063 C   0  0  2  0  0  0  0  0  0  0  0  0
    8.0145  -11.7224   26.6881 C   0  0  0  0  0  0  0  0  0  0  0  0
    7.9537  -14.1509   26.2666 C   0  0  2  0  0  0  0  0  0  0  0  0
    7.9306  -14.0364   24.8157 N   0  0  0  0  0  0  0  0  0  0  0  0
    7.2502  -15.3812   26.6847 C   0  0  0  0  0  0  0  0  0  0  0  0
    6.4711  -16.0477   25.7600 O   0  0  0  0  0  0  0  0  0  0  0  0
    7.3343  -15.8418   27.8462 O   0  0  0  0  0  0  0  0  0  0  0  0
  2  1  1  0
  3  2  1  0
  3  4  2  0
  6  5  1  6
  6  8  1  0
  7  6  1  0
  8  9  1  1
  9  3  1  0
 10  8  1  0
 11 10  2  0
 13 12  1  6
 13 14  1  0
 15 13  1  0
 15 16  1  6
 16 10  1  0
 17 15  1  0
 18 17  1  0
 19 17  2  0
M  END
$$$$
