SHT.pdb
     RDKit          3D

 24 24  0  0  1  0  0  0  0  0999 V2000
    4.4737  -20.0063   21.3291 O   0  0  0  0  0  0  0  0  0  0  0  0
    5.8477  -19.8166   21.5234 C   0  0  0  0  0  0  0  0  0  0  0  0
    6.2730  -18.6356   20.6752 C   0  0  2  0  0  0  0  0  0  0  0  0
    6.9765  -19.1007   19.4985 N   0  0  0  0  0  0  0  0  0  0  0  0
    7.1706  -17.7311   21.4250 C   0  0  0  0  0  0  0  0  0  0  0  0
    8.3835  -18.0204   21.5319 O   0  0  0  0  0  0  0  0  0  0  0  0
    6.7055  -16.5261   22.0401 N   0  0  0  0  0  0  0  0  0  0  0  0
    7.5917  -15.6516   22.7846 C   0  0  1  0  0  0  0  0  0  0  0  0
    7.2585  -14.2436   22.4107 C   0  0  0  0  0  0  0  0  0  0  0  0
    7.8392  -13.9016   21.0859 C   0  0  0  0  0  0  0  0  0  0  0  0
    8.6088  -14.6414   20.2451 C   0  0  0  0  0  0  0  0  0  0  0  0
    8.8697  -13.8706   19.1767 N   0  0  0  0  0  0  0  0  0  0  0  0
    8.2782  -12.6761   19.3429 C   0  0  0  0  0  0  0  0  0  0  0  0
    7.6536  -12.7045   20.5074 N   0  0  0  0  0  0  0  0  0  0  0  0
    7.5299  -15.9657   24.1982 C   0  0  0  0  0  0  0  0  0  0  0  0
    6.4085  -16.0039   24.7758 O   0  0  0  0  0  0  0  0  0  0  0  0
    6.3509  -17.8729   25.6202 C   0  0  0  0  0  0  0  0  0  0  0  0
    7.7005  -18.1382   26.2546 C   0  0  1  0  0  0  0  0  0  0  0  0
    8.4231  -19.0533   25.5268 O   0  0  0  0  0  0  0  0  0  0  0  0
    8.5053  -16.8590   26.3299 C   0  0  2  0  0  0  0  0  0  0  0  0
    8.6519  -16.2446   25.0245 N   0  0  0  0  0  0  0  0  0  0  0  0
    9.8403  -17.0720   26.9098 C   0  0  0  0  0  0  0  0  0  0  0  0
   10.8556  -16.9631   26.1998 O   0  0  0  0  0  0  0  0  0  0  0  0
    9.9672  -17.3929   28.2426 O   0  0  0  0  0  0  0  0  0  0  0  0
  2  1  1  0
  3  2  1  0
  3  5  1  0
  3  4  1  6
  5  6  2  0
  5  7  1  0
  7  8  1  0
  8 15  1  0
  8  9  1  1
 10  9  1  0
 11 10  2  0
 12 11  1  0
 13 12  1  0
 13 14  2  0
 14 10  1  0
 15 16  2  0
 15 21  1  0
 18 17  1  6
 18 19  1  0
 20 22  1  0
 20 18  1  0
 20 21  1  6
 22 24  1  0
 23 22  2  0
M  END
$$$$
