SHT.pdb
     RDKit          3D

 24 24  0  0  1  0  0  0  0  0999 V2000
    6.7226  -15.5921   18.7702 O   0  0  0  0  0  0  0  0  0  0  0  0
    8.0116  -15.1681   19.1167 C   0  0  0  0  0  0  0  0  0  0  0  0
    8.6500  -16.2659   19.9427 C   0  0  2  0  0  0  0  0  0  0  0  0
    8.6098  -17.5174   19.2161 N   0  0  0  0  0  0  0  0  0  0  0  0
    7.9421  -16.4524   21.2273 C   0  0  0  0  0  0  0  0  0  0  0  0
    7.1067  -17.3776   21.3388 O   0  0  0  0  0  0  0  0  0  0  0  0
    8.1748  -15.6105   22.3603 N   0  0  0  0  0  0  0  0  0  0  0  0
    7.8058  -16.0115   23.7046 C   0  0  1  0  0  0  0  0  0  0  0  0
    8.3958  -17.3619   23.9529 C   0  0  0  0  0  0  0  0  0  0  0  0
    8.1255  -17.8040   25.3461 C   0  0  0  0  0  0  0  0  0  0  0  0
    7.4366  -17.1926   26.3451 C   0  0  0  0  0  0  0  0  0  0  0  0
    7.4862  -18.0105   27.4092 N   0  0  0  0  0  0  0  0  0  0  0  0
    8.1892  -19.1085   27.0858 C   0  0  0  0  0  0  0  0  0  0  0  0
    8.5740  -18.9737   25.8285 N   0  0  0  0  0  0  0  0  0  0  0  0
    8.1683  -14.9754   24.6511 C   0  0  0  0  0  0  0  0  0  0  0  0
    9.3005  -14.4250   24.5634 O   0  0  0  0  0  0  0  0  0  0  0  0
    6.3944  -11.6698   25.2344 C   0  0  0  0  0  0  0  0  0  0  0  0
    6.5802  -12.3441   26.5780 C   0  0  1  0  0  0  0  0  0  0  0  0
    5.4400  -13.0061   26.9663 O   0  0  0  0  0  0  0  0  0  0  0  0
    7.7063  -13.3524   26.5075 C   0  0  2  0  0  0  0  0  0  0  0  0
    7.3404  -14.5040   25.7055 N   0  0  0  0  0  0  0  0  0  0  0  0
    8.1282  -13.8130   27.8393 C   0  0  0  0  0  0  0  0  0  0  0  0
    8.0589  -15.0189   28.1355 O   0  0  0  0  0  0  0  0  0  0  0  0
    8.6015  -12.9069   28.7616 O   0  0  0  0  0  0  0  0  0  0  0  0
  2  1  1  0
  3  2  1  0
  3  5  1  0
  3  4  1  6
  5  6  2  0
  5  7  1  0
  7  8  1  0
  8 15  1  0
  8  9  1  1
 10  9  1  0
 11 10  2  0
 12 11  1  0
 13 12  1  0
 13 14  2  0
 14 10  1  0
 15 16  2  0
 15 21  1  0
 18 17  1  6
 18 19  1  0
 20 22  1  0
 20 18  1  0
 20 21  1  6
 22 24  1  0
 23 22  2  0
M  END
$$$$
