SHT.pdb
     RDKit          3D

 24 24  0  0  1  0  0  0  0  0999 V2000
    9.0613  -15.4886   18.5619 O   0  0  0  0  0  0  0  0  0  0  0  0
    7.7512  -14.9945   18.5283 C   0  0  0  0  0  0  0  0  0  0  0  0
    7.7595  -13.6260   19.1780 C   0  0  2  0  0  0  0  0  0  0  0  0
    8.6735  -12.7510   18.4747 N   0  0  0  0  0  0  0  0  0  0  0  0
    8.1874  -13.7046   20.5911 C   0  0  0  0  0  0  0  0  0  0  0  0
    9.3650  -13.4075   20.8930 O   0  0  0  0  0  0  0  0  0  0  0  0
    7.3019  -14.1104   21.6390 N   0  0  0  0  0  0  0  0  0  0  0  0
    7.6966  -14.0780   23.0344 C   0  0  1  0  0  0  0  0  0  0  0  0
    6.5484  -13.5291   23.8177 C   0  0  0  0  0  0  0  0  0  0  0  0
    6.9683  -13.2045   25.2061 C   0  0  0  0  0  0  0  0  0  0  0  0
    8.1835  -13.3098   25.8050 C   0  0  0  0  0  0  0  0  0  0  0  0
    8.0315  -12.8871   27.0707 N   0  0  0  0  0  0  0  0  0  0  0  0
    6.7520  -12.5253   27.2614 C   0  0  0  0  0  0  0  0  0  0  0  0
    6.1129  -12.7220   26.1213 N   0  0  0  0  0  0  0  0  0  0  0  0
    8.1821  -15.3804   23.4456 C   0  0  0  0  0  0  0  0  0  0  0  0
    7.4915  -16.4063   23.1944 O   0  0  0  0  0  0  0  0  0  0  0  0
   10.7915  -17.3352   22.1749 C   0  0  0  0  0  0  0  0  0  0  0  0
   11.0918  -17.3339   23.6595 C   0  0  1  0  0  0  0  0  0  0  0  0
   12.0790  -16.4288   23.9685 O   0  0  0  0  0  0  0  0  0  0  0  0
    9.8530  -16.9623   24.4450 C   0  0  2  0  0  0  0  0  0  0  0  0
    9.4049  -15.6198   24.1287 N   0  0  0  0  0  0  0  0  0  0  0  0
   10.0602  -17.0664   25.8976 C   0  0  0  0  0  0  0  0  0  0  0  0
   10.0218  -16.0476   26.6098 O   0  0  0  0  0  0  0  0  0  0  0  0
   10.2976  -18.2953   26.4714 O   0  0  0  0  0  0  0  0  0  0  0  0
  2  1  1  0
  3  2  1  0
  3  5  1  0
  3  4  1  6
  5  6  2  0
  5  7  1  0
  7  8  1  0
  8 15  1  0
  8  9  1  1
 10  9  1  0
 11 10  2  0
 12 11  1  0
 13 12  1  0
 13 14  2  0
 14 10  1  0
 15 16  2  0
 15 21  1  0
 18 17  1  6
 18 19  1  0
 20 22  1  0
 20 18  1  0
 20 21  1  1
 22 24  1  0
 23 22  2  0
M  END
$$$$
