SHT.pdb
     RDKit          3D

 24 24  0  0  1  0  0  0  0  0999 V2000
    9.7233  -14.9481   19.9755 O   0  0  0  0  0  0  0  0  0  0  0  0
    9.8489  -16.3317   20.1531 C   0  0  0  0  0  0  0  0  0  0  0  0
    8.4638  -16.9361   20.0478 C   0  0  2  0  0  0  0  0  0  0  0  0
    7.8962  -16.6464   18.7478 N   0  0  0  0  0  0  0  0  0  0  0  0
    7.5589  -16.3892   21.0813 C   0  0  0  0  0  0  0  0  0  0  0  0
    6.6357  -15.6156   20.7414 O   0  0  0  0  0  0  0  0  0  0  0  0
    7.6960  -16.7111   22.4685 N   0  0  0  0  0  0  0  0  0  0  0  0
    6.8145  -16.1547   23.4774 C   0  0  1  0  0  0  0  0  0  0  0  0
    6.0314  -17.2826   24.0670 C   0  0  0  0  0  0  0  0  0  0  0  0
    6.9339  -18.2480   24.7476 C   0  0  0  0  0  0  0  0  0  0  0  0
    8.2863  -18.2454   24.8793 C   0  0  0  0  0  0  0  0  0  0  0  0
    8.6109  -19.3421   25.5834 N   0  0  0  0  0  0  0  0  0  0  0  0
    7.4893  -20.0164   25.8862 C   0  0  0  0  0  0  0  0  0  0  0  0
    6.4741  -19.3430   25.3734 N   0  0  0  0  0  0  0  0  0  0  0  0
    7.5739  -15.3499   24.4137 C   0  0  0  0  0  0  0  0  0  0  0  0
    8.8333  -15.3322   24.3359 O   0  0  0  0  0  0  0  0  0  0  0  0
    7.0848  -11.5101   25.4048 C   0  0  0  0  0  0  0  0  0  0  0  0
    7.1406  -12.4058   26.6250 C   0  0  1  0  0  0  0  0  0  0  0  0
    5.8796  -12.7057   27.0823 O   0  0  0  0  0  0  0  0  0  0  0  0
    7.8388  -13.7058   26.2899 C   0  0  2  0  0  0  0  0  0  0  0  0
    7.0148  -14.5509   25.4472 N   0  0  0  0  0  0  0  0  0  0  0  0
    8.2224  -14.4604   27.4929 C   0  0  0  0  0  0  0  0  0  0  0  0
    7.7401  -15.5869   27.7052 O   0  0  0  0  0  0  0  0  0  0  0  0
    9.1181  -13.9186   28.3872 O   0  0  0  0  0  0  0  0  0  0  0  0
  2  1  1  0
  3  2  1  0
  3  5  1  0
  3  4  1  6
  5  6  2  0
  5  7  1  0
  7  8  1  0
  8 15  1  0
  8  9  1  1
 10  9  1  0
 11 10  2  0
 12 11  1  0
 13 12  1  0
 13 14  2  0
 14 10  1  0
 15 16  2  0
 15 21  1  0
 18 17  1  6
 18 19  1  0
 20 22  1  0
 20 18  1  0
 20 21  1  6
 22 24  1  0
 23 22  2  0
M  END
$$$$
