SHT.pdb
     RDKit          3D

 24 24  0  0  1  0  0  0  0  0999 V2000
    8.9460  -14.9973   19.0688 O   0  0  0  0  0  0  0  0  0  0  0  0
    9.2279  -15.6950   20.2500 C   0  0  0  0  0  0  0  0  0  0  0  0
    8.0931  -16.6694   20.4901 C   0  0  2  0  0  0  0  0  0  0  0  0
    7.0600  -16.4794   19.4939 N   0  0  0  0  0  0  0  0  0  0  0  0
    7.4907  -16.4741   21.8262 C   0  0  0  0  0  0  0  0  0  0  0  0
    6.3438  -15.9813   21.9160 O   0  0  0  0  0  0  0  0  0  0  0  0
    8.1714  -16.8287   23.0335 N   0  0  0  0  0  0  0  0  0  0  0  0
    7.5558  -16.6714   24.3375 C   0  0  1  0  0  0  0  0  0  0  0  0
    7.7812  -17.9363   25.1008 C   0  0  0  0  0  0  0  0  0  0  0  0
    6.9011  -19.0202   24.5909 C   0  0  0  0  0  0  0  0  0  0  0  0
    6.0181  -19.0238   23.5580 C   0  0  0  0  0  0  0  0  0  0  0  0
    5.4761  -20.2518   23.5136 N   0  0  0  0  0  0  0  0  0  0  0  0
    6.0062  -21.0006   24.4948 C   0  0  0  0  0  0  0  0  0  0  0  0
    6.8721  -20.2426   25.1448 N   0  0  0  0  0  0  0  0  0  0  0  0
    8.0286  -15.4552   24.9685 C   0  0  0  0  0  0  0  0  0  0  0  0
    9.1970  -15.0450   24.7252 O   0  0  0  0  0  0  0  0  0  0  0  0
    6.3029  -11.8411   25.3468 C   0  0  0  0  0  0  0  0  0  0  0  0
    6.7624  -12.3981   26.6783 C   0  0  1  0  0  0  0  0  0  0  0  0
    5.7207  -12.9758   27.3641 O   0  0  0  0  0  0  0  0  0  0  0  0
    7.8263  -13.4531   26.4666 C   0  0  2  0  0  0  0  0  0  0  0  0
    7.2745  -14.6526   25.8666 N   0  0  0  0  0  0  0  0  0  0  0  0
    8.5100  -13.8161   27.7174 C   0  0  0  0  0  0  0  0  0  0  0  0
    8.5246  -14.9988   28.1021 O   0  0  0  0  0  0  0  0  0  0  0  0
    9.1361  -12.8444   28.4652 O   0  0  0  0  0  0  0  0  0  0  0  0
  2  1  1  0
  3  2  1  0
  3  5  1  0
  3  4  1  6
  5  6  2  0
  5  7  1  0
  7  8  1  0
  8 15  1  0
  8  9  1  1
 10  9  1  0
 11 10  2  0
 12 11  1  0
 13 12  1  0
 13 14  2  0
 14 10  1  0
 15 16  2  0
 15 21  1  0
 18 17  1  6
 18 19  1  0
 20 22  1  0
 20 18  1  0
 20 21  1  1
 22 24  1  0
 23 22  2  0
M  END
$$$$
