SHT.pdb
     RDKit          3D

 24 24  0  0  1  0  0  0  0  0999 V2000
    6.7884  -13.6858   18.7141 O   0  0  0  0  0  0  0  0  0  0  0  0
    7.7806  -12.7310   18.4580 C   0  0  0  0  0  0  0  0  0  0  0  0
    8.9266  -13.4348   17.7608 C   0  0  2  0  0  0  0  0  0  0  0  0
    8.5410  -13.7885   16.4110 N   0  0  0  0  0  0  0  0  0  0  0  0
    9.3101  -14.6725   18.4731 C   0  0  0  0  0  0  0  0  0  0  0  0
    9.1858  -15.7760   17.8959 O   0  0  0  0  0  0  0  0  0  0  0  0
    9.8226  -14.6612   19.8087 N   0  0  0  0  0  0  0  0  0  0  0  0
   10.0989  -15.8853   20.5363 C   0  0  1  0  0  0  0  0  0  0  0  0
   11.0470  -16.6970   19.7145 C   0  0  0  0  0  0  0  0  0  0  0  0
   12.2259  -15.8834   19.3176 C   0  0  0  0  0  0  0  0  0  0  0  0
   12.6132  -14.6433   19.7157 C   0  0  0  0  0  0  0  0  0  0  0  0
   13.7506  -14.3614   19.0595 N   0  0  0  0  0  0  0  0  0  0  0  0
   14.0693  -15.3995   18.2688 C   0  0  0  0  0  0  0  0  0  0  0  0
   13.1357  -16.3206   18.4327 N   0  0  0  0  0  0  0  0  0  0  0  0
   10.5301  -15.5768   21.8853 C   0  0  0  0  0  0  0  0  0  0  0  0
   11.2020  -14.5297   22.0965 O   0  0  0  0  0  0  0  0  0  0  0  0
    8.1759  -14.2202   23.0887 C   0  0  0  0  0  0  0  0  0  0  0  0
    8.2675  -15.3779   24.0612 C   0  0  1  0  0  0  0  0  0  0  0  0
    7.5646  -16.4682   23.6072 O   0  0  0  0  0  0  0  0  0  0  0  0
    9.7104  -15.7945   24.2463 C   0  0  2  0  0  0  0  0  0  0  0  0
   10.2583  -16.3696   23.0329 N   0  0  0  0  0  0  0  0  0  0  0  0
    9.8778  -16.7552   25.3476 C   0  0  0  0  0  0  0  0  0  0  0  0
   10.2106  -17.9295   25.1085 O   0  0  0  0  0  0  0  0  0  0  0  0
    9.6657  -16.3540   26.6474 O   0  0  0  0  0  0  0  0  0  0  0  0
  2  1  1  0
  3  2  1  0
  3  5  1  0
  3  4  1  6
  5  6  2  0
  5  7  1  0
  7  8  1  0
  8 15  1  0
  8  9  1  6
 10  9  1  0
 11 10  2  0
 12 11  1  0
 13 12  1  0
 13 14  2  0
 14 10  1  0
 15 16  2  0
 15 21  1  0
 18 17  1  6
 18 19  1  0
 20 22  1  0
 20 18  1  0
 20 21  1  6
 22 24  1  0
 23 22  2  0
M  END
$$$$
