SHT.pdb
     RDKit          3D

 24 24  0  0  1  0  0  0  0  0999 V2000
    7.6945  -14.8893   19.6339 O   0  0  0  0  0  0  0  0  0  0  0  0
    7.8985  -16.1413   19.0402 C   0  0  0  0  0  0  0  0  0  0  0  0
    9.2007  -16.6981   19.5781 C   0  0  2  0  0  0  0  0  0  0  0  0
    9.5471  -17.9135   18.8720 N   0  0  0  0  0  0  0  0  0  0  0  0
    9.0962  -17.0126   21.0191 C   0  0  0  0  0  0  0  0  0  0  0  0
    8.7918  -18.1737   21.3731 O   0  0  0  0  0  0  0  0  0  0  0  0
    9.3310  -16.0345   22.0363 N   0  0  0  0  0  0  0  0  0  0  0  0
    9.3132  -16.3730   23.4468 C   0  0  1  0  0  0  0  0  0  0  0  0
   10.5024  -17.2355   23.7210 C   0  0  0  0  0  0  0  0  0  0  0  0
   10.1720  -18.6684   23.5039 C   0  0  0  0  0  0  0  0  0  0  0  0
    9.2474  -19.4594   24.1088 C   0  0  0  0  0  0  0  0  0  0  0  0
    9.3507  -20.6762   23.5498 N   0  0  0  0  0  0  0  0  0  0  0  0
   10.3167  -20.6493   22.6167 C   0  0  0  0  0  0  0  0  0  0  0  0
   10.8105  -19.4235   22.5961 N   0  0  0  0  0  0  0  0  0  0  0  0
    9.2026  -15.1694   24.2469 C   0  0  0  0  0  0  0  0  0  0  0  0
   10.0708  -14.2619   24.1237 O   0  0  0  0  0  0  0  0  0  0  0  0
    6.5720  -11.8905   26.8086 C   0  0  0  0  0  0  0  0  0  0  0  0
    6.6411  -13.2592   26.1634 C   0  0  1  0  0  0  0  0  0  0  0  0
    5.9553  -13.2851   24.9726 O   0  0  0  0  0  0  0  0  0  0  0  0
    8.0799  -13.6352   25.8837 C   0  0  2  0  0  0  0  0  0  0  0  0
    8.1730  -14.9054   25.1899 N   0  0  0  0  0  0  0  0  0  0  0  0
    8.8889  -13.7010   27.1104 C   0  0  0  0  0  0  0  0  0  0  0  0
    9.3386  -14.7911   27.5057 O   0  0  0  0  0  0  0  0  0  0  0  0
    9.1496  -12.5528   27.8239 O   0  0  0  0  0  0  0  0  0  0  0  0
  2  1  1  0
  3  2  1  0
  3  5  1  0
  3  4  1  6
  5  6  2  0
  5  7  1  0
  7  8  1  0
  8 15  1  0
  8  9  1  1
 10  9  1  0
 11 10  2  0
 12 11  1  0
 13 12  1  0
 13 14  2  0
 14 10  1  0
 15 16  2  0
 15 21  1  0
 18 17  1  6
 18 19  1  0
 20 22  1  0
 20 18  1  0
 20 21  1  1
 22 24  1  0
 23 22  2  0
M  END
$$$$
