SHT.pdb
     RDKit          3D

 24 24  0  0  1  0  0  0  0  0999 V2000
    8.3935  -13.1863   17.2129 O   0  0  0  0  0  0  0  0  0  0  0  0
    8.3750  -14.2177   16.2655 C   0  0  0  0  0  0  0  0  0  0  0  0
    9.8120  -14.5956   15.9697 C   0  0  2  0  0  0  0  0  0  0  0  0
    9.8528  -15.6186   14.9462 N   0  0  0  0  0  0  0  0  0  0  0  0
   10.4892  -15.1185   17.1756 C   0  0  0  0  0  0  0  0  0  0  0  0
   10.3304  -16.3176   17.4969 O   0  0  0  0  0  0  0  0  0  0  0  0
   11.3272  -14.3023   17.9990 N   0  0  0  0  0  0  0  0  0  0  0  0
   11.8869  -14.7880   19.2461 C   0  0  1  0  0  0  0  0  0  0  0  0
   13.3032  -14.3173   19.3211 C   0  0  0  0  0  0  0  0  0  0  0  0
   14.1471  -15.0340   18.3294 C   0  0  0  0  0  0  0  0  0  0  0  0
   14.7333  -14.5881   17.1874 C   0  0  0  0  0  0  0  0  0  0  0  0
   15.3877  -15.6319   16.6526 N   0  0  0  0  0  0  0  0  0  0  0  0
   15.2162  -16.7067   17.4398 C   0  0  0  0  0  0  0  0  0  0  0  0
   14.4600  -16.3331   18.4575 N   0  0  0  0  0  0  0  0  0  0  0  0
   11.0326  -14.4130   20.3554 C   0  0  0  0  0  0  0  0  0  0  0  0
   11.0177  -13.2136   20.7476 O   0  0  0  0  0  0  0  0  0  0  0  0
    7.8851  -13.4408   20.6486 C   0  0  0  0  0  0  0  0  0  0  0  0
    7.9035  -14.5915   21.6335 C   0  0  1  0  0  0  0  0  0  0  0  0
    7.4525  -15.7528   21.0530 O   0  0  0  0  0  0  0  0  0  0  0  0
    9.3117  -14.8330   22.1318 C   0  0  2  0  0  0  0  0  0  0  0  0
   10.1803  -15.2990   21.0679 N   0  0  0  0  0  0  0  0  0  0  0  0
    9.3543  -15.7990   23.2403 C   0  0  0  0  0  0  0  0  0  0  0  0
    9.9713  -16.8713   23.1126 O   0  0  0  0  0  0  0  0  0  0  0  0
    8.7094  -15.5161   24.4234 O   0  0  0  0  0  0  0  0  0  0  0  0
  2  1  1  0
  3  2  1  0
  3  5  1  0
  3  4  1  6
  5  6  2  0
  5  7  1  0
  7  8  1  0
  8 15  1  0
  8  9  1  1
 10  9  1  0
 11 10  2  0
 12 11  1  0
 13 12  1  0
 13 14  2  0
 14 10  1  0
 15 16  2  0
 15 21  1  0
 18 17  1  6
 18 19  1  0
 20 22  1  0
 20 18  1  0
 20 21  1  6
 22 24  1  0
 23 22  2  0
M  END
$$$$
