SHT.pdb
     RDKit          3D

 24 24  0  0  1  0  0  0  0  0999 V2000
    8.8041  -12.1142   18.5204 O   0  0  0  0  0  0  0  0  0  0  0  0
    8.2918  -12.5598   19.7454 C   0  0  0  0  0  0  0  0  0  0  0  0
    8.2300  -14.0726   19.6946 C   0  0  2  0  0  0  0  0  0  0  0  0
    7.1239  -14.4939   18.8610 N   0  0  0  0  0  0  0  0  0  0  0  0
    8.0401  -14.6483   21.0432 C   0  0  0  0  0  0  0  0  0  0  0  0
    6.8856  -14.7259   21.5201 O   0  0  0  0  0  0  0  0  0  0  0  0
    9.1325  -15.1253   21.8341 N   0  0  0  0  0  0  0  0  0  0  0  0
    8.9281  -15.7747   23.1150 C   0  0  1  0  0  0  0  0  0  0  0  0
    9.9283  -16.8792   23.2280 C   0  0  0  0  0  0  0  0  0  0  0  0
    9.5488  -18.0214   22.3558 C   0  0  0  0  0  0  0  0  0  0  0  0
    8.5068  -18.1629   21.4952 C   0  0  0  0  0  0  0  0  0  0  0  0
    8.6151  -19.3857   20.9505 N   0  0  0  0  0  0  0  0  0  0  0  0
    9.6989  -19.9967   21.4570 C   0  0  0  0  0  0  0  0  0  0  0  0
   10.2604  -19.1588   22.3111 N   0  0  0  0  0  0  0  0  0  0  0  0
    8.9431  -14.7918   24.1802 C   0  0  0  0  0  0  0  0  0  0  0  0
    9.8049  -13.8701   24.1603 O   0  0  0  0  0  0  0  0  0  0  0  0
    6.9432  -11.9546   25.1877 C   0  0  0  0  0  0  0  0  0  0  0  0
    6.9600  -12.8721   26.3928 C   0  0  1  0  0  0  0  0  0  0  0  0
    5.8345  -13.6597   26.4364 O   0  0  0  0  0  0  0  0  0  0  0  0
    8.1674  -13.7827   26.3421 C   0  0  2  0  0  0  0  0  0  0  0  0
    8.0479  -14.7668   25.2835 N   0  0  0  0  0  0  0  0  0  0  0  0
    8.3962  -14.4791   27.6174 C   0  0  0  0  0  0  0  0  0  0  0  0
    8.6665  -13.8316   28.6443 O   0  0  0  0  0  0  0  0  0  0  0  0
    8.3110  -15.8520   27.6755 O   0  0  0  0  0  0  0  0  0  0  0  0
  2  1  1  0
  3  2  1  0
  3  5  1  0
  3  4  1  6
  5  6  2  0
  5  7  1  0
  7  8  1  0
  8 15  1  0
  8  9  1  1
 10  9  1  0
 11 10  2  0
 12 11  1  0
 13 12  1  0
 13 14  2  0
 14 10  1  0
 15 16  2  0
 15 21  1  0
 18 17  1  6
 18 19  1  0
 20 22  1  0
 20 18  1  0
 20 21  1  6
 22 24  1  0
 23 22  2  0
M  END
$$$$
