SHT.pdb
     RDKit          3D

 24 24  0  0  1  0  0  0  0  0999 V2000
    8.8198  -12.1248   20.0351 O   0  0  0  0  0  0  0  0  0  0  0  0
    8.3667  -12.7491   18.8661 C   0  0  0  0  0  0  0  0  0  0  0  0
    8.5536  -14.2423   19.0406 C   0  0  2  0  0  0  0  0  0  0  0  0
    8.0934  -14.9391   17.8581 N   0  0  0  0  0  0  0  0  0  0  0  0
    7.7913  -14.7471   20.2026 C   0  0  0  0  0  0  0  0  0  0  0  0
    6.7171  -15.3604   20.0121 O   0  0  0  0  0  0  0  0  0  0  0  0
    8.2351  -14.5617   21.5499 N   0  0  0  0  0  0  0  0  0  0  0  0
    7.5276  -15.1368   22.6782 C   0  0  1  0  0  0  0  0  0  0  0  0
    7.4923  -16.6181   22.4839 C   0  0  0  0  0  0  0  0  0  0  0  0
    8.8158  -17.2192   22.7943 C   0  0  0  0  0  0  0  0  0  0  0  0
    9.9725  -16.6360   23.2047 C   0  0  0  0  0  0  0  0  0  0  0  0
   10.8761  -17.6197   23.3447 N   0  0  0  0  0  0  0  0  0  0  0  0
   10.3004  -18.7917   23.0297 C   0  0  0  0  0  0  0  0  0  0  0  0
    9.0469  -18.5379   22.6961 N   0  0  0  0  0  0  0  0  0  0  0  0
    8.1104  -14.6722   23.9213 C   0  0  0  0  0  0  0  0  0  0  0  0
    9.3507  -14.4462   23.9775 O   0  0  0  0  0  0  0  0  0  0  0  0
    6.6542  -11.5087   25.6579 C   0  0  0  0  0  0  0  0  0  0  0  0
    6.8705  -12.6123   26.6727 C   0  0  1  0  0  0  0  0  0  0  0  0
    5.7111  -13.3138   26.9021 O   0  0  0  0  0  0  0  0  0  0  0  0
    7.9163  -13.5857   26.1742 C   0  0  2  0  0  0  0  0  0  0  0  0
    7.3922  -14.4390   25.1251 N   0  0  0  0  0  0  0  0  0  0  0  0
    8.4530  -14.4300   27.2525 C   0  0  0  0  0  0  0  0  0  0  0  0
    9.0432  -13.9126   28.2174 O   0  0  0  0  0  0  0  0  0  0  0  0
    8.3021  -15.7972   27.1945 O   0  0  0  0  0  0  0  0  0  0  0  0
  2  1  1  0
  3  2  1  0
  3  5  1  0
  3  4  1  6
  5  6  2  0
  5  7  1  0
  7  8  1  0
  8 15  1  0
  8  9  1  6
 10  9  1  0
 11 10  2  0
 12 11  1  0
 13 12  1  0
 13 14  2  0
 14 10  1  0
 15 16  2  0
 15 21  1  0
 18 17  1  6
 18 19  1  0
 20 22  1  0
 20 18  1  0
 20 21  1  6
 22 24  1  0
 23 22  2  0
M  END
$$$$
