RHH.pdb
     RDKit          3D

 32 33  0  0  1  0  0  0  0  0999 V2000
   12.6891  -23.1252   12.2674 N   0  0  0  0  0  0  0  0  0  0  0  0
   13.1305  -21.8850   12.7590 C   0  0  0  0  0  0  0  0  0  0  0  0
   14.3190  -21.4814   12.5038 N   0  0  0  0  0  0  0  0  0  0  0  0
   12.2639  -21.0886   13.5408 N   0  0  0  0  0  0  0  0  0  0  0  0
   12.6186  -19.7789   13.9515 C   0  0  0  0  0  0  0  0  0  0  0  0
   11.5372  -18.7673   13.7369 C   0  0  0  0  0  0  0  0  0  0  0  0
   11.8692  -17.3589   14.0984 C   0  0  0  0  0  0  0  0  0  0  0  0
   10.6422  -16.4824   13.9647 C   0  0  2  0  0  0  0  0  0  0  0  0
   10.7802  -15.6400   12.7616 N   0  0  0  0  0  0  0  0  0  0  0  0
   10.5207  -15.6151   15.1558 C   0  0  0  0  0  0  0  0  0  0  0  0
   11.3006  -14.6858   15.4653 O   0  0  0  0  0  0  0  0  0  0  0  0
   14.7041  -20.6030   12.8808 N   0  0  0  0  0  0  0  0  0  0  0  0
    9.4444  -15.7746   16.1045 C   0  0  2  0  0  0  0  0  0  0  0  0
    9.3486  -14.9939   17.3104 C   0  0  0  0  0  0  0  0  0  0  0  0
    7.9416  -14.8309   17.7916 C   0  0  0  0  0  0  0  0  0  0  0  0
    7.8658  -14.0358   19.0354 C   0  0  0  0  0  0  0  0  0  0  0  0
    7.9733  -12.6770   19.1938 N   0  0  0  0  0  0  0  0  0  0  0  0
    7.8442  -12.3781   20.4986 C   0  0  0  0  0  0  0  0  0  0  0  0
    7.6583  -13.5196   21.1618 N   0  0  0  0  0  0  0  0  0  0  0  0
    7.6717  -14.5435   20.2583 C   0  0  0  0  0  0  0  0  0  0  0  0
   10.2813  -15.5479   18.2828 O   0  0  0  0  0  0  0  0  0  0  0  0
   10.4466  -16.7906   18.3541 N   0  0  0  0  0  0  0  0  0  0  0  0
   11.0469  -14.7570   19.1909 C   0  0  1  0  0  0  0  0  0  0  0  0
   12.0213  -15.3231   20.1186 C   0  0  0  0  0  0  0  0  0  0  0  0
   13.0966  -14.3522   20.4493 C   0  0  0  0  0  0  0  0  0  0  0  0
   14.1229  -14.2298   19.3792 C   0  0  0  0  0  0  0  0  0  0  0  0
   14.3094  -15.1868   18.3695 N   0  0  0  0  0  0  0  0  0  0  0  0
   15.2965  -14.7558   17.6065 C   0  0  0  0  0  0  0  0  0  0  0  0
   15.7360  -13.5827   18.0846 N   0  0  0  0  0  0  0  0  0  0  0  0
   15.0260  -13.2473   19.1718 C   0  0  0  0  0  0  0  0  0  0  0  0
   11.2085  -15.6754   21.3403 O   0  0  0  0  0  0  0  0  0  0  0  0
   11.7059  -16.1059   22.4047 O   0  0  0  0  0  0  0  0  0  0  0  0
  2  3  2  0
  2  1  1  0
  4  2  1  0
  5  4  1  0
  6  5  1  0
  7  6  1  0
  8  7  1  0
  8  9  1  6
 10  8  1  0
 10 12  1  0
 11 10  2  0
 13 12  1  0
 13 14  1  6
 14 15  1  0
 15 16  2  0
 16 17  1  0
 18 17  1  0
 19 15  1  0
 19 18  2  0
 20 13  1  0
 21 20  2  0
 22 20  1  0
 23 22  1  0
 23 30  1  0
 23 24  1  1
 25 24  1  0
 26 25  2  0
 27 26  1  0
 28 27  1  0
 28 29  2  0
 29 25  1  0
 30 32  1  0
 31 30  2  0
M  END
$$$$
