RHH.pdb
     RDKit          3D

 32 33  0  0  1  0  0  0  0  0999 V2000
   10.3206  -17.4939   11.5240 N   0  0  0  0  0  0  0  0  0  0  0  0
    8.9363  -17.6639   11.6952 C   0  0  0  0  0  0  0  0  0  0  0  0
    8.2660  -18.3515   10.8477 N   0  0  0  0  0  0  0  0  0  0  0  0
    8.2850  -17.0690   12.7990 N   0  0  0  0  0  0  0  0  0  0  0  0
    9.0086  -16.4601   13.8551 C   0  0  0  0  0  0  0  0  0  0  0  0
    9.0945  -17.3016   15.0893 C   0  0  0  0  0  0  0  0  0  0  0  0
    9.8647  -16.7254   16.2292 C   0  0  0  0  0  0  0  0  0  0  0  0
    9.8471  -17.6779   17.4057 C   0  0  2  0  0  0  0  0  0  0  0  0
    8.4991  -18.2637   17.5318 N   0  0  0  0  0  0  0  0  0  0  0  0
   10.1764  -16.9413   18.6445 C   0  0  0  0  0  0  0  0  0  0  0  0
   11.2965  -16.4621   18.9336 O   0  0  0  0  0  0  0  0  0  0  0  0
    7.2762  -18.6013   10.9884 N   0  0  0  0  0  0  0  0  0  0  0  0
    9.1898  -16.7025   19.6708 C   0  0  1  0  0  0  0  0  0  0  0  0
    9.4926  -16.0050   20.8935 C   0  0  0  0  0  0  0  0  0  0  0  0
    8.3606  -15.1558   21.3783 C   0  0  0  0  0  0  0  0  0  0  0  0
    7.9677  -14.1312   20.3878 C   0  0  0  0  0  0  0  0  0  0  0  0
    8.4365  -12.8494   20.2464 N   0  0  0  0  0  0  0  0  0  0  0  0
    7.8034  -12.2644   19.2141 C   0  0  0  0  0  0  0  0  0  0  0  0
    6.9478  -13.1514   18.7053 N   0  0  0  0  0  0  0  0  0  0  0  0
    7.0491  -14.3043   19.4302 C   0  0  0  0  0  0  0  0  0  0  0  0
   10.0012  -16.9756   21.8535 O   0  0  0  0  0  0  0  0  0  0  0  0
    9.4593  -18.1043   21.9494 N   0  0  0  0  0  0  0  0  0  0  0  0
   11.1066  -16.7313   22.7222 C   0  0  1  0  0  0  0  0  0  0  0  0
   11.6418  -17.7351   23.6368 C   0  0  0  0  0  0  0  0  0  0  0  0
   13.1214  -17.6495   23.7451 C   0  0  0  0  0  0  0  0  0  0  0  0
   13.8231  -18.0531   22.4969 C   0  0  0  0  0  0  0  0  0  0  0  0
   13.3983  -19.1080   21.6741 N   0  0  0  0  0  0  0  0  0  0  0  0
   14.2514  -19.1818   20.6695 C   0  0  0  0  0  0  0  0  0  0  0  0
   15.1848  -18.2310   20.8203 N   0  0  0  0  0  0  0  0  0  0  0  0
   14.9356  -17.5310   21.9367 C   0  0  0  0  0  0  0  0  0  0  0  0
   10.9785  -17.4252   24.9564 O   0  0  0  0  0  0  0  0  0  0  0  0
   11.1669  -18.0879   26.0008 O   0  0  0  0  0  0  0  0  0  0  0  0
  2  3  2  0
  2  1  1  0
  4  2  1  0
  5  4  1  0
  6  5  1  0
  7  6  1  0
  8  7  1  0
  8  9  1  1
 10  8  1  0
 10 12  1  0
 11 10  2  0
 13 12  1  0
 13 14  1  6
 14 15  1  0
 15 16  2  0
 16 17  1  0
 18 17  1  0
 19 15  1  0
 19 18  2  0
 20 13  1  0
 21 20  2  0
 22 20  1  0
 23 22  1  0
 23 30  1  0
 23 24  1  1
 25 24  1  0
 26 25  2  0
 27 26  1  0
 28 27  1  0
 28 29  2  0
 29 25  1  0
 30 32  1  0
 31 30  2  0
M  END
$$$$
