RHH.pdb
     RDKit          3D

 32 33  0  0  1  0  0  0  0  0999 V2000
   12.2322  -20.5268   17.4111 N   0  0  0  0  0  0  0  0  0  0  0  0
   11.4581  -20.2100   16.2819 C   0  0  0  0  0  0  0  0  0  0  0  0
   11.3682  -21.0430   15.3132 N   0  0  0  0  0  0  0  0  0  0  0  0
   10.7862  -18.9689   16.2144 N   0  0  0  0  0  0  0  0  0  0  0  0
   10.9421  -17.9786   17.2168 C   0  0  0  0  0  0  0  0  0  0  0  0
   10.0356  -18.1646   18.3926 C   0  0  0  0  0  0  0  0  0  0  0  0
   10.2266  -17.2186   19.5298 C   0  0  0  0  0  0  0  0  0  0  0  0
    9.0141  -16.3237   19.6738 C   0  0  2  0  0  0  0  0  0  0  0  0
    8.9887  -15.3625   18.5550 N   0  0  0  0  0  0  0  0  0  0  0  0
    9.0936  -15.5833   20.9510 C   0  0  0  0  0  0  0  0  0  0  0  0
    9.8040  -14.5754   21.1680 O   0  0  0  0  0  0  0  0  0  0  0  0
   10.8014  -20.8627   14.4716 N   0  0  0  0  0  0  0  0  0  0  0  0
    8.3244  -15.9786   22.1068 C   0  0  1  0  0  0  0  0  0  0  0  0
    8.3541  -15.2485   23.3474 C   0  0  0  0  0  0  0  0  0  0  0  0
    7.0566  -14.5725   23.6595 C   0  0  0  0  0  0  0  0  0  0  0  0
    7.0719  -13.9207   24.9862 C   0  0  0  0  0  0  0  0  0  0  0  0
    6.3215  -14.2155   26.0965 N   0  0  0  0  0  0  0  0  0  0  0  0
    6.6575  -13.3708   27.0875 C   0  0  0  0  0  0  0  0  0  0  0  0
    7.6022  -12.5527   26.6228 N   0  0  0  0  0  0  0  0  0  0  0  0
    7.8581  -12.8920   25.3250 C   0  0  0  0  0  0  0  0  0  0  0  0
    8.8599  -16.1387   24.3838 O   0  0  0  0  0  0  0  0  0  0  0  0
    8.4530  -17.3251   24.4432 N   0  0  0  0  0  0  0  0  0  0  0  0
    9.8156  -15.7499   25.3695 C   0  0  1  0  0  0  0  0  0  0  0  0
   10.2772  -16.6401   26.4303 C   0  0  0  0  0  0  0  0  0  0  0  0
   11.7530  -16.8121   26.4025 C   0  0  0  0  0  0  0  0  0  0  0  0
   12.2099  -17.7741   25.3638 C   0  0  0  0  0  0  0  0  0  0  0  0
   11.3401  -18.5987   24.6332 N   0  0  0  0  0  0  0  0  0  0  0  0
   12.0854  -19.3153   23.8126 C   0  0  0  0  0  0  0  0  0  0  0  0
   13.3722  -18.9830   23.9911 N   0  0  0  0  0  0  0  0  0  0  0  0
   13.4643  -18.0392   24.9394 C   0  0  0  0  0  0  0  0  0  0  0  0
    9.8298  -15.9632   27.7027 O   0  0  0  0  0  0  0  0  0  0  0  0
    9.3114  -14.8250   27.7384 O   0  0  0  0  0  0  0  0  0  0  0  0
  2  3  2  0
  2  1  1  0
  4  2  1  0
  5  4  1  0
  6  5  1  0
  7  6  1  0
  8  7  1  0
  8  9  1  6
 10  8  1  0
 10 12  1  0
 11 10  2  0
 13 12  1  0
 13 14  1  1
 14 15  1  0
 15 16  2  0
 16 17  1  0
 18 17  1  0
 19 15  1  0
 19 18  2  0
 20 13  1  0
 21 20  2  0
 22 20  1  0
 23 22  1  0
 23 30  1  0
 23 24  1  1
 25 24  1  0
 26 25  2  0
 27 26  1  0
 28 27  1  0
 28 29  2  0
 29 25  1  0
 30 32  1  0
 31 30  2  0
M  END
$$$$
