RHH.pdb
     RDKit          3D

 32 33  0  0  1  0  0  0  0  0999 V2000
   14.4167  -17.7133   14.2651 N   0  0  0  0  0  0  0  0  0  0  0  0
   13.1322  -17.4096   14.7474 C   0  0  0  0  0  0  0  0  0  0  0  0
   12.1188  -17.4980   13.9692 N   0  0  0  0  0  0  0  0  0  0  0  0
   12.9624  -16.9998   16.0889 N   0  0  0  0  0  0  0  0  0  0  0  0
   12.8038  -17.9352   17.1423 C   0  0  0  0  0  0  0  0  0  0  0  0
   11.4357  -17.9329   17.7483 C   0  0  0  0  0  0  0  0  0  0  0  0
   11.3703  -18.0744   19.2315 C   0  0  0  0  0  0  0  0  0  0  0  0
    9.9457  -17.8936   19.7109 C   0  0  2  0  0  0  0  0  0  0  0  0
    9.0566  -17.7608   18.5413 N   0  0  0  0  0  0  0  0  0  0  0  0
    9.8520  -16.6704   20.5360 C   0  0  0  0  0  0  0  0  0  0  0  0
   10.7348  -15.7883   20.6373 O   0  0  0  0  0  0  0  0  0  0  0  0
   11.1526  -17.3355   14.2888 N   0  0  0  0  0  0  0  0  0  0  0  0
    8.6823  -16.3779   21.3298 C   0  0  1  0  0  0  0  0  0  0  0  0
    8.5752  -15.2010   22.1523 C   0  0  0  0  0  0  0  0  0  0  0  0
    7.5453  -14.2346   21.6594 C   0  0  0  0  0  0  0  0  0  0  0  0
    7.8184  -13.7843   20.2782 C   0  0  0  0  0  0  0  0  0  0  0  0
    6.9997  -13.8421   19.1785 N   0  0  0  0  0  0  0  0  0  0  0  0
    7.6495  -13.3211   18.1226 C   0  0  0  0  0  0  0  0  0  0  0  0
    8.8577  -12.9380   18.5361 N   0  0  0  0  0  0  0  0  0  0  0  0
    8.9623  -13.2242   19.8673 C   0  0  0  0  0  0  0  0  0  0  0  0
    8.4186  -15.6293   23.5359 O   0  0  0  0  0  0  0  0  0  0  0  0
    7.4535  -16.3654   23.8580 N   0  0  0  0  0  0  0  0  0  0  0  0
    9.3101  -15.2626   24.5880 C   0  0  2  0  0  0  0  0  0  0  0  0
    8.9111  -15.2067   25.9910 C   0  0  0  0  0  0  0  0  0  0  0  0
    7.4350  -15.1239   26.1415 C   0  0  0  0  0  0  0  0  0  0  0  0
    6.9456  -13.7341   26.3471 C   0  0  0  0  0  0  0  0  0  0  0  0
    7.7932  -12.6204   26.4529 N   0  0  0  0  0  0  0  0  0  0  0  0
    7.0223  -11.5638   26.6313 C   0  0  0  0  0  0  0  0  0  0  0  0
    5.7405  -11.9573   26.6426 N   0  0  0  0  0  0  0  0  0  0  0  0
    5.6776  -13.2856   26.4696 C   0  0  0  0  0  0  0  0  0  0  0  0
    9.4494  -16.4873   26.5805 O   0  0  0  0  0  0  0  0  0  0  0  0
    9.3150  -16.8088   27.7823 O   0  0  0  0  0  0  0  0  0  0  0  0
  2  3  2  0
  2  1  1  0
  4  2  1  0
  5  4  1  0
  6  5  1  0
  7  6  1  0
  8  7  1  0
  8  9  1  6
 10  8  1  0
 10 12  1  0
 11 10  2  0
 13 12  1  0
 13 14  1  1
 14 15  1  0
 15 16  2  0
 16 17  1  0
 18 17  1  0
 19 15  1  0
 19 18  2  0
 20 13  1  0
 21 20  2  0
 22 20  1  0
 23 22  1  0
 23 30  1  0
 23 24  1  6
 25 24  1  0
 26 25  2  0
 27 26  1  0
 28 27  1  0
 28 29  2  0
 29 25  1  0
 30 32  1  0
 31 30  2  0
M  END
$$$$
