RHH.pdb
     RDKit          3D

 32 33  0  0  1  0  0  0  0  0999 V2000
   10.1709  -16.3574   14.7063 N   0  0  0  0  0  0  0  0  0  0  0  0
    9.0641  -17.1892   14.9464 C   0  0  0  0  0  0  0  0  0  0  0  0
    7.9565  -16.9718   14.3410 N   0  0  0  0  0  0  0  0  0  0  0  0
    9.1734  -18.2600   15.8619 N   0  0  0  0  0  0  0  0  0  0  0  0
    9.1687  -18.0488   17.2637 C   0  0  0  0  0  0  0  0  0  0  0  0
   10.1554  -17.0211   17.7208 C   0  0  0  0  0  0  0  0  0  0  0  0
   11.3738  -17.5359   18.4098 C   0  0  0  0  0  0  0  0  0  0  0  0
   11.0162  -18.0513   19.7875 C   0  0  2  0  0  0  0  0  0  0  0  0
    9.7663  -18.8302   19.7015 N   0  0  0  0  0  0  0  0  0  0  0  0
   10.8176  -16.9108   20.7071 C   0  0  0  0  0  0  0  0  0  0  0  0
   11.5909  -15.9349   20.8381 O   0  0  0  0  0  0  0  0  0  0  0  0
    7.1320  -17.5807   14.4480 N   0  0  0  0  0  0  0  0  0  0  0  0
    9.6635  -16.8233   21.5699 C   0  0  1  0  0  0  0  0  0  0  0  0
    9.4652  -15.7385   22.4956 C   0  0  0  0  0  0  0  0  0  0  0  0
    8.1297  -15.0808   22.3485 C   0  0  0  0  0  0  0  0  0  0  0  0
    7.9598  -14.4534   21.0209 C   0  0  0  0  0  0  0  0  0  0  0  0
    8.8482  -14.3997   19.9765 N   0  0  0  0  0  0  0  0  0  0  0  0
    8.2830  -13.7301   18.9565 C   0  0  0  0  0  0  0  0  0  0  0  0
    7.0596  -13.3625   19.3384 N   0  0  0  0  0  0  0  0  0  0  0  0
    6.8600  -13.8090   20.6135 C   0  0  0  0  0  0  0  0  0  0  0  0
    9.7793  -16.2226   23.8332 O   0  0  0  0  0  0  0  0  0  0  0  0
    9.8737  -17.4565   24.0463 N   0  0  0  0  0  0  0  0  0  0  0  0
    9.9953  -15.3705   24.9573 C   0  0  2  0  0  0  0  0  0  0  0  0
    9.3985  -15.6093   26.2678 C   0  0  0  0  0  0  0  0  0  0  0  0
    7.9143  -15.6424   26.2001 C   0  0  0  0  0  0  0  0  0  0  0  0
    7.2984  -14.2882   26.2112 C   0  0  0  0  0  0  0  0  0  0  0  0
    8.0310  -13.1038   26.3859 N   0  0  0  0  0  0  0  0  0  0  0  0
    7.1677  -12.1060   26.3442 C   0  0  0  0  0  0  0  0  0  0  0  0
    5.9371  -12.6030   26.1530 N   0  0  0  0  0  0  0  0  0  0  0  0
    6.0013  -13.9399   26.0698 C   0  0  0  0  0  0  0  0  0  0  0  0
    9.9561  -16.9463   26.6907 O   0  0  0  0  0  0  0  0  0  0  0  0
    9.3041  -17.7983   27.3346 O   0  0  0  0  0  0  0  0  0  0  0  0
  2  3  2  0
  2  1  1  0
  4  2  1  0
  5  4  1  0
  6  5  1  0
  7  6  1  0
  8  7  1  0
  8  9  1  6
 10  8  1  0
 10 12  1  0
 11 10  2  0
 13 12  1  0
 13 14  1  6
 14 15  1  0
 15 16  2  0
 16 17  1  0
 18 17  1  0
 19 15  1  0
 19 18  2  0
 20 13  1  0
 21 20  2  0
 22 20  1  0
 23 22  1  0
 23 30  1  0
 23 24  1  6
 25 24  1  0
 26 25  2  0
 27 26  1  0
 28 27  1  0
 28 29  2  0
 29 25  1  0
 30 32  1  0
 31 30  2  0
M  END
$$$$
