RHH.pdb
     RDKit          3D

 32 33  0  0  1  0  0  0  0  0999 V2000
    9.6008  -13.6021   19.7483 N   0  0  0  0  0  0  0  0  0  0  0  0
    8.5264  -13.5146   18.8469 C   0  0  0  0  0  0  0  0  0  0  0  0
    7.8548  -12.4279   18.7547 N   0  0  0  0  0  0  0  0  0  0  0  0
    8.1842  -14.6294   18.0489 N   0  0  0  0  0  0  0  0  0  0  0  0
    8.9698  -15.8094   18.0362 C   0  0  0  0  0  0  0  0  0  0  0  0
    8.1641  -17.0693   18.0826 C   0  0  0  0  0  0  0  0  0  0  0  0
    8.7021  -18.1661   18.9381 C   0  0  0  0  0  0  0  0  0  0  0  0
    8.3696  -17.9054   20.3918 C   0  0  2  0  0  0  0  0  0  0  0  0
    7.4425  -16.7610   20.4766 N   0  0  0  0  0  0  0  0  0  0  0  0
    9.6078  -17.5857   21.1337 C   0  0  0  0  0  0  0  0  0  0  0  0
   10.6128  -18.3261   21.2309 O   0  0  0  0  0  0  0  0  0  0  0  0
    7.0871  -12.3008   18.0790 N   0  0  0  0  0  0  0  0  0  0  0  0
    9.7686  -16.3371   21.8401 C   0  0  2  0  0  0  0  0  0  0  0  0
   10.8924  -16.0690   22.6994 C   0  0  0  0  0  0  0  0  0  0  0  0
   11.6830  -14.8730   22.2725 C   0  0  0  0  0  0  0  0  0  0  0  0
   12.4025  -15.1042   21.0021 C   0  0  0  0  0  0  0  0  0  0  0  0
   12.4740  -16.2510   20.2522 N   0  0  0  0  0  0  0  0  0  0  0  0
   13.2377  -16.0182   19.1700 C   0  0  0  0  0  0  0  0  0  0  0  0
   13.6466  -14.7504   19.2250 N   0  0  0  0  0  0  0  0  0  0  0  0
   13.1311  -14.1858   20.3565 C   0  0  0  0  0  0  0  0  0  0  0  0
   10.4134  -16.0428   24.0750 O   0  0  0  0  0  0  0  0  0  0  0  0
    9.7188  -15.0774   24.4777 N   0  0  0  0  0  0  0  0  0  0  0  0
   10.6837  -17.0670   25.0311 C   0  0  1  0  0  0  0  0  0  0  0  0
   10.0631  -17.1120   26.3515 C   0  0  0  0  0  0  0  0  0  0  0  0
    8.5995  -17.3539   26.2649 C   0  0  0  0  0  0  0  0  0  0  0  0
    7.8316  -16.1496   25.8486 C   0  0  0  0  0  0  0  0  0  0  0  0
    8.3188  -14.8388   25.9683 N   0  0  0  0  0  0  0  0  0  0  0  0
    7.3789  -14.0339   25.5088 C   0  0  0  0  0  0  0  0  0  0  0  0
    6.3323  -14.7706   25.1090 N   0  0  0  0  0  0  0  0  0  0  0  0
    6.5950  -16.0700   25.3115 C   0  0  0  0  0  0  0  0  0  0  0  0
   10.7645  -18.2498   27.0520 O   0  0  0  0  0  0  0  0  0  0  0  0
   10.4816  -18.6328   28.2091 O   0  0  0  0  0  0  0  0  0  0  0  0
  2  3  2  0
  2  1  1  0
  4  2  1  0
  5  4  1  0
  6  5  1  0
  7  6  1  0
  8  7  1  0
  8  9  1  6
 10  8  1  0
 10 12  1  0
 11 10  2  0
 13 12  1  0
 13 14  1  6
 14 15  1  0
 15 16  2  0
 16 17  1  0
 18 17  1  0
 19 15  1  0
 19 18  2  0
 20 13  1  0
 21 20  2  0
 22 20  1  0
 23 22  1  0
 23 30  1  0
 23 24  1  1
 25 24  1  0
 26 25  2  0
 27 26  1  0
 28 27  1  0
 28 29  2  0
 29 25  1  0
 30 32  1  0
 31 30  2  0
M  END
$$$$
