RHH.pdb
     RDKit          3D

 32 33  0  0  1  0  0  0  0  0999 V2000
    8.3431  -14.8214   13.3538 N   0  0  0  0  0  0  0  0  0  0  0  0
    8.1976  -14.8894   14.7498 C   0  0  0  0  0  0  0  0  0  0  0  0
    7.3917  -14.0944   15.3490 N   0  0  0  0  0  0  0  0  0  0  0  0
    8.9471  -15.8304   15.4909 N   0  0  0  0  0  0  0  0  0  0  0  0
    9.9852  -16.5929   14.8988 C   0  0  0  0  0  0  0  0  0  0  0  0
   10.6818  -17.5073   15.8566 C   0  0  0  0  0  0  0  0  0  0  0  0
   11.4390  -16.8527   16.9623 C   0  0  0  0  0  0  0  0  0  0  0  0
   11.3031  -17.6586   18.2367 C   0  0  2  0  0  0  0  0  0  0  0  0
   10.2263  -18.6524   18.0661 N   0  0  0  0  0  0  0  0  0  0  0  0
   10.9620  -16.7579   19.3584 C   0  0  0  0  0  0  0  0  0  0  0  0
   11.6609  -15.8026   19.7665 O   0  0  0  0  0  0  0  0  0  0  0  0
    7.2556  -14.1016   16.3705 N   0  0  0  0  0  0  0  0  0  0  0  0
    9.7398  -16.9118   20.1110 C   0  0  1  0  0  0  0  0  0  0  0  0
    9.3771  -16.0340   21.1931 C   0  0  0  0  0  0  0  0  0  0  0  0
    7.9879  -15.4936   21.0674 C   0  0  0  0  0  0  0  0  0  0  0  0
    7.8190  -14.6655   19.8546 C   0  0  0  0  0  0  0  0  0  0  0  0
    8.0840  -13.3302   19.6828 N   0  0  0  0  0  0  0  0  0  0  0  0
    7.7846  -12.9848   18.4181 C   0  0  0  0  0  0  0  0  0  0  0  0
    7.3375  -14.0744   17.7930 N   0  0  0  0  0  0  0  0  0  0  0  0
    7.3586  -15.1124   18.6801 C   0  0  0  0  0  0  0  0  0  0  0  0
    9.6712  -16.7161   22.4464 O   0  0  0  0  0  0  0  0  0  0  0  0
    9.3229  -17.9121   22.6049 N   0  0  0  0  0  0  0  0  0  0  0  0
   10.3483  -16.1060   23.5443 C   0  0  1  0  0  0  0  0  0  0  0  0
   10.7162  -16.8286   24.7580 C   0  0  0  0  0  0  0  0  0  0  0  0
   12.0630  -16.4351   25.2473 C   0  0  0  0  0  0  0  0  0  0  0  0
   13.1623  -16.8639   24.3412 C   0  0  0  0  0  0  0  0  0  0  0  0
   13.0460  -17.9222   23.4265 N   0  0  0  0  0  0  0  0  0  0  0  0
   14.2038  -18.0204   22.8003 C   0  0  0  0  0  0  0  0  0  0  0  0
   15.0359  -17.0817   23.2740 N   0  0  0  0  0  0  0  0  0  0  0  0
   14.4114  -16.3648   24.2198 C   0  0  0  0  0  0  0  0  0  0  0  0
    9.6433  -16.4547   25.7513 O   0  0  0  0  0  0  0  0  0  0  0  0
    8.7543  -15.6036   25.5256 O   0  0  0  0  0  0  0  0  0  0  0  0
  2  3  2  0
  2  1  1  0
  4  2  1  0
  5  4  1  0
  6  5  1  0
  7  6  1  0
  8  7  1  0
  8  9  1  6
 10  8  1  0
 10 12  1  0
 11 10  2  0
 13 12  1  0
 13 14  1  1
 14 15  1  0
 15 16  2  0
 16 17  1  0
 18 17  1  0
 19 15  1  0
 19 18  2  0
 20 13  1  0
 21 20  2  0
 22 20  1  0
 23 22  1  0
 23 30  1  0
 23 24  1  1
 25 24  1  0
 26 25  2  0
 27 26  1  0
 28 27  1  0
 28 29  2  0
 29 25  1  0
 30 32  1  0
 31 30  2  0
M  END
$$$$
