VFT.pdb
     RDKit          3D

 26 26  0  0  1  0  0  0  0  0999 V2000
    9.0917  -19.0292   21.1973 C   0  0  0  0  0  0  0  0  0  0  0  0
    9.8083  -18.2768   20.1224 C   0  0  1  0  0  0  0  0  0  0  0  0
    9.7939  -18.9482   18.7677 C   0  0  0  0  0  0  0  0  0  0  0  0
    9.4753  -16.8287   20.0539 C   0  0  2  0  0  0  0  0  0  0  0  0
   10.3112  -16.1807   19.0706 N   0  0  0  0  0  0  0  0  0  0  0  0
    9.5567  -16.0882   21.3141 C   0  0  0  0  0  0  0  0  0  0  0  0
   10.6532  -15.7904   21.8921 O   0  0  0  0  0  0  0  0  0  0  0  0
    8.3651  -15.6655   21.9516 N   0  0  0  0  0  0  0  0  0  0  0  0
    8.3134  -15.0075   23.2331 C   0  0  1  0  0  0  0  0  0  0  0  0
    7.2288  -14.0146   23.4204 C   0  0  0  0  0  0  0  0  0  0  0  0
    7.2494  -13.4471   24.7897 C   0  0  0  0  0  0  0  0  0  0  0  0
    6.3076  -13.8866   25.7129 C   0  0  0  0  0  0  0  0  0  0  0  0
    6.2865  -13.3786   27.0033 C   0  0  0  0  0  0  0  0  0  0  0  0
    7.2281  -12.4329   27.3226 C   0  0  0  0  0  0  0  0  0  0  0  0
    8.1636  -11.9976   26.4033 C   0  0  0  0  0  0  0  0  0  0  0  0
    8.1856  -12.5009   25.1188 C   0  0  0  0  0  0  0  0  0  0  0  0
    8.4620  -15.9787   24.3567 C   0  0  0  0  0  0  0  0  0  0  0  0
    7.4508  -16.6829   24.6581 O   0  0  0  0  0  0  0  0  0  0  0  0
   10.6995  -18.8624   24.4463 C   0  0  0  0  0  0  0  0  0  0  0  0
   10.9785  -18.1026   25.7264 C   0  0  1  0  0  0  0  0  0  0  0  0
   12.1143  -17.2767   25.5494 O   0  0  0  0  0  0  0  0  0  0  0  0
    9.8671  -17.1738   26.0836 C   0  0  2  0  0  0  0  0  0  0  0  0
    9.6321  -16.1585   25.0871 N   0  0  0  0  0  0  0  0  0  0  0  0
   10.2497  -16.5559   27.3970 C   0  0  0  0  0  0  0  0  0  0  0  0
   10.4341  -15.2016   27.5629 O   0  0  0  0  0  0  0  0  0  0  0  0
   10.4123  -17.2875   28.3928 O   0  0  0  0  0  0  0  0  0  0  0  0
  2  4  1  0
  2  1  1  1
  3  2  1  0
  4  6  1  0
  4  5  1  6
  6  7  2  0
  8  9  1  0
  8  6  1  0
 10 11  1  0
  9 10  1  1
 11 12  2  0
 12 13  1  0
 14 13  2  0
 15 14  1  0
 16 15  2  0
 16 11  1  0
 17  9  1  0
 17 18  2  0
 20 19  1  6
 20 22  1  0
 21 20  1  0
 22 23  1  6
 22 24  1  0
 23 17  1  0
 24 25  1  0
 26 24  2  0
M  END
$$$$
