VFT.pdb
     RDKit          3D

 26 26  0  0  1  0  0  0  0  0999 V2000
    6.4387  -16.4507   19.1833 C   0  0  0  0  0  0  0  0  0  0  0  0
    7.2457  -16.5235   20.4396 C   0  0  1  0  0  0  0  0  0  0  0  0
    8.4758  -17.3979   20.3475 C   0  0  0  0  0  0  0  0  0  0  0  0
    7.5180  -15.2073   21.0769 C   0  0  2  0  0  0  0  0  0  0  0  0
    8.3093  -14.3884   20.1888 N   0  0  0  0  0  0  0  0  0  0  0  0
    8.1617  -15.2484   22.3911 C   0  0  0  0  0  0  0  0  0  0  0  0
    9.3969  -14.9990   22.5838 O   0  0  0  0  0  0  0  0  0  0  0  0
    7.3933  -15.5816   23.5327 N   0  0  0  0  0  0  0  0  0  0  0  0
    7.9045  -15.6158   24.8801 C   0  0  1  0  0  0  0  0  0  0  0  0
    6.9537  -15.2446   25.9550 C   0  0  0  0  0  0  0  0  0  0  0  0
    6.9032  -13.7754   26.1450 C   0  0  0  0  0  0  0  0  0  0  0  0
    5.6833  -13.1226   26.0105 C   0  0  0  0  0  0  0  0  0  0  0  0
    5.5910  -11.7483   26.1739 C   0  0  0  0  0  0  0  0  0  0  0  0
    6.7467  -11.0710   26.4714 C   0  0  0  0  0  0  0  0  0  0  0  0
    7.9583  -11.7222   26.6049 C   0  0  0  0  0  0  0  0  0  0  0  0
    8.0526  -13.0890   26.4416 C   0  0  0  0  0  0  0  0  0  0  0  0
    8.6772  -16.8653   25.1438 C   0  0  0  0  0  0  0  0  0  0  0  0
    8.0185  -17.9089   25.4374 O   0  0  0  0  0  0  0  0  0  0  0  0
   13.0430  -19.2985   25.0481 C   0  0  0  0  0  0  0  0  0  0  0  0
   12.2518  -18.0264   24.8255 C   0  0  1  0  0  0  0  0  0  0  0  0
   12.1315  -17.7801   23.4369 O   0  0  0  0  0  0  0  0  0  0  0  0
   10.8520  -18.1384   25.3291 C   0  0  2  0  0  0  0  0  0  0  0  0
   10.0642  -16.9553   25.0867 N   0  0  0  0  0  0  0  0  0  0  0  0
   10.9620  -18.4157   26.8001 C   0  0  0  0  0  0  0  0  0  0  0  0
   11.5447  -19.5557   27.3066 O   0  0  0  0  0  0  0  0  0  0  0  0
   10.5102  -17.5871   27.6141 O   0  0  0  0  0  0  0  0  0  0  0  0
  2  4  1  0
  2  1  1  6
  3  2  1  0
  4  6  1  0
  4  5  1  6
  6  7  2  0
  8  9  1  0
  8  6  1  0
 10 11  1  0
  9 10  1  1
 11 12  2  0
 12 13  1  0
 14 13  2  0
 15 14  1  0
 16 15  2  0
 16 11  1  0
 17  9  1  0
 17 18  2  0
 20 19  1  6
 20 22  1  0
 21 20  1  0
 22 23  1  1
 22 24  1  0
 23 17  1  0
 24 25  1  0
 26 24  2  0
M  END
$$$$
