VFT.pdb
     RDKit          3D

 26 26  0  0  1  0  0  0  0  0999 V2000
    7.5687  -18.4934   20.9183 C   0  0  0  0  0  0  0  0  0  0  0  0
    8.6153  -18.0170   19.9630 C   0  0  1  0  0  0  0  0  0  0  0  0
    8.5000  -18.5878   18.5676 C   0  0  0  0  0  0  0  0  0  0  0  0
    8.8354  -16.5460   19.9699 C   0  0  2  0  0  0  0  0  0  0  0  0
    9.9478  -16.2139   19.1110 N   0  0  0  0  0  0  0  0  0  0  0  0
    9.0437  -15.9315   21.2823 C   0  0  0  0  0  0  0  0  0  0  0  0
   10.1407  -15.9947   21.9287 O   0  0  0  0  0  0  0  0  0  0  0  0
    7.9837  -15.2197   21.8941 N   0  0  0  0  0  0  0  0  0  0  0  0
    8.0327  -14.6642   23.2233 C   0  0  1  0  0  0  0  0  0  0  0  0
    7.0900  -13.5566   23.5096 C   0  0  0  0  0  0  0  0  0  0  0  0
    7.1927  -13.1138   24.9205 C   0  0  0  0  0  0  0  0  0  0  0  0
    6.0973  -13.2845   25.7592 C   0  0  0  0  0  0  0  0  0  0  0  0
    6.1473  -12.8794   27.0848 C   0  0  0  0  0  0  0  0  0  0  0  0
    7.3152  -12.3090   27.5248 C   0  0  0  0  0  0  0  0  0  0  0  0
    8.4030  -12.1406   26.6893 C   0  0  0  0  0  0  0  0  0  0  0  0
    8.3550  -12.5418   25.3701 C   0  0  0  0  0  0  0  0  0  0  0  0
    8.0644  -15.7325   24.2653 C   0  0  0  0  0  0  0  0  0  0  0  0
    7.0369  -16.4674   24.3804 O   0  0  0  0  0  0  0  0  0  0  0  0
    9.1685  -18.7781   24.1215 C   0  0  0  0  0  0  0  0  0  0  0  0
    9.9735  -18.2680   25.2985 C   0  0  1  0  0  0  0  0  0  0  0  0
   11.2188  -17.7732   24.8423 O   0  0  0  0  0  0  0  0  0  0  0  0
    9.3137  -17.1129   25.9738 C   0  0  2  0  0  0  0  0  0  0  0  0
    9.1435  -15.9708   25.1102 N   0  0  0  0  0  0  0  0  0  0  0  0
   10.1812  -16.7698   27.1497 C   0  0  0  0  0  0  0  0  0  0  0  0
   10.4259  -17.6472   28.1821 O   0  0  0  0  0  0  0  0  0  0  0  0
   10.7116  -15.6436   27.2105 O   0  0  0  0  0  0  0  0  0  0  0  0
  2  4  1  0
  2  1  1  1
  3  2  1  0
  4  6  1  0
  4  5  1  6
  6  7  2  0
  8  9  1  0
  8  6  1  0
 10 11  1  0
  9 10  1  1
 11 12  2  0
 12 13  1  0
 14 13  2  0
 15 14  1  0
 16 15  2  0
 16 11  1  0
 17  9  1  0
 17 18  2  0
 20 19  1  6
 20 22  1  0
 21 20  1  0
 22 23  1  6
 22 24  1  0
 23 17  1  0
 24 25  1  0
 26 24  2  0
M  END
$$$$
