VFT.pdb
     RDKit          3D

 26 26  0  0  1  0  0  0  0  0999 V2000
    7.0145  -18.6197   21.5810 C   0  0  0  0  0  0  0  0  0  0  0  0
    7.1758  -17.6161   20.4848 C   0  0  1  0  0  0  0  0  0  0  0  0
    6.5034  -17.9921   19.1837 C   0  0  0  0  0  0  0  0  0  0  0  0
    6.9079  -16.2100   20.8892 C   0  0  2  0  0  0  0  0  0  0  0  0
    7.1091  -15.3301   19.7620 N   0  0  0  0  0  0  0  0  0  0  0  0
    7.6767  -15.7098   22.0303 C   0  0  0  0  0  0  0  0  0  0  0  0
    8.9025  -15.3660   21.9634 O   0  0  0  0  0  0  0  0  0  0  0  0
    7.0494  -15.5904   23.2940 N   0  0  0  0  0  0  0  0  0  0  0  0
    7.7227  -15.1970   24.5063 C   0  0  1  0  0  0  0  0  0  0  0  0
    6.9148  -14.4415   25.4932 C   0  0  0  0  0  0  0  0  0  0  0  0
    7.7524  -13.9565   26.6159 C   0  0  0  0  0  0  0  0  0  0  0  0
    8.1368  -14.8556   27.6040 C   0  0  0  0  0  0  0  0  0  0  0  0
    8.9154  -14.4440   28.6755 C   0  0  0  0  0  0  0  0  0  0  0  0
    9.2846  -13.1230   28.7141 C   0  0  0  0  0  0  0  0  0  0  0  0
    8.9017  -12.2310   27.7305 C   0  0  0  0  0  0  0  0  0  0  0  0
    8.1261  -12.6381   26.6644 C   0  0  0  0  0  0  0  0  0  0  0  0
    8.5123  -16.3225   25.0873 C   0  0  0  0  0  0  0  0  0  0  0  0
    7.8677  -17.3221   25.5283 O   0  0  0  0  0  0  0  0  0  0  0  0
   10.8079  -18.4877   23.3380 C   0  0  0  0  0  0  0  0  0  0  0  0
   11.5958  -17.9917   24.5326 C   0  0  1  0  0  0  0  0  0  0  0  0
   12.4140  -16.9047   24.1425 O   0  0  0  0  0  0  0  0  0  0  0  0
   10.7112  -17.4540   25.6067 C   0  0  2  0  0  0  0  0  0  0  0  0
    9.9006  -16.3432   25.1729 N   0  0  0  0  0  0  0  0  0  0  0  0
   11.6220  -17.0459   26.7278 C   0  0  0  0  0  0  0  0  0  0  0  0
   12.3799  -17.9454   27.4433 O   0  0  0  0  0  0  0  0  0  0  0  0
   11.7079  -15.8419   27.0385 O   0  0  0  0  0  0  0  0  0  0  0  0
  2  4  1  0
  2  1  1  1
  3  2  1  0
  4  6  1  0
  4  5  1  6
  6  7  2  0
  8  9  1  0
  8  6  1  0
 10 11  1  0
  9 10  1  1
 11 12  2  0
 12 13  1  0
 14 13  2  0
 15 14  1  0
 16 15  2  0
 16 11  1  0
 17  9  1  0
 17 18  2  0
 20 19  1  6
 20 22  1  0
 21 20  1  0
 22 23  1  6
 22 24  1  0
 23 17  1  0
 24 25  1  0
 26 24  2  0
M  END
$$$$
