VFT.pdb
     RDKit          3D

 26 26  0  0  1  0  0  0  0  0999 V2000
    9.3773  -19.6031   21.8589 C   0  0  0  0  0  0  0  0  0  0  0  0
    9.8031  -18.8989   20.6108 C   0  0  1  0  0  0  0  0  0  0  0  0
    9.7388  -19.7440   19.3585 C   0  0  0  0  0  0  0  0  0  0  0  0
    9.2068  -17.5484   20.4285 C   0  0  2  0  0  0  0  0  0  0  0  0
    9.7615  -16.9239   19.2505 N   0  0  0  0  0  0  0  0  0  0  0  0
    9.3326  -16.6301   21.5616 C   0  0  0  0  0  0  0  0  0  0  0  0
   10.4434  -16.1574   21.9714 O   0  0  0  0  0  0  0  0  0  0  0  0
    8.1707  -16.2258   22.2627 N   0  0  0  0  0  0  0  0  0  0  0  0
    8.1758  -15.4069   23.4490 C   0  0  1  0  0  0  0  0  0  0  0  0
    7.0640  -14.4358   23.5839 C   0  0  0  0  0  0  0  0  0  0  0  0
    7.1402  -13.7062   24.8720 C   0  0  0  0  0  0  0  0  0  0  0  0
    8.1052  -12.7176   25.0275 C   0  0  0  0  0  0  0  0  0  0  0  0
    8.2161  -12.0140   26.2176 C   0  0  0  0  0  0  0  0  0  0  0  0
    7.3389  -12.3353   27.2227 C   0  0  0  0  0  0  0  0  0  0  0  0
    6.3803  -13.3182   27.0658 C   0  0  0  0  0  0  0  0  0  0  0  0
    6.2690  -14.0202   25.8831 C   0  0  0  0  0  0  0  0  0  0  0  0
    8.4409  -16.2160   24.6749 C   0  0  0  0  0  0  0  0  0  0  0  0
    7.4832  -16.9077   25.1371 O   0  0  0  0  0  0  0  0  0  0  0  0
   10.9752  -18.9399   25.1233 C   0  0  0  0  0  0  0  0  0  0  0  0
   11.1879  -17.9470   26.2469 C   0  0  1  0  0  0  0  0  0  0  0  0
   12.2310  -17.0553   25.9003 O   0  0  0  0  0  0  0  0  0  0  0  0
    9.9907  -17.0855   26.4713 C   0  0  2  0  0  0  0  0  0  0  0  0
    9.6641  -16.2590   25.3358 N   0  0  0  0  0  0  0  0  0  0  0  0
   10.3059  -16.2432   27.6730 C   0  0  0  0  0  0  0  0  0  0  0  0
   10.5465  -16.7758   28.9196 O   0  0  0  0  0  0  0  0  0  0  0  0
   10.3557  -15.0035   27.5549 O   0  0  0  0  0  0  0  0  0  0  0  0
  2  4  1  0
  2  1  1  1
  3  2  1  0
  4  6  1  0
  4  5  1  6
  6  7  2  0
  8  9  1  0
  8  6  1  0
 10 11  1  0
  9 10  1  1
 11 12  2  0
 12 13  1  0
 14 13  2  0
 15 14  1  0
 16 15  2  0
 16 11  1  0
 17  9  1  0
 17 18  2  0
 20 19  1  6
 20 22  1  0
 21 20  1  0
 22 23  1  6
 22 24  1  0
 23 17  1  0
 24 25  1  0
 26 24  2  0
M  END
$$$$
