VFT.pdb
     RDKit          3D

 26 26  0  0  1  0  0  0  0  0999 V2000
    7.7759  -18.6492   20.8314 C   0  0  0  0  0  0  0  0  0  0  0  0
    8.8111  -18.1465   19.8772 C   0  0  1  0  0  0  0  0  0  0  0  0
    8.6973  -18.7020   18.4754 C   0  0  0  0  0  0  0  0  0  0  0  0
    9.0103  -16.6726   19.9008 C   0  0  2  0  0  0  0  0  0  0  0  0
   10.1409  -16.3186   19.0751 N   0  0  0  0  0  0  0  0  0  0  0  0
    9.1741  -16.0655   21.2229 C   0  0  0  0  0  0  0  0  0  0  0  0
   10.2681  -16.0758   21.8773 O   0  0  0  0  0  0  0  0  0  0  0  0
    8.0712  -15.4228   21.8355 N   0  0  0  0  0  0  0  0  0  0  0  0
    8.0935  -14.8423   23.1548 C   0  0  1  0  0  0  0  0  0  0  0  0
    7.1195  -13.7550   23.4126 C   0  0  0  0  0  0  0  0  0  0  0  0
    7.2248  -13.2574   24.8049 C   0  0  0  0  0  0  0  0  0  0  0  0
    8.3442  -12.5189   25.1712 C   0  0  0  0  0  0  0  0  0  0  0  0
    8.4867  -12.0387   26.4646 C   0  0  0  0  0  0  0  0  0  0  0  0
    7.4825  -12.3231   27.3555 C   0  0  0  0  0  0  0  0  0  0  0  0
    6.3705  -13.0572   26.9891 C   0  0  0  0  0  0  0  0  0  0  0  0
    6.2273  -13.5368   25.7034 C   0  0  0  0  0  0  0  0  0  0  0  0
    8.1439  -15.8904   24.2163 C   0  0  0  0  0  0  0  0  0  0  0  0
    7.0617  -16.4891   24.4983 O   0  0  0  0  0  0  0  0  0  0  0  0
    9.7670  -19.1389   24.2007 C   0  0  0  0  0  0  0  0  0  0  0  0
   10.3132  -18.4190   25.4161 C   0  0  1  0  0  0  0  0  0  0  0  0
   11.5372  -17.7904   25.0843 O   0  0  0  0  0  0  0  0  0  0  0  0
    9.4144  -17.3179   25.8694 C   0  0  2  0  0  0  0  0  0  0  0  0
    9.2957  -16.2490   24.9089 N   0  0  0  0  0  0  0  0  0  0  0  0
    9.9933  -16.8156   27.1600 C   0  0  0  0  0  0  0  0  0  0  0  0
   10.1161  -17.6024   28.2831 O   0  0  0  0  0  0  0  0  0  0  0  0
   10.3853  -15.6349   27.2359 O   0  0  0  0  0  0  0  0  0  0  0  0
  2  4  1  0
  2  1  1  1
  3  2  1  0
  4  6  1  0
  4  5  1  6
  6  7  2  0
  8  9  1  0
  8  6  1  0
 10 11  1  0
  9 10  1  1
 11 12  2  0
 12 13  1  0
 14 13  2  0
 15 14  1  0
 16 15  2  0
 16 11  1  0
 17  9  1  0
 17 18  2  0
 20 19  1  6
 20 22  1  0
 21 20  1  0
 22 23  1  6
 22 24  1  0
 23 17  1  0
 24 25  1  0
 26 24  2  0
M  END
$$$$
