VFT.pdb
     RDKit          3D

 26 26  0  0  1  0  0  0  0  0999 V2000
    5.9443  -22.4769   24.1427 C   0  0  0  0  0  0  0  0  0  0  0  0
    6.5376  -21.1062   24.0773 C   0  0  1  0  0  0  0  0  0  0  0  0
    7.7742  -20.9964   23.2140 C   0  0  0  0  0  0  0  0  0  0  0  0
    5.5555  -20.0187   23.8219 C   0  0  2  0  0  0  0  0  0  0  0  0
    4.8983  -20.2408   22.5553 N   0  0  0  0  0  0  0  0  0  0  0  0
    6.0826  -18.6533   23.8549 C   0  0  0  0  0  0  0  0  0  0  0  0
    6.4774  -18.0204   22.8211 O   0  0  0  0  0  0  0  0  0  0  0  0
    6.1714  -17.9708   25.0923 N   0  0  0  0  0  0  0  0  0  0  0  0
    6.7869  -16.6797   25.2708 C   0  0  1  0  0  0  0  0  0  0  0  0
    6.3162  -15.8796   26.4265 C   0  0  0  0  0  0  0  0  0  0  0  0
    6.8569  -14.5001   26.3819 C   0  0  0  0  0  0  0  0  0  0  0  0
    6.1373  -13.5183   25.7105 C   0  0  0  0  0  0  0  0  0  0  0  0
    6.6087  -12.2159   25.6386 C   0  0  0  0  0  0  0  0  0  0  0  0
    7.8046  -11.9447   26.2544 C   0  0  0  0  0  0  0  0  0  0  0  0
    8.5181  -12.9222   26.9216 C   0  0  0  0  0  0  0  0  0  0  0  0
    8.0516  -14.2187   26.9932 C   0  0  0  0  0  0  0  0  0  0  0  0
    8.2715  -16.7545   25.1356 C   0  0  0  0  0  0  0  0  0  0  0  0
    8.9042  -17.4289   26.0040 O   0  0  0  0  0  0  0  0  0  0  0  0
    9.9692  -17.3848   21.5702 C   0  0  0  0  0  0  0  0  0  0  0  0
   10.6780  -16.2952   22.3474 C   0  0  1  0  0  0  0  0  0  0  0  0
   10.2011  -15.0292   21.9309 O   0  0  0  0  0  0  0  0  0  0  0  0
   10.3864  -16.3652   23.8088 C   0  0  2  0  0  0  0  0  0  0  0  0
    8.9980  -16.1361   24.1233 N   0  0  0  0  0  0  0  0  0  0  0  0
   11.2594  -15.3294   24.4554 C   0  0  0  0  0  0  0  0  0  0  0  0
   12.6340  -15.3566   24.3834 O   0  0  0  0  0  0  0  0  0  0  0  0
   10.7323  -14.3956   25.0907 O   0  0  0  0  0  0  0  0  0  0  0  0
  2  4  1  0
  2  1  1  6
  3  2  1  0
  4  6  1  0
  4  5  1  6
  6  7  2  0
  8  9  1  0
  8  6  1  0
 10 11  1  0
  9 10  1  1
 11 12  2  0
 12 13  1  0
 14 13  2  0
 15 14  1  0
 16 15  2  0
 16 11  1  0
 17  9  1  0
 17 18  2  0
 20 19  1  6
 20 22  1  0
 21 20  1  0
 22 23  1  6
 22 24  1  0
 23 17  1  0
 24 25  1  0
 26 24  2  0
M  END
$$$$
