VFT.pdb
     RDKit          3D

 26 26  0  0  1  0  0  0  0  0999 V2000
    8.4510  -18.4907   19.1193 C   0  0  0  0  0  0  0  0  0  0  0  0
    8.6889  -17.9973   20.5103 C   0  0  1  0  0  0  0  0  0  0  0  0
    9.2719  -19.0269   21.4519 C   0  0  0  0  0  0  0  0  0  0  0  0
    9.3805  -16.6829   20.5905 C   0  0  2  0  0  0  0  0  0  0  0  0
   10.7286  -16.8081   20.0883 N   0  0  0  0  0  0  0  0  0  0  0  0
    9.4183  -16.0541   21.9120 C   0  0  0  0  0  0  0  0  0  0  0  0
   10.4490  -16.0418   22.6622 O   0  0  0  0  0  0  0  0  0  0  0  0
    8.2582  -15.4151   22.4127 N   0  0  0  0  0  0  0  0  0  0  0  0
    8.1626  -14.7953   23.7106 C   0  0  1  0  0  0  0  0  0  0  0  0
    7.1476  -13.7249   23.8563 C   0  0  0  0  0  0  0  0  0  0  0  0
    7.1269  -13.1874   25.2376 C   0  0  0  0  0  0  0  0  0  0  0  0
    8.3101  -12.7113   25.7906 C   0  0  0  0  0  0  0  0  0  0  0  0
    8.3379  -12.2051   27.0816 C   0  0  0  0  0  0  0  0  0  0  0  0
    7.1565  -12.1961   27.7795 C   0  0  0  0  0  0  0  0  0  0  0  0
    5.9813  -12.6698   27.2277 C   0  0  0  0  0  0  0  0  0  0  0  0
    5.9517  -13.1748   25.9440 C   0  0  0  0  0  0  0  0  0  0  0  0
    8.1512  -15.8099   24.8053 C   0  0  0  0  0  0  0  0  0  0  0  0
    7.0382  -16.3457   25.0940 O   0  0  0  0  0  0  0  0  0  0  0  0
    9.2034  -19.1092   24.7627 C   0  0  0  0  0  0  0  0  0  0  0  0
   10.0001  -18.5112   25.9035 C   0  0  1  0  0  0  0  0  0  0  0  0
   11.2605  -18.0792   25.4260 O   0  0  0  0  0  0  0  0  0  0  0  0
    9.3512  -17.2905   26.4644 C   0  0  2  0  0  0  0  0  0  0  0  0
    9.2772  -16.2018   25.5218 N   0  0  0  0  0  0  0  0  0  0  0  0
   10.1644  -16.9039   27.6653 C   0  0  0  0  0  0  0  0  0  0  0  0
   10.2753  -17.6997   28.7834 O   0  0  0  0  0  0  0  0  0  0  0  0
   10.7730  -15.8163   27.6675 O   0  0  0  0  0  0  0  0  0  0  0  0
  2  4  1  0
  2  1  1  6
  3  2  1  0
  4  6  1  0
  4  5  1  1
  6  7  2  0
  8  9  1  0
  8  6  1  0
 10 11  1  0
  9 10  1  6
 11 12  2  0
 12 13  1  0
 14 13  2  0
 15 14  1  0
 16 15  2  0
 16 11  1  0
 17  9  1  0
 17 18  2  0
 20 19  1  6
 20 22  1  0
 21 20  1  0
 22 23  1  6
 22 24  1  0
 23 17  1  0
 24 25  1  0
 26 24  2  0
M  END
$$$$
