VFT.pdb
     RDKit          3D

 26 26  0  0  1  0  0  0  0  0999 V2000
    7.9835  -18.9045   21.0897 C   0  0  0  0  0  0  0  0  0  0  0  0
    8.8319  -18.2655   20.0377 C   0  0  1  0  0  0  0  0  0  0  0  0
    8.6964  -18.8785   18.6621 C   0  0  0  0  0  0  0  0  0  0  0  0
    8.7763  -16.7792   20.0166 C   0  0  2  0  0  0  0  0  0  0  0  0
    9.7164  -16.2683   19.0468 N   0  0  0  0  0  0  0  0  0  0  0  0
    8.9981  -16.1077   21.2984 C   0  0  0  0  0  0  0  0  0  0  0  0
   10.1354  -16.0255   21.8684 O   0  0  0  0  0  0  0  0  0  0  0  0
    7.9051  -15.5057   21.9675 N   0  0  0  0  0  0  0  0  0  0  0  0
    7.9775  -14.9088   23.2776 C   0  0  1  0  0  0  0  0  0  0  0  0
    7.0426  -13.7898   23.5443 C   0  0  0  0  0  0  0  0  0  0  0  0
    7.1603  -13.3121   24.9426 C   0  0  0  0  0  0  0  0  0  0  0  0
    8.2668  -12.5508   25.3012 C   0  0  0  0  0  0  0  0  0  0  0  0
    8.4203  -12.0880   26.5997 C   0  0  0  0  0  0  0  0  0  0  0  0
    7.4401  -12.4126   27.5034 C   0  0  0  0  0  0  0  0  0  0  0  0
    6.3408  -13.1693   27.1446 C   0  0  0  0  0  0  0  0  0  0  0  0
    6.1867  -13.6317   25.8538 C   0  0  0  0  0  0  0  0  0  0  0  0
    8.0237  -15.9439   24.3520 C   0  0  0  0  0  0  0  0  0  0  0  0
    6.9482  -16.5640   24.6128 O   0  0  0  0  0  0  0  0  0  0  0  0
    9.5220  -19.1391   24.2992 C   0  0  0  0  0  0  0  0  0  0  0  0
   10.1313  -18.4766   25.5171 C   0  0  1  0  0  0  0  0  0  0  0  0
   11.3727  -17.8931   25.1680 O   0  0  0  0  0  0  0  0  0  0  0  0
    9.2944  -17.3501   26.0232 C   0  0  2  0  0  0  0  0  0  0  0  0
    9.1648  -16.2687   25.0782 N   0  0  0  0  0  0  0  0  0  0  0  0
    9.9534  -16.8798   27.2872 C   0  0  0  0  0  0  0  0  0  0  0  0
   10.0671  -17.6669   28.4111 O   0  0  0  0  0  0  0  0  0  0  0  0
   10.4242  -15.7270   27.3391 O   0  0  0  0  0  0  0  0  0  0  0  0
  2  4  1  0
  2  1  1  1
  3  2  1  0
  4  6  1  0
  4  5  1  6
  6  7  2  0
  8  9  1  0
  8  6  1  0
 10 11  1  0
  9 10  1  1
 11 12  2  0
 12 13  1  0
 14 13  2  0
 15 14  1  0
 16 15  2  0
 16 11  1  0
 17  9  1  0
 17 18  2  0
 20 19  1  6
 20 22  1  0
 21 20  1  0
 22 23  1  6
 22 24  1  0
 23 17  1  0
 24 25  1  0
 26 24  2  0
M  END
$$$$
