VFT.pdb
     RDKit          3D

 26 26  0  0  1  0  0  0  0  0999 V2000
    7.5134  -18.9314   18.3215 C   0  0  0  0  0  0  0  0  0  0  0  0
    8.0735  -18.2800   19.5450 C   0  0  1  0  0  0  0  0  0  0  0  0
    9.3581  -18.8949   20.0530 C   0  0  0  0  0  0  0  0  0  0  0  0
    8.1272  -16.7947   19.4853 C   0  0  2  0  0  0  0  0  0  0  0  0
    9.0418  -16.3797   18.4477 N   0  0  0  0  0  0  0  0  0  0  0  0
    8.4760  -16.1117   20.7323 C   0  0  0  0  0  0  0  0  0  0  0  0
    9.6653  -15.7812   21.0511 O   0  0  0  0  0  0  0  0  0  0  0  0
    7.4547  -15.7868   21.6576 N   0  0  0  0  0  0  0  0  0  0  0  0
    7.6817  -15.1797   22.9452 C   0  0  1  0  0  0  0  0  0  0  0  0
    6.5394  -14.4433   23.5369 C   0  0  0  0  0  0  0  0  0  0  0  0
    6.9024  -13.8485   24.8453 C   0  0  0  0  0  0  0  0  0  0  0  0
    7.3529  -12.5339   24.8833 C   0  0  0  0  0  0  0  0  0  0  0  0
    7.7089  -11.9393   26.0847 C   0  0  0  0  0  0  0  0  0  0  0  0
    7.5967  -12.7003   27.2210 C   0  0  0  0  0  0  0  0  0  0  0  0
    7.1484  -14.0069   27.1809 C   0  0  0  0  0  0  0  0  0  0  0  0
    6.7949  -14.6007   25.9867 C   0  0  0  0  0  0  0  0  0  0  0  0
    8.3634  -16.1190   23.8838 C   0  0  0  0  0  0  0  0  0  0  0  0
    7.7024  -17.1232   24.2884 O   0  0  0  0  0  0  0  0  0  0  0  0
   11.4989  -17.9427   23.1048 C   0  0  0  0  0  0  0  0  0  0  0  0
   11.7100  -17.3116   24.4653 C   0  0  1  0  0  0  0  0  0  0  0  0
   12.4392  -16.1071   24.3211 O   0  0  0  0  0  0  0  0  0  0  0  0
   10.4231  -16.9189   25.1097 C   0  0  2  0  0  0  0  0  0  0  0  0
    9.6690  -15.9627   24.3376 N   0  0  0  0  0  0  0  0  0  0  0  0
   10.7873  -16.3545   26.4520 C   0  0  0  0  0  0  0  0  0  0  0  0
   10.5536  -15.0437   26.8026 O   0  0  0  0  0  0  0  0  0  0  0  0
   11.3271  -17.0919   27.2995 O   0  0  0  0  0  0  0  0  0  0  0  0
  2  4  1  0
  2  1  1  6
  3  2  1  0
  4  6  1  0
  4  5  1  6
  6  7  2  0
  8  9  1  0
  8  6  1  0
 10 11  1  0
  9 10  1  1
 11 12  2  0
 12 13  1  0
 14 13  2  0
 15 14  1  0
 16 15  2  0
 16 11  1  0
 17  9  1  0
 17 18  2  0
 20 19  1  6
 20 22  1  0
 21 20  1  0
 22 23  1  6
 22 24  1  0
 23 17  1  0
 24 25  1  0
 26 24  2  0
M  END
$$$$
