VFT.pdb
     RDKit          3D

 26 26  0  0  1  0  0  0  0  0999 V2000
    9.0470  -18.9905   19.1205 C   0  0  0  0  0  0  0  0  0  0  0  0
    9.2795  -18.3662   20.4589 C   0  0  1  0  0  0  0  0  0  0  0  0
   10.0958  -19.2089   21.4128 C   0  0  0  0  0  0  0  0  0  0  0  0
    9.7276  -16.9487   20.4107 C   0  0  2  0  0  0  0  0  0  0  0  0
   11.0480  -16.8727   19.8307 N   0  0  0  0  0  0  0  0  0  0  0  0
    9.7220  -16.2273   21.6845 C   0  0  0  0  0  0  0  0  0  0  0  0
   10.7732  -15.9691   22.3579 O   0  0  0  0  0  0  0  0  0  0  0  0
    8.4928  -15.7781   22.2249 N   0  0  0  0  0  0  0  0  0  0  0  0
    8.3556  -15.0992   23.4891 C   0  0  1  0  0  0  0  0  0  0  0  0
    7.2891  -14.0731   23.5735 C   0  0  0  0  0  0  0  0  0  0  0  0
    7.2161  -13.4834   24.9315 C   0  0  0  0  0  0  0  0  0  0  0  0
    6.1636  -13.8446   25.7647 C   0  0  0  0  0  0  0  0  0  0  0  0
    6.0529  -13.3129   27.0409 C   0  0  0  0  0  0  0  0  0  0  0  0
    7.0198  -12.4240   27.4383 C   0  0  0  0  0  0  0  0  0  0  0  0
    8.0654  -12.0665   26.6084 C   0  0  0  0  0  0  0  0  0  0  0  0
    8.1768  -12.5934   25.3381 C   0  0  0  0  0  0  0  0  0  0  0  0
    8.3828  -16.0568   24.6337 C   0  0  0  0  0  0  0  0  0  0  0  0
    7.3415  -16.7512   24.8397 O   0  0  0  0  0  0  0  0  0  0  0  0
   10.0337  -19.1497   24.9531 C   0  0  0  0  0  0  0  0  0  0  0  0
   10.5390  -18.3415   26.1300 C   0  0  1  0  0  0  0  0  0  0  0  0
   11.7489  -17.6970   25.7778 O   0  0  0  0  0  0  0  0  0  0  0  0
    9.6010  -17.2430   26.5029 C   0  0  2  0  0  0  0  0  0  0  0  0
    9.4718  -16.2340   25.4809 N   0  0  0  0  0  0  0  0  0  0  0  0
   10.1396  -16.6518   27.7732 C   0  0  0  0  0  0  0  0  0  0  0  0
   10.3075  -17.3826   28.9279 O   0  0  0  0  0  0  0  0  0  0  0  0
   10.4536  -15.4461   27.8015 O   0  0  0  0  0  0  0  0  0  0  0  0
  2  4  1  0
  2  1  1  6
  3  2  1  0
  4  6  1  0
  4  5  1  1
  6  7  2  0
  8  9  1  0
  8  6  1  0
 10 11  1  0
  9 10  1  6
 11 12  2  0
 12 13  1  0
 14 13  2  0
 15 14  1  0
 16 15  2  0
 16 11  1  0
 17  9  1  0
 17 18  2  0
 20 19  1  6
 20 22  1  0
 21 20  1  0
 22 23  1  6
 22 24  1  0
 23 17  1  0
 24 25  1  0
 26 24  2  0
M  END
$$$$
