VFT.pdb
     RDKit          3D

 26 26  0  0  1  0  0  0  0  0999 V2000
    8.3994  -18.7388   21.2190 C   0  0  0  0  0  0  0  0  0  0  0  0
    9.4505  -18.1730   20.3190 C   0  0  1  0  0  0  0  0  0  0  0  0
    9.4428  -18.7316   18.9138 C   0  0  0  0  0  0  0  0  0  0  0  0
    9.5595  -16.6899   20.3512 C   0  0  2  0  0  0  0  0  0  0  0  0
   10.7141  -16.2678   19.5935 N   0  0  0  0  0  0  0  0  0  0  0  0
    9.6078  -16.0759   21.6793 C   0  0  0  0  0  0  0  0  0  0  0  0
   10.6405  -16.0832   22.4267 O   0  0  0  0  0  0  0  0  0  0  0  0
    8.4562  -15.4297   22.1900 N   0  0  0  0  0  0  0  0  0  0  0  0
    8.3599  -14.8524   23.5074 C   0  0  1  0  0  0  0  0  0  0  0  0
    7.3242  -13.8087   23.6952 C   0  0  0  0  0  0  0  0  0  0  0  0
    7.3198  -13.2994   25.0872 C   0  0  0  0  0  0  0  0  0  0  0  0
    6.1247  -12.8431   25.6314 C   0  0  0  0  0  0  0  0  0  0  0  0
    6.0757  -12.3526   26.9279 C   0  0  0  0  0  0  0  0  0  0  0  0
    7.2484  -12.3393   27.6402 C   0  0  0  0  0  0  0  0  0  0  0  0
    8.4353  -12.7936   27.0973 C   0  0  0  0  0  0  0  0  0  0  0  0
    8.4864  -13.2808   25.8074 C   0  0  0  0  0  0  0  0  0  0  0  0
    8.3799  -15.9003   24.5701 C   0  0  0  0  0  0  0  0  0  0  0  0
    7.2741  -16.4383   24.8813 O   0  0  0  0  0  0  0  0  0  0  0  0
    9.6725  -19.2350   24.5164 C   0  0  0  0  0  0  0  0  0  0  0  0
   10.3635  -18.5774   25.6928 C   0  0  1  0  0  0  0  0  0  0  0  0
   11.6224  -18.0764   25.2834 O   0  0  0  0  0  0  0  0  0  0  0  0
    9.6117  -17.3913   26.1963 C   0  0  2  0  0  0  0  0  0  0  0  0
    9.5277  -16.3207   25.2340 N   0  0  0  0  0  0  0  0  0  0  0  0
   10.3294  -16.9415   27.4355 C   0  0  0  0  0  0  0  0  0  0  0  0
   10.4637  -17.7339   28.5534 O   0  0  0  0  0  0  0  0  0  0  0  0
   10.8323  -15.8017   27.4714 O   0  0  0  0  0  0  0  0  0  0  0  0
  2  4  1  0
  2  1  1  6
  3  2  1  0
  4  6  1  0
  4  5  1  6
  6  7  2  0
  8  9  1  0
  8  6  1  0
 10 11  1  0
  9 10  1  6
 11 12  2  0
 12 13  1  0
 14 13  2  0
 15 14  1  0
 16 15  2  0
 16 11  1  0
 17  9  1  0
 17 18  2  0
 20 19  1  6
 20 22  1  0
 21 20  1  0
 22 23  1  6
 22 24  1  0
 23 17  1  0
 24 25  1  0
 26 24  2  0
M  END
$$$$
