VFT.pdb
     RDKit          3D

 26 26  0  0  1  0  0  0  0  0999 V2000
    8.1636  -18.8411   20.8647 C   0  0  0  0  0  0  0  0  0  0  0  0
    9.0454  -18.2014   19.8408 C   0  0  1  0  0  0  0  0  0  0  0  0
    8.9354  -18.7970   18.4553 C   0  0  0  0  0  0  0  0  0  0  0  0
    9.0093  -16.7144   19.8357 C   0  0  2  0  0  0  0  0  0  0  0  0
    9.9902  -16.2046   18.9066 N   0  0  0  0  0  0  0  0  0  0  0  0
    9.1931  -16.0607   21.1327 C   0  0  0  0  0  0  0  0  0  0  0  0
   10.3105  -15.9985   21.7433 O   0  0  0  0  0  0  0  0  0  0  0  0
    8.0840  -15.4541   21.7702 N   0  0  0  0  0  0  0  0  0  0  0  0
    8.1239  -14.8483   23.0776 C   0  0  1  0  0  0  0  0  0  0  0  0
    7.1548  -13.7547   23.3268 C   0  0  0  0  0  0  0  0  0  0  0  0
    7.2479  -13.2605   24.7212 C   0  0  0  0  0  0  0  0  0  0  0  0
    6.1974  -13.5153   25.5953 C   0  0  0  0  0  0  0  0  0  0  0  0
    6.2398  -13.0666   26.9071 C   0  0  0  0  0  0  0  0  0  0  0  0
    7.3543  -12.3677   27.2973 C   0  0  0  0  0  0  0  0  0  0  0  0
    8.3976  -12.1159   26.4267 C   0  0  0  0  0  0  0  0  0  0  0  0
    8.3569  -12.5603   25.1211 C   0  0  0  0  0  0  0  0  0  0  0  0
    8.1866  -15.8757   24.1585 C   0  0  0  0  0  0  0  0  0  0  0  0
    7.1222  -16.5143   24.4202 O   0  0  0  0  0  0  0  0  0  0  0  0
    9.6951  -19.0681   24.1999 C   0  0  0  0  0  0  0  0  0  0  0  0
   10.3076  -18.3643   25.3929 C   0  0  1  0  0  0  0  0  0  0  0  0
   11.5446  -17.7870   25.0188 O   0  0  0  0  0  0  0  0  0  0  0  0
    9.4683  -17.2258   25.8671 C   0  0  2  0  0  0  0  0  0  0  0  0
    9.3315  -16.1745   24.8898 N   0  0  0  0  0  0  0  0  0  0  0  0
   10.1298  -16.7146   27.1137 C   0  0  0  0  0  0  0  0  0  0  0  0
   10.2971  -17.4841   28.2431 O   0  0  0  0  0  0  0  0  0  0  0  0
   10.5524  -15.5425   27.1452 O   0  0  0  0  0  0  0  0  0  0  0  0
  2  4  1  0
  2  1  1  1
  3  2  1  0
  4  6  1  0
  4  5  1  6
  6  7  2  0
  8  9  1  0
  8  6  1  0
 10 11  1  0
  9 10  1  1
 11 12  2  0
 12 13  1  0
 14 13  2  0
 15 14  1  0
 16 15  2  0
 16 11  1  0
 17  9  1  0
 17 18  2  0
 20 19  1  6
 20 22  1  0
 21 20  1  0
 22 23  1  6
 22 24  1  0
 23 17  1  0
 24 25  1  0
 26 24  2  0
M  END
$$$$
