VFT.pdb
     RDKit          3D

 26 26  0  0  1  0  0  0  0  0999 V2000
    9.7116  -19.6947   20.0506 C   0  0  0  0  0  0  0  0  0  0  0  0
    9.8946  -18.7498   21.1946 C   0  0  1  0  0  0  0  0  0  0  0  0
   11.0993  -19.0378   22.0619 C   0  0  0  0  0  0  0  0  0  0  0  0
    9.7714  -17.3118   20.8349 C   0  0  2  0  0  0  0  0  0  0  0  0
   10.8143  -16.9494   19.9040 N   0  0  0  0  0  0  0  0  0  0  0  0
    9.7764  -16.3653   21.9517 C   0  0  0  0  0  0  0  0  0  0  0  0
   10.8301  -15.8091   22.4051 O   0  0  0  0  0  0  0  0  0  0  0  0
    8.5555  -16.0289   22.5849 N   0  0  0  0  0  0  0  0  0  0  0  0
    8.4436  -15.1815   23.7456 C   0  0  1  0  0  0  0  0  0  0  0  0
    7.2583  -14.2929   23.8007 C   0  0  0  0  0  0  0  0  0  0  0  0
    7.2438  -13.4920   25.0480 C   0  0  0  0  0  0  0  0  0  0  0  0
    6.3599  -13.8440   26.0616 C   0  0  0  0  0  0  0  0  0  0  0  0
    6.3084  -13.1191   27.2429 C   0  0  0  0  0  0  0  0  0  0  0  0
    7.1610  -12.0506   27.3632 C   0  0  0  0  0  0  0  0  0  0  0  0
    8.0390  -11.7027   26.3543 C   0  0  0  0  0  0  0  0  0  0  0  0
    8.0910  -12.4218   25.1779 C   0  0  0  0  0  0  0  0  0  0  0  0
    8.7081  -15.9365   25.0057 C   0  0  0  0  0  0  0  0  0  0  0  0
    7.8379  -16.7831   25.3734 O   0  0  0  0  0  0  0  0  0  0  0  0
   11.2512  -18.4026   25.7068 C   0  0  0  0  0  0  0  0  0  0  0  0
   11.4101  -17.3637   26.7972 C   0  0  1  0  0  0  0  0  0  0  0  0
   12.4297  -16.4504   26.4368 O   0  0  0  0  0  0  0  0  0  0  0  0
   10.1814  -16.5353   26.9693 C   0  0  2  0  0  0  0  0  0  0  0  0
    9.8417  -15.7711   25.7947 N   0  0  0  0  0  0  0  0  0  0  0  0
   10.4517  -15.6308   28.1363 C   0  0  0  0  0  0  0  0  0  0  0  0
   10.7067  -16.1002   29.4052 O   0  0  0  0  0  0  0  0  0  0  0  0
   10.4485  -14.3961   27.9666 O   0  0  0  0  0  0  0  0  0  0  0  0
  2  4  1  0
  2  1  1  6
  3  2  1  0
  4  6  1  0
  4  5  1  6
  6  7  2  0
  8  9  1  0
  8  6  1  0
 10 11  1  0
  9 10  1  1
 11 12  2  0
 12 13  1  0
 14 13  2  0
 15 14  1  0
 16 15  2  0
 16 11  1  0
 17  9  1  0
 17 18  2  0
 20 19  1  6
 20 22  1  0
 21 20  1  0
 22 23  1  6
 22 24  1  0
 23 17  1  0
 24 25  1  0
 26 24  2  0
M  END
$$$$
