VFT.pdb
     RDKit          3D

 26 26  0  0  1  0  0  0  0  0999 V2000
    9.4085  -19.2787   22.1971 C   0  0  0  0  0  0  0  0  0  0  0  0
   10.1258  -18.6397   21.0516 C   0  0  1  0  0  0  0  0  0  0  0  0
   10.1468  -19.4640   19.7840 C   0  0  0  0  0  0  0  0  0  0  0  0
    9.7633  -17.2174   20.8107 C   0  0  2  0  0  0  0  0  0  0  0  0
   10.6232  -16.6590   19.7937 N   0  0  0  0  0  0  0  0  0  0  0  0
    9.7772  -16.3412   21.9834 C   0  0  0  0  0  0  0  0  0  0  0  0
   10.8434  -15.9218   22.5426 O   0  0  0  0  0  0  0  0  0  0  0  0
    8.5511  -15.9189   22.5518 N   0  0  0  0  0  0  0  0  0  0  0  0
    8.4375  -15.0776   23.7168 C   0  0  1  0  0  0  0  0  0  0  0  0
    7.2828  -14.1487   23.7484 C   0  0  0  0  0  0  0  0  0  0  0  0
    7.2652  -13.3546   25.0000 C   0  0  0  0  0  0  0  0  0  0  0  0
    6.3632  -13.6981   26.0005 C   0  0  0  0  0  0  0  0  0  0  0  0
    6.3083  -12.9790   27.1852 C   0  0  0  0  0  0  0  0  0  0  0  0
    7.1760  -11.9249   27.3222 C   0  0  0  0  0  0  0  0  0  0  0  0
    8.0720  -11.5853   26.3264 C   0  0  0  0  0  0  0  0  0  0  0  0
    8.1275  -12.2986   25.1466 C   0  0  0  0  0  0  0  0  0  0  0  0
    8.6417  -15.8517   24.9766 C   0  0  0  0  0  0  0  0  0  0  0  0
    7.7396  -16.6804   25.3060 O   0  0  0  0  0  0  0  0  0  0  0  0
   10.9351  -18.4635   25.7814 C   0  0  0  0  0  0  0  0  0  0  0  0
   11.1748  -17.4192   26.8517 C   0  0  1  0  0  0  0  0  0  0  0  0
   12.2702  -16.6031   26.4809 O   0  0  0  0  0  0  0  0  0  0  0  0
   10.0196  -16.4865   26.9973 C   0  0  2  0  0  0  0  0  0  0  0  0
    9.7521  -15.7221   25.8043 N   0  0  0  0  0  0  0  0  0  0  0  0
   10.3590  -15.5829   28.1467 C   0  0  0  0  0  0  0  0  0  0  0  0
   10.5818  -16.0461   29.4240 O   0  0  0  0  0  0  0  0  0  0  0  0
   10.4469  -14.3547   27.9539 O   0  0  0  0  0  0  0  0  0  0  0  0
  2  4  1  0
  2  1  1  1
  3  2  1  0
  4  6  1  0
  4  5  1  6
  6  7  2  0
  8  9  1  0
  8  6  1  0
 10 11  1  0
  9 10  1  1
 11 12  2  0
 12 13  1  0
 14 13  2  0
 15 14  1  0
 16 15  2  0
 16 11  1  0
 17  9  1  0
 17 18  2  0
 20 19  1  6
 20 22  1  0
 21 20  1  0
 22 23  1  6
 22 24  1  0
 23 17  1  0
 24 25  1  0
 26 24  2  0
M  END
$$$$
