KTY.pdb
     RDKit          3D

 29 29  0  0  1  0  0  0  0  0999 V2000
    8.5886  -16.8757   17.6880 N   0  0  0  0  0  0  0  0  0  0  0  0
    9.1720  -15.9929   18.6697 C   0  0  1  0  0  0  0  0  0  0  0  0
    9.1089  -14.5850   18.2092 C   0  0  0  0  0  0  0  0  0  0  0  0
    9.0803  -14.4744   16.7245 C   0  0  0  0  0  0  0  0  0  0  0  0
    7.8334  -13.9635   16.0973 C   0  0  0  0  0  0  0  0  0  0  0  0
    8.1764  -13.0513   14.8919 C   0  0  0  0  0  0  0  0  0  0  0  0
    8.3648  -13.8961   13.7299 N   0  0  0  0  0  0  0  0  0  0  0  0
    8.4901  -16.2171   19.9648 C   0  0  0  0  0  0  0  0  0  0  0  0
    7.2657  -16.4747   19.9594 O   0  0  0  0  0  0  0  0  0  0  0  0
    7.0786  -18.3576   21.2940 C   0  0  0  0  0  0  0  0  0  0  0  0
    8.1390  -18.1196   22.3200 C   0  0  1  0  0  0  0  0  0  0  0  0
    9.2560  -18.9381   22.1661 O   0  0  0  0  0  0  0  0  0  0  0  0
    8.5366  -16.6612   22.4185 C   0  0  2  0  0  0  0  0  0  0  0  0
    9.1447  -16.1576   21.2258 N   0  0  0  0  0  0  0  0  0  0  0  0
    9.4777  -16.4880   23.5572 C   0  0  0  0  0  0  0  0  0  0  0  0
   10.7095  -16.8045   23.4359 O   0  0  0  0  0  0  0  0  0  0  0  0
    5.0336  -11.8294   27.2409 O   0  0  0  0  0  0  0  0  0  0  0  0
    6.2415  -12.4482   26.9376 C   0  0  0  0  0  0  0  0  0  0  0  0
    6.3357  -13.4587   26.0018 C   0  0  0  0  0  0  0  0  0  0  0  0
    7.5454  -14.0625   25.7131 C   0  0  0  0  0  0  0  0  0  0  0  0
    8.6933  -13.6604   26.3635 C   0  0  0  0  0  0  0  0  0  0  0  0
   10.0261  -14.2275   26.1380 C   0  0  0  0  0  0  0  0  0  0  0  0
   10.0058  -15.7209   25.8986 C   0  0  2  0  0  0  0  0  0  0  0  0
    9.0896  -15.9751   24.8209 N   0  0  0  0  0  0  0  0  0  0  0  0
    9.6088  -16.3628   27.1616 C   0  0  0  0  0  0  0  0  0  0  0  0
   10.4328  -16.2897   28.2566 O   0  0  0  0  0  0  0  0  0  0  0  0
    8.5726  -12.6480   27.2949 C   0  0  0  0  0  0  0  0  0  0  0  0
    7.3846  -12.0527   27.5807 C   0  0  0  0  0  0  0  0  0  0  0  0
    8.5278  -16.9699   27.2336 O   0  0  0  0  0  0  0  0  0  0  0  0
  2  1  1  6
  2  3  1  0
  4  5  1  0
  4  3  1  0
  6  5  1  0
  7  6  1  0
  8 14  1  0
  8  2  1  0
  9  8  2  0
 11 10  1  6
 12 11  1  0
 13 11  1  0
 13 14  1  6
 15 16  2  0
 15 13  1  0
 17 18  1  0
 18 28  2  0
 19 18  1  0
 19 20  2  0
 20 21  1  0
 21 27  2  0
 21 22  1  0
 23 22  1  1
 23 25  1  0
 23 24  1  0
 24 15  1  0
 25 26  1  0
 28 27  1  0
 29 25  2  0
M  END
$$$$
