KTY.pdb
     RDKit          3D

 29 29  0  0  1  0  0  0  0  0999 V2000
    9.9618  -14.7538   16.7074 N   0  0  0  0  0  0  0  0  0  0  0  0
   10.7243  -15.1160   17.8783 C   0  0  1  0  0  0  0  0  0  0  0  0
   11.8765  -14.1998   18.0553 C   0  0  0  0  0  0  0  0  0  0  0  0
   13.1474  -14.9305   18.3167 C   0  0  0  0  0  0  0  0  0  0  0  0
   14.3756  -14.1200   18.5258 C   0  0  0  0  0  0  0  0  0  0  0  0
   15.5528  -15.0336   18.9526 C   0  0  0  0  0  0  0  0  0  0  0  0
   16.7569  -14.2283   18.9829 N   0  0  0  0  0  0  0  0  0  0  0  0
    9.8104  -15.1403   19.0430 C   0  0  0  0  0  0  0  0  0  0  0  0
    8.9916  -14.2042   19.1805 O   0  0  0  0  0  0  0  0  0  0  0  0
    7.0578  -17.4815   19.9589 C   0  0  0  0  0  0  0  0  0  0  0  0
    7.9906  -17.4175   21.1248 C   0  0  1  0  0  0  0  0  0  0  0  0
    8.7527  -18.5719   21.2919 O   0  0  0  0  0  0  0  0  0  0  0  0
    8.8653  -16.1809   21.1031 C   0  0  2  0  0  0  0  0  0  0  0  0
    9.8043  -16.1695   20.0242 N   0  0  0  0  0  0  0  0  0  0  0  0
    9.6009  -16.0808   22.3920 C   0  0  0  0  0  0  0  0  0  0  0  0
   10.8197  -16.4549   22.4752 O   0  0  0  0  0  0  0  0  0  0  0  0
   10.7627  -15.0453   31.1431 O   0  0  0  0  0  0  0  0  0  0  0  0
   10.2793  -14.9927   29.8402 C   0  0  0  0  0  0  0  0  0  0  0  0
   10.4914  -13.9026   29.0204 C   0  0  0  0  0  0  0  0  0  0  0  0
   10.0032  -13.8679   27.7274 C   0  0  0  0  0  0  0  0  0  0  0  0
    9.2869  -14.9357   27.2283 C   0  0  0  0  0  0  0  0  0  0  0  0
    8.7239  -15.0081   25.8768 C   0  0  0  0  0  0  0  0  0  0  0  0
    9.6915  -15.5666   24.8571 C   0  0  2  0  0  0  0  0  0  0  0  0
    9.0224  -15.5790   23.5853 N   0  0  0  0  0  0  0  0  0  0  0  0
   10.0892  -16.9065   25.3169 C   0  0  0  0  0  0  0  0  0  0  0  0
    9.2544  -17.9768   25.1146 O   0  0  0  0  0  0  0  0  0  0  0  0
    9.0884  -16.0139   28.0680 C   0  0  0  0  0  0  0  0  0  0  0  0
    9.5673  -16.0505   29.3396 C   0  0  0  0  0  0  0  0  0  0  0  0
   11.1807  -17.0656   25.8877 O   0  0  0  0  0  0  0  0  0  0  0  0
  2  1  1  6
  2  3  1  0
  4  5  1  0
  4  3  1  0
  6  5  1  0
  7  6  1  0
  8 14  1  0
  8  2  1  0
  9  8  2  0
 11 10  1  6
 12 11  1  0
 13 11  1  0
 13 14  1  6
 15 16  2  0
 15 13  1  0
 17 18  1  0
 18 28  2  0
 19 18  1  0
 19 20  2  0
 20 21  1  0
 21 27  2  0
 21 22  1  0
 23 22  1  1
 23 25  1  0
 23 24  1  0
 24 15  1  0
 25 26  1  0
 28 27  1  0
 29 25  2  0
M  END
$$$$
