KTY.pdb
     RDKit          3D

 29 29  0  0  1  0  0  0  0  0999 V2000
    8.2508  -19.0924   20.4117 N   0  0  0  0  0  0  0  0  0  0  0  0
    7.8428  -18.2949   19.2800 C   0  0  1  0  0  0  0  0  0  0  0  0
    6.4170  -18.5396   18.9552 C   0  0  0  0  0  0  0  0  0  0  0  0
    6.2414  -19.6336   17.9604 C   0  0  0  0  0  0  0  0  0  0  0  0
    4.8540  -19.9710   17.5476 C   0  0  0  0  0  0  0  0  0  0  0  0
    4.8701  -21.1216   16.5091 C   0  0  0  0  0  0  0  0  0  0  0  0
    3.4992  -21.4121   16.1409 N   0  0  0  0  0  0  0  0  0  0  0  0
    8.1412  -16.8750   19.5759 C   0  0  0  0  0  0  0  0  0  0  0  0
    7.8151  -16.0075   18.7353 O   0  0  0  0  0  0  0  0  0  0  0  0
    6.8788  -14.0707   20.0546 C   0  0  0  0  0  0  0  0  0  0  0  0
    7.6551  -14.3105   21.3090 C   0  0  1  0  0  0  0  0  0  0  0  0
    6.9139  -14.9314   22.3121 O   0  0  0  0  0  0  0  0  0  0  0  0
    8.9576  -15.0417   21.0566 C   0  0  2  0  0  0  0  0  0  0  0  0
    8.7806  -16.4310   20.7658 N   0  0  0  0  0  0  0  0  0  0  0  0
    9.8356  -14.9001   22.2487 C   0  0  0  0  0  0  0  0  0  0  0  0
   10.2175  -13.7456   22.6409 O   0  0  0  0  0  0  0  0  0  0  0  0
   10.7470  -14.2842   30.5938 O   0  0  0  0  0  0  0  0  0  0  0  0
   10.4556  -14.6211   29.2764 C   0  0  0  0  0  0  0  0  0  0  0  0
   10.4496  -15.9293   28.8358 C   0  0  0  0  0  0  0  0  0  0  0  0
   10.1574  -16.2454   27.5220 C   0  0  0  0  0  0  0  0  0  0  0  0
    9.8632  -15.2464   26.6178 C   0  0  0  0  0  0  0  0  0  0  0  0
    9.5393  -15.4643   25.2048 C   0  0  0  0  0  0  0  0  0  0  0  0
   10.7300  -15.9016   24.3809 C   0  0  2  0  0  0  0  0  0  0  0  0
   10.2988  -16.0005   23.0136 N   0  0  0  0  0  0  0  0  0  0  0  0
   11.2015  -17.1805   24.9349 C   0  0  0  0  0  0  0  0  0  0  0  0
   12.3373  -17.2175   25.7043 O   0  0  0  0  0  0  0  0  0  0  0  0
    9.8757  -13.9463   27.0832 C   0  0  0  0  0  0  0  0  0  0  0  0
   10.1626  -13.6327   28.3743 C   0  0  0  0  0  0  0  0  0  0  0  0
   10.5697  -18.2246   24.7044 O   0  0  0  0  0  0  0  0  0  0  0  0
  2  1  1  1
  2  3  1  0
  4  5  1  0
  4  3  1  0
  6  5  1  0
  7  6  1  0
  8 14  1  0
  8  2  1  0
  9  8  2  0
 11 10  1  6
 12 11  1  0
 13 11  1  0
 13 14  1  1
 15 16  2  0
 15 13  1  0
 17 18  1  0
 18 28  2  0
 19 18  1  0
 19 20  2  0
 20 21  1  0
 21 27  2  0
 21 22  1  0
 23 22  1  1
 23 25  1  0
 23 24  1  0
 24 15  1  0
 25 26  1  0
 28 27  1  0
 29 25  2  0
M  END
$$$$
