KTY.pdb
     RDKit          3D

 29 29  0  0  1  0  0  0  0  0999 V2000
    9.2582  -17.0414   16.8464 N   0  0  0  0  0  0  0  0  0  0  0  0
    9.3543  -17.6799   18.1373 C   0  0  1  0  0  0  0  0  0  0  0  0
   10.5345  -18.5757   18.1905 C   0  0  0  0  0  0  0  0  0  0  0  0
   11.6560  -18.0876   17.3412 C   0  0  0  0  0  0  0  0  0  0  0  0
   12.8895  -18.9151   17.2896 C   0  0  0  0  0  0  0  0  0  0  0  0
   13.9333  -18.2607   16.3488 C   0  0  0  0  0  0  0  0  0  0  0  0
   15.0968  -19.1229   16.3016 N   0  0  0  0  0  0  0  0  0  0  0  0
    9.3691  -16.6283   19.1797 C   0  0  0  0  0  0  0  0  0  0  0  0
   10.0470  -15.5960   18.9783 O   0  0  0  0  0  0  0  0  0  0  0  0
    6.8501  -14.1913   20.1622 C   0  0  0  0  0  0  0  0  0  0  0  0
    7.1756  -15.0050   21.3728 C   0  0  1  0  0  0  0  0  0  0  0  0
    6.2145  -15.9687   21.6706 O   0  0  0  0  0  0  0  0  0  0  0  0
    8.5616  -15.6133   21.3098 C   0  0  2  0  0  0  0  0  0  0  0  0
    8.6552  -16.7181   20.4062 N   0  0  0  0  0  0  0  0  0  0  0  0
    8.9605  -16.0605   22.6711 C   0  0  0  0  0  0  0  0  0  0  0  0
    9.1743  -17.2968   22.9121 O   0  0  0  0  0  0  0  0  0  0  0  0
    5.0695  -11.3596   26.7692 O   0  0  0  0  0  0  0  0  0  0  0  0
    6.2294  -12.1083   26.6018 C   0  0  0  0  0  0  0  0  0  0  0  0
    6.8238  -12.7873   27.6464 C   0  0  0  0  0  0  0  0  0  0  0  0
    7.9772  -13.5268   27.4612 C   0  0  0  0  0  0  0  0  0  0  0  0
    8.5609  -13.5995   26.2138 C   0  0  0  0  0  0  0  0  0  0  0  0
    9.7801  -14.3513   25.9021 C   0  0  0  0  0  0  0  0  0  0  0  0
    9.5198  -15.5966   25.0838 C   0  0  2  0  0  0  0  0  0  0  0  0
    9.1276  -15.1761   23.7667 N   0  0  0  0  0  0  0  0  0  0  0  0
    8.4799  -16.3702   25.7801 C   0  0  0  0  0  0  0  0  0  0  0  0
    8.7769  -17.0186   26.9525 O   0  0  0  0  0  0  0  0  0  0  0  0
    7.9472  -12.9116   25.1856 C   0  0  0  0  0  0  0  0  0  0  0  0
    6.8133  -12.1839   25.3649 C   0  0  0  0  0  0  0  0  0  0  0  0
    7.3345  -16.4345   25.3043 O   0  0  0  0  0  0  0  0  0  0  0  0
  2  1  1  6
  2  3  1  0
  4  5  1  0
  4  3  1  0
  6  5  1  0
  7  6  1  0
  8 14  1  0
  8  2  1  0
  9  8  2  0
 11 10  1  6
 12 11  1  0
 13 11  1  0
 13 14  1  6
 15 16  2  0
 15 13  1  0
 17 18  1  0
 18 28  2  0
 19 18  1  0
 19 20  2  0
 20 21  1  0
 21 27  2  0
 21 22  1  0
 23 22  1  1
 23 25  1  0
 23 24  1  0
 24 15  1  0
 25 26  1  0
 28 27  1  0
 29 25  2  0
M  END
$$$$
