KTY.pdb
     RDKit          3D

 29 29  0  0  1  0  0  0  0  0999 V2000
   10.1520  -15.9187   19.1273 N   0  0  0  0  0  0  0  0  0  0  0  0
    9.7232  -14.8821   20.0356 C   0  0  1  0  0  0  0  0  0  0  0  0
    8.7660  -13.9667   19.3692 C   0  0  0  0  0  0  0  0  0  0  0  0
    8.6884  -14.1982   17.9003 C   0  0  0  0  0  0  0  0  0  0  0  0
    7.7869  -13.3175   17.1124 C   0  0  0  0  0  0  0  0  0  0  0  0
    7.8859  -13.6630   15.6046 C   0  0  0  0  0  0  0  0  0  0  0  0
    6.9234  -12.8460   14.8935 N   0  0  0  0  0  0  0  0  0  0  0  0
    9.1716  -15.5234   21.2510 C   0  0  0  0  0  0  0  0  0  0  0  0
    7.9488  -15.7865   21.2859 O   0  0  0  0  0  0  0  0  0  0  0  0
    8.8475  -18.7543   22.2379 C   0  0  0  0  0  0  0  0  0  0  0  0
    9.6852  -18.1313   23.3073 C   0  0  1  0  0  0  0  0  0  0  0  0
   11.0473  -18.3899   23.1689 O   0  0  0  0  0  0  0  0  0  0  0  0
    9.4214  -16.6477   23.4630 C   0  0  2  0  0  0  0  0  0  0  0  0
    9.9506  -15.8622   22.3913 N   0  0  0  0  0  0  0  0  0  0  0  0
   10.0079  -16.1800   24.7474 C   0  0  0  0  0  0  0  0  0  0  0  0
   11.2019  -15.7271   24.7895 O   0  0  0  0  0  0  0  0  0  0  0  0
    5.9190  -10.8801   25.3422 O   0  0  0  0  0  0  0  0  0  0  0  0
    6.6338  -11.8863   25.9829 C   0  0  0  0  0  0  0  0  0  0  0  0
    7.9989  -11.8113   26.1742 C   0  0  0  0  0  0  0  0  0  0  0  0
    8.6931  -12.8215   26.8135 C   0  0  0  0  0  0  0  0  0  0  0  0
    8.0252  -13.9356   27.2770 C   0  0  0  0  0  0  0  0  0  0  0  0
    8.6568  -15.0641   27.9672 C   0  0  0  0  0  0  0  0  0  0  0  0
    9.8230  -15.6523   27.2043 C   0  0  2  0  0  0  0  0  0  0  0  0
    9.3079  -16.2016   25.9802 N   0  0  0  0  0  0  0  0  0  0  0  0
   10.4527  -16.6593   28.0727 C   0  0  0  0  0  0  0  0  0  0  0  0
   10.4170  -17.9857   27.7225 O   0  0  0  0  0  0  0  0  0  0  0  0
    6.6603  -13.9867   27.0734 C   0  0  0  0  0  0  0  0  0  0  0  0
    5.9753  -12.9950   26.4451 C   0  0  0  0  0  0  0  0  0  0  0  0
   11.0157  -16.3059   29.1218 O   0  0  0  0  0  0  0  0  0  0  0  0
  2  1  1  6
  2  3  1  0
  4  5  1  0
  4  3  1  0
  6  5  1  0
  7  6  1  0
  8 14  1  0
  8  2  1  0
  9  8  2  0
 11 10  1  6
 12 11  1  0
 13 11  1  0
 13 14  1  6
 15 16  2  0
 15 13  1  0
 17 18  1  0
 18 28  2  0
 19 18  1  0
 19 20  2  0
 20 21  1  0
 21 27  2  0
 21 22  1  0
 23 22  1  1
 23 25  1  0
 23 24  1  0
 24 15  1  0
 25 26  1  0
 28 27  1  0
 29 25  2  0
M  END
$$$$
