KTY.pdb
     RDKit          3D

 29 29  0  0  1  0  0  0  0  0999 V2000
    9.9149  -17.5518   17.2241 N   0  0  0  0  0  0  0  0  0  0  0  0
    9.4593  -17.9975   18.5191 C   0  0  1  0  0  0  0  0  0  0  0  0
   10.2144  -19.1971   18.9541 C   0  0  0  0  0  0  0  0  0  0  0  0
   10.5931  -20.0742   17.8119 C   0  0  0  0  0  0  0  0  0  0  0  0
   11.3730  -21.3019   18.1174 C   0  0  0  0  0  0  0  0  0  0  0  0
   11.7394  -22.0426   16.8059 C   0  0  0  0  0  0  0  0  0  0  0  0
   12.5365  -23.2016   17.1534 N   0  0  0  0  0  0  0  0  0  0  0  0
    9.5621  -16.8646   19.4670 C   0  0  0  0  0  0  0  0  0  0  0  0
   10.3593  -15.9364   19.2055 O   0  0  0  0  0  0  0  0  0  0  0  0
    7.6342  -14.0510   19.8199 C   0  0  0  0  0  0  0  0  0  0  0  0
    7.5790  -14.6899   21.1699 C   0  0  1  0  0  0  0  0  0  0  0  0
    6.3895  -15.3732   21.4140 O   0  0  0  0  0  0  0  0  0  0  0  0
    8.7826  -15.5665   21.4486 C   0  0  2  0  0  0  0  0  0  0  0  0
    8.8053  -16.7638   20.6666 N   0  0  0  0  0  0  0  0  0  0  0  0
    8.8010  -15.9253   22.8920 C   0  0  0  0  0  0  0  0  0  0  0  0
    8.3608  -17.0583   23.2854 O   0  0  0  0  0  0  0  0  0  0  0  0
    5.5431  -10.2784   27.1298 O   0  0  0  0  0  0  0  0  0  0  0  0
    6.1141  -11.4919   26.7619 C   0  0  0  0  0  0  0  0  0  0  0  0
    7.4633  -11.6205   26.4996 C   0  0  0  0  0  0  0  0  0  0  0  0
    8.0135  -12.8352   26.1350 C   0  0  0  0  0  0  0  0  0  0  0  0
    7.2136  -13.9535   26.0258 C   0  0  0  0  0  0  0  0  0  0  0  0
    7.6872  -15.2884   25.6482 C   0  0  0  0  0  0  0  0  0  0  0  0
    9.1616  -15.3250   25.3125 C   0  0  2  0  0  0  0  0  0  0  0  0
    9.2928  -15.0641   23.9053 N   0  0  0  0  0  0  0  0  0  0  0  0
    9.6692  -16.6483   25.7075 C   0  0  0  0  0  0  0  0  0  0  0  0
    8.9617  -17.7788   25.3839 O   0  0  0  0  0  0  0  0  0  0  0  0
    5.8677  -13.7987   26.2933 C   0  0  0  0  0  0  0  0  0  0  0  0
    5.3241  -12.6056   26.6520 C   0  0  0  0  0  0  0  0  0  0  0  0
   10.7380  -16.7389   26.3334 O   0  0  0  0  0  0  0  0  0  0  0  0
  2  1  1  6
  2  3  1  0
  4  5  1  0
  4  3  1  0
  6  5  1  0
  7  6  1  0
  8 14  1  0
  8  2  1  0
  9  8  2  0
 11 10  1  6
 12 11  1  0
 13 11  1  0
 13 14  1  6
 15 16  2  0
 15 13  1  0
 17 18  1  0
 18 28  2  0
 19 18  1  0
 19 20  2  0
 20 21  1  0
 21 27  2  0
 21 22  1  0
 23 22  1  6
 23 25  1  0
 23 24  1  0
 24 15  1  0
 25 26  1  0
 28 27  1  0
 29 25  2  0
M  END
$$$$
