KTY.pdb
     RDKit          3D

 29 29  0  0  1  0  0  0  0  0999 V2000
    6.6153  -16.3384   20.5615 N   0  0  0  0  0  0  0  0  0  0  0  0
    7.5525  -15.5448   21.3200 C   0  0  1  0  0  0  0  0  0  0  0  0
    7.0685  -14.1498   21.4527 C   0  0  0  0  0  0  0  0  0  0  0  0
    7.1361  -13.4011   20.1673 C   0  0  0  0  0  0  0  0  0  0  0  0
    8.4809  -13.1617   19.5813 C   0  0  0  0  0  0  0  0  0  0  0  0
    8.3472  -12.4635   18.2039 C   0  0  0  0  0  0  0  0  0  0  0  0
    9.6795  -12.2699   17.6684 N   0  0  0  0  0  0  0  0  0  0  0  0
    7.7842  -16.2113   22.6218 C   0  0  0  0  0  0  0  0  0  0  0  0
    6.7923  -16.5675   23.2963 O   0  0  0  0  0  0  0  0  0  0  0  0
    9.1785  -19.5443   23.3390 C   0  0  0  0  0  0  0  0  0  0  0  0
    9.9951  -18.5527   24.1030 C   0  0  1  0  0  0  0  0  0  0  0  0
   11.2525  -18.3223   23.5488 O   0  0  0  0  0  0  0  0  0  0  0  0
    9.2556  -17.2529   24.3451 C   0  0  2  0  0  0  0  0  0  0  0  0
    9.0742  -16.4745   23.1590 N   0  0  0  0  0  0  0  0  0  0  0  0
   10.0008  -16.4473   25.3490 C   0  0  0  0  0  0  0  0  0  0  0  0
   10.9032  -15.6218   24.9792 O   0  0  0  0  0  0  0  0  0  0  0  0
    5.8896  -11.7550   25.7671 O   0  0  0  0  0  0  0  0  0  0  0  0
    6.7298  -12.6127   26.4688 C   0  0  0  0  0  0  0  0  0  0  0  0
    6.3449  -13.8890   26.8273 C   0  0  0  0  0  0  0  0  0  0  0  0
    7.1937  -14.7280   27.5249 C   0  0  0  0  0  0  0  0  0  0  0  0
    8.4557  -14.2987   27.8791 C   0  0  0  0  0  0  0  0  0  0  0  0
    9.4368  -15.1002   28.6166 C   0  0  0  0  0  0  0  0  0  0  0  0
   10.4725  -15.7452   27.7226 C   0  0  2  0  0  0  0  0  0  0  0  0
    9.7723  -16.5331   26.7457 N   0  0  0  0  0  0  0  0  0  0  0  0
   11.3603  -16.5425   28.5833 C   0  0  0  0  0  0  0  0  0  0  0  0
   12.1622  -15.9189   29.5061 O   0  0  0  0  0  0  0  0  0  0  0  0
    8.8167  -13.0182   27.5089 C   0  0  0  0  0  0  0  0  0  0  0  0
    7.9842  -12.1913   26.8230 C   0  0  0  0  0  0  0  0  0  0  0  0
   11.3818  -17.7793   28.4724 O   0  0  0  0  0  0  0  0  0  0  0  0
  2  1  1  1
  2  3  1  0
  4  5  1  0
  4  3  1  0
  6  5  1  0
  7  6  1  0
  8 14  1  0
  8  2  1  0
  9  8  2  0
 11 10  1  6
 12 11  1  0
 13 11  1  0
 13 14  1  6
 15 16  2  0
 15 13  1  0
 17 18  1  0
 18 28  2  0
 19 18  1  0
 19 20  2  0
 20 21  1  0
 21 27  2  0
 21 22  1  0
 23 22  1  1
 23 25  1  0
 23 24  1  0
 24 15  1  0
 25 26  1  0
 28 27  1  0
 29 25  2  0
M  END
$$$$
