KTY.pdb
     RDKit          3D

 29 29  0  0  1  0  0  0  0  0999 V2000
    9.4285  -15.8080   18.1237 N   0  0  0  0  0  0  0  0  0  0  0  0
    8.6736  -14.7847   18.8067 C   0  0  1  0  0  0  0  0  0  0  0  0
    7.6633  -14.1881   17.9002 C   0  0  0  0  0  0  0  0  0  0  0  0
    7.9091  -14.5314   16.4723 C   0  0  0  0  0  0  0  0  0  0  0  0
    7.4758  -13.5487   15.4449 C   0  0  0  0  0  0  0  0  0  0  0  0
    8.6021  -13.3343   14.4016 C   0  0  0  0  0  0  0  0  0  0  0  0
    8.1241  -12.3876   13.4143 N   0  0  0  0  0  0  0  0  0  0  0  0
    8.0866  -15.3748   20.0313 C   0  0  0  0  0  0  0  0  0  0  0  0
    6.9003  -15.7709   19.9950 O   0  0  0  0  0  0  0  0  0  0  0  0
    7.2980  -18.1121   20.8765 C   0  0  0  0  0  0  0  0  0  0  0  0
    8.2451  -17.8059   21.9914 C   0  0  1  0  0  0  0  0  0  0  0  0
    9.5249  -18.3191   21.7911 O   0  0  0  0  0  0  0  0  0  0  0  0
    8.2922  -16.3293   22.3262 C   0  0  2  0  0  0  0  0  0  0  0  0
    8.7922  -15.5212   21.2572 N   0  0  0  0  0  0  0  0  0  0  0  0
    9.1432  -16.1287   23.5294 C   0  0  0  0  0  0  0  0  0  0  0  0
   10.4004  -15.9344   23.4109 O   0  0  0  0  0  0  0  0  0  0  0  0
    6.0820  -10.4035   25.6768 O   0  0  0  0  0  0  0  0  0  0  0  0
    6.6283  -11.6354   26.0203 C   0  0  0  0  0  0  0  0  0  0  0  0
    5.8611  -12.7788   26.1178 C   0  0  0  0  0  0  0  0  0  0  0  0
    6.4216  -13.9952   26.4606 C   0  0  0  0  0  0  0  0  0  0  0  0
    7.7742  -14.0881   26.7142 C   0  0  0  0  0  0  0  0  0  0  0  0
    8.4741  -15.3218   27.0843 C   0  0  0  0  0  0  0  0  0  0  0  0
    9.4230  -15.8130   26.0137 C   0  0  2  0  0  0  0  0  0  0  0  0
    8.6383  -16.1380   24.8544 N   0  0  0  0  0  0  0  0  0  0  0  0
   10.1486  -16.9676   26.5660 C   0  0  0  0  0  0  0  0  0  0  0  0
    9.9875  -18.2103   26.0066 O   0  0  0  0  0  0  0  0  0  0  0  0
    8.5196  -12.9304   26.6100 C   0  0  0  0  0  0  0  0  0  0  0  0
    7.9711  -11.7332   26.2732 C   0  0  0  0  0  0  0  0  0  0  0  0
   10.9060  -16.8144   27.5383 O   0  0  0  0  0  0  0  0  0  0  0  0
  2  1  1  6
  2  3  1  0
  4  5  1  0
  4  3  1  0
  6  5  1  0
  7  6  1  0
  8 14  1  0
  8  2  1  0
  9  8  2  0
 11 10  1  6
 12 11  1  0
 13 11  1  0
 13 14  1  6
 15 16  2  0
 15 13  1  0
 17 18  1  0
 18 28  2  0
 19 18  1  0
 19 20  2  0
 20 21  1  0
 21 27  2  0
 21 22  1  0
 23 22  1  1
 23 25  1  0
 23 24  1  0
 24 15  1  0
 25 26  1  0
 28 27  1  0
 29 25  2  0
M  END
$$$$
