KTY.pdb
     RDKit          3D

 29 29  0  0  1  0  0  0  0  0999 V2000
    8.9075  -17.6681   16.2662 N   0  0  0  0  0  0  0  0  0  0  0  0
    9.3263  -16.6630   17.2138 C   0  0  1  0  0  0  0  0  0  0  0  0
    8.5889  -15.3961   16.9917 C   0  0  0  0  0  0  0  0  0  0  0  0
    8.6748  -14.9296   15.5802 C   0  0  0  0  0  0  0  0  0  0  0  0
    7.8947  -13.7207   15.2072 C   0  0  0  0  0  0  0  0  0  0  0  0
    8.0468  -13.4329   13.6917 C   0  0  0  0  0  0  0  0  0  0  0  0
    7.3254  -12.2124   13.3927 N   0  0  0  0  0  0  0  0  0  0  0  0
    9.1567  -17.2082   18.5800 C   0  0  0  0  0  0  0  0  0  0  0  0
    8.0990  -17.8183   18.8535 O   0  0  0  0  0  0  0  0  0  0  0  0
   10.9987  -19.8509   20.5602 C   0  0  0  0  0  0  0  0  0  0  0  0
   11.0056  -18.5832   21.3518 C   0  0  1  0  0  0  0  0  0  0  0  0
   12.2497  -17.9569   21.3887 O   0  0  0  0  0  0  0  0  0  0  0  0
    9.9193  -17.6205   20.9184 C   0  0  2  0  0  0  0  0  0  0  0  0
   10.1284  -17.0812   19.6103 N   0  0  0  0  0  0  0  0  0  0  0  0
    9.8361  -16.5053   21.8991 C   0  0  0  0  0  0  0  0  0  0  0  0
   10.6409  -15.5156   21.8272 O   0  0  0  0  0  0  0  0  0  0  0  0
    6.5845  -10.9485   27.9513 O   0  0  0  0  0  0  0  0  0  0  0  0
    6.8269  -11.8747   26.9427 C   0  0  0  0  0  0  0  0  0  0  0  0
    7.6087  -11.5783   25.8443 C   0  0  0  0  0  0  0  0  0  0  0  0
    7.8389  -12.5120   24.8510 C   0  0  0  0  0  0  0  0  0  0  0  0
    7.2842  -13.7715   24.9419 C   0  0  0  0  0  0  0  0  0  0  0  0
    7.4604  -14.8378   23.9515 C   0  0  0  0  0  0  0  0  0  0  0  0
    8.8521  -15.4303   23.9547 C   0  0  2  0  0  0  0  0  0  0  0  0
    8.8878  -16.4595   22.9522 N   0  0  0  0  0  0  0  0  0  0  0  0
    9.1121  -15.9334   25.3127 C   0  0  0  0  0  0  0  0  0  0  0  0
    9.7094  -15.1200   26.2427 O   0  0  0  0  0  0  0  0  0  0  0  0
    6.5063  -14.0431   26.0500 C   0  0  0  0  0  0  0  0  0  0  0  0
    6.2784  -13.1271   27.0280 C   0  0  0  0  0  0  0  0  0  0  0  0
    8.7899  -17.0943   25.6142 O   0  0  0  0  0  0  0  0  0  0  0  0
  2  1  1  6
  2  3  1  0
  4  5  1  0
  4  3  1  0
  6  5  1  0
  7  6  1  0
  8 14  1  0
  8  2  1  0
  9  8  2  0
 11 10  1  6
 12 11  1  0
 13 11  1  0
 13 14  1  6
 15 16  2  0
 15 13  1  0
 17 18  1  0
 18 28  2  0
 19 18  1  0
 19 20  2  0
 20 21  1  0
 21 27  2  0
 21 22  1  0
 23 22  1  1
 23 25  1  0
 23 24  1  0
 24 15  1  0
 25 26  1  0
 28 27  1  0
 29 25  2  0
M  END
$$$$
