KTY.pdb
     RDKit          3D

 29 29  0  0  1  0  0  0  0  0999 V2000
    8.1368  -16.9256   17.8538 N   0  0  0  0  0  0  0  0  0  0  0  0
    8.7419  -15.9326   18.7089 C   0  0  1  0  0  0  0  0  0  0  0  0
    7.9596  -14.6735   18.6821 C   0  0  0  0  0  0  0  0  0  0  0  0
    7.6722  -14.2134   17.2954 C   0  0  0  0  0  0  0  0  0  0  0  0
    8.7681  -13.5345   16.5556 C   0  0  0  0  0  0  0  0  0  0  0  0
    8.7419  -13.9492   15.0622 C   0  0  0  0  0  0  0  0  0  0  0  0
    7.4944  -13.4847   14.4900 N   0  0  0  0  0  0  0  0  0  0  0  0
    8.8823  -16.5068   20.0666 C   0  0  0  0  0  0  0  0  0  0  0  0
    7.8449  -16.7821   20.7097 O   0  0  0  0  0  0  0  0  0  0  0  0
   11.2687  -19.4974   21.2874 C   0  0  0  0  0  0  0  0  0  0  0  0
   11.3865  -18.2914   22.1623 C   0  0  1  0  0  0  0  0  0  0  0  0
   12.6039  -17.6262   22.0323 O   0  0  0  0  0  0  0  0  0  0  0  0
   10.2203  -17.3384   21.9999 C   0  0  2  0  0  0  0  0  0  0  0  0
   10.1327  -16.7674   20.6914 N   0  0  0  0  0  0  0  0  0  0  0  0
   10.3395  -16.2461   23.0024 C   0  0  0  0  0  0  0  0  0  0  0  0
   10.6079  -15.0526   22.6340 O   0  0  0  0  0  0  0  0  0  0  0  0
    5.5469  -11.0498   27.6166 O   0  0  0  0  0  0  0  0  0  0  0  0
    6.2428  -12.0159   26.8981 C   0  0  0  0  0  0  0  0  0  0  0  0
    7.4398  -11.7431   26.2670 C   0  0  0  0  0  0  0  0  0  0  0  0
    8.1178  -12.7165   25.5570 C   0  0  0  0  0  0  0  0  0  0  0  0
    7.6032  -13.9929   25.4659 C   0  0  0  0  0  0  0  0  0  0  0  0
    8.2341  -15.1007   24.7424 C   0  0  0  0  0  0  0  0  0  0  0  0
    9.6006  -15.4627   25.2805 C   0  0  2  0  0  0  0  0  0  0  0  0
   10.1695  -16.4425   24.3963 N   0  0  0  0  0  0  0  0  0  0  0  0
    9.4149  -15.9580   26.6535 C   0  0  0  0  0  0  0  0  0  0  0  0
    9.2579  -17.3020   26.8823 O   0  0  0  0  0  0  0  0  0  0  0  0
    6.4048  -14.2403   26.1058 C   0  0  0  0  0  0  0  0  0  0  0  0
    5.7361  -13.2852   26.8046 C   0  0  0  0  0  0  0  0  0  0  0  0
    9.4005  -15.1575   27.6029 O   0  0  0  0  0  0  0  0  0  0  0  0
  2  1  1  6
  2  3  1  0
  4  5  1  0
  4  3  1  0
  6  5  1  0
  7  6  1  0
  8 14  1  0
  8  2  1  0
  9  8  2  0
 11 10  1  6
 12 11  1  0
 13 11  1  0
 13 14  1  6
 15 16  2  0
 15 13  1  0
 17 18  1  0
 18 28  2  0
 19 18  1  0
 19 20  2  0
 20 21  1  0
 21 27  2  0
 21 22  1  0
 23 22  1  6
 23 25  1  0
 23 24  1  0
 24 15  1  0
 25 26  1  0
 28 27  1  0
 29 25  2  0
M  END
$$$$
