KTY.pdb
     RDKit          3D

 29 29  0  0  1  0  0  0  0  0999 V2000
    8.7285  -17.5577   17.7510 N   0  0  0  0  0  0  0  0  0  0  0  0
    9.9578  -17.3848   18.4875 C   0  0  1  0  0  0  0  0  0  0  0  0
   11.0967  -17.1766   17.5613 C   0  0  0  0  0  0  0  0  0  0  0  0
   11.5611  -18.4470   16.9385 C   0  0  0  0  0  0  0  0  0  0  0  0
   12.8247  -19.0406   17.4484 C   0  0  0  0  0  0  0  0  0  0  0  0
   13.2536  -20.2329   16.5555 C   0  0  0  0  0  0  0  0  0  0  0  0
   14.4605  -19.8527   15.8496 N   0  0  0  0  0  0  0  0  0  0  0  0
    9.7747  -16.2748   19.4502 C   0  0  0  0  0  0  0  0  0  0  0  0
    9.8185  -15.0994   19.0232 O   0  0  0  0  0  0  0  0  0  0  0  0
    7.5550  -14.4773   19.8458 C   0  0  0  0  0  0  0  0  0  0  0  0
    7.5938  -15.0212   21.2373 C   0  0  1  0  0  0  0  0  0  0  0  0
    6.6747  -16.0443   21.4608 O   0  0  0  0  0  0  0  0  0  0  0  0
    8.9881  -15.4336   21.6623 C   0  0  2  0  0  0  0  0  0  0  0  0
    9.5502  -16.4616   20.8418 N   0  0  0  0  0  0  0  0  0  0  0  0
    8.9497  -15.9015   23.0737 C   0  0  0  0  0  0  0  0  0  0  0  0
    8.5291  -17.0739   23.3582 O   0  0  0  0  0  0  0  0  0  0  0  0
    5.6423  -10.5036   27.6373 O   0  0  0  0  0  0  0  0  0  0  0  0
    6.1968  -11.7014   27.1995 C   0  0  0  0  0  0  0  0  0  0  0  0
    7.5531  -11.8512   26.9907 C   0  0  0  0  0  0  0  0  0  0  0  0
    8.0866  -13.0500   26.5552 C   0  0  0  0  0  0  0  0  0  0  0  0
    7.2624  -14.1303   26.3190 C   0  0  0  0  0  0  0  0  0  0  0  0
    7.7167  -15.4453   25.8572 C   0  0  0  0  0  0  0  0  0  0  0  0
    9.1965  -15.4897   25.5473 C   0  0  2  0  0  0  0  0  0  0  0  0
    9.3636  -15.1064   24.1723 N   0  0  0  0  0  0  0  0  0  0  0  0
    9.6636  -16.8560   25.8300 C   0  0  0  0  0  0  0  0  0  0  0  0
   10.2683  -17.1397   27.0288 O   0  0  0  0  0  0  0  0  0  0  0  0
    5.9098  -13.9549   26.5352 C   0  0  0  0  0  0  0  0  0  0  0  0
    5.3826  -12.7775   26.9634 C   0  0  0  0  0  0  0  0  0  0  0  0
    9.5093  -17.7500   24.9820 O   0  0  0  0  0  0  0  0  0  0  0  0
  2  1  1  6
  2  3  1  0
  4  5  1  0
  4  3  1  0
  6  5  1  0
  7  6  1  0
  8 14  1  0
  8  2  1  0
  9  8  2  0
 11 10  1  6
 12 11  1  0
 13 11  1  0
 13 14  1  6
 15 16  2  0
 15 13  1  0
 17 18  1  0
 18 28  2  0
 19 18  1  0
 19 20  2  0
 20 21  1  0
 21 27  2  0
 21 22  1  0
 23 22  1  6
 23 25  1  0
 23 24  1  0
 24 15  1  0
 25 26  1  0
 28 27  1  0
 29 25  2  0
M  END
$$$$
