KTY.pdb
     RDKit          3D

 29 29  0  0  1  0  0  0  0  0999 V2000
    9.5110  -14.9956   19.3503 N   0  0  0  0  0  0  0  0  0  0  0  0
    9.0368  -14.2244   20.4744 C   0  0  1  0  0  0  0  0  0  0  0  0
    7.7236  -13.6078   20.1683 C   0  0  0  0  0  0  0  0  0  0  0  0
    7.6520  -13.0880   18.7748 C   0  0  0  0  0  0  0  0  0  0  0  0
    7.7299  -14.0766   17.6677 C   0  0  0  0  0  0  0  0  0  0  0  0
    7.6259  -13.3560   16.2992 C   0  0  0  0  0  0  0  0  0  0  0  0
    7.6999  -14.3600   15.2572 N   0  0  0  0  0  0  0  0  0  0  0  0
    9.0083  -15.1028   21.6661 C   0  0  0  0  0  0  0  0  0  0  0  0
    8.1887  -14.8489   22.5769 O   0  0  0  0  0  0  0  0  0  0  0  0
   10.3253  -19.3035   23.9885 C   0  0  0  0  0  0  0  0  0  0  0  0
   10.2990  -18.4745   22.7452 C   0  0  1  0  0  0  0  0  0  0  0  0
    9.6432  -19.0888   21.6804 O   0  0  0  0  0  0  0  0  0  0  0  0
    9.7634  -17.0784   22.9877 C   0  0  2  0  0  0  0  0  0  0  0  0
    9.8612  -16.2268   21.8427 N   0  0  0  0  0  0  0  0  0  0  0  0
   10.5046  -16.4614   24.1200 C   0  0  0  0  0  0  0  0  0  0  0  0
   11.7262  -16.1127   23.9838 O   0  0  0  0  0  0  0  0  0  0  0  0
    5.3411  -12.2763   26.7543 O   0  0  0  0  0  0  0  0  0  0  0  0
    6.6484  -12.7503   26.7464 C   0  0  0  0  0  0  0  0  0  0  0  0
    7.4658  -12.6724   27.8560 C   0  0  0  0  0  0  0  0  0  0  0  0
    8.7633  -13.1491   27.8297 C   0  0  0  0  0  0  0  0  0  0  0  0
    9.2694  -13.7178   26.6796 C   0  0  0  0  0  0  0  0  0  0  0  0
   10.6260  -14.2548   26.5377 C   0  0  0  0  0  0  0  0  0  0  0  0
   10.6714  -15.7667   26.5364 C   0  0  2  0  0  0  0  0  0  0  0  0
    9.9288  -16.2222   25.3934 N   0  0  0  0  0  0  0  0  0  0  0  0
   10.1066  -16.2242   27.8157 C   0  0  0  0  0  0  0  0  0  0  0  0
   10.7752  -15.9765   28.9883 O   0  0  0  0  0  0  0  0  0  0  0  0
    8.4320  -13.7838   25.5835 C   0  0  0  0  0  0  0  0  0  0  0  0
    7.1560  -13.3160   25.6067 C   0  0  0  0  0  0  0  0  0  0  0  0
    9.0248  -16.8341   27.8311 O   0  0  0  0  0  0  0  0  0  0  0  0
  2  1  1  6
  2  3  1  0
  4  5  1  0
  4  3  1  0
  6  5  1  0
  7  6  1  0
  8 14  1  0
  8  2  1  0
  9  8  2  0
 11 10  1  1
 12 11  1  0
 13 11  1  0
 13 14  1  6
 15 16  2  0
 15 13  1  0
 17 18  1  0
 18 28  2  0
 19 18  1  0
 19 20  2  0
 20 21  1  0
 21 27  2  0
 21 22  1  0
 23 22  1  1
 23 25  1  0
 23 24  1  0
 24 15  1  0
 25 26  1  0
 28 27  1  0
 29 25  2  0
M  END
$$$$
