KTY.pdb
     RDKit          3D

 29 29  0  0  1  0  0  0  0  0999 V2000
    6.0620  -19.4109   19.8382 N   0  0  0  0  0  0  0  0  0  0  0  0
    5.9039  -18.3893   20.8456 C   0  0  1  0  0  0  0  0  0  0  0  0
    5.1426  -18.9127   22.0053 C   0  0  0  0  0  0  0  0  0  0  0  0
    4.3512  -20.1268   21.6633 C   0  0  0  0  0  0  0  0  0  0  0  0
    3.5396  -20.7451   22.7440 C   0  0  0  0  0  0  0  0  0  0  0  0
    2.6808  -21.9020   22.1724 C   0  0  0  0  0  0  0  0  0  0  0  0
    1.9179  -22.4750   23.2628 N   0  0  0  0  0  0  0  0  0  0  0  0
    7.2452  -17.8774   21.2077 C   0  0  0  0  0  0  0  0  0  0  0  0
    8.1920  -18.6907   21.2963 O   0  0  0  0  0  0  0  0  0  0  0  0
    9.3686  -15.1891   19.4489 C   0  0  0  0  0  0  0  0  0  0  0  0
    9.2663  -14.8576   20.9026 C   0  0  1  0  0  0  0  0  0  0  0  0
    8.4622  -13.7506   21.1658 O   0  0  0  0  0  0  0  0  0  0  0  0
    8.8535  -16.0481   21.7434 C   0  0  2  0  0  0  0  0  0  0  0  0
    7.5282  -16.5075   21.4635 N   0  0  0  0  0  0  0  0  0  0  0  0
    8.9513  -15.6863   23.1828 C   0  0  0  0  0  0  0  0  0  0  0  0
    8.2835  -14.7035   23.6524 O   0  0  0  0  0  0  0  0  0  0  0  0
    5.2417  -11.9200   26.4356 O   0  0  0  0  0  0  0  0  0  0  0  0
    6.1102  -13.0056   26.4005 C   0  0  0  0  0  0  0  0  0  0  0  0
    5.6680  -14.2944   26.1789 C   0  0  0  0  0  0  0  0  0  0  0  0
    6.5462  -15.3617   26.1473 C   0  0  0  0  0  0  0  0  0  0  0  0
    7.8962  -15.1542   26.3391 C   0  0  0  0  0  0  0  0  0  0  0  0
    8.9156  -16.2075   26.3263 C   0  0  0  0  0  0  0  0  0  0  0  0
   10.0870  -15.8925   25.4227 C   0  0  2  0  0  0  0  0  0  0  0  0
    9.7666  -16.3829   24.1103 N   0  0  0  0  0  0  0  0  0  0  0  0
   11.2766  -16.5315   26.0068 C   0  0  0  0  0  0  0  0  0  0  0  0
   11.7172  -16.1535   27.2503 O   0  0  0  0  0  0  0  0  0  0  0  0
    8.3131  -13.8562   26.5588 C   0  0  0  0  0  0  0  0  0  0  0  0
    7.4519  -12.8051   26.5904 C   0  0  0  0  0  0  0  0  0  0  0  0
   11.8798  -17.4123   25.3722 O   0  0  0  0  0  0  0  0  0  0  0  0
  2  1  1  6
  2  3  1  0
  4  5  1  0
  4  3  1  0
  6  5  1  0
  7  6  1  0
  8 14  1  0
  8  2  1  0
  9  8  2  0
 11 10  1  6
 12 11  1  0
 13 11  1  0
 13 14  1  6
 15 16  2  0
 15 13  1  0
 17 18  1  0
 18 28  2  0
 19 18  1  0
 19 20  2  0
 20 21  1  0
 21 27  2  0
 21 22  1  0
 23 22  1  1
 23 25  1  0
 23 24  1  0
 24 15  1  0
 25 26  1  0
 28 27  1  0
 29 25  2  0
M  END
$$$$
