KTY.pdb
     RDKit          3D

 29 29  0  0  1  0  0  0  0  0999 V2000
    9.3667  -18.6368   18.8896 N   0  0  0  0  0  0  0  0  0  0  0  0
    9.8235  -17.3414   18.4462 C   0  0  1  0  0  0  0  0  0  0  0  0
    9.2414  -17.0066   17.1244 C   0  0  0  0  0  0  0  0  0  0  0  0
   10.2569  -17.0271   16.0355 C   0  0  0  0  0  0  0  0  0  0  0  0
   11.1393  -18.2194   15.9412 C   0  0  0  0  0  0  0  0  0  0  0  0
   12.0132  -18.1379   14.6635 C   0  0  0  0  0  0  0  0  0  0  0  0
   12.9064  -19.2787   14.6580 N   0  0  0  0  0  0  0  0  0  0  0  0
    9.5038  -16.3476   19.4963 C   0  0  0  0  0  0  0  0  0  0  0  0
    9.8503  -15.1583   19.3195 O   0  0  0  0  0  0  0  0  0  0  0  0
    6.4726  -14.6829   20.5875 C   0  0  0  0  0  0  0  0  0  0  0  0
    7.0187  -15.3852   21.7884 C   0  0  1  0  0  0  0  0  0  0  0  0
    6.3145  -16.5389   22.1266 O   0  0  0  0  0  0  0  0  0  0  0  0
    8.5038  -15.6620   21.6756 C   0  0  2  0  0  0  0  0  0  0  0  0
    8.8219  -16.6620   20.7037 N   0  0  0  0  0  0  0  0  0  0  0  0
    9.0229  -16.0879   23.0028 C   0  0  0  0  0  0  0  0  0  0  0  0
    9.3466  -17.3058   23.2133 O   0  0  0  0  0  0  0  0  0  0  0  0
    5.2434  -11.1522   26.7155 O   0  0  0  0  0  0  0  0  0  0  0  0
    6.3873  -11.9252   26.5486 C   0  0  0  0  0  0  0  0  0  0  0  0
    7.1141  -11.9197   25.3749 C   0  0  0  0  0  0  0  0  0  0  0  0
    8.2491  -12.6949   25.2270 C   0  0  0  0  0  0  0  0  0  0  0  0
    8.6802  -13.4972   26.2628 C   0  0  0  0  0  0  0  0  0  0  0  0
    9.8660  -14.3578   26.2179 C   0  0  0  0  0  0  0  0  0  0  0  0
    9.6638  -15.6089   25.3921 C   0  0  2  0  0  0  0  0  0  0  0  0
    9.1915  -15.2023   24.0971 N   0  0  0  0  0  0  0  0  0  0  0  0
    8.7097  -16.4635   26.1161 C   0  0  0  0  0  0  0  0  0  0  0  0
    9.1032  -17.1170   27.2569 O   0  0  0  0  0  0  0  0  0  0  0  0
    7.9361  -13.4850   27.4260 C   0  0  0  0  0  0  0  0  0  0  0  0
    6.8198  -12.7238   27.5741 C   0  0  0  0  0  0  0  0  0  0  0  0
    7.5494  -16.5915   25.6923 O   0  0  0  0  0  0  0  0  0  0  0  0
  2  1  1  1
  2  3  1  0
  4  5  1  0
  4  3  1  0
  6  5  1  0
  7  6  1  0
  8 14  1  0
  8  2  1  0
  9  8  2  0
 11 10  1  6
 12 11  1  0
 13 11  1  0
 13 14  1  6
 15 16  2  0
 15 13  1  0
 17 18  1  0
 18 28  2  0
 19 18  1  0
 19 20  2  0
 20 21  1  0
 21 27  2  0
 21 22  1  0
 23 22  1  1
 23 25  1  0
 23 24  1  0
 24 15  1  0
 25 26  1  0
 28 27  1  0
 29 25  2  0
M  END
$$$$
