KTY.pdb
     RDKit          3D

 29 29  0  0  1  0  0  0  0  0999 V2000
    9.8058  -17.5450   16.9174 N   0  0  0  0  0  0  0  0  0  0  0  0
    9.6970  -18.0238   18.2747 C   0  0  1  0  0  0  0  0  0  0  0  0
   10.7495  -19.0281   18.5604 C   0  0  0  0  0  0  0  0  0  0  0  0
   11.3032  -19.6383   17.3200 C   0  0  0  0  0  0  0  0  0  0  0  0
   11.8982  -20.9959   17.4284 C   0  0  0  0  0  0  0  0  0  0  0  0
   12.4554  -21.4466   16.0539 C   0  0  0  0  0  0  0  0  0  0  0  0
   13.0225  -22.7705   16.2125 N   0  0  0  0  0  0  0  0  0  0  0  0
    9.7362  -16.8580   19.1868 C   0  0  0  0  0  0  0  0  0  0  0  0
   10.6696  -16.0338   19.0643 O   0  0  0  0  0  0  0  0  0  0  0  0
    7.6564  -13.8847   19.4001 C   0  0  0  0  0  0  0  0  0  0  0  0
    7.6230  -14.5086   20.7578 C   0  0  1  0  0  0  0  0  0  0  0  0
    6.4169  -15.1421   21.0496 O   0  0  0  0  0  0  0  0  0  0  0  0
    8.8003  -15.4295   21.0043 C   0  0  2  0  0  0  0  0  0  0  0  0
    8.7715  -16.6136   20.2025 N   0  0  0  0  0  0  0  0  0  0  0  0
    8.8272  -15.8130   22.4411 C   0  0  0  0  0  0  0  0  0  0  0  0
    8.0994  -16.7708   22.8716 O   0  0  0  0  0  0  0  0  0  0  0  0
    5.7919  -11.3249   29.0242 O   0  0  0  0  0  0  0  0  0  0  0  0
    6.3974  -11.9028   27.9137 C   0  0  0  0  0  0  0  0  0  0  0  0
    7.7594  -12.1175   27.8470 C   0  0  0  0  0  0  0  0  0  0  0  0
    8.3441  -12.6935   26.7345 C   0  0  0  0  0  0  0  0  0  0  0  0
    7.5666  -13.0682   25.6586 C   0  0  0  0  0  0  0  0  0  0  0  0
    8.0770  -13.6858   24.4311 C   0  0  0  0  0  0  0  0  0  0  0  0
    9.1550  -14.7158   24.6857 C   0  0  2  0  0  0  0  0  0  0  0  0
    9.6365  -15.1648   23.4082 N   0  0  0  0  0  0  0  0  0  0  0  0
    8.5538  -15.7911   25.4901 C   0  0  0  0  0  0  0  0  0  0  0  0
    7.5842  -16.5949   24.9453 O   0  0  0  0  0  0  0  0  0  0  0  0
    6.2073  -12.8428   25.7499 C   0  0  0  0  0  0  0  0  0  0  0  0
    5.6298  -12.2767   26.8424 C   0  0  0  0  0  0  0  0  0  0  0  0
    8.9259  -15.9686   26.6617 O   0  0  0  0  0  0  0  0  0  0  0  0
  2  1  1  6
  2  3  1  0
  4  5  1  0
  4  3  1  0
  6  5  1  0
  7  6  1  0
  8 14  1  0
  8  2  1  0
  9  8  2  0
 11 10  1  6
 12 11  1  0
 13 11  1  0
 13 14  1  6
 15 16  2  0
 15 13  1  0
 17 18  1  0
 18 28  2  0
 19 18  1  0
 19 20  2  0
 20 21  1  0
 21 27  2  0
 21 22  1  0
 23 22  1  6
 23 25  1  0
 23 24  1  0
 24 15  1  0
 25 26  1  0
 28 27  1  0
 29 25  2  0
M  END
$$$$
