KTY.pdb
     RDKit          3D

 29 29  0  0  1  0  0  0  0  0999 V2000
    8.4478  -17.0270   19.9665 N   0  0  0  0  0  0  0  0  0  0  0  0
    8.9879  -16.0713   20.9037 C   0  0  1  0  0  0  0  0  0  0  0  0
    8.3136  -14.7589   20.7584 C   0  0  0  0  0  0  0  0  0  0  0  0
    8.6577  -14.0830   19.4770 C   0  0  0  0  0  0  0  0  0  0  0  0
    7.5534  -13.4306   18.7260 C   0  0  0  0  0  0  0  0  0  0  0  0
    8.0898  -12.8289   17.4019 C   0  0  0  0  0  0  0  0  0  0  0  0
    7.0066  -12.1056   16.7671 N   0  0  0  0  0  0  0  0  0  0  0  0
    8.8782  -16.6390   22.2668 C   0  0  0  0  0  0  0  0  0  0  0  0
    7.9229  -17.4063   22.5201 O   0  0  0  0  0  0  0  0  0  0  0  0
    9.8810  -19.4144   23.5942 C   0  0  0  0  0  0  0  0  0  0  0  0
   10.5522  -18.4048   24.4683 C   0  0  1  0  0  0  0  0  0  0  0  0
   11.8895  -18.1883   24.1430 O   0  0  0  0  0  0  0  0  0  0  0  0
    9.7873  -17.0994   24.5431 C   0  0  2  0  0  0  0  0  0  0  0  0
    9.7982  -16.3648   23.3159 N   0  0  0  0  0  0  0  0  0  0  0  0
   10.3663  -16.2558   25.6226 C   0  0  0  0  0  0  0  0  0  0  0  0
   11.3869  -15.5212   25.3961 O   0  0  0  0  0  0  0  0  0  0  0  0
    6.2763  -11.5951   24.9339 O   0  0  0  0  0  0  0  0  0  0  0  0
    6.9737  -12.3800   25.8457 C   0  0  0  0  0  0  0  0  0  0  0  0
    6.4880  -13.5909   26.2967 C   0  0  0  0  0  0  0  0  0  0  0  0
    7.1954  -14.3580   27.2035 C   0  0  0  0  0  0  0  0  0  0  0  0
    8.4141  -13.9210   27.6790 C   0  0  0  0  0  0  0  0  0  0  0  0
    9.2486  -14.6493   28.6392 C   0  0  0  0  0  0  0  0  0  0  0  0
   10.3949  -15.3922   27.9896 C   0  0  2  0  0  0  0  0  0  0  0  0
    9.8453  -16.2061   26.9403 N   0  0  0  0  0  0  0  0  0  0  0  0
   11.0636  -16.1743   29.0412 C   0  0  0  0  0  0  0  0  0  0  0  0
   11.0644  -17.5453   28.9806 O   0  0  0  0  0  0  0  0  0  0  0  0
    8.8780  -12.7068   27.2127 C   0  0  0  0  0  0  0  0  0  0  0  0
    8.1846  -11.9506   26.3211 C   0  0  0  0  0  0  0  0  0  0  0  0
   11.6262  -15.5910   29.9823 O   0  0  0  0  0  0  0  0  0  0  0  0
  2  1  1  6
  2  3  1  0
  4  5  1  0
  4  3  1  0
  6  5  1  0
  7  6  1  0
  8 14  1  0
  8  2  1  0
  9  8  2  0
 11 10  1  6
 12 11  1  0
 13 11  1  0
 13 14  1  6
 15 16  2  0
 15 13  1  0
 17 18  1  0
 18 28  2  0
 19 18  1  0
 19 20  2  0
 20 21  1  0
 21 27  2  0
 21 22  1  0
 23 22  1  1
 23 25  1  0
 23 24  1  0
 24 15  1  0
 25 26  1  0
 28 27  1  0
 29 25  2  0
M  END
$$$$
