NTI.pdb
     RDKit          3D

 24 23  0  0  1  0  0  0  0  0999 V2000
   11.5737  -18.6531   18.4101 N   0  0  0  0  0  0  0  0  0  0  0  0
   11.8342  -17.3110   18.9141 C   0  0  0  0  0  0  0  0  0  0  0  0
   13.0255  -16.9570   18.8569 O   0  0  0  0  0  0  0  0  0  0  0  0
   10.7661  -16.4887   19.4310 C   0  0  0  0  0  0  0  0  0  0  0  0
    9.4041  -17.1103   19.4220 C   0  0  2  0  0  0  0  0  0  0  0  0
    8.8438  -16.8891   18.0487 N   0  0  0  0  0  0  0  0  0  0  0  0
    8.4218  -16.4855   20.3179 C   0  0  0  0  0  0  0  0  0  0  0  0
    7.3071  -16.1217   19.8421 O   0  0  0  0  0  0  0  0  0  0  0  0
    6.3165  -17.8033   21.2285 C   0  0  0  0  0  0  0  0  0  0  0  0
    6.8495  -17.5037   22.6211 C   0  0  1  0  0  0  0  0  0  0  0  0
    7.6291  -18.5167   23.1266 O   0  0  0  0  0  0  0  0  0  0  0  0
    7.5393  -16.1532   22.6466 C   0  0  2  0  0  0  0  0  0  0  0  0
    8.6531  -16.2743   21.6818 N   0  0  0  0  0  0  0  0  0  0  0  0
    8.1113  -15.8250   23.9475 C   0  0  0  0  0  0  0  0  0  0  0  0
    9.1630  -16.3845   24.3574 O   0  0  0  0  0  0  0  0  0  0  0  0
    5.8441  -11.7104   27.2932 C   0  0  0  0  0  0  0  0  0  0  0  0
    6.2712  -13.0726   26.7816 C   0  0  0  0  0  0  0  0  0  0  0  0
    7.7324  -12.9869   26.4200 C   0  0  2  0  0  0  0  0  0  0  0  0
    7.8671  -12.0152   25.2700 C   0  0  0  0  0  0  0  0  0  0  0  0
    8.2888  -14.3100   25.9561 C   0  0  2  0  0  0  0  0  0  0  0  0
    7.5570  -14.8709   24.8551 N   0  0  0  0  0  0  0  0  0  0  0  0
    8.2205  -15.2478   27.0970 C   0  0  0  0  0  0  0  0  0  0  0  0
    8.9983  -15.1356   28.2411 O   0  0  0  0  0  0  0  0  0  0  0  0
    7.4160  -16.2073   27.0413 O   0  0  0  0  0  0  0  0  0  0  0  0
  1  2  1  0
  2  3  2  0
  4  2  1  0
  5  4  1  0
  5  7  1  0
  5  6  1  6
  7  8  2  0
 10  9  1  6
 10 11  1  0
 12 10  1  0
 13  7  1  0
 12 13  1  6
 14 12  1  0
 14 15  2  0
 16 17  1  0
 17 18  1  0
 18 19  1  6
 18 20  1  0
 20 21  1  6
 21 14  1  0
 22 23  1  0
 22 20  1  0
 24 22  2  0
M  END
$$$$
