NTI.pdb
     RDKit          3D

 24 23  0  0  1  0  0  0  0  0999 V2000
   15.1074  -15.1761   20.1939 N   0  0  0  0  0  0  0  0  0  0  0  0
   14.1428  -14.6092   19.2605 C   0  0  0  0  0  0  0  0  0  0  0  0
   14.6248  -14.2459   18.1726 O   0  0  0  0  0  0  0  0  0  0  0  0
   12.7465  -14.4957   19.6089 C   0  0  0  0  0  0  0  0  0  0  0  0
   11.9167  -15.7200   19.3768 C   0  0  2  0  0  0  0  0  0  0  0  0
   11.5871  -15.7405   17.9140 N   0  0  0  0  0  0  0  0  0  0  0  0
   10.6070  -15.7275   20.0421 C   0  0  0  0  0  0  0  0  0  0  0  0
    9.5714  -15.9442   19.3479 O   0  0  0  0  0  0  0  0  0  0  0  0
    8.5412  -17.3073   20.2662 C   0  0  0  0  0  0  0  0  0  0  0  0
    8.7330  -17.1240   21.7638 C   0  0  1  0  0  0  0  0  0  0  0  0
    9.5819  -18.0547   22.3139 O   0  0  0  0  0  0  0  0  0  0  0  0
    9.1337  -15.6952   22.0769 C   0  0  2  0  0  0  0  0  0  0  0  0
   10.4429  -15.5112   21.4149 N   0  0  0  0  0  0  0  0  0  0  0  0
    9.3179  -15.4497   23.5028 C   0  0  0  0  0  0  0  0  0  0  0  0
   10.4355  -15.6280   24.0563 O   0  0  0  0  0  0  0  0  0  0  0  0
    6.6733  -11.2853   27.1312 C   0  0  0  0  0  0  0  0  0  0  0  0
    7.7493  -12.3501   27.0409 C   0  0  0  0  0  0  0  0  0  0  0  0
    7.4585  -13.1910   25.8237 C   0  0  2  0  0  0  0  0  0  0  0  0
    6.1793  -13.9531   26.0842 C   0  0  0  0  0  0  0  0  0  0  0  0
    8.5395  -14.2084   25.5557 C   0  0  2  0  0  0  0  0  0  0  0  0
    8.2872  -14.9989   24.3836 N   0  0  0  0  0  0  0  0  0  0  0  0
    8.6072  -15.1072   26.7276 C   0  0  0  0  0  0  0  0  0  0  0  0
    9.1985  -14.7638   27.9355 O   0  0  0  0  0  0  0  0  0  0  0  0
    8.1044  -16.2518   26.6393 O   0  0  0  0  0  0  0  0  0  0  0  0
  1  2  1  0
  2  3  2  0
  4  2  1  0
  5  4  1  0
  5  7  1  0
  5  6  1  6
  7  8  2  0
 10  9  1  6
 10 11  1  0
 12 10  1  0
 13  7  1  0
 12 13  1  6
 14 12  1  0
 14 15  2  0
 16 17  1  0
 17 18  1  0
 18 19  1  1
 18 20  1  0
 20 21  1  6
 21 14  1  0
 22 23  1  0
 22 20  1  0
 24 22  2  0
M  END
$$$$
