NTI.pdb
     RDKit          3D

 24 23  0  0  1  0  0  0  0  0999 V2000
   14.7612  -17.8247   18.1779 N   0  0  0  0  0  0  0  0  0  0  0  0
   14.0210  -17.6724   19.4236 C   0  0  0  0  0  0  0  0  0  0  0  0
   14.6125  -18.0934   20.4340 O   0  0  0  0  0  0  0  0  0  0  0  0
   12.7070  -17.0748   19.4414 C   0  0  0  0  0  0  0  0  0  0  0  0
   11.6525  -17.8441   20.1746 C   0  0  2  0  0  0  0  0  0  0  0  0
   11.0727  -18.8162   19.1910 N   0  0  0  0  0  0  0  0  0  0  0  0
   10.4983  -17.0555   20.6262 C   0  0  0  0  0  0  0  0  0  0  0  0
    9.9478  -16.2586   19.8118 O   0  0  0  0  0  0  0  0  0  0  0  0
    7.2445  -18.0687   21.1922 C   0  0  0  0  0  0  0  0  0  0  0  0
    7.6951  -17.4853   22.5225 C   0  0  1  0  0  0  0  0  0  0  0  0
    8.0884  -18.4456   23.4239 O   0  0  0  0  0  0  0  0  0  0  0  0
    8.7426  -16.4106   22.3036 C   0  0  2  0  0  0  0  0  0  0  0  0
    9.9676  -17.1433   21.9181 N   0  0  0  0  0  0  0  0  0  0  0  0
    9.0422  -15.6465   23.5094 C   0  0  0  0  0  0  0  0  0  0  0  0
   10.1638  -15.7356   24.0761 O   0  0  0  0  0  0  0  0  0  0  0  0
    6.8720  -11.0385   27.0764 C   0  0  0  0  0  0  0  0  0  0  0  0
    7.7295  -12.2867   26.9960 C   0  0  0  0  0  0  0  0  0  0  0  0
    7.4734  -12.9310   25.6571 C   0  0  2  0  0  0  0  0  0  0  0  0
    6.0700  -13.4923   25.6760 C   0  0  0  0  0  0  0  0  0  0  0  0
    8.4118  -14.0796   25.3825 C   0  0  2  0  0  0  0  0  0  0  0  0
    8.1274  -14.7527   24.1462 N   0  0  0  0  0  0  0  0  0  0  0  0
    8.2702  -15.0468   26.4917 C   0  0  0  0  0  0  0  0  0  0  0  0
    7.6130  -16.2643   26.3802 O   0  0  0  0  0  0  0  0  0  0  0  0
    8.7688  -14.7634   27.6061 O   0  0  0  0  0  0  0  0  0  0  0  0
  1  2  1  0
  2  3  2  0
  4  2  1  0
  5  4  1  0
  5  7  1  0
  5  6  1  6
  7  8  2  0
 10  9  1  6
 10 11  1  0
 12 10  1  0
 13  7  1  0
 12 13  1  1
 14 12  1  0
 14 15  2  0
 16 17  1  0
 17 18  1  0
 18 19  1  1
 18 20  1  0
 20 21  1  6
 21 14  1  0
 22 23  1  0
 22 20  1  0
 24 22  2  0
M  END
$$$$
