NTI.pdb
     RDKit          3D

 24 23  0  0  1  0  0  0  0  0999 V2000
    9.5666  -13.3533   16.7374 N   0  0  0  0  0  0  0  0  0  0  0  0
    8.1604  -13.7333   16.7036 C   0  0  0  0  0  0  0  0  0  0  0  0
    7.6566  -13.7589   15.5662 O   0  0  0  0  0  0  0  0  0  0  0  0
    7.4439  -14.0477   17.9168 C   0  0  0  0  0  0  0  0  0  0  0  0
    8.1984  -13.8327   19.1919 C   0  0  2  0  0  0  0  0  0  0  0  0
    9.5922  -14.3312   18.9516 N   0  0  0  0  0  0  0  0  0  0  0  0
    7.7275  -14.6172   20.3412 C   0  0  0  0  0  0  0  0  0  0  0  0
    6.5095  -14.5387   20.6753 O   0  0  0  0  0  0  0  0  0  0  0  0
    8.2853  -18.3852   23.4088 C   0  0  0  0  0  0  0  0  0  0  0  0
    8.5917  -17.5811   22.1547 C   0  0  1  0  0  0  0  0  0  0  0  0
    8.1710  -18.2023   21.0029 O   0  0  0  0  0  0  0  0  0  0  0  0
    8.0685  -16.1642   22.2912 C   0  0  2  0  0  0  0  0  0  0  0  0
    8.5600  -15.4574   21.0891 N   0  0  0  0  0  0  0  0  0  0  0  0
    8.5924  -15.4688   23.4613 C   0  0  0  0  0  0  0  0  0  0  0  0
    9.8041  -15.1310   23.5310 O   0  0  0  0  0  0  0  0  0  0  0  0
    5.7258  -11.6889   26.0218 C   0  0  0  0  0  0  0  0  0  0  0  0
    6.9078  -12.4028   25.3950 C   0  0  0  0  0  0  0  0  0  0  0  0
    7.3694  -13.4604   26.3654 C   0  0  2  0  0  0  0  0  0  0  0  0
    8.0824  -12.7642   27.5020 C   0  0  0  0  0  0  0  0  0  0  0  0
    8.3503  -14.4229   25.7436 C   0  0  2  0  0  0  0  0  0  0  0  0
    7.8130  -15.1135   24.6048 N   0  0  0  0  0  0  0  0  0  0  0  0
    8.7124  -15.4193   26.7741 C   0  0  0  0  0  0  0  0  0  0  0  0
    9.7590  -15.2613   27.6721 O   0  0  0  0  0  0  0  0  0  0  0  0
    8.0425  -16.4756   26.8531 O   0  0  0  0  0  0  0  0  0  0  0  0
  1  2  1  0
  2  3  2  0
  4  2  1  0
  5  4  1  0
  5  7  1  0
  5  6  1  6
  7  8  2  0
 10  9  1  1
 10 11  1  0
 12 10  1  0
 13  7  1  0
 12 13  1  6
 14 12  1  0
 14 15  2  0
 16 17  1  0
 17 18  1  0
 18 19  1  1
 18 20  1  0
 20 21  1  6
 21 14  1  0
 22 23  1  0
 22 20  1  0
 24 22  2  0
M  END
$$$$
