NTI.pdb
     RDKit          3D

 24 23  0  0  1  0  0  0  0  0999 V2000
   10.9681  -20.2318   17.5308 N   0  0  0  0  0  0  0  0  0  0  0  0
   10.9740  -18.8299   17.9278 C   0  0  0  0  0  0  0  0  0  0  0  0
   11.9711  -18.1878   17.5516 O   0  0  0  0  0  0  0  0  0  0  0  0
    9.8889  -18.2685   18.6969 C   0  0  0  0  0  0  0  0  0  0  0  0
   10.2894  -17.4137   19.8589 C   0  0  2  0  0  0  0  0  0  0  0  0
   11.0182  -18.3094   20.8157 N   0  0  0  0  0  0  0  0  0  0  0  0
    9.1789  -16.8674   20.6501 C   0  0  0  0  0  0  0  0  0  0  0  0
    8.2824  -16.1962   20.0609 O   0  0  0  0  0  0  0  0  0  0  0  0
    6.3930  -18.4231   22.1052 C   0  0  0  0  0  0  0  0  0  0  0  0
    7.1533  -17.7821   23.2560 C   0  0  1  0  0  0  0  0  0  0  0  0
    7.9646  -18.6688   23.9231 O   0  0  0  0  0  0  0  0  0  0  0  0
    7.8893  -16.5437   22.7819 C   0  0  2  0  0  0  0  0  0  0  0  0
    9.0558  -17.0557   22.0313 N   0  0  0  0  0  0  0  0  0  0  0  0
    8.3911  -15.7197   23.8758 C   0  0  0  0  0  0  0  0  0  0  0  0
    9.6263  -15.6152   24.1001 O   0  0  0  0  0  0  0  0  0  0  0  0
    7.4644  -11.4715   24.9215 C   0  0  0  0  0  0  0  0  0  0  0  0
    6.3878  -12.3825   25.4788 C   0  0  0  0  0  0  0  0  0  0  0  0
    7.0394  -13.2970   26.4850 C   0  0  2  0  0  0  0  0  0  0  0  0
    7.7465  -12.4329   27.5040 C   0  0  0  0  0  0  0  0  0  0  0  0
    8.0787  -14.1934   25.8592 C   0  0  2  0  0  0  0  0  0  0  0  0
    7.5627  -14.9752   24.7707 N   0  0  0  0  0  0  0  0  0  0  0  0
    8.5687  -15.1104   26.9103 C   0  0  0  0  0  0  0  0  0  0  0  0
    9.7212  -14.8940   27.6530 O   0  0  0  0  0  0  0  0  0  0  0  0
    7.9138  -16.1503   27.1564 O   0  0  0  0  0  0  0  0  0  0  0  0
  1  2  1  0
  2  3  2  0
  4  2  1  0
  5  4  1  0
  5  7  1  0
  5  6  1  1
  7  8  2  0
 10  9  1  6
 10 11  1  0
 12 10  1  0
 13  7  1  0
 12 13  1  6
 14 12  1  0
 14 15  2  0
 16 17  1  0
 17 18  1  0
 18 19  1  1
 18 20  1  0
 20 21  1  6
 21 14  1  0
 22 23  1  0
 22 20  1  0
 24 22  2  0
M  END
$$$$
