NTI.pdb
     RDKit          3D

 24 23  0  0  1  0  0  0  0  0999 V2000
   12.2170  -20.5830   19.7562 N   0  0  0  0  0  0  0  0  0  0  0  0
   11.0885  -19.6900   19.5283 C   0  0  0  0  0  0  0  0  0  0  0  0
   10.1059  -20.2237   18.9829 O   0  0  0  0  0  0  0  0  0  0  0  0
   11.1460  -18.3015   19.9195 C   0  0  0  0  0  0  0  0  0  0  0  0
   10.6308  -17.9902   21.2903 C   0  0  2  0  0  0  0  0  0  0  0  0
    9.3804  -18.7985   21.4694 N   0  0  0  0  0  0  0  0  0  0  0  0
   10.1967  -16.6024   21.4988 C   0  0  0  0  0  0  0  0  0  0  0  0
   10.9898  -15.6634   21.1978 O   0  0  0  0  0  0  0  0  0  0  0  0
    6.8137  -14.9631   20.2703 C   0  0  0  0  0  0  0  0  0  0  0  0
    7.0202  -14.8810   21.7749 C   0  0  1  0  0  0  0  0  0  0  0  0
    6.3315  -15.8502   22.4646 O   0  0  0  0  0  0  0  0  0  0  0  0
    8.4997  -14.8526   22.1072 C   0  0  2  0  0  0  0  0  0  0  0  0
    8.9404  -16.2607   22.0119 N   0  0  0  0  0  0  0  0  0  0  0  0
    8.7749  -14.3912   23.4632 C   0  0  0  0  0  0  0  0  0  0  0  0
    9.1522  -13.2101   23.6862 O   0  0  0  0  0  0  0  0  0  0  0  0
    6.4671  -11.7835   26.2794 C   0  0  0  0  0  0  0  0  0  0  0  0
    7.6258  -12.5628   25.6880 C   0  0  0  0  0  0  0  0  0  0  0  0
    7.7654  -13.8411   26.4753 C   0  0  2  0  0  0  0  0  0  0  0  0
    8.1029  -13.4703   27.9013 C   0  0  0  0  0  0  0  0  0  0  0  0
    8.8840  -14.7134   25.9623 C   0  0  2  0  0  0  0  0  0  0  0  0
    8.6490  -15.2023   24.6326 N   0  0  0  0  0  0  0  0  0  0  0  0
    9.0049  -15.8685   26.8771 C   0  0  0  0  0  0  0  0  0  0  0  0
    9.5934  -15.8055   28.1327 O   0  0  0  0  0  0  0  0  0  0  0  0
    8.5532  -16.9783   26.5097 O   0  0  0  0  0  0  0  0  0  0  0  0
  1  2  1  0
  2  3  2  0
  4  2  1  0
  5  4  1  0
  5  7  1  0
  5  6  1  6
  7  8  2  0
 10  9  1  6
 10 11  1  0
 12 10  1  0
 13  7  1  0
 12 13  1  1
 14 12  1  0
 14 15  2  0
 16 17  1  0
 17 18  1  0
 18 19  1  1
 18 20  1  0
 20 21  1  6
 21 14  1  0
 22 23  1  0
 22 20  1  0
 24 22  2  0
M  END
$$$$
