NTI.pdb
     RDKit          3D

 24 23  0  0  1  0  0  0  0  0999 V2000
   14.5465  -15.8842   18.0859 N   0  0  0  0  0  0  0  0  0  0  0  0
   14.0040  -14.5458   17.8925 C   0  0  0  0  0  0  0  0  0  0  0  0
   14.5839  -13.8712   17.0227 O   0  0  0  0  0  0  0  0  0  0  0  0
   12.8810  -14.0774   18.6694 C   0  0  0  0  0  0  0  0  0  0  0  0
   12.1524  -15.1230   19.4550 C   0  0  2  0  0  0  0  0  0  0  0  0
   11.3439  -15.9112   18.4682 N   0  0  0  0  0  0  0  0  0  0  0  0
   11.1596  -14.6137   20.4105 C   0  0  0  0  0  0  0  0  0  0  0  0
   11.1300  -13.3726   20.6560 O   0  0  0  0  0  0  0  0  0  0  0  0
    7.4787  -14.8660   20.3094 C   0  0  0  0  0  0  0  0  0  0  0  0
    7.9274  -15.4581   21.6365 C   0  0  1  0  0  0  0  0  0  0  0  0
    7.8998  -16.8324   21.6477 O   0  0  0  0  0  0  0  0  0  0  0  0
    9.2717  -14.8871   22.0454 C   0  0  2  0  0  0  0  0  0  0  0  0
   10.2339  -15.4340   21.0650 N   0  0  0  0  0  0  0  0  0  0  0  0
    9.6976  -15.3151   23.3731 C   0  0  0  0  0  0  0  0  0  0  0  0
   10.6612  -16.1126   23.5233 O   0  0  0  0  0  0  0  0  0  0  0  0
    9.3794  -13.5760   29.2996 C   0  0  0  0  0  0  0  0  0  0  0  0
    9.7153  -14.6877   28.3244 C   0  0  0  0  0  0  0  0  0  0  0  0
    9.2789  -14.2392   26.9527 C   0  0  2  0  0  0  0  0  0  0  0  0
    7.7814  -14.0359   26.9884 C   0  0  0  0  0  0  0  0  0  0  0  0
    9.5657  -15.2719   25.8914 C   0  0  2  0  0  0  0  0  0  0  0  0
    9.0873  -14.8889   24.5926 N   0  0  0  0  0  0  0  0  0  0  0  0
    8.8918  -16.5248   26.2938 C   0  0  0  0  0  0  0  0  0  0  0  0
    9.3988  -17.4110   27.2341 O   0  0  0  0  0  0  0  0  0  0  0  0
    7.7954  -16.8174   25.7616 O   0  0  0  0  0  0  0  0  0  0  0  0
  1  2  1  0
  2  3  2  0
  4  2  1  0
  5  4  1  0
  5  7  1  0
  5  6  1  6
  7  8  2  0
 10  9  1  6
 10 11  1  0
 12 10  1  0
 13  7  1  0
 12 13  1  6
 14 12  1  0
 14 15  2  0
 16 17  1  0
 17 18  1  0
 18 19  1  1
 18 20  1  0
 20 21  1  6
 21 14  1  0
 22 23  1  0
 22 20  1  0
 24 22  2  0
M  END
$$$$
