NTI.pdb
     RDKit          3D

 24 23  0  0  1  0  0  0  0  0999 V2000
    7.8557  -12.7452   15.6595 N   0  0  0  0  0  0  0  0  0  0  0  0
    8.0810  -14.0123   16.3426 C   0  0  0  0  0  0  0  0  0  0  0  0
    8.8140  -14.8093   15.7300 O   0  0  0  0  0  0  0  0  0  0  0  0
    7.4823  -14.2826   17.6282 C   0  0  0  0  0  0  0  0  0  0  0  0
    8.4041  -14.2005   18.8050 C   0  0  2  0  0  0  0  0  0  0  0  0
    9.3936  -15.3166   18.6500 N   0  0  0  0  0  0  0  0  0  0  0  0
    7.7801  -14.4499   20.1112 C   0  0  0  0  0  0  0  0  0  0  0  0
    6.9288  -13.6220   20.5486 O   0  0  0  0  0  0  0  0  0  0  0  0
    6.3361  -17.8896   21.2135 C   0  0  0  0  0  0  0  0  0  0  0  0
    7.2794  -17.3375   22.2712 C   0  0  1  0  0  0  0  0  0  0  0  0
    8.5112  -17.9476   22.2626 O   0  0  0  0  0  0  0  0  0  0  0  0
    7.3636  -15.8265   22.1712 C   0  0  2  0  0  0  0  0  0  0  0  0
    8.0756  -15.5661   20.9018 N   0  0  0  0  0  0  0  0  0  0  0  0
    8.1393  -15.2221   23.2484 C   0  0  0  0  0  0  0  0  0  0  0  0
    9.3680  -14.9804   23.1109 O   0  0  0  0  0  0  0  0  0  0  0  0
    5.9777  -12.1519   27.5375 C   0  0  0  0  0  0  0  0  0  0  0  0
    6.3984  -13.3663   26.7325 C   0  0  0  0  0  0  0  0  0  0  0  0
    7.8102  -13.1326   26.2577 C   0  0  2  0  0  0  0  0  0  0  0  0
    7.7718  -12.0365   25.2174 C   0  0  0  0  0  0  0  0  0  0  0  0
    8.4058  -14.3530   25.6010 C   0  0  2  0  0  0  0  0  0  0  0  0
    7.6036  -14.8564   24.5214 N   0  0  0  0  0  0  0  0  0  0  0  0
    8.5225  -15.4039   26.6343 C   0  0  0  0  0  0  0  0  0  0  0  0
    7.8552  -16.6199   26.5829 O   0  0  0  0  0  0  0  0  0  0  0  0
    9.2655  -15.1979   27.6224 O   0  0  0  0  0  0  0  0  0  0  0  0
  1  2  1  0
  2  3  2  0
  4  2  1  0
  5  4  1  0
  5  7  1  0
  5  6  1  6
  7  8  2  0
 10  9  1  6
 10 11  1  0
 12 10  1  0
 13  7  1  0
 12 13  1  6
 14 12  1  0
 14 15  2  0
 16 17  1  0
 17 18  1  0
 18 19  1  6
 18 20  1  0
 20 21  1  6
 21 14  1  0
 22 23  1  0
 22 20  1  0
 24 22  2  0
M  END
$$$$
