NTI.pdb
     RDKit          3D

 24 23  0  0  1  0  0  0  0  0999 V2000
   14.2018  -13.6415   17.5685 N   0  0  0  0  0  0  0  0  0  0  0  0
   14.2673  -14.1532   18.9312 C   0  0  0  0  0  0  0  0  0  0  0  0
   15.3642  -14.6473   19.2481 O   0  0  0  0  0  0  0  0  0  0  0  0
   13.1267  -14.0740   19.8126 C   0  0  0  0  0  0  0  0  0  0  0  0
   12.6517  -15.3755   20.3800 C   0  0  2  0  0  0  0  0  0  0  0  0
   11.9464  -16.0930   19.2680 N   0  0  0  0  0  0  0  0  0  0  0  0
   11.6397  -15.2677   21.4393 C   0  0  0  0  0  0  0  0  0  0  0  0
   11.1111  -14.1404   21.6655 O   0  0  0  0  0  0  0  0  0  0  0  0
    8.4816  -17.2749   21.5290 C   0  0  0  0  0  0  0  0  0  0  0  0
    9.2146  -17.4573   22.8491 C   0  0  1  0  0  0  0  0  0  0  0  0
    9.9040  -18.6444   22.9204 O   0  0  0  0  0  0  0  0  0  0  0  0
   10.0801  -16.2482   23.1476 C   0  0  2  0  0  0  0  0  0  0  0  0
   11.2220  -16.3553   22.2145 N   0  0  0  0  0  0  0  0  0  0  0  0
   10.6136  -16.2449   24.5050 C   0  0  0  0  0  0  0  0  0  0  0  0
   11.7822  -16.6483   24.7474 O   0  0  0  0  0  0  0  0  0  0  0  0
    8.4693  -12.9100   28.4087 C   0  0  0  0  0  0  0  0  0  0  0  0
    9.4709  -13.5841   27.4910 C   0  0  0  0  0  0  0  0  0  0  0  0
    9.6390  -15.0057   27.9643 C   0  0  2  0  0  0  0  0  0  0  0  0
   10.4214  -14.9722   29.2572 C   0  0  0  0  0  0  0  0  0  0  0  0
   10.4220  -15.8481   26.9884 C   0  0  2  0  0  0  0  0  0  0  0  0
    9.8914  -15.8003   25.6548 N   0  0  0  0  0  0  0  0  0  0  0  0
   10.3747  -17.2461   27.4670 C   0  0  0  0  0  0  0  0  0  0  0  0
    9.4064  -18.1644   27.0854 O   0  0  0  0  0  0  0  0  0  0  0  0
   11.2561  -17.6398   28.2665 O   0  0  0  0  0  0  0  0  0  0  0  0
  1  2  1  0
  2  3  2  0
  4  2  1  0
  5  4  1  0
  5  7  1  0
  5  6  1  6
  7  8  2  0
 10  9  1  6
 10 11  1  0
 12 10  1  0
 13  7  1  0
 12 13  1  6
 14 12  1  0
 14 15  2  0
 16 17  1  0
 17 18  1  0
 18 19  1  1
 18 20  1  0
 20 21  1  6
 21 14  1  0
 22 23  1  0
 22 20  1  0
 24 22  2  0
M  END
$$$$
