NTI.pdb
     RDKit          3D

 24 23  0  0  1  0  0  0  0  0999 V2000
   14.6359  -14.7335   18.0213 N   0  0  0  0  0  0  0  0  0  0  0  0
   13.9198  -14.9993   19.2620 C   0  0  0  0  0  0  0  0  0  0  0  0
   14.4968  -15.7834   20.0368 O   0  0  0  0  0  0  0  0  0  0  0  0
   12.6436  -14.3814   19.5330 C   0  0  0  0  0  0  0  0  0  0  0  0
   11.4464  -15.2671   19.3790 C   0  0  2  0  0  0  0  0  0  0  0  0
   11.0858  -15.2471   17.9235 N   0  0  0  0  0  0  0  0  0  0  0  0
   10.2296  -14.8037   20.0590 C   0  0  0  0  0  0  0  0  0  0  0  0
    9.3506  -14.1907   19.3859 O   0  0  0  0  0  0  0  0  0  0  0  0
    7.5788  -15.3381   19.8763 C   0  0  0  0  0  0  0  0  0  0  0  0
    7.7010  -15.6580   21.3581 C   0  0  1  0  0  0  0  0  0  0  0  0
    7.9885  -16.9803   21.5997 O   0  0  0  0  0  0  0  0  0  0  0  0
    8.6729  -14.7062   22.0286 C   0  0  2  0  0  0  0  0  0  0  0  0
    9.9864  -15.0101   21.4215 N   0  0  0  0  0  0  0  0  0  0  0  0
    8.7872  -14.9208   23.4667 C   0  0  0  0  0  0  0  0  0  0  0  0
    9.7964  -15.4883   23.9632 O   0  0  0  0  0  0  0  0  0  0  0  0
    5.6466  -11.4415   26.2077 C   0  0  0  0  0  0  0  0  0  0  0  0
    6.9657  -12.0576   25.7831 C   0  0  0  0  0  0  0  0  0  0  0  0
    7.0939  -13.3879   26.4809 C   0  0  2  0  0  0  0  0  0  0  0  0
    7.5940  -13.1271   27.8834 C   0  0  0  0  0  0  0  0  0  0  0  0
    8.0946  -14.2955   25.8099 C   0  0  2  0  0  0  0  0  0  0  0  0
    7.8023  -14.5238   24.4225 N   0  0  0  0  0  0  0  0  0  0  0  0
    8.0672  -15.5923   26.5192 C   0  0  0  0  0  0  0  0  0  0  0  0
    7.3776  -16.7091   26.0677 O   0  0  0  0  0  0  0  0  0  0  0  0
    8.7005  -15.7045   27.5950 O   0  0  0  0  0  0  0  0  0  0  0  0
  1  2  1  0
  2  3  2  0
  4  2  1  0
  5  4  1  0
  5  7  1  0
  5  6  1  6
  7  8  2  0
 10  9  1  6
 10 11  1  0
 12 10  1  0
 13  7  1  0
 12 13  1  6
 14 12  1  0
 14 15  2  0
 16 17  1  0
 17 18  1  0
 18 19  1  1
 18 20  1  0
 20 21  1  6
 21 14  1  0
 22 23  1  0
 22 20  1  0
 24 22  2  0
M  END
$$$$
