NTI.pdb
     RDKit          3D

 24 23  0  0  1  0  0  0  0  0999 V2000
   13.5588  -18.1680   18.8966 N   0  0  0  0  0  0  0  0  0  0  0  0
   12.4629  -17.7693   18.0231 C   0  0  0  0  0  0  0  0  0  0  0  0
   12.6760  -17.9439   16.8099 O   0  0  0  0  0  0  0  0  0  0  0  0
   11.2423  -17.2189   18.5627 C   0  0  0  0  0  0  0  0  0  0  0  0
   11.1954  -17.0775   20.0524 C   0  0  2  0  0  0  0  0  0  0  0  0
   10.7195  -18.3938   20.5907 N   0  0  0  0  0  0  0  0  0  0  0  0
   10.2191  -16.1050   20.5614 C   0  0  0  0  0  0  0  0  0  0  0  0
   10.2529  -14.9191   20.1209 O   0  0  0  0  0  0  0  0  0  0  0  0
    6.4926  -16.0307   20.4436 C   0  0  0  0  0  0  0  0  0  0  0  0
    6.9323  -16.0245   21.8996 C   0  0  1  0  0  0  0  0  0  0  0  0
    6.8367  -17.2600   22.4943 O   0  0  0  0  0  0  0  0  0  0  0  0
    8.3095  -15.4040   22.0358 C   0  0  2  0  0  0  0  0  0  0  0  0
    9.2424  -16.4241   21.5113 N   0  0  0  0  0  0  0  0  0  0  0  0
    8.6817  -15.1301   23.4192 C   0  0  0  0  0  0  0  0  0  0  0  0
    9.7848  -15.5193   23.8870 O   0  0  0  0  0  0  0  0  0  0  0  0
    5.8466  -11.3037   26.1873 C   0  0  0  0  0  0  0  0  0  0  0  0
    7.1645  -11.9152   25.7526 C   0  0  0  0  0  0  0  0  0  0  0  0
    7.2937  -13.2537   26.4344 C   0  0  2  0  0  0  0  0  0  0  0  0
    7.8611  -13.0156   27.8151 C   0  0  0  0  0  0  0  0  0  0  0  0
    8.2432  -14.1775   25.7130 C   0  0  2  0  0  0  0  0  0  0  0  0
    7.8630  -14.4190   24.3494 N   0  0  0  0  0  0  0  0  0  0  0  0
    8.2500  -15.4659   26.4380 C   0  0  0  0  0  0  0  0  0  0  0  0
    9.2189  -15.8308   27.3625 O   0  0  0  0  0  0  0  0  0  0  0  0
    7.3312  -16.2885   26.2142 O   0  0  0  0  0  0  0  0  0  0  0  0
  1  2  1  0
  2  3  2  0
  4  2  1  0
  5  4  1  0
  5  7  1  0
  5  6  1  1
  7  8  2  0
 10  9  1  6
 10 11  1  0
 12 10  1  0
 13  7  1  0
 12 13  1  1
 14 12  1  0
 14 15  2  0
 16 17  1  0
 17 18  1  0
 18 19  1  1
 18 20  1  0
 20 21  1  6
 21 14  1  0
 22 23  1  0
 22 20  1  0
 24 22  2  0
M  END
$$$$
