NTI.pdb
     RDKit          3D

 24 23  0  0  1  0  0  0  0  0999 V2000
   12.4415  -17.6533   16.4573 N   0  0  0  0  0  0  0  0  0  0  0  0
   12.0033  -18.4054   17.6257 C   0  0  0  0  0  0  0  0  0  0  0  0
   12.7488  -19.3488   17.9456 O   0  0  0  0  0  0  0  0  0  0  0  0
   10.7932  -18.0517   18.3289 C   0  0  0  0  0  0  0  0  0  0  0  0
   10.9774  -17.5412   19.7242 C   0  0  2  0  0  0  0  0  0  0  0  0
   10.9314  -18.7387   20.6257 N   0  0  0  0  0  0  0  0  0  0  0  0
    9.9030  -16.6723   20.2229 C   0  0  0  0  0  0  0  0  0  0  0  0
    9.5594  -15.6693   19.5320 O   0  0  0  0  0  0  0  0  0  0  0  0
    6.4066  -17.2419   20.7019 C   0  0  0  0  0  0  0  0  0  0  0  0
    6.9421  -16.8370   22.0667 C   0  0  1  0  0  0  0  0  0  0  0  0
    7.1264  -17.9069   22.9097 O   0  0  0  0  0  0  0  0  0  0  0  0
    8.1826  -15.9775   21.9168 C   0  0  2  0  0  0  0  0  0  0  0  0
    9.2303  -16.8995   21.4288 N   0  0  0  0  0  0  0  0  0  0  0  0
    8.6431  -15.4088   23.1785 C   0  0  0  0  0  0  0  0  0  0  0  0
    9.7881  -15.6721   23.6332 O   0  0  0  0  0  0  0  0  0  0  0  0
    7.2212  -11.0282   27.3467 C   0  0  0  0  0  0  0  0  0  0  0  0
    8.0370  -12.2675   27.0330 C   0  0  0  0  0  0  0  0  0  0  0  0
    7.4878  -12.8661   25.7628 C   0  0  2  0  0  0  0  0  0  0  0  0
    6.1180  -13.4262   26.0712 C   0  0  0  0  0  0  0  0  0  0  0  0
    8.3332  -14.0059   25.2515 C   0  0  2  0  0  0  0  0  0  0  0  0
    7.8705  -14.5281   23.9963 N   0  0  0  0  0  0  0  0  0  0  0  0
    8.2844  -15.0856   26.2603 C   0  0  0  0  0  0  0  0  0  0  0  0
    7.5555  -16.2570   26.1083 O   0  0  0  0  0  0  0  0  0  0  0  0
    8.9358  -14.9483   27.3223 O   0  0  0  0  0  0  0  0  0  0  0  0
  1  2  1  0
  2  3  2  0
  4  2  1  0
  5  4  1  0
  5  7  1  0
  5  6  1  1
  7  8  2  0
 10  9  1  6
 10 11  1  0
 12 10  1  0
 13  7  1  0
 12 13  1  1
 14 12  1  0
 14 15  2  0
 16 17  1  0
 17 18  1  0
 18 19  1  1
 18 20  1  0
 20 21  1  6
 21 14  1  0
 22 23  1  0
 22 20  1  0
 24 22  2  0
M  END
$$$$
