NTI.pdb
     RDKit          3D

 24 23  0  0  1  0  0  0  0  0999 V2000
   13.9345  -18.9992   19.9858 N   0  0  0  0  0  0  0  0  0  0  0  0
   13.5284  -18.1539   18.8707 C   0  0  0  0  0  0  0  0  0  0  0  0
   14.3695  -18.0575   17.9590 O   0  0  0  0  0  0  0  0  0  0  0  0
   12.2425  -17.4977   18.8626 C   0  0  0  0  0  0  0  0  0  0  0  0
   11.3957  -17.7114   20.0785 C   0  0  2  0  0  0  0  0  0  0  0  0
   10.4972  -18.8726   19.7734 N   0  0  0  0  0  0  0  0  0  0  0  0
   10.4724  -16.6157   20.4023 C   0  0  0  0  0  0  0  0  0  0  0  0
   10.4245  -15.6113   19.6342 O   0  0  0  0  0  0  0  0  0  0  0  0
    6.4060  -14.7444   21.7353 C   0  0  0  0  0  0  0  0  0  0  0  0
    7.3665  -15.9199   21.6401 C   0  0  1  0  0  0  0  0  0  0  0  0
    7.2146  -16.6445   20.4820 O   0  0  0  0  0  0  0  0  0  0  0  0
    8.7932  -15.4600   21.8709 C   0  0  2  0  0  0  0  0  0  0  0  0
    9.6323  -16.6261   21.5215 N   0  0  0  0  0  0  0  0  0  0  0  0
    9.0676  -15.1151   23.2612 C   0  0  0  0  0  0  0  0  0  0  0  0
    9.9765  -14.2966   23.5629 O   0  0  0  0  0  0  0  0  0  0  0  0
    7.1713  -11.4237   26.1806 C   0  0  0  0  0  0  0  0  0  0  0  0
    8.1345  -12.4974   25.7124 C   0  0  0  0  0  0  0  0  0  0  0  0
    7.3759  -13.7992   25.6584 C   0  0  2  0  0  0  0  0  0  0  0  0
    6.5209  -13.8871   26.9019 C   0  0  0  0  0  0  0  0  0  0  0  0
    8.2907  -14.9986   25.6579 C   0  0  2  0  0  0  0  0  0  0  0  0
    8.3593  -15.6509   24.3804 N   0  0  0  0  0  0  0  0  0  0  0  0
    7.7680  -15.9593   26.6527 C   0  0  0  0  0  0  0  0  0  0  0  0
    8.1419  -15.9725   27.9893 O   0  0  0  0  0  0  0  0  0  0  0  0
    6.9361  -16.8197   26.2806 O   0  0  0  0  0  0  0  0  0  0  0  0
  1  2  1  0
  2  3  2  0
  4  2  1  0
  5  4  1  0
  5  7  1  0
  5  6  1  6
  7  8  2  0
 10  9  1  6
 10 11  1  0
 12 10  1  0
 13  7  1  0
 12 13  1  1
 14 12  1  0
 14 15  2  0
 16 17  1  0
 17 18  1  0
 18 19  1  1
 18 20  1  0
 20 21  1  6
 21 14  1  0
 22 23  1  0
 22 20  1  0
 24 22  2  0
M  END
$$$$
