NTI.pdb
     RDKit          3D

 24 23  0  0  1  0  0  0  0  0999 V2000
    9.4180  -13.7982   16.5454 N   0  0  0  0  0  0  0  0  0  0  0  0
    7.9709  -13.8723   16.6984 C   0  0  0  0  0  0  0  0  0  0  0  0
    7.3366  -13.9029   15.6286 O   0  0  0  0  0  0  0  0  0  0  0  0
    7.3605  -13.9057   18.0063 C   0  0  0  0  0  0  0  0  0  0  0  0
    8.2964  -13.7530   19.1648 C   0  0  2  0  0  0  0  0  0  0  0  0
    9.6030  -14.3535   18.7393 N   0  0  0  0  0  0  0  0  0  0  0  0
    7.9298  -14.5045   20.3726 C   0  0  0  0  0  0  0  0  0  0  0  0
    6.8008  -14.2928   20.9036 O   0  0  0  0  0  0  0  0  0  0  0  0
    8.7846  -18.3838   23.3042 C   0  0  0  0  0  0  0  0  0  0  0  0
    9.0321  -17.5498   22.0566 C   0  0  1  0  0  0  0  0  0  0  0  0
    8.7074  -18.2110   20.8961 O   0  0  0  0  0  0  0  0  0  0  0  0
    8.3570  -16.1973   22.1792 C   0  0  2  0  0  0  0  0  0  0  0  0
    8.7675  -15.4536   20.9691 N   0  0  0  0  0  0  0  0  0  0  0  0
    8.8021  -15.4365   23.3413 C   0  0  0  0  0  0  0  0  0  0  0  0
    9.9441  -14.9058   23.3750 O   0  0  0  0  0  0  0  0  0  0  0  0
    5.9651  -11.7302   25.9668 C   0  0  0  0  0  0  0  0  0  0  0  0
    7.1205  -12.4883   25.3422 C   0  0  0  0  0  0  0  0  0  0  0  0
    7.4985  -13.6024   26.2851 C   0  0  2  0  0  0  0  0  0  0  0  0
    8.1385  -12.9782   27.5040 C   0  0  0  0  0  0  0  0  0  0  0  0
    8.5083  -14.5477   25.6833 C   0  0  2  0  0  0  0  0  0  0  0  0
    8.0167  -15.2242   24.5158 N   0  0  0  0  0  0  0  0  0  0  0  0
    8.8421  -15.5574   26.7103 C   0  0  0  0  0  0  0  0  0  0  0  0
    8.1711  -16.7634   26.8595 O   0  0  0  0  0  0  0  0  0  0  0  0
    9.7858  -15.3237   27.5012 O   0  0  0  0  0  0  0  0  0  0  0  0
  1  2  1  0
  2  3  2  0
  4  2  1  0
  5  4  1  0
  5  7  1  0
  5  6  1  6
  7  8  2  0
 10  9  1  1
 10 11  1  0
 12 10  1  0
 13  7  1  0
 12 13  1  6
 14 12  1  0
 14 15  2  0
 16 17  1  0
 17 18  1  0
 18 19  1  1
 18 20  1  0
 20 21  1  6
 21 14  1  0
 22 23  1  0
 22 20  1  0
 24 22  2  0
M  END
$$$$
