NTI.pdb
     RDKit          3D

 24 23  0  0  1  0  0  0  0  0999 V2000
    2.2336  -20.3228   21.9348 N   0  0  0  0  0  0  0  0  0  0  0  0
    2.7809  -18.9839   22.1107 C   0  0  0  0  0  0  0  0  0  0  0  0
    2.0498  -18.0657   21.6982 O   0  0  0  0  0  0  0  0  0  0  0  0
    4.0738  -18.7816   22.7204 C   0  0  0  0  0  0  0  0  0  0  0  0
    5.0837  -18.0634   21.8804 C   0  0  2  0  0  0  0  0  0  0  0  0
    5.2802  -18.8937   20.6472 N   0  0  0  0  0  0  0  0  0  0  0  0
    6.4278  -17.9600   22.4640 C   0  0  0  0  0  0  0  0  0  0  0  0
    6.8693  -18.9249   23.1535 O   0  0  0  0  0  0  0  0  0  0  0  0
   10.9849  -16.5740   22.0826 C   0  0  0  0  0  0  0  0  0  0  0  0
    9.5405  -16.7676   21.6472 C   0  0  1  0  0  0  0  0  0  0  0  0
    9.3717  -17.8465   20.8125 O   0  0  0  0  0  0  0  0  0  0  0  0
    8.6219  -16.7996   22.8536 C   0  0  2  0  0  0  0  0  0  0  0  0
    7.2547  -16.8441   22.2923 N   0  0  0  0  0  0  0  0  0  0  0  0
    8.7230  -15.6051   23.6843 C   0  0  0  0  0  0  0  0  0  0  0  0
    9.1289  -14.5118   23.2078 O   0  0  0  0  0  0  0  0  0  0  0  0
    5.7657  -12.3981   26.2416 C   0  0  0  0  0  0  0  0  0  0  0  0
    6.9722  -12.9942   25.5426 C   0  0  0  0  0  0  0  0  0  0  0  0
    7.7934  -13.7132   26.5828 C   0  0  2  0  0  0  0  0  0  0  0  0
    8.4624  -12.6681   27.4460 C   0  0  0  0  0  0  0  0  0  0  0  0
    8.8854  -14.5558   25.9721 C   0  0  2  0  0  0  0  0  0  0  0  0
    8.3844  -15.5560   25.0715 N   0  0  0  0  0  0  0  0  0  0  0  0
    9.6006  -15.2291   27.0770 C   0  0  0  0  0  0  0  0  0  0  0  0
    9.5408  -16.5941   27.3220 O   0  0  0  0  0  0  0  0  0  0  0  0
   10.3074  -14.5379   27.8473 O   0  0  0  0  0  0  0  0  0  0  0  0
  1  2  1  0
  2  3  2  0
  4  2  1  0
  5  4  1  0
  5  7  1  0
  5  6  1  6
  7  8  2  0
 10  9  1  1
 10 11  1  0
 12 10  1  0
 13  7  1  0
 12 13  1  6
 14 12  1  0
 14 15  2  0
 16 17  1  0
 17 18  1  0
 18 19  1  1
 18 20  1  0
 20 21  1  6
 21 14  1  0
 22 23  1  0
 22 20  1  0
 24 22  2  0
M  END
$$$$
