EFI.pdb
     RDKit          3D

 29 29  0  0  1  0  0  0  0  0999 V2000
    9.9182  -16.8894   18.8178 N   0  0  0  0  0  0  0  0  0  0  0  0
   10.3615  -17.3954   20.0998 C   0  0  1  0  0  0  0  0  0  0  0  0
   11.8022  -17.7490   20.1306 C   0  0  0  0  0  0  0  0  0  0  0  0
   12.2604  -18.7581   19.1382 C   0  0  0  0  0  0  0  0  0  0  0  0
   13.6781  -19.1279   19.3067 C   0  0  0  0  0  0  0  0  0  0  0  0
   14.1006  -19.9848   20.1014 O   0  0  0  0  0  0  0  0  0  0  0  0
   10.1022  -16.3960   21.1875 C   0  0  0  0  0  0  0  0  0  0  0  0
   10.6218  -15.2469   21.1592 O   0  0  0  0  0  0  0  0  0  0  0  0
   14.6051  -18.4448   18.4944 O   0  0  0  0  0  0  0  0  0  0  0  0
    9.2602  -16.7366   22.2726 N   0  0  0  0  0  0  0  0  0  0  0  0
    8.9203  -15.7476   23.3330 C   0  0  1  0  0  0  0  0  0  0  0  0
    7.4973  -15.3947   23.2658 C   0  0  0  0  0  0  0  0  0  0  0  0
    7.0540  -14.4288   24.2578 C   0  0  0  0  0  0  0  0  0  0  0  0
    6.2508  -14.7732   25.3104 C   0  0  0  0  0  0  0  0  0  0  0  0
    5.9137  -13.8244   26.2423 C   0  0  0  0  0  0  0  0  0  0  0  0
    6.3569  -12.5124   26.1645 C   0  0  0  0  0  0  0  0  0  0  0  0
    7.1668  -12.1973   25.0892 C   0  0  0  0  0  0  0  0  0  0  0  0
    7.5042  -13.1323   24.1632 C   0  0  0  0  0  0  0  0  0  0  0  0
    9.5232  -16.1733   24.5999 C   0  0  0  0  0  0  0  0  0  0  0  0
    9.7995  -17.4241   24.7710 O   0  0  0  0  0  0  0  0  0  0  0  0
   10.4859  -12.6878   28.9850 C   0  0  0  0  0  0  0  0  0  0  0  0
   10.8392  -13.6382   27.8594 C   0  0  0  0  0  0  0  0  0  0  0  0
   10.3333  -15.0342   28.1390 C   0  0  2  0  0  0  0  0  0  0  0  0
   11.2729  -15.6430   29.1924 C   0  0  0  0  0  0  0  0  0  0  0  0
   10.3832  -15.9017   26.9526 C   0  0  2  0  0  0  0  0  0  0  0  0
    9.8693  -15.3615   25.7095 N   0  0  0  0  0  0  0  0  0  0  0  0
    9.7513  -17.2608   27.1871 C   0  0  0  0  0  0  0  0  0  0  0  0
    8.5083  -17.4182   27.1215 O   0  0  0  0  0  0  0  0  0  0  0  0
   10.5055  -18.3710   27.4794 O   0  0  0  0  0  0  0  0  0  0  0  0
  2  3  1  0
  2  1  1  6
  4  5  1  0
  4  3  1  0
  5  6  2  0
  7  2  1  0
  8  7  2  0
  9  5  1  0
 10  7  1  0
 11 10  1  0
 11 12  1  1
 12 13  1  0
 13 14  2  0
 14 15  1  0
 16 15  2  0
 17 16  1  0
 18 13  1  0
 18 17  2  0
 19 20  2  0
 19 11  1  0
 21 22  1  0
 22 23  1  0
 23 25  1  0
 23 24  1  1
 25 26  1  6
 26 19  1  0
 27 29  1  0
 27 25  1  0
 28 27  2  0
M  END
$$$$
