EFI.pdb
     RDKit          3D

 29 29  0  0  1  0  0  0  0  0999 V2000
    9.6753  -18.7368   20.4764 N   0  0  0  0  0  0  0  0  0  0  0  0
   10.8394  -17.9369   20.7944 C   0  0  1  0  0  0  0  0  0  0  0  0
   11.4423  -17.2729   19.6123 C   0  0  0  0  0  0  0  0  0  0  0  0
   11.2200  -17.9291   18.2959 C   0  0  0  0  0  0  0  0  0  0  0  0
   11.9046  -17.2393   17.1865 C   0  0  0  0  0  0  0  0  0  0  0  0
   12.8943  -17.6794   16.5773 O   0  0  0  0  0  0  0  0  0  0  0  0
   10.5020  -16.8795   21.8029 C   0  0  0  0  0  0  0  0  0  0  0  0
   11.3462  -16.0069   22.1450 O   0  0  0  0  0  0  0  0  0  0  0  0
   11.3788  -15.9884   16.8064 O   0  0  0  0  0  0  0  0  0  0  0  0
    9.2148  -16.8494   22.3900 N   0  0  0  0  0  0  0  0  0  0  0  0
    8.8672  -15.8640   23.4511 C   0  0  1  0  0  0  0  0  0  0  0  0
    7.4467  -15.5042   23.3694 C   0  0  0  0  0  0  0  0  0  0  0  0
    7.0177  -14.4713   24.2980 C   0  0  0  0  0  0  0  0  0  0  0  0
    7.1870  -13.1379   24.0428 C   0  0  0  0  0  0  0  0  0  0  0  0
    6.7096  -12.2125   24.9361 C   0  0  0  0  0  0  0  0  0  0  0  0
    6.0532  -12.5729   26.1036 C   0  0  0  0  0  0  0  0  0  0  0  0
    5.8983  -13.9278   26.3316 C   0  0  0  0  0  0  0  0  0  0  0  0
    6.3688  -14.8489   25.4508 C   0  0  0  0  0  0  0  0  0  0  0  0
    9.4537  -16.2984   24.7228 C   0  0  0  0  0  0  0  0  0  0  0  0
    9.9838  -17.4746   24.7966 O   0  0  0  0  0  0  0  0  0  0  0  0
   10.3838  -12.7774   28.9622 C   0  0  0  0  0  0  0  0  0  0  0  0
   10.7510  -13.7981   27.9046 C   0  0  0  0  0  0  0  0  0  0  0  0
   10.2738  -15.1802   28.2850 C   0  0  2  0  0  0  0  0  0  0  0  0
   11.3306  -15.7679   29.2344 C   0  0  0  0  0  0  0  0  0  0  0  0
   10.1735  -16.0820   27.1277 C   0  0  2  0  0  0  0  0  0  0  0  0
    9.5306  -15.5670   25.9349 N   0  0  0  0  0  0  0  0  0  0  0  0
    9.5493  -17.4207   27.4739 C   0  0  0  0  0  0  0  0  0  0  0  0
    8.3056  -17.5832   27.4454 O   0  0  0  0  0  0  0  0  0  0  0  0
   10.3118  -18.5061   27.8309 O   0  0  0  0  0  0  0  0  0  0  0  0
  2  3  1  0
  2  1  1  6
  4  5  1  0
  4  3  1  0
  5  6  2  0
  7  2  1  0
  8  7  2  0
  9  5  1  0
 10  7  1  0
 11 10  1  0
 11 12  1  1
 12 13  1  0
 13 14  2  0
 14 15  1  0
 16 15  2  0
 17 16  1  0
 18 13  1  0
 18 17  2  0
 19 20  2  0
 19 11  1  0
 21 22  1  0
 22 23  1  0
 23 25  1  0
 23 24  1  1
 25 26  1  6
 26 19  1  0
 27 29  1  0
 27 25  1  0
 28 27  2  0
M  END
$$$$
