EFI.pdb
     RDKit          3D

 29 29  0  0  1  0  0  0  0  0999 V2000
    9.7313  -19.0971   20.8067 N   0  0  0  0  0  0  0  0  0  0  0  0
   10.6794  -18.0114   20.6711 C   0  0  1  0  0  0  0  0  0  0  0  0
   10.7998  -17.5004   19.2833 C   0  0  0  0  0  0  0  0  0  0  0  0
   12.1774  -17.2285   18.7922 C   0  0  0  0  0  0  0  0  0  0  0  0
   12.4519  -17.8429   17.4799 C   0  0  0  0  0  0  0  0  0  0  0  0
   12.8824  -18.9962   17.3099 O   0  0  0  0  0  0  0  0  0  0  0  0
   10.3078  -16.8632   21.5614 C   0  0  0  0  0  0  0  0  0  0  0  0
   11.0254  -15.8280   21.6297 O   0  0  0  0  0  0  0  0  0  0  0  0
   12.1994  -17.0426   16.3478 O   0  0  0  0  0  0  0  0  0  0  0  0
    9.1318  -16.9301   22.3456 N   0  0  0  0  0  0  0  0  0  0  0  0
    8.8294  -15.9046   23.3823 C   0  0  1  0  0  0  0  0  0  0  0  0
    7.4160  -15.5145   23.3186 C   0  0  0  0  0  0  0  0  0  0  0  0
    6.9903  -14.5700   24.3385 C   0  0  0  0  0  0  0  0  0  0  0  0
    6.3179  -14.9589   25.4647 C   0  0  0  0  0  0  0  0  0  0  0  0
    5.9935  -14.0241   26.4151 C   0  0  0  0  0  0  0  0  0  0  0  0
    6.3210  -12.6827   26.2837 C   0  0  0  0  0  0  0  0  0  0  0  0
    7.0003  -12.3229   25.1345 C   0  0  0  0  0  0  0  0  0  0  0  0
    7.3245  -13.2438   24.1899 C   0  0  0  0  0  0  0  0  0  0  0  0
    9.4328  -16.3131   24.6546 C   0  0  0  0  0  0  0  0  0  0  0  0
   10.0155  -17.4643   24.7284 O   0  0  0  0  0  0  0  0  0  0  0  0
   10.3731  -12.7679   28.9662 C   0  0  0  0  0  0  0  0  0  0  0  0
   10.6345  -13.7396   27.8336 C   0  0  0  0  0  0  0  0  0  0  0  0
   10.2217  -15.1440   28.2076 C   0  0  2  0  0  0  0  0  0  0  0  0
   11.2980  -15.6821   29.1644 C   0  0  0  0  0  0  0  0  0  0  0  0
   10.1744  -16.0470   27.0479 C   0  0  2  0  0  0  0  0  0  0  0  0
    9.4746  -15.5801   25.8674 N   0  0  0  0  0  0  0  0  0  0  0  0
    9.6626  -17.4318   27.3974 C   0  0  0  0  0  0  0  0  0  0  0  0
    8.4351  -17.6912   27.3875 O   0  0  0  0  0  0  0  0  0  0  0  0
   10.5132  -18.4553   27.7375 O   0  0  0  0  0  0  0  0  0  0  0  0
  2  3  1  0
  2  1  1  6
  4  5  1  0
  4  3  1  0
  5  6  2  0
  7  2  1  0
  8  7  2  0
  9  5  1  0
 10  7  1  0
 11 10  1  0
 11 12  1  1
 12 13  1  0
 13 14  2  0
 14 15  1  0
 16 15  2  0
 17 16  1  0
 18 13  1  0
 18 17  2  0
 19 20  2  0
 19 11  1  0
 21 22  1  0
 22 23  1  0
 23 25  1  0
 23 24  1  1
 25 26  1  6
 26 19  1  0
 27 29  1  0
 27 25  1  0
 28 27  2  0
M  END
$$$$
