EFI.pdb
     RDKit          3D

 29 29  0  0  1  0  0  0  0  0999 V2000
   11.6758  -16.5199   19.6080 N   0  0  0  0  0  0  0  0  0  0  0  0
   10.7054  -17.1562   20.4737 C   0  0  1  0  0  0  0  0  0  0  0  0
   11.1004  -18.5203   20.9040 C   0  0  0  0  0  0  0  0  0  0  0  0
   12.2894  -18.6188   21.7924 C   0  0  0  0  0  0  0  0  0  0  0  0
   12.6782  -20.0121   22.0804 C   0  0  0  0  0  0  0  0  0  0  0  0
   13.5914  -20.3513   22.8520 O   0  0  0  0  0  0  0  0  0  0  0  0
   10.4627  -16.3307   21.7020 C   0  0  0  0  0  0  0  0  0  0  0  0
   11.3677  -15.5999   22.1899 O   0  0  0  0  0  0  0  0  0  0  0  0
   11.9446  -21.0171   21.4190 O   0  0  0  0  0  0  0  0  0  0  0  0
    9.1979  -16.3638   22.3359 N   0  0  0  0  0  0  0  0  0  0  0  0
    8.8854  -15.4809   23.4938 C   0  0  1  0  0  0  0  0  0  0  0  0
    7.4805  -15.0583   23.4500 C   0  0  0  0  0  0  0  0  0  0  0  0
    7.0789  -14.1424   24.5051 C   0  0  0  0  0  0  0  0  0  0  0  0
    7.4094  -12.8149   24.4904 C   0  0  0  0  0  0  0  0  0  0  0  0
    6.9517  -11.9932   25.4892 C   0  0  0  0  0  0  0  0  0  0  0  0
    6.1573  -12.4542   26.5286 C   0  0  0  0  0  0  0  0  0  0  0  0
    5.8413  -13.8001   26.5137 C   0  0  0  0  0  0  0  0  0  0  0  0
    6.2913  -14.6189   25.5275 C   0  0  0  0  0  0  0  0  0  0  0  0
    9.4489  -16.0681   24.7133 C   0  0  0  0  0  0  0  0  0  0  0  0
    9.9296  -17.2668   24.6650 O   0  0  0  0  0  0  0  0  0  0  0  0
   10.6732  -12.9982   29.2080 C   0  0  0  0  0  0  0  0  0  0  0  0
   10.9673  -13.9594   28.0746 C   0  0  0  0  0  0  0  0  0  0  0  0
   10.3781  -15.3243   28.3441 C   0  0  2  0  0  0  0  0  0  0  0  0
   11.3842  -16.0735   29.2329 C   0  0  0  0  0  0  0  0  0  0  0  0
   10.2016  -16.1160   27.1175 C   0  0  2  0  0  0  0  0  0  0  0  0
    9.5520  -15.4695   25.9944 N   0  0  0  0  0  0  0  0  0  0  0  0
    9.5221  -17.4493   27.3671 C   0  0  0  0  0  0  0  0  0  0  0  0
   10.1584  -18.4240   27.8353 O   0  0  0  0  0  0  0  0  0  0  0  0
    8.1906  -17.6474   27.0939 O   0  0  0  0  0  0  0  0  0  0  0  0
  2  3  1  0
  2  1  1  1
  4  5  1  0
  4  3  1  0
  5  6  2  0
  7  2  1  0
  8  7  2  0
  9  5  1  0
 10  7  1  0
 11 10  1  0
 11 12  1  1
 12 13  1  0
 13 14  2  0
 14 15  1  0
 16 15  2  0
 17 16  1  0
 18 13  1  0
 18 17  2  0
 19 20  2  0
 19 11  1  0
 21 22  1  0
 22 23  1  0
 23 25  1  0
 23 24  1  1
 25 26  1  6
 26 19  1  0
 27 29  1  0
 27 25  1  0
 28 27  2  0
M  END
$$$$
