EFI.pdb
     RDKit          3D

 29 29  0  0  1  0  0  0  0  0999 V2000
    9.8909  -18.6021   20.5547 N   0  0  0  0  0  0  0  0  0  0  0  0
   11.0201  -17.7344   20.8152 C   0  0  1  0  0  0  0  0  0  0  0  0
   11.5877  -17.1177   19.5908 C   0  0  0  0  0  0  0  0  0  0  0  0
   11.9740  -18.0477   18.4959 C   0  0  0  0  0  0  0  0  0  0  0  0
   13.4262  -18.0617   18.2388 C   0  0  0  0  0  0  0  0  0  0  0  0
   14.2610  -17.3578   18.8321 O   0  0  0  0  0  0  0  0  0  0  0  0
   10.6413  -16.6335   21.7605 C   0  0  0  0  0  0  0  0  0  0  0  0
   11.4477  -15.7055   22.0427 O   0  0  0  0  0  0  0  0  0  0  0  0
   13.8776  -18.9480   17.2406 O   0  0  0  0  0  0  0  0  0  0  0  0
    9.3569  -16.6243   22.3546 N   0  0  0  0  0  0  0  0  0  0  0  0
    8.9765  -15.6014   23.3679 C   0  0  1  0  0  0  0  0  0  0  0  0
    7.5463  -15.2880   23.2661 C   0  0  0  0  0  0  0  0  0  0  0  0
    7.0763  -14.2512   24.1702 C   0  0  0  0  0  0  0  0  0  0  0  0
    7.3474  -12.9251   23.9713 C   0  0  0  0  0  0  0  0  0  0  0  0
    6.8271  -11.9921   24.8321 C   0  0  0  0  0  0  0  0  0  0  0  0
    6.0268  -12.3375   25.9110 C   0  0  0  0  0  0  0  0  0  0  0  0
    5.7718  -13.6853   26.0838 C   0  0  0  0  0  0  0  0  0  0  0  0
    6.2840  -14.6140   25.2348 C   0  0  0  0  0  0  0  0  0  0  0  0
    9.5706  -15.9589   24.6598 C   0  0  0  0  0  0  0  0  0  0  0  0
    9.8065  -17.2034   24.9159 O   0  0  0  0  0  0  0  0  0  0  0  0
   10.8873  -14.3068   30.5451 C   0  0  0  0  0  0  0  0  0  0  0  0
   11.1156  -15.2014   29.3440 C   0  0  0  0  0  0  0  0  0  0  0  0
   10.5151  -14.6054   28.0922 C   0  0  2  0  0  0  0  0  0  0  0  0
    9.0547  -14.2582   28.4236 C   0  0  0  0  0  0  0  0  0  0  0  0
   10.4967  -15.5529   26.9677 C   0  0  2  0  0  0  0  0  0  0  0  0
    9.9478  -15.0847   25.7104 N   0  0  0  0  0  0  0  0  0  0  0  0
    9.8407  -16.8749   27.3193 C   0  0  0  0  0  0  0  0  0  0  0  0
   10.5117  -17.8297   27.7800 O   0  0  0  0  0  0  0  0  0  0  0  0
    8.4936  -17.0840   27.1504 O   0  0  0  0  0  0  0  0  0  0  0  0
  2  3  1  0
  2  1  1  6
  4  5  1  0
  4  3  1  0
  5  6  2  0
  7  2  1  0
  8  7  2  0
  9  5  1  0
 10  7  1  0
 11 10  1  0
 11 12  1  1
 12 13  1  0
 13 14  2  0
 14 15  1  0
 16 15  2  0
 17 16  1  0
 18 13  1  0
 18 17  2  0
 19 20  2  0
 19 11  1  0
 21 22  1  0
 22 23  1  0
 23 25  1  0
 23 24  1  1
 25 26  1  6
 26 19  1  0
 27 29  1  0
 27 25  1  0
 28 27  2  0
M  END
$$$$
