EFI.pdb
     RDKit          3D

 29 29  0  0  1  0  0  0  0  0999 V2000
    9.8059  -18.1586   19.9116 N   0  0  0  0  0  0  0  0  0  0  0  0
   10.9658  -17.7985   20.6995 C   0  0  1  0  0  0  0  0  0  0  0  0
   12.0693  -17.2159   19.8965 C   0  0  0  0  0  0  0  0  0  0  0  0
   12.9610  -18.1783   19.1954 C   0  0  0  0  0  0  0  0  0  0  0  0
   14.1250  -17.5288   18.5641 C   0  0  0  0  0  0  0  0  0  0  0  0
   15.1583  -17.1832   19.1618 O   0  0  0  0  0  0  0  0  0  0  0  0
   10.5994  -16.8165   21.7721 C   0  0  0  0  0  0  0  0  0  0  0  0
   11.4516  -16.0174   22.2480 O   0  0  0  0  0  0  0  0  0  0  0  0
   14.0356  -17.2925   17.1778 O   0  0  0  0  0  0  0  0  0  0  0  0
    9.2750  -16.7757   22.2690 N   0  0  0  0  0  0  0  0  0  0  0  0
    8.8909  -15.8666   23.3843 C   0  0  1  0  0  0  0  0  0  0  0  0
    7.5815  -15.2584   23.1203 C   0  0  0  0  0  0  0  0  0  0  0  0
    7.1103  -14.3403   24.1442 C   0  0  0  0  0  0  0  0  0  0  0  0
    7.3625  -12.9965   24.0980 C   0  0  0  0  0  0  0  0  0  0  0  0
    6.8417  -12.1771   25.0674 C   0  0  0  0  0  0  0  0  0  0  0  0
    6.0595  -12.6565   26.1076 C   0  0  0  0  0  0  0  0  0  0  0  0
    5.8234  -14.0187   26.1251 C   0  0  0  0  0  0  0  0  0  0  0  0
    6.3361  -14.8352   25.1681 C   0  0  0  0  0  0  0  0  0  0  0  0
    9.1588  -16.5326   24.6628 C   0  0  0  0  0  0  0  0  0  0  0  0
    9.5730  -17.7567   24.6546 O   0  0  0  0  0  0  0  0  0  0  0  0
   11.3072  -13.9936   29.8836 C   0  0  0  0  0  0  0  0  0  0  0  0
   11.4096  -15.0425   28.7952 C   0  0  0  0  0  0  0  0  0  0  0  0
   10.3637  -14.8294   27.7259 C   0  0  2  0  0  0  0  0  0  0  0  0
    9.0647  -14.4376   28.4488 C   0  0  0  0  0  0  0  0  0  0  0  0
   10.0859  -16.0509   26.9556 C   0  0  2  0  0  0  0  0  0  0  0  0
    9.0288  -15.9889   25.9657 N   0  0  0  0  0  0  0  0  0  0  0  0
    9.8538  -17.2648   27.8355 C   0  0  0  0  0  0  0  0  0  0  0  0
   10.7532  -17.6954   28.5970 O   0  0  0  0  0  0  0  0  0  0  0  0
    8.6583  -17.9412   27.8380 O   0  0  0  0  0  0  0  0  0  0  0  0
  2  3  1  0
  2  1  1  6
  4  5  1  0
  4  3  1  0
  5  6  2  0
  7  2  1  0
  8  7  2  0
  9  5  1  0
 10  7  1  0
 11 10  1  0
 11 12  1  6
 12 13  1  0
 13 14  2  0
 14 15  1  0
 16 15  2  0
 17 16  1  0
 18 13  1  0
 18 17  2  0
 19 20  2  0
 19 11  1  0
 21 22  1  0
 22 23  1  0
 23 25  1  0
 23 24  1  1
 25 26  1  1
 26 19  1  0
 27 29  1  0
 27 25  1  0
 28 27  2  0
M  END
$$$$
