EFI.pdb
     RDKit          3D

 29 29  0  0  1  0  0  0  0  0999 V2000
    8.7254  -19.3061   21.6609 N   0  0  0  0  0  0  0  0  0  0  0  0
    9.9713  -18.7096   21.2271 C   0  0  1  0  0  0  0  0  0  0  0  0
   10.0825  -18.5767   19.7534 C   0  0  0  0  0  0  0  0  0  0  0  0
   11.4042  -18.1476   19.2226 C   0  0  0  0  0  0  0  0  0  0  0  0
   11.3505  -17.7412   17.8058 C   0  0  0  0  0  0  0  0  0  0  0  0
   11.9708  -16.7820   17.3165 O   0  0  0  0  0  0  0  0  0  0  0  0
   10.1529  -17.3504   21.8340 C   0  0  0  0  0  0  0  0  0  0  0  0
   11.1750  -16.6536   21.5870 O   0  0  0  0  0  0  0  0  0  0  0  0
   10.5272  -18.5139   16.9627 O   0  0  0  0  0  0  0  0  0  0  0  0
    9.1658  -16.8278   22.7029 N   0  0  0  0  0  0  0  0  0  0  0  0
    9.3347  -15.5047   23.3651 C   0  0  1  0  0  0  0  0  0  0  0  0
    8.0885  -14.7329   23.2908 C   0  0  0  0  0  0  0  0  0  0  0  0
    7.7878  -14.1716   21.9839 C   0  0  0  0  0  0  0  0  0  0  0  0
    8.3058  -12.9783   21.5603 C   0  0  0  0  0  0  0  0  0  0  0  0
    8.0263  -12.5315   20.2936 C   0  0  0  0  0  0  0  0  0  0  0  0
    7.2305  -13.2454   19.4099 C   0  0  0  0  0  0  0  0  0  0  0  0
    6.7231  -14.4469   19.8687 C   0  0  0  0  0  0  0  0  0  0  0  0
    6.9963  -14.8948   21.1218 C   0  0  0  0  0  0  0  0  0  0  0  0
   10.0195  -15.6919   24.6480 C   0  0  0  0  0  0  0  0  0  0  0  0
   11.2492  -15.3107   24.7611 O   0  0  0  0  0  0  0  0  0  0  0  0
    8.9407  -12.4664   27.9885 C   0  0  0  0  0  0  0  0  0  0  0  0
    9.6132  -13.5750   27.2050 C   0  0  0  0  0  0  0  0  0  0  0  0
    9.5234  -14.8957   27.9332 C   0  0  2  0  0  0  0  0  0  0  0  0
   10.3859  -14.7632   29.1989 C   0  0  0  0  0  0  0  0  0  0  0  0
   10.0670  -16.0130   27.1467 C   0  0  2  0  0  0  0  0  0  0  0  0
    9.4896  -16.2505   25.8385 N   0  0  0  0  0  0  0  0  0  0  0  0
   10.0837  -17.3223   27.9129 C   0  0  0  0  0  0  0  0  0  0  0  0
    9.0823  -18.0780   27.9277 O   0  0  0  0  0  0  0  0  0  0  0  0
   11.1871  -17.7358   28.6189 O   0  0  0  0  0  0  0  0  0  0  0  0
  2  3  1  0
  2  1  1  6
  4  5  1  0
  4  3  1  0
  5  6  2  0
  7  2  1  0
  8  7  2  0
  9  5  1  0
 10  7  1  0
 11 10  1  0
 11 12  1  1
 12 13  1  0
 13 14  2  0
 14 15  1  0
 16 15  2  0
 17 16  1  0
 18 13  1  0
 18 17  2  0
 19 20  2  0
 19 11  1  0
 21 22  1  0
 22 23  1  0
 23 25  1  0
 23 24  1  1
 25 26  1  6
 26 19  1  0
 27 29  1  0
 27 25  1  0
 28 27  2  0
M  END
$$$$
