EFI.pdb
     RDKit          3D

 29 29  0  0  1  0  0  0  0  0999 V2000
   10.9644  -16.6689   19.2374 N   0  0  0  0  0  0  0  0  0  0  0  0
   10.4686  -17.3889   20.3915 C   0  0  1  0  0  0  0  0  0  0  0  0
   11.3563  -18.4961   20.8248 C   0  0  0  0  0  0  0  0  0  0  0  0
   12.0456  -19.2559   19.7475 C   0  0  0  0  0  0  0  0  0  0  0  0
   12.8421  -20.3862   20.2602 C   0  0  0  0  0  0  0  0  0  0  0  0
   12.3908  -21.3269   20.9354 O   0  0  0  0  0  0  0  0  0  0  0  0
   10.2735  -16.4635   21.5554 C   0  0  0  0  0  0  0  0  0  0  0  0
   11.1241  -15.5755   21.8365 O   0  0  0  0  0  0  0  0  0  0  0  0
   14.2163  -20.3774   19.9483 O   0  0  0  0  0  0  0  0  0  0  0  0
    9.1167  -16.5788   22.3623 N   0  0  0  0  0  0  0  0  0  0  0  0
    8.8521  -15.6324   23.4814 C   0  0  1  0  0  0  0  0  0  0  0  0
    7.4716  -15.1381   23.4173 C   0  0  0  0  0  0  0  0  0  0  0  0
    7.1243  -14.1470   24.4225 C   0  0  0  0  0  0  0  0  0  0  0  0
    7.3970  -12.8155   24.2661 C   0  0  0  0  0  0  0  0  0  0  0  0
    6.9930  -11.9249   25.2283 C   0  0  0  0  0  0  0  0  0  0  0  0
    6.3103  -12.3192   26.3696 C   0  0  0  0  0  0  0  0  0  0  0  0
    6.0503  -13.6711   26.4971 C   0  0  0  0  0  0  0  0  0  0  0  0
    6.4477  -14.5579   25.5477 C   0  0  0  0  0  0  0  0  0  0  0  0
    9.3843  -16.1967   24.7256 C   0  0  0  0  0  0  0  0  0  0  0  0
    9.5212  -17.4781   24.8219 O   0  0  0  0  0  0  0  0  0  0  0  0
   10.4459  -13.6396   29.9176 C   0  0  0  0  0  0  0  0  0  0  0  0
    9.8449  -14.5218   28.8425 C   0  0  0  0  0  0  0  0  0  0  0  0
   10.9122  -15.3008   28.1100 C   0  0  2  0  0  0  0  0  0  0  0  0
   11.8308  -14.2683   27.4367 C   0  0  0  0  0  0  0  0  0  0  0  0
   10.3600  -16.1553   27.0483 C   0  0  2  0  0  0  0  0  0  0  0  0
    9.7970  -15.4957   25.8867 N   0  0  0  0  0  0  0  0  0  0  0  0
    9.3533  -17.1654   27.5661 C   0  0  0  0  0  0  0  0  0  0  0  0
    9.6799  -18.0306   28.4139 O   0  0  0  0  0  0  0  0  0  0  0  0
    8.0496  -17.1776   27.1334 O   0  0  0  0  0  0  0  0  0  0  0  0
  2  3  1  0
  2  1  1  6
  4  5  1  0
  4  3  1  0
  5  6  2  0
  7  2  1  0
  8  7  2  0
  9  5  1  0
 10  7  1  0
 11 10  1  0
 11 12  1  1
 12 13  1  0
 13 14  2  0
 14 15  1  0
 16 15  2  0
 17 16  1  0
 18 13  1  0
 18 17  2  0
 19 20  2  0
 19 11  1  0
 21 22  1  0
 22 23  1  0
 23 25  1  0
 23 24  1  6
 25 26  1  6
 26 19  1  0
 27 29  1  0
 27 25  1  0
 28 27  2  0
M  END
$$$$
