EFI.pdb
     RDKit          3D

 29 29  0  0  1  0  0  0  0  0999 V2000
    9.3466  -18.9573   20.7992 N   0  0  0  0  0  0  0  0  0  0  0  0
   10.6237  -18.3801   21.1622 C   0  0  1  0  0  0  0  0  0  0  0  0
   11.4352  -17.9564   19.9944 C   0  0  0  0  0  0  0  0  0  0  0  0
   10.7573  -17.9791   18.6704 C   0  0  0  0  0  0  0  0  0  0  0  0
   11.6110  -17.4751   17.5785 C   0  0  0  0  0  0  0  0  0  0  0  0
   11.6810  -16.2873   17.2200 O   0  0  0  0  0  0  0  0  0  0  0  0
   10.4379  -17.1917   22.0580 C   0  0  0  0  0  0  0  0  0  0  0  0
   11.4026  -16.4327   22.3484 O   0  0  0  0  0  0  0  0  0  0  0  0
   12.3977  -18.4311   16.9055 O   0  0  0  0  0  0  0  0  0  0  0  0
    9.1602  -16.9056   22.5948 N   0  0  0  0  0  0  0  0  0  0  0  0
    8.9566  -15.7976   23.5688 C   0  0  1  0  0  0  0  0  0  0  0  0
    7.6159  -15.2209   23.4142 C   0  0  0  0  0  0  0  0  0  0  0  0
    7.2776  -14.1812   24.3724 C   0  0  0  0  0  0  0  0  0  0  0  0
    7.7659  -12.9068   24.2763 C   0  0  0  0  0  0  0  0  0  0  0  0
    7.3634  -11.9584   25.1822 C   0  0  0  0  0  0  0  0  0  0  0  0
    6.4706  -12.2372   26.2064 C   0  0  0  0  0  0  0  0  0  0  0  0
    5.9959  -13.5339   26.2755 C   0  0  0  0  0  0  0  0  0  0  0  0
    6.3906  -14.4775   25.3814 C   0  0  0  0  0  0  0  0  0  0  0  0
    9.4380  -16.2208   24.8875 C   0  0  0  0  0  0  0  0  0  0  0  0
    8.8124  -17.1670   25.5067 O   0  0  0  0  0  0  0  0  0  0  0  0
    9.5840  -12.7652   28.6593 C   0  0  0  0  0  0  0  0  0  0  0  0
   10.3121  -13.6468   27.6654 C   0  0  0  0  0  0  0  0  0  0  0  0
   10.1209  -15.1109   27.9856 C   0  0  2  0  0  0  0  0  0  0  0  0
   10.7885  -15.3570   29.3484 C   0  0  0  0  0  0  0  0  0  0  0  0
   10.7774  -15.9934   27.0096 C   0  0  2  0  0  0  0  0  0  0  0  0
   10.5528  -15.7173   25.6044 N   0  0  0  0  0  0  0  0  0  0  0  0
   10.5025  -17.4637   27.2634 C   0  0  0  0  0  0  0  0  0  0  0  0
   11.1054  -18.0895   28.1684 O   0  0  0  0  0  0  0  0  0  0  0  0
    9.5885  -18.1698   26.5199 O   0  0  0  0  0  0  0  0  0  0  0  0
  2  3  1  0
  2  1  1  6
  4  5  1  0
  4  3  1  0
  5  6  2  0
  7  2  1  0
  8  7  2  0
  9  5  1  0
 10  7  1  0
 11 10  1  0
 11 12  1  1
 12 13  1  0
 13 14  2  0
 14 15  1  0
 16 15  2  0
 17 16  1  0
 18 13  1  0
 18 17  2  0
 19 20  2  0
 19 11  1  0
 21 22  1  0
 22 23  1  0
 23 25  1  0
 23 24  1  1
 25 26  1  6
 26 19  1  0
 27 29  1  0
 27 25  1  0
 28 27  2  0
M  END
$$$$
