EFI.pdb
     RDKit          3D

 29 29  0  0  1  0  0  0  0  0999 V2000
    9.7778  -18.9470   20.4779 N   0  0  0  0  0  0  0  0  0  0  0  0
   10.9355  -18.1373   20.7943 C   0  0  1  0  0  0  0  0  0  0  0  0
   11.5520  -17.4961   19.6066 C   0  0  0  0  0  0  0  0  0  0  0  0
   11.0651  -17.9525   18.2771 C   0  0  0  0  0  0  0  0  0  0  0  0
   11.7246  -17.2597   17.1544 C   0  0  0  0  0  0  0  0  0  0  0  0
   12.6909  -16.4861   17.2642 O   0  0  0  0  0  0  0  0  0  0  0  0
   10.5823  -17.0603   21.7763 C   0  0  0  0  0  0  0  0  0  0  0  0
   11.4019  -16.1479   22.0714 O   0  0  0  0  0  0  0  0  0  0  0  0
   11.2020  -17.5095   15.8698 O   0  0  0  0  0  0  0  0  0  0  0  0
    9.3078  -17.0564   22.3913 N   0  0  0  0  0  0  0  0  0  0  0  0
    8.9475  -16.0487   23.4270 C   0  0  1  0  0  0  0  0  0  0  0  0
    7.5368  -15.6650   23.2980 C   0  0  0  0  0  0  0  0  0  0  0  0
    7.0810  -14.6628   24.2474 C   0  0  0  0  0  0  0  0  0  0  0  0
    6.4463  -14.9913   25.4140 C   0  0  0  0  0  0  0  0  0  0  0  0
    6.0910  -13.9995   26.2929 C   0  0  0  0  0  0  0  0  0  0  0  0
    6.3500  -12.6589   26.0486 C   0  0  0  0  0  0  0  0  0  0  0  0
    6.9927  -12.3609   24.8613 C   0  0  0  0  0  0  0  0  0  0  0  0
    7.3471  -13.3384   23.9870 C   0  0  0  0  0  0  0  0  0  0  0  0
    9.4884  -16.4739   24.7217 C   0  0  0  0  0  0  0  0  0  0  0  0
    9.6974  -17.7324   24.9285 O   0  0  0  0  0  0  0  0  0  0  0  0
   10.6394  -13.3716   29.6131 C   0  0  0  0  0  0  0  0  0  0  0  0
   10.0020  -14.3910   28.6913 C   0  0  0  0  0  0  0  0  0  0  0  0
   11.0473  -15.2000   27.9593 C   0  0  2  0  0  0  0  0  0  0  0  0
   11.8715  -14.2066   27.1243 C   0  0  0  0  0  0  0  0  0  0  0  0
   10.4584  -16.1736   27.0277 C   0  0  2  0  0  0  0  0  0  0  0  0
    9.8387  -15.6545   25.8245 N   0  0  0  0  0  0  0  0  0  0  0  0
    9.4856  -17.1229   27.7017 C   0  0  0  0  0  0  0  0  0  0  0  0
    9.8685  -17.9197   28.5921 O   0  0  0  0  0  0  0  0  0  0  0  0
    8.1530  -17.1524   27.3700 O   0  0  0  0  0  0  0  0  0  0  0  0
  2  3  1  0
  2  1  1  6
  4  5  1  0
  4  3  1  0
  5  6  2  0
  7  2  1  0
  8  7  2  0
  9  5  1  0
 10  7  1  0
 11 10  1  0
 11 12  1  1
 12 13  1  0
 13 14  2  0
 14 15  1  0
 16 15  2  0
 17 16  1  0
 18 13  1  0
 18 17  2  0
 19 20  2  0
 19 11  1  0
 21 22  1  0
 22 23  1  0
 23 25  1  0
 23 24  1  6
 25 26  1  6
 26 19  1  0
 27 29  1  0
 27 25  1  0
 28 27  2  0
M  END
$$$$
