EFI.pdb
     RDKit          3D

 29 29  0  0  1  0  0  0  0  0999 V2000
   11.4220  -16.7693   19.2247 N   0  0  0  0  0  0  0  0  0  0  0  0
   10.7994  -17.4183   20.3591 C   0  0  1  0  0  0  0  0  0  0  0  0
   11.6320  -18.4907   20.9581 C   0  0  0  0  0  0  0  0  0  0  0  0
   12.0884  -19.5687   20.0402 C   0  0  0  0  0  0  0  0  0  0  0  0
   12.9205  -20.5833   20.7136 C   0  0  0  0  0  0  0  0  0  0  0  0
   13.2883  -20.5294   21.8994 O   0  0  0  0  0  0  0  0  0  0  0  0
   10.4759  -16.4229   21.4332 C   0  0  0  0  0  0  0  0  0  0  0  0
   11.2451  -15.4548   21.6827 O   0  0  0  0  0  0  0  0  0  0  0  0
   13.3161  -21.6880   19.9333 O   0  0  0  0  0  0  0  0  0  0  0  0
    9.2877  -16.5615   22.1891 N   0  0  0  0  0  0  0  0  0  0  0  0
    8.8896  -15.5474   23.2045 C   0  0  1  0  0  0  0  0  0  0  0  0
    7.5012  -15.1241   22.9873 C   0  0  0  0  0  0  0  0  0  0  0  0
    6.9752  -14.2017   23.9802 C   0  0  0  0  0  0  0  0  0  0  0  0
    6.2524  -14.6220   25.0630 C   0  0  0  0  0  0  0  0  0  0  0  0
    5.8320  -13.7048   25.9927 C   0  0  0  0  0  0  0  0  0  0  0  0
    6.1106  -12.3505   25.8827 C   0  0  0  0  0  0  0  0  0  0  0  0
    6.8429  -11.9588   24.7773 C   0  0  0  0  0  0  0  0  0  0  0  0
    7.2622  -12.8622   23.8535 C   0  0  0  0  0  0  0  0  0  0  0  0
    9.3344  -15.9915   24.5291 C   0  0  0  0  0  0  0  0  0  0  0  0
    9.7610  -17.2032   24.6709 O   0  0  0  0  0  0  0  0  0  0  0  0
   11.3495  -14.0052   30.0607 C   0  0  0  0  0  0  0  0  0  0  0  0
   11.4690  -14.9783   28.9057 C   0  0  0  0  0  0  0  0  0  0  0  0
   10.7150  -14.4869   27.6922 C   0  0  2  0  0  0  0  0  0  0  0  0
    9.4952  -13.7099   28.2134 C   0  0  0  0  0  0  0  0  0  0  0  0
   10.2105  -15.5867   26.8566 C   0  0  2  0  0  0  0  0  0  0  0  0
    9.3712  -15.2357   25.7281 N   0  0  0  0  0  0  0  0  0  0  0  0
    9.5127  -16.6677   27.6605 C   0  0  0  0  0  0  0  0  0  0  0  0
    8.2635  -16.7833   27.6449 O   0  0  0  0  0  0  0  0  0  0  0  0
   10.2116  -17.5612   28.4351 O   0  0  0  0  0  0  0  0  0  0  0  0
  2  3  1  0
  2  1  1  6
  4  5  1  0
  4  3  1  0
  5  6  2  0
  7  2  1  0
  8  7  2  0
  9  5  1  0
 10  7  1  0
 11 10  1  0
 11 12  1  1
 12 13  1  0
 13 14  2  0
 14 15  1  0
 16 15  2  0
 17 16  1  0
 18 13  1  0
 18 17  2  0
 19 20  2  0
 19 11  1  0
 21 22  1  0
 22 23  1  0
 23 25  1  0
 23 24  1  1
 25 26  1  6
 26 19  1  0
 27 29  1  0
 27 25  1  0
 28 27  2  0
M  END
$$$$
