EFI.pdb
     RDKit          3D

 29 29  0  0  1  0  0  0  0  0999 V2000
   11.2463  -16.8452   19.5668 N   0  0  0  0  0  0  0  0  0  0  0  0
   10.1364  -17.3133   20.3699 C   0  0  1  0  0  0  0  0  0  0  0  0
   10.2860  -18.7175   20.8254 C   0  0  0  0  0  0  0  0  0  0  0  0
   11.6738  -19.1904   21.0772 C   0  0  0  0  0  0  0  0  0  0  0  0
   11.7270  -20.5765   21.5782 C   0  0  0  0  0  0  0  0  0  0  0  0
   10.7418  -21.3206   21.7197 O   0  0  0  0  0  0  0  0  0  0  0  0
    9.9493  -16.4469   21.5797 C   0  0  0  0  0  0  0  0  0  0  0  0
   10.8731  -15.6965   21.9976 O   0  0  0  0  0  0  0  0  0  0  0  0
   13.0021  -21.0727   21.9155 O   0  0  0  0  0  0  0  0  0  0  0  0
    8.7171  -16.4628   22.2753 N   0  0  0  0  0  0  0  0  0  0  0  0
    8.4755  -15.5783   23.4488 C   0  0  1  0  0  0  0  0  0  0  0  0
    7.0872  -15.1022   23.4530 C   0  0  0  0  0  0  0  0  0  0  0  0
    6.7424  -14.2161   24.5526 C   0  0  0  0  0  0  0  0  0  0  0  0
    6.0223  -14.6371   25.6371 C   0  0  0  0  0  0  0  0  0  0  0  0
    5.7782  -13.7641   26.6669 C   0  0  0  0  0  0  0  0  0  0  0  0
    6.2351  -12.4545   26.6583 C   0  0  0  0  0  0  0  0  0  0  0  0
    6.9596  -12.0609   25.5484 C   0  0  0  0  0  0  0  0  0  0  0  0
    7.2047  -12.9206   24.5255 C   0  0  0  0  0  0  0  0  0  0  0  0
    9.0545  -16.1967   24.6455 C   0  0  0  0  0  0  0  0  0  0  0  0
    9.1843  -17.4819   24.6838 O   0  0  0  0  0  0  0  0  0  0  0  0
   10.1988  -13.9761   29.9585 C   0  0  0  0  0  0  0  0  0  0  0  0
    9.6276  -14.8202   28.8376 C   0  0  0  0  0  0  0  0  0  0  0  0
   10.7234  -15.4358   27.9993 C   0  0  2  0  0  0  0  0  0  0  0  0
   11.5163  -14.2720   27.3827 C   0  0  0  0  0  0  0  0  0  0  0  0
   10.1988  -16.2460   26.8898 C   0  0  2  0  0  0  0  0  0  0  0  0
    9.5217  -15.5467   25.8156 N   0  0  0  0  0  0  0  0  0  0  0  0
    9.3145  -17.3866   27.3573 C   0  0  0  0  0  0  0  0  0  0  0  0
    8.0839  -17.3954   27.1128 O   0  0  0  0  0  0  0  0  0  0  0  0
    9.8174  -18.4522   28.0633 O   0  0  0  0  0  0  0  0  0  0  0  0
  2  3  1  0
  2  1  1  1
  4  5  1  0
  4  3  1  0
  5  6  2  0
  7  2  1  0
  8  7  2  0
  9  5  1  0
 10  7  1  0
 11 10  1  0
 11 12  1  1
 12 13  1  0
 13 14  2  0
 14 15  1  0
 16 15  2  0
 17 16  1  0
 18 13  1  0
 18 17  2  0
 19 20  2  0
 19 11  1  0
 21 22  1  0
 22 23  1  0
 23 25  1  0
 23 24  1  6
 25 26  1  6
 26 19  1  0
 27 29  1  0
 27 25  1  0
 28 27  2  0
M  END
$$$$
