EFI.pdb
     RDKit          3D

 29 29  0  0  1  0  0  0  0  0999 V2000
    8.9390  -19.2645   21.4928 N   0  0  0  0  0  0  0  0  0  0  0  0
   10.2051  -18.5640   21.4480 C   0  0  1  0  0  0  0  0  0  0  0  0
   10.7304  -18.3779   20.0728 C   0  0  0  0  0  0  0  0  0  0  0  0
   10.1524  -19.2515   19.0166 C   0  0  0  0  0  0  0  0  0  0  0  0
   10.5959  -18.8831   17.6591 C   0  0  0  0  0  0  0  0  0  0  0  0
    9.8389  -18.6534   16.7008 O   0  0  0  0  0  0  0  0  0  0  0  0
   10.0922  -17.2142   22.0918 C   0  0  0  0  0  0  0  0  0  0  0  0
   11.0510  -16.3949   22.0689 O   0  0  0  0  0  0  0  0  0  0  0  0
   11.9876  -18.7905   17.4578 O   0  0  0  0  0  0  0  0  0  0  0  0
    8.8918  -16.8404   22.7413 N   0  0  0  0  0  0  0  0  0  0  0  0
    8.7290  -15.4956   23.3602 C   0  0  1  0  0  0  0  0  0  0  0  0
    7.3126  -15.1119   23.3842 C   0  0  0  0  0  0  0  0  0  0  0  0
    6.9700  -14.0783   24.3473 C   0  0  0  0  0  0  0  0  0  0  0  0
    6.3900  -14.3617   25.5536 C   0  0  0  0  0  0  0  0  0  0  0  0
    6.1426  -13.3446   26.4405 C   0  0  0  0  0  0  0  0  0  0  0  0
    6.4586  -12.0223   26.1655 C   0  0  0  0  0  0  0  0  0  0  0  0
    7.0438  -11.7699   24.9385 C   0  0  0  0  0  0  0  0  0  0  0  0
    7.2913  -12.7727   24.0561 C   0  0  0  0  0  0  0  0  0  0  0  0
    9.5407  -15.4249   24.5792 C   0  0  0  0  0  0  0  0  0  0  0  0
   10.3738  -14.4468   24.7190 O   0  0  0  0  0  0  0  0  0  0  0  0
   10.3357  -12.7365   28.3132 C   0  0  0  0  0  0  0  0  0  0  0  0
   10.6077  -13.8015   27.2706 C   0  0  0  0  0  0  0  0  0  0  0  0
   10.2420  -15.1760   27.7801 C   0  0  2  0  0  0  0  0  0  0  0  0
   11.1686  -15.4678   28.9716 C   0  0  0  0  0  0  0  0  0  0  0  0
   10.4696  -16.2289   26.7790 C   0  0  2  0  0  0  0  0  0  0  0  0
    9.5288  -16.3184   25.6799 N   0  0  0  0  0  0  0  0  0  0  0  0
   10.6260  -17.6065   27.3951 C   0  0  0  0  0  0  0  0  0  0  0  0
   11.5394  -17.8480   28.2206 O   0  0  0  0  0  0  0  0  0  0  0  0
    9.7813  -18.6426   27.0793 O   0  0  0  0  0  0  0  0  0  0  0  0
  2  3  1  0
  2  1  1  6
  4  5  1  0
  4  3  1  0
  5  6  2  0
  7  2  1  0
  8  7  2  0
  9  5  1  0
 10  7  1  0
 11 10  1  0
 11 12  1  1
 12 13  1  0
 13 14  2  0
 14 15  1  0
 16 15  2  0
 17 16  1  0
 18 13  1  0
 18 17  2  0
 19 20  2  0
 19 11  1  0
 21 22  1  0
 22 23  1  0
 23 25  1  0
 23 24  1  1
 25 26  1  6
 26 19  1  0
 27 29  1  0
 27 25  1  0
 28 27  2  0
M  END
$$$$
