EFI.pdb
     RDKit          3D

 29 29  0  0  1  0  0  0  0  0999 V2000
   11.1783  -16.7716   19.3559 N   0  0  0  0  0  0  0  0  0  0  0  0
   10.4104  -17.4041   20.4076 C   0  0  1  0  0  0  0  0  0  0  0  0
   11.0343  -18.6439   20.9324 C   0  0  0  0  0  0  0  0  0  0  0  0
   12.4833  -18.8294   20.6511 C   0  0  0  0  0  0  0  0  0  0  0  0
   13.0026  -20.1216   21.1365 C   0  0  0  0  0  0  0  0  0  0  0  0
   12.3316  -20.9781   21.7371 O   0  0  0  0  0  0  0  0  0  0  0  0
   10.2017  -16.4634   21.5568 C   0  0  0  0  0  0  0  0  0  0  0  0
   11.0506  -15.5737   21.8379 O   0  0  0  0  0  0  0  0  0  0  0  0
   14.3651  -20.3826   20.8891 O   0  0  0  0  0  0  0  0  0  0  0  0
    9.0339  -16.5657   22.3493 N   0  0  0  0  0  0  0  0  0  0  0  0
    8.7811  -15.6358   23.4848 C   0  0  1  0  0  0  0  0  0  0  0  0
    7.3722  -15.2253   23.5055 C   0  0  0  0  0  0  0  0  0  0  0  0
    7.0406  -14.2082   24.4899 C   0  0  0  0  0  0  0  0  0  0  0  0
    7.3174  -12.8822   24.2976 C   0  0  0  0  0  0  0  0  0  0  0  0
    6.9283  -11.9664   25.2421 C   0  0  0  0  0  0  0  0  0  0  0  0
    6.2570  -12.3293   26.4004 C   0  0  0  0  0  0  0  0  0  0  0  0
    5.9925  -13.6765   26.5641 C   0  0  0  0  0  0  0  0  0  0  0  0
    6.3751  -14.5881   25.6324 C   0  0  0  0  0  0  0  0  0  0  0  0
    9.4204  -16.1659   24.6931 C   0  0  0  0  0  0  0  0  0  0  0  0
   10.0881  -17.2695   24.6136 O   0  0  0  0  0  0  0  0  0  0  0  0
   10.2956  -13.0494   29.3004 C   0  0  0  0  0  0  0  0  0  0  0  0
   10.5973  -13.9032   28.0857 C   0  0  0  0  0  0  0  0  0  0  0  0
   10.2486  -15.3525   28.3318 C   0  0  2  0  0  0  0  0  0  0  0  0
   11.3757  -15.9383   29.1978 C   0  0  0  0  0  0  0  0  0  0  0  0
   10.1946  -16.1395   27.0908 C   0  0  2  0  0  0  0  0  0  0  0  0
    9.4138  -15.6021   25.9940 N   0  0  0  0  0  0  0  0  0  0  0  0
    9.7767  -17.5796   27.3217 C   0  0  0  0  0  0  0  0  0  0  0  0
   10.5993  -18.4370   27.7245 O   0  0  0  0  0  0  0  0  0  0  0  0
    8.4895  -18.0057   27.1020 O   0  0  0  0  0  0  0  0  0  0  0  0
  2  3  1  0
  2  1  1  6
  4  5  1  0
  4  3  1  0
  5  6  2  0
  7  2  1  0
  8  7  2  0
  9  5  1  0
 10  7  1  0
 11 10  1  0
 11 12  1  1
 12 13  1  0
 13 14  2  0
 14 15  1  0
 16 15  2  0
 17 16  1  0
 18 13  1  0
 18 17  2  0
 19 20  2  0
 19 11  1  0
 21 22  1  0
 22 23  1  0
 23 25  1  0
 23 24  1  1
 25 26  1  6
 26 19  1  0
 27 29  1  0
 27 25  1  0
 28 27  2  0
M  END
$$$$
