EFI.pdb
     RDKit          3D

 29 29  0  0  1  0  0  0  0  0999 V2000
   11.3415  -16.1991   19.4016 N   0  0  0  0  0  0  0  0  0  0  0  0
   10.5939  -16.9628   20.3784 C   0  0  1  0  0  0  0  0  0  0  0  0
   11.2644  -18.2229   20.7838 C   0  0  0  0  0  0  0  0  0  0  0  0
   12.7367  -18.2875   20.5809 C   0  0  0  0  0  0  0  0  0  0  0  0
   13.3169  -19.5812   20.9870 C   0  0  0  0  0  0  0  0  0  0  0  0
   13.2145  -20.0833   22.1192 O   0  0  0  0  0  0  0  0  0  0  0  0
   10.3413  -16.1497   21.6129 C   0  0  0  0  0  0  0  0  0  0  0  0
   11.1729  -15.2896   22.0127 O   0  0  0  0  0  0  0  0  0  0  0  0
   14.0372  -20.2828   19.9998 O   0  0  0  0  0  0  0  0  0  0  0  0
    9.1505  -16.3417   22.3530 N   0  0  0  0  0  0  0  0  0  0  0  0
    8.8097  -15.4759   23.5157 C   0  0  1  0  0  0  0  0  0  0  0  0
    7.3902  -15.1052   23.4784 C   0  0  0  0  0  0  0  0  0  0  0  0
    6.9283  -14.3185   24.6103 C   0  0  0  0  0  0  0  0  0  0  0  0
    6.1185  -14.8370   25.5835 C   0  0  0  0  0  0  0  0  0  0  0  0
    5.7636  -14.0565   26.6545 C   0  0  0  0  0  0  0  0  0  0  0  0
    6.1948  -12.7460   26.7974 C   0  0  0  0  0  0  0  0  0  0  0  0
    7.0118  -12.2525   25.7971 C   0  0  0  0  0  0  0  0  0  0  0  0
    7.3669  -13.0204   24.7342 C   0  0  0  0  0  0  0  0  0  0  0  0
    9.3987  -16.0472   24.7308 C   0  0  0  0  0  0  0  0  0  0  0  0
    9.8017  -17.2750   24.7119 O   0  0  0  0  0  0  0  0  0  0  0  0
   10.8358  -12.9913   29.2655 C   0  0  0  0  0  0  0  0  0  0  0  0
   10.9872  -13.9054   28.0669 C   0  0  0  0  0  0  0  0  0  0  0  0
   10.3997  -15.2705   28.3386 C   0  0  2  0  0  0  0  0  0  0  0  0
   11.4089  -16.0187   29.2247 C   0  0  0  0  0  0  0  0  0  0  0  0
   10.2201  -16.0627   27.1128 C   0  0  2  0  0  0  0  0  0  0  0  0
    9.6048  -15.4042   25.9775 N   0  0  0  0  0  0  0  0  0  0  0  0
    9.5013  -17.3762   27.3578 C   0  0  0  0  0  0  0  0  0  0  0  0
   10.1392  -18.4304   27.5943 O   0  0  0  0  0  0  0  0  0  0  0  0
    8.1311  -17.4692   27.3320 O   0  0  0  0  0  0  0  0  0  0  0  0
  2  3  1  0
  2  1  1  6
  4  5  1  0
  4  3  1  0
  5  6  2  0
  7  2  1  0
  8  7  2  0
  9  5  1  0
 10  7  1  0
 11 10  1  0
 11 12  1  1
 12 13  1  0
 13 14  2  0
 14 15  1  0
 16 15  2  0
 17 16  1  0
 18 13  1  0
 18 17  2  0
 19 20  2  0
 19 11  1  0
 21 22  1  0
 22 23  1  0
 23 25  1  0
 23 24  1  1
 25 26  1  6
 26 19  1  0
 27 29  1  0
 27 25  1  0
 28 27  2  0
M  END
$$$$
