EFI.pdb
     RDKit          3D

 29 29  0  0  1  0  0  0  0  0999 V2000
   10.9548  -16.6915   18.9894 N   0  0  0  0  0  0  0  0  0  0  0  0
   10.8106  -17.3586   20.2661 C   0  0  1  0  0  0  0  0  0  0  0  0
   12.0173  -18.1183   20.6768 C   0  0  0  0  0  0  0  0  0  0  0  0
   12.1870  -19.4700   20.0793 C   0  0  0  0  0  0  0  0  0  0  0  0
   13.1071  -20.3278   20.8492 C   0  0  0  0  0  0  0  0  0  0  0  0
   14.2585  -20.0093   21.1915 O   0  0  0  0  0  0  0  0  0  0  0  0
   10.4869  -16.3741   21.3500 C   0  0  0  0  0  0  0  0  0  0  0  0
   11.1198  -15.2885   21.4598 O   0  0  0  0  0  0  0  0  0  0  0  0
   12.6219  -21.5998   21.2130 O   0  0  0  0  0  0  0  0  0  0  0  0
    9.4535  -16.6568   22.2746 N   0  0  0  0  0  0  0  0  0  0  0  0
    9.0814  -15.6897   23.3442 C   0  0  1  0  0  0  0  0  0  0  0  0
    7.6475  -15.3833   23.2802 C   0  0  0  0  0  0  0  0  0  0  0  0
    7.1844  -14.3961   24.2417 C   0  0  0  0  0  0  0  0  0  0  0  0
    7.3679  -13.0525   24.0609 C   0  0  0  0  0  0  0  0  0  0  0  0
    6.8574  -12.1707   24.9797 C   0  0  0  0  0  0  0  0  0  0  0  0
    6.1532  -12.5860   26.1002 C   0  0  0  0  0  0  0  0  0  0  0  0
    5.9851  -13.9498   26.2532 C   0  0  0  0  0  0  0  0  0  0  0  0
    6.4881  -14.8279   25.3469 C   0  0  0  0  0  0  0  0  0  0  0  0
    9.6983  -16.1072   24.6071 C   0  0  0  0  0  0  0  0  0  0  0  0
   10.2684  -17.2652   24.6710 O   0  0  0  0  0  0  0  0  0  0  0  0
   10.6866  -12.6990   29.0430 C   0  0  0  0  0  0  0  0  0  0  0  0
   10.9482  -13.6685   27.9086 C   0  0  0  0  0  0  0  0  0  0  0  0
   10.3845  -15.0367   28.2133 C   0  0  2  0  0  0  0  0  0  0  0  0
   11.3264  -15.6849   29.2409 C   0  0  0  0  0  0  0  0  0  0  0  0
   10.3549  -15.9118   27.0319 C   0  0  2  0  0  0  0  0  0  0  0  0
    9.7664  -15.3764   25.8201 N   0  0  0  0  0  0  0  0  0  0  0  0
    9.7317  -17.2659   27.3147 C   0  0  0  0  0  0  0  0  0  0  0  0
    8.4890  -17.4313   27.2637 O   0  0  0  0  0  0  0  0  0  0  0  0
   10.4938  -18.3624   27.6365 O   0  0  0  0  0  0  0  0  0  0  0  0
  2  3  1  0
  2  1  1  6
  4  5  1  0
  4  3  1  0
  5  6  2  0
  7  2  1  0
  8  7  2  0
  9  5  1  0
 10  7  1  0
 11 10  1  0
 11 12  1  1
 12 13  1  0
 13 14  2  0
 14 15  1  0
 16 15  2  0
 17 16  1  0
 18 13  1  0
 18 17  2  0
 19 20  2  0
 19 11  1  0
 21 22  1  0
 22 23  1  0
 23 25  1  0
 23 24  1  1
 25 26  1  6
 26 19  1  0
 27 29  1  0
 27 25  1  0
 28 27  2  0
M  END
$$$$
