EFI.pdb
     RDKit          3D

 29 29  0  0  1  0  0  0  0  0999 V2000
   10.1249  -18.7763   20.5575 N   0  0  0  0  0  0  0  0  0  0  0  0
   11.2678  -18.0140   21.0142 C   0  0  1  0  0  0  0  0  0  0  0  0
   12.0212  -17.3609   19.9153 C   0  0  0  0  0  0  0  0  0  0  0  0
   12.0388  -18.0706   18.6080 C   0  0  0  0  0  0  0  0  0  0  0  0
   12.8034  -17.3502   17.5728 C   0  0  0  0  0  0  0  0  0  0  0  0
   12.3823  -17.0810   16.4350 O   0  0  0  0  0  0  0  0  0  0  0  0
   10.8484  -16.9534   21.9880 C   0  0  0  0  0  0  0  0  0  0  0  0
   11.6196  -16.0035   22.2950 O   0  0  0  0  0  0  0  0  0  0  0  0
   14.1072  -16.9466   17.9234 O   0  0  0  0  0  0  0  0  0  0  0  0
    9.5648  -17.0080   22.5814 N   0  0  0  0  0  0  0  0  0  0  0  0
    9.1243  -15.9908   23.5759 C   0  0  1  0  0  0  0  0  0  0  0  0
    7.7036  -15.6739   23.3880 C   0  0  0  0  0  0  0  0  0  0  0  0
    7.1856  -14.6271   24.2536 C   0  0  0  0  0  0  0  0  0  0  0  0
    7.4237  -13.2996   24.0241 C   0  0  0  0  0  0  0  0  0  0  0  0
    6.8592  -12.3591   24.8482 C   0  0  0  0  0  0  0  0  0  0  0  0
    6.0461  -12.6982   25.9195 C   0  0  0  0  0  0  0  0  0  0  0  0
    5.8253  -14.0477   26.1238 C   0  0  0  0  0  0  0  0  0  0  0  0
    6.3812  -14.9837   25.3112 C   0  0  0  0  0  0  0  0  0  0  0  0
    9.6369  -16.3577   24.8996 C   0  0  0  0  0  0  0  0  0  0  0  0
   10.0802  -17.5570   25.0874 O   0  0  0  0  0  0  0  0  0  0  0  0
   10.3038  -12.5813   28.8210 C   0  0  0  0  0  0  0  0  0  0  0  0
   10.9109  -13.7324   28.0454 C   0  0  0  0  0  0  0  0  0  0  0  0
   10.2822  -15.0500   28.4346 C   0  0  2  0  0  0  0  0  0  0  0  0
   11.1708  -15.6578   29.5320 C   0  0  0  0  0  0  0  0  0  0  0  0
   10.2434  -16.0088   27.3202 C   0  0  2  0  0  0  0  0  0  0  0  0
    9.7258  -15.5358   26.0515 N   0  0  0  0  0  0  0  0  0  0  0  0
    9.5373  -17.3030   27.6783 C   0  0  0  0  0  0  0  0  0  0  0  0
   10.1548  -18.2493   28.2236 O   0  0  0  0  0  0  0  0  0  0  0  0
    8.2013  -17.4951   27.4235 O   0  0  0  0  0  0  0  0  0  0  0  0
  2  3  1  0
  2  1  1  6
  4  5  1  0
  4  3  1  0
  5  6  2  0
  7  2  1  0
  8  7  2  0
  9  5  1  0
 10  7  1  0
 11 10  1  0
 11 12  1  1
 12 13  1  0
 13 14  2  0
 14 15  1  0
 16 15  2  0
 17 16  1  0
 18 13  1  0
 18 17  2  0
 19 20  2  0
 19 11  1  0
 21 22  1  0
 22 23  1  0
 23 25  1  0
 23 24  1  1
 25 26  1  6
 26 19  1  0
 27 29  1  0
 27 25  1  0
 28 27  2  0
M  END
$$$$
