TTT.pdb
     RDKit          3D

 22 21  0  0  1  0  0  0  0  0999 V2000
   20.9494   -8.2578  -20.5029 C   0  0  0  0  0  0  0  0  0  0  0  0
   20.0128   -9.4473  -20.5200 C   0  0  1  0  0  0  0  0  0  0  0  0
   19.9616   -9.9359  -21.8149 O   0  0  0  0  0  0  0  0  0  0  0  0
   20.5257  -10.4445  -19.5226 C   0  0  2  0  0  0  0  0  0  0  0  0
   19.8338  -11.6872  -19.6598 N   0  0  0  0  0  0  0  0  0  0  0  0
   20.5824   -9.9306  -18.1402 C   0  0  0  0  0  0  0  0  0  0  0  0
   19.5245   -9.6604  -17.5518 O   0  0  0  0  0  0  0  0  0  0  0  0
   22.7650   -9.3859  -13.8202 C   0  0  0  0  0  0  0  0  0  0  0  0
   22.8064   -9.9986  -15.2010 C   0  0  1  0  0  0  0  0  0  0  0  0
   22.5657  -11.3354  -15.1366 O   0  0  0  0  0  0  0  0  0  0  0  0
   21.8600   -9.2180  -16.0710 C   0  0  2  0  0  0  0  0  0  0  0  0
   21.8014   -9.7226  -17.4287 N   0  0  0  0  0  0  0  0  0  0  0  0
   22.0513   -7.7652  -16.0075 C   0  0  0  0  0  0  0  0  0  0  0  0
   22.9451   -7.1372  -16.6406 O   0  0  0  0  0  0  0  0  0  0  0  0
   20.0437   -3.3886  -14.9168 C   0  0  0  0  0  0  0  0  0  0  0  0
   19.9353   -4.8973  -14.9314 C   0  0  1  0  0  0  0  0  0  0  0  0
   19.0783   -5.2982  -15.9500 O   0  0  0  0  0  0  0  0  0  0  0  0
   21.2891   -5.5557  -15.0661 C   0  0  2  0  0  0  0  0  0  0  0  0
   21.1946   -6.9833  -15.1921 N   0  0  0  0  0  0  0  0  0  0  0  0
   22.2353   -5.1246  -14.0297 C   0  0  0  0  0  0  0  0  0  0  0  0
   23.1556   -4.1338  -14.2887 O   0  0  0  0  0  0  0  0  0  0  0  0
   22.2113   -5.6561  -12.9019 O   0  0  0  0  0  0  0  0  0  0  0  0
  2  3  1  0
  2  1  1  6
  4  6  1  0
  4  2  1  0
  4  5  1  1
  6  7  2  0
  6 12  1  0
  9  8  1  1
  9 10  1  0
  9 11  1  0
 11 13  1  0
 11 12  1  6
 13 14  2  0
 13 19  1  0
 16 15  1  6
 16 17  1  0
 18 16  1  0
 18 20  1  0
 18 19  1  1
 20 21  1  0
 22 20  2  0
M  END
$$$$
