TTT.pdb
     RDKit          3D

 22 21  0  0  1  0  0  0  0  0999 V2000
   13.2512  -11.5937  -16.1601 C   0  0  0  0  0  0  0  0  0  0  0  0
   14.4300  -12.5211  -15.9530 C   0  0  1  0  0  0  0  0  0  0  0  0
   14.1051  -13.7560  -16.4893 O   0  0  0  0  0  0  0  0  0  0  0  0
   15.6278  -11.8847  -16.5951 C   0  0  2  0  0  0  0  0  0  0  0  0
   16.6097  -12.8745  -16.9086 N   0  0  0  0  0  0  0  0  0  0  0  0
   16.1537  -10.7209  -15.8552 C   0  0  0  0  0  0  0  0  0  0  0  0
   15.5412  -10.3119  -14.8573 O   0  0  0  0  0  0  0  0  0  0  0  0
   19.6217  -10.4732  -14.5174 C   0  0  0  0  0  0  0  0  0  0  0  0
   19.4175   -9.1563  -15.2301 C   0  0  1  0  0  0  0  0  0  0  0  0
   20.1638   -9.1083  -16.3657 O   0  0  0  0  0  0  0  0  0  0  0  0
   17.9378   -8.9730  -15.4269 C   0  0  2  0  0  0  0  0  0  0  0  0
   17.3440  -10.0270  -16.2256 N   0  0  0  0  0  0  0  0  0  0  0  0
   17.5573   -7.6298  -15.8767 C   0  0  0  0  0  0  0  0  0  0  0  0
   17.3392   -7.3181  -17.0806 O   0  0  0  0  0  0  0  0  0  0  0  0
   15.8603   -3.1673  -14.4721 C   0  0  0  0  0  0  0  0  0  0  0  0
   16.2253   -4.5966  -14.1376 C   0  0  1  0  0  0  0  0  0  0  0  0
   15.0753   -5.3193  -13.8405 O   0  0  0  0  0  0  0  0  0  0  0  0
   17.0086   -5.2511  -15.2523 C   0  0  2  0  0  0  0  0  0  0  0  0
   17.4156   -6.5889  -14.9245 N   0  0  0  0  0  0  0  0  0  0  0  0
   18.1093   -4.4115  -15.7410 C   0  0  0  0  0  0  0  0  0  0  0  0
   19.3695   -4.5211  -15.1973 O   0  0  0  0  0  0  0  0  0  0  0  0
   17.9087   -3.5894  -16.6568 O   0  0  0  0  0  0  0  0  0  0  0  0
  2  3  1  0
  2  1  1  6
  4  6  1  0
  4  2  1  0
  4  5  1  1
  6  7  2  0
  6 12  1  0
  9  8  1  6
  9 10  1  0
  9 11  1  0
 11 13  1  0
 11 12  1  6
 13 14  2  0
 13 19  1  0
 16 15  1  6
 16 17  1  0
 18 16  1  0
 18 20  1  0
 18 19  1  1
 20 21  1  0
 22 20  2  0
M  END
$$$$
