TTT.pdb
     RDKit          3D

 22 21  0  0  1  0  0  0  0  0999 V2000
   18.1294   -8.7914  -18.6645 C   0  0  0  0  0  0  0  0  0  0  0  0
   17.2984   -9.9229  -18.0972 C   0  0  1  0  0  0  0  0  0  0  0  0
   16.5729  -10.4854  -19.1341 O   0  0  0  0  0  0  0  0  0  0  0  0
   18.2363  -10.8858  -17.4300 C   0  0  2  0  0  0  0  0  0  0  0  0
   17.5524  -12.0942  -17.0923 N   0  0  0  0  0  0  0  0  0  0  0  0
   19.0082  -10.2946  -16.3196 C   0  0  0  0  0  0  0  0  0  0  0  0
   18.4090   -9.9121  -15.3032 O   0  0  0  0  0  0  0  0  0  0  0  0
   23.1708   -9.3769  -13.9079 C   0  0  0  0  0  0  0  0  0  0  0  0
   22.4368  -10.2107  -14.9325 C   0  0  1  0  0  0  0  0  0  0  0  0
   22.2564  -11.4782  -14.4745 O   0  0  0  0  0  0  0  0  0  0  0  0
   21.1766   -9.4748  -15.2959 C   0  0  2  0  0  0  0  0  0  0  0  0
   20.4257  -10.1342  -16.3460 N   0  0  0  0  0  0  0  0  0  0  0  0
   21.3721   -8.0425  -15.5443 C   0  0  0  0  0  0  0  0  0  0  0  0
   21.8389   -7.5636  -16.6152 O   0  0  0  0  0  0  0  0  0  0  0  0
   20.1846   -3.4142  -14.5612 C   0  0  0  0  0  0  0  0  0  0  0  0
   19.9511   -4.9047  -14.4525 C   0  0  1  0  0  0  0  0  0  0  0  0
   18.9713   -5.2954  -15.3582 O   0  0  0  0  0  0  0  0  0  0  0  0
   21.2270   -5.6888  -14.6566 C   0  0  2  0  0  0  0  0  0  0  0  0
   21.0249   -7.1059  -14.5382 N   0  0  0  0  0  0  0  0  0  0  0  0
   22.3374   -5.1891  -13.8363 C   0  0  0  0  0  0  0  0  0  0  0  0
   22.5091   -5.6322  -12.5440 O   0  0  0  0  0  0  0  0  0  0  0  0
   23.1363   -4.3558  -14.3075 O   0  0  0  0  0  0  0  0  0  0  0  0
  2  3  1  0
  2  1  1  6
  4  6  1  0
  4  2  1  0
  4  5  1  1
  6  7  2  0
  6 12  1  0
  9  8  1  1
  9 10  1  0
  9 11  1  0
 11 13  1  0
 11 12  1  6
 13 14  2  0
 13 19  1  0
 16 15  1  6
 16 17  1  0
 18 16  1  0
 18 20  1  0
 18 19  1  1
 20 21  1  0
 22 20  2  0
M  END
$$$$
