TTT.pdb
     RDKit          3D

 22 21  0  0  1  0  0  0  0  0999 V2000
   22.0519  -12.1200  -15.8858 C   0  0  0  0  0  0  0  0  0  0  0  0
   21.0637  -12.8503  -16.7705 C   0  0  1  0  0  0  0  0  0  0  0  0
   21.1349  -14.2007  -16.4713 O   0  0  0  0  0  0  0  0  0  0  0  0
   19.7085  -12.2529  -16.5282 C   0  0  2  0  0  0  0  0  0  0  0  0
   18.7040  -13.0020  -17.2151 N   0  0  0  0  0  0  0  0  0  0  0  0
   19.6473  -10.7972  -16.7635 C   0  0  0  0  0  0  0  0  0  0  0  0
   19.8120  -10.3633  -17.9138 O   0  0  0  0  0  0  0  0  0  0  0  0
   18.2087   -6.2928  -15.8503 C   0  0  0  0  0  0  0  0  0  0  0  0
   18.0622   -7.7852  -15.6626 C   0  0  1  0  0  0  0  0  0  0  0  0
   17.0290   -8.2600  -16.4084 O   0  0  0  0  0  0  0  0  0  0  0  0
   19.3997   -8.4106  -15.9482 C   0  0  2  0  0  0  0  0  0  0  0  0
   19.4062   -9.8437  -15.7299 N   0  0  0  0  0  0  0  0  0  0  0  0
   20.5275   -7.7281  -15.3051 C   0  0  0  0  0  0  0  0  0  0  0  0
   20.9116   -7.9484  -14.1228 O   0  0  0  0  0  0  0  0  0  0  0  0
   24.3562   -4.5845  -15.9162 C   0  0  0  0  0  0  0  0  0  0  0  0
   23.1674   -5.2977  -16.5212 C   0  0  1  0  0  0  0  0  0  0  0  0
   23.6027   -6.2257  -17.4605 O   0  0  0  0  0  0  0  0  0  0  0  0
   22.3085   -5.9528  -15.4640 C   0  0  2  0  0  0  0  0  0  0  0  0
   21.2568   -6.7512  -16.0290 N   0  0  0  0  0  0  0  0  0  0  0  0
   21.8366   -5.0037  -14.4482 C   0  0  0  0  0  0  0  0  0  0  0  0
   22.4603   -4.9198  -13.2235 O   0  0  0  0  0  0  0  0  0  0  0  0
   20.8627   -4.2634  -14.6895 O   0  0  0  0  0  0  0  0  0  0  0  0
  2  3  1  0
  2  1  1  1
  4  6  1  0
  4  2  1  0
  4  5  1  6
  6  7  2  0
  6 12  1  0
  9  8  1  6
  9 10  1  0
  9 11  1  0
 11 13  1  0
 11 12  1  1
 13 14  2  0
 13 19  1  0
 16 15  1  1
 16 17  1  0
 18 16  1  0
 18 20  1  0
 18 19  1  6
 20 21  1  0
 22 20  2  0
M  END
$$$$
