TTT.pdb
     RDKit          3D

 22 21  0  0  1  0  0  0  0  0999 V2000
   19.7638   -8.7919  -19.6304 C   0  0  0  0  0  0  0  0  0  0  0  0
   18.7890   -9.8745  -19.2180 C   0  0  1  0  0  0  0  0  0  0  0  0
   18.2638  -10.4410  -20.3675 O   0  0  0  0  0  0  0  0  0  0  0  0
   19.5322  -10.8508  -18.3539 C   0  0  2  0  0  0  0  0  0  0  0  0
   18.7654  -12.0435  -18.1768 N   0  0  0  0  0  0  0  0  0  0  0  0
   20.0452  -10.2670  -17.0992 C   0  0  0  0  0  0  0  0  0  0  0  0
   19.2402   -9.8427  -16.2564 O   0  0  0  0  0  0  0  0  0  0  0  0
   22.6225  -11.7520  -14.7177 C   0  0  0  0  0  0  0  0  0  0  0  0
   23.1008  -10.3453  -14.9936 C   0  0  1  0  0  0  0  0  0  0  0  0
   24.2204  -10.3654  -15.7650 O   0  0  0  0  0  0  0  0  0  0  0  0
   21.9414   -9.5773  -15.5661 C   0  0  2  0  0  0  0  0  0  0  0  0
   21.4346  -10.1597  -16.7930 N   0  0  0  0  0  0  0  0  0  0  0  0
   22.1757   -8.1332  -15.6715 C   0  0  0  0  0  0  0  0  0  0  0  0
   22.7733   -7.5781  -16.6352 O   0  0  0  0  0  0  0  0  0  0  0  0
   19.4270   -5.4715  -14.5253 C   0  0  0  0  0  0  0  0  0  0  0  0
   20.7171   -5.1142  -15.2297 C   0  0  1  0  0  0  0  0  0  0  0  0
   20.9109   -3.7382  -15.1883 O   0  0  0  0  0  0  0  0  0  0  0  0
   21.8993   -5.8500  -14.6420 C   0  0  2  0  0  0  0  0  0  0  0  0
   21.7143   -7.2743  -14.6421 N   0  0  0  0  0  0  0  0  0  0  0  0
   22.3077   -5.3167  -13.3366 C   0  0  0  0  0  0  0  0  0  0  0  0
   22.2218   -6.0942  -12.2035 O   0  0  0  0  0  0  0  0  0  0  0  0
   22.7376   -4.1498  -13.2453 O   0  0  0  0  0  0  0  0  0  0  0  0
  2  3  1  0
  2  1  1  6
  4  6  1  0
  4  2  1  0
  4  5  1  1
  6  7  2  0
  6 12  1  0
  9  8  1  6
  9 10  1  0
  9 11  1  0
 11 13  1  0
 11 12  1  6
 13 14  2  0
 13 19  1  0
 16 15  1  1
 16 17  1  0
 18 16  1  0
 18 20  1  0
 18 19  1  1
 20 21  1  0
 22 20  2  0
M  END
$$$$
