TTT.pdb
     RDKit          3D

 22 21  0  0  1  0  0  0  0  0999 V2000
   19.4335  -13.0983  -19.0025 C   0  0  0  0  0  0  0  0  0  0  0  0
   19.3971  -14.4061  -18.2404 C   0  0  1  0  0  0  0  0  0  0  0  0
   19.1266  -15.4220  -19.1421 O   0  0  0  0  0  0  0  0  0  0  0  0
   20.7152  -14.5612  -17.5400 C   0  0  2  0  0  0  0  0  0  0  0  0
   20.8424  -15.8798  -17.0041 N   0  0  0  0  0  0  0  0  0  0  0  0
   21.0090  -13.4832  -16.5757 C   0  0  0  0  0  0  0  0  0  0  0  0
   20.3461  -13.4102  -15.5299 O   0  0  0  0  0  0  0  0  0  0  0  0
   23.9320  -10.1990  -14.5152 C   0  0  0  0  0  0  0  0  0  0  0  0
   23.7697  -11.3451  -15.4868 C   0  0  1  0  0  0  0  0  0  0  0  0
   24.3172  -12.4815  -14.9789 O   0  0  0  0  0  0  0  0  0  0  0  0
   22.3102  -11.4377  -15.8376 C   0  0  2  0  0  0  0  0  0  0  0  0
   22.0266  -12.5038  -16.7781 N   0  0  0  0  0  0  0  0  0  0  0  0
   21.7066  -10.1579  -16.2234 C   0  0  0  0  0  0  0  0  0  0  0  0
   21.9209   -9.5726  -17.3213 O   0  0  0  0  0  0  0  0  0  0  0  0
   18.2702   -6.7161  -15.1100 C   0  0  0  0  0  0  0  0  0  0  0  0
   18.9262   -8.0435  -14.8003 C   0  0  1  0  0  0  0  0  0  0  0  0
   18.0254   -9.0781  -15.0256 O   0  0  0  0  0  0  0  0  0  0  0  0
   20.1953   -8.2414  -15.5970 C   0  0  2  0  0  0  0  0  0  0  0  0
   20.8192   -9.5071  -15.3294 N   0  0  0  0  0  0  0  0  0  0  0  0
   21.1171   -7.1039  -15.4877 C   0  0  0  0  0  0  0  0  0  0  0  0
   22.0141   -7.0260  -14.4460 O   0  0  0  0  0  0  0  0  0  0  0  0
   21.0933   -6.1963  -16.3424 O   0  0  0  0  0  0  0  0  0  0  0  0
  2  3  1  0
  2  1  1  6
  4  6  1  0
  4  2  1  0
  4  5  1  1
  6  7  2  0
  6 12  1  0
  9  8  1  1
  9 10  1  0
  9 11  1  0
 11 13  1  0
 11 12  1  6
 13 14  2  0
 13 19  1  0
 16 15  1  6
 16 17  1  0
 18 16  1  0
 18 20  1  0
 18 19  1  1
 20 21  1  0
 22 20  2  0
M  END
$$$$
