TTT.pdb
     RDKit          3D

 22 21  0  0  1  0  0  0  0  0999 V2000
   27.7587  -12.1472  -20.2975 C   0  0  0  0  0  0  0  0  0  0  0  0
   27.2246  -13.5098  -20.6858 C   0  0  1  0  0  0  0  0  0  0  0  0
   28.2844  -14.4014  -20.6916 O   0  0  0  0  0  0  0  0  0  0  0  0
   26.1434  -13.8697  -19.7094 C   0  0  2  0  0  0  0  0  0  0  0  0
   25.8641  -15.2698  -19.7693 N   0  0  0  0  0  0  0  0  0  0  0  0
   24.9483  -13.0080  -19.7981 C   0  0  0  0  0  0  0  0  0  0  0  0
   24.2396  -13.0600  -20.8146 O   0  0  0  0  0  0  0  0  0  0  0  0
   21.4227  -10.2586  -17.8466 C   0  0  0  0  0  0  0  0  0  0  0  0
   22.6367  -11.1190  -17.5823 C   0  0  1  0  0  0  0  0  0  0  0  0
   22.2687  -12.3049  -17.0282 O   0  0  0  0  0  0  0  0  0  0  0  0
   23.4059  -11.2242  -18.8703 C   0  0  2  0  0  0  0  0  0  0  0  0
   24.5535  -12.1039  -18.7674 N   0  0  0  0  0  0  0  0  0  0  0  0
   23.7290   -9.9301  -19.4802 C   0  0  0  0  0  0  0  0  0  0  0  0
   24.7359   -9.2319  -19.1757 O   0  0  0  0  0  0  0  0  0  0  0  0
   22.7244   -6.8053  -23.2257 C   0  0  0  0  0  0  0  0  0  0  0  0
   22.3010   -8.0122  -22.4181 C   0  0  1  0  0  0  0  0  0  0  0  0
   22.4027   -9.1593  -23.1969 O   0  0  0  0  0  0  0  0  0  0  0  0
   23.1035   -8.1442  -21.1442 C   0  0  2  0  0  0  0  0  0  0  0  0
   22.8770   -9.3978  -20.4807 N   0  0  0  0  0  0  0  0  0  0  0  0
   22.9571   -6.9826  -20.2584 C   0  0  0  0  0  0  0  0  0  0  0  0
   23.8482   -5.9349  -20.3230 O   0  0  0  0  0  0  0  0  0  0  0  0
   22.0196   -6.9372  -19.4376 O   0  0  0  0  0  0  0  0  0  0  0  0
  2  3  1  0
  2  1  1  1
  4  6  1  0
  4  2  1  0
  4  5  1  6
  6  7  2  0
  6 12  1  0
  9  8  1  6
  9 10  1  0
  9 11  1  0
 11 13  1  0
 11 12  1  1
 13 14  2  0
 13 19  1  0
 16 15  1  6
 16 17  1  0
 18 16  1  0
 18 20  1  0
 18 19  1  1
 20 21  1  0
 22 20  2  0
M  END
$$$$
