TTT.pdb
     RDKit          3D

 22 21  0  0  1  0  0  0  0  0999 V2000
   41.2540   -6.3656   -9.3450 C   0  0  0  0  0  0  0  0  0  0  0  0
   39.7910   -6.7543   -9.3127 C   0  0  1  0  0  0  0  0  0  0  0  0
   39.0449   -5.6532   -9.6988 O   0  0  0  0  0  0  0  0  0  0  0  0
   39.6161   -7.9427  -10.2123 C   0  0  2  0  0  0  0  0  0  0  0  0
   38.2279   -8.2027  -10.4299 N   0  0  0  0  0  0  0  0  0  0  0  0
   40.3974   -9.1245   -9.7985 C   0  0  0  0  0  0  0  0  0  0  0  0
   40.0412   -9.7645   -8.7976 O   0  0  0  0  0  0  0  0  0  0  0  0
   43.3509  -12.8739  -10.5842 C   0  0  0  0  0  0  0  0  0  0  0  0
   42.5099  -11.7522  -11.1484 C   0  0  1  0  0  0  0  0  0  0  0  0
   41.3495  -12.2394  -11.6634 O   0  0  0  0  0  0  0  0  0  0  0  0
   42.3479  -10.7199  -10.0668 C   0  0  2  0  0  0  0  0  0  0  0  0
   41.5571   -9.5819  -10.4923 N   0  0  0  0  0  0  0  0  0  0  0  0
   43.6049  -10.3334   -9.4173 C   0  0  0  0  0  0  0  0  0  0  0  0
   44.3665   -9.4156   -9.8314 O   0  0  0  0  0  0  0  0  0  0  0  0
   46.5171  -10.9111   -5.4037 C   0  0  0  0  0  0  0  0  0  0  0  0
   45.2857  -11.3393   -6.1708 C   0  0  1  0  0  0  0  0  0  0  0  0
   44.1430  -10.9952   -5.4576 O   0  0  0  0  0  0  0  0  0  0  0  0
   45.2586  -10.7502   -7.5625 C   0  0  2  0  0  0  0  0  0  0  0  0
   44.0230  -11.0135   -8.2457 N   0  0  0  0  0  0  0  0  0  0  0  0
   46.4458  -11.1028   -8.3510 C   0  0  0  0  0  0  0  0  0  0  0  0
   47.4902  -10.2151   -8.4810 O   0  0  0  0  0  0  0  0  0  0  0  0
   46.5160  -12.2147   -8.9110 O   0  0  0  0  0  0  0  0  0  0  0  0
  2  3  1  0
  2  1  1  6
  4  6  1  0
  4  2  1  0
  4  5  1  1
  6  7  2  0
  6 12  1  0
  9  8  1  1
  9 10  1  0
  9 11  1  0
 11 13  1  0
 11 12  1  6
 13 14  2  0
 13 19  1  0
 16 15  1  1
 16 17  1  0
 18 16  1  0
 18 20  1  0
 18 19  1  6
 20 21  1  0
 22 20  2  0
M  END
$$$$
