TTT.pdb
     RDKit          3D

 22 21  0  0  1  0  0  0  0  0999 V2000
   20.0908  -10.9843  -18.7559 C   0  0  0  0  0  0  0  0  0  0  0  0
   20.2356  -12.3321  -18.0813 C   0  0  1  0  0  0  0  0  0  0  0  0
   19.8790  -13.3105  -18.9944 O   0  0  0  0  0  0  0  0  0  0  0  0
   21.6517  -12.4495  -17.5989 C   0  0  2  0  0  0  0  0  0  0  0  0
   21.9371  -13.7961  -17.2150 N   0  0  0  0  0  0  0  0  0  0  0  0
   22.0241  -11.4389  -16.5898 C   0  0  0  0  0  0  0  0  0  0  0  0
   21.4620  -11.4527  -15.4842 O   0  0  0  0  0  0  0  0  0  0  0  0
   25.4006  -10.6336  -15.1794 C   0  0  0  0  0  0  0  0  0  0  0  0
   24.8710   -9.3054  -15.6684 C   0  0  1  0  0  0  0  0  0  0  0  0
   25.5355   -8.9101  -16.7870 O   0  0  0  0  0  0  0  0  0  0  0  0
   23.3811   -9.4412  -15.8220 C   0  0  2  0  0  0  0  0  0  0  0  0
   23.0079  -10.4302  -16.8140 N   0  0  0  0  0  0  0  0  0  0  0  0
   22.6798   -8.1645  -15.9939 C   0  0  0  0  0  0  0  0  0  0  0  0
   22.3649   -7.6710  -17.1126 O   0  0  0  0  0  0  0  0  0  0  0  0
   19.6221   -4.8015  -14.3260 C   0  0  0  0  0  0  0  0  0  0  0  0
   20.3320   -6.1305  -14.1914 C   0  0  1  0  0  0  0  0  0  0  0  0
   19.5112   -7.1521  -14.6554 O   0  0  0  0  0  0  0  0  0  0  0  0
   21.6625   -6.1309  -14.9083 C   0  0  2  0  0  0  0  0  0  0  0  0
   22.3161   -7.4085  -14.8510 N   0  0  0  0  0  0  0  0  0  0  0  0
   22.5271   -5.0165  -14.5006 C   0  0  0  0  0  0  0  0  0  0  0  0
   22.6018   -3.8720  -15.2625 O   0  0  0  0  0  0  0  0  0  0  0  0
   23.2027   -5.1000  -13.4560 O   0  0  0  0  0  0  0  0  0  0  0  0
  2  3  1  0
  2  1  1  6
  4  6  1  0
  4  2  1  0
  4  5  1  1
  6  7  2  0
  6 12  1  0
  9  8  1  6
  9 10  1  0
  9 11  1  0
 11 13  1  0
 11 12  1  6
 13 14  2  0
 13 19  1  0
 16 15  1  6
 16 17  1  0
 18 16  1  0
 18 20  1  0
 18 19  1  1
 20 21  1  0
 22 20  2  0
M  END
$$$$
