TTT.pdb
     RDKit          3D

 22 21  0  0  1  0  0  0  0  0999 V2000
   20.9618  -11.3675  -20.1616 C   0  0  0  0  0  0  0  0  0  0  0  0
   20.2207  -11.6964  -18.8829 C   0  0  1  0  0  0  0  0  0  0  0  0
   19.9080  -13.0454  -18.9019 O   0  0  0  0  0  0  0  0  0  0  0  0
   21.0999  -11.3006  -17.7330 C   0  0  2  0  0  0  0  0  0  0  0  0
   21.2761  -12.4013  -16.8389 N   0  0  0  0  0  0  0  0  0  0  0  0
   20.6926  -10.0437  -17.0753 C   0  0  0  0  0  0  0  0  0  0  0  0
   20.6830   -8.9925  -17.7336 O   0  0  0  0  0  0  0  0  0  0  0  0
   18.3331   -7.6708  -13.4879 C   0  0  0  0  0  0  0  0  0  0  0  0
   18.6811   -8.9928  -14.1322 C   0  0  1  0  0  0  0  0  0  0  0  0
   17.5767   -9.5556  -14.6914 O   0  0  0  0  0  0  0  0  0  0  0  0
   19.8247   -8.7481  -15.0778 C   0  0  2  0  0  0  0  0  0  0  0  0
   20.3031   -9.9643  -15.7051 N   0  0  0  0  0  0  0  0  0  0  0  0
   20.9042   -7.9331  -14.5108 C   0  0  0  0  0  0  0  0  0  0  0  0
   21.7332   -8.3476  -13.6534 O   0  0  0  0  0  0  0  0  0  0  0  0
   22.0362   -4.2855  -16.5442 C   0  0  0  0  0  0  0  0  0  0  0  0
   22.9045   -5.1522  -15.6593 C   0  0  1  0  0  0  0  0  0  0  0  0
   24.0003   -4.4217  -15.2138 O   0  0  0  0  0  0  0  0  0  0  0  0
   22.1248   -5.7287  -14.5000 C   0  0  2  0  0  0  0  0  0  0  0  0
   21.0568   -6.5874  -14.9301 N   0  0  0  0  0  0  0  0  0  0  0  0
   21.6966   -4.7047  -13.5390 C   0  0  0  0  0  0  0  0  0  0  0  0
   20.3596   -4.4355  -13.3504 O   0  0  0  0  0  0  0  0  0  0  0  0
   22.5460   -4.0689  -12.8839 O   0  0  0  0  0  0  0  0  0  0  0  0
  2  3  1  0
  2  1  1  6
  4  6  1  0
  4  2  1  0
  4  5  1  1
  6  7  2  0
  6 12  1  0
  9  8  1  6
  9 10  1  0
  9 11  1  0
 11 13  1  0
 11 12  1  1
 13 14  2  0
 13 19  1  0
 16 15  1  1
 16 17  1  0
 18 16  1  0
 18 20  1  0
 18 19  1  6
 20 21  1  0
 22 20  2  0
M  END
$$$$
