TTT.pdb
     RDKit          3D

 22 21  0  0  1  0  0  0  0  0999 V2000
   24.4485  -21.0467   -8.2651 C   0  0  0  0  0  0  0  0  0  0  0  0
   24.3529  -20.9002   -9.7691 C   0  0  1  0  0  0  0  0  0  0  0  0
   23.3581  -19.9781  -10.0490 O   0  0  0  0  0  0  0  0  0  0  0  0
   25.7065  -20.4937  -10.2734 C   0  0  2  0  0  0  0  0  0  0  0  0
   26.2411  -19.4392   -9.4707 N   0  0  0  0  0  0  0  0  0  0  0  0
   25.7486  -20.2322  -11.7254 C   0  0  0  0  0  0  0  0  0  0  0  0
   25.9440  -19.0747  -12.1258 O   0  0  0  0  0  0  0  0  0  0  0  0
   26.1347  -21.6162  -16.3999 C   0  0  0  0  0  0  0  0  0  0  0  0
   26.1529  -22.0674  -14.9577 C   0  0  1  0  0  0  0  0  0  0  0  0
   27.4129  -22.4157  -14.5833 O   0  0  0  0  0  0  0  0  0  0  0  0
   25.5172  -20.9804  -14.1355 C   0  0  2  0  0  0  0  0  0  0  0  0
   25.5749  -21.2482  -12.7119 N   0  0  0  0  0  0  0  0  0  0  0  0
   24.1782  -20.5925  -14.5916 C   0  0  0  0  0  0  0  0  0  0  0  0
   23.1038  -20.9738  -14.0490 O   0  0  0  0  0  0  0  0  0  0  0  0
   21.6374  -17.3266  -17.3621 C   0  0  0  0  0  0  0  0  0  0  0  0
   22.9654  -17.9659  -17.0218 C   0  0  1  0  0  0  0  0  0  0  0  0
   23.7887  -17.0370  -16.3957 O   0  0  0  0  0  0  0  0  0  0  0  0
   22.7909  -19.2023  -16.1701 C   0  0  2  0  0  0  0  0  0  0  0  0
   24.0439  -19.7342  -15.7120 N   0  0  0  0  0  0  0  0  0  0  0  0
   21.9277  -20.2085  -16.8008 C   0  0  0  0  0  0  0  0  0  0  0  0
   20.6086  -20.3344  -16.4268 O   0  0  0  0  0  0  0  0  0  0  0  0
   22.3863  -20.9596  -17.6842 O   0  0  0  0  0  0  0  0  0  0  0  0
  2  3  1  0
  2  1  1  1
  4  6  1  0
  4  2  1  0
  4  5  1  1
  6  7  2  0
  6 12  1  0
  9  8  1  6
  9 10  1  0
  9 11  1  0
 11 13  1  0
 11 12  1  1
 13 14  2  0
 13 19  1  0
 16 15  1  1
 16 17  1  0
 18 16  1  0
 18 20  1  0
 18 19  1  6
 20 21  1  0
 22 20  2  0
M  END
$$$$
