TTT.pdb
     RDKit          3D

 22 21  0  0  1  0  0  0  0  0999 V2000
   23.7369  -11.5962  -15.4755 C   0  0  0  0  0  0  0  0  0  0  0  0
   23.2406  -12.2824  -16.7306 C   0  0  1  0  0  0  0  0  0  0  0  0
   23.7212  -13.5813  -16.7294 O   0  0  0  0  0  0  0  0  0  0  0  0
   21.7423  -12.1973  -16.7333 C   0  0  2  0  0  0  0  0  0  0  0  0
   21.2029  -12.9463  -17.8242 N   0  0  0  0  0  0  0  0  0  0  0  0
   21.2226  -10.8201  -16.6269 C   0  0  0  0  0  0  0  0  0  0  0  0
   21.2339  -10.0904  -17.6298 O   0  0  0  0  0  0  0  0  0  0  0  0
   18.2687   -7.4855  -14.7824 C   0  0  0  0  0  0  0  0  0  0  0  0
   18.7393   -8.9216  -14.7944 C   0  0  1  0  0  0  0  0  0  0  0  0
   17.8596   -9.7056  -15.4729 O   0  0  0  0  0  0  0  0  0  0  0  0
   20.1473   -8.9320  -15.3227 C   0  0  2  0  0  0  0  0  0  0  0  0
   20.6997  -10.2688  -15.4193 N   0  0  0  0  0  0  0  0  0  0  0  0
   21.0451   -7.9885  -14.6482 C   0  0  0  0  0  0  0  0  0  0  0  0
   21.5006   -8.1502  -13.4818 O   0  0  0  0  0  0  0  0  0  0  0  0
   24.0356   -6.0953  -16.5727 C   0  0  0  0  0  0  0  0  0  0  0  0
   23.1627   -5.1250  -15.8080 C   0  0  1  0  0  0  0  0  0  0  0  0
   22.3580   -4.4168  -16.6933 O   0  0  0  0  0  0  0  0  0  0  0  0
   22.3329   -5.8254  -14.7568 C   0  0  2  0  0  0  0  0  0  0  0  0
   21.4487   -6.8071  -15.3201 N   0  0  0  0  0  0  0  0  0  0  0  0
   21.6593   -4.8888  -13.8487 C   0  0  0  0  0  0  0  0  0  0  0  0
   22.3823   -4.1569  -12.9336 O   0  0  0  0  0  0  0  0  0  0  0  0
   20.4213   -4.7494  -13.9010 O   0  0  0  0  0  0  0  0  0  0  0  0
  2  3  1  0
  2  1  1  1
  4  6  1  0
  4  2  1  0
  4  5  1  6
  6  7  2  0
  6 12  1  0
  9  8  1  6
  9 10  1  0
  9 11  1  0
 11 13  1  0
 11 12  1  1
 13 14  2  0
 13 19  1  0
 16 15  1  6
 16 17  1  0
 18 16  1  0
 18 20  1  0
 18 19  1  6
 20 21  1  0
 22 20  2  0
M  END
$$$$
