TTT.pdb
     RDKit          3D

 22 21  0  0  1  0  0  0  0  0999 V2000
   24.4867  -13.5697  -15.6581 C   0  0  0  0  0  0  0  0  0  0  0  0
   23.8959  -12.2084  -15.9590 C   0  0  1  0  0  0  0  0  0  0  0  0
   24.4975  -11.7231  -17.1082 O   0  0  0  0  0  0  0  0  0  0  0  0
   22.4098  -12.3752  -16.0847 C   0  0  2  0  0  0  0  0  0  0  0  0
   22.0977  -13.2709  -17.1535 N   0  0  0  0  0  0  0  0  0  0  0  0
   21.6676  -11.1002  -16.1249 C   0  0  0  0  0  0  0  0  0  0  0  0
   21.3848  -10.5996  -17.2239 O   0  0  0  0  0  0  0  0  0  0  0  0
   18.6181   -7.7703  -14.4721 C   0  0  0  0  0  0  0  0  0  0  0  0
   19.2407   -9.1370  -14.3034 C   0  0  1  0  0  0  0  0  0  0  0  0
   18.3868  -10.1055  -14.7301 O   0  0  0  0  0  0  0  0  0  0  0  0
   20.5781   -9.1130  -14.9908 C   0  0  2  0  0  0  0  0  0  0  0  0
   21.2492  -10.3974  -14.9558 N   0  0  0  0  0  0  0  0  0  0  0  0
   21.4427   -8.0033  -14.5759 C   0  0  0  0  0  0  0  0  0  0  0  0
   22.1425   -8.0014  -13.5251 O   0  0  0  0  0  0  0  0  0  0  0  0
   23.6615   -5.9736  -17.2702 C   0  0  0  0  0  0  0  0  0  0  0  0
   22.8605   -5.0470  -16.3825 C   0  0  1  0  0  0  0  0  0  0  0  0
   21.7815   -4.5315  -17.0915 O   0  0  0  0  0  0  0  0  0  0  0  0
   22.4032   -5.7378  -15.1183 C   0  0  2  0  0  0  0  0  0  0  0  0
   21.5225   -6.8409  -15.3838 N   0  0  0  0  0  0  0  0  0  0  0  0
   21.8764   -4.8006  -14.1185 C   0  0  0  0  0  0  0  0  0  0  0  0
   20.5344   -4.7850  -13.8106 O   0  0  0  0  0  0  0  0  0  0  0  0
   22.6453   -4.0086  -13.5385 O   0  0  0  0  0  0  0  0  0  0  0  0
  2  3  1  0
  2  1  1  6
  4  6  1  0
  4  2  1  0
  4  5  1  6
  6  7  2  0
  6 12  1  0
  9  8  1  6
  9 10  1  0
  9 11  1  0
 11 13  1  0
 11 12  1  1
 13 14  2  0
 13 19  1  0
 16 15  1  6
 16 17  1  0
 18 16  1  0
 18 20  1  0
 18 19  1  6
 20 21  1  0
 22 20  2  0
M  END
$$$$
