TTT.pdb
     RDKit          3D

 22 21  0  0  1  0  0  0  0  0999 V2000
   18.0773   -9.0124  -18.7170 C   0  0  0  0  0  0  0  0  0  0  0  0
   17.4465  -10.2664  -18.1494 C   0  0  1  0  0  0  0  0  0  0  0  0
   16.7871  -10.9194  -19.1775 O   0  0  0  0  0  0  0  0  0  0  0  0
   18.5398  -11.0826  -17.5243 C   0  0  2  0  0  0  0  0  0  0  0  0
   18.0623  -12.3899  -17.2004 N   0  0  0  0  0  0  0  0  0  0  0  0
   19.2360  -10.3990  -16.4169 C   0  0  0  0  0  0  0  0  0  0  0  0
   18.5923  -10.0722  -15.4083 O   0  0  0  0  0  0  0  0  0  0  0  0
   23.2429   -9.1205  -13.9314 C   0  0  0  0  0  0  0  0  0  0  0  0
   22.5919  -10.0172  -14.9591 C   0  0  1  0  0  0  0  0  0  0  0  0
   22.4722  -11.2837  -14.4789 O   0  0  0  0  0  0  0  0  0  0  0  0
   21.3026   -9.3652  -15.3767 C   0  0  2  0  0  0  0  0  0  0  0  0
   20.6279  -10.0865  -16.4378 N   0  0  0  0  0  0  0  0  0  0  0  0
   21.4200   -7.9281  -15.6456 C   0  0  0  0  0  0  0  0  0  0  0  0
   21.9189   -7.4398  -16.6976 O   0  0  0  0  0  0  0  0  0  0  0  0
   19.8141   -3.3877  -14.6395 C   0  0  0  0  0  0  0  0  0  0  0  0
   19.7570   -4.8786  -14.3909 C   0  0  1  0  0  0  0  0  0  0  0  0
   18.6363   -5.4173  -15.0128 O   0  0  0  0  0  0  0  0  0  0  0  0
   21.0203   -5.5721  -14.8464 C   0  0  2  0  0  0  0  0  0  0  0  0
   20.9529   -6.9975  -14.6834 N   0  0  0  0  0  0  0  0  0  0  0  0
   22.2330   -4.9776  -14.2709 C   0  0  0  0  0  0  0  0  0  0  0  0
   22.9890   -4.0850  -14.9973 O   0  0  0  0  0  0  0  0  0  0  0  0
   22.5878   -5.2788  -13.1141 O   0  0  0  0  0  0  0  0  0  0  0  0
  2  3  1  0
  2  1  1  6
  4  6  1  0
  4  2  1  0
  4  5  1  1
  6  7  2  0
  6 12  1  0
  9  8  1  1
  9 10  1  0
  9 11  1  0
 11 13  1  0
 11 12  1  6
 13 14  2  0
 13 19  1  0
 16 15  1  6
 16 17  1  0
 18 16  1  0
 18 20  1  0
 18 19  1  1
 20 21  1  0
 22 20  2  0
M  END
$$$$
