TTT.pdb
     RDKit          3D

 22 21  0  0  1  0  0  0  0  0999 V2000
   22.0530   -8.9633  -19.9494 C   0  0  0  0  0  0  0  0  0  0  0  0
   21.1391  -10.1691  -20.0080 C   0  0  1  0  0  0  0  0  0  0  0  0
   21.4783  -10.9118  -21.1267 O   0  0  0  0  0  0  0  0  0  0  0  0
   21.2953  -10.9212  -18.7188 C   0  0  2  0  0  0  0  0  0  0  0  0
   20.6003  -12.1682  -18.7823 N   0  0  0  0  0  0  0  0  0  0  0  0
   20.9918  -10.1176  -17.5186 C   0  0  0  0  0  0  0  0  0  0  0  0
   19.8199   -9.7747  -17.3012 O   0  0  0  0  0  0  0  0  0  0  0  0
   23.3280  -10.2342  -14.1612 C   0  0  0  0  0  0  0  0  0  0  0  0
   21.9146   -9.7009  -14.1199 C   0  0  1  0  0  0  0  0  0  0  0  0
   21.7016   -9.0041  -12.9719 O   0  0  0  0  0  0  0  0  0  0  0  0
   21.6848   -8.9294  -15.3903 C   0  0  2  0  0  0  0  0  0  0  0  0
   21.9824   -9.7049  -16.5784 N   0  0  0  0  0  0  0  0  0  0  0  0
   22.3062   -7.6010  -15.4027 C   0  0  0  0  0  0  0  0  0  0  0  0
   23.4717   -7.3649  -15.8269 O   0  0  0  0  0  0  0  0  0  0  0  0
   21.0617   -4.6500  -17.2018 C   0  0  0  0  0  0  0  0  0  0  0  0
   21.1535   -4.2233  -15.7535 C   0  0  1  0  0  0  0  0  0  0  0  0
   19.8809   -4.1699  -15.1965 O   0  0  0  0  0  0  0  0  0  0  0  0
   22.0603   -5.1332  -14.9570 C   0  0  2  0  0  0  0  0  0  0  0  0
   21.5796   -6.4859  -14.9141 N   0  0  0  0  0  0  0  0  0  0  0  0
   22.3880   -4.5901  -13.6330 C   0  0  0  0  0  0  0  0  0  0  0  0
   21.9567   -5.2234  -12.4890 O   0  0  0  0  0  0  0  0  0  0  0  0
   23.0629   -3.5461  -13.5356 O   0  0  0  0  0  0  0  0  0  0  0  0
  2  3  1  0
  2  1  1  1
  4  6  1  0
  4  2  1  0
  4  5  1  6
  6  7  2  0
  6 12  1  0
  9  8  1  1
  9 10  1  0
  9 11  1  0
 11 13  1  0
 11 12  1  6
 13 14  2  0
 13 19  1  0
 16 15  1  6
 16 17  1  0
 18 16  1  0
 18 20  1  0
 18 19  1  1
 20 21  1  0
 22 20  2  0
M  END
$$$$
