QAY.pdb
     RDKit          3D

 27 27  0  0  1  0  0  0  0  0999 V2000
    7.7715  -19.4686   14.6826 N   0  0  0  0  0  0  0  0  0  0  0  0
    8.4480  -18.4640   15.4383 C   0  0  0  0  0  0  0  0  0  0  0  0
    9.2303  -17.7273   14.8142 O   0  0  0  0  0  0  0  0  0  0  0  0
    8.2539  -18.2808   16.8801 C   0  0  0  0  0  0  0  0  0  0  0  0
    7.9689  -19.5190   17.6519 C   0  0  0  0  0  0  0  0  0  0  0  0
    7.7892  -19.3560   19.1181 C   0  0  2  0  0  0  0  0  0  0  0  0
    6.9586  -18.2033   19.3605 N   0  0  0  0  0  0  0  0  0  0  0  0
    9.1295  -19.1851   19.7517 C   0  0  0  0  0  0  0  0  0  0  0  0
   10.0991  -19.8602   19.3196 O   0  0  0  0  0  0  0  0  0  0  0  0
   11.0159  -16.8648   19.7483 C   0  0  0  0  0  0  0  0  0  0  0  0
   10.5903  -17.6420   20.9746 C   0  0  2  0  0  0  0  0  0  0  0  0
    9.3278  -18.2771   20.8296 N   0  0  0  0  0  0  0  0  0  0  0  0
   10.6632  -16.7122   22.1348 C   0  0  0  0  0  0  0  0  0  0  0  0
   11.7157  -16.0821   22.4437 O   0  0  0  0  0  0  0  0  0  0  0  0
    7.1915  -12.9758   18.6308 O   0  0  0  0  0  0  0  0  0  0  0  0
    7.4403  -13.4028   19.9475 C   0  0  0  0  0  0  0  0  0  0  0  0
    6.6627  -14.3934   20.5073 C   0  0  0  0  0  0  0  0  0  0  0  0
    6.9545  -14.7713   21.8044 C   0  0  0  0  0  0  0  0  0  0  0  0
    7.9770  -14.1946   22.5272 C   0  0  0  0  0  0  0  0  0  0  0  0
    8.2332  -14.6412   23.8950 C   0  0  0  0  0  0  0  0  0  0  0  0
    9.4307  -15.5583   24.0160 C   0  0  2  0  0  0  0  0  0  0  0  0
    9.5168  -16.5032   22.9488 N   0  0  0  0  0  0  0  0  0  0  0  0
    9.5330  -16.1667   25.3591 C   0  0  0  0  0  0  0  0  0  0  0  0
    9.6353  -17.5308   25.5562 O   0  0  0  0  0  0  0  0  0  0  0  0
    8.7541  -13.2054   21.9694 C   0  0  0  0  0  0  0  0  0  0  0  0
    8.4664  -12.8231   20.6710 C   0  0  0  0  0  0  0  0  0  0  0  0
    9.5287  -15.4328   26.3744 O   0  0  0  0  0  0  0  0  0  0  0  0
  2  1  1  0
  3  2  2  0
  4  2  1  0
  5  4  1  0
  6  5  1  0
  6  8  1  0
  6  7  1  6
  8  9  2  0
 11 10  1  6
 12  8  1  0
 12 11  1  0
 13 11  1  0
 13 14  2  0
 15 16  1  0
 16 17  2  0
 17 18  1  0
 19 18  2  0
 19 20  1  0
 21 20  1  1
 21 22  1  0
 22 13  1  0
 23 24  1  0
 23 21  1  0
 25 19  1  0
 26 16  1  0
 26 25  2  0
 27 23  2  0
M  END
$$$$
