QAY.pdb
     RDKit          3D

 27 27  0  0  1  0  0  0  0  0999 V2000
    3.5980  -18.0443   21.0343 N   0  0  0  0  0  0  0  0  0  0  0  0
    4.2934  -19.2602   20.7588 C   0  0  0  0  0  0  0  0  0  0  0  0
    3.6554  -20.1469   20.1664 O   0  0  0  0  0  0  0  0  0  0  0  0
    5.6910  -19.4867   21.1401 C   0  0  0  0  0  0  0  0  0  0  0  0
    6.3888  -18.3209   21.7433 C   0  0  0  0  0  0  0  0  0  0  0  0
    7.5705  -17.8045   21.0046 C   0  0  2  0  0  0  0  0  0  0  0  0
    8.5755  -18.8363   20.9535 N   0  0  0  0  0  0  0  0  0  0  0  0
    8.0887  -16.5955   21.7095 C   0  0  0  0  0  0  0  0  0  0  0  0
    8.7119  -16.7410   22.7925 O   0  0  0  0  0  0  0  0  0  0  0  0
    7.8149  -12.8432   21.3396 C   0  0  0  0  0  0  0  0  0  0  0  0
    8.0669  -14.1652   22.0311 C   0  0  2  0  0  0  0  0  0  0  0  0
    7.8909  -15.2892   21.1803 N   0  0  0  0  0  0  0  0  0  0  0  0
    7.2124  -14.1968   23.2496 C   0  0  0  0  0  0  0  0  0  0  0  0
    6.2102  -14.9601   23.3648 O   0  0  0  0  0  0  0  0  0  0  0  0
   11.4903  -16.2812   28.7083 O   0  0  0  0  0  0  0  0  0  0  0  0
   10.2953  -15.8684   28.0921 C   0  0  0  0  0  0  0  0  0  0  0  0
    9.9439  -14.5358   28.0974 C   0  0  0  0  0  0  0  0  0  0  0  0
    8.7586  -14.1904   27.4762 C   0  0  0  0  0  0  0  0  0  0  0  0
    7.9455  -15.1240   26.8697 C   0  0  0  0  0  0  0  0  0  0  0  0
    6.7048  -14.6915   26.2298 C   0  0  0  0  0  0  0  0  0  0  0  0
    6.8021  -13.3253   25.5866 C   0  0  2  0  0  0  0  0  0  0  0  0
    7.5107  -13.3441   24.3470 N   0  0  0  0  0  0  0  0  0  0  0  0
    7.2850  -12.2973   26.5324 C   0  0  0  0  0  0  0  0  0  0  0  0
    6.5652  -11.9091   27.6465 O   0  0  0  0  0  0  0  0  0  0  0  0
    8.2953  -16.4549   26.8637 C   0  0  0  0  0  0  0  0  0  0  0  0
    9.4810  -16.8065   27.4842 C   0  0  0  0  0  0  0  0  0  0  0  0
    8.3906  -11.7425   26.3340 O   0  0  0  0  0  0  0  0  0  0  0  0
  2  1  1  0
  3  2  2  0
  4  2  1  0
  5  4  1  0
  6  5  1  0
  6  8  1  0
  6  7  1  1
  8  9  2  0
 11 10  1  6
 12  8  1  0
 12 11  1  0
 13 11  1  0
 13 14  2  0
 15 16  1  0
 16 17  2  0
 17 18  1  0
 19 18  2  0
 19 20  1  0
 21 20  1  1
 21 22  1  0
 22 13  1  0
 23 24  1  0
 23 21  1  0
 25 19  1  0
 26 16  1  0
 26 25  2  0
 27 23  2  0
M  END
$$$$
