QAY.pdb
     RDKit          3D

 27 27  0  0  1  0  0  0  0  0999 V2000
    7.1530  -14.2610   15.2495 N   0  0  0  0  0  0  0  0  0  0  0  0
    8.1967  -13.7193   16.0587 C   0  0  0  0  0  0  0  0  0  0  0  0
    9.3620  -13.9929   15.7246 O   0  0  0  0  0  0  0  0  0  0  0  0
    7.9442  -12.8776   17.2325 C   0  0  0  0  0  0  0  0  0  0  0  0
    7.6493  -13.6068   18.4939 C   0  0  0  0  0  0  0  0  0  0  0  0
    8.7591  -14.4140   19.0645 C   0  0  2  0  0  0  0  0  0  0  0  0
    9.0818  -15.4773   18.1465 N   0  0  0  0  0  0  0  0  0  0  0  0
    8.3259  -14.9655   20.3818 C   0  0  0  0  0  0  0  0  0  0  0  0
    8.0475  -14.1689   21.3148 O   0  0  0  0  0  0  0  0  0  0  0  0
    7.6899  -18.3333   21.9656 C   0  0  0  0  0  0  0  0  0  0  0  0
    7.9722  -16.8478   21.9122 C   0  0  2  0  0  0  0  0  0  0  0  0
    8.2231  -16.3684   20.5987 N   0  0  0  0  0  0  0  0  0  0  0  0
    9.0771  -16.5729   22.8712 C   0  0  0  0  0  0  0  0  0  0  0  0
   10.2984  -16.6511   22.5511 O   0  0  0  0  0  0  0  0  0  0  0  0
    5.2284  -11.9676   27.3892 O   0  0  0  0  0  0  0  0  0  0  0  0
    6.4038  -12.5826   26.9221 C   0  0  0  0  0  0  0  0  0  0  0  0
    7.3967  -12.9325   27.8116 C   0  0  0  0  0  0  0  0  0  0  0  0
    8.5284  -13.5337   27.2938 C   0  0  0  0  0  0  0  0  0  0  0  0
    8.6792  -13.7829   25.9464 C   0  0  0  0  0  0  0  0  0  0  0  0
    9.9016  -14.4226   25.4645 C   0  0  0  0  0  0  0  0  0  0  0  0
    9.7478  -15.9073   25.2157 C   0  0  2  0  0  0  0  0  0  0  0  0
    8.7775  -16.2046   24.2110 N   0  0  0  0  0  0  0  0  0  0  0  0
    9.5570  -16.6656   26.4699 C   0  0  0  0  0  0  0  0  0  0  0  0
    8.4834  -17.5108   26.6768 O   0  0  0  0  0  0  0  0  0  0  0  0
    7.6886  -13.4340   25.0572 C   0  0  0  0  0  0  0  0  0  0  0  0
    6.5532  -12.8317   25.5699 C   0  0  0  0  0  0  0  0  0  0  0  0
   10.3921  -16.5514   27.3969 O   0  0  0  0  0  0  0  0  0  0  0  0
  2  1  1  0
  3  2  2  0
  4  2  1  0
  5  4  1  0
  6  5  1  0
  6  8  1  0
  6  7  1  6
  8  9  2  0
 11 10  1  6
 12  8  1  0
 12 11  1  0
 13 11  1  0
 13 14  2  0
 15 16  1  0
 16 17  2  0
 17 18  1  0
 19 18  2  0
 19 20  1  0
 21 20  1  1
 21 22  1  0
 22 13  1  0
 23 24  1  0
 23 21  1  0
 25 19  1  0
 26 16  1  0
 26 25  2  0
 27 23  2  0
M  END
$$$$
