QAY.pdb
     RDKit          3D

 27 27  0  0  1  0  0  0  0  0999 V2000
    8.2019  -12.9358   18.9335 N   0  0  0  0  0  0  0  0  0  0  0  0
    8.4791  -12.6918   20.3124 C   0  0  0  0  0  0  0  0  0  0  0  0
    8.8618  -11.5480   20.6116 O   0  0  0  0  0  0  0  0  0  0  0  0
    8.3305  -13.7153   21.3518 C   0  0  0  0  0  0  0  0  0  0  0  0
    6.9998  -14.3748   21.4177 C   0  0  0  0  0  0  0  0  0  0  0  0
    7.0002  -15.8608   21.4433 C   0  0  2  0  0  0  0  0  0  0  0  0
    5.6412  -16.3290   21.3387 N   0  0  0  0  0  0  0  0  0  0  0  0
    7.6215  -16.3204   22.7199 C   0  0  0  0  0  0  0  0  0  0  0  0
    6.9281  -16.3228   23.7696 O   0  0  0  0  0  0  0  0  0  0  0  0
   10.5003  -18.4535   23.6643 C   0  0  0  0  0  0  0  0  0  0  0  0
    9.4537  -17.3969   23.9425 C   0  0  2  0  0  0  0  0  0  0  0  0
    8.9764  -16.7533   22.7694 N   0  0  0  0  0  0  0  0  0  0  0  0
   10.0268  -16.4607   24.9481 C   0  0  0  0  0  0  0  0  0  0  0  0
   10.7940  -15.5045   24.6360 O   0  0  0  0  0  0  0  0  0  0  0  0
    5.9480  -11.6990   25.1727 O   0  0  0  0  0  0  0  0  0  0  0  0
    6.7721  -12.5481   25.9328 C   0  0  0  0  0  0  0  0  0  0  0  0
    7.9819  -12.0883   26.4064 C   0  0  0  0  0  0  0  0  0  0  0  0
    8.7483  -12.9681   27.1473 C   0  0  0  0  0  0  0  0  0  0  0  0
    8.3390  -14.2573   27.4140 C   0  0  0  0  0  0  0  0  0  0  0  0
    9.1976  -15.1367   28.2047 C   0  0  0  0  0  0  0  0  0  0  0  0
   10.2604  -15.8374   27.3866 C   0  0  2  0  0  0  0  0  0  0  0  0
    9.7165  -16.6233   26.3257 N   0  0  0  0  0  0  0  0  0  0  0  0
   11.2245  -16.5689   28.2351 C   0  0  0  0  0  0  0  0  0  0  0  0
   11.9986  -15.9457   29.1954 O   0  0  0  0  0  0  0  0  0  0  0  0
    7.1312  -14.7176   26.9416 C   0  0  0  0  0  0  0  0  0  0  0  0
    6.3597  -13.8410   26.1992 C   0  0  0  0  0  0  0  0  0  0  0  0
   11.3608  -17.8063   28.0937 O   0  0  0  0  0  0  0  0  0  0  0  0
  2  1  1  0
  3  2  2  0
  4  2  1  0
  5  4  1  0
  6  5  1  0
  6  8  1  0
  6  7  1  1
  8  9  2  0
 11 10  1  6
 12  8  1  0
 12 11  1  0
 13 11  1  0
 13 14  2  0
 15 16  1  0
 16 17  2  0
 17 18  1  0
 19 18  2  0
 19 20  1  0
 21 20  1  1
 21 22  1  0
 22 13  1  0
 23 24  1  0
 23 21  1  0
 25 19  1  0
 26 16  1  0
 26 25  2  0
 27 23  2  0
M  END
$$$$
