QAY.pdb
     RDKit          3D

 27 27  0  0  1  0  0  0  0  0999 V2000
    8.4526  -12.2962   18.3092 N   0  0  0  0  0  0  0  0  0  0  0  0
    7.8689  -13.4620   17.7281 C   0  0  0  0  0  0  0  0  0  0  0  0
    7.9781  -13.5870   16.4965 O   0  0  0  0  0  0  0  0  0  0  0  0
    7.1683  -14.4827   18.5138 C   0  0  0  0  0  0  0  0  0  0  0  0
    7.1045  -14.2339   19.9780 C   0  0  0  0  0  0  0  0  0  0  0  0
    8.4005  -14.2385   20.7054 C   0  0  2  0  0  0  0  0  0  0  0  0
    9.4508  -14.5918   19.7838 N   0  0  0  0  0  0  0  0  0  0  0  0
    8.3226  -15.2251   21.8223 C   0  0  0  0  0  0  0  0  0  0  0  0
    7.3198  -15.2090   22.5817 O   0  0  0  0  0  0  0  0  0  0  0  0
   10.0922  -18.2941   23.0383 C   0  0  0  0  0  0  0  0  0  0  0  0
    9.2910  -17.0190   23.1842 C   0  0  2  0  0  0  0  0  0  0  0  0
    9.3572  -16.1776   22.0414 N   0  0  0  0  0  0  0  0  0  0  0  0
    9.7369  -16.3579   24.4412 C   0  0  0  0  0  0  0  0  0  0  0  0
   10.6820  -15.5178   24.4762 O   0  0  0  0  0  0  0  0  0  0  0  0
    6.5760  -10.7073   25.3206 O   0  0  0  0  0  0  0  0  0  0  0  0
    7.0025  -11.9100   25.9120 C   0  0  0  0  0  0  0  0  0  0  0  0
    6.0974  -12.9251   26.1349 C   0  0  0  0  0  0  0  0  0  0  0  0
    6.5750  -14.0832   26.7190 C   0  0  0  0  0  0  0  0  0  0  0  0
    7.8985  -14.2383   27.0723 C   0  0  0  0  0  0  0  0  0  0  0  0
    8.3383  -15.4896   27.6861 C   0  0  0  0  0  0  0  0  0  0  0  0
    9.4788  -16.1557   26.9475 C   0  0  2  0  0  0  0  0  0  0  0  0
    9.0919  -16.6638   25.6703 N   0  0  0  0  0  0  0  0  0  0  0  0
   10.1879  -17.1415   27.7901 C   0  0  0  0  0  0  0  0  0  0  0  0
   10.8410  -16.7949   28.9576 O   0  0  0  0  0  0  0  0  0  0  0  0
    8.8032  -13.2254   26.8503 C   0  0  0  0  0  0  0  0  0  0  0  0
    8.3306  -12.0637   26.2658 C   0  0  0  0  0  0  0  0  0  0  0  0
   10.2097  -18.3469   27.4493 O   0  0  0  0  0  0  0  0  0  0  0  0
  2  1  1  0
  3  2  2  0
  4  2  1  0
  5  4  1  0
  6  5  1  0
  6  8  1  0
  6  7  1  6
  8  9  2  0
 11 10  1  6
 12  8  1  0
 12 11  1  0
 13 11  1  0
 13 14  2  0
 15 16  1  0
 16 17  2  0
 17 18  1  0
 19 18  2  0
 19 20  1  0
 21 20  1  1
 21 22  1  0
 22 13  1  0
 23 24  1  0
 23 21  1  0
 25 19  1  0
 26 16  1  0
 26 25  2  0
 27 23  2  0
M  END
$$$$
