QAY.pdb
     RDKit          3D

 27 27  0  0  1  0  0  0  0  0999 V2000
    8.0624  -29.1823   17.8714 N   0  0  0  0  0  0  0  0  0  0  0  0
    9.0374  -29.0286   16.8401 C   0  0  0  0  0  0  0  0  0  0  0  0
    9.1527  -29.9686   16.0355 O   0  0  0  0  0  0  0  0  0  0  0  0
    9.8785  -27.8351   16.7056 C   0  0  0  0  0  0  0  0  0  0  0  0
    9.6885  -26.7949   17.7504 C   0  0  0  0  0  0  0  0  0  0  0  0
    9.5640  -25.3935   17.2715 C   0  0  2  0  0  0  0  0  0  0  0  0
   10.1150  -25.3044   15.9427 N   0  0  0  0  0  0  0  0  0  0  0  0
   10.2992  -24.4963   18.2104 C   0  0  0  0  0  0  0  0  0  0  0  0
   11.5572  -24.4969   18.1956 O   0  0  0  0  0  0  0  0  0  0  0  0
    9.6397  -21.5528   20.3942 C   0  0  0  0  0  0  0  0  0  0  0  0
   10.3527  -22.8301   20.0080 C   0  0  2  0  0  0  0  0  0  0  0  0
    9.6056  -23.6455   19.1164 N   0  0  0  0  0  0  0  0  0  0  0  0
   10.7386  -23.5198   21.2696 C   0  0  0  0  0  0  0  0  0  0  0  0
   10.0757  -24.4812   21.7560 O   0  0  0  0  0  0  0  0  0  0  0  0
   14.5177  -28.3177   19.2680 O   0  0  0  0  0  0  0  0  0  0  0  0
   14.3493  -27.2938   20.2174 C   0  0  0  0  0  0  0  0  0  0  0  0
   14.4260  -27.5842   21.5624 C   0  0  0  0  0  0  0  0  0  0  0  0
   14.2524  -26.5372   22.4478 C   0  0  0  0  0  0  0  0  0  0  0  0
   14.0114  -25.2473   22.0251 C   0  0  0  0  0  0  0  0  0  0  0  0
   13.8376  -24.1856   23.0143 C   0  0  0  0  0  0  0  0  0  0  0  0
   12.4032  -23.7261   23.1605 C   0  0  2  0  0  0  0  0  0  0  0  0
   11.8967  -23.1024   21.9800 N   0  0  0  0  0  0  0  0  0  0  0  0
   12.1953  -22.9315   24.3893 C   0  0  0  0  0  0  0  0  0  0  0  0
   11.9068  -21.5802   24.3660 O   0  0  0  0  0  0  0  0  0  0  0  0
   13.9346  -24.9560   20.6823 C   0  0  0  0  0  0  0  0  0  0  0  0
   14.1077  -26.0004   19.7913 C   0  0  0  0  0  0  0  0  0  0  0  0
   12.2798  -23.4872   25.5089 O   0  0  0  0  0  0  0  0  0  0  0  0
  2  1  1  0
  3  2  2  0
  4  2  1  0
  5  4  1  0
  6  5  1  0
  6  8  1  0
  6  7  1  6
  8  9  2  0
 11 10  1  1
 12  8  1  0
 12 11  1  0
 13 11  1  0
 13 14  2  0
 15 16  1  0
 16 17  2  0
 17 18  1  0
 19 18  2  0
 19 20  1  0
 21 20  1  6
 21 22  1  0
 22 13  1  0
 23 24  1  0
 23 21  1  0
 25 19  1  0
 26 16  1  0
 26 25  2  0
 27 23  2  0
M  END
$$$$
