QAY.pdb
     RDKit          3D

 27 27  0  0  1  0  0  0  0  0999 V2000
   12.9572  -20.1295   18.4201 N   0  0  0  0  0  0  0  0  0  0  0  0
   13.2966  -18.8119   18.8521 C   0  0  0  0  0  0  0  0  0  0  0  0
   14.2047  -18.2362   18.2291 O   0  0  0  0  0  0  0  0  0  0  0  0
   12.6283  -18.1395   19.9707 C   0  0  0  0  0  0  0  0  0  0  0  0
   11.1449  -18.0829   19.8918 C   0  0  0  0  0  0  0  0  0  0  0  0
   10.3999  -18.9470   20.8441 C   0  0  2  0  0  0  0  0  0  0  0  0
    9.2572  -19.5081   20.1683 N   0  0  0  0  0  0  0  0  0  0  0  0
    9.9716  -18.1207   22.0106 C   0  0  0  0  0  0  0  0  0  0  0  0
    9.3958  -17.0219   21.8014 O   0  0  0  0  0  0  0  0  0  0  0  0
    9.1512  -18.6305   25.5615 C   0  0  0  0  0  0  0  0  0  0  0  0
    9.6756  -17.7856   24.4212 C   0  0  2  0  0  0  0  0  0  0  0  0
   10.2021  -18.5521   23.3472 N   0  0  0  0  0  0  0  0  0  0  0  0
   10.6476  -16.8174   24.9988 C   0  0  0  0  0  0  0  0  0  0  0  0
   10.3738  -16.0784   25.9883 O   0  0  0  0  0  0  0  0  0  0  0  0
    9.4892  -14.7813   30.1306 O   0  0  0  0  0  0  0  0  0  0  0  0
   10.4702  -15.0830   29.1691 C   0  0  0  0  0  0  0  0  0  0  0  0
   11.1749  -16.2644   29.2535 C   0  0  0  0  0  0  0  0  0  0  0  0
   12.1261  -16.5060   28.2802 C   0  0  0  0  0  0  0  0  0  0  0  0
   12.3763  -15.6158   27.2577 C   0  0  0  0  0  0  0  0  0  0  0  0
   13.3959  -15.9329   26.2600 C   0  0  0  0  0  0  0  0  0  0  0  0
   12.9269  -15.7370   24.8346 C   0  0  2  0  0  0  0  0  0  0  0  0
   11.9470  -16.6960   24.4356 N   0  0  0  0  0  0  0  0  0  0  0  0
   14.0558  -15.6111   23.8890 C   0  0  0  0  0  0  0  0  0  0  0  0
   15.1011  -14.7287   24.0856 O   0  0  0  0  0  0  0  0  0  0  0  0
   11.6733  -14.4359   27.1724 C   0  0  0  0  0  0  0  0  0  0  0  0
   10.7198  -14.1887   28.1441 C   0  0  0  0  0  0  0  0  0  0  0  0
   14.0854  -16.3250   22.8599 O   0  0  0  0  0  0  0  0  0  0  0  0
  2  1  1  0
  3  2  2  0
  4  2  1  0
  5  4  1  0
  6  5  1  0
  6  8  1  0
  6  7  1  6
  8  9  2  0
 11 10  1  1
 12  8  1  0
 12 11  1  0
 13 11  1  0
 13 14  2  0
 15 16  1  0
 16 17  2  0
 17 18  1  0
 19 18  2  0
 19 20  1  0
 21 20  1  1
 21 22  1  0
 22 13  1  0
 23 24  1  0
 23 21  1  0
 25 19  1  0
 26 16  1  0
 26 25  2  0
 27 23  2  0
M  END
$$$$
