QAY.pdb
     RDKit          3D

 27 27  0  0  1  0  0  0  0  0999 V2000
    7.8583  -14.8530   14.0030 N   0  0  0  0  0  0  0  0  0  0  0  0
    9.1687  -15.0772   13.4831 C   0  0  0  0  0  0  0  0  0  0  0  0
    9.4567  -14.4948   12.4238 O   0  0  0  0  0  0  0  0  0  0  0  0
   10.1524  -15.9442   14.1393 C   0  0  0  0  0  0  0  0  0  0  0  0
    9.7297  -16.5240   15.4412 C   0  0  0  0  0  0  0  0  0  0  0  0
   10.6770  -17.4754   16.0785 C   0  0  2  0  0  0  0  0  0  0  0  0
   10.6180  -18.7326   15.3762 N   0  0  0  0  0  0  0  0  0  0  0  0
   10.2937  -17.6506   17.5101 C   0  0  0  0  0  0  0  0  0  0  0  0
    9.0757  -17.6223   17.8235 O   0  0  0  0  0  0  0  0  0  0  0  0
   11.5397  -19.3173   20.4658 C   0  0  0  0  0  0  0  0  0  0  0  0
   10.8563  -18.1158   19.8506 C   0  0  2  0  0  0  0  0  0  0  0  0
   11.2767  -17.8477   18.5203 N   0  0  0  0  0  0  0  0  0  0  0  0
   11.0508  -16.9712   20.7823 C   0  0  0  0  0  0  0  0  0  0  0  0
   12.0559  -16.2050   20.7269 O   0  0  0  0  0  0  0  0  0  0  0  0
    7.3645  -13.0299   17.5965 O   0  0  0  0  0  0  0  0  0  0  0  0
    7.7566  -13.4601   18.8768 C   0  0  0  0  0  0  0  0  0  0  0  0
    8.9594  -13.0418   19.4040 C   0  0  0  0  0  0  0  0  0  0  0  0
    9.2908  -13.4973   20.6661 C   0  0  0  0  0  0  0  0  0  0  0  0
    8.4673  -14.3362   21.3863 C   0  0  0  0  0  0  0  0  0  0  0  0
    8.8775  -14.7807   22.7167 C   0  0  0  0  0  0  0  0  0  0  0  0
   10.1397  -15.6155   22.7113 C   0  0  2  0  0  0  0  0  0  0  0  0
   10.0824  -16.7030   21.7876 N   0  0  0  0  0  0  0  0  0  0  0  0
   10.5501  -16.0137   24.0743 C   0  0  0  0  0  0  0  0  0  0  0  0
   11.0413  -15.1131   25.0003 O   0  0  0  0  0  0  0  0  0  0  0  0
    7.2661  -14.7545   20.8610 C   0  0  0  0  0  0  0  0  0  0  0  0
    6.9291  -14.3016   19.5977 C   0  0  0  0  0  0  0  0  0  0  0  0
   10.4567  -17.2129   24.4246 O   0  0  0  0  0  0  0  0  0  0  0  0
  2  1  1  0
  3  2  2  0
  4  2  1  0
  5  4  1  0
  6  5  1  0
  6  8  1  0
  6  7  1  6
  8  9  2  0
 11 10  1  1
 12  8  1  0
 12 11  1  0
 13 11  1  0
 13 14  2  0
 15 16  1  0
 16 17  2  0
 17 18  1  0
 19 18  2  0
 19 20  1  0
 21 20  1  1
 21 22  1  0
 22 13  1  0
 23 24  1  0
 23 21  1  0
 25 19  1  0
 26 16  1  0
 26 25  2  0
 27 23  2  0
M  END
$$$$
