QAY.pdb
     RDKit          3D

 27 27  0  0  1  0  0  0  0  0999 V2000
    9.8073  -19.5314   16.3824 N   0  0  0  0  0  0  0  0  0  0  0  0
    8.6868  -20.1952   16.9670 C   0  0  0  0  0  0  0  0  0  0  0  0
    8.2384  -21.1793   16.3547 O   0  0  0  0  0  0  0  0  0  0  0  0
    8.0699  -19.7660   18.2260 C   0  0  0  0  0  0  0  0  0  0  0  0
    8.5967  -18.4999   18.8001 C   0  0  0  0  0  0  0  0  0  0  0  0
    8.6348  -18.4134   20.2833 C   0  0  2  0  0  0  0  0  0  0  0  0
    7.3832  -18.8961   20.8105 N   0  0  0  0  0  0  0  0  0  0  0  0
    8.8619  -16.9921   20.6773 C   0  0  0  0  0  0  0  0  0  0  0  0
    9.9477  -16.4386   20.3656 O   0  0  0  0  0  0  0  0  0  0  0  0
    6.9204  -14.0456   21.8514 C   0  0  0  0  0  0  0  0  0  0  0  0
    8.1552  -14.9165   21.7741 C   0  0  2  0  0  0  0  0  0  0  0  0
    7.8769  -16.2570   21.3951 N   0  0  0  0  0  0  0  0  0  0  0  0
    8.8627  -14.7974   23.0784 C   0  0  0  0  0  0  0  0  0  0  0  0
    9.4076  -13.7242   23.4676 O   0  0  0  0  0  0  0  0  0  0  0  0
    6.1950  -10.9951   27.1426 O   0  0  0  0  0  0  0  0  0  0  0  0
    6.8536  -12.2240   26.9580 C   0  0  0  0  0  0  0  0  0  0  0  0
    8.2125  -12.3141   27.1695 C   0  0  0  0  0  0  0  0  0  0  0  0
    8.8041  -13.5476   26.9724 C   0  0  0  0  0  0  0  0  0  0  0  0
    8.0840  -14.6558   26.5805 C   0  0  0  0  0  0  0  0  0  0  0  0
    8.7714  -15.9314   26.3903 C   0  0  0  0  0  0  0  0  0  0  0  0
    9.6715  -15.9562   25.1741 C   0  0  2  0  0  0  0  0  0  0  0  0
    8.9456  -15.9211   23.9449 N   0  0  0  0  0  0  0  0  0  0  0  0
   10.6718  -17.0421   25.2435 C   0  0  0  0  0  0  0  0  0  0  0  0
   10.8605  -17.9515   24.2201 O   0  0  0  0  0  0  0  0  0  0  0  0
    6.7271  -14.5671   26.3691 C   0  0  0  0  0  0  0  0  0  0  0  0
    6.1294  -13.3346   26.5649 C   0  0  0  0  0  0  0  0  0  0  0  0
   11.3888  -17.1606   26.2641 O   0  0  0  0  0  0  0  0  0  0  0  0
  2  1  1  0
  3  2  2  0
  4  2  1  0
  5  4  1  0
  6  5  1  0
  6  8  1  0
  6  7  1  1
  8  9  2  0
 11 10  1  1
 12  8  1  0
 12 11  1  0
 13 11  1  0
 13 14  2  0
 15 16  1  0
 16 17  2  0
 17 18  1  0
 19 18  2  0
 19 20  1  0
 21 20  1  1
 21 22  1  0
 22 13  1  0
 23 24  1  0
 23 21  1  0
 25 19  1  0
 26 16  1  0
 26 25  2  0
 27 23  2  0
M  END
$$$$
