QAY.pdb
     RDKit          3D

 27 27  0  0  1  0  0  0  0  0999 V2000
   11.9491  -13.9354   14.0284 N   0  0  0  0  0  0  0  0  0  0  0  0
   10.9203  -14.7413   13.4541 C   0  0  0  0  0  0  0  0  0  0  0  0
   10.3452  -14.2831   12.4523 O   0  0  0  0  0  0  0  0  0  0  0  0
   10.5347  -16.0498   13.9919 C   0  0  0  0  0  0  0  0  0  0  0  0
    9.0909  -16.2148   14.3054 C   0  0  0  0  0  0  0  0  0  0  0  0
    8.7661  -16.7857   15.6386 C   0  0  2  0  0  0  0  0  0  0  0  0
    7.3416  -16.9871   15.7247 N   0  0  0  0  0  0  0  0  0  0  0  0
    9.2314  -15.8391   16.6943 C   0  0  0  0  0  0  0  0  0  0  0  0
   10.4669  -15.6686   16.8593 O   0  0  0  0  0  0  0  0  0  0  0  0
    7.7142  -13.6140   19.3459 C   0  0  0  0  0  0  0  0  0  0  0  0
    8.7933  -14.3893   18.6221 C   0  0  2  0  0  0  0  0  0  0  0  0
    8.3069  -15.1305   17.5121 N   0  0  0  0  0  0  0  0  0  0  0  0
    9.4957  -15.2218   19.6367 C   0  0  0  0  0  0  0  0  0  0  0  0
    9.2827  -16.4613   19.7733 O   0  0  0  0  0  0  0  0  0  0  0  0
   15.7128  -15.7133   16.9973 O   0  0  0  0  0  0  0  0  0  0  0  0
   14.9386  -15.4758   18.1471 C   0  0  0  0  0  0  0  0  0  0  0  0
   14.3398  -14.2482   18.3311 C   0  0  0  0  0  0  0  0  0  0  0  0
   13.5913  -14.0739   19.4799 C   0  0  0  0  0  0  0  0  0  0  0  0
   13.4365  -15.0731   20.4169 C   0  0  0  0  0  0  0  0  0  0  0  0
   12.6307  -14.8232   21.6102 C   0  0  0  0  0  0  0  0  0  0  0  0
   11.2078  -15.3246   21.4935 C   0  0  2  0  0  0  0  0  0  0  0  0
   10.4522  -14.6263   20.5032 N   0  0  0  0  0  0  0  0  0  0  0  0
   10.5358  -15.4049   22.8075 C   0  0  0  0  0  0  0  0  0  0  0  0
   10.9765  -16.2316   23.8234 O   0  0  0  0  0  0  0  0  0  0  0  0
   14.0338  -16.2993   20.2343 C   0  0  0  0  0  0  0  0  0  0  0  0
   14.7844  -16.4796   19.0859 C   0  0  0  0  0  0  0  0  0  0  0  0
    9.5226  -14.7024   23.0298 O   0  0  0  0  0  0  0  0  0  0  0  0
  2  1  1  0
  3  2  2  0
  4  2  1  0
  5  4  1  0
  6  5  1  0
  6  8  1  0
  6  7  1  6
  8  9  2  0
 11 10  1  1
 12  8  1  0
 12 11  1  0
 13 11  1  0
 13 14  2  0
 15 16  1  0
 16 17  2  0
 17 18  1  0
 19 18  2  0
 19 20  1  0
 21 20  1  1
 21 22  1  0
 22 13  1  0
 23 24  1  0
 23 21  1  0
 25 19  1  0
 26 16  1  0
 26 25  2  0
 27 23  2  0
M  END
$$$$
