QAY.pdb
     RDKit          3D

 27 27  0  0  1  0  0  0  0  0999 V2000
   13.0573  -18.9493   15.5045 N   0  0  0  0  0  0  0  0  0  0  0  0
   11.6436  -18.7870   15.6185 C   0  0  0  0  0  0  0  0  0  0  0  0
   11.1078  -17.9871   14.8329 O   0  0  0  0  0  0  0  0  0  0  0  0
   10.8317  -19.5117   16.6011 C   0  0  0  0  0  0  0  0  0  0  0  0
   10.0988  -18.6644   17.5783 C   0  0  0  0  0  0  0  0  0  0  0  0
   10.5226  -18.7777   18.9983 C   0  0  2  0  0  0  0  0  0  0  0  0
   10.0919  -20.0532   19.5128 N   0  0  0  0  0  0  0  0  0  0  0  0
    9.9100  -17.6599   19.7745 C   0  0  0  0  0  0  0  0  0  0  0  0
   10.1353  -16.4746   19.4183 O   0  0  0  0  0  0  0  0  0  0  0  0
    7.5398  -17.1766   22.6643 C   0  0  0  0  0  0  0  0  0  0  0  0
    8.6498  -16.8171   21.7011 C   0  0  2  0  0  0  0  0  0  0  0  0
    9.0806  -17.9109   20.9035 N   0  0  0  0  0  0  0  0  0  0  0  0
    9.7404  -16.1904   22.4973 C   0  0  0  0  0  0  0  0  0  0  0  0
   10.1665  -15.0202   22.2749 O   0  0  0  0  0  0  0  0  0  0  0  0
   10.3752  -15.1923   30.5715 O   0  0  0  0  0  0  0  0  0  0  0  0
   10.5444  -15.1511   29.1760 C   0  0  0  0  0  0  0  0  0  0  0  0
    9.8560  -14.2210   28.4273 C   0  0  0  0  0  0  0  0  0  0  0  0
   10.0630  -14.2286   27.0608 C   0  0  0  0  0  0  0  0  0  0  0  0
   10.9183  -15.1209   26.4503 C   0  0  0  0  0  0  0  0  0  0  0  0
   11.0923  -15.0748   25.0000 C   0  0  0  0  0  0  0  0  0  0  0  0
   11.4036  -16.4226   24.3865 C   0  0  2  0  0  0  0  0  0  0  0  0
   10.3482  -16.9136   23.5594 N   0  0  0  0  0  0  0  0  0  0  0  0
   11.8734  -17.3977   25.3930 C   0  0  0  0  0  0  0  0  0  0  0  0
   13.1000  -17.2920   26.0209 O   0  0  0  0  0  0  0  0  0  0  0  0
   11.6062  -16.0500   27.1967 C   0  0  0  0  0  0  0  0  0  0  0  0
   11.4029  -16.0470   28.5654 C   0  0  0  0  0  0  0  0  0  0  0  0
   11.1444  -18.3680   25.7040 O   0  0  0  0  0  0  0  0  0  0  0  0
  2  1  1  0
  3  2  2  0
  4  2  1  0
  5  4  1  0
  6  5  1  0
  6  8  1  0
  6  7  1  1
  8  9  2  0
 11 10  1  1
 12  8  1  0
 12 11  1  0
 13 11  1  0
 13 14  2  0
 15 16  1  0
 16 17  2  0
 17 18  1  0
 19 18  2  0
 19 20  1  0
 21 20  1  1
 21 22  1  0
 22 13  1  0
 23 24  1  0
 23 21  1  0
 25 19  1  0
 26 16  1  0
 26 25  2  0
 27 23  2  0
M  END
$$$$
