YQL.pdb
     RDKit          3D

 30 30  0  0  1  0  0  0  0  0999 V2000
    5.2212   -9.9934   25.2108 O   0  0  0  0  0  0  0  0  0  0  0  0
    5.8791  -11.2101   25.2704 C   0  0  0  0  0  0  0  0  0  0  0  0
    6.9880  -11.4413   24.4876 C   0  0  0  0  0  0  0  0  0  0  0  0
    7.6444  -12.6542   24.5464 C   0  0  0  0  0  0  0  0  0  0  0  0
    7.2165  -13.6726   25.3860 C   0  0  0  0  0  0  0  0  0  0  0  0
    7.9559  -14.9557   25.4121 C   0  0  0  0  0  0  0  0  0  0  0  0
    7.2560  -15.8908   24.4319 C   0  0  2  0  0  0  0  0  0  0  0  0
    6.0245  -16.3957   24.9666 N   0  0  0  0  0  0  0  0  0  0  0  0
    8.1516  -17.0364   24.1448 C   0  0  0  0  0  0  0  0  0  0  0  0
    8.0034  -18.1298   24.7797 O   0  0  0  0  0  0  0  0  0  0  0  0
    6.0985  -13.4479   26.1793 C   0  0  0  0  0  0  0  0  0  0  0  0
    5.4680  -12.2331   26.0986 C   0  0  0  0  0  0  0  0  0  0  0  0
   12.7990  -17.5467   19.6534 N   0  0  0  0  0  0  0  0  0  0  0  0
   11.3887  -17.6387   19.5799 C   0  0  0  0  0  0  0  0  0  0  0  0
   10.8261  -17.3924   18.4925 O   0  0  0  0  0  0  0  0  0  0  0  0
   10.5915  -18.0178   20.7613 C   0  0  0  0  0  0  0  0  0  0  0  0
   11.2484  -17.4817   21.9864 C   0  0  0  0  0  0  0  0  0  0  0  0
   10.3926  -17.6790   23.2351 C   0  0  2  0  0  0  0  0  0  0  0  0
    9.1738  -16.9204   23.1656 N   0  0  0  0  0  0  0  0  0  0  0  0
   11.2461  -17.2627   24.3827 C   0  0  0  0  0  0  0  0  0  0  0  0
   11.9329  -16.2187   24.2378 O   0  0  0  0  0  0  0  0  0  0  0  0
    9.6252  -15.4251   29.4408 C   0  0  0  0  0  0  0  0  0  0  0  0
   10.9014  -15.8792   28.7134 C   0  0  2  0  0  0  0  0  0  0  0  0
   11.8185  -14.7001   28.6229 C   0  0  0  0  0  0  0  0  0  0  0  0
   10.5609  -16.4922   27.3867 C   0  0  0  0  0  0  0  0  0  0  0  0
   11.6958  -17.3176   26.8836 C   0  0  2  0  0  0  0  0  0  0  0  0
   11.3284  -17.9530   25.5941 N   0  0  0  0  0  0  0  0  0  0  0  0
   11.9852  -18.4199   27.7974 C   0  0  0  0  0  0  0  0  0  0  0  0
   13.0328  -18.3418   28.6911 O   0  0  0  0  0  0  0  0  0  0  0  0
   11.3026  -19.4590   27.8011 O   0  0  0  0  0  0  0  0  0  0  0  0
  2  3  2  0
  2  1  1  0
  4  3  1  0
  5  4  2  0
  6  5  1  0
  7  9  1  0
  7  6  1  0
  7  8  1  1
  9 10  2  0
 11  5  1  0
 11 12  2  0
 12  2  1  0
 14 15  2  0
 14 13  1  0
 16 14  1  0
 17 16  1  0
 18 17  1  6
 19 18  1  0
 19  9  1  0
 20 21  2  0
 20 18  1  0
 23 25  1  0
 23 22  1  6
 24 23  1  0
 26 25  1  1
 26 27  1  0
 27 20  1  0
 28 26  1  0
 28 29  1  0
 30 28  2  0
M  END
$$$$
