YQL.pdb
     RDKit          3D

 30 30  0  0  1  0  0  0  0  0999 V2000
    7.5734  -12.8093   15.1969 O   0  0  0  0  0  0  0  0  0  0  0  0
    7.5033  -13.3822   16.4552 C   0  0  0  0  0  0  0  0  0  0  0  0
    7.5091  -12.5910   17.5820 C   0  0  0  0  0  0  0  0  0  0  0  0
    7.4392  -13.1616   18.8370 C   0  0  0  0  0  0  0  0  0  0  0  0
    7.3615  -14.5364   19.0074 C   0  0  0  0  0  0  0  0  0  0  0  0
    7.2884  -15.0989   20.3756 C   0  0  0  0  0  0  0  0  0  0  0  0
    8.6473  -14.8623   21.0255 C   0  0  2  0  0  0  0  0  0  0  0  0
    9.7227  -15.2982   20.1823 N   0  0  0  0  0  0  0  0  0  0  0  0
    8.7056  -15.6221   22.2969 C   0  0  0  0  0  0  0  0  0  0  0  0
    7.7474  -15.5350   23.1303 O   0  0  0  0  0  0  0  0  0  0  0  0
    7.3552  -15.3422   17.8759 C   0  0  0  0  0  0  0  0  0  0  0  0
    7.4257  -14.7460   16.6433 C   0  0  0  0  0  0  0  0  0  0  0  0
   13.2286  -19.7885   23.5569 N   0  0  0  0  0  0  0  0  0  0  0  0
   12.1127  -20.0388   22.7233 C   0  0  0  0  0  0  0  0  0  0  0  0
   12.1660  -20.9916   21.9176 O   0  0  0  0  0  0  0  0  0  0  0  0
   10.9058  -19.1947   22.7990 C   0  0  0  0  0  0  0  0  0  0  0  0
   11.1189  -18.1280   23.8170 C   0  0  0  0  0  0  0  0  0  0  0  0
    9.9711  -17.1220   23.8498 C   0  0  2  0  0  0  0  0  0  0  0  0
    9.8246  -16.4463   22.5897 N   0  0  0  0  0  0  0  0  0  0  0  0
   10.2894  -16.1780   24.9571 C   0  0  0  0  0  0  0  0  0  0  0  0
   10.5858  -14.9978   24.6375 O   0  0  0  0  0  0  0  0  0  0  0  0
    9.1656  -12.8369   27.7062 C   0  0  0  0  0  0  0  0  0  0  0  0
    8.3603  -13.7617   26.7786 C   0  0  2  0  0  0  0  0  0  0  0  0
    6.9592  -13.2392   26.7187 C   0  0  0  0  0  0  0  0  0  0  0  0
    8.4624  -15.1865   27.2383 C   0  0  0  0  0  0  0  0  0  0  0  0
    9.8901  -15.5855   27.3963 C   0  0  2  0  0  0  0  0  0  0  0  0
   10.2787  -16.5200   26.3112 N   0  0  0  0  0  0  0  0  0  0  0  0
   10.0917  -16.3222   28.6414 C   0  0  0  0  0  0  0  0  0  0  0  0
   10.2541  -17.6919   28.6349 O   0  0  0  0  0  0  0  0  0  0  0  0
   10.1235  -15.7449   29.7420 O   0  0  0  0  0  0  0  0  0  0  0  0
  2  3  2  0
  2  1  1  0
  4  3  1  0
  5  4  2  0
  6  5  1  0
  7  9  1  0
  7  6  1  0
  7  8  1  6
  9 10  2  0
 11  5  1  0
 11 12  2  0
 12  2  1  0
 14 15  2  0
 14 13  1  0
 16 14  1  0
 17 16  1  0
 18 17  1  6
 19 18  1  0
 19  9  1  0
 20 21  2  0
 20 18  1  0
 23 25  1  0
 23 22  1  1
 24 23  1  0
 26 25  1  6
 26 27  1  0
 27 20  1  0
 28 26  1  0
 28 29  1  0
 30 28  2  0
M  END
$$$$
