YQL.pdb
     RDKit          3D

 30 30  0  0  1  0  0  0  0  0999 V2000
    8.0951  -11.8762   17.4108 O   0  0  0  0  0  0  0  0  0  0  0  0
    8.1156  -12.6955   18.5267 C   0  0  0  0  0  0  0  0  0  0  0  0
    9.2962  -13.2607   18.9540 C   0  0  0  0  0  0  0  0  0  0  0  0
    9.3175  -14.0776   20.0664 C   0  0  0  0  0  0  0  0  0  0  0  0
    8.1644  -14.3560   20.7863 C   0  0  0  0  0  0  0  0  0  0  0  0
    8.2407  -15.2388   21.9731 C   0  0  0  0  0  0  0  0  0  0  0  0
    8.9638  -16.5081   21.5358 C   0  0  2  0  0  0  0  0  0  0  0  0
    8.2074  -17.2421   20.5629 N   0  0  0  0  0  0  0  0  0  0  0  0
    9.1707  -17.3710   22.7230 C   0  0  0  0  0  0  0  0  0  0  0  0
    8.1698  -17.9124   23.2937 O   0  0  0  0  0  0  0  0  0  0  0  0
    6.9689  -13.7899   20.3622 C   0  0  0  0  0  0  0  0  0  0  0  0
    6.9799  -12.9829   19.2538 C   0  0  0  0  0  0  0  0  0  0  0  0
   13.5097  -21.4413   23.6971 N   0  0  0  0  0  0  0  0  0  0  0  0
   12.6108  -21.1225   22.6515 C   0  0  0  0  0  0  0  0  0  0  0  0
   12.7041  -21.7394   21.5696 O   0  0  0  0  0  0  0  0  0  0  0  0
   11.5804  -20.0824   22.8288 C   0  0  0  0  0  0  0  0  0  0  0  0
   11.7222  -19.4805   24.1843 C   0  0  0  0  0  0  0  0  0  0  0  0
   10.7204  -18.3539   24.4246 C   0  0  2  0  0  0  0  0  0  0  0  0
   10.4793  -17.5969   23.2269 N   0  0  0  0  0  0  0  0  0  0  0  0
   11.3039  -17.5153   25.5085 C   0  0  0  0  0  0  0  0  0  0  0  0
   12.0557  -16.5687   25.1598 O   0  0  0  0  0  0  0  0  0  0  0  0
    8.6655  -13.5587   28.0020 C   0  0  0  0  0  0  0  0  0  0  0  0
    9.7993  -14.5146   28.4079 C   0  0  2  0  0  0  0  0  0  0  0  0
   11.0469  -13.7025   28.5614 C   0  0  0  0  0  0  0  0  0  0  0  0
    9.9187  -15.6384   27.4208 C   0  0  0  0  0  0  0  0  0  0  0  0
   10.9577  -16.6134   27.8594 C   0  0  2  0  0  0  0  0  0  0  0  0
   11.0697  -17.7144   26.8710 N   0  0  0  0  0  0  0  0  0  0  0  0
   10.5776  -17.2510   29.1175 C   0  0  0  0  0  0  0  0  0  0  0  0
   10.0844  -18.5389   29.1374 O   0  0  0  0  0  0  0  0  0  0  0  0
   10.6844  -16.6595   30.2058 O   0  0  0  0  0  0  0  0  0  0  0  0
  2  3  2  0
  2  1  1  0
  4  3  1  0
  5  4  2  0
  6  5  1  0
  7  9  1  0
  7  6  1  0
  7  8  1  6
  9 10  2  0
 11  5  1  0
 11 12  2  0
 12  2  1  0
 14 15  2  0
 14 13  1  0
 16 14  1  0
 17 16  1  0
 18 17  1  6
 19 18  1  0
 19  9  1  0
 20 21  2  0
 20 18  1  0
 23 25  1  0
 23 22  1  6
 24 23  1  0
 26 25  1  6
 26 27  1  0
 27 20  1  0
 28 26  1  0
 28 29  1  0
 30 28  2  0
M  END
$$$$
