YQL.pdb
     RDKit          3D

 30 30  0  0  1  0  0  0  0  0999 V2000
    8.2194  -12.4007   16.1448 O   0  0  0  0  0  0  0  0  0  0  0  0
    8.0176  -12.8814   17.4274 C   0  0  0  0  0  0  0  0  0  0  0  0
    9.0889  -13.2533   18.2083 C   0  0  0  0  0  0  0  0  0  0  0  0
    8.8885  -13.7327   19.4871 C   0  0  0  0  0  0  0  0  0  0  0  0
    7.6160  -13.8560   20.0263 C   0  0  0  0  0  0  0  0  0  0  0  0
    7.4547  -14.3758   21.4038 C   0  0  0  0  0  0  0  0  0  0  0  0
    7.6119  -15.8906   21.3273 C   0  0  2  0  0  0  0  0  0  0  0  0
    6.5685  -16.4944   20.5501 N   0  0  0  0  0  0  0  0  0  0  0  0
    7.5591  -16.4445   22.7011 C   0  0  0  0  0  0  0  0  0  0  0  0
    6.4403  -16.7874   23.2023 O   0  0  0  0  0  0  0  0  0  0  0  0
    6.5294  -13.4830   19.2453 C   0  0  0  0  0  0  0  0  0  0  0  0
    6.7606  -13.0106   17.9792 C   0  0  0  0  0  0  0  0  0  0  0  0
    6.3267  -18.5303   26.7733 N   0  0  0  0  0  0  0  0  0  0  0  0
    7.0767  -19.6741   26.4101 C   0  0  0  0  0  0  0  0  0  0  0  0
    6.5909  -20.8045   26.6246 O   0  0  0  0  0  0  0  0  0  0  0  0
    8.4078  -19.5417   25.7894 C   0  0  0  0  0  0  0  0  0  0  0  0
    8.2847  -18.7490   24.5339 C   0  0  0  0  0  0  0  0  0  0  0  0
    8.7812  -17.3155   24.7038 C   0  0  2  0  0  0  0  0  0  0  0  0
    8.7497  -16.5946   23.4608 N   0  0  0  0  0  0  0  0  0  0  0  0
   10.1619  -17.4258   25.2517 C   0  0  0  0  0  0  0  0  0  0  0  0
   10.6654  -18.5773   25.3106 O   0  0  0  0  0  0  0  0  0  0  0  0
    8.3115  -13.3534   28.6288 C   0  0  0  0  0  0  0  0  0  0  0  0
    9.4884  -14.3397   28.5515 C   0  0  2  0  0  0  0  0  0  0  0  0
   10.6954  -13.6536   29.1101 C   0  0  0  0  0  0  0  0  0  0  0  0
    9.6643  -14.8400   27.1478 C   0  0  0  0  0  0  0  0  0  0  0  0
   10.8244  -15.7727   27.0650 C   0  0  2  0  0  0  0  0  0  0  0  0
   10.9211  -16.3419   25.6981 N   0  0  0  0  0  0  0  0  0  0  0  0
   10.6400  -16.9159   27.9554 C   0  0  0  0  0  0  0  0  0  0  0  0
   11.5783  -17.2206   28.9193 O   0  0  0  0  0  0  0  0  0  0  0  0
    9.6387  -17.6484   27.8759 O   0  0  0  0  0  0  0  0  0  0  0  0
  2  3  2  0
  2  1  1  0
  4  3  1  0
  5  4  2  0
  6  5  1  0
  7  9  1  0
  7  6  1  0
  7  8  1  6
  9 10  2  0
 11  5  1  0
 11 12  2  0
 12  2  1  0
 14 15  2  0
 14 13  1  0
 16 14  1  0
 17 16  1  0
 18 17  1  6
 19 18  1  0
 19  9  1  0
 20 21  2  0
 20 18  1  0
 23 25  1  0
 23 22  1  6
 24 23  1  0
 26 25  1  6
 26 27  1  0
 27 20  1  0
 28 26  1  0
 28 29  1  0
 30 28  2  0
M  END
$$$$
