YQL.pdb
     RDKit          3D

 30 30  0  0  1  0  0  0  0  0999 V2000
    8.1250  -14.2560   14.7598 O   0  0  0  0  0  0  0  0  0  0  0  0
    7.8043  -14.3258   16.1047 C   0  0  0  0  0  0  0  0  0  0  0  0
    7.4313  -15.5244   16.6705 C   0  0  0  0  0  0  0  0  0  0  0  0
    7.1114  -15.5947   18.0114 C   0  0  0  0  0  0  0  0  0  0  0  0
    7.1534  -14.4742   18.8286 C   0  0  0  0  0  0  0  0  0  0  0  0
    6.8008  -14.6028   20.2615 C   0  0  0  0  0  0  0  0  0  0  0  0
    8.0163  -14.1445   21.0601 C   0  0  2  0  0  0  0  0  0  0  0  0
    9.2016  -14.1143   20.2530 N   0  0  0  0  0  0  0  0  0  0  0  0
    8.2322  -15.0887   22.1821 C   0  0  0  0  0  0  0  0  0  0  0  0
    7.2580  -15.4073   22.9370 O   0  0  0  0  0  0  0  0  0  0  0  0
    7.5286  -13.2608   18.2661 C   0  0  0  0  0  0  0  0  0  0  0  0
    7.8405  -13.2229   16.9315 C   0  0  0  0  0  0  0  0  0  0  0  0
   13.1247  -19.9954   23.8963 N   0  0  0  0  0  0  0  0  0  0  0  0
   11.7775  -19.6116   23.6950 C   0  0  0  0  0  0  0  0  0  0  0  0
   11.0529  -20.3213   22.9663 O   0  0  0  0  0  0  0  0  0  0  0  0
   11.2324  -18.3977   24.3306 C   0  0  0  0  0  0  0  0  0  0  0  0
   11.0496  -17.3435   23.2937 C   0  0  0  0  0  0  0  0  0  0  0  0
    9.7873  -16.5169   23.5255 C   0  0  2  0  0  0  0  0  0  0  0  0
    9.5197  -15.6394   22.4190 N   0  0  0  0  0  0  0  0  0  0  0  0
   10.0195  -15.7665   24.7911 C   0  0  0  0  0  0  0  0  0  0  0  0
   11.2044  -15.4332   25.0513 O   0  0  0  0  0  0  0  0  0  0  0  0
    8.2868  -11.9502   26.2296 C   0  0  0  0  0  0  0  0  0  0  0  0
    7.3984  -13.1878   26.4371 C   0  0  2  0  0  0  0  0  0  0  0  0
    6.0198  -12.7089   26.7683 C   0  0  0  0  0  0  0  0  0  0  0  0
    7.9951  -14.0963   27.4717 C   0  0  0  0  0  0  0  0  0  0  0  0
    9.2625  -14.7007   26.9708 C   0  0  2  0  0  0  0  0  0  0  0  0
    9.0138  -15.4153   25.6944 N   0  0  0  0  0  0  0  0  0  0  0  0
    9.7606  -15.7132   27.8984 C   0  0  0  0  0  0  0  0  0  0  0  0
    9.7144  -17.0532   27.5748 O   0  0  0  0  0  0  0  0  0  0  0  0
   10.2397  -15.4049   29.0033 O   0  0  0  0  0  0  0  0  0  0  0  0
  2  3  2  0
  2  1  1  0
  4  3  1  0
  5  4  2  0
  6  5  1  0
  7  9  1  0
  7  6  1  0
  7  8  1  6
  9 10  2  0
 11  5  1  0
 11 12  2  0
 12  2  1  0
 14 15  2  0
 14 13  1  0
 16 14  1  0
 17 16  1  0
 18 17  1  6
 19 18  1  0
 19  9  1  0
 20 21  2  0
 20 18  1  0
 23 25  1  0
 23 22  1  1
 24 23  1  0
 26 25  1  1
 26 27  1  0
 27 20  1  0
 28 26  1  0
 28 29  1  0
 30 28  2  0
M  END
$$$$
