YQL.pdb
     RDKit          3D

 30 30  0  0  1  0  0  0  0  0999 V2000
    7.3984  -12.1338   16.4012 O   0  0  0  0  0  0  0  0  0  0  0  0
    7.4808  -12.8341   17.5926 C   0  0  0  0  0  0  0  0  0  0  0  0
    6.6809  -13.9333   17.8112 C   0  0  0  0  0  0  0  0  0  0  0  0
    6.7625  -14.6320   18.9988 C   0  0  0  0  0  0  0  0  0  0  0  0
    7.6427  -14.2573   20.0038 C   0  0  0  0  0  0  0  0  0  0  0  0
    7.6919  -15.0407   21.2599 C   0  0  0  0  0  0  0  0  0  0  0  0
    8.6075  -16.2328   21.0034 C   0  0  2  0  0  0  0  0  0  0  0  0
    8.0782  -17.1014   19.9921 N   0  0  0  0  0  0  0  0  0  0  0  0
    8.7494  -17.0034   22.2616 C   0  0  0  0  0  0  0  0  0  0  0  0
    8.1862  -18.1394   22.3745 O   0  0  0  0  0  0  0  0  0  0  0  0
    8.4535  -13.1495   19.7918 C   0  0  0  0  0  0  0  0  0  0  0  0
    8.3494  -12.4762   18.6020 C   0  0  0  0  0  0  0  0  0  0  0  0
   13.5968  -19.4874   22.7350 N   0  0  0  0  0  0  0  0  0  0  0  0
   12.3654  -20.1793   22.8228 C   0  0  0  0  0  0  0  0  0  0  0  0
   12.3525  -21.4115   22.6200 O   0  0  0  0  0  0  0  0  0  0  0  0
   11.1165  -19.4652   23.1472 C   0  0  0  0  0  0  0  0  0  0  0  0
   11.4181  -18.0199   23.3474 C   0  0  0  0  0  0  0  0  0  0  0  0
   10.3419  -17.3126   24.1671 C   0  0  2  0  0  0  0  0  0  0  0  0
    9.5100  -16.4809   23.3413 N   0  0  0  0  0  0  0  0  0  0  0  0
   11.0701  -16.5249   25.2005 C   0  0  0  0  0  0  0  0  0  0  0  0
   11.9537  -15.7260   24.7957 O   0  0  0  0  0  0  0  0  0  0  0  0
    7.0885  -13.4883   27.2334 C   0  0  0  0  0  0  0  0  0  0  0  0
    8.4894  -13.8978   27.7168 C   0  0  2  0  0  0  0  0  0  0  0  0
    9.3288  -12.6605   27.7818 C   0  0  0  0  0  0  0  0  0  0  0  0
    9.0551  -14.9750   26.8386 C   0  0  0  0  0  0  0  0  0  0  0  0
   10.3319  -15.4965   27.4045 C   0  0  2  0  0  0  0  0  0  0  0  0
   10.8340  -16.6189   26.5739 N   0  0  0  0  0  0  0  0  0  0  0  0
   10.1224  -16.0561   28.7374 C   0  0  0  0  0  0  0  0  0  0  0  0
   10.5373  -15.3764   29.8635 O   0  0  0  0  0  0  0  0  0  0  0  0
    9.5672  -17.1562   28.9020 O   0  0  0  0  0  0  0  0  0  0  0  0
  2  3  2  0
  2  1  1  0
  4  3  1  0
  5  4  2  0
  6  5  1  0
  7  9  1  0
  7  6  1  0
  7  8  1  6
  9 10  2  0
 11  5  1  0
 11 12  2  0
 12  2  1  0
 14 15  2  0
 14 13  1  0
 16 14  1  0
 17 16  1  0
 18 17  1  6
 19 18  1  0
 19  9  1  0
 20 21  2  0
 20 18  1  0
 23 25  1  0
 23 22  1  6
 24 23  1  0
 26 25  1  6
 26 27  1  0
 27 20  1  0
 28 26  1  0
 28 29  1  0
 30 28  2  0
M  END
$$$$
