YQL.pdb
     RDKit          3D

 30 30  0  0  1  0  0  0  0  0999 V2000
    8.1554  -12.5217   16.6210 O   0  0  0  0  0  0  0  0  0  0  0  0
    8.0078  -13.2581   17.7840 C   0  0  0  0  0  0  0  0  0  0  0  0
    8.2384  -14.6155   17.7827 C   0  0  0  0  0  0  0  0  0  0  0  0
    8.0915  -15.3505   18.9419 C   0  0  0  0  0  0  0  0  0  0  0  0
    7.7108  -14.7560   20.1364 C   0  0  0  0  0  0  0  0  0  0  0  0
    7.5672  -15.5891   21.3526 C   0  0  0  0  0  0  0  0  0  0  0  0
    7.9556  -17.0115   20.9640 C   0  0  2  0  0  0  0  0  0  0  0  0
    6.8353  -17.7475   20.4537 N   0  0  0  0  0  0  0  0  0  0  0  0
    8.4717  -17.7091   22.1657 C   0  0  0  0  0  0  0  0  0  0  0  0
    7.8457  -18.7152   22.6308 O   0  0  0  0  0  0  0  0  0  0  0  0
    7.4761  -13.3869   20.1467 C   0  0  0  0  0  0  0  0  0  0  0  0
    7.6303  -12.6842   18.9796 C   0  0  0  0  0  0  0  0  0  0  0  0
   13.8911  -19.8115   23.8502 N   0  0  0  0  0  0  0  0  0  0  0  0
   13.7687  -18.6318   23.0781 C   0  0  0  0  0  0  0  0  0  0  0  0
   14.7929  -18.1496   22.5508 O   0  0  0  0  0  0  0  0  0  0  0  0
   12.4593  -17.9785   22.8951 C   0  0  0  0  0  0  0  0  0  0  0  0
   11.4197  -18.7541   23.6282 C   0  0  0  0  0  0  0  0  0  0  0  0
   10.1970  -17.9055   23.9678 C   0  0  2  0  0  0  0  0  0  0  0  0
    9.6605  -17.2608   22.8006 N   0  0  0  0  0  0  0  0  0  0  0  0
   10.6554  -16.9225   24.9889 C   0  0  0  0  0  0  0  0  0  0  0  0
   11.3870  -15.9800   24.5899 O   0  0  0  0  0  0  0  0  0  0  0  0
    7.6414  -13.0053   27.4758 C   0  0  0  0  0  0  0  0  0  0  0  0
    8.9241  -13.7944   27.7852 C   0  0  2  0  0  0  0  0  0  0  0  0
   10.0752  -12.8410   27.7096 C   0  0  0  0  0  0  0  0  0  0  0  0
    9.0484  -14.9767   26.8696 C   0  0  0  0  0  0  0  0  0  0  0  0
   10.2414  -15.7953   27.2289 C   0  0  2  0  0  0  0  0  0  0  0  0
   10.3261  -16.9839   26.3447 N   0  0  0  0  0  0  0  0  0  0  0  0
   10.1239  -16.3219   28.5864 C   0  0  0  0  0  0  0  0  0  0  0  0
   10.5916  -15.6036   29.6670 O   0  0  0  0  0  0  0  0  0  0  0  0
    9.6023  -17.4273   28.8132 O   0  0  0  0  0  0  0  0  0  0  0  0
  2  3  2  0
  2  1  1  0
  4  3  1  0
  5  4  2  0
  6  5  1  0
  7  9  1  0
  7  6  1  0
  7  8  1  1
  9 10  2  0
 11  5  1  0
 11 12  2  0
 12  2  1  0
 14 15  2  0
 14 13  1  0
 16 14  1  0
 17 16  1  0
 18 17  1  6
 19 18  1  0
 19  9  1  0
 20 21  2  0
 20 18  1  0
 23 25  1  0
 23 22  1  6
 24 23  1  0
 26 25  1  6
 26 27  1  0
 27 20  1  0
 28 26  1  0
 28 29  1  0
 30 28  2  0
M  END
$$$$
