YQL.pdb
     RDKit          3D

 30 30  0  0  1  0  0  0  0  0999 V2000
    8.4083  -12.5301   16.0065 O   0  0  0  0  0  0  0  0  0  0  0  0
    8.1663  -13.0049   17.2843 C   0  0  0  0  0  0  0  0  0  0  0  0
    9.2140  -13.3030   18.1265 C   0  0  0  0  0  0  0  0  0  0  0  0
    8.9735  -13.7766   19.4006 C   0  0  0  0  0  0  0  0  0  0  0  0
    7.6833  -13.9673   19.8739 C   0  0  0  0  0  0  0  0  0  0  0  0
    7.4788  -14.4776   21.2492 C   0  0  0  0  0  0  0  0  0  0  0  0
    7.6315  -15.9936   21.1869 C   0  0  2  0  0  0  0  0  0  0  0  0
    6.4601  -16.6239   20.6503 N   0  0  0  0  0  0  0  0  0  0  0  0
    7.8575  -16.5059   22.5593 C   0  0  0  0  0  0  0  0  0  0  0  0
    6.8624  -16.7590   23.3118 O   0  0  0  0  0  0  0  0  0  0  0  0
    6.6203  -13.6691   19.0308 C   0  0  0  0  0  0  0  0  0  0  0  0
    6.8911  -13.2005   17.7711 C   0  0  0  0  0  0  0  0  0  0  0  0
   12.7699  -19.7096   24.6585 N   0  0  0  0  0  0  0  0  0  0  0  0
   12.1117  -19.3771   25.8664 C   0  0  0  0  0  0  0  0  0  0  0  0
   12.5386  -19.8599   26.9361 O   0  0  0  0  0  0  0  0  0  0  0  0
   10.9429  -18.4778   25.8697 C   0  0  0  0  0  0  0  0  0  0  0  0
   10.6625  -18.0361   24.4747 C   0  0  0  0  0  0  0  0  0  0  0  0
    9.4482  -17.1145   24.3929 C   0  0  2  0  0  0  0  0  0  0  0  0
    9.1778  -16.7158   23.0387 N   0  0  0  0  0  0  0  0  0  0  0  0
    9.7621  -15.9499   25.2669 C   0  0  0  0  0  0  0  0  0  0  0  0
   10.7930  -15.2848   24.9881 O   0  0  0  0  0  0  0  0  0  0  0  0
    6.5043  -11.9921   26.9293 C   0  0  0  0  0  0  0  0  0  0  0  0
    7.9740  -12.4437   26.9308 C   0  0  2  0  0  0  0  0  0  0  0  0
    8.4226  -12.5401   25.5063 C   0  0  0  0  0  0  0  0  0  0  0  0
    8.1325  -13.7167   27.7093 C   0  0  0  0  0  0  0  0  0  0  0  0
    9.3579  -14.4470   27.2763 C   0  0  2  0  0  0  0  0  0  0  0  0
    8.9906  -15.5572   26.3629 N   0  0  0  0  0  0  0  0  0  0  0  0
   10.0202  -15.0772   28.4156 C   0  0  0  0  0  0  0  0  0  0  0  0
   10.0198  -16.4484   28.5646 O   0  0  0  0  0  0  0  0  0  0  0  0
   10.6026  -14.4048   29.2841 O   0  0  0  0  0  0  0  0  0  0  0  0
  2  3  2  0
  2  1  1  0
  4  3  1  0
  5  4  2  0
  6  5  1  0
  7  9  1  0
  7  6  1  0
  7  8  1  1
  9 10  2  0
 11  5  1  0
 11 12  2  0
 12  2  1  0
 14 15  2  0
 14 13  1  0
 16 14  1  0
 17 16  1  0
 18 17  1  6
 19 18  1  0
 19  9  1  0
 20 21  2  0
 20 18  1  0
 23 25  1  0
 23 22  1  6
 24 23  1  0
 26 25  1  1
 26 27  1  0
 27 20  1  0
 28 26  1  0
 28 29  1  0
 30 28  2  0
M  END
$$$$
