YQL.pdb
     RDKit          3D

 30 30  0  0  1  0  0  0  0  0999 V2000
    8.3428  -12.2962   17.0277 O   0  0  0  0  0  0  0  0  0  0  0  0
    8.1836  -12.9102   18.2583 C   0  0  0  0  0  0  0  0  0  0  0  0
    7.0045  -12.7755   18.9564 C   0  0  0  0  0  0  0  0  0  0  0  0
    6.8450  -13.3874   20.1834 C   0  0  0  0  0  0  0  0  0  0  0  0
    7.8544  -14.1514   20.7516 C   0  0  0  0  0  0  0  0  0  0  0  0
    7.6332  -14.7873   22.0708 C   0  0  0  0  0  0  0  0  0  0  0  0
    7.7719  -16.2921   21.8666 C   0  0  2  0  0  0  0  0  0  0  0  0
    6.5819  -16.8640   21.3059 N   0  0  0  0  0  0  0  0  0  0  0  0
    8.0291  -16.9290   23.1800 C   0  0  0  0  0  0  0  0  0  0  0  0
    7.0869  -17.0281   24.0303 O   0  0  0  0  0  0  0  0  0  0  0  0
    9.0473  -14.2925   20.0541 C   0  0  0  0  0  0  0  0  0  0  0  0
    9.1756  -13.6728   18.8378 C   0  0  0  0  0  0  0  0  0  0  0  0
   11.9066  -22.1118   26.5840 N   0  0  0  0  0  0  0  0  0  0  0  0
   11.6997  -21.1120   25.6041 C   0  0  0  0  0  0  0  0  0  0  0  0
   12.3172  -21.1942   24.5217 O   0  0  0  0  0  0  0  0  0  0  0  0
   10.7735  -19.9908   25.8494 C   0  0  0  0  0  0  0  0  0  0  0  0
   10.5597  -19.2465   24.5766 C   0  0  0  0  0  0  0  0  0  0  0  0
    9.6137  -18.0612   24.7516 C   0  0  2  0  0  0  0  0  0  0  0  0
    9.3207  -17.4290   23.4945 N   0  0  0  0  0  0  0  0  0  0  0  0
   10.2939  -17.1345   25.6988 C   0  0  0  0  0  0  0  0  0  0  0  0
   11.2660  -16.4712   25.2538 O   0  0  0  0  0  0  0  0  0  0  0  0
   10.5232  -13.2171   27.1880 C   0  0  0  0  0  0  0  0  0  0  0  0
    9.3576  -14.1266   27.6100 C   0  0  2  0  0  0  0  0  0  0  0  0
    8.2380  -13.2477   28.0722 C   0  0  0  0  0  0  0  0  0  0  0  0
    9.8133  -15.1253   28.6331 C   0  0  0  0  0  0  0  0  0  0  0  0
   10.6959  -16.1512   28.0078 C   0  0  2  0  0  0  0  0  0  0  0  0
    9.9223  -16.9602   27.0338 N   0  0  0  0  0  0  0  0  0  0  0  0
   11.1844  -17.0987   29.0065 C   0  0  0  0  0  0  0  0  0  0  0  0
   12.1991  -16.7520   29.8740 O   0  0  0  0  0  0  0  0  0  0  0  0
   10.7063  -18.2417   29.1086 O   0  0  0  0  0  0  0  0  0  0  0  0
  2  3  2  0
  2  1  1  0
  4  3  1  0
  5  4  2  0
  6  5  1  0
  7  9  1  0
  7  6  1  0
  7  8  1  1
  9 10  2  0
 11  5  1  0
 11 12  2  0
 12  2  1  0
 14 15  2  0
 14 13  1  0
 16 14  1  0
 17 16  1  0
 18 17  1  6
 19 18  1  0
 19  9  1  0
 20 21  2  0
 20 18  1  0
 23 25  1  0
 23 22  1  1
 24 23  1  0
 26 25  1  1
 26 27  1  0
 27 20  1  0
 28 26  1  0
 28 29  1  0
 30 28  2  0
M  END
$$$$
