YQL.pdb
     RDKit          3D

 30 30  0  0  1  0  0  0  0  0999 V2000
    8.9553  -13.0756   17.1644 O   0  0  0  0  0  0  0  0  0  0  0  0
    8.3741  -13.4969   18.3482 C   0  0  0  0  0  0  0  0  0  0  0  0
    8.9539  -14.5019   19.0896 C   0  0  0  0  0  0  0  0  0  0  0  0
    8.3751  -14.9225   20.2700 C   0  0  0  0  0  0  0  0  0  0  0  0
    7.2022  -14.3553   20.7472 C   0  0  0  0  0  0  0  0  0  0  0  0
    6.6214  -14.8425   22.0197 C   0  0  0  0  0  0  0  0  0  0  0  0
    6.5961  -16.3651   21.9413 C   0  0  2  0  0  0  0  0  0  0  0  0
    5.5173  -16.8371   21.1224 N   0  0  0  0  0  0  0  0  0  0  0  0
    6.4244  -16.9093   23.3093 C   0  0  0  0  0  0  0  0  0  0  0  0
    5.2881  -16.8415   23.8790 O   0  0  0  0  0  0  0  0  0  0  0  0
    6.6104  -13.3407   20.0055 C   0  0  0  0  0  0  0  0  0  0  0  0
    7.2091  -12.9448   18.8374 C   0  0  0  0  0  0  0  0  0  0  0  0
    7.3105  -21.8481   26.3234 N   0  0  0  0  0  0  0  0  0  0  0  0
    8.2367  -21.4523   25.3293 C   0  0  0  0  0  0  0  0  0  0  0  0
    8.9248  -22.3290   24.7657 O   0  0  0  0  0  0  0  0  0  0  0  0
    8.3921  -20.0329   24.9605 C   0  0  0  0  0  0  0  0  0  0  0  0
    7.4199  -19.2164   25.7403 C   0  0  0  0  0  0  0  0  0  0  0  0
    7.5150  -17.7296   25.4071 C   0  0  2  0  0  0  0  0  0  0  0  0
    7.5207  -17.5056   23.9874 N   0  0  0  0  0  0  0  0  0  0  0  0
    8.7666  -17.2471   26.0546 C   0  0  0  0  0  0  0  0  0  0  0  0
    9.8002  -17.1972   25.3391 O   0  0  0  0  0  0  0  0  0  0  0  0
    9.7031  -13.4564   27.0857 C   0  0  0  0  0  0  0  0  0  0  0  0
    8.9035  -14.1786   28.1825 C   0  0  2  0  0  0  0  0  0  0  0  0
    8.3057  -13.1347   29.0728 C   0  0  0  0  0  0  0  0  0  0  0  0
    9.7715  -15.1702   28.9001 C   0  0  0  0  0  0  0  0  0  0  0  0
   10.0994  -16.3206   28.0104 C   0  0  2  0  0  0  0  0  0  0  0  0
    8.8603  -16.8521   27.3910 N   0  0  0  0  0  0  0  0  0  0  0  0
   10.6634  -17.4291   28.7765 C   0  0  0  0  0  0  0  0  0  0  0  0
   11.9244  -17.3390   29.3279 O   0  0  0  0  0  0  0  0  0  0  0  0
   10.0312  -18.4843   28.9568 O   0  0  0  0  0  0  0  0  0  0  0  0
  2  3  2  0
  2  1  1  0
  4  3  1  0
  5  4  2  0
  6  5  1  0
  7  9  1  0
  7  6  1  0
  7  8  1  6
  9 10  2  0
 11  5  1  0
 11 12  2  0
 12  2  1  0
 14 15  2  0
 14 13  1  0
 16 14  1  0
 17 16  1  0
 18 17  1  6
 19 18  1  0
 19  9  1  0
 20 21  2  0
 20 18  1  0
 23 25  1  0
 23 22  1  6
 24 23  1  0
 26 25  1  1
 26 27  1  0
 27 20  1  0
 28 26  1  0
 28 29  1  0
 30 28  2  0
M  END
$$$$
