YQL.pdb
     RDKit          3D

 30 30  0  0  1  0  0  0  0  0999 V2000
    7.7312  -12.0225   17.1693 O   0  0  0  0  0  0  0  0  0  0  0  0
    7.7508  -12.8000   18.3147 C   0  0  0  0  0  0  0  0  0  0  0  0
    6.7265  -13.6826   18.5748 C   0  0  0  0  0  0  0  0  0  0  0  0
    6.7452  -14.4582   19.7165 C   0  0  0  0  0  0  0  0  0  0  0  0
    7.7840  -14.3781   20.6329 C   0  0  0  0  0  0  0  0  0  0  0  0
    7.7569  -15.2322   21.8427 C   0  0  0  0  0  0  0  0  0  0  0  0
    8.6722  -16.4202   21.5673 C   0  0  2  0  0  0  0  0  0  0  0  0
    8.1723  -17.2404   20.5020 N   0  0  0  0  0  0  0  0  0  0  0  0
    8.7644  -17.2448   22.7955 C   0  0  0  0  0  0  0  0  0  0  0  0
    8.0747  -18.3101   22.8954 O   0  0  0  0  0  0  0  0  0  0  0  0
    8.8215  -13.4902   20.3784 C   0  0  0  0  0  0  0  0  0  0  0  0
    8.7745  -12.7336   19.2360 C   0  0  0  0  0  0  0  0  0  0  0  0
   13.5854  -20.3140   23.9053 N   0  0  0  0  0  0  0  0  0  0  0  0
   12.4326  -20.7491   24.6014 C   0  0  0  0  0  0  0  0  0  0  0  0
   12.1842  -21.9722   24.6474 O   0  0  0  0  0  0  0  0  0  0  0  0
   11.5367  -19.7822   25.2626 C   0  0  0  0  0  0  0  0  0  0  0  0
   11.1019  -18.7607   24.2690 C   0  0  0  0  0  0  0  0  0  0  0  0
   10.0849  -17.7828   24.8521 C   0  0  2  0  0  0  0  0  0  0  0  0
    9.6178  -16.8527   23.8609 N   0  0  0  0  0  0  0  0  0  0  0  0
   10.7788  -17.0983   25.9785 C   0  0  0  0  0  0  0  0  0  0  0  0
   12.0005  -16.8389   25.8270 O   0  0  0  0  0  0  0  0  0  0  0  0
    9.9824  -13.3658   27.3111 C   0  0  0  0  0  0  0  0  0  0  0  0
    9.1342  -14.4056   28.0618 C   0  0  2  0  0  0  0  0  0  0  0  0
    7.9804  -13.6866   28.6875 C   0  0  0  0  0  0  0  0  0  0  0  0
    9.9805  -15.1694   29.0376 C   0  0  0  0  0  0  0  0  0  0  0  0
   10.8803  -16.1179   28.3213 C   0  0  2  0  0  0  0  0  0  0  0  0
   10.1624  -16.7322   27.1772 N   0  0  0  0  0  0  0  0  0  0  0  0
   11.2640  -17.2293   29.1880 C   0  0  0  0  0  0  0  0  0  0  0  0
   10.8584  -18.5176   28.9082 O   0  0  0  0  0  0  0  0  0  0  0  0
   11.9641  -17.0542   30.2003 O   0  0  0  0  0  0  0  0  0  0  0  0
  2  3  2  0
  2  1  1  0
  4  3  1  0
  5  4  2  0
  6  5  1  0
  7  9  1  0
  7  6  1  0
  7  8  1  6
  9 10  2  0
 11  5  1  0
 11 12  2  0
 12  2  1  0
 14 15  2  0
 14 13  1  0
 16 14  1  0
 17 16  1  0
 18 17  1  6
 19 18  1  0
 19  9  1  0
 20 21  2  0
 20 18  1  0
 23 25  1  0
 23 22  1  1
 24 23  1  0
 26 25  1  1
 26 27  1  0
 27 20  1  0
 28 26  1  0
 28 29  1  0
 30 28  2  0
M  END
$$$$
