YQL.pdb
     RDKit          3D

 30 30  0  0  1  0  0  0  0  0999 V2000
   10.0560  -23.8771   32.3123 O   0  0  0  0  0  0  0  0  0  0  0  0
   10.2942  -22.7641   31.5243 C   0  0  0  0  0  0  0  0  0  0  0  0
    9.3641  -22.3574   30.5940 C   0  0  0  0  0  0  0  0  0  0  0  0
    9.6010  -21.2478   29.8079 C   0  0  0  0  0  0  0  0  0  0  0  0
   10.7705  -20.5103   29.9245 C   0  0  0  0  0  0  0  0  0  0  0  0
   10.9765  -19.3274   29.0573 C   0  0  0  0  0  0  0  0  0  0  0  0
   11.3503  -19.8509   27.6747 C   0  0  2  0  0  0  0  0  0  0  0  0
   12.6719  -20.4081   27.6570 N   0  0  0  0  0  0  0  0  0  0  0  0
   11.2981  -18.7268   26.7100 C   0  0  0  0  0  0  0  0  0  0  0  0
   12.1884  -17.8178   26.7493 O   0  0  0  0  0  0  0  0  0  0  0  0
   11.7144  -20.9136   30.8605 C   0  0  0  0  0  0  0  0  0  0  0  0
   11.4504  -22.0197   31.6265 C   0  0  0  0  0  0  0  0  0  0  0  0
   12.9103  -17.6751   22.1821 N   0  0  0  0  0  0  0  0  0  0  0  0
   11.5096  -17.7342   21.9886 C   0  0  0  0  0  0  0  0  0  0  0  0
   10.9846  -16.9641   21.1574 O   0  0  0  0  0  0  0  0  0  0  0  0
   10.6789  -18.6849   22.7508 C   0  0  0  0  0  0  0  0  0  0  0  0
    9.6267  -17.9313   23.4891 C   0  0  0  0  0  0  0  0  0  0  0  0
   10.0835  -17.5184   24.8860 C   0  0  2  0  0  0  0  0  0  0  0  0
   10.2605  -18.6588   25.7426 N   0  0  0  0  0  0  0  0  0  0  0  0
    9.0367  -16.5909   25.3983 C   0  0  0  0  0  0  0  0  0  0  0  0
    8.1703  -17.0747   26.1718 O   0  0  0  0  0  0  0  0  0  0  0  0
    6.7277  -12.1745   27.0235 C   0  0  0  0  0  0  0  0  0  0  0  0
    7.0454  -12.0192   25.5272 C   0  0  2  0  0  0  0  0  0  0  0  0
    5.7776  -12.2488   24.7659 C   0  0  0  0  0  0  0  0  0  0  0  0
    8.1701  -12.9300   25.1308 C   0  0  0  0  0  0  0  0  0  0  0  0
    7.8848  -14.3306   25.5541 C   0  0  2  0  0  0  0  0  0  0  0  0
    8.9602  -15.2341   25.0758 N   0  0  0  0  0  0  0  0  0  0  0  0
    6.6548  -14.8220   24.9381 C   0  0  0  0  0  0  0  0  0  0  0  0
    5.4947  -14.9443   25.6741 O   0  0  0  0  0  0  0  0  0  0  0  0
    6.6111  -15.1449   23.7384 O   0  0  0  0  0  0  0  0  0  0  0  0
  2  3  2  0
  2  1  1  0
  4  3  1  0
  5  4  2  0
  6  5  1  0
  7  9  1  0
  7  6  1  0
  7  8  1  1
  9 10  2  0
 11  5  1  0
 11 12  2  0
 12  2  1  0
 14 15  2  0
 14 13  1  0
 16 14  1  0
 17 16  1  0
 18 17  1  6
 19 18  1  0
 19  9  1  0
 20 21  2  0
 20 18  1  0
 23 25  1  0
 23 22  1  1
 24 23  1  0
 26 25  1  6
 26 27  1  0
 27 20  1  0
 28 26  1  0
 28 29  1  0
 30 28  2  0
M  END
$$$$
