MTT.pdb
     RDKit          3D

 23 22  0  0  1  0  0  0  0  0999 V2000
   28.0481  -18.1394   -4.5546 C   0  0  0  0  0  0  0  0  0  0  0  0
   27.2119  -19.3765   -5.5155 S   0  0  0  0  0  0  0  0  0  0  0  0
   28.2628  -20.6502   -6.1873 C   0  0  0  0  0  0  0  0  0  0  0  0
   27.9196  -21.1036   -7.5547 C   0  0  0  0  0  0  0  0  0  0  0  0
   26.8508  -20.2743   -8.2014 C   0  0  2  0  0  0  0  0  0  0  0  0
   25.5788  -20.5919   -7.5840 N   0  0  0  0  0  0  0  0  0  0  0  0
   26.8320  -20.6789   -9.6566 C   0  0  0  0  0  0  0  0  0  0  0  0
   27.4135  -21.7312  -10.0220 O   0  0  0  0  0  0  0  0  0  0  0  0
   26.0549  -22.6683  -11.1705 C   0  0  0  0  0  0  0  0  0  0  0  0
   25.5026  -21.6173  -12.0681 C   0  0  1  0  0  0  0  0  0  0  0  0
   24.1698  -21.3990  -11.6372 O   0  0  0  0  0  0  0  0  0  0  0  0
   26.1948  -20.2840  -12.0216 C   0  0  2  0  0  0  0  0  0  0  0  0
   26.1713  -19.8899  -10.6013 N   0  0  0  0  0  0  0  0  0  0  0  0
   25.5618  -19.2102  -12.7726 C   0  0  0  0  0  0  0  0  0  0  0  0
   24.6982  -18.4734  -12.2446 O   0  0  0  0  0  0  0  0  0  0  0  0
   27.5183  -16.5831  -14.9852 C   0  0  0  0  0  0  0  0  0  0  0  0
   26.4725  -17.2987  -15.7874 C   0  0  1  0  0  0  0  0  0  0  0  0
   27.0613  -18.3273  -16.5086 O   0  0  0  0  0  0  0  0  0  0  0  0
   25.3679  -17.8649  -14.8976 C   0  0  2  0  0  0  0  0  0  0  0  0
   25.9075  -18.9691  -14.1227 N   0  0  0  0  0  0  0  0  0  0  0  0
   24.2248  -18.3127  -15.7318 C   0  0  0  0  0  0  0  0  0  0  0  0
   23.4028  -17.4038  -16.3771 O   0  0  0  0  0  0  0  0  0  0  0  0
   23.9755  -19.5364  -15.8722 O   0  0  0  0  0  0  0  0  0  0  0  0
  2  3  1  0
  2  1  1  0
  3  4  1  0
  4  5  1  0
  5  7  1  0
  5  6  1  1
  7  8  2  0
 10  9  1  1
 10 12  1  0
 11 10  1  0
 12 14  1  0
 13  7  1  0
 12 13  1  1
 14 15  2  0
 17 16  1  1
 17 18  1  0
 17 19  1  0
 19 21  1  0
 19 20  1  6
 20 14  1  0
 21 23  2  0
 21 22  1  0
M  END
$$$$
