MTT.pdb
     RDKit          3D

 23 22  0  0  1  0  0  0  0  0999 V2000
   26.6606  -13.4286  -15.0976 C   0  0  0  0  0  0  0  0  0  0  0  0
   26.3828  -14.9325  -15.9998 S   0  0  0  0  0  0  0  0  0  0  0  0
   24.7075  -15.1823  -16.5556 C   0  0  0  0  0  0  0  0  0  0  0  0
   23.7700  -14.0716  -16.2719 C   0  0  0  0  0  0  0  0  0  0  0  0
   22.3676  -14.3524  -16.7223 C   0  0  2  0  0  0  0  0  0  0  0  0
   22.4069  -15.3578  -17.7652 N   0  0  0  0  0  0  0  0  0  0  0  0
   21.8405  -13.0517  -17.2808 C   0  0  0  0  0  0  0  0  0  0  0  0
   22.1111  -12.7218  -18.4626 O   0  0  0  0  0  0  0  0  0  0  0  0
   18.4100  -12.3155  -17.7875 C   0  0  0  0  0  0  0  0  0  0  0  0
   18.9744  -11.1989  -16.9814 C   0  0  1  0  0  0  0  0  0  0  0  0
   18.7016  -11.5197  -15.6278 O   0  0  0  0  0  0  0  0  0  0  0  0
   20.4605  -10.9991  -17.0862 C   0  0  2  0  0  0  0  0  0  0  0  0
   21.0524  -12.2109  -16.4910 N   0  0  0  0  0  0  0  0  0  0  0  0
   21.0035   -9.8596  -16.3622 C   0  0  0  0  0  0  0  0  0  0  0  0
   21.7678  -10.0195  -15.3836 O   0  0  0  0  0  0  0  0  0  0  0  0
   21.4157   -4.8736  -16.2833 C   0  0  0  0  0  0  0  0  0  0  0  0
   20.8533   -6.1226  -16.8944 C   0  0  1  0  0  0  0  0  0  0  0  0
   21.3317   -6.2640  -18.1890 O   0  0  0  0  0  0  0  0  0  0  0  0
   21.2131   -7.3619  -16.0778 C   0  0  2  0  0  0  0  0  0  0  0  0
   20.6820   -8.5370  -16.7470 N   0  0  0  0  0  0  0  0  0  0  0  0
   20.6629   -7.2412  -14.7045 C   0  0  0  0  0  0  0  0  0  0  0  0
   21.4416   -6.7888  -13.6523 O   0  0  0  0  0  0  0  0  0  0  0  0
   19.4684   -7.5492  -14.4643 O   0  0  0  0  0  0  0  0  0  0  0  0
  2  3  1  0
  2  1  1  0
  3  4  1  0
  4  5  1  0
  5  7  1  0
  5  6  1  6
  7  8  2  0
 10  9  1  6
 10 12  1  0
 11 10  1  0
 12 14  1  0
 13  7  1  0
 12 13  1  1
 14 15  2  0
 17 16  1  1
 17 18  1  0
 17 19  1  0
 19 21  1  0
 19 20  1  6
 20 14  1  0
 21 23  2  0
 21 22  1  0
M  END
$$$$
