MTT.pdb
     RDKit          3D

 23 22  0  0  1  0  0  0  0  0999 V2000
   27.4470  -17.0530  -14.1931 C   0  0  0  0  0  0  0  0  0  0  0  0
   26.3070  -16.0160  -15.0751 S   0  0  0  0  0  0  0  0  0  0  0  0
   25.2138  -16.8732  -16.1922 C   0  0  0  0  0  0  0  0  0  0  0  0
   24.3253  -16.0088  -17.0024 C   0  0  0  0  0  0  0  0  0  0  0  0
   23.6829  -14.9116  -16.2076 C   0  0  2  0  0  0  0  0  0  0  0  0
   22.8932  -15.5063  -15.1480 N   0  0  0  0  0  0  0  0  0  0  0  0
   22.7816  -14.1728  -17.1687 C   0  0  0  0  0  0  0  0  0  0  0  0
   23.2395  -13.7549  -18.2616 O   0  0  0  0  0  0  0  0  0  0  0  0
   19.1715  -15.2739  -18.1532 C   0  0  0  0  0  0  0  0  0  0  0  0
   19.2363  -13.8582  -17.6986 C   0  0  1  0  0  0  0  0  0  0  0  0
   18.8823  -13.8738  -16.3260 O   0  0  0  0  0  0  0  0  0  0  0  0
   20.5849  -13.2007  -17.7887 C   0  0  2  0  0  0  0  0  0  0  0  0
   21.4396  -13.9504  -16.8505 N   0  0  0  0  0  0  0  0  0  0  0  0
   20.6403  -11.8019  -17.3913 C   0  0  0  0  0  0  0  0  0  0  0  0
   21.0012  -11.4705  -16.2392 O   0  0  0  0  0  0  0  0  0  0  0  0
   20.3259   -7.0660  -18.9349 C   0  0  0  0  0  0  0  0  0  0  0  0
   20.2716   -8.5360  -19.2274 C   0  0  1  0  0  0  0  0  0  0  0  0
   21.3508   -8.8930  -20.0228 O   0  0  0  0  0  0  0  0  0  0  0  0
   20.2831   -9.3672  -17.9462 C   0  0  2  0  0  0  0  0  0  0  0  0
   20.2877  -10.7764  -18.2995 N   0  0  0  0  0  0  0  0  0  0  0  0
   19.0992   -9.0339  -17.1153 C   0  0  0  0  0  0  0  0  0  0  0  0
   19.1878   -8.1456  -16.0564 O   0  0  0  0  0  0  0  0  0  0  0  0
   17.9811   -9.5547  -17.3562 O   0  0  0  0  0  0  0  0  0  0  0  0
  2  3  1  0
  2  1  1  0
  3  4  1  0
  4  5  1  0
  5  7  1  0
  5  6  1  1
  7  8  2  0
 10  9  1  1
 10 12  1  0
 11 10  1  0
 12 14  1  0
 13  7  1  0
 12 13  1  1
 14 15  2  0
 17 16  1  1
 17 18  1  0
 17 19  1  0
 19 21  1  0
 19 20  1  6
 20 14  1  0
 21 23  2  0
 21 22  1  0
M  END
$$$$
