MTT.pdb
     RDKit          3D

 23 22  0  0  1  0  0  0  0  0999 V2000
   27.0115  -18.2251   -7.5110 C   0  0  0  0  0  0  0  0  0  0  0  0
   26.1331  -19.7158   -7.1120 S   0  0  0  0  0  0  0  0  0  0  0  0
   26.0382  -20.9130   -8.4294 C   0  0  0  0  0  0  0  0  0  0  0  0
   25.9004  -20.3506   -9.7925 C   0  0  0  0  0  0  0  0  0  0  0  0
   25.7530  -21.4005  -10.8528 C   0  0  2  0  0  0  0  0  0  0  0  0
   26.9892  -22.1519  -10.9380 N   0  0  0  0  0  0  0  0  0  0  0  0
   25.5124  -20.6570  -12.1455 C   0  0  0  0  0  0  0  0  0  0  0  0
   26.4107  -19.9174  -12.6195 O   0  0  0  0  0  0  0  0  0  0  0  0
   25.7116  -22.0560  -15.0070 C   0  0  0  0  0  0  0  0  0  0  0  0
   24.3785  -21.4008  -15.0993 C   0  0  1  0  0  0  0  0  0  0  0  0
   23.4320  -22.3918  -14.7364 O   0  0  0  0  0  0  0  0  0  0  0  0
   24.1554  -20.2337  -14.1788 C   0  0  2  0  0  0  0  0  0  0  0  0
   24.2955  -20.7862  -12.8194 N   0  0  0  0  0  0  0  0  0  0  0  0
   22.8445  -19.6060  -14.2510 C   0  0  0  0  0  0  0  0  0  0  0  0
   22.0565  -19.6401  -13.2787 O   0  0  0  0  0  0  0  0  0  0  0  0
   19.8027  -16.7953  -17.0604 C   0  0  0  0  0  0  0  0  0  0  0  0
   21.0404  -17.6320  -16.9278 C   0  0  1  0  0  0  0  0  0  0  0  0
   22.1616  -16.8411  -17.1329 O   0  0  0  0  0  0  0  0  0  0  0  0
   21.1276  -18.2972  -15.5558 C   0  0  2  0  0  0  0  0  0  0  0  0
   22.4251  -18.9377  -15.4249 N   0  0  0  0  0  0  0  0  0  0  0  0
   20.0315  -19.2860  -15.4016 C   0  0  0  0  0  0  0  0  0  0  0  0
   20.0919  -20.5305  -16.0063 O   0  0  0  0  0  0  0  0  0  0  0  0
   19.0160  -19.0135  -14.7131 O   0  0  0  0  0  0  0  0  0  0  0  0
  2  3  1  0
  2  1  1  0
  3  4  1  0
  4  5  1  0
  5  7  1  0
  5  6  1  6
  7  8  2  0
 10  9  1  1
 10 12  1  0
 11 10  1  0
 12 14  1  0
 13  7  1  0
 12 13  1  1
 14 15  2  0
 17 16  1  1
 17 18  1  0
 17 19  1  0
 19 21  1  0
 19 20  1  6
 20 14  1  0
 21 23  2  0
 21 22  1  0
M  END
$$$$
