MTT.pdb
     RDKit          3D

 23 22  0  0  1  0  0  0  0  0999 V2000
   26.5027  -17.0575  -19.2387 C   0  0  0  0  0  0  0  0  0  0  0  0
   27.7297  -18.3327  -19.0933 S   0  0  0  0  0  0  0  0  0  0  0  0
   28.0558  -18.8819  -17.4290 C   0  0  0  0  0  0  0  0  0  0  0  0
   26.8668  -19.3010  -16.6520 C   0  0  0  0  0  0  0  0  0  0  0  0
   27.1440  -20.4381  -15.7149 C   0  0  2  0  0  0  0  0  0  0  0  0
   28.0362  -21.3735  -16.3700 N   0  0  0  0  0  0  0  0  0  0  0  0
   25.8103  -21.0968  -15.4520 C   0  0  0  0  0  0  0  0  0  0  0  0
   25.4938  -22.1413  -16.0746 O   0  0  0  0  0  0  0  0  0  0  0  0
   25.1251  -22.4015  -12.3023 C   0  0  0  0  0  0  0  0  0  0  0  0
   23.9204  -21.6025  -12.6565 C   0  0  1  0  0  0  0  0  0  0  0  0
   24.0828  -20.3489  -12.0148 O   0  0  0  0  0  0  0  0  0  0  0  0
   23.7290  -21.3164  -14.1196 C   0  0  2  0  0  0  0  0  0  0  0  0
   24.9241  -20.5518  -14.5196 N   0  0  0  0  0  0  0  0  0  0  0  0
   22.5698  -20.5074  -14.4650 C   0  0  0  0  0  0  0  0  0  0  0  0
   22.5888  -19.2621  -14.3370 O   0  0  0  0  0  0  0  0  0  0  0  0
   19.1014  -22.4077  -16.2718 C   0  0  0  0  0  0  0  0  0  0  0  0
   19.6309  -21.0503  -16.6276 C   0  0  1  0  0  0  0  0  0  0  0  0
   18.6075  -20.2735  -17.1511 O   0  0  0  0  0  0  0  0  0  0  0  0
   20.2392  -20.3464  -15.4165 C   0  0  2  0  0  0  0  0  0  0  0  0
   21.3878  -21.1083  -14.9571 N   0  0  0  0  0  0  0  0  0  0  0  0
   19.2239  -20.2197  -14.3413 C   0  0  0  0  0  0  0  0  0  0  0  0
   18.1598  -19.3403  -14.4536 O   0  0  0  0  0  0  0  0  0  0  0  0
   19.3080  -20.9132  -13.2966 O   0  0  0  0  0  0  0  0  0  0  0  0
  2  3  1  0
  2  1  1  0
  3  4  1  0
  4  5  1  0
  5  7  1  0
  5  6  1  6
  7  8  2  0
 10  9  1  6
 10 12  1  0
 11 10  1  0
 12 14  1  0
 13  7  1  0
 12 13  1  1
 14 15  2  0
 17 16  1  1
 17 18  1  0
 17 19  1  0
 19 21  1  0
 19 20  1  1
 20 14  1  0
 21 23  2  0
 21 22  1  0
M  END
$$$$
