MTT.pdb
     RDKit          3D

 23 22  0  0  1  0  0  0  0  0999 V2000
   25.6536  -14.1815  -15.1324 C   0  0  0  0  0  0  0  0  0  0  0  0
   27.2143  -13.5066  -15.6440 S   0  0  0  0  0  0  0  0  0  0  0  0
   27.1195  -12.2638  -16.9184 C   0  0  0  0  0  0  0  0  0  0  0  0
   28.4050  -11.6246  -17.2816 C   0  0  0  0  0  0  0  0  0  0  0  0
   28.2679  -10.5941  -18.3622 C   0  0  2  0  0  0  0  0  0  0  0  0
   27.7857  -11.2429  -19.5649 N   0  0  0  0  0  0  0  0  0  0  0  0
   29.6562  -10.0457  -18.5943 C   0  0  0  0  0  0  0  0  0  0  0  0
   30.4845  -10.7038  -19.2722 O   0  0  0  0  0  0  0  0  0  0  0  0
   30.6499   -7.4052  -20.5999 C   0  0  0  0  0  0  0  0  0  0  0  0
   31.1495   -7.0935  -19.2330 C   0  0  1  0  0  0  0  0  0  0  0  0
   30.1452   -6.3001  -18.6235 O   0  0  0  0  0  0  0  0  0  0  0  0
   31.3731   -8.2744  -18.3305 C   0  0  2  0  0  0  0  0  0  0  0  0
   30.0266   -8.8094  -18.0595 N   0  0  0  0  0  0  0  0  0  0  0  0
   31.9845   -7.9856  -17.0419 C   0  0  0  0  0  0  0  0  0  0  0  0
   31.2876   -7.6644  -16.0527 O   0  0  0  0  0  0  0  0  0  0  0  0
   34.4974  -10.1594  -14.9946 C   0  0  0  0  0  0  0  0  0  0  0  0
   35.1140   -8.8417  -15.3595 C   0  0  1  0  0  0  0  0  0  0  0  0
   35.9015   -8.9934  -16.4916 O   0  0  0  0  0  0  0  0  0  0  0  0
   34.0529   -7.7731  -15.6138 C   0  0  2  0  0  0  0  0  0  0  0  0
   33.3866   -8.0615  -16.8722 N   0  0  0  0  0  0  0  0  0  0  0  0
   34.6837   -6.4300  -15.6447 C   0  0  0  0  0  0  0  0  0  0  0  0
   35.1678   -5.8334  -14.4923 O   0  0  0  0  0  0  0  0  0  0  0  0
   34.7935   -5.7992  -16.7261 O   0  0  0  0  0  0  0  0  0  0  0  0
  2  3  1  0
  2  1  1  0
  3  4  1  0
  4  5  1  0
  5  7  1  0
  5  6  1  6
  7  8  2  0
 10  9  1  6
 10 12  1  0
 11 10  1  0
 12 14  1  0
 13  7  1  0
 12 13  1  1
 14 15  2  0
 17 16  1  6
 17 18  1  0
 17 19  1  0
 19 21  1  0
 19 20  1  6
 20 14  1  0
 21 23  2  0
 21 22  1  0
M  END
$$$$
