MTT.pdb
     RDKit          3D

 23 22  0  0  1  0  0  0  0  0999 V2000
   28.3834  -15.4596  -14.9969 C   0  0  0  0  0  0  0  0  0  0  0  0
   27.3842  -14.0911  -15.5277 S   0  0  0  0  0  0  0  0  0  0  0  0
   25.6346  -14.2760  -15.2403 C   0  0  0  0  0  0  0  0  0  0  0  0
   24.8040  -13.1009  -15.5901 C   0  0  0  0  0  0  0  0  0  0  0  0
   23.3378  -13.3281  -15.3735 C   0  0  2  0  0  0  0  0  0  0  0  0
   22.9843  -14.6268  -15.9105 N   0  0  0  0  0  0  0  0  0  0  0  0
   22.6285  -12.2411  -16.1462 C   0  0  0  0  0  0  0  0  0  0  0  0
   22.6897  -12.2225  -17.4011 O   0  0  0  0  0  0  0  0  0  0  0  0
   19.1962  -12.0241  -16.4136 C   0  0  0  0  0  0  0  0  0  0  0  0
   19.6488  -10.6984  -15.9107 C   0  0  1  0  0  0  0  0  0  0  0  0
   19.5689  -10.7707  -14.4972 O   0  0  0  0  0  0  0  0  0  0  0  0
   21.0642  -10.3180  -16.2438 C   0  0  2  0  0  0  0  0  0  0  0  0
   21.9033  -11.2541  -15.4741 N   0  0  0  0  0  0  0  0  0  0  0  0
   21.4689   -8.9724  -15.8652 C   0  0  0  0  0  0  0  0  0  0  0  0
   22.1128   -8.7628  -14.8122 O   0  0  0  0  0  0  0  0  0  0  0  0
   21.7807   -4.2197  -17.3853 C   0  0  0  0  0  0  0  0  0  0  0  0
   21.2973   -5.6234  -17.5987 C   0  0  1  0  0  0  0  0  0  0  0  0
   21.9176   -6.1650  -18.7152 O   0  0  0  0  0  0  0  0  0  0  0  0
   21.5713   -6.5057  -16.3827 C   0  0  2  0  0  0  0  0  0  0  0  0
   21.1456   -7.8626  -16.6801 N   0  0  0  0  0  0  0  0  0  0  0  0
   20.8528   -5.9733  -15.1981 C   0  0  0  0  0  0  0  0  0  0  0  0
   21.4868   -5.1569  -14.2762 O   0  0  0  0  0  0  0  0  0  0  0  0
   19.6433   -6.2539  -15.0038 O   0  0  0  0  0  0  0  0  0  0  0  0
  2  3  1  0
  2  1  1  0
  3  4  1  0
  4  5  1  0
  5  7  1  0
  5  6  1  6
  7  8  2  0
 10  9  1  6
 10 12  1  0
 11 10  1  0
 12 14  1  0
 13  7  1  0
 12 13  1  1
 14 15  2  0
 17 16  1  1
 17 18  1  0
 17 19  1  0
 19 21  1  0
 19 20  1  6
 20 14  1  0
 21 23  2  0
 21 22  1  0
M  END
$$$$
