MTT.pdb
     RDKit          3D

 23 22  0  0  1  0  0  0  0  0999 V2000
   28.2717  -16.0896  -21.1675 C   0  0  0  0  0  0  0  0  0  0  0  0
   26.9708  -15.9555  -19.9664 S   0  0  0  0  0  0  0  0  0  0  0  0
   26.8419  -14.3682  -19.1653 C   0  0  0  0  0  0  0  0  0  0  0  0
   27.9576  -13.4302  -19.4270 C   0  0  0  0  0  0  0  0  0  0  0  0
   27.8091  -12.1210  -18.7114 C   0  0  2  0  0  0  0  0  0  0  0  0
   26.5841  -11.4857  -19.1538 N   0  0  0  0  0  0  0  0  0  0  0  0
   28.9991  -11.2849  -19.1198 C   0  0  0  0  0  0  0  0  0  0  0  0
   29.0872  -10.8530  -20.2964 O   0  0  0  0  0  0  0  0  0  0  0  0
   29.6885   -8.0806  -18.3274 C   0  0  0  0  0  0  0  0  0  0  0  0
   30.9114   -8.8239  -17.9185 C   0  0  1  0  0  0  0  0  0  0  0  0
   30.7512   -9.1073  -16.5388 O   0  0  0  0  0  0  0  0  0  0  0  0
   31.1397  -10.1410  -18.6057 C   0  0  2  0  0  0  0  0  0  0  0  0
   30.0047  -10.9879  -18.1966 N   0  0  0  0  0  0  0  0  0  0  0  0
   32.3557  -10.8504  -18.2371 C   0  0  0  0  0  0  0  0  0  0  0  0
   32.3950  -11.5827  -17.2223 O   0  0  0  0  0  0  0  0  0  0  0  0
   36.8150  -12.3996  -19.7746 C   0  0  0  0  0  0  0  0  0  0  0  0
   35.5932  -11.5561  -19.9873 C   0  0  1  0  0  0  0  0  0  0  0  0
   34.8153  -12.1085  -20.9945 O   0  0  0  0  0  0  0  0  0  0  0  0
   34.7643  -11.4313  -18.7108 C   0  0  2  0  0  0  0  0  0  0  0  0
   33.5286  -10.7318  -19.0185 N   0  0  0  0  0  0  0  0  0  0  0  0
   35.5384  -10.7059  -17.6728 C   0  0  0  0  0  0  0  0  0  0  0  0
   36.3381  -11.3810  -16.7655 O   0  0  0  0  0  0  0  0  0  0  0  0
   35.4850   -9.4528  -17.5935 O   0  0  0  0  0  0  0  0  0  0  0  0
  2  3  1  0
  2  1  1  0
  3  4  1  0
  4  5  1  0
  5  7  1  0
  5  6  1  6
  7  8  2  0
 10  9  1  6
 10 12  1  0
 11 10  1  0
 12 14  1  0
 13  7  1  0
 12 13  1  1
 14 15  2  0
 17 16  1  1
 17 18  1  0
 17 19  1  0
 19 21  1  0
 19 20  1  6
 20 14  1  0
 21 23  2  0
 21 22  1  0
M  END
$$$$
