MTT.pdb
     RDKit          3D

 23 22  0  0  1  0  0  0  0  0999 V2000
   28.6269  -18.5742   -6.1174 C   0  0  0  0  0  0  0  0  0  0  0  0
   28.3211  -20.2362   -6.6628 S   0  0  0  0  0  0  0  0  0  0  0  0
   26.6657  -20.5481   -7.2459 C   0  0  0  0  0  0  0  0  0  0  0  0
   26.3936  -20.1349   -8.6418 C   0  0  0  0  0  0  0  0  0  0  0  0
   26.5368  -21.2551   -9.6282 C   0  0  2  0  0  0  0  0  0  0  0  0
   27.9388  -21.6068   -9.7318 N   0  0  0  0  0  0  0  0  0  0  0  0
   26.0429  -20.7136  -10.9490 C   0  0  0  0  0  0  0  0  0  0  0  0
   26.7724  -19.9436  -11.6227 O   0  0  0  0  0  0  0  0  0  0  0  0
   25.6700  -22.4736  -13.8161 C   0  0  0  0  0  0  0  0  0  0  0  0
   24.3498  -21.8129  -13.6276 C   0  0  1  0  0  0  0  0  0  0  0  0
   23.5235  -22.7706  -12.9874 O   0  0  0  0  0  0  0  0  0  0  0  0
   24.3468  -20.5888  -12.7553 C   0  0  2  0  0  0  0  0  0  0  0  0
   24.7781  -21.0636  -11.4281 N   0  0  0  0  0  0  0  0  0  0  0  0
   23.0585  -19.9361  -12.5768 C   0  0  0  0  0  0  0  0  0  0  0  0
   22.4057  -20.0723  -11.5172 O   0  0  0  0  0  0  0  0  0  0  0  0
   21.0137  -18.4400  -16.0017 C   0  0  0  0  0  0  0  0  0  0  0  0
   20.9738  -17.6344  -14.7372 C   0  0  1  0  0  0  0  0  0  0  0  0
   19.7496  -16.9898  -14.6339 O   0  0  0  0  0  0  0  0  0  0  0  0
   21.1979  -18.5075  -13.5044 C   0  0  2  0  0  0  0  0  0  0  0  0
   22.5087  -19.1270  -13.5983 N   0  0  0  0  0  0  0  0  0  0  0  0
   20.1319  -19.5361  -13.4114 C   0  0  0  0  0  0  0  0  0  0  0  0
   18.9879  -19.3238  -12.6602 O   0  0  0  0  0  0  0  0  0  0  0  0
   20.2449  -20.6314  -14.0172 O   0  0  0  0  0  0  0  0  0  0  0  0
  2  3  1  0
  2  1  1  0
  3  4  1  0
  4  5  1  0
  5  7  1  0
  5  6  1  6
  7  8  2  0
 10  9  1  1
 10 12  1  0
 11 10  1  0
 12 14  1  0
 13  7  1  0
 12 13  1  1
 14 15  2  0
 17 16  1  6
 17 18  1  0
 17 19  1  0
 19 21  1  0
 19 20  1  6
 20 14  1  0
 21 23  2  0
 21 22  1  0
M  END
$$$$
