MTT.pdb
     RDKit          3D

 23 22  0  0  1  0  0  0  0  0999 V2000
   18.7654  -14.9625  -14.6757 C   0  0  0  0  0  0  0  0  0  0  0  0
   19.6600  -14.4087  -16.1061 S   0  0  0  0  0  0  0  0  0  0  0  0
   18.7227  -13.4040  -17.2418 C   0  0  0  0  0  0  0  0  0  0  0  0
   18.9118  -11.9417  -17.1040 C   0  0  0  0  0  0  0  0  0  0  0  0
   17.8255  -11.2775  -16.3121 C   0  0  2  0  0  0  0  0  0  0  0  0
   16.5554  -11.5296  -16.9626 N   0  0  0  0  0  0  0  0  0  0  0  0
   18.1335   -9.7989  -16.3398 C   0  0  0  0  0  0  0  0  0  0  0  0
   18.0768   -9.1673  -17.4245 O   0  0  0  0  0  0  0  0  0  0  0  0
   16.1303   -7.4104  -15.2576 C   0  0  0  0  0  0  0  0  0  0  0  0
   17.4065   -7.1149  -14.5512 C   0  0  1  0  0  0  0  0  0  0  0  0
   17.2974   -7.7286  -13.2779 O   0  0  0  0  0  0  0  0  0  0  0  0
   18.6522   -7.6631  -15.1889 C   0  0  2  0  0  0  0  0  0  0  0  0
   18.4817   -9.1271  -15.1654 N   0  0  0  0  0  0  0  0  0  0  0  0
   19.9020   -7.3683  -14.5042 C   0  0  0  0  0  0  0  0  0  0  0  0
   20.2705   -8.0390  -13.5133 O   0  0  0  0  0  0  0  0  0  0  0  0
   23.3382   -6.8541  -16.3317 C   0  0  0  0  0  0  0  0  0  0  0  0
   23.0132   -5.6685  -15.4725 C   0  0  1  0  0  0  0  0  0  0  0  0
   22.4709   -4.6600  -16.2559 O   0  0  0  0  0  0  0  0  0  0  0  0
   22.0358   -6.0311  -14.3565 C   0  0  2  0  0  0  0  0  0  0  0  0
   20.7366   -6.3138  -14.9422 N   0  0  0  0  0  0  0  0  0  0  0  0
   21.9449   -4.9165  -13.3805 C   0  0  0  0  0  0  0  0  0  0  0  0
   22.9552   -4.6757  -12.4642 O   0  0  0  0  0  0  0  0  0  0  0  0
   20.9412   -4.1605  -13.3639 O   0  0  0  0  0  0  0  0  0  0  0  0
  2  3  1  0
  2  1  1  0
  3  4  1  0
  4  5  1  0
  5  7  1  0
  5  6  1  6
  7  8  2  0
 10  9  1  6
 10 12  1  0
 11 10  1  0
 12 14  1  0
 13  7  1  0
 12 13  1  1
 14 15  2  0
 17 16  1  6
 17 18  1  0
 17 19  1  0
 19 21  1  0
 19 20  1  6
 20 14  1  0
 21 23  2  0
 21 22  1  0
M  END
$$$$
