MTT.pdb
     RDKit          3D

 23 22  0  0  1  0  0  0  0  0999 V2000
   15.3431  -14.1455  -14.6064 C   0  0  0  0  0  0  0  0  0  0  0  0
   16.2433  -15.6168  -15.0283 S   0  0  0  0  0  0  0  0  0  0  0  0
   17.3136  -15.4679  -16.4460 C   0  0  0  0  0  0  0  0  0  0  0  0
   18.0165  -14.1714  -16.5801 C   0  0  0  0  0  0  0  0  0  0  0  0
   18.8071  -14.0563  -17.8490 C   0  0  2  0  0  0  0  0  0  0  0  0
   19.7484  -15.1563  -17.9116 N   0  0  0  0  0  0  0  0  0  0  0  0
   19.5524  -12.7455  -17.7588 C   0  0  0  0  0  0  0  0  0  0  0  0
   20.7667  -12.7360  -17.4362 O   0  0  0  0  0  0  0  0  0  0  0  0
   19.2419  -10.4273  -20.6708 C   0  0  0  0  0  0  0  0  0  0  0  0
   19.1463   -9.6389  -19.4121 C   0  0  1  0  0  0  0  0  0  0  0  0
   17.7621   -9.4309  -19.1876 O   0  0  0  0  0  0  0  0  0  0  0  0
   19.6882  -10.3040  -18.1779 C   0  0  2  0  0  0  0  0  0  0  0  0
   18.8997  -11.5409  -18.0322 N   0  0  0  0  0  0  0  0  0  0  0  0
   19.5451   -9.5583  -16.9365 C   0  0  0  0  0  0  0  0  0  0  0  0
   18.4898   -9.6161  -16.2652 O   0  0  0  0  0  0  0  0  0  0  0  0
   22.1583   -9.4412  -14.0124 C   0  0  0  0  0  0  0  0  0  0  0  0
   21.8616   -8.0552  -14.5026 C   0  0  1  0  0  0  0  0  0  0  0  0
   22.8673   -7.6402  -15.3635 O   0  0  0  0  0  0  0  0  0  0  0  0
   20.5144   -7.9860  -15.2185 C   0  0  2  0  0  0  0  0  0  0  0  0
   20.5980   -8.7469  -16.4534 N   0  0  0  0  0  0  0  0  0  0  0  0
   20.1579   -6.5714  -15.4918 C   0  0  0  0  0  0  0  0  0  0  0  0
   20.1239   -6.0723  -16.7833 O   0  0  0  0  0  0  0  0  0  0  0  0
   19.8766   -5.7888  -14.5496 O   0  0  0  0  0  0  0  0  0  0  0  0
  2  3  1  0
  2  1  1  0
  3  4  1  0
  4  5  1  0
  5  7  1  0
  5  6  1  1
  7  8  2  0
 10  9  1  6
 10 12  1  0
 11 10  1  0
 12 14  1  0
 13  7  1  0
 12 13  1  1
 14 15  2  0
 17 16  1  6
 17 18  1  0
 17 19  1  0
 19 21  1  0
 19 20  1  6
 20 14  1  0
 21 23  2  0
 21 22  1  0
M  END
$$$$
