MTT.pdb
     RDKit          3D

 23 22  0  0  1  0  0  0  0  0999 V2000
   28.3363  -17.6957   -6.4276 C   0  0  0  0  0  0  0  0  0  0  0  0
   27.8478  -19.3229   -5.9113 S   0  0  0  0  0  0  0  0  0  0  0  0
   26.5366  -20.0583   -6.8693 C   0  0  0  0  0  0  0  0  0  0  0  0
   26.5647  -19.7623   -8.3201 C   0  0  0  0  0  0  0  0  0  0  0  0
   25.4238  -20.3805   -9.0715 C   0  0  2  0  0  0  0  0  0  0  0  0
   25.1218  -21.6688   -8.4806 N   0  0  0  0  0  0  0  0  0  0  0  0
   25.9099  -20.5659  -10.4896 C   0  0  0  0  0  0  0  0  0  0  0  0
   27.0006  -21.1507  -10.7067 O   0  0  0  0  0  0  0  0  0  0  0  0
   24.9812  -22.8449  -12.6091 C   0  0  0  0  0  0  0  0  0  0  0  0
   24.7317  -21.5786  -13.3502 C   0  0  1  0  0  0  0  0  0  0  0  0
   23.3850  -21.2283  -13.0794 O   0  0  0  0  0  0  0  0  0  0  0  0
   25.5737  -20.4022  -12.9422 C   0  0  2  0  0  0  0  0  0  0  0  0
   25.1538  -20.0907  -11.5639 N   0  0  0  0  0  0  0  0  0  0  0  0
   25.3971  -19.1891  -13.7263 C   0  0  0  0  0  0  0  0  0  0  0  0
   24.9777  -18.1336  -13.1994 O   0  0  0  0  0  0  0  0  0  0  0  0
   26.5382  -16.8255  -17.9299 C   0  0  0  0  0  0  0  0  0  0  0  0
   26.5525  -18.0702  -17.0932 C   0  0  1  0  0  0  0  0  0  0  0  0
   27.8296  -18.2815  -16.5942 O   0  0  0  0  0  0  0  0  0  0  0  0
   25.5591  -17.9841  -15.9364 C   0  0  2  0  0  0  0  0  0  0  0  0
   25.6969  -19.1699  -15.1084 N   0  0  0  0  0  0  0  0  0  0  0  0
   24.1767  -17.8645  -16.4635 C   0  0  0  0  0  0  0  0  0  0  0  0
   23.5754  -16.6292  -16.6382 O   0  0  0  0  0  0  0  0  0  0  0  0
   23.5159  -18.8900  -16.7654 O   0  0  0  0  0  0  0  0  0  0  0  0
  2  3  1  0
  2  1  1  0
  3  4  1  0
  4  5  1  0
  5  7  1  0
  5  6  1  1
  7  8  2  0
 10  9  1  1
 10 12  1  0
 11 10  1  0
 12 14  1  0
 13  7  1  0
 12 13  1  1
 14 15  2  0
 17 16  1  1
 17 18  1  0
 17 19  1  0
 19 21  1  0
 19 20  1  1
 20 14  1  0
 21 23  2  0
 21 22  1  0
M  END
$$$$
