MTT.pdb
     RDKit          3D

 23 22  0  0  1  0  0  0  0  0999 V2000
   29.2400  -20.6235   -5.6974 C   0  0  0  0  0  0  0  0  0  0  0  0
   27.8164  -19.6623   -5.2472 S   0  0  0  0  0  0  0  0  0  0  0  0
   26.3862  -19.8977   -6.2849 C   0  0  0  0  0  0  0  0  0  0  0  0
   26.6139  -19.7080   -7.7359 C   0  0  0  0  0  0  0  0  0  0  0  0
   25.3916  -19.9675   -8.5647 C   0  0  2  0  0  0  0  0  0  0  0  0
   25.0097  -21.3566   -8.4076 N   0  0  0  0  0  0  0  0  0  0  0  0
   25.7944  -19.7032   -9.9964 C   0  0  0  0  0  0  0  0  0  0  0  0
   26.2855  -18.5910  -10.3140 O   0  0  0  0  0  0  0  0  0  0  0  0
   28.2894  -21.1791  -11.9240 C   0  0  0  0  0  0  0  0  0  0  0  0
   27.0568  -21.2978  -12.7496 C   0  0  1  0  0  0  0  0  0  0  0  0
   26.5835  -22.6197  -12.5541 O   0  0  0  0  0  0  0  0  0  0  0  0
   25.9280  -20.3765  -12.3805 C   0  0  2  0  0  0  0  0  0  0  0  0
   25.6244  -20.6884  -10.9721 N   0  0  0  0  0  0  0  0  0  0  0  0
   24.6932  -20.5482  -13.1311 C   0  0  0  0  0  0  0  0  0  0  0  0
   23.8035  -21.3379  -12.7408 O   0  0  0  0  0  0  0  0  0  0  0  0
   22.4690  -17.5761  -14.6549 C   0  0  0  0  0  0  0  0  0  0  0  0
   22.9198  -18.5555  -15.6975 C   0  0  1  0  0  0  0  0  0  0  0  0
   24.0452  -18.0638  -16.3430 O   0  0  0  0  0  0  0  0  0  0  0  0
   23.2338  -19.9213  -15.0907 C   0  0  2  0  0  0  0  0  0  0  0  0
   24.4643  -19.8243  -14.3244 N   0  0  0  0  0  0  0  0  0  0  0  0
   23.3589  -20.9368  -16.1660 C   0  0  0  0  0  0  0  0  0  0  0  0
   22.2480  -21.4100  -16.8444 O   0  0  0  0  0  0  0  0  0  0  0  0
   24.4848  -21.3935  -16.4872 O   0  0  0  0  0  0  0  0  0  0  0  0
  2  3  1  0
  2  1  1  0
  3  4  1  0
  4  5  1  0
  5  7  1  0
  5  6  1  6
  7  8  2  0
 10  9  1  1
 10 12  1  0
 11 10  1  0
 12 14  1  0
 13  7  1  0
 12 13  1  1
 14 15  2  0
 17 16  1  1
 17 18  1  0
 17 19  1  0
 19 21  1  0
 19 20  1  6
 20 14  1  0
 21 23  2  0
 21 22  1  0
M  END
$$$$
