IMT.pdb
     RDKit          3D

 24 23  0  0  1  0  0  0  0  0999 V2000
   24.7381  -17.6927  -16.9759 C   0  0  0  0  0  0  0  0  0  0  0  0
   24.7353  -16.3184  -16.3364 C   0  0  0  0  0  0  0  0  0  0  0  0
   25.9269  -15.5102  -16.6944 C   0  0  2  0  0  0  0  0  0  0  0  0
   27.2341  -16.2130  -16.4024 C   0  0  0  0  0  0  0  0  0  0  0  0
   25.8950  -14.0865  -16.1978 C   0  0  2  0  0  0  0  0  0  0  0  0
   25.9196  -14.0982  -14.7136 N   0  0  0  0  0  0  0  0  0  0  0  0
   24.6748  -13.3406  -16.5865 C   0  0  0  0  0  0  0  0  0  0  0  0
   24.4873  -13.0438  -17.7988 O   0  0  0  0  0  0  0  0  0  0  0  0
   19.0019  -15.1446  -15.7859 C   0  0  0  0  0  0  0  0  0  0  0  0
   18.5649  -13.4272  -15.4126 S   0  0  0  0  0  0  0  0  0  0  0  0
   19.9240  -12.3234  -15.9862 C   0  0  0  0  0  0  0  0  0  0  0  0
   21.2201  -12.9643  -15.5973 C   0  0  0  0  0  0  0  0  0  0  0  0
   22.4574  -12.2303  -15.9989 C   0  0  2  0  0  0  0  0  0  0  0  0
   23.6634  -12.9209  -15.6683 N   0  0  0  0  0  0  0  0  0  0  0  0
   22.4317  -10.7842  -15.6960 C   0  0  0  0  0  0  0  0  0  0  0  0
   22.8435  -10.4582  -14.5516 O   0  0  0  0  0  0  0  0  0  0  0  0
   21.8539   -5.9728  -16.7786 C   0  0  0  0  0  0  0  0  0  0  0  0
   21.7859   -7.3947  -17.3082 C   0  0  1  0  0  0  0  0  0  0  0  0
   22.5362   -7.5879  -18.4365 O   0  0  0  0  0  0  0  0  0  0  0  0
   22.0297   -8.3487  -16.2036 C   0  0  2  0  0  0  0  0  0  0  0  0
   22.0037   -9.7389  -16.5189 N   0  0  0  0  0  0  0  0  0  0  0  0
   21.0747   -8.0768  -15.1080 C   0  0  0  0  0  0  0  0  0  0  0  0
   21.4225   -7.2706  -14.0459 O   0  0  0  0  0  0  0  0  0  0  0  0
   19.9340   -8.5836  -15.1412 O   0  0  0  0  0  0  0  0  0  0  0  0
  1  2  1  0
  3  4  1  1
  3  2  1  0
  5  3  1  0
  5  7  1  0
  5  6  1  1
  7  8  2  0
 10  9  1  0
 11 10  1  0
 12 11  1  0
 13 12  1  1
 14  7  1  0
 14 13  1  0
 15 21  1  0
 15 13  1  0
 16 15  2  0
 18 17  1  1
 18 19  1  0
 20 21  1  6
 20 18  1  0
 22 20  1  0
 22 23  1  0
 24 22  2  0
M  END
$$$$
