IMT.pdb
     RDKit          3D

 24 23  0  0  1  0  0  0  0  0999 V2000
   28.1280  -16.9563  -17.6562 C   0  0  0  0  0  0  0  0  0  0  0  0
   28.6816  -17.9421  -16.6466 C   0  0  0  0  0  0  0  0  0  0  0  0
   27.6286  -18.5642  -15.8066 C   0  0  2  0  0  0  0  0  0  0  0  0
   26.7460  -17.5525  -15.1101 C   0  0  0  0  0  0  0  0  0  0  0  0
   28.1183  -19.6560  -14.8887 C   0  0  2  0  0  0  0  0  0  0  0  0
   28.7858  -20.7015  -15.7042 N   0  0  0  0  0  0  0  0  0  0  0  0
   27.0391  -20.3412  -14.1387 C   0  0  0  0  0  0  0  0  0  0  0  0
   26.2853  -21.1560  -14.7392 O   0  0  0  0  0  0  0  0  0  0  0  0
   26.8755  -20.2286   -7.8272 C   0  0  0  0  0  0  0  0  0  0  0  0
   25.1639  -20.8122   -7.9234 S   0  0  0  0  0  0  0  0  0  0  0  0
   24.7083  -21.0481   -9.6930 C   0  0  0  0  0  0  0  0  0  0  0  0
   25.8659  -20.5852  -10.5223 C   0  0  0  0  0  0  0  0  0  0  0  0
   25.7032  -20.7170  -12.0012 C   0  0  2  0  0  0  0  0  0  0  0  0
   26.7798  -20.1466  -12.7469 N   0  0  0  0  0  0  0  0  0  0  0  0
   24.3417  -20.4186  -12.4920 C   0  0  0  0  0  0  0  0  0  0  0  0
   24.0651  -19.1977  -12.6275 O   0  0  0  0  0  0  0  0  0  0  0  0
   20.3737  -21.3351  -15.1744 C   0  0  0  0  0  0  0  0  0  0  0  0
   21.7535  -21.7478  -14.6921 C   0  0  1  0  0  0  0  0  0  0  0  0
   22.7026  -21.7166  -15.6778 O   0  0  0  0  0  0  0  0  0  0  0  0
   22.0888  -21.0096  -13.4542 C   0  0  2  0  0  0  0  0  0  0  0  0
   23.3262  -21.3215  -12.8184 N   0  0  0  0  0  0  0  0  0  0  0  0
   20.9855  -21.1658  -12.4822 C   0  0  0  0  0  0  0  0  0  0  0  0
   19.7305  -20.6610  -12.7447 O   0  0  0  0  0  0  0  0  0  0  0  0
   21.1895  -21.7638  -11.4052 O   0  0  0  0  0  0  0  0  0  0  0  0
  1  2  1  0
  3  4  1  1
  3  2  1  0
  5  3  1  0
  5  7  1  0
  5  6  1  6
  7  8  2  0
 10  9  1  0
 11 10  1  0
 12 11  1  0
 13 12  1  1
 14  7  1  0
 14 13  1  0
 15 21  1  0
 15 13  1  0
 16 15  2  0
 18 17  1  6
 18 19  1  0
 20 21  1  1
 20 18  1  0
 22 20  1  0
 22 23  1  0
 24 22  2  0
M  END
$$$$
