IMT.pdb
     RDKit          3D

 24 23  0  0  1  0  0  0  0  0999 V2000
   28.8853  -16.0611  -18.3919 C   0  0  0  0  0  0  0  0  0  0  0  0
   27.8989  -15.9145  -17.2504 C   0  0  0  0  0  0  0  0  0  0  0  0
   27.4538  -17.2177  -16.6980 C   0  0  2  0  0  0  0  0  0  0  0  0
   27.1350  -18.2405  -17.7657 C   0  0  0  0  0  0  0  0  0  0  0  0
   26.3904  -17.1205  -15.6331 C   0  0  2  0  0  0  0  0  0  0  0  0
   26.8989  -16.2709  -14.5271 N   0  0  0  0  0  0  0  0  0  0  0  0
   26.0279  -18.4218  -15.0236 C   0  0  0  0  0  0  0  0  0  0  0  0
   25.4260  -19.2872  -15.7175 O   0  0  0  0  0  0  0  0  0  0  0  0
   28.0531  -21.5732   -9.4102 C   0  0  0  0  0  0  0  0  0  0  0  0
   29.1584  -21.0152  -10.7316 S   0  0  0  0  0  0  0  0  0  0  0  0
   28.1838  -20.8043  -12.2809 C   0  0  0  0  0  0  0  0  0  0  0  0
   26.8000  -20.3867  -11.8900 C   0  0  0  0  0  0  0  0  0  0  0  0
   25.9003  -19.9794  -13.0105 C   0  0  2  0  0  0  0  0  0  0  0  0
   26.3178  -18.7840  -13.6719 N   0  0  0  0  0  0  0  0  0  0  0  0
   24.4590  -20.0825  -12.7011 C   0  0  0  0  0  0  0  0  0  0  0  0
   24.0640  -19.4153  -11.7090 O   0  0  0  0  0  0  0  0  0  0  0  0
   21.5589  -18.4822  -13.8161 C   0  0  0  0  0  0  0  0  0  0  0  0
   21.2700  -19.9523  -14.0657 C   0  0  1  0  0  0  0  0  0  0  0  0
   21.3342  -20.2990  -15.3881 O   0  0  0  0  0  0  0  0  0  0  0  0
   22.0786  -20.7812  -13.1444 C   0  0  2  0  0  0  0  0  0  0  0  0
   23.4857  -20.8305  -13.3691 N   0  0  0  0  0  0  0  0  0  0  0  0
   21.5367  -22.1568  -13.1271 C   0  0  0  0  0  0  0  0  0  0  0  0
   20.2445  -22.4064  -12.7187 O   0  0  0  0  0  0  0  0  0  0  0  0
   22.2575  -23.1106  -13.4873 O   0  0  0  0  0  0  0  0  0  0  0  0
  1  2  1  0
  3  4  1  6
  3  2  1  0
  5  3  1  0
  5  7  1  0
  5  6  1  1
  7  8  2  0
 10  9  1  0
 11 10  1  0
 12 11  1  0
 13 12  1  1
 14  7  1  0
 14 13  1  0
 15 21  1  0
 15 13  1  0
 16 15  2  0
 18 17  1  6
 18 19  1  0
 20 21  1  6
 20 18  1  0
 22 20  1  0
 22 23  1  0
 24 22  2  0
M  END
$$$$
