IMT.pdb
     RDKit          3D

 24 23  0  0  1  0  0  0  0  0999 V2000
   26.6907  -23.8339  -16.5353 C   0  0  0  0  0  0  0  0  0  0  0  0
   26.7214  -22.3279  -16.3661 C   0  0  0  0  0  0  0  0  0  0  0  0
   25.4166  -21.7662  -15.9379 C   0  0  2  0  0  0  0  0  0  0  0  0
   24.2364  -22.3895  -16.6495 C   0  0  0  0  0  0  0  0  0  0  0  0
   25.3603  -20.2595  -15.9031 C   0  0  2  0  0  0  0  0  0  0  0  0
   26.5012  -19.7578  -15.0968 N   0  0  0  0  0  0  0  0  0  0  0  0
   24.1349  -19.7173  -15.2702 C   0  0  0  0  0  0  0  0  0  0  0  0
   23.9549  -19.8716  -14.0305 O   0  0  0  0  0  0  0  0  0  0  0  0
   21.2939  -13.8012  -15.9241 C   0  0  0  0  0  0  0  0  0  0  0  0
   19.9694  -14.9696  -16.3239 S   0  0  0  0  0  0  0  0  0  0  0  0
   20.2694  -16.5488  -15.4234 C   0  0  0  0  0  0  0  0  0  0  0  0
   21.5004  -17.1725  -16.0045 C   0  0  0  0  0  0  0  0  0  0  0  0
   21.9109  -18.4808  -15.4121 C   0  0  2  0  0  0  0  0  0  0  0  0
   23.1123  -19.0103  -15.9750 N   0  0  0  0  0  0  0  0  0  0  0  0
   20.8015  -19.4392  -15.2270 C   0  0  0  0  0  0  0  0  0  0  0  0
   20.5517  -20.1828  -16.2119 O   0  0  0  0  0  0  0  0  0  0  0  0
   17.5565  -22.0170  -12.5155 C   0  0  0  0  0  0  0  0  0  0  0  0
   18.8104  -21.1609  -12.5570 C   0  0  1  0  0  0  0  0  0  0  0  0
   19.9026  -21.7744  -12.0056 O   0  0  0  0  0  0  0  0  0  0  0  0
   18.9982  -20.6203  -13.9216 C   0  0  2  0  0  0  0  0  0  0  0  0
   19.9958  -19.6173  -14.0991 N   0  0  0  0  0  0  0  0  0  0  0  0
   17.7027  -20.1176  -14.4270 C   0  0  0  0  0  0  0  0  0  0  0  0
   16.8107  -20.9587  -15.0562 O   0  0  0  0  0  0  0  0  0  0  0  0
   17.4079  -18.9128  -14.2837 O   0  0  0  0  0  0  0  0  0  0  0  0
  1  2  1  0
  3  4  1  6
  3  2  1  0
  5  3  1  0
  5  7  1  0
  5  6  1  1
  7  8  2  0
 10  9  1  0
 11 10  1  0
 12 11  1  0
 13 12  1  6
 14  7  1  0
 14 13  1  0
 15 21  1  0
 15 13  1  0
 16 15  2  0
 18 17  1  6
 18 19  1  0
 20 21  1  1
 20 18  1  0
 22 20  1  0
 22 23  1  0
 24 22  2  0
M  END
$$$$
