IMT.pdb
     RDKit          3D

 24 23  0  0  1  0  0  0  0  0999 V2000
   23.6474  -20.0593  -15.8451 C   0  0  0  0  0  0  0  0  0  0  0  0
   24.9251  -20.2399  -15.0499 C   0  0  0  0  0  0  0  0  0  0  0  0
   24.6796  -20.4989  -13.6097 C   0  0  2  0  0  0  0  0  0  0  0  0
   23.6885  -19.5381  -12.9913 C   0  0  0  0  0  0  0  0  0  0  0  0
   25.9263  -20.6803  -12.7807 C   0  0  2  0  0  0  0  0  0  0  0  0
   26.7450  -21.7635  -13.3809 N   0  0  0  0  0  0  0  0  0  0  0  0
   25.6641  -21.0864  -11.3798 C   0  0  0  0  0  0  0  0  0  0  0  0
   25.1569  -22.2180  -11.1450 O   0  0  0  0  0  0  0  0  0  0  0  0
   29.1688  -19.2975   -6.6012 C   0  0  0  0  0  0  0  0  0  0  0  0
   27.7854  -19.6571   -5.4892 S   0  0  0  0  0  0  0  0  0  0  0  0
   26.3996  -20.3759   -6.4677 C   0  0  0  0  0  0  0  0  0  0  0  0
   26.6446  -20.0448   -7.9073 C   0  0  0  0  0  0  0  0  0  0  0  0
   25.6505  -20.5887   -8.8804 C   0  0  2  0  0  0  0  0  0  0  0  0
   25.9516  -20.2729  -10.2406 N   0  0  0  0  0  0  0  0  0  0  0  0
   24.2414  -20.4182   -8.4693 C   0  0  0  0  0  0  0  0  0  0  0  0
   23.7260  -19.3006   -8.7354 O   0  0  0  0  0  0  0  0  0  0  0  0
   21.3326  -23.3876   -8.2012 C   0  0  0  0  0  0  0  0  0  0  0  0
   21.0397  -21.8992   -8.2754 C   0  0  1  0  0  0  0  0  0  0  0  0
   19.7312  -21.5920   -8.0170 O   0  0  0  0  0  0  0  0  0  0  0  0
   22.0429  -21.1550   -7.4821 C   0  0  2  0  0  0  0  0  0  0  0  0
   23.4157  -21.3398   -7.8199 N   0  0  0  0  0  0  0  0  0  0  0  0
   21.8466  -21.4549   -6.0475 C   0  0  0  0  0  0  0  0  0  0  0  0
   20.6276  -21.2493   -5.4389 O   0  0  0  0  0  0  0  0  0  0  0  0
   22.7977  -21.9015   -5.3728 O   0  0  0  0  0  0  0  0  0  0  0  0
  1  2  1  0
  3  4  1  1
  3  2  1  0
  5  3  1  0
  5  7  1  0
  5  6  1  6
  7  8  2  0
 10  9  1  0
 11 10  1  0
 12 11  1  0
 13 12  1  1
 14  7  1  0
 14 13  1  0
 15 21  1  0
 15 13  1  0
 16 15  2  0
 18 17  1  1
 18 19  1  0
 20 21  1  6
 20 18  1  0
 22 20  1  0
 22 23  1  0
 24 22  2  0
M  END
$$$$
