IMT.pdb
     RDKit          3D

 24 23  0  0  1  0  0  0  0  0999 V2000
   14.9332   -9.3481  -19.6671 C   0  0  0  0  0  0  0  0  0  0  0  0
   16.1122  -10.2756  -19.4493 C   0  0  0  0  0  0  0  0  0  0  0  0
   17.0744   -9.7633  -18.4427 C   0  0  2  0  0  0  0  0  0  0  0  0
   17.5280   -8.3468  -18.7180 C   0  0  0  0  0  0  0  0  0  0  0  0
   18.2131  -10.6999  -18.1259 C   0  0  2  0  0  0  0  0  0  0  0  0
   17.6524  -12.0167  -17.7318 N   0  0  0  0  0  0  0  0  0  0  0  0
   19.0616  -10.2553  -16.9951 C   0  0  0  0  0  0  0  0  0  0  0  0
   18.5748  -10.2135  -15.8314 O   0  0  0  0  0  0  0  0  0  0  0  0
   24.5036  -12.2042  -14.6741 C   0  0  0  0  0  0  0  0  0  0  0  0
   25.0013  -10.4751  -14.8791 S   0  0  0  0  0  0  0  0  0  0  0  0
   23.4937   -9.4169  -14.9197 C   0  0  0  0  0  0  0  0  0  0  0  0
   22.5806   -9.9727  -15.9682 C   0  0  0  0  0  0  0  0  0  0  0  0
   21.2486   -9.3082  -16.0924 C   0  0  2  0  0  0  0  0  0  0  0  0
   20.4291   -9.8608  -17.1237 N   0  0  0  0  0  0  0  0  0  0  0  0
   21.2959   -7.8331  -16.0190 C   0  0  0  0  0  0  0  0  0  0  0  0
   21.6625   -7.2451  -17.0704 O   0  0  0  0  0  0  0  0  0  0  0  0
   19.9597   -3.3955  -14.6054 C   0  0  0  0  0  0  0  0  0  0  0  0
   19.7194   -4.8909  -14.7183 C   0  0  1  0  0  0  0  0  0  0  0  0
   18.7322   -5.2142  -15.6095 O   0  0  0  0  0  0  0  0  0  0  0  0
   21.0103   -5.5888  -14.9088 C   0  0  2  0  0  0  0  0  0  0  0  0
   20.9894   -7.0143  -14.9288 N   0  0  0  0  0  0  0  0  0  0  0  0
   21.9678   -5.1272  -13.8809 C   0  0  0  0  0  0  0  0  0  0  0  0
   22.4053   -5.9741  -12.8859 O   0  0  0  0  0  0  0  0  0  0  0  0
   22.3893   -3.9522  -13.9108 O   0  0  0  0  0  0  0  0  0  0  0  0
  1  2  1  0
  3  4  1  6
  3  2  1  0
  5  3  1  0
  5  7  1  0
  5  6  1  1
  7  8  2  0
 10  9  1  0
 11 10  1  0
 12 11  1  0
 13 12  1  6
 14  7  1  0
 14 13  1  0
 15 21  1  0
 15 13  1  0
 16 15  2  0
 18 17  1  6
 18 19  1  0
 20 21  1  1
 20 18  1  0
 22 20  1  0
 22 23  1  0
 24 22  2  0
M  END
$$$$
