IMT.pdb
     RDKit          3D

 24 23  0  0  1  0  0  0  0  0999 V2000
   18.0089  -12.9138  -21.4799 C   0  0  0  0  0  0  0  0  0  0  0  0
   18.9969  -13.1509  -20.3551 C   0  0  0  0  0  0  0  0  0  0  0  0
   18.9515  -12.0967  -19.3120 C   0  0  2  0  0  0  0  0  0  0  0  0
   19.0950  -10.6984  -19.8705 C   0  0  0  0  0  0  0  0  0  0  0  0
   19.8372  -12.3527  -18.1185 C   0  0  2  0  0  0  0  0  0  0  0  0
   19.4997  -13.6819  -17.5501 N   0  0  0  0  0  0  0  0  0  0  0  0
   19.6630  -11.3749  -17.0186 C   0  0  0  0  0  0  0  0  0  0  0  0
   18.6208  -11.4176  -16.3080 O   0  0  0  0  0  0  0  0  0  0  0  0
   22.0939  -10.5350  -11.5917 C   0  0  0  0  0  0  0  0  0  0  0  0
   22.5015   -8.8652  -12.1620 S   0  0  0  0  0  0  0  0  0  0  0  0
   21.3470   -8.3954  -13.5188 C   0  0  0  0  0  0  0  0  0  0  0  0
   21.4491   -9.4450  -14.5817 C   0  0  0  0  0  0  0  0  0  0  0  0
   20.4551   -9.3479  -15.6924 C   0  0  2  0  0  0  0  0  0  0  0  0
   20.6125  -10.3590  -16.6891 N   0  0  0  0  0  0  0  0  0  0  0  0
   20.2301   -7.9743  -16.1886 C   0  0  0  0  0  0  0  0  0  0  0  0
   21.1577   -7.4868  -16.8866 O   0  0  0  0  0  0  0  0  0  0  0  0
   16.9582   -6.2201  -17.9758 C   0  0  0  0  0  0  0  0  0  0  0  0
   17.5075   -5.4484  -16.7885 C   0  0  1  0  0  0  0  0  0  0  0  0
   16.6763   -5.4653  -15.7012 O   0  0  0  0  0  0  0  0  0  0  0  0
   18.9065   -5.8578  -16.5338 C   0  0  2  0  0  0  0  0  0  0  0  0
   19.1207   -7.1519  -15.9749 N   0  0  0  0  0  0  0  0  0  0  0  0
   19.5620   -4.8419  -15.6825 C   0  0  0  0  0  0  0  0  0  0  0  0
   19.6406   -3.5250  -16.0803 O   0  0  0  0  0  0  0  0  0  0  0  0
   20.0537   -5.1780  -14.5850 O   0  0  0  0  0  0  0  0  0  0  0  0
  1  2  1  0
  3  4  1  6
  3  2  1  0
  5  3  1  0
  5  7  1  0
  5  6  1  1
  7  8  2  0
 10  9  1  0
 11 10  1  0
 12 11  1  0
 13 12  1  6
 14  7  1  0
 14 13  1  0
 15 21  1  0
 15 13  1  0
 16 15  2  0
 18 17  1  6
 18 19  1  0
 20 21  1  1
 20 18  1  0
 22 20  1  0
 22 23  1  0
 24 22  2  0
M  END
$$$$
