IMT.pdb
     RDKit          3D

 24 23  0  0  1  0  0  0  0  0999 V2000
   27.9988  -17.7174  -17.2408 C   0  0  0  0  0  0  0  0  0  0  0  0
   28.4980  -18.8471  -16.3621 C   0  0  0  0  0  0  0  0  0  0  0  0
   27.5274  -19.2346  -15.3090 C   0  0  2  0  0  0  0  0  0  0  0  0
   27.0986  -18.0753  -14.4372 C   0  0  0  0  0  0  0  0  0  0  0  0
   27.9107  -20.4608  -14.5192 C   0  0  2  0  0  0  0  0  0  0  0  0
   28.1032  -21.5932  -15.4596 N   0  0  0  0  0  0  0  0  0  0  0  0
   26.8799  -20.8984  -13.5486 C   0  0  0  0  0  0  0  0  0  0  0  0
   25.8583  -21.5137  -13.9616 O   0  0  0  0  0  0  0  0  0  0  0  0
   26.8753  -19.2570   -6.9806 C   0  0  0  0  0  0  0  0  0  0  0  0
   26.1527  -20.9147   -7.0777 S   0  0  0  0  0  0  0  0  0  0  0  0
   25.3522  -21.1254   -8.7238 C   0  0  0  0  0  0  0  0  0  0  0  0
   26.3799  -20.8167   -9.7680 C   0  0  0  0  0  0  0  0  0  0  0  0
   25.9250  -20.9332  -11.1859 C   0  0  2  0  0  0  0  0  0  0  0  0
   26.9564  -20.6731  -12.1394 N   0  0  0  0  0  0  0  0  0  0  0  0
   24.6146  -20.3066  -11.4574 C   0  0  0  0  0  0  0  0  0  0  0  0
   24.6282  -19.0572  -11.6134 O   0  0  0  0  0  0  0  0  0  0  0  0
   22.3845  -22.1058  -14.0609 C   0  0  0  0  0  0  0  0  0  0  0  0
   22.2162  -20.6313  -13.7378 C   0  0  1  0  0  0  0  0  0  0  0  0
   21.1709  -20.0482  -14.4015 O   0  0  0  0  0  0  0  0  0  0  0  0
   22.2330  -20.4389  -12.2707 C   0  0  2  0  0  0  0  0  0  0  0  0
   23.3666  -20.9275  -11.5573 N   0  0  0  0  0  0  0  0  0  0  0  0
   21.0023  -21.0184  -11.6912 C   0  0  0  0  0  0  0  0  0  0  0  0
   21.0646  -21.9523  -10.6799 O   0  0  0  0  0  0  0  0  0  0  0  0
   19.8867  -20.6591  -12.1218 O   0  0  0  0  0  0  0  0  0  0  0  0
  1  2  1  0
  3  4  1  1
  3  2  1  0
  5  3  1  0
  5  7  1  0
  5  6  1  6
  7  8  2  0
 10  9  1  0
 11 10  1  0
 12 11  1  0
 13 12  1  1
 14  7  1  0
 14 13  1  0
 15 21  1  0
 15 13  1  0
 16 15  2  0
 18 17  1  1
 18 19  1  0
 20 21  1  1
 20 18  1  0
 22 20  1  0
 22 23  1  0
 24 22  2  0
M  END
$$$$
