IMT.pdb
     RDKit          3D

 24 23  0  0  1  0  0  0  0  0999 V2000
   13.0921  -14.0103  -11.5016 C   0  0  0  0  0  0  0  0  0  0  0  0
   14.4829  -13.4479  -11.2854 C   0  0  0  0  0  0  0  0  0  0  0  0
   14.5410  -11.9726  -11.4331 C   0  0  2  0  0  0  0  0  0  0  0  0
   13.8832  -11.4737  -12.7005 C   0  0  0  0  0  0  0  0  0  0  0  0
   15.9018  -11.3685  -11.1935 C   0  0  2  0  0  0  0  0  0  0  0  0
   16.3515  -11.7323   -9.8264 N   0  0  0  0  0  0  0  0  0  0  0  0
   15.9230   -9.8880  -11.2568 C   0  0  0  0  0  0  0  0  0  0  0  0
   15.7660   -9.3109  -12.3682 O   0  0  0  0  0  0  0  0  0  0  0  0
   14.5175   -3.2262   -7.2025 C   0  0  0  0  0  0  0  0  0  0  0  0
   14.5278   -5.0321   -7.3369 S   0  0  0  0  0  0  0  0  0  0  0  0
   15.4479   -5.5159   -8.8580 C   0  0  0  0  0  0  0  0  0  0  0  0
   15.4752   -7.0121   -8.9120 C   0  0  0  0  0  0  0  0  0  0  0  0
   16.1023   -7.6098  -10.1287 C   0  0  2  0  0  0  0  0  0  0  0  0
   16.1106   -9.0383  -10.1232 N   0  0  0  0  0  0  0  0  0  0  0  0
   17.3571   -6.9534  -10.5508 C   0  0  0  0  0  0  0  0  0  0  0  0
   18.3126   -7.0244   -9.7338 O   0  0  0  0  0  0  0  0  0  0  0  0
   20.8874   -6.1181  -13.6139 C   0  0  0  0  0  0  0  0  0  0  0  0
   19.5439   -6.7138  -13.2303 C   0  0  1  0  0  0  0  0  0  0  0  0
   19.6116   -8.0450  -12.9196 O   0  0  0  0  0  0  0  0  0  0  0  0
   18.8874   -5.8516  -12.2227 C   0  0  2  0  0  0  0  0  0  0  0  0
   17.6107   -6.2624  -11.7387 N   0  0  0  0  0  0  0  0  0  0  0  0
   18.7909   -4.4742  -12.7515 C   0  0  0  0  0  0  0  0  0  0  0  0
   17.5677   -3.9035  -13.0287 O   0  0  0  0  0  0  0  0  0  0  0  0
   19.8315   -3.8138  -12.9519 O   0  0  0  0  0  0  0  0  0  0  0  0
  1  2  1  0
  3  4  1  6
  3  2  1  0
  5  3  1  0
  5  7  1  0
  5  6  1  1
  7  8  2  0
 10  9  1  0
 11 10  1  0
 12 11  1  0
 13 12  1  1
 14  7  1  0
 14 13  1  0
 15 21  1  0
 15 13  1  0
 16 15  2  0
 18 17  1  1
 18 19  1  0
 20 21  1  6
 20 18  1  0
 22 20  1  0
 22 23  1  0
 24 22  2  0
M  END
$$$$
