IMT.pdb
     RDKit          3D

 24 23  0  0  1  0  0  0  0  0999 V2000
   15.5717   -7.3760  -16.5977 C   0  0  0  0  0  0  0  0  0  0  0  0
   16.3897   -8.4883  -15.9722 C   0  0  0  0  0  0  0  0  0  0  0  0
   16.9565   -9.4246  -16.9739 C   0  0  2  0  0  0  0  0  0  0  0  0
   15.9236   -9.9620  -17.9395 C   0  0  0  0  0  0  0  0  0  0  0  0
   17.8471  -10.4978  -16.4000 C   0  0  2  0  0  0  0  0  0  0  0  0
   17.0716  -11.2797  -15.4046 N   0  0  0  0  0  0  0  0  0  0  0  0
   19.0343   -9.9753  -15.6831 C   0  0  0  0  0  0  0  0  0  0  0  0
   19.0442   -9.9657  -14.4211 O   0  0  0  0  0  0  0  0  0  0  0  0
   26.6288  -10.0084  -14.5349 C   0  0  0  0  0  0  0  0  0  0  0  0
   25.1297  -10.5401  -15.4006 S   0  0  0  0  0  0  0  0  0  0  0  0
   23.8102   -9.2797  -15.1460 C   0  0  0  0  0  0  0  0  0  0  0  0
   22.5886   -9.7528  -15.8712 C   0  0  0  0  0  0  0  0  0  0  0  0
   21.3576   -8.9279  -15.6832 C   0  0  2  0  0  0  0  0  0  0  0  0
   20.2041   -9.4687  -16.3292 N   0  0  0  0  0  0  0  0  0  0  0  0
   21.5701   -7.4741  -15.8408 C   0  0  0  0  0  0  0  0  0  0  0  0
   21.8349   -7.0839  -17.0083 O   0  0  0  0  0  0  0  0  0  0  0  0
   19.3476   -4.3549  -14.1956 C   0  0  0  0  0  0  0  0  0  0  0  0
   20.8547   -4.2285  -14.0568 C   0  0  1  0  0  0  0  0  0  0  0  0
   21.2945   -4.3873  -12.7704 O   0  0  0  0  0  0  0  0  0  0  0  0
   21.5202   -5.0746  -15.0721 C   0  0  2  0  0  0  0  0  0  0  0  0
   21.5181   -6.4839  -14.8560 N   0  0  0  0  0  0  0  0  0  0  0  0
   22.9116   -4.6091  -15.2553 C   0  0  0  0  0  0  0  0  0  0  0  0
   23.1821   -3.3206  -15.6619 O   0  0  0  0  0  0  0  0  0  0  0  0
   23.8598   -5.3923  -15.0394 O   0  0  0  0  0  0  0  0  0  0  0  0
  1  2  1  0
  3  4  1  1
  3  2  1  0
  5  3  1  0
  5  7  1  0
  5  6  1  1
  7  8  2  0
 10  9  1  0
 11 10  1  0
 12 11  1  0
 13 12  1  6
 14  7  1  0
 14 13  1  0
 15 21  1  0
 15 13  1  0
 16 15  2  0
 18 17  1  1
 18 19  1  0
 20 21  1  1
 20 18  1  0
 22 20  1  0
 22 23  1  0
 24 22  2  0
M  END
$$$$
