IMT.pdb
     RDKit          3D

 24 23  0  0  1  0  0  0  0  0999 V2000
   21.7485  -13.7354  -21.5501 C   0  0  0  0  0  0  0  0  0  0  0  0
   22.5329  -13.7466  -20.2532 C   0  0  0  0  0  0  0  0  0  0  0  0
   21.9347  -12.8817  -19.2065 C   0  0  2  0  0  0  0  0  0  0  0  0
   21.5708  -11.5022  -19.7089 C   0  0  0  0  0  0  0  0  0  0  0  0
   22.6901  -12.8577  -17.9014 C   0  0  2  0  0  0  0  0  0  0  0  0
   22.8840  -14.2541  -17.4366 N   0  0  0  0  0  0  0  0  0  0  0  0
   21.9812  -12.1514  -16.8083 C   0  0  0  0  0  0  0  0  0  0  0  0
   20.9617  -12.6801  -16.2849 O   0  0  0  0  0  0  0  0  0  0  0  0
   22.5404  -10.6532  -10.4196 C   0  0  0  0  0  0  0  0  0  0  0  0
   22.9571   -9.2321  -11.4619 S   0  0  0  0  0  0  0  0  0  0  0  0
   21.8283   -9.2037  -12.9178 C   0  0  0  0  0  0  0  0  0  0  0  0
   22.4963   -9.9638  -14.0215 C   0  0  0  0  0  0  0  0  0  0  0  0
   21.6960  -10.1393  -15.2703 C   0  0  2  0  0  0  0  0  0  0  0  0
   22.3756  -10.8818  -16.2840 N   0  0  0  0  0  0  0  0  0  0  0  0
   20.9928   -8.9193  -15.7183 C   0  0  0  0  0  0  0  0  0  0  0  0
   21.6643   -8.1350  -16.4389 O   0  0  0  0  0  0  0  0  0  0  0  0
   16.8766   -8.0023  -14.9268 C   0  0  0  0  0  0  0  0  0  0  0  0
   17.5616   -7.4617  -16.1699 C   0  0  1  0  0  0  0  0  0  0  0  0
   16.9663   -6.3346  -16.6684 O   0  0  0  0  0  0  0  0  0  0  0  0
   19.0191   -7.3670  -15.9328 C   0  0  2  0  0  0  0  0  0  0  0  0
   19.6807   -8.5288  -15.4373 N   0  0  0  0  0  0  0  0  0  0  0  0
   19.2911   -6.2266  -15.0317 C   0  0  0  0  0  0  0  0  0  0  0  0
   19.8933   -6.4166  -13.8069 O   0  0  0  0  0  0  0  0  0  0  0  0
   18.9718   -5.0713  -15.3818 O   0  0  0  0  0  0  0  0  0  0  0  0
  1  2  1  0
  3  4  1  6
  3  2  1  0
  5  3  1  0
  5  7  1  0
  5  6  1  1
  7  8  2  0
 10  9  1  0
 11 10  1  0
 12 11  1  0
 13 12  1  1
 14  7  1  0
 14 13  1  0
 15 21  1  0
 15 13  1  0
 16 15  2  0
 18 17  1  1
 18 19  1  0
 20 21  1  1
 20 18  1  0
 22 20  1  0
 22 23  1  0
 24 22  2  0
M  END
$$$$
