IMT.pdb
     RDKit          3D

 24 23  0  0  1  0  0  0  0  0999 V2000
   30.3069  -20.8918  -18.2078 C   0  0  0  0  0  0  0  0  0  0  0  0
   29.5227  -19.9917  -17.2738 C   0  0  0  0  0  0  0  0  0  0  0  0
   28.3892  -20.6866  -16.6152 C   0  0  2  0  0  0  0  0  0  0  0  0
   27.5446  -21.4934  -17.5762 C   0  0  0  0  0  0  0  0  0  0  0  0
   27.5716  -19.8209  -15.6897 C   0  0  2  0  0  0  0  0  0  0  0  0
   28.4929  -19.0727  -14.7981 N   0  0  0  0  0  0  0  0  0  0  0  0
   26.6613  -20.5815  -14.8013 C   0  0  0  0  0  0  0  0  0  0  0  0
   25.7733  -21.3217  -15.3077 O   0  0  0  0  0  0  0  0  0  0  0  0
   26.2825  -19.5744   -8.0522 C   0  0  0  0  0  0  0  0  0  0  0  0
   25.8389  -21.3000   -8.3758 S   0  0  0  0  0  0  0  0  0  0  0  0
   25.0880  -21.4226  -10.0538 C   0  0  0  0  0  0  0  0  0  0  0  0
   26.1278  -21.0008  -11.0452 C   0  0  0  0  0  0  0  0  0  0  0  0
   25.7082  -21.0190  -12.4786 C   0  0  2  0  0  0  0  0  0  0  0  0
   26.7142  -20.5423  -13.3737 N   0  0  0  0  0  0  0  0  0  0  0  0
   24.3369  -20.5227  -12.7170 C   0  0  0  0  0  0  0  0  0  0  0  0
   24.1557  -19.2948  -12.5056 O   0  0  0  0  0  0  0  0  0  0  0  0
   22.4575  -19.7842  -15.6983 C   0  0  0  0  0  0  0  0  0  0  0  0
   21.5627  -20.7311  -14.9175 C   0  0  1  0  0  0  0  0  0  0  0  0
   21.4596  -21.9711  -15.4876 O   0  0  0  0  0  0  0  0  0  0  0  0
   21.9451  -20.7111  -13.4882 C   0  0  2  0  0  0  0  0  0  0  0  0
   23.2201  -21.2473  -13.1419 N   0  0  0  0  0  0  0  0  0  0  0  0
   20.8969  -21.3893  -12.6959 C   0  0  0  0  0  0  0  0  0  0  0  0
   19.6028  -20.9163  -12.6770 O   0  0  0  0  0  0  0  0  0  0  0  0
   21.1841  -22.4070  -12.0319 O   0  0  0  0  0  0  0  0  0  0  0  0
  1  2  1  0
  3  4  1  6
  3  2  1  0
  5  3  1  0
  5  7  1  0
  5  6  1  1
  7  8  2  0
 10  9  1  0
 11 10  1  0
 12 11  1  0
 13 12  1  1
 14  7  1  0
 14 13  1  0
 15 21  1  0
 15 13  1  0
 16 15  2  0
 18 17  1  6
 18 19  1  0
 20 21  1  6
 20 18  1  0
 22 20  1  0
 22 23  1  0
 24 22  2  0
M  END
$$$$
