IMT.pdb
     RDKit          3D

 24 23  0  0  1  0  0  0  0  0999 V2000
   22.2992   -8.2923  -14.6638 C   0  0  0  0  0  0  0  0  0  0  0  0
   21.5070   -9.4771  -14.1480 C   0  0  0  0  0  0  0  0  0  0  0  0
   20.1970   -9.0903  -13.5685 C   0  0  2  0  0  0  0  0  0  0  0  0
   20.3043   -7.9980  -12.5277 C   0  0  0  0  0  0  0  0  0  0  0  0
   19.3368  -10.2478  -13.1273 C   0  0  2  0  0  0  0  0  0  0  0  0
   19.1740  -11.1835  -14.2682 N   0  0  0  0  0  0  0  0  0  0  0  0
   17.9686   -9.8574  -12.7126 C   0  0  0  0  0  0  0  0  0  0  0  0
   17.1401   -9.4747  -13.5843 O   0  0  0  0  0  0  0  0  0  0  0  0
   11.1918  -11.3050   -9.6280 C   0  0  0  0  0  0  0  0  0  0  0  0
   12.8724  -11.7358  -10.1470 S   0  0  0  0  0  0  0  0  0  0  0  0
   13.8944  -10.2039  -10.2048 C   0  0  0  0  0  0  0  0  0  0  0  0
   15.2499  -10.5849  -10.7143 C   0  0  0  0  0  0  0  0  0  0  0  0
   16.2142   -9.4607  -10.9071 C   0  0  2  0  0  0  0  0  0  0  0  0
   17.5003   -9.8838  -11.3626 N   0  0  0  0  0  0  0  0  0  0  0  0
   16.2057   -8.4592   -9.8206 C   0  0  0  0  0  0  0  0  0  0  0  0
   16.8373   -8.7778   -8.7789 O   0  0  0  0  0  0  0  0  0  0  0  0
   17.8423   -5.1048   -9.3577 C   0  0  0  0  0  0  0  0  0  0  0  0
   16.3420   -4.9222   -9.2080 C   0  0  1  0  0  0  0  0  0  0  0  0
   15.7642   -4.2946  -10.2782 O   0  0  0  0  0  0  0  0  0  0  0  0
   15.7230   -6.2042   -8.8043 C   0  0  2  0  0  0  0  0  0  0  0  0
   15.5813   -7.2091   -9.8058 N   0  0  0  0  0  0  0  0  0  0  0  0
   14.4049   -5.9347   -8.1908 C   0  0  0  0  0  0  0  0  0  0  0  0
   13.2484   -6.4467   -8.7378 O   0  0  0  0  0  0  0  0  0  0  0  0
   14.3336   -5.2326   -7.1607 O   0  0  0  0  0  0  0  0  0  0  0  0
  1  2  1  0
  3  4  1  1
  3  2  1  0
  5  3  1  0
  5  7  1  0
  5  6  1  6
  7  8  2  0
 10  9  1  0
 11 10  1  0
 12 11  1  0
 13 12  1  1
 14  7  1  0
 14 13  1  0
 15 21  1  0
 15 13  1  0
 16 15  2  0
 18 17  1  6
 18 19  1  0
 20 21  1  6
 20 18  1  0
 22 20  1  0
 22 23  1  0
 24 22  2  0
M  END
$$$$
