IMT.pdb
     RDKit          3D

 24 23  0  0  1  0  0  0  0  0999 V2000
   17.1575  -29.1961   -4.6853 C   0  0  0  0  0  0  0  0  0  0  0  0
   17.6936  -27.8015   -4.4298 C   0  0  0  0  0  0  0  0  0  0  0  0
   17.5317  -26.8960   -5.5941 C   0  0  2  0  0  0  0  0  0  0  0  0
   17.9840  -27.5145   -6.8982 C   0  0  0  0  0  0  0  0  0  0  0  0
   18.0614  -25.4996   -5.3846 C   0  0  2  0  0  0  0  0  0  0  0  0
   17.3308  -24.8771   -4.2522 N   0  0  0  0  0  0  0  0  0  0  0  0
   17.8674  -24.6013   -6.5472 C   0  0  0  0  0  0  0  0  0  0  0  0
   16.7279  -24.1048   -6.7660 O   0  0  0  0  0  0  0  0  0  0  0  0
   21.3350  -19.8770  -10.0491 C   0  0  0  0  0  0  0  0  0  0  0  0
   21.7528  -20.5970   -8.4408 S   0  0  0  0  0  0  0  0  0  0  0  0
   20.3152  -21.5729   -7.8280 C   0  0  0  0  0  0  0  0  0  0  0  0
   19.9518  -22.5589   -8.8947 C   0  0  0  0  0  0  0  0  0  0  0  0
   18.7555  -23.4092   -8.6172 C   0  0  2  0  0  0  0  0  0  0  0  0
   18.9016  -24.2414   -7.4655 N   0  0  0  0  0  0  0  0  0  0  0  0
   18.1752  -24.0514   -9.8148 C   0  0  0  0  0  0  0  0  0  0  0  0
   18.5365  -25.2388  -10.0274 O   0  0  0  0  0  0  0  0  0  0  0  0
   14.5259  -24.7131  -13.0211 C   0  0  0  0  0  0  0  0  0  0  0  0
   15.1049  -23.9328  -11.8537 C   0  0  1  0  0  0  0  0  0  0  0  0
   14.3783  -24.0653  -10.7014 O   0  0  0  0  0  0  0  0  0  0  0  0
   16.5526  -24.2154  -11.7361 C   0  0  2  0  0  0  0  0  0  0  0  0
   17.2818  -23.5032  -10.7391 N   0  0  0  0  0  0  0  0  0  0  0  0
   17.1952  -24.0118  -13.0522 C   0  0  0  0  0  0  0  0  0  0  0  0
   17.3508  -25.0572  -13.9363 O   0  0  0  0  0  0  0  0  0  0  0  0
   17.6050  -22.8764  -13.3719 O   0  0  0  0  0  0  0  0  0  0  0  0
  1  2  1  0
  3  4  1  6
  3  2  1  0
  5  3  1  0
  5  7  1  0
  5  6  1  1
  7  8  2  0
 10  9  1  0
 11 10  1  0
 12 11  1  0
 13 12  1  6
 14  7  1  0
 14 13  1  0
 15 21  1  0
 15 13  1  0
 16 15  2  0
 18 17  1  6
 18 19  1  0
 20 21  1  1
 20 18  1  0
 22 20  1  0
 22 23  1  0
 24 22  2  0
M  END
$$$$
