IMT.pdb
     RDKit          3D

 24 23  0  0  1  0  0  0  0  0999 V2000
   29.0626  -17.1090  -16.1056 C   0  0  0  0  0  0  0  0  0  0  0  0
   28.1806  -18.1106  -16.8243 C   0  0  0  0  0  0  0  0  0  0  0  0
   27.2085  -18.7780  -15.9238 C   0  0  2  0  0  0  0  0  0  0  0  0
   26.1734  -17.8318  -15.3572 C   0  0  0  0  0  0  0  0  0  0  0  0
   27.8282  -19.6733  -14.8803 C   0  0  2  0  0  0  0  0  0  0  0  0
   28.6354  -20.7149  -15.5637 N   0  0  0  0  0  0  0  0  0  0  0  0
   26.8410  -20.3960  -14.0439 C   0  0  0  0  0  0  0  0  0  0  0  0
   26.0601  -21.2281  -14.5829 O   0  0  0  0  0  0  0  0  0  0  0  0
   26.5425  -19.4511   -7.6702 C   0  0  0  0  0  0  0  0  0  0  0  0
   25.5597  -20.9720   -7.6873 S   0  0  0  0  0  0  0  0  0  0  0  0
   25.0034  -21.3082   -9.4113 C   0  0  0  0  0  0  0  0  0  0  0  0
   26.0056  -20.6913  -10.3371 C   0  0  0  0  0  0  0  0  0  0  0  0
   25.7253  -20.8420  -11.7964 C   0  0  2  0  0  0  0  0  0  0  0  0
   26.7024  -20.2200  -12.6325 N   0  0  0  0  0  0  0  0  0  0  0  0
   24.3130  -20.6203  -12.1703 C   0  0  0  0  0  0  0  0  0  0  0  0
   23.9822  -19.4219  -12.3700 O   0  0  0  0  0  0  0  0  0  0  0  0
   20.1244  -21.9537  -14.3262 C   0  0  0  0  0  0  0  0  0  0  0  0
   21.5734  -22.2439  -13.9754 C   0  0  1  0  0  0  0  0  0  0  0  0
   22.3966  -22.2846  -15.0681 O   0  0  0  0  0  0  0  0  0  0  0  0
   22.0073  -21.3518  -12.8774 C   0  0  2  0  0  0  0  0  0  0  0  0
   23.3025  -21.5734  -12.3241 N   0  0  0  0  0  0  0  0  0  0  0  0
   20.9997  -21.3881  -11.7958 C   0  0  0  0  0  0  0  0  0  0  0  0
   19.7389  -20.8638  -11.9812 O   0  0  0  0  0  0  0  0  0  0  0  0
   21.2913  -21.9008  -10.6952 O   0  0  0  0  0  0  0  0  0  0  0  0
  1  2  1  0
  3  4  1  1
  3  2  1  0
  5  3  1  0
  5  7  1  0
  5  6  1  6
  7  8  2  0
 10  9  1  0
 11 10  1  0
 12 11  1  0
 13 12  1  1
 14  7  1  0
 14 13  1  0
 15 21  1  0
 15 13  1  0
 16 15  2  0
 18 17  1  6
 18 19  1  0
 20 21  1  1
 20 18  1  0
 22 20  1  0
 22 23  1  0
 24 22  2  0
M  END
$$$$
