RVP.pdb
     RDKit          3D

 26 26  0  0  1  0  0  0  0  0999 V2000
    8.5955  -12.4856   17.5509 N   0  0  0  0  0  0  0  0  0  0  0  0
    8.4235  -12.0496   18.8968 C   0  0  0  0  0  0  0  0  0  0  0  0
    8.7592  -10.8487   19.2119 N   0  0  0  0  0  0  0  0  0  0  0  0
    7.8952  -12.8930   19.9019 N   0  0  0  0  0  0  0  0  0  0  0  0
    8.1317  -14.3111   19.8239 C   0  0  0  0  0  0  0  0  0  0  0  0
    6.8967  -15.1113   20.1600 C   0  0  0  0  0  0  0  0  0  0  0  0
    7.1417  -16.5852   20.0772 C   0  0  0  0  0  0  0  0  0  0  0  0
    8.1753  -17.0763   21.0568 C   0  0  2  0  0  0  0  0  0  0  0  0
    8.3840  -18.4950   20.9738 N   0  0  0  0  0  0  0  0  0  0  0  0
    7.6893  -16.6952   22.4315 C   0  0  0  0  0  0  0  0  0  0  0  0
    6.4830  -16.5420   22.6622 O   0  0  0  0  0  0  0  0  0  0  0  0
    8.6044  -10.4727   20.1498 C   0  0  0  0  0  0  0  0  0  0  0  0
    6.6523  -17.3838   26.5714 C   0  0  1  0  0  0  0  0  0  0  0  0
    7.2196  -17.4808   25.1770 C   0  0  0  0  0  0  0  0  0  0  0  0
    7.8552  -18.8741   25.0751 C   0  0  2  0  0  0  0  0  0  0  0  0
    8.2568  -16.4143   24.8788 N   0  0  0  0  0  0  0  0  0  0  0  0
    8.6209  -16.5023   23.5026 C   0  0  0  0  0  0  0  0  0  0  0  0
    9.3407  -16.3908   25.8568 O   0  0  0  0  0  0  0  0  0  0  0  0
   10.3174  -17.2078   25.6351 N   0  0  0  0  0  0  0  0  0  0  0  0
    9.4215  -15.5715   27.0055 C   0  0  0  0  0  0  0  0  0  0  0  0
    8.2494  -14.8336   27.5193 C   0  0  0  0  0  0  0  0  0  0  0  0
    8.6984  -14.0901   28.7285 C   0  0  0  0  0  0  0  0  0  0  0  0
   10.1672  -13.8672   28.4101 C   0  0  1  0  0  0  0  0  0  0  0  0
   10.5235  -15.2720   27.8904 C   0  0  0  0  0  0  0  0  0  0  0  0
   10.5007  -16.1263   29.1230 O   0  0  0  0  0  0  0  0  0  0  0  0
   11.5718  -16.0396   29.9803 O   0  0  0  0  0  0  0  0  0  0  0  0
  2  3  2  0
  2  1  1  0
  4  2  1  0
  5  4  1  0
  6  5  1  0
  7  8  1  0
  7  6  1  0
  8 10  1  0
  8  9  1  1
 10 11  2  0
 13 12  1  6
 13 14  1  0
 13 15  1  0
 15 16  1  1
 16 10  1  0
 17 15  1  0
 17 18  2  0
 19 23  1  0
 19 17  1  0
 20 19  1  0
 21 22  1  0
 21 20  1  0
 22 23  1  0
 23 24  1  1
 24 26  2  0
 24 25  1  0
M  END
$$$$
