RVP.pdb
     RDKit          3D

 26 26  0  0  1  0  0  0  0  0999 V2000
    8.7246  -13.6278   14.8299 N   0  0  0  0  0  0  0  0  0  0  0  0
    9.2999  -14.5410   15.7606 C   0  0  0  0  0  0  0  0  0  0  0  0
   10.5664  -14.4950   15.9793 N   0  0  0  0  0  0  0  0  0  0  0  0
    8.5251  -15.4995   16.4548 N   0  0  0  0  0  0  0  0  0  0  0  0
    7.3976  -15.0593   17.2344 C   0  0  0  0  0  0  0  0  0  0  0  0
    7.7780  -13.9874   18.2267 C   0  0  0  0  0  0  0  0  0  0  0  0
    7.1973  -14.2437   19.5818 C   0  0  0  0  0  0  0  0  0  0  0  0
    7.5989  -15.5739   20.1635 C   0  0  2  0  0  0  0  0  0  0  0  0
    7.0745  -16.6835   19.4172 N   0  0  0  0  0  0  0  0  0  0  0  0
    7.0862  -15.6030   21.5804 C   0  0  0  0  0  0  0  0  0  0  0  0
    5.9175  -15.9250   21.8297 O   0  0  0  0  0  0  0  0  0  0  0  0
   11.0255  -15.1327   16.6331 C   0  0  0  0  0  0  0  0  0  0  0  0
    8.0128  -17.8049   24.3139 C   0  0  1  0  0  0  0  0  0  0  0  0
    6.9831  -16.7026   24.3147 C   0  0  0  0  0  0  0  0  0  0  0  0
    5.9759  -17.0641   23.2146 C   0  0  1  0  0  0  0  0  0  0  0  0
    7.5756  -15.3319   24.0456 N   0  0  0  0  0  0  0  0  0  0  0  0
    7.9482  -15.2563   22.6710 C   0  0  0  0  0  0  0  0  0  0  0  0
    8.5804  -14.9468   25.0326 O   0  0  0  0  0  0  0  0  0  0  0  0
    9.7433  -15.4942   24.8959 N   0  0  0  0  0  0  0  0  0  0  0  0
    8.4041  -14.0457   26.1069 C   0  0  0  0  0  0  0  0  0  0  0  0
    7.0783  -13.4902   26.4474 C   0  0  0  0  0  0  0  0  0  0  0  0
    7.2696  -12.5945   27.6212 C   0  0  0  0  0  0  0  0  0  0  0  0
    8.7048  -12.1404   27.4158 C   0  0  1  0  0  0  0  0  0  0  0  0
    9.3434  -13.4945   27.0561 C   0  0  0  0  0  0  0  0  0  0  0  0
    9.3380  -14.2487   28.3526 O   0  0  0  0  0  0  0  0  0  0  0  0
    8.4462  -15.2865   28.4842 O   0  0  0  0  0  0  0  0  0  0  0  0
  2  3  2  0
  2  1  1  0
  4  2  1  0
  5  4  1  0
  6  5  1  0
  7  8  1  0
  7  6  1  0
  8 10  1  0
  8  9  1  6
 10 11  2  0
 13 12  1  1
 13 14  1  0
 13 15  1  0
 15 16  1  6
 16 10  1  0
 17 15  1  0
 17 18  2  0
 19 23  1  0
 19 17  1  0
 20 19  1  0
 21 22  1  0
 21 20  1  0
 22 23  1  0
 23 24  1  1
 24 26  2  0
 24 25  1  0
M  END
$$$$
