RVP.pdb
     RDKit          3D

 26 26  0  0  1  0  0  0  0  0999 V2000
    8.9623  -19.5642   22.8113 N   0  0  0  0  0  0  0  0  0  0  0  0
    8.7861  -20.3870   21.6611 C   0  0  0  0  0  0  0  0  0  0  0  0
    8.9691  -21.6557   21.7668 N   0  0  0  0  0  0  0  0  0  0  0  0
    8.4161  -19.8567   20.4031 N   0  0  0  0  0  0  0  0  0  0  0  0
    8.7050  -18.4768   20.1106 C   0  0  0  0  0  0  0  0  0  0  0  0
    9.3224  -17.7645   21.2895 C   0  0  0  0  0  0  0  0  0  0  0  0
    9.6619  -16.3420   20.9724 C   0  0  0  0  0  0  0  0  0  0  0  0
    8.5284  -15.3840   21.2306 C   0  0  2  0  0  0  0  0  0  0  0  0
    8.3168  -14.4728   20.1406 N   0  0  0  0  0  0  0  0  0  0  0  0
    8.8733  -14.6292   22.4886 C   0  0  0  0  0  0  0  0  0  0  0  0
    9.9672  -14.0638   22.6140 O   0  0  0  0  0  0  0  0  0  0  0  0
    8.8168  -22.2910   20.9806 C   0  0  0  0  0  0  0  0  0  0  0  0
    7.2778  -12.7693   26.7991 C   0  0  1  0  0  0  0  0  0  0  0  0
    7.0077  -13.4841   25.4984 C   0  0  0  0  0  0  0  0  0  0  0  0
    5.9954  -14.5901   25.8261 C   0  0  2  0  0  0  0  0  0  0  0  0
    8.2542  -14.0883   24.8791 N   0  0  0  0  0  0  0  0  0  0  0  0
    7.9351  -14.5521   23.5686 C   0  0  0  0  0  0  0  0  0  0  0  0
    8.9328  -15.0230   25.7722 O   0  0  0  0  0  0  0  0  0  0  0  0
    8.9630  -16.2547   25.3812 N   0  0  0  0  0  0  0  0  0  0  0  0
    9.5504  -14.7130   27.0048 C   0  0  0  0  0  0  0  0  0  0  0  0
    9.1791  -13.5124   27.7813 C   0  0  0  0  0  0  0  0  0  0  0  0
   10.0196  -13.5111   29.0102 C   0  0  0  0  0  0  0  0  0  0  0  0
   11.2566  -14.2466   28.5232 C   0  0  1  0  0  0  0  0  0  0  0  0
   10.5754  -15.3968   27.7591 C   0  0  0  0  0  0  0  0  0  0  0  0
    9.9950  -16.2536   28.8447 O   0  0  0  0  0  0  0  0  0  0  0  0
   10.8572  -17.0513   29.5589 O   0  0  0  0  0  0  0  0  0  0  0  0
  2  3  2  0
  2  1  1  0
  4  2  1  0
  5  4  1  0
  6  5  1  0
  7  8  1  0
  7  6  1  0
  8 10  1  0
  8  9  1  6
 10 11  2  0
 13 12  1  6
 13 14  1  0
 13 15  1  0
 15 16  1  1
 16 10  1  0
 17 15  1  0
 17 18  2  0
 19 23  1  0
 19 17  1  0
 20 19  1  0
 21 22  1  0
 21 20  1  0
 22 23  1  0
 23 24  1  1
 24 26  2  0
 24 25  1  0
M  END
$$$$
