RVP.pdb
     RDKit          3D

 26 26  0  0  1  0  0  0  0  0999 V2000
    7.5527  -15.3121   17.0424 N   0  0  0  0  0  0  0  0  0  0  0  0
    8.0447  -14.0344   16.6466 C   0  0  0  0  0  0  0  0  0  0  0  0
    8.5170  -13.8874   15.4594 N   0  0  0  0  0  0  0  0  0  0  0  0
    8.0323  -12.9184   17.5156 N   0  0  0  0  0  0  0  0  0  0  0  0
    7.4888  -13.0666   18.8405 C   0  0  0  0  0  0  0  0  0  0  0  0
    8.4603  -13.7387   19.7802 C   0  0  0  0  0  0  0  0  0  0  0  0
    8.0454  -15.1375   20.1123 C   0  0  0  0  0  0  0  0  0  0  0  0
    8.9759  -15.8249   21.0770 C   0  0  2  0  0  0  0  0  0  0  0  0
    8.5598  -17.1647   21.3853 N   0  0  0  0  0  0  0  0  0  0  0  0
    9.0085  -14.9831   22.3266 C   0  0  0  0  0  0  0  0  0  0  0  0
    9.6779  -13.9433   22.3784 O   0  0  0  0  0  0  0  0  0  0  0  0
    8.8523  -12.9837   15.1191 C   0  0  0  0  0  0  0  0  0  0  0  0
    7.0418  -13.7654   26.6423 C   0  0  2  0  0  0  0  0  0  0  0  0
    7.0252  -14.5830   25.3747 C   0  0  0  0  0  0  0  0  0  0  0  0
    6.4205  -15.9412   25.7556 C   0  0  2  0  0  0  0  0  0  0  0  0
    8.4041  -14.7794   24.7728 N   0  0  0  0  0  0  0  0  0  0  0  0
    8.2604  -15.3739   23.4843 C   0  0  0  0  0  0  0  0  0  0  0  0
    9.3406  -15.4096   25.6989 O   0  0  0  0  0  0  0  0  0  0  0  0
    9.8184  -16.5516   25.3271 N   0  0  0  0  0  0  0  0  0  0  0  0
    9.7676  -14.8966   26.9446 C   0  0  0  0  0  0  0  0  0  0  0  0
    9.2153  -13.6446   27.5014 C   0  0  0  0  0  0  0  0  0  0  0  0
    9.8844  -13.4182   28.8120 C   0  0  0  0  0  0  0  0  0  0  0  0
   11.2225  -14.1004   28.5826 C   0  0  1  0  0  0  0  0  0  0  0  0
   10.7289  -15.3909   27.9031 C   0  0  0  0  0  0  0  0  0  0  0  0
   10.0708  -16.1520   29.0154 O   0  0  0  0  0  0  0  0  0  0  0  0
   10.8831  -16.8244   29.8974 O   0  0  0  0  0  0  0  0  0  0  0  0
  2  3  2  0
  2  1  1  0
  4  2  1  0
  5  4  1  0
  6  5  1  0
  7  8  1  0
  7  6  1  0
  8 10  1  0
  8  9  1  1
 10 11  2  0
 13 12  1  6
 13 14  1  0
 13 15  1  0
 15 16  1  1
 16 10  1  0
 17 15  1  0
 17 18  2  0
 19 23  1  0
 19 17  1  0
 20 19  1  0
 21 22  1  0
 21 20  1  0
 22 23  1  0
 23 24  1  1
 24 26  2  0
 24 25  1  0
M  END
$$$$
