RVP.pdb
     RDKit          3D

 26 26  0  0  1  0  0  0  0  0999 V2000
    5.8501  -22.0264   20.8702 N   0  0  0  0  0  0  0  0  0  0  0  0
    6.2099  -22.8448   21.9801 C   0  0  0  0  0  0  0  0  0  0  0  0
    5.4149  -23.7880   22.3443 N   0  0  0  0  0  0  0  0  0  0  0  0
    7.4140  -22.6564   22.6981 N   0  0  0  0  0  0  0  0  0  0  0  0
    7.6752  -21.3783   23.3072 C   0  0  0  0  0  0  0  0  0  0  0  0
    8.4338  -20.4549   22.3851 C   0  0  0  0  0  0  0  0  0  0  0  0
    7.8339  -19.0847   22.3429 C   0  0  0  0  0  0  0  0  0  0  0  0
    7.9696  -18.4127   21.0016 C   0  0  2  0  0  0  0  0  0  0  0  0
    8.7607  -19.1779   20.0785 N   0  0  0  0  0  0  0  0  0  0  0  0
    8.6035  -17.0681   21.2495 C   0  0  0  0  0  0  0  0  0  0  0  0
    9.8315  -16.9499   21.3487 O   0  0  0  0  0  0  0  0  0  0  0  0
    5.6343  -24.4077   23.1270 C   0  0  0  0  0  0  0  0  0  0  0  0
    6.8632  -13.7097   19.7342 C   0  0  1  0  0  0  0  0  0  0  0  0
    7.2607  -13.5698   21.1827 C   0  0  0  0  0  0  0  0  0  0  0  0
    7.8201  -12.1485   21.3323 C   0  0  2  0  0  0  0  0  0  0  0  0
    8.3010  -14.5854   21.6172 N   0  0  0  0  0  0  0  0  0  0  0  0
    7.7906  -15.8951   21.3756 C   0  0  0  0  0  0  0  0  0  0  0  0
    8.8369  -14.3118   22.9475 O   0  0  0  0  0  0  0  0  0  0  0  0
   10.1243  -14.2334   23.0312 N   0  0  0  0  0  0  0  0  0  0  0  0
    8.0922  -14.1271   24.1343 C   0  0  0  0  0  0  0  0  0  0  0  0
    6.6159  -14.1816   24.1432 C   0  0  0  0  0  0  0  0  0  0  0  0
    6.1800  -13.9518   25.5482 C   0  0  0  0  0  0  0  0  0  0  0  0
    7.3170  -13.0920   26.0737 C   0  0  1  0  0  0  0  0  0  0  0  0
    8.5084  -13.8770   25.4949 C   0  0  0  0  0  0  0  0  0  0  0  0
    8.5396  -15.1345   26.3118 O   0  0  0  0  0  0  0  0  0  0  0  0
    9.2674  -15.1209   27.4779 O   0  0  0  0  0  0  0  0  0  0  0  0
  2  3  2  0
  2  1  1  0
  4  2  1  0
  5  4  1  0
  6  5  1  0
  7  8  1  0
  7  6  1  0
  8 10  1  0
  8  9  1  6
 10 11  2  0
 13 12  1  1
 13 14  1  0
 13 15  1  0
 15 16  1  6
 16 10  1  0
 17 15  1  0
 17 18  2  0
 19 23  1  0
 19 17  1  0
 20 19  1  0
 21 22  1  0
 21 20  1  0
 22 23  1  0
 23 24  1  1
 24 26  2  0
 24 25  1  0
M  END
$$$$
