RVP.pdb
     RDKit          3D

 26 26  0  0  1  0  0  0  0  0999 V2000
    8.0494  -13.0015   15.5707 N   0  0  0  0  0  0  0  0  0  0  0  0
    8.5176  -14.2513   16.0706 C   0  0  0  0  0  0  0  0  0  0  0  0
    8.1407  -15.3362   15.4918 N   0  0  0  0  0  0  0  0  0  0  0  0
    9.3849  -14.3417   17.1844 N   0  0  0  0  0  0  0  0  0  0  0  0
    8.9487  -13.8289   18.4570 C   0  0  0  0  0  0  0  0  0  0  0  0
    7.4457  -13.8540   18.5936 C   0  0  0  0  0  0  0  0  0  0  0  0
    6.9937  -14.7982   19.6629 C   0  0  0  0  0  0  0  0  0  0  0  0
    8.1167  -15.2994   20.5329 C   0  0  2  0  0  0  0  0  0  0  0  0
    8.3899  -16.6951   20.3315 N   0  0  0  0  0  0  0  0  0  0  0  0
    7.7097  -15.0433   21.9612 C   0  0  0  0  0  0  0  0  0  0  0  0
    7.2880  -13.9350   22.3157 O   0  0  0  0  0  0  0  0  0  0  0  0
    8.5201  -16.2485   15.7538 C   0  0  0  0  0  0  0  0  0  0  0  0
    8.0551  -18.2577   25.0926 C   0  0  1  0  0  0  0  0  0  0  0  0
    6.9553  -17.2548   24.8470 C   0  0  0  0  0  0  0  0  0  0  0  0
    6.0135  -17.9025   23.8228 C   0  0  1  0  0  0  0  0  0  0  0  0
    7.4650  -15.9277   24.3167 N   0  0  0  0  0  0  0  0  0  0  0  0
    7.8042  -16.0849   22.9403 C   0  0  0  0  0  0  0  0  0  0  0  0
    8.4670  -15.3186   25.1868 O   0  0  0  0  0  0  0  0  0  0  0  0
    9.6970  -15.6165   24.9242 N   0  0  0  0  0  0  0  0  0  0  0  0
    8.2226  -14.4474   26.2723 C   0  0  0  0  0  0  0  0  0  0  0  0
    6.8557  -14.1852   26.7675 C   0  0  0  0  0  0  0  0  0  0  0  0
    6.9800  -13.2361   27.9078 C   0  0  0  0  0  0  0  0  0  0  0  0
    8.2464  -12.4858   27.5314 C   0  0  1  0  0  0  0  0  0  0  0  0
    9.1212  -13.6775   27.1011 C   0  0  0  0  0  0  0  0  0  0  0  0
    9.4324  -14.3773   28.3907 O   0  0  0  0  0  0  0  0  0  0  0  0
    8.7984  -15.5715   28.6388 O   0  0  0  0  0  0  0  0  0  0  0  0
  2  3  2  0
  2  1  1  0
  4  2  1  0
  5  4  1  0
  6  5  1  0
  7  8  1  0
  7  6  1  0
  8 10  1  0
  8  9  1  1
 10 11  2  0
 13 12  1  1
 13 14  1  0
 13 15  1  0
 15 16  1  6
 16 10  1  0
 17 15  1  0
 17 18  2  0
 19 23  1  0
 19 17  1  0
 20 19  1  0
 21 22  1  0
 21 20  1  0
 22 23  1  0
 23 24  1  1
 24 26  2  0
 24 25  1  0
M  END
$$$$
