RVP.pdb
     RDKit          3D

 26 26  0  0  1  0  0  0  0  0999 V2000
    7.4306  -21.8541   15.9988 N   0  0  0  0  0  0  0  0  0  0  0  0
    6.3878  -20.9600   15.6191 C   0  0  0  0  0  0  0  0  0  0  0  0
    5.6790  -21.2320   14.5809 N   0  0  0  0  0  0  0  0  0  0  0  0
    6.1032  -19.7800   16.3455 N   0  0  0  0  0  0  0  0  0  0  0  0
    7.1654  -18.8443   16.6083 C   0  0  0  0  0  0  0  0  0  0  0  0
    8.1834  -18.8143   15.4942 C   0  0  0  0  0  0  0  0  0  0  0  0
    9.3203  -17.8894   15.7959 C   0  0  0  0  0  0  0  0  0  0  0  0
    8.9042  -16.4460   15.9090 C   0  0  2  0  0  0  0  0  0  0  0  0
    9.5550  -15.6067   14.9419 N   0  0  0  0  0  0  0  0  0  0  0  0
    9.2471  -16.0015   17.3076 C   0  0  0  0  0  0  0  0  0  0  0  0
   10.4055  -16.0797   17.7362 O   0  0  0  0  0  0  0  0  0  0  0  0
    4.9592  -20.5937   14.2354 C   0  0  0  0  0  0  0  0  0  0  0  0
    7.5007  -12.7523   19.1153 C   0  0  2  0  0  0  0  0  0  0  0  0
    7.3947  -14.0408   19.8925 C   0  0  0  0  0  0  0  0  0  0  0  0
    7.5381  -13.6557   21.3712 C   0  0  2  0  0  0  0  0  0  0  0  0
    8.4581  -15.0551   19.5150 N   0  0  0  0  0  0  0  0  0  0  0  0
    8.2316  -15.4770   18.1715 C   0  0  0  0  0  0  0  0  0  0  0  0
    8.6283  -16.0975   20.5232 O   0  0  0  0  0  0  0  0  0  0  0  0
    7.7492  -17.0449   20.5081 N   0  0  0  0  0  0  0  0  0  0  0  0
    9.6481  -16.1674   21.4990 C   0  0  0  0  0  0  0  0  0  0  0  0
   10.5831  -15.0471   21.7293 C   0  0  0  0  0  0  0  0  0  0  0  0
   11.5055  -15.4666   22.8201 C   0  0  0  0  0  0  0  0  0  0  0  0
   11.5177  -16.9744   22.6335 C   0  0  1  0  0  0  0  0  0  0  0  0
   10.0098  -17.2106   22.4307 C   0  0  0  0  0  0  0  0  0  0  0  0
    9.4242  -16.9749   23.7912 O   0  0  0  0  0  0  0  0  0  0  0  0
    9.5811  -17.9628   24.7342 O   0  0  0  0  0  0  0  0  0  0  0  0
  2  3  2  0
  2  1  1  0
  4  2  1  0
  5  4  1  0
  6  5  1  0
  7  8  1  0
  7  6  1  0
  8 10  1  0
  8  9  1  6
 10 11  2  0
 13 12  1  1
 13 14  1  0
 13 15  1  0
 15 16  1  1
 16 10  1  0
 17 15  1  0
 17 18  2  0
 19 23  1  0
 19 17  1  0
 20 19  1  0
 21 22  1  0
 21 20  1  0
 22 23  1  0
 23 24  1  1
 24 26  2  0
 24 25  1  0
M  END
$$$$
