RVP.pdb
     RDKit          3D

 26 26  0  0  1  0  0  0  0  0999 V2000
    9.7189  -13.9623   16.7559 N   0  0  0  0  0  0  0  0  0  0  0  0
    8.3020  -14.0510   16.6314 C   0  0  0  0  0  0  0  0  0  0  0  0
    7.6722  -13.1292   15.9927 N   0  0  0  0  0  0  0  0  0  0  0  0
    7.5608  -15.1200   17.1870 N   0  0  0  0  0  0  0  0  0  0  0  0
    7.5375  -15.2895   18.6165 C   0  0  0  0  0  0  0  0  0  0  0  0
    7.2862  -13.9877   19.3380 C   0  0  0  0  0  0  0  0  0  0  0  0
    7.1301  -14.1833   20.8133 C   0  0  0  0  0  0  0  0  0  0  0  0
    8.1562  -15.1133   21.4059 C   0  0  2  0  0  0  0  0  0  0  0  0
    7.6331  -16.4285   21.6503 N   0  0  0  0  0  0  0  0  0  0  0  0
    8.6228  -14.4847   22.6937 C   0  0  0  0  0  0  0  0  0  0  0  0
    9.5076  -13.6192   22.6976 O   0  0  0  0  0  0  0  0  0  0  0  0
    6.6602  -13.1635   15.8527 C   0  0  0  0  0  0  0  0  0  0  0  0
    6.2970  -15.0151   26.3090 C   0  0  1  0  0  0  0  0  0  0  0  0
    7.2975  -13.9271   26.0073 C   0  0  0  0  0  0  0  0  0  0  0  0
    6.5374  -12.8659   25.2000 C   0  0  1  0  0  0  0  0  0  0  0  0
    8.4957  -14.4201   25.2176 N   0  0  0  0  0  0  0  0  0  0  0  0
    8.0467  -14.8801   23.9444 C   0  0  0  0  0  0  0  0  0  0  0  0
    9.3506  -15.3177   25.9892 O   0  0  0  0  0  0  0  0  0  0  0  0
    9.5933  -16.4669   25.4496 N   0  0  0  0  0  0  0  0  0  0  0  0
    9.9291  -15.0527   27.2510 C   0  0  0  0  0  0  0  0  0  0  0  0
    9.5673  -13.8553   28.0371 C   0  0  0  0  0  0  0  0  0  0  0  0
   10.3583  -13.9062   29.2974 C   0  0  0  0  0  0  0  0  0  0  0  0
   11.5884  -14.6738   28.8437 C   0  0  1  0  0  0  0  0  0  0  0  0
   10.9002  -15.7853   28.0303 C   0  0  0  0  0  0  0  0  0  0  0  0
   10.2493  -16.6427   29.0746 O   0  0  0  0  0  0  0  0  0  0  0  0
   11.0573  -17.4747   29.8127 O   0  0  0  0  0  0  0  0  0  0  0  0
  2  3  2  0
  2  1  1  0
  4  2  1  0
  5  4  1  0
  6  5  1  0
  7  8  1  0
  7  6  1  0
  8 10  1  0
  8  9  1  1
 10 11  2  0
 13 12  1  1
 13 14  1  0
 13 15  1  0
 15 16  1  6
 16 10  1  0
 17 15  1  0
 17 18  2  0
 19 23  1  0
 19 17  1  0
 20 19  1  0
 21 22  1  0
 21 20  1  0
 22 23  1  0
 23 24  1  1
 24 26  2  0
 24 25  1  0
M  END
$$$$
