RVP.pdb
     RDKit          3D

 26 26  0  0  1  0  0  0  0  0999 V2000
   11.5026  -21.0010   20.2062 N   0  0  0  0  0  0  0  0  0  0  0  0
   10.4793  -20.8592   19.2244 C   0  0  0  0  0  0  0  0  0  0  0  0
   10.2379  -21.8398   18.4279 N   0  0  0  0  0  0  0  0  0  0  0  0
    9.7173  -19.6748   19.0939 N   0  0  0  0  0  0  0  0  0  0  0  0
   10.0261  -18.5455   19.9319 C   0  0  0  0  0  0  0  0  0  0  0  0
    9.3599  -18.6427   21.2828 C   0  0  0  0  0  0  0  0  0  0  0  0
    9.8039  -17.5542   22.2086 C   0  0  0  0  0  0  0  0  0  0  0  0
    9.3169  -16.1876   21.8032 C   0  0  2  0  0  0  0  0  0  0  0  0
   10.0677  -15.6362   20.7098 N   0  0  0  0  0  0  0  0  0  0  0  0
    9.4323  -15.3049   23.0192 C   0  0  0  0  0  0  0  0  0  0  0  0
   10.5239  -14.8360   23.3663 O   0  0  0  0  0  0  0  0  0  0  0  0
    9.4923  -21.7981   17.7298 C   0  0  0  0  0  0  0  0  0  0  0  0
    6.8299  -12.4330   24.5297 C   0  0  1  0  0  0  0  0  0  0  0  0
    6.9954  -13.6889   25.3488 C   0  0  0  0  0  0  0  0  0  0  0  0
    6.9078  -13.2508   26.8170 C   0  0  2  0  0  0  0  0  0  0  0  0
    8.3134  -14.3971   25.0964 N   0  0  0  0  0  0  0  0  0  0  0  0
    8.2729  -14.9907   23.8001 C   0  0  0  0  0  0  0  0  0  0  0  0
    8.7190  -15.2501   26.2098 O   0  0  0  0  0  0  0  0  0  0  0  0
    8.2834  -16.4665   26.1754 N   0  0  0  0  0  0  0  0  0  0  0  0
    9.5306  -14.8770   27.3049 C   0  0  0  0  0  0  0  0  0  0  0  0
    9.4407  -13.5366   27.9194 C   0  0  0  0  0  0  0  0  0  0  0  0
   10.4260  -13.5017   29.0350 C   0  0  0  0  0  0  0  0  0  0  0  0
   11.4698  -14.4878   28.5385 C   0  0  1  0  0  0  0  0  0  0  0  0
   10.5363  -15.6069   28.0419 C   0  0  0  0  0  0  0  0  0  0  0  0
    9.9855  -16.2005   29.3044 O   0  0  0  0  0  0  0  0  0  0  0  0
   10.7993  -17.0452   30.0212 O   0  0  0  0  0  0  0  0  0  0  0  0
  2  3  2  0
  2  1  1  0
  4  2  1  0
  5  4  1  0
  6  5  1  0
  7  8  1  0
  7  6  1  0
  8 10  1  0
  8  9  1  6
 10 11  2  0
 13 12  1  6
 13 14  1  0
 13 15  1  0
 15 16  1  1
 16 10  1  0
 17 15  1  0
 17 18  2  0
 19 23  1  0
 19 17  1  0
 20 19  1  0
 21 22  1  0
 21 20  1  0
 22 23  1  0
 23 24  1  1
 24 26  2  0
 24 25  1  0
M  END
$$$$
