RVP.pdb
     RDKit          3D

 26 26  0  0  1  0  0  0  0  0999 V2000
   10.2226  -19.5844   18.9521 N   0  0  0  0  0  0  0  0  0  0  0  0
    9.0004  -20.2829   19.1745 C   0  0  0  0  0  0  0  0  0  0  0  0
    8.4773  -20.9499   18.2071 N   0  0  0  0  0  0  0  0  0  0  0  0
    8.3398  -20.2689   20.4251 N   0  0  0  0  0  0  0  0  0  0  0  0
    8.7558  -19.3236   21.4282 C   0  0  0  0  0  0  0  0  0  0  0  0
    9.3548  -18.0785   20.8204 C   0  0  0  0  0  0  0  0  0  0  0  0
    9.7396  -17.0740   21.8605 C   0  0  0  0  0  0  0  0  0  0  0  0
    8.9959  -15.7698   21.7374 C   0  0  2  0  0  0  0  0  0  0  0  0
    9.4787  -14.9593   20.6543 N   0  0  0  0  0  0  0  0  0  0  0  0
    9.1615  -15.0476   23.0498 C   0  0  0  0  0  0  0  0  0  0  0  0
   10.2760  -14.6724   23.4356 O   0  0  0  0  0  0  0  0  0  0  0  0
    7.6464  -21.5305   18.3383 C   0  0  0  0  0  0  0  0  0  0  0  0
    6.4457  -12.4444   24.8793 C   0  0  2  0  0  0  0  0  0  0  0  0
    6.7627  -13.7225   25.6153 C   0  0  0  0  0  0  0  0  0  0  0  0
    6.7613  -13.3627   27.1073 C   0  0  2  0  0  0  0  0  0  0  0  0
    8.1027  -14.3187   25.2266 N   0  0  0  0  0  0  0  0  0  0  0  0
    8.0244  -14.7810   23.8796 C   0  0  0  0  0  0  0  0  0  0  0  0
    8.6169  -15.2521   26.2247 O   0  0  0  0  0  0  0  0  0  0  0  0
    8.3216  -16.4965   26.0375 N   0  0  0  0  0  0  0  0  0  0  0  0
    9.3953  -14.9285   27.3589 C   0  0  0  0  0  0  0  0  0  0  0  0
    9.1998  -13.6673   28.1030 C   0  0  0  0  0  0  0  0  0  0  0  0
   10.1779  -13.6676   29.2256 C   0  0  0  0  0  0  0  0  0  0  0  0
   11.2964  -14.5150   28.6430 C   0  0  1  0  0  0  0  0  0  0  0  0
   10.4540  -15.6480   28.0288 C   0  0  0  0  0  0  0  0  0  0  0  0
    9.9496  -16.4058   29.2208 O   0  0  0  0  0  0  0  0  0  0  0  0
    8.6148  -16.2954   29.5301 O   0  0  0  0  0  0  0  0  0  0  0  0
  2  3  2  0
  2  1  1  0
  4  2  1  0
  5  4  1  0
  6  5  1  0
  7  8  1  0
  7  6  1  0
  8 10  1  0
  8  9  1  6
 10 11  2  0
 13 12  1  1
 13 14  1  0
 13 15  1  0
 15 16  1  1
 16 10  1  0
 17 15  1  0
 17 18  2  0
 19 23  1  0
 19 17  1  0
 20 19  1  0
 21 22  1  0
 21 20  1  0
 22 23  1  0
 23 24  1  1
 24 26  2  0
 24 25  1  0
M  END
$$$$
