RVP.pdb
     RDKit          3D

 26 26  0  0  1  0  0  0  0  0999 V2000
    8.4251  -13.7482   14.5634 N   0  0  0  0  0  0  0  0  0  0  0  0
    8.0560  -14.2446   15.8474 C   0  0  0  0  0  0  0  0  0  0  0  0
    7.0625  -15.0559   15.9413 N   0  0  0  0  0  0  0  0  0  0  0  0
    8.7455  -13.8758   17.0261 N   0  0  0  0  0  0  0  0  0  0  0  0
    8.0807  -13.0473   17.9980 C   0  0  0  0  0  0  0  0  0  0  0  0
    7.3710  -13.8649   19.0497 C   0  0  0  0  0  0  0  0  0  0  0  0
    7.8752  -13.5691   20.4272 C   0  0  0  0  0  0  0  0  0  0  0  0
    8.3910  -14.7859   21.1501 C   0  0  2  0  0  0  0  0  0  0  0  0
    7.4314  -15.8540   21.1868 N   0  0  0  0  0  0  0  0  0  0  0  0
    8.7430  -14.3461   22.5479 C   0  0  0  0  0  0  0  0  0  0  0  0
    9.7781  -13.7064   22.7741 O   0  0  0  0  0  0  0  0  0  0  0  0
    6.7715  -15.4526   16.8374 C   0  0  0  0  0  0  0  0  0  0  0  0
    6.7841  -12.1971   25.4886 C   0  0  2  0  0  0  0  0  0  0  0  0
    6.8500  -13.7013   25.5806 C   0  0  0  0  0  0  0  0  0  0  0  0
    6.7547  -14.0381   27.0749 C   0  0  2  0  0  0  0  0  0  0  0  0
    8.1263  -14.2798   24.9986 N   0  0  0  0  0  0  0  0  0  0  0  0
    7.8803  -14.6629   23.6470 C   0  0  0  0  0  0  0  0  0  0  0  0
    8.7470  -15.2716   25.8721 O   0  0  0  0  0  0  0  0  0  0  0  0
    8.4553  -16.5054   25.6203 N   0  0  0  0  0  0  0  0  0  0  0  0
    9.6234  -15.0140   26.9504 C   0  0  0  0  0  0  0  0  0  0  0  0
    9.5659  -13.7516   27.7156 C   0  0  0  0  0  0  0  0  0  0  0  0
   10.6184  -13.8304   28.7657 C   0  0  0  0  0  0  0  0  0  0  0  0
   11.6336  -14.7431   28.0989 C   0  0  1  0  0  0  0  0  0  0  0  0
   10.6759  -15.8102   27.5380 C   0  0  0  0  0  0  0  0  0  0  0  0
   10.2071  -16.5471   28.7573 O   0  0  0  0  0  0  0  0  0  0  0  0
   11.0963  -17.3965   29.3717 O   0  0  0  0  0  0  0  0  0  0  0  0
  2  3  2  0
  2  1  1  0
  4  2  1  0
  5  4  1  0
  6  5  1  0
  7  8  1  0
  7  6  1  0
  8 10  1  0
  8  9  1  1
 10 11  2  0
 13 12  1  6
 13 14  1  0
 13 15  1  0
 15 16  1  1
 16 10  1  0
 17 15  1  0
 17 18  2  0
 19 23  1  0
 19 17  1  0
 20 19  1  0
 21 22  1  0
 21 20  1  0
 22 23  1  0
 23 24  1  1
 24 26  2  0
 24 25  1  0
M  END
$$$$
