RVP.pdb
     RDKit          3D

 26 26  0  0  1  0  0  0  0  0999 V2000
    8.1241  -15.2012   15.1525 N   0  0  0  0  0  0  0  0  0  0  0  0
    7.6983  -14.1573   16.0244 C   0  0  0  0  0  0  0  0  0  0  0  0
    7.9320  -12.9358   15.6968 N   0  0  0  0  0  0  0  0  0  0  0  0
    7.0258  -14.4175   17.2413 N   0  0  0  0  0  0  0  0  0  0  0  0
    7.6576  -15.2550   18.2273 C   0  0  0  0  0  0  0  0  0  0  0  0
    8.8168  -14.5620   18.9014 C   0  0  0  0  0  0  0  0  0  0  0  0
    8.4835  -14.1364   20.2967 C   0  0  0  0  0  0  0  0  0  0  0  0
    8.6560  -15.2333   21.3146 C   0  0  2  0  0  0  0  0  0  0  0  0
    7.5378  -16.1343   21.3497 N   0  0  0  0  0  0  0  0  0  0  0  0
    8.8341  -14.5628   22.6525 C   0  0  0  0  0  0  0  0  0  0  0  0
    9.7016  -13.6964   22.8217 O   0  0  0  0  0  0  0  0  0  0  0  0
    7.6347  -12.1527   16.2829 C   0  0  0  0  0  0  0  0  0  0  0  0
    6.5593  -12.5697   25.0005 C   0  0  1  0  0  0  0  0  0  0  0  0
    6.9126  -13.8943   25.6300 C   0  0  0  0  0  0  0  0  0  0  0  0
    7.0346  -13.6274   27.1364 C   0  0  2  0  0  0  0  0  0  0  0  0
    8.2079  -14.4806   25.1003 N   0  0  0  0  0  0  0  0  0  0  0  0
    7.9971  -14.9188   23.7594 C   0  0  0  0  0  0  0  0  0  0  0  0
    8.8185  -15.4306   26.0258 O   0  0  0  0  0  0  0  0  0  0  0  0
    8.6253  -16.6805   25.7591 N   0  0  0  0  0  0  0  0  0  0  0  0
    9.5892  -15.1173   27.1681 C   0  0  0  0  0  0  0  0  0  0  0  0
    9.4338  -13.8345   27.8841 C   0  0  0  0  0  0  0  0  0  0  0  0
   10.3904  -13.8535   29.0248 C   0  0  0  0  0  0  0  0  0  0  0  0
   11.4824  -14.7585   28.4800 C   0  0  1  0  0  0  0  0  0  0  0  0
   10.6040  -15.8672   27.8717 C   0  0  0  0  0  0  0  0  0  0  0  0
   10.0464  -16.5792   29.0682 O   0  0  0  0  0  0  0  0  0  0  0  0
   10.8818  -17.4303   29.7519 O   0  0  0  0  0  0  0  0  0  0  0  0
  2  3  2  0
  2  1  1  0
  4  2  1  0
  5  4  1  0
  6  5  1  0
  7  8  1  0
  7  6  1  0
  8 10  1  0
  8  9  1  1
 10 11  2  0
 13 12  1  1
 13 14  1  0
 13 15  1  0
 15 16  1  1
 16 10  1  0
 17 15  1  0
 17 18  2  0
 19 23  1  0
 19 17  1  0
 20 19  1  0
 21 22  1  0
 21 20  1  0
 22 23  1  0
 23 24  1  1
 24 26  2  0
 24 25  1  0
M  END
$$$$
