RVP.pdb
     RDKit          3D

 26 26  0  0  1  0  0  0  0  0999 V2000
   17.0199  -13.6007   20.2346 N   0  0  0  0  0  0  0  0  0  0  0  0
   16.4281  -14.6537   20.9911 C   0  0  0  0  0  0  0  0  0  0  0  0
   16.4830  -14.6073   22.2753 N   0  0  0  0  0  0  0  0  0  0  0  0
   15.7803  -15.7517   20.3783 N   0  0  0  0  0  0  0  0  0  0  0  0
   15.7519  -15.8371   18.9413 C   0  0  0  0  0  0  0  0  0  0  0  0
   14.3594  -16.0872   18.4154 C   0  0  0  0  0  0  0  0  0  0  0  0
   13.3613  -15.1313   18.9892 C   0  0  0  0  0  0  0  0  0  0  0  0
   11.9697  -15.3197   18.4440 C   0  0  2  0  0  0  0  0  0  0  0  0
   11.8357  -14.8419   17.0961 N   0  0  0  0  0  0  0  0  0  0  0  0
   11.0366  -14.5733   19.3624 C   0  0  0  0  0  0  0  0  0  0  0  0
   11.1835  -13.3630   19.5754 O   0  0  0  0  0  0  0  0  0  0  0  0
   16.0834  -15.3441   22.8603 C   0  0  0  0  0  0  0  0  0  0  0  0
    6.7002  -13.9964   21.3896 C   0  0  1  0  0  0  0  0  0  0  0  0
    7.6975  -14.5807   20.4203 C   0  0  0  0  0  0  0  0  0  0  0  0
    7.1835  -15.9863   20.0808 C   0  0  2  0  0  0  0  0  0  0  0  0
    9.1024  -14.6649   20.9875 N   0  0  0  0  0  0  0  0  0  0  0  0
    9.9559  -15.2559   20.0095 C   0  0  0  0  0  0  0  0  0  0  0  0
    9.1357  -15.2306   22.3331 O   0  0  0  0  0  0  0  0  0  0  0  0
    9.7136  -16.3812   22.4465 N   0  0  0  0  0  0  0  0  0  0  0  0
    8.6040  -14.6477   23.5056 C   0  0  0  0  0  0  0  0  0  0  0  0
    7.7202  -13.4649   23.4549 C   0  0  0  0  0  0  0  0  0  0  0  0
    7.3528  -13.1351   24.8595 C   0  0  0  0  0  0  0  0  0  0  0  0
    8.5686  -13.6494   25.6117 C   0  0  1  0  0  0  0  0  0  0  0  0
    8.7464  -15.0024   24.8988 C   0  0  0  0  0  0  0  0  0  0  0  0
    7.5894  -15.8207   25.3900 O   0  0  0  0  0  0  0  0  0  0  0  0
    7.7312  -16.4700   26.5933 O   0  0  0  0  0  0  0  0  0  0  0  0
  2  3  2  0
  2  1  1  0
  4  2  1  0
  5  4  1  0
  6  5  1  0
  7  8  1  0
  7  6  1  0
  8 10  1  0
  8  9  1  6
 10 11  2  0
 13 12  1  6
 13 14  1  0
 13 15  1  0
 15 16  1  1
 16 10  1  0
 17 15  1  0
 17 18  2  0
 19 23  1  0
 19 17  1  0
 20 19  1  0
 21 22  1  0
 21 20  1  0
 22 23  1  0
 23 24  1  1
 24 26  2  0
 24 25  1  0
M  END
$$$$
