RVP.pdb
     RDKit          3D

 26 26  0  0  1  0  0  0  0  0999 V2000
    7.2729  -20.5742   18.9219 N   0  0  0  0  0  0  0  0  0  0  0  0
    6.1221  -19.7835   19.2077 C   0  0  0  0  0  0  0  0  0  0  0  0
    5.0889  -19.8873   18.4488 N   0  0  0  0  0  0  0  0  0  0  0  0
    6.0754  -18.8856   20.2996 N   0  0  0  0  0  0  0  0  0  0  0  0
    6.7343  -17.6103   20.1883 C   0  0  0  0  0  0  0  0  0  0  0  0
    8.2331  -17.7329   20.3186 C   0  0  0  0  0  0  0  0  0  0  0  0
    8.7589  -16.9770   21.4980 C   0  0  0  0  0  0  0  0  0  0  0  0
    8.5194  -15.4922   21.4128 C   0  0  2  0  0  0  0  0  0  0  0  0
    9.2450  -14.8770   20.3366 N   0  0  0  0  0  0  0  0  0  0  0  0
    8.9414  -14.9056   22.7353 C   0  0  0  0  0  0  0  0  0  0  0  0
   10.1308  -14.8924   23.0772 O   0  0  0  0  0  0  0  0  0  0  0  0
    4.2998  -19.2413   18.5190 C   0  0  0  0  0  0  0  0  0  0  0  0
    7.3486  -12.4306   26.7849 C   0  0  1  0  0  0  0  0  0  0  0  0
    7.0712  -13.1130   25.4685 C   0  0  0  0  0  0  0  0  0  0  0  0
    5.8613  -14.0253   25.7118 C   0  0  2  0  0  0  0  0  0  0  0  0
    8.2442  -13.9310   24.9612 N   0  0  0  0  0  0  0  0  0  0  0  0
    7.9669  -14.3493   23.6261 C   0  0  0  0  0  0  0  0  0  0  0  0
    8.6692  -14.9575   25.9086 O   0  0  0  0  0  0  0  0  0  0  0  0
    8.2456  -16.1551   25.6695 N   0  0  0  0  0  0  0  0  0  0  0  0
    9.4876  -14.7682   27.0450 C   0  0  0  0  0  0  0  0  0  0  0  0
    9.4774  -13.5043   27.8098 C   0  0  0  0  0  0  0  0  0  0  0  0
   10.4465  -13.6643   28.9287 C   0  0  0  0  0  0  0  0  0  0  0  0
   11.4301  -14.6548   28.3287 C   0  0  1  0  0  0  0  0  0  0  0  0
   10.4320  -15.6440   27.6995 C   0  0  0  0  0  0  0  0  0  0  0  0
    9.8249  -16.3403   28.8811 O   0  0  0  0  0  0  0  0  0  0  0  0
   10.5929  -17.2727   29.5373 O   0  0  0  0  0  0  0  0  0  0  0  0
  2  3  2  0
  2  1  1  0
  4  2  1  0
  5  4  1  0
  6  5  1  0
  7  8  1  0
  7  6  1  0
  8 10  1  0
  8  9  1  6
 10 11  2  0
 13 12  1  6
 13 14  1  0
 13 15  1  0
 15 16  1  1
 16 10  1  0
 17 15  1  0
 17 18  2  0
 19 23  1  0
 19 17  1  0
 20 19  1  0
 21 22  1  0
 21 20  1  0
 22 23  1  0
 23 24  1  1
 24 26  2  0
 24 25  1  0
M  END
$$$$
