RVP.pdb
     RDKit          3D

 26 26  0  0  1  0  0  0  0  0999 V2000
    7.8348  -12.5755   16.6785 N   0  0  0  0  0  0  0  0  0  0  0  0
    8.3440  -13.9037   16.7661 C   0  0  0  0  0  0  0  0  0  0  0  0
    7.9213  -14.7907   15.9362 N   0  0  0  0  0  0  0  0  0  0  0  0
    9.3010  -14.2829   17.7363 N   0  0  0  0  0  0  0  0  0  0  0  0
    8.9032  -14.3716   19.1172 C   0  0  0  0  0  0  0  0  0  0  0  0
    7.4103  -14.2284   19.2877 C   0  0  0  0  0  0  0  0  0  0  0  0
    6.9949  -14.3372   20.7212 C   0  0  0  0  0  0  0  0  0  0  0  0
    7.7914  -15.3511   21.5001 C   0  0  2  0  0  0  0  0  0  0  0  0
    7.0088  -16.4941   21.8797 N   0  0  0  0  0  0  0  0  0  0  0  0
    8.3197  -14.6452   22.7223 C   0  0  0  0  0  0  0  0  0  0  0  0
    9.2536  -13.8372   22.6390 O   0  0  0  0  0  0  0  0  0  0  0  0
    8.2886  -15.7446   15.9309 C   0  0  0  0  0  0  0  0  0  0  0  0
    6.1605  -14.9530   26.4906 C   0  0  1  0  0  0  0  0  0  0  0  0
    7.1563  -13.8899   26.0986 C   0  0  0  0  0  0  0  0  0  0  0  0
    6.3612  -12.8313   25.3224 C   0  0  1  0  0  0  0  0  0  0  0  0
    8.2893  -14.4206   25.2401 N   0  0  0  0  0  0  0  0  0  0  0  0
    7.7467  -14.8986   24.0107 C   0  0  0  0  0  0  0  0  0  0  0  0
    9.1801  -15.3173   25.9710 O   0  0  0  0  0  0  0  0  0  0  0  0
    9.4084  -16.4615   25.4147 N   0  0  0  0  0  0  0  0  0  0  0  0
    9.8068  -15.0564   27.2105 C   0  0  0  0  0  0  0  0  0  0  0  0
    9.4535  -13.8781   28.0285 C   0  0  0  0  0  0  0  0  0  0  0  0
   10.2993  -13.9283   29.2528 C   0  0  0  0  0  0  0  0  0  0  0  0
   11.5250  -14.6620   28.7356 C   0  0  1  0  0  0  0  0  0  0  0  0
   10.8266  -15.7775   27.9366 C   0  0  0  0  0  0  0  0  0  0  0  0
   10.2404  -16.6632   28.9956 O   0  0  0  0  0  0  0  0  0  0  0  0
   11.0955  -17.4965   29.6768 O   0  0  0  0  0  0  0  0  0  0  0  0
  2  3  2  0
  2  1  1  0
  4  2  1  0
  5  4  1  0
  6  5  1  0
  7  8  1  0
  7  6  1  0
  8 10  1  0
  8  9  1  1
 10 11  2  0
 13 12  1  1
 13 14  1  0
 13 15  1  0
 15 16  1  6
 16 10  1  0
 17 15  1  0
 17 18  2  0
 19 23  1  0
 19 17  1  0
 20 19  1  0
 21 22  1  0
 21 20  1  0
 22 23  1  0
 23 24  1  1
 24 26  2  0
 24 25  1  0
M  END
$$$$
