RVP.pdb
     RDKit          3D

 26 26  0  0  1  0  0  0  0  0999 V2000
   11.9489  -15.7287   21.1974 N   0  0  0  0  0  0  0  0  0  0  0  0
   12.5948  -14.6176   20.5814 C   0  0  0  0  0  0  0  0  0  0  0  0
   13.8661  -14.4794   20.7185 N   0  0  0  0  0  0  0  0  0  0  0  0
   11.8853  -13.6581   19.8219 N   0  0  0  0  0  0  0  0  0  0  0  0
   10.6477  -14.0373   19.1916 C   0  0  0  0  0  0  0  0  0  0  0  0
    9.4495  -13.4423   19.8906 C   0  0  0  0  0  0  0  0  0  0  0  0
    8.1598  -13.9441   19.3215 C   0  0  0  0  0  0  0  0  0  0  0  0
    7.8298  -15.3536   19.7379 C   0  0  2  0  0  0  0  0  0  0  0  0
    6.9591  -16.0147   18.8061 N   0  0  0  0  0  0  0  0  0  0  0  0
    7.1802  -15.2669   21.0949 C   0  0  0  0  0  0  0  0  0  0  0  0
    5.9485  -15.2832   21.2152 O   0  0  0  0  0  0  0  0  0  0  0  0
   14.3851  -13.7437   20.2346 C   0  0  0  0  0  0  0  0  0  0  0  0
    7.7352  -17.6541   24.1582 C   0  0  1  0  0  0  0  0  0  0  0  0
    6.7765  -16.5399   23.8192 C   0  0  0  0  0  0  0  0  0  0  0  0
    6.0623  -16.9737   22.5319 C   0  0  1  0  0  0  0  0  0  0  0  0
    7.4644  -15.2044   23.6061 N   0  0  0  0  0  0  0  0  0  0  0  0
    7.9820  -15.1632   22.2777 C   0  0  0  0  0  0  0  0  0  0  0  0
    8.3792  -14.8604   24.6909 O   0  0  0  0  0  0  0  0  0  0  0  0
    9.5741  -15.3440   24.5950 N   0  0  0  0  0  0  0  0  0  0  0  0
    8.0861  -14.0606   25.8185 C   0  0  0  0  0  0  0  0  0  0  0  0
    6.7166  -13.5833   26.0995 C   0  0  0  0  0  0  0  0  0  0  0  0
    6.7825  -12.7844   27.3541 C   0  0  0  0  0  0  0  0  0  0  0  0
    8.2089  -12.2642   27.2988 C   0  0  1  0  0  0  0  0  0  0  0  0
    8.9284  -13.5593   26.8799 C   0  0  0  0  0  0  0  0  0  0  0  0
    8.8579  -14.4207   28.1057 O   0  0  0  0  0  0  0  0  0  0  0  0
    9.7810  -14.1952   29.0990 O   0  0  0  0  0  0  0  0  0  0  0  0
  2  3  2  0
  2  1  1  0
  4  2  1  0
  5  4  1  0
  6  5  1  0
  7  8  1  0
  7  6  1  0
  8 10  1  0
  8  9  1  6
 10 11  2  0
 13 12  1  1
 13 14  1  0
 13 15  1  0
 15 16  1  6
 16 10  1  0
 17 15  1  0
 17 18  2  0
 19 23  1  0
 19 17  1  0
 20 19  1  0
 21 22  1  0
 21 20  1  0
 22 23  1  0
 23 24  1  1
 24 26  2  0
 24 25  1  0
M  END
$$$$
