CHP.pdb
     RDKit          3D

 24 25  0  0  1  0  0  0  0  0999 V2000
   28.5206  -22.9987  -17.7911 N   0  0  0  0  0  0  0  0  0  0  0  0
   27.4294  -23.3142  -16.9310 C   0  0  1  0  0  0  0  0  0  0  0  0
   27.5040  -24.7222  -16.3916 C   0  0  0  0  0  0  0  0  0  0  0  0
   26.8456  -25.8497  -17.6475 S   0  0  0  0  0  0  0  0  0  0  0  0
   27.2668  -22.3027  -15.8863 C   0  0  0  0  0  0  0  0  0  0  0  0
   28.3322  -21.8538  -15.3418 O   0  0  0  0  0  0  0  0  0  0  0  0
   26.0512  -21.7833  -15.4304 N   0  0  0  0  0  0  0  0  0  0  0  0
   25.9458  -20.7169  -14.4248 C   0  0  1  0  0  0  0  0  0  0  0  0
   25.4571  -19.4552  -15.1413 C   0  0  0  0  0  0  0  0  0  0  0  0
   26.6017  -18.9032  -15.9418 C   0  0  0  0  0  0  0  0  0  0  0  0
   26.7292  -18.8476  -17.3164 C   0  0  0  0  0  0  0  0  0  0  0  0
   27.9069  -18.2793  -17.6266 N   0  0  0  0  0  0  0  0  0  0  0  0
   28.5245  -17.9755  -16.4853 C   0  0  0  0  0  0  0  0  0  0  0  0
   27.7461  -18.3476  -15.4774 N   0  0  0  0  0  0  0  0  0  0  0  0
   24.9118  -21.0980  -13.4639 C   0  0  0  0  0  0  0  0  0  0  0  0
   23.9149  -21.7881  -13.8720 O   0  0  0  0  0  0  0  0  0  0  0  0
   24.9515  -20.7499  -12.1040 N   0  0  0  0  0  0  0  0  0  0  0  0
   26.0746  -20.0230  -11.4494 C   0  0  0  0  0  0  0  0  0  0  0  0
   26.0368  -20.5901  -10.0433 C   0  0  0  0  0  0  0  0  0  0  0  0
   24.5691  -20.6375   -9.7805 C   0  0  0  0  0  0  0  0  0  0  0  0
   23.9386  -20.9584  -11.1126 C   0  0  1  0  0  0  0  0  0  0  0  0
   22.7635  -20.0494  -11.3473 C   0  0  0  0  0  0  0  0  0  0  0  0
   22.9059  -19.0879  -12.1206 O   0  0  0  0  0  0  0  0  0  0  0  0
   21.5644  -20.2836  -10.7177 O   0  0  0  0  0  0  0  0  0  0  0  0
  2  1  1  1
  3  2  1  0
  4  3  1  0
  5  2  1  0
  5  6  2  0
  7  5  1  0
  8  7  1  0
  9 10  1  0
  8  9  1  6
 10 14  1  0
 11 12  1  0
 11 10  2  0
 12 13  1  0
 13 14  2  0
 15 17  1  0
 15  8  1  0
 16 15  2  0
 17 18  1  0
 19 18  1  0
 20 19  1  0
 20 21  1  0
 21 17  1  0
 21 22  1  6
 22 24  1  0
 23 22  2  0
M  END
$$$$
