CHP.pdb
     RDKit          3D

 24 25  0  0  1  0  0  0  0  0999 V2000
   15.0214  -21.9623    0.5244 N   0  0  0  0  0  0  0  0  0  0  0  0
   14.7200  -21.3961    1.7967 C   0  0  1  0  0  0  0  0  0  0  0  0
   14.2110  -22.4205    2.7819 C   0  0  0  0  0  0  0  0  0  0  0  0
   15.4485  -23.7354    2.9279 S   0  0  0  0  0  0  0  0  0  0  0  0
   15.8436  -20.6105    2.3082 C   0  0  0  0  0  0  0  0  0  0  0  0
   17.0127  -20.9455    1.9157 O   0  0  0  0  0  0  0  0  0  0  0  0
   15.7530  -19.5269    3.1872 N   0  0  0  0  0  0  0  0  0  0  0  0
   16.9185  -18.7930    3.6997 C   0  0  1  0  0  0  0  0  0  0  0  0
   16.4266  -17.4245    4.1789 C   0  0  0  0  0  0  0  0  0  0  0  0
   17.3013  -16.3734    3.5582 C   0  0  0  0  0  0  0  0  0  0  0  0
   18.3750  -16.5543    2.7076 C   0  0  0  0  0  0  0  0  0  0  0  0
   18.8861  -15.3546    2.3825 N   0  0  0  0  0  0  0  0  0  0  0  0
   18.1639  -14.4232    3.0048 C   0  0  0  0  0  0  0  0  0  0  0  0
   17.2164  -15.0301    3.7078 N   0  0  0  0  0  0  0  0  0  0  0  0
   17.4263  -19.5058    4.8710 C   0  0  0  0  0  0  0  0  0  0  0  0
   16.6290  -20.2618    5.5262 O   0  0  0  0  0  0  0  0  0  0  0  0
   18.7531  -19.4106    5.3212 N   0  0  0  0  0  0  0  0  0  0  0  0
   19.8229  -18.6284    4.6413 C   0  0  0  0  0  0  0  0  0  0  0  0
   21.0608  -19.4405    4.9700 C   0  0  0  0  0  0  0  0  0  0  0  0
   20.8147  -19.7941    6.3982 C   0  0  0  0  0  0  0  0  0  0  0  0
   19.3212  -19.9726    6.5101 C   0  0  1  0  0  0  0  0  0  0  0  0
   18.8174  -19.2586    7.7343 C   0  0  0  0  0  0  0  0  0  0  0  0
   18.7962  -19.8766    8.8115 O   0  0  0  0  0  0  0  0  0  0  0  0
   18.3925  -17.9539    7.6548 O   0  0  0  0  0  0  0  0  0  0  0  0
  2  1  1  6
  3  2  1  0
  4  3  1  0
  5  2  1  0
  5  6  2  0
  7  5  1  0
  8  7  1  0
  9 10  1  0
  8  9  1  1
 10 14  1  0
 11 12  1  0
 11 10  2  0
 12 13  1  0
 13 14  2  0
 15 17  1  0
 15  8  1  0
 16 15  2  0
 17 18  1  0
 19 18  1  0
 20 19  1  0
 20 21  1  0
 21 17  1  0
 21 22  1  1
 22 24  1  0
 23 22  2  0
M  END
$$$$
