CHP.pdb
     RDKit          3D

 24 25  0  0  1  0  0  0  0  0999 V2000
   16.9078  -15.0616  -16.2893 N   0  0  0  0  0  0  0  0  0  0  0  0
   16.6302  -13.7469  -15.8152 C   0  0  1  0  0  0  0  0  0  0  0  0
   16.0283  -13.7442  -14.4308 C   0  0  0  0  0  0  0  0  0  0  0  0
   14.2956  -14.2565  -14.5613 S   0  0  0  0  0  0  0  0  0  0  0  0
   17.8024  -12.8795  -15.9378 C   0  0  0  0  0  0  0  0  0  0  0  0
   18.9270  -13.3691  -15.5792 O   0  0  0  0  0  0  0  0  0  0  0  0
   17.8025  -11.5640  -16.4117 N   0  0  0  0  0  0  0  0  0  0  0  0
   19.0195  -10.7575  -16.5786 C   0  0  1  0  0  0  0  0  0  0  0  0
   19.0117  -10.2022  -18.0054 C   0  0  0  0  0  0  0  0  0  0  0  0
   19.4286  -11.3054  -18.9351 C   0  0  0  0  0  0  0  0  0  0  0  0
   20.6815  -11.8703  -19.0765 C   0  0  0  0  0  0  0  0  0  0  0  0
   20.6292  -12.8272  -20.0187 N   0  0  0  0  0  0  0  0  0  0  0  0
   19.3780  -12.8805  -20.4746 C   0  0  0  0  0  0  0  0  0  0  0  0
   18.6590  -11.9718  -19.8283 N   0  0  0  0  0  0  0  0  0  0  0  0
   18.9375   -9.6161  -15.6685 C   0  0  0  0  0  0  0  0  0  0  0  0
   17.7871   -9.1303  -15.3909 O   0  0  0  0  0  0  0  0  0  0  0  0
   20.0596   -9.0180  -15.0725 N   0  0  0  0  0  0  0  0  0  0  0  0
   21.4691   -9.4328  -15.3168 C   0  0  0  0  0  0  0  0  0  0  0  0
   22.1221   -9.1221  -13.9837 C   0  0  0  0  0  0  0  0  0  0  0  0
   21.4948   -7.8122  -13.6428 C   0  0  0  0  0  0  0  0  0  0  0  0
   20.0902   -7.8925  -14.1867 C   0  0  1  0  0  0  0  0  0  0  0  0
   19.7599   -6.6226  -14.9219 C   0  0  0  0  0  0  0  0  0  0  0  0
   19.8398   -6.6201  -16.1614 O   0  0  0  0  0  0  0  0  0  0  0  0
   19.3797   -5.4964  -14.2318 O   0  0  0  0  0  0  0  0  0  0  0  0
  2  1  1  1
  3  2  1  0
  4  3  1  0
  5  2  1  0
  5  6  2  0
  7  5  1  0
  8  7  1  0
  9 10  1  0
  8  9  1  6
 10 14  1  0
 11 12  1  0
 11 10  2  0
 12 13  1  0
 13 14  2  0
 15 17  1  0
 15  8  1  0
 16 15  2  0
 17 18  1  0
 19 18  1  0
 20 19  1  0
 20 21  1  0
 21 17  1  0
 21 22  1  6
 22 24  1  0
 23 22  2  0
M  END
$$$$
