CHP.pdb
     RDKit          3D

 24 25  0  0  1  0  0  0  0  0999 V2000
   25.5549  -22.5232  -15.7850 N   0  0  0  0  0  0  0  0  0  0  0  0
   26.0047  -21.3021  -15.2046 C   0  0  1  0  0  0  0  0  0  0  0  0
   26.5793  -20.3509  -16.2264 C   0  0  0  0  0  0  0  0  0  0  0  0
   27.8874  -21.2131  -17.1359 S   0  0  0  0  0  0  0  0  0  0  0  0
   24.9663  -20.6963  -14.3703 C   0  0  0  0  0  0  0  0  0  0  0  0
   25.2534  -19.5906  -13.7974 O   0  0  0  0  0  0  0  0  0  0  0  0
   23.6890  -21.2181  -14.1437 N   0  0  0  0  0  0  0  0  0  0  0  0
   22.6643  -20.5436  -13.3347 C   0  0  1  0  0  0  0  0  0  0  0  0
   21.4426  -20.3222  -14.2307 C   0  0  0  0  0  0  0  0  0  0  0  0
   21.7853  -19.2516  -15.2265 C   0  0  0  0  0  0  0  0  0  0  0  0
   22.0743  -19.4005  -16.5694 C   0  0  0  0  0  0  0  0  0  0  0  0
   22.3284  -18.1929  -17.1015 N   0  0  0  0  0  0  0  0  0  0  0  0
   22.2075  -17.2876  -16.1309 C   0  0  0  0  0  0  0  0  0  0  0  0
   21.8830  -17.9184  -15.0097 N   0  0  0  0  0  0  0  0  0  0  0  0
   22.2580  -21.4530  -12.2644 C   0  0  0  0  0  0  0  0  0  0  0  0
   21.9217  -22.6498  -12.5665 O   0  0  0  0  0  0  0  0  0  0  0  0
   22.2183  -21.0864  -10.9094 N   0  0  0  0  0  0  0  0  0  0  0  0
   22.6017  -19.7465  -10.3841 C   0  0  0  0  0  0  0  0  0  0  0  0
   23.1433  -20.0923   -9.0104 C   0  0  0  0  0  0  0  0  0  0  0  0
   22.1619  -21.1185   -8.5528 C   0  0  0  0  0  0  0  0  0  0  0  0
   21.7646  -21.8697   -9.7989 C   0  0  1  0  0  0  0  0  0  0  0  0
   20.2701  -22.0347   -9.8344 C   0  0  0  0  0  0  0  0  0  0  0  0
   19.7487  -22.8597   -9.0661 O   0  0  0  0  0  0  0  0  0  0  0  0
   19.5066  -21.2872  -10.6989 O   0  0  0  0  0  0  0  0  0  0  0  0
  2  1  1  6
  3  2  1  0
  4  3  1  0
  5  2  1  0
  5  6  2  0
  7  5  1  0
  8  7  1  0
  9 10  1  0
  8  9  1  6
 10 14  1  0
 11 12  1  0
 11 10  2  0
 12 13  1  0
 13 14  2  0
 15 17  1  0
 15  8  1  0
 16 15  2  0
 17 18  1  0
 19 18  1  0
 20 19  1  0
 20 21  1  0
 21 17  1  0
 21 22  1  6
 22 24  1  0
 23 22  2  0
M  END
$$$$
