CHP.pdb
     RDKit          3D

 24 25  0  0  1  0  0  0  0  0999 V2000
   20.3141   -1.4489  -17.2342 N   0  0  0  0  0  0  0  0  0  0  0  0
   19.4797   -2.2574  -16.4094 C   0  0  1  0  0  0  0  0  0  0  0  0
   18.0161   -1.9172  -16.5541 C   0  0  0  0  0  0  0  0  0  0  0  0
   17.6416   -0.5291  -15.4519 S   0  0  0  0  0  0  0  0  0  0  0  0
   19.7641   -3.6802  -16.5990 C   0  0  0  0  0  0  0  0  0  0  0  0
   19.7053   -4.1300  -17.7937 O   0  0  0  0  0  0  0  0  0  0  0  0
   20.0940   -4.5914  -15.5910 N   0  0  0  0  0  0  0  0  0  0  0  0
   20.3054   -6.0265  -15.8262 C   0  0  1  0  0  0  0  0  0  0  0  0
   21.3293   -6.5156  -14.7983 C   0  0  0  0  0  0  0  0  0  0  0  0
   21.6736   -7.9398  -15.1276 C   0  0  0  0  0  0  0  0  0  0  0  0
   21.2483   -9.0875  -14.4866 C   0  0  0  0  0  0  0  0  0  0  0  0
   21.7888  -10.1572  -15.0945 N   0  0  0  0  0  0  0  0  0  0  0  0
   22.5427   -9.7150  -16.1006 C   0  0  0  0  0  0  0  0  0  0  0  0
   22.4751   -8.3901  -16.1220 N   0  0  0  0  0  0  0  0  0  0  0  0
   19.0492   -6.7225  -15.5520 C   0  0  0  0  0  0  0  0  0  0  0  0
   18.3862   -6.4085  -14.5040 O   0  0  0  0  0  0  0  0  0  0  0  0
   18.5206   -7.7238  -16.3829 N   0  0  0  0  0  0  0  0  0  0  0  0
   19.1969   -8.2598  -17.5969 C   0  0  0  0  0  0  0  0  0  0  0  0
   18.0170   -8.6140  -18.4815 C   0  0  0  0  0  0  0  0  0  0  0  0
   17.0755   -9.2182  -17.4946 C   0  0  0  0  0  0  0  0  0  0  0  0
   17.2989   -8.4527  -16.2144 C   0  0  1  0  0  0  0  0  0  0  0  0
   17.4028   -9.4142  -15.0624 C   0  0  0  0  0  0  0  0  0  0  0  0
   16.3537   -9.8238  -14.5387 O   0  0  0  0  0  0  0  0  0  0  0  0
   18.6325   -9.8249  -14.6061 O   0  0  0  0  0  0  0  0  0  0  0  0
  2  1  1  6
  3  2  1  0
  4  3  1  0
  5  2  1  0
  5  6  2  0
  7  5  1  0
  8  7  1  0
  9 10  1  0
  8  9  1  1
 10 14  1  0
 11 12  1  0
 11 10  2  0
 12 13  1  0
 13 14  2  0
 15 17  1  0
 15  8  1  0
 16 15  2  0
 17 18  1  0
 19 18  1  0
 20 19  1  0
 20 21  1  0
 21 17  1  0
 21 22  1  1
 22 24  1  0
 23 22  2  0
M  END
$$$$
