CHP.pdb
     RDKit          3D

 24 25  0  0  1  0  0  0  0  0999 V2000
   19.4682  -14.5318  -19.9610 N   0  0  0  0  0  0  0  0  0  0  0  0
   19.7544  -13.1370  -19.9107 C   0  0  1  0  0  0  0  0  0  0  0  0
   19.4678  -12.4383  -21.2178 C   0  0  0  0  0  0  0  0  0  0  0  0
   20.7850  -12.8566  -22.3889 S   0  0  0  0  0  0  0  0  0  0  0  0
   19.1067  -12.5029  -18.7619 C   0  0  0  0  0  0  0  0  0  0  0  0
   17.8541  -12.7091  -18.6147 O   0  0  0  0  0  0  0  0  0  0  0  0
   19.7347  -11.6922  -17.8114 N   0  0  0  0  0  0  0  0  0  0  0  0
   19.0443  -11.1106  -16.6518 C   0  0  1  0  0  0  0  0  0  0  0  0
   19.5348  -11.8513  -15.4048 C   0  0  0  0  0  0  0  0  0  0  0  0
   18.8806  -13.2028  -15.3804 C   0  0  0  0  0  0  0  0  0  0  0  0
   19.4637  -14.4340  -15.6110 C   0  0  0  0  0  0  0  0  0  0  0  0
   18.5288  -15.3925  -15.4946 N   0  0  0  0  0  0  0  0  0  0  0  0
   17.3732  -14.7990  -15.1972 C   0  0  0  0  0  0  0  0  0  0  0  0
   17.5814  -13.4905  -15.1285 N   0  0  0  0  0  0  0  0  0  0  0  0
   19.4668   -9.7168  -16.5225 C   0  0  0  0  0  0  0  0  0  0  0  0
   20.6947   -9.4230  -16.7289 O   0  0  0  0  0  0  0  0  0  0  0  0
   18.5933   -8.6704  -16.1849 N   0  0  0  0  0  0  0  0  0  0  0  0
   17.1330   -8.8330  -15.9407 C   0  0  0  0  0  0  0  0  0  0  0  0
   16.5866   -7.4996  -16.4133 C   0  0  0  0  0  0  0  0  0  0  0  0
   17.6057   -6.5523  -15.8753 C   0  0  0  0  0  0  0  0  0  0  0  0
   18.9167   -7.2937  -15.9557 C   0  0  1  0  0  0  0  0  0  0  0  0
   19.6707   -7.1280  -14.6648 C   0  0  0  0  0  0  0  0  0  0  0  0
   19.7342   -8.0963  -13.8895 O   0  0  0  0  0  0  0  0  0  0  0  0
   20.2722   -5.9309  -14.3577 O   0  0  0  0  0  0  0  0  0  0  0  0
  2  1  1  6
  3  2  1  0
  4  3  1  0
  5  2  1  0
  5  6  2  0
  7  5  1  0
  8  7  1  0
  9 10  1  0
  8  9  1  1
 10 14  1  0
 11 12  1  0
 11 10  2  0
 12 13  1  0
 13 14  2  0
 15 17  1  0
 15  8  1  0
 16 15  2  0
 17 18  1  0
 19 18  1  0
 20 19  1  0
 20 21  1  0
 21 17  1  0
 21 22  1  1
 22 24  1  0
 23 22  2  0
M  END
$$$$
