CHP.pdb
     RDKit          3D

 24 25  0  0  1  0  0  0  0  0999 V2000
   29.4766  -22.0972  -18.8642 N   0  0  0  0  0  0  0  0  0  0  0  0
   29.0589  -22.5783  -17.5897 C   0  0  1  0  0  0  0  0  0  0  0  0
   30.1883  -23.2035  -16.8070 C   0  0  0  0  0  0  0  0  0  0  0  0
   30.5151  -24.8483  -17.4922 S   0  0  0  0  0  0  0  0  0  0  0  0
   28.3390  -21.5468  -16.8423 C   0  0  0  0  0  0  0  0  0  0  0  0
   28.7775  -20.3500  -16.9349 O   0  0  0  0  0  0  0  0  0  0  0  0
   27.2151  -21.7526  -16.0363 N   0  0  0  0  0  0  0  0  0  0  0  0
   26.4655  -20.6667  -15.3894 C   0  0  1  0  0  0  0  0  0  0  0  0
   25.5486  -20.0465  -16.4471 C   0  0  0  0  0  0  0  0  0  0  0  0
   24.7383  -18.9694  -15.7850 C   0  0  0  0  0  0  0  0  0  0  0  0
   23.4133  -19.0194  -15.3965 C   0  0  0  0  0  0  0  0  0  0  0  0
   23.0722  -17.8433  -14.8428 N   0  0  0  0  0  0  0  0  0  0  0  0
   24.1458  -17.0540  -14.8718 C   0  0  0  0  0  0  0  0  0  0  0  0
   25.1424  -17.7252  -15.4345 N   0  0  0  0  0  0  0  0  0  0  0  0
   25.6071  -21.2551  -14.3625 C   0  0  0  0  0  0  0  0  0  0  0  0
   24.7890  -22.1795  -14.6980 O   0  0  0  0  0  0  0  0  0  0  0  0
   25.6312  -20.8628  -13.0143 N   0  0  0  0  0  0  0  0  0  0  0  0
   26.5391  -19.8248  -12.4514 C   0  0  0  0  0  0  0  0  0  0  0  0
   26.7531  -20.3299  -11.0376 C   0  0  0  0  0  0  0  0  0  0  0  0
   25.3795  -20.7825  -10.6716 C   0  0  0  0  0  0  0  0  0  0  0  0
   24.7844  -21.3153  -11.9510 C   0  0  1  0  0  0  0  0  0  0  0  0
   23.3864  -20.7857  -12.1168 C   0  0  0  0  0  0  0  0  0  0  0  0
   23.1750  -19.9451  -13.0064 O   0  0  0  0  0  0  0  0  0  0  0  0
   22.3727  -21.2261  -11.2998 O   0  0  0  0  0  0  0  0  0  0  0  0
  2  1  1  6
  3  2  1  0
  4  3  1  0
  5  2  1  0
  5  6  2  0
  7  5  1  0
  8  7  1  0
  9 10  1  0
  8  9  1  6
 10 14  1  0
 11 12  1  0
 11 10  2  0
 12 13  1  0
 13 14  2  0
 15 17  1  0
 15  8  1  0
 16 15  2  0
 17 18  1  0
 19 18  1  0
 20 19  1  0
 20 21  1  0
 21 17  1  0
 21 22  1  6
 22 24  1  0
 23 22  2  0
M  END
$$$$
