CHP.pdb
     RDKit          3D

 24 25  0  0  1  0  0  0  0  0999 V2000
   24.7901  -16.4217  -17.6679 N   0  0  0  0  0  0  0  0  0  0  0  0
   25.7215  -17.0284  -16.7765 C   0  0  1  0  0  0  0  0  0  0  0  0
   26.7863  -16.0668  -16.3070 C   0  0  0  0  0  0  0  0  0  0  0  0
   28.3386  -16.4820  -17.1435 S   0  0  0  0  0  0  0  0  0  0  0  0
   25.0376  -17.7143  -15.6797 C   0  0  0  0  0  0  0  0  0  0  0  0
   24.3474  -16.9915  -14.8833 O   0  0  0  0  0  0  0  0  0  0  0  0
   25.0714  -19.0887  -15.4248 N   0  0  0  0  0  0  0  0  0  0  0  0
   24.3652  -19.7283  -14.3060 C   0  0  1  0  0  0  0  0  0  0  0  0
   23.3614  -20.7193  -14.9014 C   0  0  0  0  0  0  0  0  0  0  0  0
   22.1992  -19.9356  -15.4401 C   0  0  0  0  0  0  0  0  0  0  0  0
   21.0443  -19.5644  -14.7787 C   0  0  0  0  0  0  0  0  0  0  0  0
   20.2575  -18.8733  -15.6210 N   0  0  0  0  0  0  0  0  0  0  0  0
   20.8849  -18.7990  -16.7945 C   0  0  0  0  0  0  0  0  0  0  0  0
   22.0454  -19.4332  -16.6884 N   0  0  0  0  0  0  0  0  0  0  0  0
   25.3375  -20.5045  -13.5381 C   0  0  0  0  0  0  0  0  0  0  0  0
   26.3478  -21.0014  -14.1455 O   0  0  0  0  0  0  0  0  0  0  0  0
   25.2277  -20.7357  -12.1573 N   0  0  0  0  0  0  0  0  0  0  0  0
   24.0695  -20.3178  -11.3191 C   0  0  0  0  0  0  0  0  0  0  0  0
   24.7318  -20.0513   -9.9811 C   0  0  0  0  0  0  0  0  0  0  0  0
   25.6905  -21.1908   -9.8909 C   0  0  0  0  0  0  0  0  0  0  0  0
   26.1391  -21.4438  -11.3086 C   0  0  1  0  0  0  0  0  0  0  0  0
   26.1013  -22.9199  -11.5946 C   0  0  0  0  0  0  0  0  0  0  0  0
   25.0845  -23.3919  -12.1295 O   0  0  0  0  0  0  0  0  0  0  0  0
   27.1699  -23.7206  -11.2690 O   0  0  0  0  0  0  0  0  0  0  0  0
  2  1  1  1
  3  2  1  0
  4  3  1  0
  5  2  1  0
  5  6  2  0
  7  5  1  0
  8  7  1  0
  9 10  1  0
  8  9  1  6
 10 14  1  0
 11 12  1  0
 11 10  2  0
 12 13  1  0
 13 14  2  0
 15 17  1  0
 15  8  1  0
 16 15  2  0
 17 18  1  0
 19 18  1  0
 20 19  1  0
 20 21  1  0
 21 17  1  0
 21 22  1  6
 22 24  1  0
 23 22  2  0
M  END
$$$$
