CHP.pdb
     RDKit          3D

 24 25  0  0  1  0  0  0  0  0999 V2000
   24.7748  -20.4114   -8.7902 N   0  0  0  0  0  0  0  0  0  0  0  0
   24.3519  -21.0263  -10.0040 C   0  0  1  0  0  0  0  0  0  0  0  0
   22.8673  -20.8860  -10.2390 C   0  0  0  0  0  0  0  0  0  0  0  0
   22.2198  -19.6556   -9.0776 S   0  0  0  0  0  0  0  0  0  0  0  0
   25.1617  -20.5773  -11.1371 C   0  0  0  0  0  0  0  0  0  0  0  0
   25.9322  -19.5770  -10.9399 O   0  0  0  0  0  0  0  0  0  0  0  0
   25.1682  -21.1440  -12.4153 N   0  0  0  0  0  0  0  0  0  0  0  0
   26.1035  -20.7489  -13.4777 C   0  0  1  0  0  0  0  0  0  0  0  0
   26.5082  -22.0191  -14.2306 C   0  0  0  0  0  0  0  0  0  0  0  0
   27.4725  -21.6293  -15.3139 C   0  0  0  0  0  0  0  0  0  0  0  0
   28.8499  -21.7369  -15.3053 C   0  0  0  0  0  0  0  0  0  0  0  0
   29.3349  -21.2741  -16.4701 N   0  0  0  0  0  0  0  0  0  0  0  0
   28.3010  -20.8780  -17.2120 C   0  0  0  0  0  0  0  0  0  0  0  0
   27.1872  -21.0894  -16.5227 N   0  0  0  0  0  0  0  0  0  0  0  0
   25.3847  -19.8953  -14.4225 C   0  0  0  0  0  0  0  0  0  0  0  0
   24.1889  -20.2094  -14.7509 O   0  0  0  0  0  0  0  0  0  0  0  0
   25.9353  -18.7365  -14.9937 N   0  0  0  0  0  0  0  0  0  0  0  0
   27.3501  -18.3016  -14.8273 C   0  0  0  0  0  0  0  0  0  0  0  0
   27.2222  -16.7916  -14.8867 C   0  0  0  0  0  0  0  0  0  0  0  0
   26.2309  -16.6196  -15.9882 C   0  0  0  0  0  0  0  0  0  0  0  0
   25.2972  -17.7981  -15.8680 C   0  0  1  0  0  0  0  0  0  0  0  0
   25.0680  -18.4014  -17.2266 C   0  0  0  0  0  0  0  0  0  0  0  0
   25.6412  -19.4680  -17.5034 O   0  0  0  0  0  0  0  0  0  0  0  0
   24.2428  -17.7816  -18.1343 O   0  0  0  0  0  0  0  0  0  0  0  0
  2  1  1  1
  3  2  1  0
  4  3  1  0
  5  2  1  0
  5  6  2  0
  7  5  1  0
  8  7  1  0
  9 10  1  0
  8  9  1  6
 10 14  1  0
 11 12  1  0
 11 10  2  0
 12 13  1  0
 13 14  2  0
 15 17  1  0
 15  8  1  0
 16 15  2  0
 17 18  1  0
 19 18  1  0
 20 19  1  0
 20 21  1  0
 21 17  1  0
 21 22  1  6
 22 24  1  0
 23 22  2  0
M  END
$$$$
