CHP.pdb
     RDKit          3D

 24 25  0  0  1  0  0  0  0  0999 V2000
   14.5159  -23.0563   -2.4970 N   0  0  0  0  0  0  0  0  0  0  0  0
   13.9337  -23.0739   -1.1967 C   0  0  1  0  0  0  0  0  0  0  0  0
   14.4706  -24.1915   -0.3355 C   0  0  0  0  0  0  0  0  0  0  0  0
   16.2674  -24.0001   -0.2075 S   0  0  0  0  0  0  0  0  0  0  0  0
   14.0196  -21.7599   -0.5585 C   0  0  0  0  0  0  0  0  0  0  0  0
   14.9573  -20.9847   -0.9494 O   0  0  0  0  0  0  0  0  0  0  0  0
   13.1684  -21.2766    0.4400 N   0  0  0  0  0  0  0  0  0  0  0  0
   13.2773  -19.9326    1.0243 C   0  0  1  0  0  0  0  0  0  0  0  0
   11.8732  -19.5047    1.4598 C   0  0  0  0  0  0  0  0  0  0  0  0
   11.1505  -18.9847    0.2505 C   0  0  0  0  0  0  0  0  0  0  0  0
   10.3260  -19.6810   -0.6122 C   0  0  0  0  0  0  0  0  0  0  0  0
    9.8811  -18.8457   -1.5664 N   0  0  0  0  0  0  0  0  0  0  0  0
   10.4026  -17.6425   -1.3284 C   0  0  0  0  0  0  0  0  0  0  0  0
   11.1615  -17.7235   -0.2431 N   0  0  0  0  0  0  0  0  0  0  0  0
   14.0962  -20.0263    2.2320 C   0  0  0  0  0  0  0  0  0  0  0  0
   14.1927  -21.1554    2.8255 O   0  0  0  0  0  0  0  0  0  0  0  0
   14.7931  -18.9383    2.7820 N   0  0  0  0  0  0  0  0  0  0  0  0
   14.7526  -17.5494    2.2455 C   0  0  0  0  0  0  0  0  0  0  0  0
   16.1370  -17.0385    2.5955 C   0  0  0  0  0  0  0  0  0  0  0  0
   16.3199  -17.5903    3.9693 C   0  0  0  0  0  0  0  0  0  0  0  0
   15.6090  -18.9206    3.9594 C   0  0  1  0  0  0  0  0  0  0  0  0
   14.7658  -19.0520    5.1980 C   0  0  0  0  0  0  0  0  0  0  0  0
   13.5612  -18.7577    5.1261 O   0  0  0  0  0  0  0  0  0  0  0  0
   15.3220  -19.4877    6.3769 O   0  0  0  0  0  0  0  0  0  0  0  0
  2  1  1  6
  3  2  1  0
  4  3  1  0
  5  2  1  0
  5  6  2  0
  7  5  1  0
  8  7  1  0
  9 10  1  0
  8  9  1  1
 10 14  1  0
 11 12  1  0
 11 10  2  0
 12 13  1  0
 13 14  2  0
 15 17  1  0
 15  8  1  0
 16 15  2  0
 17 18  1  0
 19 18  1  0
 20 19  1  0
 20 21  1  0
 21 17  1  0
 21 22  1  1
 22 24  1  0
 23 22  2  0
M  END
$$$$
