DSI.pdb
     RDKit          3D

 23 22  0  0  1  0  0  0  0  0999 V2000
    9.3197  -17.7527   18.9749 N   0  0  0  0  0  0  0  0  0  0  0  0
    8.6709  -16.4753   18.9003 C   0  0  1  0  0  0  0  0  0  0  0  0
    7.7384  -16.4173   17.6973 C   0  0  0  0  0  0  0  0  0  0  0  0
    8.4482  -16.7837   16.4589 C   0  0  0  0  0  0  0  0  0  0  0  0
    9.0290  -15.8768   15.8077 O   0  0  0  0  0  0  0  0  0  0  0  0
    7.8900  -16.1844   20.1499 C   0  0  0  0  0  0  0  0  0  0  0  0
    7.3256  -15.0733   20.3139 O   0  0  0  0  0  0  0  0  0  0  0  0
    8.5097  -18.0726   15.9744 O   0  0  0  0  0  0  0  0  0  0  0  0
    7.8166  -18.8545   23.5076 O   0  0  0  0  0  0  0  0  0  0  0  0
    6.6736  -18.2008   23.0473 C   0  0  0  0  0  0  0  0  0  0  0  0
    7.0882  -16.8951   22.4394 C   0  0  2  0  0  0  0  0  0  0  0  0
    7.7569  -17.1383   21.1860 N   0  0  0  0  0  0  0  0  0  0  0  0
    7.9144  -16.0645   23.3495 C   0  0  0  0  0  0  0  0  0  0  0  0
    9.1126  -15.9436   23.0585 O   0  0  0  0  0  0  0  0  0  0  0  0
    7.4574  -10.9641   26.6481 C   0  0  0  0  0  0  0  0  0  0  0  0
    8.1359  -12.3281   26.5643 C   0  0  0  0  0  0  0  0  0  0  0  0
    7.3368  -13.2598   25.6863 C   0  0  2  0  0  0  0  0  0  0  0  0
    6.0548  -13.5545   26.4697 C   0  0  0  0  0  0  0  0  0  0  0  0
    8.0241  -14.5712   25.4104 C   0  0  2  0  0  0  0  0  0  0  0  0
    7.3642  -15.4414   24.4918 N   0  0  0  0  0  0  0  0  0  0  0  0
    8.5333  -15.2108   26.6041 C   0  0  0  0  0  0  0  0  0  0  0  0
    8.1581  -16.4328   27.1158 O   0  0  0  0  0  0  0  0  0  0  0  0
    9.4326  -14.6059   27.2882 O   0  0  0  0  0  0  0  0  0  0  0  0
  2  1  1  1
  2  3  1  0
  3  4  1  0
  4  8  1  0
  4  5  2  0
  6 12  1  0
  6  2  1  0
  7  6  2  0
  9 10  1  0
 11 13  1  0
 11 10  1  1
 11 12  1  0
 13 20  1  0
 14 13  2  0
 16 15  1  0
 17 18  1  1
 17 16  1  0
 19 17  1  0
 19 20  1  1
 21 22  1  0
 21 19  1  0
 23 21  2  0
M  END
$$$$
