DSI.pdb
     RDKit          3D

 23 22  0  0  1  0  0  0  0  0999 V2000
    8.8648  -18.1171   18.7500 N   0  0  0  0  0  0  0  0  0  0  0  0
    9.4706  -18.1442   20.0502 C   0  0  1  0  0  0  0  0  0  0  0  0
   10.8675  -17.5386   20.0034 C   0  0  0  0  0  0  0  0  0  0  0  0
   11.7864  -18.3866   19.2235 C   0  0  0  0  0  0  0  0  0  0  0  0
   13.0104  -18.0938   19.2109 O   0  0  0  0  0  0  0  0  0  0  0  0
    8.6394  -17.4012   21.0567 C   0  0  0  0  0  0  0  0  0  0  0  0
    8.1296  -16.2870   20.7758 O   0  0  0  0  0  0  0  0  0  0  0  0
   11.3742  -19.4878   18.5043 O   0  0  0  0  0  0  0  0  0  0  0  0
    7.5141  -19.1391   24.7901 O   0  0  0  0  0  0  0  0  0  0  0  0
    6.6888  -18.3585   23.9808 C   0  0  0  0  0  0  0  0  0  0  0  0
    7.5292  -17.3047   23.3256 C   0  0  2  0  0  0  0  0  0  0  0  0
    8.3966  -17.9174   22.3511 N   0  0  0  0  0  0  0  0  0  0  0  0
    8.2904  -16.4796   24.2954 C   0  0  0  0  0  0  0  0  0  0  0  0
    9.5182  -16.6439   24.3228 O   0  0  0  0  0  0  0  0  0  0  0  0
    5.5591  -11.9857   26.3563 C   0  0  0  0  0  0  0  0  0  0  0  0
    6.6632  -12.8106   25.7020 C   0  0  0  0  0  0  0  0  0  0  0  0
    7.3685  -13.6572   26.7332 C   0  0  2  0  0  0  0  0  0  0  0  0
    8.2595  -12.6868   27.5132 C   0  0  0  0  0  0  0  0  0  0  0  0
    8.2512  -14.7241   26.1409 C   0  0  2  0  0  0  0  0  0  0  0  0
    7.6493  -15.5520   25.1465 N   0  0  0  0  0  0  0  0  0  0  0  0
    9.0390  -15.4270   27.1301 C   0  0  0  0  0  0  0  0  0  0  0  0
   10.2935  -15.0888   27.5856 O   0  0  0  0  0  0  0  0  0  0  0  0
    8.5512  -16.4851   27.6641 O   0  0  0  0  0  0  0  0  0  0  0  0
  2  1  1  6
  2  3  1  0
  3  4  1  0
  4  8  1  0
  4  5  2  0
  6 12  1  0
  6  2  1  0
  7  6  2  0
  9 10  1  0
 11 13  1  0
 11 10  1  1
 11 12  1  0
 13 20  1  0
 14 13  2  0
 16 15  1  0
 17 18  1  6
 17 16  1  0
 19 17  1  0
 19 20  1  1
 21 22  1  0
 21 19  1  0
 23 21  2  0
M  END
$$$$
