DSI.pdb
     RDKit          3D

 23 22  0  0  1  0  0  0  0  0999 V2000
   10.7783  -16.5836   18.2930 N   0  0  0  0  0  0  0  0  0  0  0  0
   10.9828  -16.1858   19.6561 C   0  0  1  0  0  0  0  0  0  0  0  0
   11.9309  -14.9960   19.7307 C   0  0  0  0  0  0  0  0  0  0  0  0
   13.3368  -15.4353   19.6830 C   0  0  0  0  0  0  0  0  0  0  0  0
   14.1884  -14.6708   19.1594 O   0  0  0  0  0  0  0  0  0  0  0  0
    9.6848  -15.8305   20.3230 C   0  0  0  0  0  0  0  0  0  0  0  0
    8.6276  -15.7097   19.6539 O   0  0  0  0  0  0  0  0  0  0  0  0
   13.7697  -16.6443   20.1838 O   0  0  0  0  0  0  0  0  0  0  0  0
    6.8047  -17.3032   21.5182 O   0  0  0  0  0  0  0  0  0  0  0  0
    8.0302  -17.3797   22.1798 C   0  0  0  0  0  0  0  0  0  0  0  0
    8.4651  -15.9893   22.5315 C   0  0  2  0  0  0  0  0  0  0  0  0
    9.5963  -15.6185   21.7189 N   0  0  0  0  0  0  0  0  0  0  0  0
    8.7480  -15.8149   23.9772 C   0  0  0  0  0  0  0  0  0  0  0  0
    9.7255  -16.4262   24.4308 O   0  0  0  0  0  0  0  0  0  0  0  0
    5.7013  -11.6554   26.2949 C   0  0  0  0  0  0  0  0  0  0  0  0
    6.8587  -12.4762   25.7341 C   0  0  0  0  0  0  0  0  0  0  0  0
    7.2585  -13.5563   26.7094 C   0  0  2  0  0  0  0  0  0  0  0  0
    7.9749  -12.8276   27.8495 C   0  0  0  0  0  0  0  0  0  0  0  0
    8.2127  -14.5697   26.1341 C   0  0  2  0  0  0  0  0  0  0  0  0
    7.9438  -14.9931   24.7981 N   0  0  0  0  0  0  0  0  0  0  0  0
    8.5437  -15.6314   27.0596 C   0  0  0  0  0  0  0  0  0  0  0  0
    9.5785  -15.6486   27.9677 O   0  0  0  0  0  0  0  0  0  0  0  0
    7.8189  -16.6884   27.0654 O   0  0  0  0  0  0  0  0  0  0  0  0
  2  1  1  6
  2  3  1  0
  3  4  1  0
  4  8  1  0
  4  5  2  0
  6 12  1  0
  6  2  1  0
  7  6  2  0
  9 10  1  0
 11 13  1  0
 11 10  1  1
 11 12  1  0
 13 20  1  0
 14 13  2  0
 16 15  1  0
 17 18  1  1
 17 16  1  0
 19 17  1  0
 19 20  1  6
 21 22  1  0
 21 19  1  0
 23 21  2  0
M  END
$$$$
