DSI.pdb
     RDKit          3D

 23 22  0  0  1  0  0  0  0  0999 V2000
   10.8414  -15.4767   18.1455 N   0  0  0  0  0  0  0  0  0  0  0  0
   11.2865  -15.4081   19.5077 C   0  0  1  0  0  0  0  0  0  0  0  0
   12.3426  -14.3229   19.6724 C   0  0  0  0  0  0  0  0  0  0  0  0
   13.6506  -14.7757   19.1665 C   0  0  0  0  0  0  0  0  0  0  0  0
   14.1621  -14.1661   18.1914 O   0  0  0  0  0  0  0  0  0  0  0  0
   10.1437  -15.1368   20.4438 C   0  0  0  0  0  0  0  0  0  0  0  0
    9.7634  -13.9609   20.6738 O   0  0  0  0  0  0  0  0  0  0  0  0
   14.3459  -15.8358   19.7073 O   0  0  0  0  0  0  0  0  0  0  0  0
    8.3210  -18.1941   22.7754 O   0  0  0  0  0  0  0  0  0  0  0  0
    7.5459  -17.2764   22.0665 C   0  0  0  0  0  0  0  0  0  0  0  0
    8.3118  -15.9926   21.9609 C   0  0  2  0  0  0  0  0  0  0  0  0
    9.4527  -16.1818   21.1007 N   0  0  0  0  0  0  0  0  0  0  0  0
    8.7052  -15.4382   23.2794 C   0  0  0  0  0  0  0  0  0  0  0  0
    9.8996  -15.5407   23.5923 O   0  0  0  0  0  0  0  0  0  0  0  0
    6.5475  -11.3380   27.4537 C   0  0  0  0  0  0  0  0  0  0  0  0
    7.4435  -12.5421   27.1791 C   0  0  0  0  0  0  0  0  0  0  0  0
    7.0396  -13.2151   25.8902 C   0  0  2  0  0  0  0  0  0  0  0  0
    5.6942  -13.8832   26.1865 C   0  0  0  0  0  0  0  0  0  0  0  0
    7.9992  -14.2842   25.4379 C   0  0  2  0  0  0  0  0  0  0  0  0
    7.7661  -14.8234   24.1374 N   0  0  0  0  0  0  0  0  0  0  0  0
    8.2900  -15.2613   26.4645 C   0  0  0  0  0  0  0  0  0  0  0  0
    7.9120  -16.5852   26.4816 O   0  0  0  0  0  0  0  0  0  0  0  0
    8.9710  -14.8937   27.4862 O   0  0  0  0  0  0  0  0  0  0  0  0
  2  1  1  6
  2  3  1  0
  3  4  1  0
  4  8  1  0
  4  5  2  0
  6 12  1  0
  6  2  1  0
  7  6  2  0
  9 10  1  0
 11 13  1  0
 11 10  1  1
 11 12  1  0
 13 20  1  0
 14 13  2  0
 16 15  1  0
 17 18  1  1
 17 16  1  0
 19 17  1  0
 19 20  1  6
 21 22  1  0
 21 19  1  0
 23 21  2  0
M  END
$$$$
