DSI.pdb
     RDKit          3D

 23 22  0  0  1  0  0  0  0  0999 V2000
    9.4872  -18.1601   19.0523 N   0  0  0  0  0  0  0  0  0  0  0  0
   10.0104  -18.0533   20.3838 C   0  0  1  0  0  0  0  0  0  0  0  0
   11.3475  -17.3236   20.3774 C   0  0  0  0  0  0  0  0  0  0  0  0
   12.3604  -18.0806   19.6206 C   0  0  0  0  0  0  0  0  0  0  0  0
   12.5033  -19.3065   19.8671 O   0  0  0  0  0  0  0  0  0  0  0  0
    9.0546  -17.3330   21.2912 C   0  0  0  0  0  0  0  0  0  0  0  0
    8.4594  -16.2945   20.9076 O   0  0  0  0  0  0  0  0  0  0  0  0
   13.1625  -17.5144   18.6533 O   0  0  0  0  0  0  0  0  0  0  0  0
    7.7936  -19.0007   24.9785 O   0  0  0  0  0  0  0  0  0  0  0  0
    6.9881  -18.2405   24.1306 C   0  0  0  0  0  0  0  0  0  0  0  0
    7.8360  -17.1774   23.5005 C   0  0  2  0  0  0  0  0  0  0  0  0
    8.7853  -17.7873   22.6036 N   0  0  0  0  0  0  0  0  0  0  0  0
    8.5045  -16.3005   24.4928 C   0  0  0  0  0  0  0  0  0  0  0  0
    9.7251  -16.4549   24.6390 O   0  0  0  0  0  0  0  0  0  0  0  0
    5.8547  -11.5553   25.9694 C   0  0  0  0  0  0  0  0  0  0  0  0
    6.9649  -12.5105   25.5418 C   0  0  0  0  0  0  0  0  0  0  0  0
    7.3978  -13.3681   26.7057 C   0  0  2  0  0  0  0  0  0  0  0  0
    8.2235  -12.4440   27.6047 C   0  0  0  0  0  0  0  0  0  0  0  0
    8.2691  -14.5313   26.3105 C   0  0  2  0  0  0  0  0  0  0  0  0
    7.7870  -15.3363   25.2354 N   0  0  0  0  0  0  0  0  0  0  0  0
    8.7874  -15.2668   27.4435 C   0  0  0  0  0  0  0  0  0  0  0  0
    8.4138  -16.5258   27.8574 O   0  0  0  0  0  0  0  0  0  0  0  0
    9.6941  -14.7211   28.1665 O   0  0  0  0  0  0  0  0  0  0  0  0
  2  1  1  6
  2  3  1  0
  3  4  1  0
  4  8  1  0
  4  5  2  0
  6 12  1  0
  6  2  1  0
  7  6  2  0
  9 10  1  0
 11 13  1  0
 11 10  1  1
 11 12  1  0
 13 20  1  0
 14 13  2  0
 16 15  1  0
 17 18  1  1
 17 16  1  0
 19 17  1  0
 19 20  1  6
 21 22  1  0
 21 19  1  0
 23 21  2  0
M  END
$$$$
