DSI.pdb
     RDKit          3D

 23 22  0  0  1  0  0  0  0  0999 V2000
    9.4354  -18.8211   19.9766 N   0  0  0  0  0  0  0  0  0  0  0  0
    9.2675  -17.4004   19.8676 C   0  0  1  0  0  0  0  0  0  0  0  0
    8.5558  -17.0429   18.5692 C   0  0  0  0  0  0  0  0  0  0  0  0
    9.3478  -17.4610   17.3987 C   0  0  0  0  0  0  0  0  0  0  0  0
   10.4291  -18.0749   17.5924 O   0  0  0  0  0  0  0  0  0  0  0  0
    8.4899  -16.8506   21.0291 C   0  0  0  0  0  0  0  0  0  0  0  0
    8.2011  -15.6289   21.0916 O   0  0  0  0  0  0  0  0  0  0  0  0
    8.9647  -17.2139   16.0980 O   0  0  0  0  0  0  0  0  0  0  0  0
    7.6340  -19.1373   24.5188 O   0  0  0  0  0  0  0  0  0  0  0  0
    6.6366  -18.3872   23.8960 C   0  0  0  0  0  0  0  0  0  0  0  0
    7.2799  -17.2154   23.2184 C   0  0  2  0  0  0  0  0  0  0  0  0
    8.0533  -17.6752   22.0923 N   0  0  0  0  0  0  0  0  0  0  0  0
    8.0931  -16.3837   24.1390 C   0  0  0  0  0  0  0  0  0  0  0  0
    9.3141  -16.3547   23.9311 O   0  0  0  0  0  0  0  0  0  0  0  0
    5.7871  -11.8878   26.3846 C   0  0  0  0  0  0  0  0  0  0  0  0
    6.8086  -12.8256   25.7483 C   0  0  0  0  0  0  0  0  0  0  0  0
    7.3951  -13.7483   26.7886 C   0  0  2  0  0  0  0  0  0  0  0  0
    8.3656  -12.8827   27.5966 C   0  0  0  0  0  0  0  0  0  0  0  0
    8.1730  -14.8999   26.2081 C   0  0  2  0  0  0  0  0  0  0  0  0
    7.5064  -15.6598   25.2009 N   0  0  0  0  0  0  0  0  0  0  0  0
    8.8667  -15.6817   27.2085 C   0  0  0  0  0  0  0  0  0  0  0  0
    8.6475  -17.0028   27.5289 O   0  0  0  0  0  0  0  0  0  0  0  0
    9.7928  -15.1194   27.8932 O   0  0  0  0  0  0  0  0  0  0  0  0
  2  1  1  1
  2  3  1  0
  3  4  1  0
  4  8  1  0
  4  5  2  0
  6 12  1  0
  6  2  1  0
  7  6  2  0
  9 10  1  0
 11 13  1  0
 11 10  1  1
 11 12  1  0
 13 20  1  0
 14 13  2  0
 16 15  1  0
 17 18  1  1
 17 16  1  0
 19 17  1  0
 19 20  1  1
 21 22  1  0
 21 19  1  0
 23 21  2  0
M  END
$$$$
