DSI.pdb
     RDKit          3D

 23 22  0  0  1  0  0  0  0  0999 V2000
   10.4063  -18.4247   20.2868 N   0  0  0  0  0  0  0  0  0  0  0  0
    9.6598  -17.3092   19.7803 C   0  0  1  0  0  0  0  0  0  0  0  0
    8.9213  -17.6933   18.5047 C   0  0  0  0  0  0  0  0  0  0  0  0
    9.8662  -17.9613   17.4060 C   0  0  0  0  0  0  0  0  0  0  0  0
   10.7766  -17.1228   17.1777 O   0  0  0  0  0  0  0  0  0  0  0  0
    8.6728  -16.8055   20.7944 C   0  0  0  0  0  0  0  0  0  0  0  0
    7.9223  -15.8310   20.5354 O   0  0  0  0  0  0  0  0  0  0  0  0
    9.8051  -19.0864   16.6122 O   0  0  0  0  0  0  0  0  0  0  0  0
    7.8771  -18.8627   24.4337 O   0  0  0  0  0  0  0  0  0  0  0  0
    6.9426  -18.1277   23.7044 C   0  0  0  0  0  0  0  0  0  0  0  0
    7.6391  -16.9480   23.0968 C   0  0  2  0  0  0  0  0  0  0  0  0
    8.5463  -17.3998   22.0718 N   0  0  0  0  0  0  0  0  0  0  0  0
    8.3247  -16.0959   24.0990 C   0  0  0  0  0  0  0  0  0  0  0  0
    9.5607  -16.1715   24.1416 O   0  0  0  0  0  0  0  0  0  0  0  0
    5.4534  -11.6640   26.0996 C   0  0  0  0  0  0  0  0  0  0  0  0
    6.5452  -12.5406   25.4934 C   0  0  0  0  0  0  0  0  0  0  0  0
    7.2007  -13.3792   26.5633 C   0  0  2  0  0  0  0  0  0  0  0  0
    8.0369  -12.3992   27.3905 C   0  0  0  0  0  0  0  0  0  0  0  0
    8.1260  -14.4372   26.0222 C   0  0  2  0  0  0  0  0  0  0  0  0
    7.6060  -15.2397   24.9629 N   0  0  0  0  0  0  0  0  0  0  0  0
    8.8267  -15.1659   27.0571 C   0  0  0  0  0  0  0  0  0  0  0  0
   10.0263  -14.8289   27.6430 O   0  0  0  0  0  0  0  0  0  0  0  0
    8.3072  -16.2491   27.5039 O   0  0  0  0  0  0  0  0  0  0  0  0
  2  1  1  1
  2  3  1  0
  3  4  1  0
  4  8  1  0
  4  5  2  0
  6 12  1  0
  6  2  1  0
  7  6  2  0
  9 10  1  0
 11 13  1  0
 11 10  1  1
 11 12  1  0
 13 20  1  0
 14 13  2  0
 16 15  1  0
 17 18  1  1
 17 16  1  0
 19 17  1  0
 19 20  1  1
 21 22  1  0
 21 19  1  0
 23 21  2  0
M  END
$$$$
