DSI.pdb
     RDKit          3D

 23 22  0  0  1  0  0  0  0  0999 V2000
    9.0865  -18.7264   19.8714 N   0  0  0  0  0  0  0  0  0  0  0  0
    8.7925  -17.3302   19.7217 C   0  0  1  0  0  0  0  0  0  0  0  0
    7.8813  -17.1000   18.5229 C   0  0  0  0  0  0  0  0  0  0  0  0
    8.5370  -17.5183   17.2712 C   0  0  0  0  0  0  0  0  0  0  0  0
    8.0450  -18.4810   16.6271 O   0  0  0  0  0  0  0  0  0  0  0  0
    8.1424  -16.7724   20.9554 C   0  0  0  0  0  0  0  0  0  0  0  0
    7.7188  -15.5893   20.9827 O   0  0  0  0  0  0  0  0  0  0  0  0
    9.6653  -16.9081   16.7668 O   0  0  0  0  0  0  0  0  0  0  0  0
    7.7086  -19.0331   24.5720 O   0  0  0  0  0  0  0  0  0  0  0  0
    6.6637  -18.3232   23.9805 C   0  0  0  0  0  0  0  0  0  0  0  0
    7.2386  -17.1238   23.2899 C   0  0  2  0  0  0  0  0  0  0  0  0
    7.9801  -17.5463   22.1284 N   0  0  0  0  0  0  0  0  0  0  0  0
    8.0603  -16.2733   24.1855 C   0  0  0  0  0  0  0  0  0  0  0  0
    9.2857  -16.2958   24.0044 O   0  0  0  0  0  0  0  0  0  0  0  0
    5.6456  -11.7635   26.2308 C   0  0  0  0  0  0  0  0  0  0  0  0
    6.7663  -12.6177   25.6459 C   0  0  0  0  0  0  0  0  0  0  0  0
    7.3599  -13.5073   26.7107 C   0  0  2  0  0  0  0  0  0  0  0  0
    8.3233  -12.6126   27.4951 C   0  0  0  0  0  0  0  0  0  0  0  0
    8.1471  -14.6679   26.1614 C   0  0  2  0  0  0  0  0  0  0  0  0
    7.4765  -15.4766   25.1956 N   0  0  0  0  0  0  0  0  0  0  0  0
    8.8700  -15.3995   27.1790 C   0  0  0  0  0  0  0  0  0  0  0  0
   10.1086  -15.0957   27.6981 O   0  0  0  0  0  0  0  0  0  0  0  0
    8.3329  -16.4516   27.6765 O   0  0  0  0  0  0  0  0  0  0  0  0
  2  1  1  1
  2  3  1  0
  3  4  1  0
  4  8  1  0
  4  5  2  0
  6 12  1  0
  6  2  1  0
  7  6  2  0
  9 10  1  0
 11 13  1  0
 11 10  1  1
 11 12  1  0
 13 20  1  0
 14 13  2  0
 16 15  1  0
 17 18  1  1
 17 16  1  0
 19 17  1  0
 19 20  1  1
 21 22  1  0
 21 19  1  0
 23 21  2  0
M  END
$$$$
