DSI.pdb
     RDKit          3D

 23 22  0  0  1  0  0  0  0  0999 V2000
    8.6829  -18.5399   18.7844 N   0  0  0  0  0  0  0  0  0  0  0  0
    8.6074  -17.1911   19.2674 C   0  0  1  0  0  0  0  0  0  0  0  0
    7.7399  -16.3406   18.3485 C   0  0  0  0  0  0  0  0  0  0  0  0
    8.3490  -16.2144   17.0125 C   0  0  0  0  0  0  0  0  0  0  0  0
    9.5619  -16.5199   16.8731 O   0  0  0  0  0  0  0  0  0  0  0  0
    8.0538  -17.1398   20.6627 C   0  0  0  0  0  0  0  0  0  0  0  0
    6.8197  -17.2555   20.8717 O   0  0  0  0  0  0  0  0  0  0  0  0
    7.6572  -15.7778   15.9032 O   0  0  0  0  0  0  0  0  0  0  0  0
   10.2274  -18.4483   23.7221 O   0  0  0  0  0  0  0  0  0  0  0  0
    8.8358  -18.3560   23.7446 C   0  0  0  0  0  0  0  0  0  0  0  0
    8.4402  -17.0346   23.1586 C   0  0  2  0  0  0  0  0  0  0  0  0
    8.8884  -16.9608   21.7907 N   0  0  0  0  0  0  0  0  0  0  0  0
    8.9170  -15.8774   23.9550 C   0  0  0  0  0  0  0  0  0  0  0  0
    9.9229  -15.2890   23.5344 O   0  0  0  0  0  0  0  0  0  0  0  0
    5.7070  -11.9561   25.6570 C   0  0  0  0  0  0  0  0  0  0  0  0
    6.9241  -12.7626   25.2143 C   0  0  0  0  0  0  0  0  0  0  0  0
    7.5669  -13.4386   26.4006 C   0  0  2  0  0  0  0  0  0  0  0  0
    8.2149  -12.3104   27.2076 C   0  0  0  0  0  0  0  0  0  0  0  0
    8.6455  -14.4213   26.0275 C   0  0  2  0  0  0  0  0  0  0  0  0
    8.2582  -15.4650   25.1348 N   0  0  0  0  0  0  0  0  0  0  0  0
    9.4471  -14.8441   27.1553 C   0  0  0  0  0  0  0  0  0  0  0  0
   10.4754  -14.1482   27.7505 O   0  0  0  0  0  0  0  0  0  0  0  0
    9.2054  -15.9852   27.6864 O   0  0  0  0  0  0  0  0  0  0  0  0
  2  1  1  6
  2  3  1  0
  3  4  1  0
  4  8  1  0
  4  5  2  0
  6 12  1  0
  6  2  1  0
  7  6  2  0
  9 10  1  0
 11 13  1  0
 11 10  1  1
 11 12  1  0
 13 20  1  0
 14 13  2  0
 16 15  1  0
 17 18  1  1
 17 16  1  0
 19 17  1  0
 19 20  1  1
 21 22  1  0
 21 19  1  0
 23 21  2  0
M  END
$$$$
