DSI.pdb
     RDKit          3D

 23 22  0  0  1  0  0  0  0  0999 V2000
    8.0154  -18.3946   18.7217 N   0  0  0  0  0  0  0  0  0  0  0  0
    8.8871  -17.9366   19.7651 C   0  0  1  0  0  0  0  0  0  0  0  0
    9.8620  -16.8955   19.2304 C   0  0  0  0  0  0  0  0  0  0  0  0
   10.8359  -17.5062   18.3082 C   0  0  0  0  0  0  0  0  0  0  0  0
   11.4348  -18.5516   18.6719 O   0  0  0  0  0  0  0  0  0  0  0  0
    8.1104  -17.3501   20.9090 C   0  0  0  0  0  0  0  0  0  0  0  0
    7.3291  -16.3820   20.7291 O   0  0  0  0  0  0  0  0  0  0  0  0
   11.1264  -16.9904   17.0635 O   0  0  0  0  0  0  0  0  0  0  0  0
    6.1128  -18.1209   25.1425 O   0  0  0  0  0  0  0  0  0  0  0  0
    6.7586  -18.5686   23.9901 C   0  0  0  0  0  0  0  0  0  0  0  0
    7.4403  -17.3997   23.3459 C   0  0  2  0  0  0  0  0  0  0  0  0
    8.2230  -17.8564   22.2251 N   0  0  0  0  0  0  0  0  0  0  0  0
    8.2557  -16.6040   24.2961 C   0  0  0  0  0  0  0  0  0  0  0  0
    9.4528  -16.9084   24.3927 O   0  0  0  0  0  0  0  0  0  0  0  0
    5.8903  -11.8145   26.2726 C   0  0  0  0  0  0  0  0  0  0  0  0
    6.9406  -12.7202   25.6368 C   0  0  0  0  0  0  0  0  0  0  0  0
    7.5126  -13.6649   26.6653 C   0  0  2  0  0  0  0  0  0  0  0  0
    8.4383  -12.8074   27.5323 C   0  0  0  0  0  0  0  0  0  0  0  0
    8.3327  -14.7810   26.0737 C   0  0  2  0  0  0  0  0  0  0  0  0
    7.6969  -15.5510   25.0543 N   0  0  0  0  0  0  0  0  0  0  0  0
    9.0497  -15.5507   27.0671 C   0  0  0  0  0  0  0  0  0  0  0  0
   10.3144  -15.3057   27.5534 O   0  0  0  0  0  0  0  0  0  0  0  0
    8.4799  -16.5809   27.5738 O   0  0  0  0  0  0  0  0  0  0  0  0
  2  1  1  6
  2  3  1  0
  3  4  1  0
  4  8  1  0
  4  5  2  0
  6 12  1  0
  6  2  1  0
  7  6  2  0
  9 10  1  0
 11 13  1  0
 11 10  1  1
 11 12  1  0
 13 20  1  0
 14 13  2  0
 16 15  1  0
 17 18  1  1
 17 16  1  0
 19 17  1  0
 19 20  1  1
 21 22  1  0
 21 19  1  0
 23 21  2  0
M  END
$$$$
