DSI.pdb
     RDKit          3D

 23 22  0  0  1  0  0  0  0  0999 V2000
    9.7821  -19.2660   20.4021 N   0  0  0  0  0  0  0  0  0  0  0  0
    9.7348  -17.8583   20.1289 C   0  0  1  0  0  0  0  0  0  0  0  0
    9.1023  -17.5976   18.7679 C   0  0  0  0  0  0  0  0  0  0  0  0
   10.0911  -17.7516   17.6861 C   0  0  0  0  0  0  0  0  0  0  0  0
   11.2474  -17.2849   17.8572 O   0  0  0  0  0  0  0  0  0  0  0  0
    8.9630  -17.1214   21.1859 C   0  0  0  0  0  0  0  0  0  0  0  0
    8.8334  -15.8721   21.1369 O   0  0  0  0  0  0  0  0  0  0  0  0
    9.8151  -18.3824   16.4922 O   0  0  0  0  0  0  0  0  0  0  0  0
    7.3815  -19.0078   24.6952 O   0  0  0  0  0  0  0  0  0  0  0  0
    6.6047  -18.1993   23.8654 C   0  0  0  0  0  0  0  0  0  0  0  0
    7.4951  -17.1666   23.2434 C   0  0  2  0  0  0  0  0  0  0  0  0
    8.3546  -17.7943   22.2714 N   0  0  0  0  0  0  0  0  0  0  0  0
    8.2710  -16.3890   24.2403 C   0  0  0  0  0  0  0  0  0  0  0  0
    9.4760  -16.6591   24.3414 O   0  0  0  0  0  0  0  0  0  0  0  0
    5.8317  -11.6635   25.9571 C   0  0  0  0  0  0  0  0  0  0  0  0
    6.9580  -12.5546   25.4421 C   0  0  0  0  0  0  0  0  0  0  0  0
    7.4884  -13.4269   26.5535 C   0  0  2  0  0  0  0  0  0  0  0  0
    8.4334  -12.5293   27.3569 C   0  0  0  0  0  0  0  0  0  0  0  0
    8.2769  -14.6147   26.0682 C   0  0  2  0  0  0  0  0  0  0  0  0
    7.6680  -15.3895   25.0361 N   0  0  0  0  0  0  0  0  0  0  0  0
    8.8723  -15.3813   27.1410 C   0  0  0  0  0  0  0  0  0  0  0  0
   10.1051  -15.1801   27.7204 O   0  0  0  0  0  0  0  0  0  0  0  0
    8.2122  -16.3637   27.6329 O   0  0  0  0  0  0  0  0  0  0  0  0
  2  1  1  1
  2  3  1  0
  3  4  1  0
  4  8  1  0
  4  5  2  0
  6 12  1  0
  6  2  1  0
  7  6  2  0
  9 10  1  0
 11 13  1  0
 11 10  1  1
 11 12  1  0
 13 20  1  0
 14 13  2  0
 16 15  1  0
 17 18  1  1
 17 16  1  0
 19 17  1  0
 19 20  1  1
 21 22  1  0
 21 19  1  0
 23 21  2  0
M  END
$$$$
