DSI.pdb
     RDKit          3D

 23 22  0  0  1  0  0  0  0  0999 V2000
   10.0435  -13.3349   19.1062 N   0  0  0  0  0  0  0  0  0  0  0  0
    8.6536  -13.0225   19.2761 C   0  0  1  0  0  0  0  0  0  0  0  0
    7.8864  -13.2718   17.9840 C   0  0  0  0  0  0  0  0  0  0  0  0
    8.2436  -14.5766   17.3993 C   0  0  0  0  0  0  0  0  0  0  0  0
    9.0768  -15.2993   18.0053 O   0  0  0  0  0  0  0  0  0  0  0  0
    8.0418  -13.8332   20.3826 C   0  0  0  0  0  0  0  0  0  0  0  0
    6.8945  -13.5648   20.8206 O   0  0  0  0  0  0  0  0  0  0  0  0
    7.7109  -15.0487   16.2190 O   0  0  0  0  0  0  0  0  0  0  0  0
   10.0831  -17.1118   21.9343 O   0  0  0  0  0  0  0  0  0  0  0  0
    8.6905  -17.0891   22.0099 C   0  0  0  0  0  0  0  0  0  0  0  0
    8.2461  -15.6618   22.1160 C   0  0  2  0  0  0  0  0  0  0  0  0
    8.7230  -14.9228   20.9741 N   0  0  0  0  0  0  0  0  0  0  0  0
    8.6475  -15.0194   23.3914 C   0  0  0  0  0  0  0  0  0  0  0  0
    9.6191  -14.2520   23.3465 O   0  0  0  0  0  0  0  0  0  0  0  0
    5.9997  -11.7290   26.1833 C   0  0  0  0  0  0  0  0  0  0  0  0
    7.1485  -12.5735   25.6401 C   0  0  0  0  0  0  0  0  0  0  0  0
    7.3636  -13.7892   26.5079 C   0  0  2  0  0  0  0  0  0  0  0  0
    8.0074  -13.2609   27.7926 C   0  0  0  0  0  0  0  0  0  0  0  0
    8.2965  -14.8066   25.9056 C   0  0  2  0  0  0  0  0  0  0  0  0
    7.9575  -15.2688   24.5987 N   0  0  0  0  0  0  0  0  0  0  0  0
    8.6936  -15.8392   26.8380 C   0  0  0  0  0  0  0  0  0  0  0  0
    9.6635  -15.7508   27.8113 O   0  0  0  0  0  0  0  0  0  0  0  0
    8.1022  -16.9751   26.7840 O   0  0  0  0  0  0  0  0  0  0  0  0
  2  1  1  6
  2  3  1  0
  3  4  1  0
  4  8  1  0
  4  5  2  0
  6 12  1  0
  6  2  1  0
  7  6  2  0
  9 10  1  0
 11 13  1  0
 11 10  1  1
 11 12  1  0
 13 20  1  0
 14 13  2  0
 16 15  1  0
 17 18  1  1
 17 16  1  0
 19 17  1  0
 19 20  1  6
 21 22  1  0
 21 19  1  0
 23 21  2  0
M  END
$$$$
