DSI.pdb
     RDKit          3D

 23 22  0  0  1  0  0  0  0  0999 V2000
   11.1809  -15.9422   18.1820 N   0  0  0  0  0  0  0  0  0  0  0  0
   11.5640  -15.5449   19.5063 C   0  0  1  0  0  0  0  0  0  0  0  0
   12.3807  -14.2598   19.4651 C   0  0  0  0  0  0  0  0  0  0  0  0
   13.7596  -14.5228   19.0162 C   0  0  0  0  0  0  0  0  0  0  0  0
   14.2142  -13.8582   18.0490 O   0  0  0  0  0  0  0  0  0  0  0  0
   10.3634  -15.3437   20.3860 C   0  0  0  0  0  0  0  0  0  0  0  0
    9.5227  -14.4438   20.1342 O   0  0  0  0  0  0  0  0  0  0  0  0
   14.5805  -15.4619   19.6024 O   0  0  0  0  0  0  0  0  0  0  0  0
    9.3473  -18.1605   23.3779 O   0  0  0  0  0  0  0  0  0  0  0  0
    8.4323  -17.4976   22.5601 C   0  0  0  0  0  0  0  0  0  0  0  0
    8.9312  -16.1040   22.3253 C   0  0  2  0  0  0  0  0  0  0  0  0
   10.1288  -16.1498   21.5245 N   0  0  0  0  0  0  0  0  0  0  0  0
    9.1393  -15.3401   23.5797 C   0  0  0  0  0  0  0  0  0  0  0  0
   10.3072  -15.2336   23.9793 O   0  0  0  0  0  0  0  0  0  0  0  0
    6.3394  -11.0142   27.0421 C   0  0  0  0  0  0  0  0  0  0  0  0
    7.2624  -12.2289   27.0269 C   0  0  0  0  0  0  0  0  0  0  0  0
    7.0633  -13.0250   25.7604 C   0  0  2  0  0  0  0  0  0  0  0  0
    5.7075  -13.7167   25.9257 C   0  0  0  0  0  0  0  0  0  0  0  0
    8.1050  -14.0909   25.5442 C   0  0  2  0  0  0  0  0  0  0  0  0
    8.0607  -14.7618   24.2855 N   0  0  0  0  0  0  0  0  0  0  0  0
    8.2872  -14.9519   26.6925 C   0  0  0  0  0  0  0  0  0  0  0  0
    8.0319  -16.3030   26.7662 O   0  0  0  0  0  0  0  0  0  0  0  0
    8.7325  -14.4391   27.7794 O   0  0  0  0  0  0  0  0  0  0  0  0
  2  1  1  6
  2  3  1  0
  3  4  1  0
  4  8  1  0
  4  5  2  0
  6 12  1  0
  6  2  1  0
  7  6  2  0
  9 10  1  0
 11 13  1  0
 11 10  1  1
 11 12  1  0
 13 20  1  0
 14 13  2  0
 16 15  1  0
 17 18  1  1
 17 16  1  0
 19 17  1  0
 19 20  1  6
 21 22  1  0
 21 19  1  0
 23 21  2  0
M  END
$$$$
