DSI.pdb
     RDKit          3D

 23 22  0  0  1  0  0  0  0  0999 V2000
    9.8959  -16.6154   18.7950 N   0  0  0  0  0  0  0  0  0  0  0  0
    8.7627  -15.7360   18.7695 C   0  0  1  0  0  0  0  0  0  0  0  0
    7.8465  -16.0761   17.6011 C   0  0  0  0  0  0  0  0  0  0  0  0
    8.6211  -16.2913   16.3659 C   0  0  0  0  0  0  0  0  0  0  0  0
    9.6067  -17.0730   16.4026 O   0  0  0  0  0  0  0  0  0  0  0  0
    7.9833  -15.8105   20.0513 C   0  0  0  0  0  0  0  0  0  0  0  0
    6.8599  -15.2565   20.1562 O   0  0  0  0  0  0  0  0  0  0  0  0
    8.3215  -15.6790   15.1680 O   0  0  0  0  0  0  0  0  0  0  0  0
    8.8537  -18.6128   23.0026 O   0  0  0  0  0  0  0  0  0  0  0  0
    7.5958  -18.0455   22.7990 C   0  0  0  0  0  0  0  0  0  0  0  0
    7.7804  -16.6013   22.4436 C   0  0  2  0  0  0  0  0  0  0  0  0
    8.4745  -16.5002   21.1844 N   0  0  0  0  0  0  0  0  0  0  0  0
    8.4584  -15.8211   23.5076 C   0  0  0  0  0  0  0  0  0  0  0  0
    9.6923  -15.7360   23.4349 O   0  0  0  0  0  0  0  0  0  0  0  0
    5.7664  -11.6115   25.9106 C   0  0  0  0  0  0  0  0  0  0  0  0
    6.8762  -12.4597   25.2968 C   0  0  0  0  0  0  0  0  0  0  0  0
    7.3824  -13.4684   26.2986 C   0  0  2  0  0  0  0  0  0  0  0  0
    8.2267  -12.6647   27.2912 C   0  0  0  0  0  0  0  0  0  0  0  0
    8.2616  -14.5325   25.6962 C   0  0  2  0  0  0  0  0  0  0  0  0
    7.7350  -15.2048   24.5530 N   0  0  0  0  0  0  0  0  0  0  0  0
    8.8762  -15.3919   26.6847 C   0  0  0  0  0  0  0  0  0  0  0  0
   10.0627  -15.1769   27.3493 O   0  0  0  0  0  0  0  0  0  0  0  0
    8.2827  -16.4822   27.0037 O   0  0  0  0  0  0  0  0  0  0  0  0
  2  1  1  1
  2  3  1  0
  3  4  1  0
  4  8  1  0
  4  5  2  0
  6 12  1  0
  6  2  1  0
  7  6  2  0
  9 10  1  0
 11 13  1  0
 11 10  1  1
 11 12  1  0
 13 20  1  0
 14 13  2  0
 16 15  1  0
 17 18  1  1
 17 16  1  0
 19 17  1  0
 19 20  1  6
 21 22  1  0
 21 19  1  0
 23 21  2  0
M  END
$$$$
