DSI.pdb
     RDKit          3D

 23 22  0  0  1  0  0  0  0  0999 V2000
    9.4205  -15.1546   18.8226 N   0  0  0  0  0  0  0  0  0  0  0  0
    8.6703  -14.0060   19.2423 C   0  0  1  0  0  0  0  0  0  0  0  0
    7.7505  -13.5294   18.1255 C   0  0  0  0  0  0  0  0  0  0  0  0
    8.3091  -13.8593   16.8023 C   0  0  0  0  0  0  0  0  0  0  0  0
    8.0068  -13.1291   15.8228 O   0  0  0  0  0  0  0  0  0  0  0  0
    7.8533  -14.3037   20.4670 C   0  0  0  0  0  0  0  0  0  0  0  0
    7.1687  -13.4060   21.0196 O   0  0  0  0  0  0  0  0  0  0  0  0
    9.1484  -14.9298   16.5802 O   0  0  0  0  0  0  0  0  0  0  0  0
    8.1128  -18.0626   22.5296 O   0  0  0  0  0  0  0  0  0  0  0  0
    6.9119  -17.3676   22.3868 C   0  0  0  0  0  0  0  0  0  0  0  0
    7.2190  -15.9022   22.3196 C   0  0  2  0  0  0  0  0  0  0  0  0
    7.8191  -15.5939   21.0459 N   0  0  0  0  0  0  0  0  0  0  0  0
    8.0565  -15.4296   23.4491 C   0  0  0  0  0  0  0  0  0  0  0  0
    9.2479  -15.1982   23.1998 O   0  0  0  0  0  0  0  0  0  0  0  0
    5.9124  -11.6653   26.5192 C   0  0  0  0  0  0  0  0  0  0  0  0
    6.9363  -12.5116   25.7688 C   0  0  0  0  0  0  0  0  0  0  0  0
    7.4232  -13.6433   26.6404 C   0  0  2  0  0  0  0  0  0  0  0  0
    8.3837  -12.9980   27.6429 C   0  0  0  0  0  0  0  0  0  0  0  0
    8.1817  -14.7049   25.8880 C   0  0  2  0  0  0  0  0  0  0  0  0
    7.5242  -15.2515   24.7455 N   0  0  0  0  0  0  0  0  0  0  0  0
    8.8158  -15.6751   26.7539 C   0  0  0  0  0  0  0  0  0  0  0  0
   10.0375  -15.5579   27.3781 O   0  0  0  0  0  0  0  0  0  0  0  0
    8.2061  -16.7774   26.9904 O   0  0  0  0  0  0  0  0  0  0  0  0
  2  1  1  6
  2  3  1  0
  3  4  1  0
  4  8  1  0
  4  5  2  0
  6 12  1  0
  6  2  1  0
  7  6  2  0
  9 10  1  0
 11 13  1  0
 11 10  1  1
 11 12  1  0
 13 20  1  0
 14 13  2  0
 16 15  1  0
 17 18  1  1
 17 16  1  0
 19 17  1  0
 19 20  1  6
 21 22  1  0
 21 19  1  0
 23 21  2  0
M  END
$$$$
