DSI.pdb
     RDKit          3D

 23 22  0  0  1  0  0  0  0  0999 V2000
   10.2393  -17.8125   18.7762 N   0  0  0  0  0  0  0  0  0  0  0  0
   10.5740  -17.9555   20.1640 C   0  0  1  0  0  0  0  0  0  0  0  0
   11.9977  -17.4802   20.4236 C   0  0  0  0  0  0  0  0  0  0  0  0
   12.9732  -18.3017   19.6852 C   0  0  0  0  0  0  0  0  0  0  0  0
   13.8774  -17.7193   19.0316 O   0  0  0  0  0  0  0  0  0  0  0  0
    9.6251  -17.1860   21.0378 C   0  0  0  0  0  0  0  0  0  0  0  0
    9.2967  -16.0068   20.7516 O   0  0  0  0  0  0  0  0  0  0  0  0
   12.9472  -19.6797   19.6728 O   0  0  0  0  0  0  0  0  0  0  0  0
    7.6576  -19.0240   24.3126 O   0  0  0  0  0  0  0  0  0  0  0  0
    7.0493  -18.0975   23.4658 C   0  0  0  0  0  0  0  0  0  0  0  0
    8.0818  -17.0991   23.0379 C   0  0  2  0  0  0  0  0  0  0  0  0
    9.0656  -17.7488   22.2087 N   0  0  0  0  0  0  0  0  0  0  0  0
    8.7097  -16.3852   24.1766 C   0  0  0  0  0  0  0  0  0  0  0  0
    9.9121  -16.6067   24.3774 O   0  0  0  0  0  0  0  0  0  0  0  0
    6.0031  -11.8044   25.9302 C   0  0  0  0  0  0  0  0  0  0  0  0
    7.1299  -12.7188   25.4589 C   0  0  0  0  0  0  0  0  0  0  0  0
    7.5767  -13.6239   26.5809 C   0  0  2  0  0  0  0  0  0  0  0  0
    8.4123  -12.7373   27.5081 C   0  0  0  0  0  0  0  0  0  0  0  0
    8.4438  -14.7688   26.1275 C   0  0  2  0  0  0  0  0  0  0  0  0
    7.9751  -15.4965   24.9930 N   0  0  0  0  0  0  0  0  0  0  0  0
    8.9318  -15.5824   27.2198 C   0  0  0  0  0  0  0  0  0  0  0  0
   10.1072  -15.4170   27.9177 O   0  0  0  0  0  0  0  0  0  0  0  0
    8.2218  -16.5756   27.6098 O   0  0  0  0  0  0  0  0  0  0  0  0
  2  1  1  6
  2  3  1  0
  3  4  1  0
  4  8  1  0
  4  5  2  0
  6 12  1  0
  6  2  1  0
  7  6  2  0
  9 10  1  0
 11 13  1  0
 11 10  1  1
 11 12  1  0
 13 20  1  0
 14 13  2  0
 16 15  1  0
 17 18  1  1
 17 16  1  0
 19 17  1  0
 19 20  1  6
 21 22  1  0
 21 19  1  0
 23 21  2  0
M  END
$$$$
