DSI.pdb
     RDKit          3D

 23 22  0  0  1  0  0  0  0  0999 V2000
    9.1790  -18.6605   20.0154 N   0  0  0  0  0  0  0  0  0  0  0  0
    8.7751  -17.2977   19.8206 C   0  0  1  0  0  0  0  0  0  0  0  0
    7.8302  -17.1835   18.6313 C   0  0  0  0  0  0  0  0  0  0  0  0
    8.4860  -17.6291   17.3891 C   0  0  0  0  0  0  0  0  0  0  0  0
    8.0722  -18.6802   16.8342 O   0  0  0  0  0  0  0  0  0  0  0  0
    8.1031  -16.7457   21.0451 C   0  0  0  0  0  0  0  0  0  0  0  0
    7.6282  -15.5819   21.0511 O   0  0  0  0  0  0  0  0  0  0  0  0
    9.5328  -16.9525   16.8008 O   0  0  0  0  0  0  0  0  0  0  0  0
    7.7781  -18.9230   24.7526 O   0  0  0  0  0  0  0  0  0  0  0  0
    6.7199  -18.2551   24.1363 C   0  0  0  0  0  0  0  0  0  0  0  0
    7.2707  -17.0652   23.4105 C   0  0  2  0  0  0  0  0  0  0  0  0
    7.9766  -17.5037   22.2328 N   0  0  0  0  0  0  0  0  0  0  0  0
    8.1182  -16.2004   24.2675 C   0  0  0  0  0  0  0  0  0  0  0  0
    9.3380  -16.2274   24.0518 O   0  0  0  0  0  0  0  0  0  0  0  0
    5.8770  -11.5970   26.4903 C   0  0  0  0  0  0  0  0  0  0  0  0
    6.9011  -12.5171   25.8327 C   0  0  0  0  0  0  0  0  0  0  0  0
    7.4926  -13.4596   26.8522 C   0  0  2  0  0  0  0  0  0  0  0  0
    8.4705  -12.6107   27.6690 C   0  0  0  0  0  0  0  0  0  0  0  0
    8.2639  -14.6022   26.2459 C   0  0  2  0  0  0  0  0  0  0  0  0
    7.5641  -15.3857   25.2800 N   0  0  0  0  0  0  0  0  0  0  0  0
    9.0207  -15.3597   27.2189 C   0  0  0  0  0  0  0  0  0  0  0  0
   10.2452  -15.0318   27.7565 O   0  0  0  0  0  0  0  0  0  0  0  0
    8.5324  -16.4626   27.6524 O   0  0  0  0  0  0  0  0  0  0  0  0
  2  1  1  1
  2  3  1  0
  3  4  1  0
  4  8  1  0
  4  5  2  0
  6 12  1  0
  6  2  1  0
  7  6  2  0
  9 10  1  0
 11 13  1  0
 11 10  1  1
 11 12  1  0
 13 20  1  0
 14 13  2  0
 16 15  1  0
 17 18  1  1
 17 16  1  0
 19 17  1  0
 19 20  1  1
 21 22  1  0
 21 19  1  0
 23 21  2  0
M  END
$$$$
