VGW.pdb
     RDKit          3D

 26 27  0  0  1  0  0  0  0  0999 V2000
    8.2930  -16.9448   18.8179 C   0  0  0  0  0  0  0  0  0  0  0  0
    7.2234  -17.5588   19.7255 C   0  0  1  0  0  0  0  0  0  0  0  0
    6.6046  -18.7690   19.0587 C   0  0  0  0  0  0  0  0  0  0  0  0
    7.9168  -18.0305   20.9822 C   0  0  2  0  0  0  0  0  0  0  0  0
    6.9612  -18.8060   21.7693 N   0  0  0  0  0  0  0  0  0  0  0  0
    8.4473  -16.9094   21.7773 C   0  0  0  0  0  0  0  0  0  0  0  0
    7.6521  -16.1791   22.4168 O   0  0  0  0  0  0  0  0  0  0  0  0
    9.8634  -16.7059   21.7810 N   0  0  0  0  0  0  0  0  0  0  0  0
   10.4386  -15.5783   22.4638 C   0  0  0  0  0  0  0  0  0  0  0  0
   10.4969  -15.6924   23.9207 C   0  0  0  0  0  0  0  0  0  0  0  0
   11.2684  -14.9033   24.5679 O   0  0  0  0  0  0  0  0  0  0  0  0
    9.7765  -16.6070   24.7260 N   0  0  0  0  0  0  0  0  0  0  0  0
    9.9016  -16.6409   26.1766 C   0  0  1  0  0  0  0  0  0  0  0  0
    8.5468  -16.7914   26.8380 C   0  0  0  0  0  0  0  0  0  0  0  0
    7.5982  -15.8248   26.2367 C   0  0  0  0  0  0  0  0  0  0  0  0
    6.5691  -16.1302   25.3482 C   0  0  0  0  0  0  0  0  0  0  0  0
    5.9202  -15.0089   25.0158 N   0  0  0  0  0  0  0  0  0  0  0  0
    6.4883  -13.9731   25.6569 C   0  0  0  0  0  0  0  0  0  0  0  0
    6.2229  -12.6193   25.6759 C   0  0  0  0  0  0  0  0  0  0  0  0
    6.9531  -11.7194   26.4247 C   0  0  0  0  0  0  0  0  0  0  0  0
    8.0011  -12.2120   27.1903 C   0  0  0  0  0  0  0  0  0  0  0  0
    8.2824  -13.5642   27.1843 C   0  0  0  0  0  0  0  0  0  0  0  0
    7.5477  -14.4563   26.4332 C   0  0  0  0  0  0  0  0  0  0  0  0
   10.8050  -17.7597   26.5265 C   0  0  0  0  0  0  0  0  0  0  0  0
   11.2521  -17.9140   27.8315 O   0  0  0  0  0  0  0  0  0  0  0  0
   11.1982  -18.6001   25.6779 O   0  0  0  0  0  0  0  0  0  0  0  0
  2  3  1  6
  2  1  1  0
  4  6  1  0
  4  2  1  0
  4  5  1  1
  6  8  1  0
  6  7  2  0
  8  9  1  0
 10 11  2  0
 10  9  1  0
 12 10  1  0
 13 14  1  1
 13 12  1  0
 14 15  1  0
 15 16  2  0
 16 17  1  0
 18 17  1  0
 19 18  2  0
 20 19  1  0
 21 22  1  0
 21 20  2  0
 22 23  2  0
 23 15  1  0
 23 18  1  0
 24 13  1  0
 25 24  1  0
 26 24  2  0
M  END
$$$$
