VGW.pdb
     RDKit          3D

 26 27  0  0  1  0  0  0  0  0999 V2000
   54.6493  -51.6679  -33.8189 C   0  0  0  0  0  0  0  0  0  0  0  0
   53.8456  -51.3220  -32.5622 C   0  0  1  0  0  0  0  0  0  0  0  0
   54.6296  -50.3670  -31.6873 C   0  0  0  0  0  0  0  0  0  0  0  0
   52.5917  -50.6093  -33.0124 C   0  0  2  0  0  0  0  0  0  0  0  0
   52.7834  -49.1749  -32.8130 N   0  0  0  0  0  0  0  0  0  0  0  0
   51.3980  -51.0742  -32.2849 C   0  0  0  0  0  0  0  0  0  0  0  0
   51.1374  -52.3013  -32.2521 O   0  0  0  0  0  0  0  0  0  0  0  0
   50.5830  -50.0893  -31.6425 N   0  0  0  0  0  0  0  0  0  0  0  0
   51.1730  -49.1005  -30.7808 C   0  0  0  0  0  0  0  0  0  0  0  0
   50.6875  -49.1033  -29.4012 C   0  0  0  0  0  0  0  0  0  0  0  0
   50.4912  -50.2269  -28.8217 O   0  0  0  0  0  0  0  0  0  0  0  0
   50.3970  -47.9691  -28.6056 N   0  0  0  0  0  0  0  0  0  0  0  0
   49.3335  -47.9616  -27.6105 C   0  0  1  0  0  0  0  0  0  0  0  0
   49.3620  -49.2230  -26.7716 C   0  0  0  0  0  0  0  0  0  0  0  0
   48.0145  -49.8394  -26.7682 C   0  0  0  0  0  0  0  0  0  0  0  0
   47.0962  -49.7977  -25.7210 C   0  0  0  0  0  0  0  0  0  0  0  0
   45.9896  -50.4617  -26.0723 N   0  0  0  0  0  0  0  0  0  0  0  0
   46.1483  -50.9402  -27.3182 C   0  0  0  0  0  0  0  0  0  0  0  0
   45.3362  -51.6822  -28.1510 C   0  0  0  0  0  0  0  0  0  0  0  0
   45.7135  -52.0709  -29.4200 C   0  0  0  0  0  0  0  0  0  0  0  0
   46.9714  -51.6912  -29.8677 C   0  0  0  0  0  0  0  0  0  0  0  0
   47.7989  -50.9482  -29.0487 C   0  0  0  0  0  0  0  0  0  0  0  0
   47.4140  -50.5641  -27.7822 C   0  0  0  0  0  0  0  0  0  0  0  0
   49.5023  -46.7502  -26.7773 C   0  0  0  0  0  0  0  0  0  0  0  0
   49.1101  -46.7585  -25.4460 O   0  0  0  0  0  0  0  0  0  0  0  0
   49.9968  -45.6854  -27.2274 O   0  0  0  0  0  0  0  0  0  0  0  0
  2  3  1  1
  2  1  1  0
  4  6  1  0
  4  2  1  0
  4  5  1  1
  6  8  1  0
  6  7  2  0
  8  9  1  0
 10 11  2  0
 10  9  1  0
 12 10  1  0
 13 14  1  1
 13 12  1  0
 14 15  1  0
 15 16  2  0
 16 17  1  0
 18 17  1  0
 19 18  2  0
 20 19  1  0
 21 22  1  0
 21 20  2  0
 22 23  2  0
 23 15  1  0
 23 18  1  0
 24 13  1  0
 25 24  1  0
 26 24  2  0
M  END
$$$$
