VGW.pdb
     RDKit          3D

 26 27  0  0  1  0  0  0  0  0999 V2000
    6.8757  -12.9861   19.7322 C   0  0  0  0  0  0  0  0  0  0  0  0
    8.0338  -13.5494   20.5605 C   0  0  1  0  0  0  0  0  0  0  0  0
    7.6193  -13.6898   22.0100 C   0  0  0  0  0  0  0  0  0  0  0  0
    8.3336  -14.9327   20.0319 C   0  0  2  0  0  0  0  0  0  0  0  0
    7.1468  -15.7629   20.2219 N   0  0  0  0  0  0  0  0  0  0  0  0
    9.4981  -15.5409   20.6985 C   0  0  0  0  0  0  0  0  0  0  0  0
   10.6254  -15.0025   20.5789 O   0  0  0  0  0  0  0  0  0  0  0  0
    9.2831  -16.7325   21.4605 N   0  0  0  0  0  0  0  0  0  0  0  0
   10.3974  -17.4977   21.9517 C   0  0  0  0  0  0  0  0  0  0  0  0
   10.6180  -17.4254   23.3958 C   0  0  0  0  0  0  0  0  0  0  0  0
   11.6266  -18.0347   23.8939 O   0  0  0  0  0  0  0  0  0  0  0  0
    9.8170  -16.7384   24.3393 N   0  0  0  0  0  0  0  0  0  0  0  0
   10.2389  -16.5240   25.7167 C   0  0  1  0  0  0  0  0  0  0  0  0
    9.9363  -15.1091   26.1664 C   0  0  0  0  0  0  0  0  0  0  0  0
    8.4823  -14.8543   26.0364 C   0  0  0  0  0  0  0  0  0  0  0  0
    7.5012  -15.8114   25.7853 C   0  0  0  0  0  0  0  0  0  0  0  0
    6.3035  -15.2184   25.7326 N   0  0  0  0  0  0  0  0  0  0  0  0
    6.4630  -13.9002   25.9411 C   0  0  0  0  0  0  0  0  0  0  0  0
    5.5786  -12.8424   25.9913 C   0  0  0  0  0  0  0  0  0  0  0  0
    5.9737  -11.5411   26.2242 C   0  0  0  0  0  0  0  0  0  0  0  0
    7.3270  -11.2982   26.4153 C   0  0  0  0  0  0  0  0  0  0  0  0
    8.2279  -12.3440   26.3686 C   0  0  0  0  0  0  0  0  0  0  0  0
    7.8246  -13.6412   26.1354 C   0  0  0  0  0  0  0  0  0  0  0  0
    9.5477  -17.5229   26.5620 C   0  0  0  0  0  0  0  0  0  0  0  0
    9.8947  -17.6665   27.8982 O   0  0  0  0  0  0  0  0  0  0  0  0
    8.6373  -18.2681   26.1182 O   0  0  0  0  0  0  0  0  0  0  0  0
  2  3  1  1
  2  1  1  0
  4  6  1  0
  4  2  1  0
  4  5  1  1
  6  8  1  0
  6  7  2  0
  8  9  1  0
 10 11  2  0
 10  9  1  0
 12 10  1  0
 13 14  1  1
 13 12  1  0
 14 15  1  0
 15 16  2  0
 16 17  1  0
 18 17  1  0
 19 18  2  0
 20 19  1  0
 21 22  1  0
 21 20  2  0
 22 23  2  0
 23 15  1  0
 23 18  1  0
 24 13  1  0
 25 24  1  0
 26 24  2  0
M  END
$$$$
