VGW.pdb
     RDKit          3D

 26 27  0  0  1  0  0  0  0  0999 V2000
    6.9022  -20.8491   18.8190 C   0  0  0  0  0  0  0  0  0  0  0  0
    7.5101  -19.4440   18.7860 C   0  0  1  0  0  0  0  0  0  0  0  0
    6.4535  -18.4265   18.4108 C   0  0  0  0  0  0  0  0  0  0  0  0
    7.9798  -19.1243   20.1860 C   0  0  2  0  0  0  0  0  0  0  0  0
    6.8573  -19.3166   21.1009 N   0  0  0  0  0  0  0  0  0  0  0  0
    8.5027  -17.7515   20.2957 C   0  0  0  0  0  0  0  0  0  0  0  0
    9.5899  -17.4616   19.7400 O   0  0  0  0  0  0  0  0  0  0  0  0
    7.7339  -16.8027   21.0412 N   0  0  0  0  0  0  0  0  0  0  0  0
    8.1959  -15.4500   21.1999 C   0  0  0  0  0  0  0  0  0  0  0  0
    8.9537  -15.1872   22.4229 C   0  0  0  0  0  0  0  0  0  0  0  0
    9.5171  -14.0470   22.5629 O   0  0  0  0  0  0  0  0  0  0  0  0
    9.1454  -16.0783   23.5059 N   0  0  0  0  0  0  0  0  0  0  0  0
   10.0057  -15.7622   24.6378 C   0  0  1  0  0  0  0  0  0  0  0  0
    9.2699  -15.9425   25.9499 C   0  0  0  0  0  0  0  0  0  0  0  0
    7.9761  -15.2226   25.8889 C   0  0  0  0  0  0  0  0  0  0  0  0
    6.7314  -15.7933   25.6306 C   0  0  0  0  0  0  0  0  0  0  0  0
    5.7918  -14.8418   25.6529 N   0  0  0  0  0  0  0  0  0  0  0  0
    6.3769  -13.6610   25.9179 C   0  0  0  0  0  0  0  0  0  0  0  0
    5.8871  -12.3783   26.0529 C   0  0  0  0  0  0  0  0  0  0  0  0
    6.6898  -11.2914   26.3323 C   0  0  0  0  0  0  0  0  0  0  0  0
    8.0521  -11.5123   26.4821 C   0  0  0  0  0  0  0  0  0  0  0  0
    8.5614  -12.7893   26.3504 C   0  0  0  0  0  0  0  0  0  0  0  0
    7.7523  -13.8696   26.0713 C   0  0  0  0  0  0  0  0  0  0  0  0
   11.1973  -16.6361   24.5579 C   0  0  0  0  0  0  0  0  0  0  0  0
   11.2996  -17.5869   23.5519 O   0  0  0  0  0  0  0  0  0  0  0  0
   12.1474  -16.5581   25.3778 O   0  0  0  0  0  0  0  0  0  0  0  0
  2  3  1  1
  2  1  1  0
  4  6  1  0
  4  2  1  0
  4  5  1  1
  6  8  1  0
  6  7  2  0
  8  9  1  0
 10 11  2  0
 10  9  1  0
 12 10  1  0
 13 14  1  1
 13 12  1  0
 14 15  1  0
 15 16  2  0
 16 17  1  0
 18 17  1  0
 19 18  2  0
 20 19  1  0
 21 22  1  0
 21 20  2  0
 22 23  2  0
 23 15  1  0
 23 18  1  0
 24 13  1  0
 25 24  1  0
 26 24  2  0
M  END
$$$$
