VGW.pdb
     RDKit          3D

 26 27  0  0  1  0  0  0  0  0999 V2000
    6.7103  -13.1166   18.9050 C   0  0  0  0  0  0  0  0  0  0  0  0
    8.1620  -13.4387   19.2704 C   0  0  1  0  0  0  0  0  0  0  0  0
    8.5765  -12.6583   20.4999 C   0  0  0  0  0  0  0  0  0  0  0  0
    8.2232  -14.9082   19.6163 C   0  0  2  0  0  0  0  0  0  0  0  0
    7.3433  -15.1473   20.7577 N   0  0  0  0  0  0  0  0  0  0  0  0
    9.5948  -15.3490   19.9238 C   0  0  0  0  0  0  0  0  0  0  0  0
   10.4115  -15.5160   18.9857 O   0  0  0  0  0  0  0  0  0  0  0  0
    9.9328  -15.5681   21.2966 N   0  0  0  0  0  0  0  0  0  0  0  0
   11.2024  -16.1409   21.6549 C   0  0  0  0  0  0  0  0  0  0  0  0
   11.2466  -16.7962   22.9617 C   0  0  0  0  0  0  0  0  0  0  0  0
   11.2128  -18.0742   23.0090 O   0  0  0  0  0  0  0  0  0  0  0  0
   11.3226  -16.1597   24.2238 N   0  0  0  0  0  0  0  0  0  0  0  0
   10.1464  -15.9005   25.0426 C   0  0  1  0  0  0  0  0  0  0  0  0
    9.0032  -15.3681   24.2029 C   0  0  0  0  0  0  0  0  0  0  0  0
    7.9065  -14.9231   25.0945 C   0  0  0  0  0  0  0  0  0  0  0  0
    6.9237  -15.7367   25.6549 C   0  0  0  0  0  0  0  0  0  0  0  0
    6.1020  -14.9921   26.4026 N   0  0  0  0  0  0  0  0  0  0  0  0
    6.5112  -13.7127   26.3536 C   0  0  0  0  0  0  0  0  0  0  0  0
    6.0371  -12.5513   26.9279 C   0  0  0  0  0  0  0  0  0  0  0  0
    6.6291  -11.3199   26.7352 C   0  0  0  0  0  0  0  0  0  0  0  0
    7.7535  -11.2606   25.9234 C   0  0  0  0  0  0  0  0  0  0  0  0
    8.2431  -12.4124   25.3393 C   0  0  0  0  0  0  0  0  0  0  0  0
    7.6455  -13.6386   25.5372 C   0  0  0  0  0  0  0  0  0  0  0  0
    9.7806  -17.1637   25.7212 C   0  0  0  0  0  0  0  0  0  0  0  0
   10.3516  -18.3631   25.3188 O   0  0  0  0  0  0  0  0  0  0  0  0
    8.9561  -17.2058   26.6696 O   0  0  0  0  0  0  0  0  0  0  0  0
  2  3  1  1
  2  1  1  0
  4  6  1  0
  4  2  1  0
  4  5  1  1
  6  8  1  0
  6  7  2  0
  8  9  1  0
 10 11  2  0
 10  9  1  0
 12 10  1  0
 13 14  1  6
 13 12  1  0
 14 15  1  0
 15 16  2  0
 16 17  1  0
 18 17  1  0
 19 18  2  0
 20 19  1  0
 21 22  1  0
 21 20  2  0
 22 23  2  0
 23 15  1  0
 23 18  1  0
 24 13  1  0
 25 24  1  0
 26 24  2  0
M  END
$$$$
