VGW.pdb
     RDKit          3D

 26 27  0  0  1  0  0  0  0  0999 V2000
    6.9170  -13.0768   18.3271 C   0  0  0  0  0  0  0  0  0  0  0  0
    8.1760  -13.3125   19.1663 C   0  0  1  0  0  0  0  0  0  0  0  0
    7.8039  -13.5205   20.6191 C   0  0  0  0  0  0  0  0  0  0  0  0
    8.8160  -14.5873   18.6684 C   0  0  2  0  0  0  0  0  0  0  0  0
    7.8452  -15.6705   18.8035 N   0  0  0  0  0  0  0  0  0  0  0  0
   10.0520  -14.9107   19.4020 C   0  0  0  0  0  0  0  0  0  0  0  0
   11.0618  -14.1798   19.2570 O   0  0  0  0  0  0  0  0  0  0  0  0
   10.0397  -16.0585   20.2558 N   0  0  0  0  0  0  0  0  0  0  0  0
   11.2092  -16.4217   21.0101 C   0  0  0  0  0  0  0  0  0  0  0  0
   11.1741  -16.0662   22.4284 C   0  0  0  0  0  0  0  0  0  0  0  0
   11.7310  -14.9767   22.8021 O   0  0  0  0  0  0  0  0  0  0  0  0
   10.5778  -16.8137   23.4721 N   0  0  0  0  0  0  0  0  0  0  0  0
    9.7000  -16.2102   24.4653 C   0  0  1  0  0  0  0  0  0  0  0  0
    8.5373  -15.4975   23.8052 C   0  0  0  0  0  0  0  0  0  0  0  0
    7.6306  -14.9674   24.8505 C   0  0  0  0  0  0  0  0  0  0  0  0
    6.6183  -15.6761   25.4945 C   0  0  0  0  0  0  0  0  0  0  0  0
    6.0065  -14.8774   26.3757 N   0  0  0  0  0  0  0  0  0  0  0  0
    6.5829  -13.6639   26.3338 C   0  0  0  0  0  0  0  0  0  0  0  0
    6.3505  -12.4885   27.0178 C   0  0  0  0  0  0  0  0  0  0  0  0
    7.0824  -11.3378   26.8078 C   0  0  0  0  0  0  0  0  0  0  0  0
    8.0971  -11.3779   25.8614 C   0  0  0  0  0  0  0  0  0  0  0  0
    8.3450  -12.5453   25.1662 C   0  0  0  0  0  0  0  0  0  0  0  0
    7.6090  -13.6904   25.3823 C   0  0  0  0  0  0  0  0  0  0  0  0
    9.2360  -17.2846   25.3711 C   0  0  0  0  0  0  0  0  0  0  0  0
    9.0150  -17.0176   26.7151 O   0  0  0  0  0  0  0  0  0  0  0  0
    9.0262  -18.4588   24.9732 O   0  0  0  0  0  0  0  0  0  0  0  0
  2  3  1  1
  2  1  1  0
  4  6  1  0
  4  2  1  0
  4  5  1  1
  6  8  1  0
  6  7  2  0
  8  9  1  0
 10 11  2  0
 10  9  1  0
 12 10  1  0
 13 14  1  6
 13 12  1  0
 14 15  1  0
 15 16  2  0
 16 17  1  0
 18 17  1  0
 19 18  2  0
 20 19  1  0
 21 22  1  0
 21 20  2  0
 22 23  2  0
 23 15  1  0
 23 18  1  0
 24 13  1  0
 25 24  1  0
 26 24  2  0
M  END
$$$$
