VGW.pdb
     RDKit          3D

 26 27  0  0  1  0  0  0  0  0999 V2000
    8.2021  -12.6155   17.0666 C   0  0  0  0  0  0  0  0  0  0  0  0
    7.7429  -13.6283   18.1193 C   0  0  1  0  0  0  0  0  0  0  0  0
    7.6749  -15.0150   17.5152 C   0  0  0  0  0  0  0  0  0  0  0  0
    8.7906  -13.6518   19.2077 C   0  0  2  0  0  0  0  0  0  0  0  0
   10.0302  -14.1753   18.6392 N   0  0  0  0  0  0  0  0  0  0  0  0
    8.3719  -14.4642   20.3631 C   0  0  0  0  0  0  0  0  0  0  0  0
    7.3689  -14.1128   21.0304 O   0  0  0  0  0  0  0  0  0  0  0  0
    9.1407  -15.6307   20.6717 N   0  0  0  0  0  0  0  0  0  0  0  0
    8.7328  -16.5172   21.7281 C   0  0  0  0  0  0  0  0  0  0  0  0
    9.0863  -16.0843   23.0797 C   0  0  0  0  0  0  0  0  0  0  0  0
    9.0461  -14.8353   23.3543 O   0  0  0  0  0  0  0  0  0  0  0  0
    9.4837  -16.9138   24.1556 N   0  0  0  0  0  0  0  0  0  0  0  0
    9.7873  -16.3881   25.4795 C   0  0  1  0  0  0  0  0  0  0  0  0
    8.6851  -16.7200   26.4647 C   0  0  0  0  0  0  0  0  0  0  0  0
    7.5902  -15.7313   26.3260 C   0  0  0  0  0  0  0  0  0  0  0  0
    6.2696  -16.0128   25.9815 C   0  0  0  0  0  0  0  0  0  0  0  0
    5.5652  -14.8763   25.9514 N   0  0  0  0  0  0  0  0  0  0  0  0
    6.3788  -13.8535   26.2650 C   0  0  0  0  0  0  0  0  0  0  0  0
    6.1780  -12.4933   26.3798 C   0  0  0  0  0  0  0  0  0  0  0  0
    7.1817  -11.6102   26.7213 C   0  0  0  0  0  0  0  0  0  0  0  0
    8.4481  -12.1272   26.9577 C   0  0  0  0  0  0  0  0  0  0  0  0
    8.6690  -13.4861   26.8476 C   0  0  0  0  0  0  0  0  0  0  0  0
    7.6605  -14.3614   26.5061 C   0  0  0  0  0  0  0  0  0  0  0  0
   11.0860  -16.9562   25.9047 C   0  0  0  0  0  0  0  0  0  0  0  0
   11.7082  -16.4914   27.0551 O   0  0  0  0  0  0  0  0  0  0  0  0
   11.6697  -17.8632   25.2584 O   0  0  0  0  0  0  0  0  0  0  0  0
  2  3  1  6
  2  1  1  0
  4  6  1  0
  4  2  1  0
  4  5  1  6
  6  8  1  0
  6  7  2  0
  8  9  1  0
 10 11  2  0
 10  9  1  0
 12 10  1  0
 13 14  1  1
 13 12  1  0
 14 15  1  0
 15 16  2  0
 16 17  1  0
 18 17  1  0
 19 18  2  0
 20 19  1  0
 21 22  1  0
 21 20  2  0
 22 23  2  0
 23 15  1  0
 23 18  1  0
 24 13  1  0
 25 24  1  0
 26 24  2  0
M  END
$$$$
