VGW.pdb
     RDKit          3D

 26 27  0  0  1  0  0  0  0  0999 V2000
    6.7319  -12.8645   20.1849 C   0  0  0  0  0  0  0  0  0  0  0  0
    7.9571  -13.2621   21.0129 C   0  0  1  0  0  0  0  0  0  0  0  0
    7.5738  -13.4230   22.4688 C   0  0  0  0  0  0  0  0  0  0  0  0
    8.4230  -14.6080   20.5086 C   0  0  2  0  0  0  0  0  0  0  0  0
    7.3164  -15.5531   20.6361 N   0  0  0  0  0  0  0  0  0  0  0  0
    9.6034  -15.0969   21.2421 C   0  0  0  0  0  0  0  0  0  0  0  0
   10.6865  -14.4697   21.1515 O   0  0  0  0  0  0  0  0  0  0  0  0
    9.4542  -16.2797   22.0331 N   0  0  0  0  0  0  0  0  0  0  0  0
   10.6087  -17.0147   22.4748 C   0  0  0  0  0  0  0  0  0  0  0  0
   10.8309  -17.0210   23.9205 C   0  0  0  0  0  0  0  0  0  0  0  0
   11.8884  -17.5781   24.3766 O   0  0  0  0  0  0  0  0  0  0  0  0
    9.9822  -16.4657   24.9080 N   0  0  0  0  0  0  0  0  0  0  0  0
   10.2951  -16.5182   26.3294 C   0  0  1  0  0  0  0  0  0  0  0  0
    9.6276  -15.3823   27.0777 C   0  0  0  0  0  0  0  0  0  0  0  0
    8.3012  -15.1116   26.4751 C   0  0  0  0  0  0  0  0  0  0  0  0
    7.3847  -16.0693   26.0454 C   0  0  0  0  0  0  0  0  0  0  0  0
    6.2997  -15.4594   25.5559 N   0  0  0  0  0  0  0  0  0  0  0  0
    6.4709  -14.1295   25.6489 C   0  0  0  0  0  0  0  0  0  0  0  0
    5.6816  -13.0532   25.2995 C   0  0  0  0  0  0  0  0  0  0  0  0
    6.0682  -11.7425   25.4905 C   0  0  0  0  0  0  0  0  0  0  0  0
    7.3117  -11.5096   26.0618 C   0  0  0  0  0  0  0  0  0  0  0  0
    8.1164  -12.5740   26.4183 C   0  0  0  0  0  0  0  0  0  0  0  0
    7.7223  -13.8804   26.2239 C   0  0  0  0  0  0  0  0  0  0  0  0
    9.8584  -17.8368   26.8401 C   0  0  0  0  0  0  0  0  0  0  0  0
   10.2256  -18.2485   28.1138 O   0  0  0  0  0  0  0  0  0  0  0  0
    9.1524  -18.6238   26.1596 O   0  0  0  0  0  0  0  0  0  0  0  0
  2  3  1  1
  2  1  1  0
  4  6  1  0
  4  2  1  0
  4  5  1  1
  6  8  1  0
  6  7  2  0
  8  9  1  0
 10 11  2  0
 10  9  1  0
 12 10  1  0
 13 14  1  1
 13 12  1  0
 14 15  1  0
 15 16  2  0
 16 17  1  0
 18 17  1  0
 19 18  2  0
 20 19  1  0
 21 22  1  0
 21 20  2  0
 22 23  2  0
 23 15  1  0
 23 18  1  0
 24 13  1  0
 25 24  1  0
 26 24  2  0
M  END
$$$$
