VGW.pdb
     RDKit          3D

 26 27  0  0  1  0  0  0  0  0999 V2000
    6.2188  -14.0728   20.7715 C   0  0  0  0  0  0  0  0  0  0  0  0
    7.6513  -14.1446   21.3079 C   0  0  1  0  0  0  0  0  0  0  0  0
    7.6551  -13.9717   22.8120 C   0  0  0  0  0  0  0  0  0  0  0  0
    8.1768  -15.5279   21.0027 C   0  0  2  0  0  0  0  0  0  0  0  0
    7.2765  -16.5045   21.6108 N   0  0  0  0  0  0  0  0  0  0  0  0
    9.5518  -15.7201   21.4954 C   0  0  0  0  0  0  0  0  0  0  0  0
   10.4740  -15.0013   21.0398 O   0  0  0  0  0  0  0  0  0  0  0  0
    9.7708  -16.7314   22.4834 N   0  0  0  0  0  0  0  0  0  0  0  0
   11.0977  -17.0106   22.9628 C   0  0  0  0  0  0  0  0  0  0  0  0
   11.2771  -16.8960   24.4098 C   0  0  0  0  0  0  0  0  0  0  0  0
   12.4316  -17.1360   24.9061 O   0  0  0  0  0  0  0  0  0  0  0  0
   10.2880  -16.5409   25.3582 N   0  0  0  0  0  0  0  0  0  0  0  0
   10.5487  -16.5182   26.7909 C   0  0  1  0  0  0  0  0  0  0  0  0
    9.8266  -15.3658   27.4590 C   0  0  0  0  0  0  0  0  0  0  0  0
    8.5406  -15.1245   26.7636 C   0  0  0  0  0  0  0  0  0  0  0  0
    7.7440  -16.0915   26.1536 C   0  0  0  0  0  0  0  0  0  0  0  0
    6.6609  -15.5094   25.6276 N   0  0  0  0  0  0  0  0  0  0  0  0
    6.7171  -14.1887   25.8711 C   0  0  0  0  0  0  0  0  0  0  0  0
    5.8784  -13.1386   25.5594 C   0  0  0  0  0  0  0  0  0  0  0  0
    6.1416  -11.8326   25.9184 C   0  0  0  0  0  0  0  0  0  0  0  0
    7.3081  -11.5768   26.6261 C   0  0  0  0  0  0  0  0  0  0  0  0
    8.1605  -12.6148   26.9475 C   0  0  0  0  0  0  0  0  0  0  0  0
    7.8899  -13.9167   26.5849 C   0  0  0  0  0  0  0  0  0  0  0  0
   10.1248  -17.8220   27.3483 C   0  0  0  0  0  0  0  0  0  0  0  0
    9.5480  -18.7789   26.5249 O   0  0  0  0  0  0  0  0  0  0  0  0
   10.2650  -18.1139   28.5633 O   0  0  0  0  0  0  0  0  0  0  0  0
  2  3  1  1
  2  1  1  0
  4  6  1  0
  4  2  1  0
  4  5  1  1
  6  8  1  0
  6  7  2  0
  8  9  1  0
 10 11  2  0
 10  9  1  0
 12 10  1  0
 13 14  1  1
 13 12  1  0
 14 15  1  0
 15 16  2  0
 16 17  1  0
 18 17  1  0
 19 18  2  0
 20 19  1  0
 21 22  1  0
 21 20  2  0
 22 23  2  0
 23 15  1  0
 23 18  1  0
 24 13  1  0
 25 24  1  0
 26 24  2  0
M  END
$$$$
