VGW.pdb
     RDKit          3D

 26 27  0  0  1  0  0  0  0  0999 V2000
    5.8428  -14.8932   20.3507 C   0  0  0  0  0  0  0  0  0  0  0  0
    7.1556  -14.6455   21.0990 C   0  0  1  0  0  0  0  0  0  0  0  0
    6.9444  -14.8021   22.5900 C   0  0  0  0  0  0  0  0  0  0  0  0
    8.1322  -15.7108   20.6584 C   0  0  2  0  0  0  0  0  0  0  0  0
    7.5664  -17.0163   20.9898 N   0  0  0  0  0  0  0  0  0  0  0  0
    9.4530  -15.5479   21.2902 C   0  0  0  0  0  0  0  0  0  0  0  0
   10.1137  -14.5035   21.0727 O   0  0  0  0  0  0  0  0  0  0  0  0
    9.9239  -16.6039   22.1328 N   0  0  0  0  0  0  0  0  0  0  0  0
   11.1753  -16.4801   22.8307 C   0  0  0  0  0  0  0  0  0  0  0  0
   11.0848  -16.5231   24.2899 C   0  0  0  0  0  0  0  0  0  0  0  0
   12.1270  -16.2453   24.9780 O   0  0  0  0  0  0  0  0  0  0  0  0
    9.9401  -16.8497   25.0560 N   0  0  0  0  0  0  0  0  0  0  0  0
    9.9266  -16.7850   26.5109 C   0  0  1  0  0  0  0  0  0  0  0  0
    8.5240  -16.9717   27.0526 C   0  0  0  0  0  0  0  0  0  0  0  0
    7.6151  -15.9969   26.4050 C   0  0  0  0  0  0  0  0  0  0  0  0
    6.5898  -16.2999   25.5113 C   0  0  0  0  0  0  0  0  0  0  0  0
    5.9814  -15.1709   25.1319 N   0  0  0  0  0  0  0  0  0  0  0  0
    6.5725  -14.1322   25.7469 C   0  0  0  0  0  0  0  0  0  0  0  0
    6.3497  -12.7710   25.7169 C   0  0  0  0  0  0  0  0  0  0  0  0
    7.0971  -11.8694   26.4466 C   0  0  0  0  0  0  0  0  0  0  0  0
    8.1179  -12.3682   27.2442 C   0  0  0  0  0  0  0  0  0  0  0  0
    8.3565  -13.7279   27.2874 C   0  0  0  0  0  0  0  0  0  0  0  0
    7.6049  -14.6216   26.5552 C   0  0  0  0  0  0  0  0  0  0  0  0
   10.8486  -17.8253   27.0184 C   0  0  0  0  0  0  0  0  0  0  0  0
   11.5459  -17.6233   28.2014 O   0  0  0  0  0  0  0  0  0  0  0  0
   11.0369  -18.9124   26.4152 O   0  0  0  0  0  0  0  0  0  0  0  0
  2  3  1  1
  2  1  1  0
  4  6  1  0
  4  2  1  0
  4  5  1  1
  6  8  1  0
  6  7  2  0
  8  9  1  0
 10 11  2  0
 10  9  1  0
 12 10  1  0
 13 14  1  1
 13 12  1  0
 14 15  1  0
 15 16  2  0
 16 17  1  0
 18 17  1  0
 19 18  2  0
 20 19  1  0
 21 22  1  0
 21 20  2  0
 22 23  2  0
 23 15  1  0
 23 18  1  0
 24 13  1  0
 25 24  1  0
 26 24  2  0
M  END
$$$$
