VGW.pdb
     RDKit          3D

 26 27  0  0  1  0  0  0  0  0999 V2000
    6.6403  -20.7745   19.1360 C   0  0  0  0  0  0  0  0  0  0  0  0
    7.0936  -19.3119   19.1189 C   0  0  1  0  0  0  0  0  0  0  0  0
    5.9065  -18.3949   19.3244 C   0  0  0  0  0  0  0  0  0  0  0  0
    8.0319  -19.1183   20.2871 C   0  0  2  0  0  0  0  0  0  0  0  0
    7.3173  -19.4695   21.5118 N   0  0  0  0  0  0  0  0  0  0  0  0
    8.5408  -17.7381   20.3669 C   0  0  0  0  0  0  0  0  0  0  0  0
    9.4639  -17.3779   19.5968 O   0  0  0  0  0  0  0  0  0  0  0  0
    7.9488  -16.8639   21.3324 N   0  0  0  0  0  0  0  0  0  0  0  0
    8.4382  -15.5222   21.5016 C   0  0  0  0  0  0  0  0  0  0  0  0
    9.1710  -15.2755   22.7431 C   0  0  0  0  0  0  0  0  0  0  0  0
    9.8021  -14.1703   22.8742 O   0  0  0  0  0  0  0  0  0  0  0  0
    9.2690  -16.1476   23.8538 N   0  0  0  0  0  0  0  0  0  0  0  0
   10.1518  -15.8837   24.9816 C   0  0  1  0  0  0  0  0  0  0  0  0
    9.3809  -15.8660   26.2859 C   0  0  0  0  0  0  0  0  0  0  0  0
    8.0691  -15.2114   26.0706 C   0  0  0  0  0  0  0  0  0  0  0  0
    6.8811  -15.8505   25.7214 C   0  0  0  0  0  0  0  0  0  0  0  0
    5.9034  -14.9445   25.6122 N   0  0  0  0  0  0  0  0  0  0  0  0
    6.4083  -13.7276   25.8784 C   0  0  0  0  0  0  0  0  0  0  0  0
    5.8525  -12.4652   25.9091 C   0  0  0  0  0  0  0  0  0  0  0  0
    6.5765  -11.3310   26.2145 C   0  0  0  0  0  0  0  0  0  0  0  0
    7.9263  -11.4808   26.5023 C   0  0  0  0  0  0  0  0  0  0  0  0
    8.5009  -12.7365   26.4765 C   0  0  0  0  0  0  0  0  0  0  0  0
    7.7702  -13.8643   26.1705 C   0  0  0  0  0  0  0  0  0  0  0  0
   11.2038  -16.9246   24.9857 C   0  0  0  0  0  0  0  0  0  0  0  0
   11.1723  -17.9526   24.0536 O   0  0  0  0  0  0  0  0  0  0  0  0
   12.1502  -16.9241   25.8135 O   0  0  0  0  0  0  0  0  0  0  0  0
  2  3  1  1
  2  1  1  0
  4  6  1  0
  4  2  1  0
  4  5  1  1
  6  8  1  0
  6  7  2  0
  8  9  1  0
 10 11  2  0
 10  9  1  0
 12 10  1  0
 13 14  1  1
 13 12  1  0
 14 15  1  0
 15 16  2  0
 16 17  1  0
 18 17  1  0
 19 18  2  0
 20 19  1  0
 21 22  1  0
 21 20  2  0
 22 23  2  0
 23 15  1  0
 23 18  1  0
 24 13  1  0
 25 24  1  0
 26 24  2  0
M  END
$$$$
