VGW.pdb
     RDKit          3D

 26 27  0  0  1  0  0  0  0  0999 V2000
    8.8374  -18.1040   17.8029 C   0  0  0  0  0  0  0  0  0  0  0  0
    7.5813  -18.3018   18.6560 C   0  0  1  0  0  0  0  0  0  0  0  0
    6.9311  -19.6293   18.3282 C   0  0  0  0  0  0  0  0  0  0  0  0
    8.0217  -18.3497   20.1004 C   0  0  2  0  0  0  0  0  0  0  0  0
    6.8532  -18.6449   20.9261 N   0  0  0  0  0  0  0  0  0  0  0  0
    8.6497  -17.0886   20.5310 C   0  0  0  0  0  0  0  0  0  0  0  0
    9.8828  -16.9274   20.3633 O   0  0  0  0  0  0  0  0  0  0  0  0
    7.8103  -16.0954   21.1276 N   0  0  0  0  0  0  0  0  0  0  0  0
    8.3493  -14.8202   21.5172 C   0  0  0  0  0  0  0  0  0  0  0  0
    9.1497  -14.8269   22.7413 C   0  0  0  0  0  0  0  0  0  0  0  0
    9.8971  -13.8191   22.9915 O   0  0  0  0  0  0  0  0  0  0  0  0
    9.1976  -15.8544   23.7137 N   0  0  0  0  0  0  0  0  0  0  0  0
   10.1486  -15.8456   24.8167 C   0  0  1  0  0  0  0  0  0  0  0  0
    9.4349  -15.8609   26.1531 C   0  0  0  0  0  0  0  0  0  0  0  0
    8.0834  -15.2748   25.9933 C   0  0  0  0  0  0  0  0  0  0  0  0
    6.9315  -15.9609   25.6136 C   0  0  0  0  0  0  0  0  0  0  0  0
    5.8997  -15.1109   25.5732 N   0  0  0  0  0  0  0  0  0  0  0  0
    6.3339  -13.8855   25.9142 C   0  0  0  0  0  0  0  0  0  0  0  0
    5.7036  -12.6639   26.0330 C   0  0  0  0  0  0  0  0  0  0  0  0
    6.3620  -11.5100   26.4057 C   0  0  0  0  0  0  0  0  0  0  0  0
    7.7220  -11.5958   26.6707 C   0  0  0  0  0  0  0  0  0  0  0  0
    8.3707  -12.8098   26.5572 C   0  0  0  0  0  0  0  0  0  0  0  0
    7.7052  -13.9577   26.1843 C   0  0  0  0  0  0  0  0  0  0  0  0
   11.0342  -17.0208   24.6595 C   0  0  0  0  0  0  0  0  0  0  0  0
   12.1377  -17.1789   25.4865 O   0  0  0  0  0  0  0  0  0  0  0  0
   10.8314  -17.9071   23.7910 O   0  0  0  0  0  0  0  0  0  0  0  0
  2  3  1  6
  2  1  1  0
  4  6  1  0
  4  2  1  0
  4  5  1  1
  6  8  1  0
  6  7  2  0
  8  9  1  0
 10 11  2  0
 10  9  1  0
 12 10  1  0
 13 14  1  1
 13 12  1  0
 14 15  1  0
 15 16  2  0
 16 17  1  0
 18 17  1  0
 19 18  2  0
 20 19  1  0
 21 22  1  0
 21 20  2  0
 22 23  2  0
 23 15  1  0
 23 18  1  0
 24 13  1  0
 25 24  1  0
 26 24  2  0
M  END
$$$$
