VGW.pdb
     RDKit          3D

 26 27  0  0  1  0  0  0  0  0999 V2000
    5.9823  -14.7355   20.3803 C   0  0  0  0  0  0  0  0  0  0  0  0
    7.4700  -14.6213   20.7246 C   0  0  1  0  0  0  0  0  0  0  0  0
    7.6591  -13.7311   21.9346 C   0  0  0  0  0  0  0  0  0  0  0  0
    7.9542  -16.0047   21.0913 C   0  0  2  0  0  0  0  0  0  0  0  0
    7.1038  -16.5189   22.1620 N   0  0  0  0  0  0  0  0  0  0  0  0
    9.3661  -16.0049   21.5116 C   0  0  0  0  0  0  0  0  0  0  0  0
   10.2632  -15.8258   20.6525 O   0  0  0  0  0  0  0  0  0  0  0  0
    9.6489  -16.2123   22.8987 N   0  0  0  0  0  0  0  0  0  0  0  0
   11.0035  -16.1848   23.3811 C   0  0  0  0  0  0  0  0  0  0  0  0
   11.1566  -16.3548   24.8257 C   0  0  0  0  0  0  0  0  0  0  0  0
   12.3315  -16.3007   25.3291 O   0  0  0  0  0  0  0  0  0  0  0  0
   10.1214  -16.5825   25.7640 N   0  0  0  0  0  0  0  0  0  0  0  0
   10.3668  -16.6630   27.1973 C   0  0  1  0  0  0  0  0  0  0  0  0
    9.1602  -16.1945   27.9849 C   0  0  0  0  0  0  0  0  0  0  0  0
    8.1453  -15.6536   27.0505 C   0  0  0  0  0  0  0  0  0  0  0  0
    7.2766  -16.4030   26.2596 C   0  0  0  0  0  0  0  0  0  0  0  0
    6.5036  -15.5794   25.5434 N   0  0  0  0  0  0  0  0  0  0  0  0
    6.8343  -14.3101   25.8366 C   0  0  0  0  0  0  0  0  0  0  0  0
    6.3647  -13.0902   25.3953 C   0  0  0  0  0  0  0  0  0  0  0  0
    6.8639  -11.8844   25.8433 C   0  0  0  0  0  0  0  0  0  0  0  0
    7.8864  -11.9140   26.7817 C   0  0  0  0  0  0  0  0  0  0  0  0
    8.3700  -13.1254   27.2357 C   0  0  0  0  0  0  0  0  0  0  0  0
    7.8654  -14.3254   26.7829 C   0  0  0  0  0  0  0  0  0  0  0  0
   10.7151  -18.0650   27.5185 C   0  0  0  0  0  0  0  0  0  0  0  0
   11.1654  -18.3991   28.7882 O   0  0  0  0  0  0  0  0  0  0  0  0
   10.6209  -18.9936   26.6759 O   0  0  0  0  0  0  0  0  0  0  0  0
  2  3  1  1
  2  1  1  0
  4  6  1  0
  4  2  1  0
  4  5  1  1
  6  8  1  0
  6  7  2  0
  8  9  1  0
 10 11  2  0
 10  9  1  0
 12 10  1  0
 13 14  1  1
 13 12  1  0
 14 15  1  0
 15 16  2  0
 16 17  1  0
 18 17  1  0
 19 18  2  0
 20 19  1  0
 21 22  1  0
 21 20  2  0
 22 23  2  0
 23 15  1  0
 23 18  1  0
 24 13  1  0
 25 24  1  0
 26 24  2  0
M  END
$$$$
