VGW.pdb
     RDKit          3D

 26 27  0  0  1  0  0  0  0  0999 V2000
    7.1488  -21.0244   18.8535 C   0  0  0  0  0  0  0  0  0  0  0  0
    7.5338  -19.5429   18.8151 C   0  0  1  0  0  0  0  0  0  0  0  0
    6.2905  -18.6820   18.7403 C   0  0  0  0  0  0  0  0  0  0  0  0
    8.2346  -19.2264   20.1157 C   0  0  2  0  0  0  0  0  0  0  0  0
    7.3309  -19.5562   21.2151 N   0  0  0  0  0  0  0  0  0  0  0  0
    8.6460  -17.8141   20.1947 C   0  0  0  0  0  0  0  0  0  0  0  0
    9.6840  -17.4418   19.5958 O   0  0  0  0  0  0  0  0  0  0  0  0
    7.8298  -16.9238   20.9616 N   0  0  0  0  0  0  0  0  0  0  0  0
    8.2039  -15.5445   21.1231 C   0  0  0  0  0  0  0  0  0  0  0  0
    8.9242  -15.2320   22.3570 C   0  0  0  0  0  0  0  0  0  0  0  0
    9.4270  -14.0637   22.4952 O   0  0  0  0  0  0  0  0  0  0  0  0
    9.1396  -16.1018   23.4529 N   0  0  0  0  0  0  0  0  0  0  0  0
   10.0088  -15.7554   24.5689 C   0  0  1  0  0  0  0  0  0  0  0  0
    9.3101  -15.9784   25.8947 C   0  0  0  0  0  0  0  0  0  0  0  0
    7.9837  -15.3184   25.8664 C   0  0  0  0  0  0  0  0  0  0  0  0
    6.7710  -15.9278   25.5506 C   0  0  0  0  0  0  0  0  0  0  0  0
    5.7862  -15.0261   25.6269 N   0  0  0  0  0  0  0  0  0  0  0  0
    6.3104  -13.8408   25.9831 C   0  0  0  0  0  0  0  0  0  0  0  0
    5.7575  -12.5958   26.2017 C   0  0  0  0  0  0  0  0  0  0  0  0
    6.5035  -11.4946   26.5687 C   0  0  0  0  0  0  0  0  0  0  0  0
    7.8731  -11.6605   26.7219 C   0  0  0  0  0  0  0  0  0  0  0  0
    8.4453  -12.8992   26.5074 C   0  0  0  0  0  0  0  0  0  0  0  0
    7.6925  -13.9941   26.1410 C   0  0  0  0  0  0  0  0  0  0  0  0
   11.2366  -16.5740   24.4568 C   0  0  0  0  0  0  0  0  0  0  0  0
   12.3139  -16.3356   25.2988 O   0  0  0  0  0  0  0  0  0  0  0  0
   11.3557  -17.4996   23.6141 O   0  0  0  0  0  0  0  0  0  0  0  0
  2  3  1  1
  2  1  1  0
  4  6  1  0
  4  2  1  0
  4  5  1  1
  6  8  1  0
  6  7  2  0
  8  9  1  0
 10 11  2  0
 10  9  1  0
 12 10  1  0
 13 14  1  1
 13 12  1  0
 14 15  1  0
 15 16  2  0
 16 17  1  0
 18 17  1  0
 19 18  2  0
 20 19  1  0
 21 22  1  0
 21 20  2  0
 22 23  2  0
 23 15  1  0
 23 18  1  0
 24 13  1  0
 25 24  1  0
 26 24  2  0
M  END
$$$$
