VGW.pdb
     RDKit          3D

 26 27  0  0  1  0  0  0  0  0999 V2000
    4.0906  -18.3379   20.4617 C   0  0  0  0  0  0  0  0  0  0  0  0
    5.2111  -17.2970   20.3848 C   0  0  1  0  0  0  0  0  0  0  0  0
    5.1029  -16.3267   21.5421 C   0  0  0  0  0  0  0  0  0  0  0  0
    6.5216  -18.0358   20.5252 C   0  0  2  0  0  0  0  0  0  0  0  0
    6.4604  -18.8512   21.7357 N   0  0  0  0  0  0  0  0  0  0  0  0
    7.6725  -17.1179   20.5816 C   0  0  0  0  0  0  0  0  0  0  0  0
    8.0409  -16.5292   19.5364 O   0  0  0  0  0  0  0  0  0  0  0  0
    8.3227  -16.9405   21.8436 N   0  0  0  0  0  0  0  0  0  0  0  0
    9.4033  -16.0021   21.9842 C   0  0  0  0  0  0  0  0  0  0  0  0
    9.9816  -15.9100   23.3245 C   0  0  0  0  0  0  0  0  0  0  0  0
   10.9925  -15.1471   23.5058 O   0  0  0  0  0  0  0  0  0  0  0  0
    9.5397  -16.5915   24.4838 N   0  0  0  0  0  0  0  0  0  0  0  0
   10.1444  -16.3847   25.7925 C   0  0  1  0  0  0  0  0  0  0  0  0
    9.0962  -16.3976   26.8864 C   0  0  0  0  0  0  0  0  0  0  0  0
    7.9431  -15.5654   26.4697 C   0  0  0  0  0  0  0  0  0  0  0  0
    6.7517  -16.0321   25.9180 C   0  0  0  0  0  0  0  0  0  0  0  0
    5.9424  -14.9977   25.6655 N   0  0  0  0  0  0  0  0  0  0  0  0
    6.5618  -13.8629   26.0331 C   0  0  0  0  0  0  0  0  0  0  0  0
    6.1913  -12.5345   25.9946 C   0  0  0  0  0  0  0  0  0  0  0  0
    7.0065  -11.5123   26.4354 C   0  0  0  0  0  0  0  0  0  0  0  0
    8.2553  -11.8497   26.9390 C   0  0  0  0  0  0  0  0  0  0  0  0
    8.6444  -13.1741   26.9857 C   0  0  0  0  0  0  0  0  0  0  0  0
    7.8237  -14.1891   26.5432 C   0  0  0  0  0  0  0  0  0  0  0  0
   11.1560  -17.4456   25.9960 C   0  0  0  0  0  0  0  0  0  0  0  0
   11.9809  -17.4188   27.1119 O   0  0  0  0  0  0  0  0  0  0  0  0
   11.3095  -18.3956   25.1867 O   0  0  0  0  0  0  0  0  0  0  0  0
  2  3  1  1
  2  1  1  0
  4  6  1  0
  4  2  1  0
  4  5  1  1
  6  8  1  0
  6  7  2  0
  8  9  1  0
 10 11  2  0
 10  9  1  0
 12 10  1  0
 13 14  1  1
 13 12  1  0
 14 15  1  0
 15 16  2  0
 16 17  1  0
 18 17  1  0
 19 18  2  0
 20 19  1  0
 21 22  1  0
 21 20  2  0
 22 23  2  0
 23 15  1  0
 23 18  1  0
 24 13  1  0
 25 24  1  0
 26 24  2  0
M  END
$$$$
