VGW.pdb
     RDKit          3D

 26 27  0  0  1  0  0  0  0  0999 V2000
    6.3521  -16.2487   19.6068 C   0  0  0  0  0  0  0  0  0  0  0  0
    7.5033  -15.6097   20.3884 C   0  0  1  0  0  0  0  0  0  0  0  0
    7.0980  -14.2392   20.8881 C   0  0  0  0  0  0  0  0  0  0  0  0
    7.7652  -16.4802   21.5953 C   0  0  2  0  0  0  0  0  0  0  0  0
    6.5008  -16.6798   22.2992 N   0  0  0  0  0  0  0  0  0  0  0  0
    8.7682  -15.8896   22.4981 C   0  0  0  0  0  0  0  0  0  0  0  0
    8.4191  -14.9898   23.3003 O   0  0  0  0  0  0  0  0  0  0  0  0
   10.1103  -16.3781   22.4147 N   0  0  0  0  0  0  0  0  0  0  0  0
   11.1746  -15.7172   23.1211 C   0  0  0  0  0  0  0  0  0  0  0  0
   11.2009  -15.9428   24.5660 C   0  0  0  0  0  0  0  0  0  0  0  0
   12.2183  -15.5435   25.2311 O   0  0  0  0  0  0  0  0  0  0  0  0
   10.1991  -16.5751   25.3407 N   0  0  0  0  0  0  0  0  0  0  0  0
   10.3817  -16.8908   26.7506 C   0  0  1  0  0  0  0  0  0  0  0  0
    9.7717  -15.8209   27.6332 C   0  0  0  0  0  0  0  0  0  0  0  0
    8.4798  -15.3852   27.0527 C   0  0  0  0  0  0  0  0  0  0  0  0
    7.5162  -16.2139   26.4815 C   0  0  0  0  0  0  0  0  0  0  0  0
    6.4835  -15.4740   26.0633 N   0  0  0  0  0  0  0  0  0  0  0  0
    6.7349  -14.1831   26.3405 C   0  0  0  0  0  0  0  0  0  0  0  0
    6.0229  -13.0202   26.1296 C   0  0  0  0  0  0  0  0  0  0  0  0
    6.4856  -11.7756   26.5046 C   0  0  0  0  0  0  0  0  0  0  0  0
    7.7269  -11.7038   27.1218 C   0  0  0  0  0  0  0  0  0  0  0  0
    8.4548  -12.8568   27.3415 C   0  0  0  0  0  0  0  0  0  0  0  0
    7.9850  -14.0963   26.9637 C   0  0  0  0  0  0  0  0  0  0  0  0
    9.7706  -18.2153   27.0003 C   0  0  0  0  0  0  0  0  0  0  0  0
   10.0234  -18.8882   28.1876 O   0  0  0  0  0  0  0  0  0  0  0  0
    9.0134  -18.7766   26.1681 O   0  0  0  0  0  0  0  0  0  0  0  0
  2  3  1  1
  2  1  1  0
  4  6  1  0
  4  2  1  0
  4  5  1  1
  6  8  1  0
  6  7  2  0
  8  9  1  0
 10 11  2  0
 10  9  1  0
 12 10  1  0
 13 14  1  1
 13 12  1  0
 14 15  1  0
 15 16  2  0
 16 17  1  0
 18 17  1  0
 19 18  2  0
 20 19  1  0
 21 22  1  0
 21 20  2  0
 22 23  2  0
 23 15  1  0
 23 18  1  0
 24 13  1  0
 25 24  1  0
 26 24  2  0
M  END
$$$$
