LLL.pdb
     RDKit          3D

 25 24  0  0  1  0  0  0  0  0999 V2000
   20.4849  -19.3721  -13.5251 C   0  0  0  0  0  0  0  0  0  0  0  0
   21.3390  -19.6931  -14.7389 C   0  0  2  0  0  0  0  0  0  0  0  0
   20.4732  -20.4841  -15.6966 C   0  0  0  0  0  0  0  0  0  0  0  0
   22.5283  -20.5581  -14.3647 C   0  0  0  0  0  0  0  0  0  0  0  0
   23.3370  -19.8129  -13.3324 C   0  0  2  0  0  0  0  0  0  0  0  0
   23.7109  -18.5252  -13.8166 N   0  0  0  0  0  0  0  0  0  0  0  0
   24.4777  -20.6060  -12.8191 C   0  0  0  0  0  0  0  0  0  0  0  0
   24.2741  -21.8116  -12.5295 O   0  0  0  0  0  0  0  0  0  0  0  0
   28.1093  -21.4723  -14.8419 C   0  0  0  0  0  0  0  0  0  0  0  0
   28.3083  -20.1595  -14.0798 C   0  0  2  0  0  0  0  0  0  0  0  0
   29.6410  -19.5878  -14.4950 C   0  0  0  0  0  0  0  0  0  0  0  0
   28.2091  -20.4849  -12.6298 C   0  0  0  0  0  0  0  0  0  0  0  0
   26.8565  -20.9247  -12.1525 C   0  0  2  0  0  0  0  0  0  0  0  0
   25.7729  -20.1318  -12.6254 N   0  0  0  0  0  0  0  0  0  0  0  0
   26.8292  -21.2352  -10.7170 C   0  0  0  0  0  0  0  0  0  0  0  0
   27.4011  -22.2727  -10.2297 O   0  0  0  0  0  0  0  0  0  0  0  0
   28.0139  -18.2198   -6.4569 C   0  0  0  0  0  0  0  0  0  0  0  0
   27.7255  -19.4322   -7.2725 C   0  0  1  0  0  0  0  0  0  0  0  0
   28.5800  -20.5577   -6.6929 C   0  0  0  0  0  0  0  0  0  0  0  0
   26.3047  -19.8419   -7.3721 C   0  0  0  0  0  0  0  0  0  0  0  0
   25.9471  -20.8843   -8.3726 C   0  0  2  0  0  0  0  0  0  0  0  0
   26.1800  -20.4261   -9.7434 N   0  0  0  0  0  0  0  0  0  0  0  0
   24.5585  -21.3154   -8.2494 C   0  0  0  0  0  0  0  0  0  0  0  0
   23.5820  -21.2229   -9.2449 O   0  0  0  0  0  0  0  0  0  0  0  0
   24.1351  -21.8332   -7.1598 O   0  0  0  0  0  0  0  0  0  0  0  0
  2  1  1  1
  3  2  1  0
  4  2  1  0
  4  5  1  0
  5  6  1  6
  7  8  2  0
  7  5  1  0
 10  9  1  6
 10 12  1  0
 11 10  1  0
 13 12  1  1
 13 14  1  0
 14  7  1  0
 15 13  1  0
 16 15  2  0
 18 17  1  1
 19 18  1  0
 20 18  1  0
 21 20  1  1
 21 22  1  0
 22 15  1  0
 23 21  1  0
 24 23  1  0
 25 23  2  0
M  END
$$$$
