LLL.pdb
     RDKit          3D

 25 24  0  0  1  0  0  0  0  0999 V2000
   26.1240  -21.5986  -17.8329 C   0  0  0  0  0  0  0  0  0  0  0  0
   25.4422  -22.8931  -18.2395 C   0  0  2  0  0  0  0  0  0  0  0  0
   24.5811  -22.5835  -19.4458 C   0  0  0  0  0  0  0  0  0  0  0  0
   24.5328  -23.4081  -17.1392 C   0  0  0  0  0  0  0  0  0  0  0  0
   25.3450  -23.4997  -15.8716 C   0  0  2  0  0  0  0  0  0  0  0  0
   25.9400  -24.7890  -15.7448 N   0  0  0  0  0  0  0  0  0  0  0  0
   24.5826  -23.0797  -14.6733 C   0  0  0  0  0  0  0  0  0  0  0  0
   23.8069  -23.9156  -14.1457 O   0  0  0  0  0  0  0  0  0  0  0  0
   25.1201  -22.3545  -10.4756 C   0  0  0  0  0  0  0  0  0  0  0  0
   25.6437  -21.1782  -11.3037 C   0  0  2  0  0  0  0  0  0  0  0  0
   26.3817  -20.2535  -10.3680 C   0  0  0  0  0  0  0  0  0  0  0  0
   24.4622  -20.5596  -11.9667 C   0  0  0  0  0  0  0  0  0  0  0  0
   23.7919  -21.3970  -13.0156 C   0  0  2  0  0  0  0  0  0  0  0  0
   24.6474  -21.8263  -14.0693 N   0  0  0  0  0  0  0  0  0  0  0  0
   22.4953  -20.8526  -13.4402 C   0  0  0  0  0  0  0  0  0  0  0  0
   21.6421  -20.3860  -12.6063 O   0  0  0  0  0  0  0  0  0  0  0  0
   21.8233  -18.3132  -18.3513 C   0  0  0  0  0  0  0  0  0  0  0  0
   21.6638  -18.6382  -16.9066 C   0  0  1  0  0  0  0  0  0  0  0  0
   21.2251  -17.3474  -16.2179 C   0  0  0  0  0  0  0  0  0  0  0  0
   20.7470  -19.7545  -16.5753 C   0  0  0  0  0  0  0  0  0  0  0  0
   20.7533  -20.2725  -15.1799 C   0  0  2  0  0  0  0  0  0  0  0  0
   22.0690  -20.7872  -14.7960 N   0  0  0  0  0  0  0  0  0  0  0  0
   19.7592  -21.3210  -14.9750 C   0  0  0  0  0  0  0  0  0  0  0  0
   20.0316  -22.6648  -14.7047 O   0  0  0  0  0  0  0  0  0  0  0  0
   18.5110  -21.0506  -15.0338 O   0  0  0  0  0  0  0  0  0  0  0  0
  2  1  1  1
  3  2  1  0
  4  2  1  0
  4  5  1  0
  5  6  1  1
  7  8  2  0
  7  5  1  0
 10  9  1  1
 10 12  1  0
 11 10  1  0
 13 12  1  6
 13 14  1  0
 14  7  1  0
 15 13  1  0
 16 15  2  0
 18 17  1  6
 19 18  1  0
 20 18  1  0
 21 20  1  6
 21 22  1  0
 22 15  1  0
 23 21  1  0
 24 23  1  0
 25 23  2  0
M  END
$$$$
