LLL.pdb
     RDKit          3D

 25 24  0  0  1  0  0  0  0  0999 V2000
   29.1745  -19.1372  -16.1163 C   0  0  0  0  0  0  0  0  0  0  0  0
   27.7830  -18.5338  -16.1919 C   0  0  2  0  0  0  0  0  0  0  0  0
   27.9193  -17.1814  -16.8590 C   0  0  0  0  0  0  0  0  0  0  0  0
   27.2006  -18.3129  -14.8081 C   0  0  0  0  0  0  0  0  0  0  0  0
   27.3272  -19.6048  -14.0401 C   0  0  2  0  0  0  0  0  0  0  0  0
   26.9344  -20.7127  -14.8468 N   0  0  0  0  0  0  0  0  0  0  0  0
   26.6443  -19.5577  -12.7268 C   0  0  0  0  0  0  0  0  0  0  0  0
   26.8043  -18.5341  -12.0159 O   0  0  0  0  0  0  0  0  0  0  0  0
   22.6300  -19.0442  -11.7754 C   0  0  0  0  0  0  0  0  0  0  0  0
   22.8551  -20.5347  -12.0427 C   0  0  2  0  0  0  0  0  0  0  0  0
   21.5028  -21.2020  -12.0771 C   0  0  0  0  0  0  0  0  0  0  0  0
   23.7543  -21.0336  -10.9653 C   0  0  0  0  0  0  0  0  0  0  0  0
   25.1411  -20.4615  -10.9581 C   0  0  2  0  0  0  0  0  0  0  0  0
   25.8299  -20.5575  -12.2001 N   0  0  0  0  0  0  0  0  0  0  0  0
   25.9177  -20.8581   -9.7758 C   0  0  0  0  0  0  0  0  0  0  0  0
   26.3978  -22.0374   -9.6358 O   0  0  0  0  0  0  0  0  0  0  0  0
   29.1625  -18.5795   -4.9462 C   0  0  0  0  0  0  0  0  0  0  0  0
   28.2543  -19.6247   -5.4946 C   0  0  1  0  0  0  0  0  0  0  0  0
   27.1544  -19.8318   -4.4551 C   0  0  0  0  0  0  0  0  0  0  0  0
   27.6763  -19.3647   -6.8343 C   0  0  0  0  0  0  0  0  0  0  0  0
   26.8779  -20.4468   -7.4723 C   0  0  2  0  0  0  0  0  0  0  0  0
   26.2113  -19.9853   -8.6913 N   0  0  0  0  0  0  0  0  0  0  0  0
   25.8754  -21.0006   -6.5680 C   0  0  0  0  0  0  0  0  0  0  0  0
   24.6519  -20.4091   -6.2422 O   0  0  0  0  0  0  0  0  0  0  0  0
   26.0733  -22.1245   -5.9915 O   0  0  0  0  0  0  0  0  0  0  0  0
  2  1  1  1
  3  2  1  0
  4  2  1  0
  4  5  1  0
  5  6  1  6
  7  8  2  0
  7  5  1  0
 10  9  1  1
 10 12  1  0
 11 10  1  0
 13 12  1  6
 13 14  1  0
 14  7  1  0
 15 13  1  0
 16 15  2  0
 18 17  1  1
 19 18  1  0
 20 18  1  0
 21 20  1  1
 21 22  1  0
 22 15  1  0
 23 21  1  0
 24 23  1  0
 25 23  2  0
M  END
$$$$
