LLL.pdb
     RDKit          3D

 25 24  0  0  1  0  0  0  0  0999 V2000
   22.6462  -18.0995  -14.9236 C   0  0  0  0  0  0  0  0  0  0  0  0
   23.6620  -18.8048  -15.8049 C   0  0  2  0  0  0  0  0  0  0  0  0
   22.9116  -19.3493  -17.0020 C   0  0  0  0  0  0  0  0  0  0  0  0
   24.2998  -19.9776  -15.0834 C   0  0  0  0  0  0  0  0  0  0  0  0
   24.9483  -19.4519  -13.8271 C   0  0  2  0  0  0  0  0  0  0  0  0
   25.8758  -18.4136  -14.1337 N   0  0  0  0  0  0  0  0  0  0  0  0
   25.5218  -20.5284  -12.9871 C   0  0  0  0  0  0  0  0  0  0  0  0
   24.8164  -21.5452  -12.7697 O   0  0  0  0  0  0  0  0  0  0  0  0
   29.2301  -20.7757  -13.8168 C   0  0  0  0  0  0  0  0  0  0  0  0
   29.5399  -20.6474  -12.3230 C   0  0  2  0  0  0  0  0  0  0  0  0
   31.0366  -20.7351  -12.1576 C   0  0  0  0  0  0  0  0  0  0  0  0
   28.7853  -21.7304  -11.6330 C   0  0  0  0  0  0  0  0  0  0  0  0
   27.2976  -21.5480  -11.5687 C   0  0  2  0  0  0  0  0  0  0  0  0
   26.7886  -20.5171  -12.4081 N   0  0  0  0  0  0  0  0  0  0  0  0
   26.7791  -21.5536  -10.1943 C   0  0  0  0  0  0  0  0  0  0  0  0
   26.9693  -22.5360   -9.3945 O   0  0  0  0  0  0  0  0  0  0  0  0
   27.7947  -18.6541   -5.9933 C   0  0  0  0  0  0  0  0  0  0  0  0
   27.2440  -19.7736   -6.8068 C   0  0  1  0  0  0  0  0  0  0  0  0
   27.3136  -21.0219   -5.9294 C   0  0  0  0  0  0  0  0  0  0  0  0
   25.8803  -19.5861   -7.3559 C   0  0  0  0  0  0  0  0  0  0  0  0
   25.3719  -20.5970   -8.3229 C   0  0  2  0  0  0  0  0  0  0  0  0
   26.0317  -20.4852   -9.6250 N   0  0  0  0  0  0  0  0  0  0  0  0
   23.9288  -20.5002   -8.5162 C   0  0  0  0  0  0  0  0  0  0  0  0
   23.2837  -20.1783   -9.7133 O   0  0  0  0  0  0  0  0  0  0  0  0
   23.1287  -20.7191   -7.5432 O   0  0  0  0  0  0  0  0  0  0  0  0
  2  1  1  1
  3  2  1  0
  4  2  1  0
  4  5  1  0
  5  6  1  6
  7  8  2  0
  7  5  1  0
 10  9  1  6
 10 12  1  0
 11 10  1  0
 13 12  1  1
 13 14  1  0
 14  7  1  0
 15 13  1  0
 16 15  2  0
 18 17  1  1
 19 18  1  0
 20 18  1  0
 21 20  1  1
 21 22  1  0
 22 15  1  0
 23 21  1  0
 24 23  1  0
 25 23  2  0
M  END
$$$$
