LLL.pdb
     RDKit          3D

 25 24  0  0  1  0  0  0  0  0999 V2000
   25.6697  -18.9738  -15.0620 C   0  0  0  0  0  0  0  0  0  0  0  0
   27.0941  -19.4992  -15.0921 C   0  0  2  0  0  0  0  0  0  0  0  0
   27.3313  -20.0649  -16.4764 C   0  0  0  0  0  0  0  0  0  0  0  0
   27.2900  -20.6227  -14.0910 C   0  0  0  0  0  0  0  0  0  0  0  0
   27.1423  -20.0414  -12.7070 C   0  0  2  0  0  0  0  0  0  0  0  0
   27.5177  -18.6661  -12.6939 N   0  0  0  0  0  0  0  0  0  0  0  0
   27.8253  -20.8509  -11.6718 C   0  0  0  0  0  0  0  0  0  0  0  0
   27.6388  -22.0934  -11.6774 O   0  0  0  0  0  0  0  0  0  0  0  0
   31.3673  -19.7960   -7.1571 C   0  0  0  0  0  0  0  0  0  0  0  0
   31.0640  -21.1084   -7.8846 C   0  0  2  0  0  0  0  0  0  0  0  0
   32.3042  -21.9644   -7.8190 C   0  0  0  0  0  0  0  0  0  0  0  0
   30.6450  -20.7465   -9.2673 C   0  0  0  0  0  0  0  0  0  0  0  0
   29.2509  -21.1470   -9.6507 C   0  0  2  0  0  0  0  0  0  0  0  0
   28.6668  -20.3545  -10.6790 N   0  0  0  0  0  0  0  0  0  0  0  0
   28.3895  -21.4046   -8.4891 C   0  0  0  0  0  0  0  0  0  0  0  0
   28.5173  -22.4501   -7.7601 O   0  0  0  0  0  0  0  0  0  0  0  0
   28.3263  -18.6367   -4.3915 C   0  0  0  0  0  0  0  0  0  0  0  0
   28.0787  -19.7856   -5.3063 C   0  0  1  0  0  0  0  0  0  0  0  0
   28.5784  -21.0332   -4.5804 C   0  0  0  0  0  0  0  0  0  0  0  0
   26.6861  -19.9687   -5.7792 C   0  0  0  0  0  0  0  0  0  0  0  0
   26.4577  -20.8583   -6.9505 C   0  0  2  0  0  0  0  0  0  0  0  0
   27.3495  -20.5314   -8.0646 N   0  0  0  0  0  0  0  0  0  0  0  0
   25.0775  -20.8085   -7.4216 C   0  0  0  0  0  0  0  0  0  0  0  0
   23.9512  -21.2090   -6.6977 O   0  0  0  0  0  0  0  0  0  0  0  0
   24.8078  -20.3682   -8.5912 O   0  0  0  0  0  0  0  0  0  0  0  0
  2  1  1  6
  3  2  1  0
  4  2  1  0
  4  5  1  0
  5  6  1  6
  7  8  2  0
  7  5  1  0
 10  9  1  1
 10 12  1  0
 11 10  1  0
 13 12  1  1
 13 14  1  0
 14  7  1  0
 15 13  1  0
 16 15  2  0
 18 17  1  1
 19 18  1  0
 20 18  1  0
 21 20  1  1
 21 22  1  0
 22 15  1  0
 23 21  1  0
 24 23  1  0
 25 23  2  0
M  END
$$$$
