LLL.pdb
     RDKit          3D

 25 24  0  0  1  0  0  0  0  0999 V2000
   15.7631  -12.6107  -16.8170 C   0  0  0  0  0  0  0  0  0  0  0  0
   17.1145  -13.2996  -16.7459 C   0  0  2  0  0  0  0  0  0  0  0  0
   16.8856  -14.6687  -16.1413 C   0  0  0  0  0  0  0  0  0  0  0  0
   18.0720  -12.5462  -15.8412 C   0  0  0  0  0  0  0  0  0  0  0  0
   18.3430  -11.2021  -16.4698 C   0  0  2  0  0  0  0  0  0  0  0  0
   18.8763  -11.3567  -17.7829 N   0  0  0  0  0  0  0  0  0  0  0  0
   19.1555  -10.3191  -15.6016 C   0  0  0  0  0  0  0  0  0  0  0  0
   18.7615  -10.1262  -14.4242 O   0  0  0  0  0  0  0  0  0  0  0  0
   22.5598  -10.8420  -13.4530 C   0  0  0  0  0  0  0  0  0  0  0  0
   22.9433  -10.4758  -14.8892 C   0  0  2  0  0  0  0  0  0  0  0  0
   24.4216  -10.7310  -15.0465 C   0  0  0  0  0  0  0  0  0  0  0  0
   22.5445   -9.0552  -15.0915 C   0  0  0  0  0  0  0  0  0  0  0  0
   21.0679   -8.7933  -15.1335 C   0  0  2  0  0  0  0  0  0  0  0  0
   20.3320   -9.6741  -15.9755 N   0  0  0  0  0  0  0  0  0  0  0  0
   20.7433   -7.3678  -15.2774 C   0  0  0  0  0  0  0  0  0  0  0  0
   21.2922   -6.4640  -14.5544 O   0  0  0  0  0  0  0  0  0  0  0  0
   19.2937   -4.8656  -20.1736 C   0  0  0  0  0  0  0  0  0  0  0  0
   19.8761   -5.1872  -18.8410 C   0  0  1  0  0  0  0  0  0  0  0  0
   21.0899   -4.2763  -18.6673 C   0  0  0  0  0  0  0  0  0  0  0  0
   18.9648   -5.0850  -17.6768 C   0  0  0  0  0  0  0  0  0  0  0  0
   19.5059   -5.4314  -16.3341 C   0  0  2  0  0  0  0  0  0  0  0  0
   19.8069   -6.8597  -16.2203 N   0  0  0  0  0  0  0  0  0  0  0  0
   18.5959   -5.0545  -15.2575 C   0  0  0  0  0  0  0  0  0  0  0  0
   18.3867   -3.7580  -14.7796 O   0  0  0  0  0  0  0  0  0  0  0  0
   17.8982   -5.9427  -14.6582 O   0  0  0  0  0  0  0  0  0  0  0  0
  2  1  1  1
  3  2  1  0
  4  2  1  0
  4  5  1  0
  5  6  1  6
  7  8  2  0
  7  5  1  0
 10  9  1  1
 10 12  1  0
 11 10  1  0
 13 12  1  6
 13 14  1  0
 14  7  1  0
 15 13  1  0
 16 15  2  0
 18 17  1  6
 19 18  1  0
 20 18  1  0
 21 20  1  6
 21 22  1  0
 22 15  1  0
 23 21  1  0
 24 23  1  0
 25 23  2  0
M  END
$$$$
