LLL.pdb
     RDKit          3D

 25 24  0  0  1  0  0  0  0  0999 V2000
   21.6617  -30.8284  -15.4016 C   0  0  0  0  0  0  0  0  0  0  0  0
   21.0306  -32.0317  -14.7237 C   0  0  2  0  0  0  0  0  0  0  0  0
   20.0439  -31.5024  -13.7044 C   0  0  0  0  0  0  0  0  0  0  0  0
   22.0674  -32.8555  -13.9827 C   0  0  0  0  0  0  0  0  0  0  0  0
   23.0374  -33.4033  -14.9996 C   0  0  2  0  0  0  0  0  0  0  0  0
   22.3879  -34.3248  -15.8721 N   0  0  0  0  0  0  0  0  0  0  0  0
   24.2697  -33.9431  -14.3803 C   0  0  0  0  0  0  0  0  0  0  0  0
   24.2299  -35.1057  -13.9054 O   0  0  0  0  0  0  0  0  0  0  0  0
   28.1300  -35.2477  -15.7642 C   0  0  0  0  0  0  0  0  0  0  0  0
   28.0996  -33.7211  -15.6532 C   0  0  2  0  0  0  0  0  0  0  0  0
   29.3707  -33.1928  -16.2699 C   0  0  0  0  0  0  0  0  0  0  0  0
   27.9428  -33.3982  -14.2078 C   0  0  0  0  0  0  0  0  0  0  0  0
   26.6278  -33.7799  -13.5945 C   0  0  2  0  0  0  0  0  0  0  0  0
   25.4853  -33.2713  -14.2745 N   0  0  0  0  0  0  0  0  0  0  0  0
   26.6111  -33.6251  -12.1338 C   0  0  0  0  0  0  0  0  0  0  0  0
   26.2808  -32.5257  -11.5653 O   0  0  0  0  0  0  0  0  0  0  0  0
   24.0862  -32.1329   -8.4090 C   0  0  0  0  0  0  0  0  0  0  0  0
   25.4112  -32.5762   -8.9251 C   0  0  1  0  0  0  0  0  0  0  0  0
   26.4286  -32.2683   -7.8283 C   0  0  0  0  0  0  0  0  0  0  0  0
   25.5136  -33.9884   -9.3628 C   0  0  0  0  0  0  0  0  0  0  0  0
   26.8512  -34.4974   -9.7718 C   0  0  2  0  0  0  0  0  0  0  0  0
   26.9501  -34.6641  -11.2229 N   0  0  0  0  0  0  0  0  0  0  0  0
   27.1807  -35.7649   -9.1284 C   0  0  0  0  0  0  0  0  0  0  0  0
   27.2976  -37.0014   -9.7692 O   0  0  0  0  0  0  0  0  0  0  0  0
   27.3944  -35.8158   -7.8689 O   0  0  0  0  0  0  0  0  0  0  0  0
  2  1  1  1
  3  2  1  0
  4  2  1  0
  4  5  1  0
  5  6  1  1
  7  8  2  0
  7  5  1  0
 10  9  1  1
 10 12  1  0
 11 10  1  0
 13 12  1  6
 13 14  1  0
 14  7  1  0
 15 13  1  0
 16 15  2  0
 18 17  1  1
 19 18  1  0
 20 18  1  0
 21 20  1  6
 21 22  1  0
 22 15  1  0
 23 21  1  0
 24 23  1  0
 25 23  2  0
M  END
$$$$
