LLL.pdb
     RDKit          3D

 25 24  0  0  1  0  0  0  0  0999 V2000
   17.8711  -15.9159  -17.2314 C   0  0  0  0  0  0  0  0  0  0  0  0
   18.0389  -15.5365  -18.6922 C   0  0  2  0  0  0  0  0  0  0  0  0
   18.9644  -16.5603  -19.3150 C   0  0  0  0  0  0  0  0  0  0  0  0
   18.6888  -14.1730  -18.8379 C   0  0  0  0  0  0  0  0  0  0  0  0
   17.8137  -13.1649  -18.1358 C   0  0  2  0  0  0  0  0  0  0  0  0
   16.5249  -13.1053  -18.7424 N   0  0  0  0  0  0  0  0  0  0  0  0
   18.4643  -11.8416  -17.9980 C   0  0  0  0  0  0  0  0  0  0  0  0
   19.6619  -11.8105  -17.6192 O   0  0  0  0  0  0  0  0  0  0  0  0
   18.5149   -7.1573  -20.8908 C   0  0  0  0  0  0  0  0  0  0  0  0
   17.7540   -8.3453  -20.2963 C   0  0  2  0  0  0  0  0  0  0  0  0
   16.3464   -8.3030  -20.8368 C   0  0  0  0  0  0  0  0  0  0  0  0
   17.8430   -8.2151  -18.8153 C   0  0  0  0  0  0  0  0  0  0  0  0
   18.5101   -9.3532  -18.1008 C   0  0  2  0  0  0  0  0  0  0  0  0
   17.8625  -10.6117  -18.2533 N   0  0  0  0  0  0  0  0  0  0  0  0
   18.9081   -9.0128  -16.7283 C   0  0  0  0  0  0  0  0  0  0  0  0
   18.0846   -9.0479  -15.7477 O   0  0  0  0  0  0  0  0  0  0  0  0
   21.3460   -9.2331  -12.0208 C   0  0  0  0  0  0  0  0  0  0  0  0
   22.2698   -8.9552  -13.1556 C   0  0  1  0  0  0  0  0  0  0  0  0
   23.5209   -9.7971  -12.9120 C   0  0  0  0  0  0  0  0  0  0  0  0
   21.7337   -9.1832  -14.5183 C   0  0  0  0  0  0  0  0  0  0  0  0
   20.5981   -8.3350  -14.9727 C   0  0  2  0  0  0  0  0  0  0  0  0
   20.2252   -8.6216  -16.3592 N   0  0  0  0  0  0  0  0  0  0  0  0
   20.8876   -6.9103  -14.8476 C   0  0  0  0  0  0  0  0  0  0  0  0
   21.2608   -6.0569  -15.8894 O   0  0  0  0  0  0  0  0  0  0  0  0
   20.8096   -6.3309  -13.7106 O   0  0  0  0  0  0  0  0  0  0  0  0
  2  1  1  1
  3  2  1  0
  4  2  1  0
  4  5  1  0
  5  6  1  6
  7  8  2  0
  7  5  1  0
 10  9  1  6
 10 12  1  0
 11 10  1  0
 13 12  1  1
 13 14  1  0
 14  7  1  0
 15 13  1  0
 16 15  2  0
 18 17  1  1
 19 18  1  0
 20 18  1  0
 21 20  1  6
 21 22  1  0
 22 15  1  0
 23 21  1  0
 24 23  1  0
 25 23  2  0
M  END
$$$$
