LLL.pdb
     RDKit          3D

 25 24  0  0  1  0  0  0  0  0999 V2000
   15.2563  -12.1296  -14.0556 C   0  0  0  0  0  0  0  0  0  0  0  0
   16.4385  -12.5225  -14.9240 C   0  0  2  0  0  0  0  0  0  0  0  0
   16.6832  -14.0001  -14.7016 C   0  0  0  0  0  0  0  0  0  0  0  0
   17.6956  -11.7767  -14.5165 C   0  0  0  0  0  0  0  0  0  0  0  0
   17.8382  -10.5790  -15.4222 C   0  0  2  0  0  0  0  0  0  0  0  0
   17.8895  -10.9821  -16.7887 N   0  0  0  0  0  0  0  0  0  0  0  0
   18.9559   -9.6923  -15.0247 C   0  0  0  0  0  0  0  0  0  0  0  0
   19.0231   -9.3317  -13.8229 O   0  0  0  0  0  0  0  0  0  0  0  0
   22.9588   -9.9659  -14.0057 C   0  0  0  0  0  0  0  0  0  0  0  0
   22.8035   -9.9587  -15.5287 C   0  0  2  0  0  0  0  0  0  0  0  0
   24.1348  -10.3422  -16.1254 C   0  0  0  0  0  0  0  0  0  0  0  0
   22.3353   -8.5963  -15.9066 C   0  0  0  0  0  0  0  0  0  0  0  0
   20.9333   -8.2532  -15.4976 C   0  0  2  0  0  0  0  0  0  0  0  0
   19.9529   -9.2150  -15.8722 N   0  0  0  0  0  0  0  0  0  0  0  0
   20.5815   -6.8546  -15.7773 C   0  0  0  0  0  0  0  0  0  0  0  0
   19.8447   -6.5191  -16.7700 O   0  0  0  0  0  0  0  0  0  0  0  0
   19.3482   -1.6075  -14.6242 C   0  0  0  0  0  0  0  0  0  0  0  0
   20.7826   -1.9814  -14.4790 C   0  0  1  0  0  0  0  0  0  0  0  0
   21.3374   -1.1347  -13.3351 C   0  0  0  0  0  0  0  0  0  0  0  0
   21.0750   -3.4185  -14.2658 C   0  0  0  0  0  0  0  0  0  0  0  0
   20.7702   -4.3649  -15.3735 C   0  0  2  0  0  0  0  0  0  0  0  0
   21.0136   -5.7551  -14.9845 N   0  0  0  0  0  0  0  0  0  0  0  0
   21.5390   -4.0714  -16.5785 C   0  0  0  0  0  0  0  0  0  0  0  0
   22.8012   -4.5849  -16.8888 O   0  0  0  0  0  0  0  0  0  0  0  0
   21.0712   -3.2827  -17.4694 O   0  0  0  0  0  0  0  0  0  0  0  0
  2  1  1  1
  3  2  1  0
  4  2  1  0
  4  5  1  0
  5  6  1  6
  7  8  2  0
  7  5  1  0
 10  9  1  1
 10 12  1  0
 11 10  1  0
 13 12  1  6
 13 14  1  0
 14  7  1  0
 15 13  1  0
 16 15  2  0
 18 17  1  1
 19 18  1  0
 20 18  1  0
 21 20  1  1
 21 22  1  0
 22 15  1  0
 23 21  1  0
 24 23  1  0
 25 23  2  0
M  END
$$$$
