LLL.pdb
     RDKit          3D

 25 24  0  0  1  0  0  0  0  0999 V2000
   34.1923  -24.7668  -18.4407 C   0  0  0  0  0  0  0  0  0  0  0  0
   33.9660  -26.0994  -17.7486 C   0  0  2  0  0  0  0  0  0  0  0  0
   34.3734  -27.1831  -18.7244 C   0  0  0  0  0  0  0  0  0  0  0  0
   32.5010  -26.3051  -17.4108 C   0  0  0  0  0  0  0  0  0  0  0  0
   32.1060  -25.2553  -16.4023 C   0  0  2  0  0  0  0  0  0  0  0  0
   32.7319  -25.5014  -15.1453 N   0  0  0  0  0  0  0  0  0  0  0  0
   30.6387  -25.0776  -16.3079 C   0  0  0  0  0  0  0  0  0  0  0  0
   30.0214  -25.7314  -15.4302 O   0  0  0  0  0  0  0  0  0  0  0  0
   27.8068  -22.0609  -14.9103 C   0  0  0  0  0  0  0  0  0  0  0  0
   28.4021  -21.6709  -16.2657 C   0  0  2  0  0  0  0  0  0  0  0  0
   27.9361  -20.2721  -16.5839 C   0  0  0  0  0  0  0  0  0  0  0  0
   27.9541  -22.7005  -17.2442 C   0  0  0  0  0  0  0  0  0  0  0  0
   28.4585  -24.0924  -17.0012 C   0  0  2  0  0  0  0  0  0  0  0  0
   29.8698  -24.2410  -17.1134 N   0  0  0  0  0  0  0  0  0  0  0  0
   27.6614  -25.1180  -17.6875 C   0  0  0  0  0  0  0  0  0  0  0  0
   27.7606  -25.3337  -18.9463 O   0  0  0  0  0  0  0  0  0  0  0  0
   25.6465  -30.2504  -18.1289 C   0  0  0  0  0  0  0  0  0  0  0  0
   24.8501  -29.2722  -17.3370 C   0  0  1  0  0  0  0  0  0  0  0  0
   24.1656  -30.0680  -16.2274 C   0  0  0  0  0  0  0  0  0  0  0  0
   25.5868  -28.1125  -16.7814 C   0  0  0  0  0  0  0  0  0  0  0  0
   26.0279  -27.0487  -17.7244 C   0  0  2  0  0  0  0  0  0  0  0  0
   26.7207  -25.9604  -17.0322 N   0  0  0  0  0  0  0  0  0  0  0  0
   24.9161  -26.4899  -18.4866 C   0  0  0  0  0  0  0  0  0  0  0  0
   24.5567  -26.8459  -19.7893 O   0  0  0  0  0  0  0  0  0  0  0  0
   24.1649  -25.5918  -17.9728 O   0  0  0  0  0  0  0  0  0  0  0  0
  2  1  1  6
  3  2  1  0
  4  2  1  0
  4  5  1  0
  5  6  1  1
  7  8  2  0
  7  5  1  0
 10  9  1  1
 10 12  1  0
 11 10  1  0
 13 12  1  6
 13 14  1  0
 14  7  1  0
 15 13  1  0
 16 15  2  0
 18 17  1  1
 19 18  1  0
 20 18  1  0
 21 20  1  1
 21 22  1  0
 22 15  1  0
 23 21  1  0
 24 23  1  0
 25 23  2  0
M  END
$$$$
