LLL.pdb
     RDKit          3D

 25 24  0  0  1  0  0  0  0  0999 V2000
   21.4547  -18.5844  -15.0868 C   0  0  0  0  0  0  0  0  0  0  0  0
   22.3935  -19.2993  -16.0426 C   0  0  2  0  0  0  0  0  0  0  0  0
   21.5342  -19.9662  -17.0958 C   0  0  0  0  0  0  0  0  0  0  0  0
   23.1843  -20.3830  -15.3334 C   0  0  0  0  0  0  0  0  0  0  0  0
   23.8775  -19.7527  -14.1514 C   0  0  2  0  0  0  0  0  0  0  0  0
   24.5476  -18.5553  -14.5381 N   0  0  0  0  0  0  0  0  0  0  0  0
   24.7447  -20.7069  -13.4225 C   0  0  0  0  0  0  0  0  0  0  0  0
   24.2879  -21.8522  -13.1810 O   0  0  0  0  0  0  0  0  0  0  0  0
   28.1301  -19.7550  -14.5035 C   0  0  0  0  0  0  0  0  0  0  0  0
   28.8090  -20.0245  -13.1581 C   0  0  2  0  0  0  0  0  0  0  0  0
   30.3001  -19.9694  -13.3797 C   0  0  0  0  0  0  0  0  0  0  0  0
   28.3113  -21.3451  -12.6824 C   0  0  0  0  0  0  0  0  0  0  0  0
   26.8606  -21.3959  -12.3033 C   0  0  2  0  0  0  0  0  0  0  0  0
   26.0377  -20.4477  -12.9742 N   0  0  0  0  0  0  0  0  0  0  0  0
   26.6514  -21.4955  -10.8526 C   0  0  0  0  0  0  0  0  0  0  0  0
   27.1173  -22.4661  -10.1585 O   0  0  0  0  0  0  0  0  0  0  0  0
   27.6641  -18.7846   -6.5437 C   0  0  0  0  0  0  0  0  0  0  0  0
   27.2156  -19.8789   -7.4492 C   0  0  1  0  0  0  0  0  0  0  0  0
   27.7363  -21.1817   -6.8455 C   0  0  0  0  0  0  0  0  0  0  0  0
   25.7606  -19.9627   -7.7181 C   0  0  0  0  0  0  0  0  0  0  0  0
   25.3028  -20.8689   -8.8066 C   0  0  2  0  0  0  0  0  0  0  0  0
   25.9270  -20.5383  -10.0890 N   0  0  0  0  0  0  0  0  0  0  0  0
   23.8528  -20.8488   -8.9694 C   0  0  0  0  0  0  0  0  0  0  0  0
   23.1644  -20.4598  -10.1217 O   0  0  0  0  0  0  0  0  0  0  0  0
   23.0882  -21.2088   -8.0100 O   0  0  0  0  0  0  0  0  0  0  0  0
  2  1  1  1
  3  2  1  0
  4  2  1  0
  4  5  1  0
  5  6  1  6
  7  8  2  0
  7  5  1  0
 10  9  1  6
 10 12  1  0
 11 10  1  0
 13 12  1  1
 13 14  1  0
 14  7  1  0
 15 13  1  0
 16 15  2  0
 18 17  1  1
 19 18  1  0
 20 18  1  0
 21 20  1  1
 21 22  1  0
 22 15  1  0
 23 21  1  0
 24 23  1  0
 25 23  2  0
M  END
$$$$
