VPN.pdb
     RDKit          3D

 23 23  0  0  1  0  0  0  0  0999 V2000
   18.8960  -13.2436  -19.1655 C   0  0  0  0  0  0  0  0  0  0  0  0
   19.3981  -12.2425  -18.1593 C   0  0  2  0  0  0  0  0  0  0  0  0
   20.1176  -11.1201  -18.8152 C   0  0  0  0  0  0  0  0  0  0  0  0
   20.2088  -12.9253  -17.0404 C   0  0  2  0  0  0  0  0  0  0  0  0
   19.2508  -13.8903  -16.4787 N   0  0  0  0  0  0  0  0  0  0  0  0
   20.4687  -11.9076  -15.9900 C   0  0  0  0  0  0  0  0  0  0  0  0
   19.4469  -11.5829  -15.2821 O   0  0  0  0  0  0  0  0  0  0  0  0
   21.7168  -11.3123  -15.7428 N   0  0  0  0  0  0  0  0  0  0  0  0
   22.9074  -11.5467  -16.4899 C   0  0  0  0  0  0  0  0  0  0  0  0
   23.9990  -11.4131  -15.4529 C   0  0  0  0  0  0  0  0  0  0  0  0
   23.3308  -10.9448  -14.1812 C   0  0  0  0  0  0  0  0  0  0  0  0
   22.0347  -10.3836  -14.7232 C   0  0  1  0  0  0  0  0  0  0  0  0
   22.3629   -9.0181  -15.2577 C   0  0  0  0  0  0  0  0  0  0  0  0
   22.5545   -8.7878  -16.4791 O   0  0  0  0  0  0  0  0  0  0  0  0
   20.6337   -4.2587  -15.6682 N   0  0  0  0  0  0  0  0  0  0  0  0
   19.9590   -5.5010  -15.7174 C   0  0  0  0  0  0  0  0  0  0  0  0
   18.7881   -5.5290  -16.1360 O   0  0  0  0  0  0  0  0  0  0  0  0
   20.6434   -6.7019  -15.2820 C   0  0  0  0  0  0  0  0  0  0  0  0
   22.0784   -6.5550  -14.8687 C   0  0  2  0  0  0  0  0  0  0  0  0
   22.4756   -7.8937  -14.3923 N   0  0  0  0  0  0  0  0  0  0  0  0
   22.2778   -5.6001  -13.7660 C   0  0  0  0  0  0  0  0  0  0  0  0
   22.8618   -4.3556  -13.8707 O   0  0  0  0  0  0  0  0  0  0  0  0
   21.8914   -5.9073  -12.5819 O   0  0  0  0  0  0  0  0  0  0  0  0
  2  1  1  6
  2  3  1  0
  4  2  1  0
  4  6  1  0
  4  5  1  1
  6  7  2  0
  8  6  1  0
  8 12  1  0
  9  8  1  0
 10  9  1  0
 10 11  1  0
 11 12  1  0
 12 13  1  6
 13 20  1  0
 13 14  2  0
 16 18  1  0
 16 15  1  0
 17 16  2  0
 19 21  1  0
 19 18  1  1
 20 19  1  0
 21 22  1  0
 23 21  2  0
M  END
$$$$
