VPN.pdb
     RDKit          3D

 23 23  0  0  1  0  0  0  0  0999 V2000
   23.8159  -11.3980  -14.6762 C   0  0  0  0  0  0  0  0  0  0  0  0
   22.9944  -12.5569  -15.1749 C   0  0  2  0  0  0  0  0  0  0  0  0
   23.4719  -13.8480  -14.6158 C   0  0  0  0  0  0  0  0  0  0  0  0
   22.8873  -12.5521  -16.7125 C   0  0  2  0  0  0  0  0  0  0  0  0
   24.2762  -12.7781  -17.1421 N   0  0  0  0  0  0  0  0  0  0  0  0
   22.5199  -11.1754  -17.1322 C   0  0  0  0  0  0  0  0  0  0  0  0
   23.4978  -10.4545  -17.5500 O   0  0  0  0  0  0  0  0  0  0  0  0
   21.2183  -10.6482  -17.0983 N   0  0  0  0  0  0  0  0  0  0  0  0
   20.0435  -11.3683  -16.7351 C   0  0  0  0  0  0  0  0  0  0  0  0
   18.9715  -10.7384  -17.5945 C   0  0  0  0  0  0  0  0  0  0  0  0
   19.6143   -9.5631  -18.2935 C   0  0  0  0  0  0  0  0  0  0  0  0
   20.8221   -9.3266  -17.4138 C   0  0  1  0  0  0  0  0  0  0  0  0
   20.3243   -8.5642  -16.2184 C   0  0  0  0  0  0  0  0  0  0  0  0
   20.2435   -9.0681  -15.0690 O   0  0  0  0  0  0  0  0  0  0  0  0
   21.4471   -4.4188  -13.4861 N   0  0  0  0  0  0  0  0  0  0  0  0
   22.2683   -5.3926  -14.1012 C   0  0  0  0  0  0  0  0  0  0  0  0
   23.4781   -5.4219  -13.8141 O   0  0  0  0  0  0  0  0  0  0  0  0
   21.6842   -6.3254  -15.0440 C   0  0  0  0  0  0  0  0  0  0  0  0
   20.1972   -6.2593  -15.2337 C   0  0  2  0  0  0  0  0  0  0  0  0
   19.9111   -7.2066  -16.3279 N   0  0  0  0  0  0  0  0  0  0  0  0
   19.7154   -4.9297  -15.6431 C   0  0  0  0  0  0  0  0  0  0  0  0
   19.9692   -4.3152  -16.8509 O   0  0  0  0  0  0  0  0  0  0  0  0
   18.9918   -4.2406  -14.8386 O   0  0  0  0  0  0  0  0  0  0  0  0
  2  1  1  6
  2  3  1  0
  4  2  1  0
  4  6  1  0
  4  5  1  6
  6  7  2  0
  8  6  1  0
  8 12  1  0
  9  8  1  0
 10  9  1  0
 10 11  1  0
 11 12  1  0
 12 13  1  1
 13 20  1  0
 13 14  2  0
 16 18  1  0
 16 15  1  0
 17 16  2  0
 19 21  1  0
 19 18  1  6
 20 19  1  0
 21 22  1  0
 23 21  2  0
M  END
$$$$
