VPN.pdb
     RDKit          3D

 23 23  0  0  1  0  0  0  0  0999 V2000
   17.9583  -10.7529  -19.1227 C   0  0  0  0  0  0  0  0  0  0  0  0
   18.4329  -10.0962  -17.8538 C   0  0  2  0  0  0  0  0  0  0  0  0
   17.9812   -8.6835  -17.7658 C   0  0  0  0  0  0  0  0  0  0  0  0
   19.9521  -10.2714  -17.6621 C   0  0  2  0  0  0  0  0  0  0  0  0
   20.0996  -11.7258  -17.4959 N   0  0  0  0  0  0  0  0  0  0  0  0
   20.3156   -9.6455  -16.3649 C   0  0  0  0  0  0  0  0  0  0  0  0
   20.0667  -10.3605  -15.3269 O   0  0  0  0  0  0  0  0  0  0  0  0
   20.8919   -8.3723  -16.2235 N   0  0  0  0  0  0  0  0  0  0  0  0
   21.1264   -7.4483  -17.2828 C   0  0  0  0  0  0  0  0  0  0  0  0
   22.3836   -6.7321  -16.8457 C   0  0  0  0  0  0  0  0  0  0  0  0
   22.6920   -7.2161  -15.4480 C   0  0  0  0  0  0  0  0  0  0  0  0
   21.3474   -7.7675  -15.0277 C   0  0  1  0  0  0  0  0  0  0  0  0
   20.5194   -6.5815  -14.6202 C   0  0  0  0  0  0  0  0  0  0  0  0
   19.8809   -5.8761  -15.4425 O   0  0  0  0  0  0  0  0  0  0  0  0
   18.0816   -4.6988   -9.3588 N   0  0  0  0  0  0  0  0  0  0  0  0
   18.0135   -4.8261  -10.7661 C   0  0  0  0  0  0  0  0  0  0  0  0
   17.1135   -4.2237  -11.3777 O   0  0  0  0  0  0  0  0  0  0  0  0
   18.9867   -5.6493  -11.4555 C   0  0  0  0  0  0  0  0  0  0  0  0
   19.3689   -5.2310  -12.8450 C   0  0  2  0  0  0  0  0  0  0  0  0
   20.4133   -6.1885  -13.2563 N   0  0  0  0  0  0  0  0  0  0  0  0
   19.9391   -3.8754  -12.9148 C   0  0  0  0  0  0  0  0  0  0  0  0
   19.2377   -2.7162  -13.1697 O   0  0  0  0  0  0  0  0  0  0  0  0
   21.1971   -3.7050  -12.7302 O   0  0  0  0  0  0  0  0  0  0  0  0
  2  1  1  6
  2  3  1  0
  4  2  1  0
  4  6  1  0
  4  5  1  1
  6  7  2  0
  8  6  1  0
  8 12  1  0
  9  8  1  0
 10  9  1  0
 10 11  1  0
 11 12  1  0
 12 13  1  6
 13 20  1  0
 13 14  2  0
 16 18  1  0
 16 15  1  0
 17 16  2  0
 19 21  1  0
 19 18  1  1
 20 19  1  0
 21 22  1  0
 23 21  2  0
M  END
$$$$
