VPN.pdb
     RDKit          3D

 23 23  0  0  1  0  0  0  0  0999 V2000
   25.6144  -22.3410  -12.4482 C   0  0  0  0  0  0  0  0  0  0  0  0
   25.7012  -21.0097  -11.7504 C   0  0  2  0  0  0  0  0  0  0  0  0
   25.6982  -21.1642  -10.2727 C   0  0  0  0  0  0  0  0  0  0  0  0
   24.6316  -20.0294  -12.2706 C   0  0  2  0  0  0  0  0  0  0  0  0
   23.3770  -20.7717  -12.0716 N   0  0  0  0  0  0  0  0  0  0  0  0
   24.8270  -19.8889  -13.7364 C   0  0  0  0  0  0  0  0  0  0  0  0
   23.8060  -20.1954  -14.4534 O   0  0  0  0  0  0  0  0  0  0  0  0
   26.0152  -19.4566  -14.3483 N   0  0  0  0  0  0  0  0  0  0  0  0
   27.2069  -19.0774  -13.6650 C   0  0  0  0  0  0  0  0  0  0  0  0
   27.7872  -18.0002  -14.5525 C   0  0  0  0  0  0  0  0  0  0  0  0
   26.9286  -17.9562  -15.7951 C   0  0  0  0  0  0  0  0  0  0  0  0
   26.2599  -19.3118  -15.7348 C   0  0  1  0  0  0  0  0  0  0  0  0
   27.2672  -20.2971  -16.2568 C   0  0  0  0  0  0  0  0  0  0  0  0
   28.3747  -20.5060  -15.6988 O   0  0  0  0  0  0  0  0  0  0  0  0
   26.8138  -25.2692  -16.7244 N   0  0  0  0  0  0  0  0  0  0  0  0
   26.0887  -24.3382  -15.9442 C   0  0  0  0  0  0  0  0  0  0  0  0
   25.3534  -24.7640  -15.0359 O   0  0  0  0  0  0  0  0  0  0  0  0
   26.2193  -22.9216  -16.2203 C   0  0  0  0  0  0  0  0  0  0  0  0
   27.0836  -22.5322  -17.3835 C   0  0  2  0  0  0  0  0  0  0  0  0
   27.0144  -21.0593  -17.4320 N   0  0  0  0  0  0  0  0  0  0  0  0
   26.6033  -23.0546  -18.6735 C   0  0  0  0  0  0  0  0  0  0  0  0
   25.3673  -22.8115  -19.2338 O   0  0  0  0  0  0  0  0  0  0  0  0
   27.3658  -23.8096  -19.3766 O   0  0  0  0  0  0  0  0  0  0  0  0
  2  1  1  6
  2  3  1  0
  4  2  1  0
  4  6  1  0
  4  5  1  6
  6  7  2  0
  8  6  1  0
  8 12  1  0
  9  8  1  0
 10  9  1  0
 10 11  1  0
 11 12  1  0
 12 13  1  1
 13 20  1  0
 13 14  2  0
 16 18  1  0
 16 15  1  0
 17 16  2  0
 19 21  1  0
 19 18  1  1
 20 19  1  0
 21 22  1  0
 23 21  2  0
M  END
$$$$
