VPN.pdb
     RDKit          3D

 23 23  0  0  1  0  0  0  0  0999 V2000
   22.8047  -13.7947  -19.7782 C   0  0  0  0  0  0  0  0  0  0  0  0
   22.8147  -12.7721  -18.6733 C   0  0  2  0  0  0  0  0  0  0  0  0
   22.8024  -11.3863  -19.2090 C   0  0  0  0  0  0  0  0  0  0  0  0
   23.9552  -13.0361  -17.6707 C   0  0  2  0  0  0  0  0  0  0  0  0
   23.6750  -14.4023  -17.2022 N   0  0  0  0  0  0  0  0  0  0  0  0
   23.7534  -12.1281  -16.5125 C   0  0  0  0  0  0  0  0  0  0  0  0
   22.7963  -12.4591  -15.7219 O   0  0  0  0  0  0  0  0  0  0  0  0
   24.5212  -10.9815  -16.2502 N   0  0  0  0  0  0  0  0  0  0  0  0
   25.5904  -10.4991  -17.0595 C   0  0  0  0  0  0  0  0  0  0  0  0
   26.5337   -9.8798  -16.0540 C   0  0  0  0  0  0  0  0  0  0  0  0
   25.8297   -9.9239  -14.7179 C   0  0  0  0  0  0  0  0  0  0  0  0
   24.3911  -10.0974  -15.1526 C   0  0  1  0  0  0  0  0  0  0  0  0
   23.9098   -8.7320  -15.5555 C   0  0  0  0  0  0  0  0  0  0  0  0
   24.2181   -8.1913  -16.6482 O   0  0  0  0  0  0  0  0  0  0  0  0
   20.2361   -4.9909  -15.8733 N   0  0  0  0  0  0  0  0  0  0  0  0
   19.8389   -6.2884  -15.4737 C   0  0  0  0  0  0  0  0  0  0  0  0
   18.6255   -6.5598  -15.4453 O   0  0  0  0  0  0  0  0  0  0  0  0
   20.8482   -7.2626  -15.1097 C   0  0  0  0  0  0  0  0  0  0  0  0
   22.2817   -6.8452  -15.2593 C   0  0  2  0  0  0  0  0  0  0  0  0
   23.0639   -7.9664  -14.7046 N   0  0  0  0  0  0  0  0  0  0  0  0
   22.6226   -5.6308  -14.5000 C   0  0  0  0  0  0  0  0  0  0  0  0
   23.4330   -5.5755  -13.3860 O   0  0  0  0  0  0  0  0  0  0  0  0
   22.1468   -4.4974  -14.8672 O   0  0  0  0  0  0  0  0  0  0  0  0
  2  1  1  6
  2  3  1  0
  4  2  1  0
  4  6  1  0
  4  5  1  1
  6  7  2  0
  8  6  1  0
  8 12  1  0
  9  8  1  0
 10  9  1  0
 10 11  1  0
 11 12  1  0
 12 13  1  6
 13 20  1  0
 13 14  2  0
 16 18  1  0
 16 15  1  0
 17 16  2  0
 19 21  1  0
 19 18  1  1
 20 19  1  0
 21 22  1  0
 23 21  2  0
M  END
$$$$
