VPN.pdb
     RDKit          3D

 23 23  0  0  1  0  0  0  0  0999 V2000
   23.6240  -21.2509   -9.9127 C   0  0  0  0  0  0  0  0  0  0  0  0
   24.0634  -20.6829  -11.2360 C   0  0  2  0  0  0  0  0  0  0  0  0
   23.6975  -21.5770  -12.3648 C   0  0  0  0  0  0  0  0  0  0  0  0
   25.5546  -20.2936  -11.2154 C   0  0  2  0  0  0  0  0  0  0  0  0
   25.6624  -19.4583  -10.0091 N   0  0  0  0  0  0  0  0  0  0  0  0
   25.8031  -19.4084  -12.3821 C   0  0  0  0  0  0  0  0  0  0  0  0
   25.1623  -18.2950  -12.3668 O   0  0  0  0  0  0  0  0  0  0  0  0
   26.6641  -19.7128  -13.4495 N   0  0  0  0  0  0  0  0  0  0  0  0
   27.4550  -20.8926  -13.5636 C   0  0  0  0  0  0  0  0  0  0  0  0
   28.6868  -20.4143  -14.2974 C   0  0  0  0  0  0  0  0  0  0  0  0
   28.4233  -18.9801  -14.6932 C   0  0  0  0  0  0  0  0  0  0  0  0
   26.9146  -18.9245  -14.5980 C   0  0  1  0  0  0  0  0  0  0  0  0
   26.3938  -19.5498  -15.8613 C   0  0  0  0  0  0  0  0  0  0  0  0
   26.3851  -20.7918  -16.0584 O   0  0  0  0  0  0  0  0  0  0  0  0
   21.4426  -19.7271  -15.5042 N   0  0  0  0  0  0  0  0  0  0  0  0
   22.8093  -19.9269  -15.8097 C   0  0  0  0  0  0  0  0  0  0  0  0
   23.2795  -21.0750  -15.7222 O   0  0  0  0  0  0  0  0  0  0  0  0
   23.6221  -18.7974  -16.2141 C   0  0  0  0  0  0  0  0  0  0  0  0
   24.5033  -18.9883  -17.4136 C   0  0  2  0  0  0  0  0  0  0  0  0
   25.8735  -18.7530  -16.9197 N   0  0  0  0  0  0  0  0  0  0  0  0
   24.2372  -18.0279  -18.4973 C   0  0  0  0  0  0  0  0  0  0  0  0
   23.3661  -18.2177  -19.5489 O   0  0  0  0  0  0  0  0  0  0  0  0
   24.8466  -16.8992  -18.5097 O   0  0  0  0  0  0  0  0  0  0  0  0
  2  1  1  1
  2  3  1  0
  4  2  1  0
  4  6  1  0
  4  5  1  1
  6  7  2  0
  8  6  1  0
  8 12  1  0
  9  8  1  0
 10  9  1  0
 10 11  1  0
 11 12  1  0
 12 13  1  6
 13 20  1  0
 13 14  2  0
 16 18  1  0
 16 15  1  0
 17 16  2  0
 19 21  1  0
 19 18  1  1
 20 19  1  0
 21 22  1  0
 23 21  2  0
M  END
$$$$
