VPN.pdb
     RDKit          3D

 23 23  0  0  1  0  0  0  0  0999 V2000
   36.2667  -12.7911   -7.8232 C   0  0  0  0  0  0  0  0  0  0  0  0
   37.0151  -11.4850   -7.7965 C   0  0  2  0  0  0  0  0  0  0  0  0
   36.8956  -10.7584   -9.0870 C   0  0  0  0  0  0  0  0  0  0  0  0
   38.4713  -11.6788   -7.3299 C   0  0  2  0  0  0  0  0  0  0  0  0
   38.3167  -12.1097   -5.9317 N   0  0  0  0  0  0  0  0  0  0  0  0
   39.1160  -10.3409   -7.3049 C   0  0  0  0  0  0  0  0  0  0  0  0
   39.0105   -9.7065   -6.1927 O   0  0  0  0  0  0  0  0  0  0  0  0
   39.8041   -9.7630   -8.3846 N   0  0  0  0  0  0  0  0  0  0  0  0
   39.9111  -10.3214   -9.6913 C   0  0  0  0  0  0  0  0  0  0  0  0
   41.2781   -9.8684  -10.1506 C   0  0  0  0  0  0  0  0  0  0  0  0
   41.7985   -8.9252   -9.0912 C   0  0  0  0  0  0  0  0  0  0  0  0
   40.5150   -8.5391   -8.3895 C   0  0  1  0  0  0  0  0  0  0  0  0
   39.8684   -7.4907   -9.2503 C   0  0  0  0  0  0  0  0  0  0  0  0
   39.1027   -7.7673  -10.2088 O   0  0  0  0  0  0  0  0  0  0  0  0
   35.9266   -5.2492   -7.3336 N   0  0  0  0  0  0  0  0  0  0  0  0
   37.2486   -4.9685   -6.9158 C   0  0  0  0  0  0  0  0  0  0  0  0
   37.4314   -4.0726   -6.0726 O   0  0  0  0  0  0  0  0  0  0  0  0
   38.3496   -5.7261   -7.4762 C   0  0  0  0  0  0  0  0  0  0  0  0
   38.9536   -5.2082   -8.7485 C   0  0  2  0  0  0  0  0  0  0  0  0
   40.0937   -6.1043   -9.0202 N   0  0  0  0  0  0  0  0  0  0  0  0
   39.4694   -3.8337   -8.6373 C   0  0  0  0  0  0  0  0  0  0  0  0
   38.7927   -2.6859   -8.9914 O   0  0  0  0  0  0  0  0  0  0  0  0
   40.6497   -3.6335   -8.1765 O   0  0  0  0  0  0  0  0  0  0  0  0
  2  1  1  6
  2  3  1  0
  4  2  1  0
  4  6  1  0
  4  5  1  1
  6  7  2  0
  8  6  1  0
  8 12  1  0
  9  8  1  0
 10  9  1  0
 10 11  1  0
 11 12  1  0
 12 13  1  6
 13 20  1  0
 13 14  2  0
 16 18  1  0
 16 15  1  0
 17 16  2  0
 19 21  1  0
 19 18  1  1
 20 19  1  0
 21 22  1  0
 23 21  2  0
M  END
$$$$
