VPN.pdb
     RDKit          3D

 23 23  0  0  1  0  0  0  0  0999 V2000
   26.3054  -22.0263  -11.1340 C   0  0  0  0  0  0  0  0  0  0  0  0
   25.7039  -21.2965  -12.3054 C   0  0  2  0  0  0  0  0  0  0  0  0
   26.6238  -21.2805  -13.4721 C   0  0  0  0  0  0  0  0  0  0  0  0
   25.1978  -19.8984  -11.8994 C   0  0  2  0  0  0  0  0  0  0  0  0
   24.0154  -20.1999  -11.0774 N   0  0  0  0  0  0  0  0  0  0  0  0
   24.7124  -19.2224  -13.1298 C   0  0  0  0  0  0  0  0  0  0  0  0
   23.4389  -19.2475  -13.2983 O   0  0  0  0  0  0  0  0  0  0  0  0
   25.5368  -18.5860  -14.0724 N   0  0  0  0  0  0  0  0  0  0  0  0
   26.9592  -18.5207  -14.0168 C   0  0  0  0  0  0  0  0  0  0  0  0
   27.2691  -17.1800  -14.6422 C   0  0  0  0  0  0  0  0  0  0  0  0
   25.9601  -16.6340  -15.1630 C   0  0  0  0  0  0  0  0  0  0  0  0
   25.1282  -17.8953  -15.2383 C   0  0  1  0  0  0  0  0  0  0  0  0
   25.5401  -18.5913  -16.5048 C   0  0  0  0  0  0  0  0  0  0  0  0
   26.5728  -19.3038  -16.5907 O   0  0  0  0  0  0  0  0  0  0  0  0
   23.6377  -22.4566  -18.1957 N   0  0  0  0  0  0  0  0  0  0  0  0
   23.1667  -21.7009  -17.0965 C   0  0  0  0  0  0  0  0  0  0  0  0
   22.6060  -22.2955  -16.1589 O   0  0  0  0  0  0  0  0  0  0  0  0
   23.3476  -20.2631  -17.0898 C   0  0  0  0  0  0  0  0  0  0  0  0
   24.0900  -19.6656  -18.2489 C   0  0  2  0  0  0  0  0  0  0  0  0
   24.7674  -18.4779  -17.6947 N   0  0  0  0  0  0  0  0  0  0  0  0
   23.2114  -19.2211  -19.3434 C   0  0  0  0  0  0  0  0  0  0  0  0
   22.9556  -19.9155  -20.5067 O   0  0  0  0  0  0  0  0  0  0  0  0
   22.6074  -18.0928  -19.2550 O   0  0  0  0  0  0  0  0  0  0  0  0
  2  1  1  1
  2  3  1  0
  4  2  1  0
  4  6  1  0
  4  5  1  1
  6  7  2  0
  8  6  1  0
  8 12  1  0
  9  8  1  0
 10  9  1  0
 10 11  1  0
 11 12  1  0
 12 13  1  6
 13 20  1  0
 13 14  2  0
 16 18  1  0
 16 15  1  0
 17 16  2  0
 19 21  1  0
 19 18  1  1
 20 19  1  0
 21 22  1  0
 23 21  2  0
M  END
$$$$
