VPN.pdb
     RDKit          3D

 23 23  0  0  1  0  0  0  0  0999 V2000
   23.4386  -22.3639  -14.8222 C   0  0  0  0  0  0  0  0  0  0  0  0
   24.6073  -22.4892  -13.8813 C   0  0  2  0  0  0  0  0  0  0  0  0
   24.7632  -23.8804  -13.3834 C   0  0  0  0  0  0  0  0  0  0  0  0
   24.5429  -21.4353  -12.7585 C   0  0  2  0  0  0  0  0  0  0  0  0
   23.1949  -21.6271  -12.2010 N   0  0  0  0  0  0  0  0  0  0  0  0
   24.5629  -20.0954  -13.3993 C   0  0  0  0  0  0  0  0  0  0  0  0
   23.4464  -19.4605  -13.3683 O   0  0  0  0  0  0  0  0  0  0  0  0
   25.6885  -19.5149  -14.0069 N   0  0  0  0  0  0  0  0  0  0  0  0
   26.9664  -20.1313  -14.1407 C   0  0  0  0  0  0  0  0  0  0  0  0
   27.9245  -18.9659  -14.0474 C   0  0  0  0  0  0  0  0  0  0  0  0
   27.0793  -17.7138  -14.0203 C   0  0  0  0  0  0  0  0  0  0  0  0
   25.7771  -18.2292  -14.5921 C   0  0  1  0  0  0  0  0  0  0  0  0
   25.9660  -18.2768  -16.0822 C   0  0  0  0  0  0  0  0  0  0  0  0
   26.9001  -18.9120  -16.6348 O   0  0  0  0  0  0  0  0  0  0  0  0
   25.6309  -21.6465  -17.3934 N   0  0  0  0  0  0  0  0  0  0  0  0
   24.6343  -20.8323  -17.9806 C   0  0  0  0  0  0  0  0  0  0  0  0
   24.2489  -21.0969  -19.1332 O   0  0  0  0  0  0  0  0  0  0  0  0
   24.0907  -19.7178  -17.2305 C   0  0  0  0  0  0  0  0  0  0  0  0
   24.1954  -18.3592  -17.8589 C   0  0  2  0  0  0  0  0  0  0  0  0
   25.0801  -17.5924  -16.9611 N   0  0  0  0  0  0  0  0  0  0  0  0
   22.9077  -17.6509  -17.9456 C   0  0  0  0  0  0  0  0  0  0  0  0
   22.2547  -17.0312  -16.9013 O   0  0  0  0  0  0  0  0  0  0  0  0
   22.2980  -17.5766  -19.0718 O   0  0  0  0  0  0  0  0  0  0  0  0
  2  1  1  1
  2  3  1  0
  4  2  1  0
  4  6  1  0
  4  5  1  6
  6  7  2  0
  8  6  1  0
  8 12  1  0
  9  8  1  0
 10  9  1  0
 10 11  1  0
 11 12  1  0
 12 13  1  6
 13 20  1  0
 13 14  2  0
 16 18  1  0
 16 15  1  0
 17 16  2  0
 19 21  1  0
 19 18  1  1
 20 19  1  0
 21 22  1  0
 23 21  2  0
M  END
$$$$
