KTF.pdb
     RDKit          3D

 28 28  0  0  1  0  0  0  0  0999 V2000
    9.4282  -15.5676   20.1567 N   0  0  0  0  0  0  0  0  0  0  0  0
    8.4814  -14.6999   20.7668 C   0  0  1  0  0  0  0  0  0  0  0  0
    7.3426  -14.3287   19.9191 C   0  0  0  0  0  0  0  0  0  0  0  0
    7.4952  -14.1130   18.4923 C   0  0  0  0  0  0  0  0  0  0  0  0
    7.9827  -12.9500   17.7888 C   0  0  0  0  0  0  0  0  0  0  0  0
    8.5810  -12.9826   16.4383 C   0  0  0  0  0  0  0  0  0  0  0  0
    7.4779  -13.5205   15.5501 N   0  0  0  0  0  0  0  0  0  0  0  0
    8.0264  -15.3683   22.0481 C   0  0  0  0  0  0  0  0  0  0  0  0
    7.0644  -14.8527   22.6512 O   0  0  0  0  0  0  0  0  0  0  0  0
    7.8166  -19.2888   22.7490 C   0  0  0  0  0  0  0  0  0  0  0  0
    8.6782  -18.5878   23.7609 C   0  0  1  0  0  0  0  0  0  0  0  0
   10.0329  -18.6868   23.4140 O   0  0  0  0  0  0  0  0  0  0  0  0
    8.2671  -17.1121   23.8511 C   0  0  2  0  0  0  0  0  0  0  0  0
    8.6278  -16.5212   22.5778 N   0  0  0  0  0  0  0  0  0  0  0  0
    9.0580  -16.4812   24.9613 C   0  0  0  0  0  0  0  0  0  0  0  0
   10.1607  -15.9020   24.7538 O   0  0  0  0  0  0  0  0  0  0  0  0
    8.6110  -16.4997   26.3047 N   0  0  0  0  0  0  0  0  0  0  0  0
    9.4003  -15.9782   27.4190 C   0  0  1  0  0  0  0  0  0  0  0  0
    8.4463  -14.9970   28.1089 C   0  0  0  0  0  0  0  0  0  0  0  0
    8.0705  -13.8561   27.3053 C   0  0  0  0  0  0  0  0  0  0  0  0
    8.9283  -12.8008   27.1225 C   0  0  0  0  0  0  0  0  0  0  0  0
    8.5574  -11.6996   26.3428 C   0  0  0  0  0  0  0  0  0  0  0  0
    7.3208  -11.6566   25.7436 C   0  0  0  0  0  0  0  0  0  0  0  0
    6.4585  -12.7123   25.9246 C   0  0  0  0  0  0  0  0  0  0  0  0
    6.8378  -13.7934   26.6971 C   0  0  0  0  0  0  0  0  0  0  0  0
    9.8243  -17.0231   28.3425 C   0  0  0  0  0  0  0  0  0  0  0  0
    9.3498  -18.1757   28.2589 O   0  0  0  0  0  0  0  0  0  0  0  0
   10.7553  -16.7589   29.3229 O   0  0  0  0  0  0  0  0  0  0  0  0
  2  1  1  6
  2  3  1  0
  4  3  1  0
  5  6  1  0
  5  4  1  0
  7  6  1  0
  8  9  2  0
  8  2  1  0
 11 10  1  6
 11 13  1  0
 12 11  1  0
 13 14  1  6
 14  8  1  0
 15 16  2  0
 15 13  1  0
 17 15  1  0
 18 19  1  1
 18 17  1  0
 20 19  1  0
 20 21  2  0
 22 21  1  0
 23 22  2  0
 24 25  2  0
 24 23  1  0
 25 20  1  0
 26 18  1  0
 27 26  2  0
 28 26  1  0
M  END
$$$$
