KTF.pdb
     RDKit          3D

 28 28  0  0  1  0  0  0  0  0999 V2000
   11.9580  -15.8791   19.0767 N   0  0  0  0  0  0  0  0  0  0  0  0
   11.7162  -16.7749   20.1540 C   0  0  1  0  0  0  0  0  0  0  0  0
   12.9110  -17.4341   20.6937 C   0  0  0  0  0  0  0  0  0  0  0  0
   12.8170  -18.6359   21.5013 C   0  0  0  0  0  0  0  0  0  0  0  0
   13.0968  -20.0059   21.1408 C   0  0  0  0  0  0  0  0  0  0  0  0
   13.0869  -21.1367   22.0916 C   0  0  0  0  0  0  0  0  0  0  0  0
   13.3413  -22.3563   21.2297 N   0  0  0  0  0  0  0  0  0  0  0  0
   10.9798  -15.9952   21.2241 C   0  0  0  0  0  0  0  0  0  0  0  0
   11.5358  -14.9718   21.6701 O   0  0  0  0  0  0  0  0  0  0  0  0
    7.7020  -14.2630   21.2670 C   0  0  0  0  0  0  0  0  0  0  0  0
    7.6336  -15.3661   22.2849 C   0  0  1  0  0  0  0  0  0  0  0  0
    7.0670  -16.5214   21.7285 O   0  0  0  0  0  0  0  0  0  0  0  0
    9.0443  -15.6731   22.8051 C   0  0  2  0  0  0  0  0  0  0  0  0
    9.7226  -16.3655   21.7276 N   0  0  0  0  0  0  0  0  0  0  0  0
    8.9085  -16.5735   23.9995 C   0  0  0  0  0  0  0  0  0  0  0  0
    9.3395  -17.7605   23.9970 O   0  0  0  0  0  0  0  0  0  0  0  0
    8.2891  -16.1418   25.1975 N   0  0  0  0  0  0  0  0  0  0  0  0
    8.0485  -17.0239   26.3379 C   0  0  1  0  0  0  0  0  0  0  0  0
    7.6348  -16.0621   27.4571 C   0  0  0  0  0  0  0  0  0  0  0  0
    8.6953  -15.2065   27.9389 C   0  0  0  0  0  0  0  0  0  0  0  0
    9.6052  -15.6531   28.8639 C   0  0  0  0  0  0  0  0  0  0  0  0
   10.6294  -14.8188   29.3255 C   0  0  0  0  0  0  0  0  0  0  0  0
   10.7417  -13.5310   28.8574 C   0  0  0  0  0  0  0  0  0  0  0  0
    9.8316  -13.0800   27.9305 C   0  0  0  0  0  0  0  0  0  0  0  0
    8.8252  -13.9147   27.4833 C   0  0  0  0  0  0  0  0  0  0  0  0
    6.9968  -17.9994   26.0793 C   0  0  0  0  0  0  0  0  0  0  0  0
    6.2100  -17.8464   25.1210 O   0  0  0  0  0  0  0  0  0  0  0  0
    6.8517  -19.1066   26.8860 O   0  0  0  0  0  0  0  0  0  0  0  0
  2  1  1  6
  2  3  1  0
  4  3  1  0
  5  6  1  0
  5  4  1  0
  7  6  1  0
  8  9  2  0
  8  2  1  0
 11 10  1  6
 11 13  1  0
 12 11  1  0
 13 14  1  6
 14  8  1  0
 15 16  2  0
 15 13  1  0
 17 15  1  0
 18 19  1  1
 18 17  1  0
 20 19  1  0
 20 21  2  0
 22 21  1  0
 23 22  2  0
 24 25  2  0
 24 23  1  0
 25 20  1  0
 26 18  1  0
 27 26  2  0
 28 26  1  0
M  END
$$$$
