KTF.pdb
     RDKit          3D

 28 28  0  0  1  0  0  0  0  0999 V2000
    8.6930  -18.5533   20.1544 N   0  0  0  0  0  0  0  0  0  0  0  0
   10.0132  -18.0847   19.9114 C   0  0  1  0  0  0  0  0  0  0  0  0
   10.4450  -18.1435   18.5102 C   0  0  0  0  0  0  0  0  0  0  0  0
    9.6855  -18.8706   17.5104 C   0  0  0  0  0  0  0  0  0  0  0  0
    9.9243  -18.9974   16.0919 C   0  0  0  0  0  0  0  0  0  0  0  0
   10.5617  -20.1684   15.4552 C   0  0  0  0  0  0  0  0  0  0  0  0
   10.4529  -19.8954   13.9691 N   0  0  0  0  0  0  0  0  0  0  0  0
   10.0924  -16.6743   20.4592 C   0  0  0  0  0  0  0  0  0  0  0  0
   11.1977  -16.0998   20.4006 O   0  0  0  0  0  0  0  0  0  0  0  0
    7.7707  -13.6210   19.6555 C   0  0  0  0  0  0  0  0  0  0  0  0
    7.7267  -13.9846   21.1127 C   0  0  1  0  0  0  0  0  0  0  0  0
    6.6632  -14.8598   21.3747 O   0  0  0  0  0  0  0  0  0  0  0  0
    9.0545  -14.6376   21.5195 C   0  0  2  0  0  0  0  0  0  0  0  0
    8.9978  -15.9969   21.0197 N   0  0  0  0  0  0  0  0  0  0  0  0
    9.1274  -14.6364   23.0196 C   0  0  0  0  0  0  0  0  0  0  0  0
    9.2662  -13.5711   23.6834 O   0  0  0  0  0  0  0  0  0  0  0  0
    9.0438  -15.8309   23.7754 N   0  0  0  0  0  0  0  0  0  0  0  0
    8.6850  -15.8592   25.1921 C   0  0  1  0  0  0  0  0  0  0  0  0
    7.2239  -15.3966   25.2036 C   0  0  0  0  0  0  0  0  0  0  0  0
    7.0009  -14.1205   25.8444 C   0  0  0  0  0  0  0  0  0  0  0  0
    7.9917  -13.1733   25.9077 C   0  0  0  0  0  0  0  0  0  0  0  0
    7.7683  -11.9398   26.5297 C   0  0  0  0  0  0  0  0  0  0  0  0
    6.5458  -11.6550   27.0905 C   0  0  0  0  0  0  0  0  0  0  0  0
    5.5505  -12.6019   27.0290 C   0  0  0  0  0  0  0  0  0  0  0  0
    5.7850  -13.8157   26.4117 C   0  0  0  0  0  0  0  0  0  0  0  0
    8.8110  -17.1890   25.7753 C   0  0  0  0  0  0  0  0  0  0  0  0
    8.7111  -18.2085   25.0602 O   0  0  0  0  0  0  0  0  0  0  0  0
    9.0426  -17.3455   27.1242 O   0  0  0  0  0  0  0  0  0  0  0  0
  2  1  1  6
  2  3  1  0
  4  3  1  0
  5  6  1  0
  5  4  1  0
  7  6  1  0
  8  9  2  0
  8  2  1  0
 11 10  1  6
 11 13  1  0
 12 11  1  0
 13 14  1  1
 14  8  1  0
 15 16  2  0
 15 13  1  0
 17 15  1  0
 18 19  1  6
 18 17  1  0
 20 19  1  0
 20 21  2  0
 22 21  1  0
 23 22  2  0
 24 25  2  0
 24 23  1  0
 25 20  1  0
 26 18  1  0
 27 26  2  0
 28 26  1  0
M  END
$$$$
