KTF.pdb
     RDKit          3D

 28 28  0  0  1  0  0  0  0  0999 V2000
    9.8349  -16.9884   19.5147 N   0  0  0  0  0  0  0  0  0  0  0  0
    9.4140  -15.8485   20.2530 C   0  0  1  0  0  0  0  0  0  0  0  0
    8.4703  -14.9692   19.5534 C   0  0  0  0  0  0  0  0  0  0  0  0
    8.4692  -14.8523   18.1071 C   0  0  0  0  0  0  0  0  0  0  0  0
    7.7000  -13.9715   17.2600 C   0  0  0  0  0  0  0  0  0  0  0  0
    7.7681  -13.9648   15.7841 C   0  0  0  0  0  0  0  0  0  0  0  0
    6.7127  -12.9631   15.3625 N   0  0  0  0  0  0  0  0  0  0  0  0
    8.8391  -16.3532   21.5608 C   0  0  0  0  0  0  0  0  0  0  0  0
    7.8931  -17.1631   21.4945 O   0  0  0  0  0  0  0  0  0  0  0  0
   11.0561  -17.9656   23.3049 C   0  0  0  0  0  0  0  0  0  0  0  0
    9.6546  -18.0872   23.8326 C   0  0  1  0  0  0  0  0  0  0  0  0
    9.6375  -18.8044   25.0371 O   0  0  0  0  0  0  0  0  0  0  0  0
    9.0638  -16.6874   24.0483 C   0  0  2  0  0  0  0  0  0  0  0  0
    9.3143  -15.9576   22.8214 N   0  0  0  0  0  0  0  0  0  0  0  0
    9.7975  -16.0497   25.1932 C   0  0  0  0  0  0  0  0  0  0  0  0
   10.9656  -15.5871   25.0667 O   0  0  0  0  0  0  0  0  0  0  0  0
    9.2199  -15.9305   26.4806 N   0  0  0  0  0  0  0  0  0  0  0  0
    9.9084  -15.3153   27.6138 C   0  0  1  0  0  0  0  0  0  0  0  0
    8.8114  -14.4941   28.3000 C   0  0  0  0  0  0  0  0  0  0  0  0
    8.1749  -13.5116   27.4525 C   0  0  0  0  0  0  0  0  0  0  0  0
    6.9666  -13.7644   26.8534 C   0  0  0  0  0  0  0  0  0  0  0  0
    6.3564  -12.8080   26.0342 C   0  0  0  0  0  0  0  0  0  0  0  0
    6.9605  -11.5927   25.8149 C   0  0  0  0  0  0  0  0  0  0  0  0
    8.1715  -11.3358   26.4135 C   0  0  0  0  0  0  0  0  0  0  0  0
    8.7628  -12.2894   27.2201 C   0  0  0  0  0  0  0  0  0  0  0  0
   10.4675  -16.3003   28.5312 C   0  0  0  0  0  0  0  0  0  0  0  0
   10.1972  -17.5133   28.4030 O   0  0  0  0  0  0  0  0  0  0  0  0
   11.3034  -15.9120   29.5550 O   0  0  0  0  0  0  0  0  0  0  0  0
  2  1  1  6
  2  3  1  0
  4  3  1  0
  5  6  1  0
  5  4  1  0
  7  6  1  0
  8  9  2  0
  8  2  1  0
 11 10  1  1
 11 13  1  0
 12 11  1  0
 13 14  1  6
 14  8  1  0
 15 16  2  0
 15 13  1  0
 17 15  1  0
 18 19  1  1
 18 17  1  0
 20 19  1  0
 20 21  2  0
 22 21  1  0
 23 22  2  0
 24 25  2  0
 24 23  1  0
 25 20  1  0
 26 18  1  0
 27 26  2  0
 28 26  1  0
M  END
$$$$
