KTF.pdb
     RDKit          3D

 28 28  0  0  1  0  0  0  0  0999 V2000
    7.0879  -17.0536   20.0398 N   0  0  0  0  0  0  0  0  0  0  0  0
    6.8156  -17.0196   21.4349 C   0  0  1  0  0  0  0  0  0  0  0  0
    5.6618  -17.8193   21.8621 C   0  0  0  0  0  0  0  0  0  0  0  0
    4.7959  -18.4780   20.9021 C   0  0  0  0  0  0  0  0  0  0  0  0
    3.5435  -19.1637   21.1179 C   0  0  0  0  0  0  0  0  0  0  0  0
    2.7007  -19.7193   20.0391 C   0  0  0  0  0  0  0  0  0  0  0  0
    1.5110  -20.3183   20.7607 N   0  0  0  0  0  0  0  0  0  0  0  0
    8.0831  -17.4476   22.1460 C   0  0  0  0  0  0  0  0  0  0  0  0
    8.6832  -18.4433   21.6945 O   0  0  0  0  0  0  0  0  0  0  0  0
   10.7183  -17.8595   21.6806 C   0  0  0  0  0  0  0  0  0  0  0  0
   10.9384  -16.8949   22.8113 C   0  0  1  0  0  0  0  0  0  0  0  0
   10.8866  -15.5712   22.3525 O   0  0  0  0  0  0  0  0  0  0  0  0
    9.8706  -17.1170   23.8910 C   0  0  2  0  0  0  0  0  0  0  0  0
    8.6035  -16.7864   23.2699 N   0  0  0  0  0  0  0  0  0  0  0  0
   10.1581  -16.1732   25.0234 C   0  0  0  0  0  0  0  0  0  0  0  0
   10.8011  -15.0996   24.8548 O   0  0  0  0  0  0  0  0  0  0  0  0
    9.7234  -16.4340   26.3456 N   0  0  0  0  0  0  0  0  0  0  0  0
   10.2017  -15.6880   27.5080 C   0  0  1  0  0  0  0  0  0  0  0  0
    8.9203  -15.1093   28.1178 C   0  0  0  0  0  0  0  0  0  0  0  0
    8.2109  -14.1842   27.2635 C   0  0  0  0  0  0  0  0  0  0  0  0
    7.1811  -14.6043   26.4599 C   0  0  0  0  0  0  0  0  0  0  0  0
    6.4988  -13.7026   25.6356 C   0  0  0  0  0  0  0  0  0  0  0  0
    6.8508  -12.3737   25.6172 C   0  0  0  0  0  0  0  0  0  0  0  0
    7.8823  -11.9491   26.4212 C   0  0  0  0  0  0  0  0  0  0  0  0
    8.5474  -12.8504   27.2303 C   0  0  0  0  0  0  0  0  0  0  0  0
   10.8957  -16.5348   28.4702 C   0  0  0  0  0  0  0  0  0  0  0  0
   11.4108  -16.0411   29.4957 O   0  0  0  0  0  0  0  0  0  0  0  0
   10.9956  -17.8935   28.2666 O   0  0  0  0  0  0  0  0  0  0  0  0
  2  1  1  6
  2  3  1  0
  4  3  1  0
  5  6  1  0
  5  4  1  0
  7  6  1  0
  8  9  2  0
  8  2  1  0
 11 10  1  6
 11 13  1  0
 12 11  1  0
 13 14  1  6
 14  8  1  0
 15 16  2  0
 15 13  1  0
 17 15  1  0
 18 19  1  1
 18 17  1  0
 20 19  1  0
 20 21  2  0
 22 21  1  0
 23 22  2  0
 24 25  2  0
 24 23  1  0
 25 20  1  0
 26 18  1  0
 27 26  2  0
 28 26  1  0
M  END
$$$$
