KTF.pdb
     RDKit          3D

 28 28  0  0  1  0  0  0  0  0999 V2000
   10.3436  -15.0319   18.8705 N   0  0  0  0  0  0  0  0  0  0  0  0
    9.2356  -14.3392   19.4311 C   0  0  1  0  0  0  0  0  0  0  0  0
    8.2370  -13.8763   18.4606 C   0  0  0  0  0  0  0  0  0  0  0  0
    8.4078  -14.0862   17.0351 C   0  0  0  0  0  0  0  0  0  0  0  0
    7.6126  -13.5936   15.9350 C   0  0  0  0  0  0  0  0  0  0  0  0
    7.9384  -13.8069   14.5098 C   0  0  0  0  0  0  0  0  0  0  0  0
    6.7984  -13.1488   13.7598 N   0  0  0  0  0  0  0  0  0  0  0  0
    8.6193  -15.2531   20.4705 C   0  0  0  0  0  0  0  0  0  0  0  0
    7.7084  -16.0163   20.0922 O   0  0  0  0  0  0  0  0  0  0  0  0
    8.8065  -17.8841   20.8172 C   0  0  0  0  0  0  0  0  0  0  0  0
    9.3155  -17.6109   22.2042 C   0  0  1  0  0  0  0  0  0  0  0  0
   10.7108  -17.4747   22.2036 O   0  0  0  0  0  0  0  0  0  0  0  0
    8.6647  -16.3317   22.7473 C   0  0  2  0  0  0  0  0  0  0  0  0
    9.0197  -15.2795   21.8159 N   0  0  0  0  0  0  0  0  0  0  0  0
    9.2565  -16.0527   24.0993 C   0  0  0  0  0  0  0  0  0  0  0  0
   10.3958  -15.5256   24.2368 O   0  0  0  0  0  0  0  0  0  0  0  0
    8.5695  -16.3647   25.2975 N   0  0  0  0  0  0  0  0  0  0  0  0
    9.0809  -16.0288   26.6250 C   0  0  1  0  0  0  0  0  0  0  0  0
    7.8803  -15.3772   27.3200 C   0  0  0  0  0  0  0  0  0  0  0  0
    7.5526  -14.0534   26.8415 C   0  0  0  0  0  0  0  0  0  0  0  0
    8.3268  -12.9678   27.1655 C   0  0  0  0  0  0  0  0  0  0  0  0
    8.0032  -11.6891   26.6983 C   0  0  0  0  0  0  0  0  0  0  0  0
    6.8984  -11.4983   25.9025 C   0  0  0  0  0  0  0  0  0  0  0  0
    6.1202  -12.5839   25.5758 C   0  0  0  0  0  0  0  0  0  0  0  0
    6.4515  -13.8410   26.0442 C   0  0  0  0  0  0  0  0  0  0  0  0
    9.5328  -17.2010   27.3641 C   0  0  0  0  0  0  0  0  0  0  0  0
   10.0546  -17.0783   28.4925 O   0  0  0  0  0  0  0  0  0  0  0  0
    9.3924  -18.4640   26.8324 O   0  0  0  0  0  0  0  0  0  0  0  0
  2  1  1  6
  2  3  1  0
  4  3  1  0
  5  6  1  0
  5  4  1  0
  7  6  1  0
  8  9  2  0
  8  2  1  0
 11 10  1  6
 11 13  1  0
 12 11  1  0
 13 14  1  6
 14  8  1  0
 15 16  2  0
 15 13  1  0
 17 15  1  0
 18 19  1  1
 18 17  1  0
 20 19  1  0
 20 21  2  0
 22 21  1  0
 23 22  2  0
 24 25  2  0
 24 23  1  0
 25 20  1  0
 26 18  1  0
 27 26  2  0
 28 26  1  0
M  END
$$$$
