KTF.pdb
     RDKit          3D

 28 28  0  0  1  0  0  0  0  0999 V2000
    7.1792  -16.3221   19.7727 N   0  0  0  0  0  0  0  0  0  0  0  0
    8.0217  -15.5532   20.6215 C   0  0  1  0  0  0  0  0  0  0  0  0
    7.7581  -14.1097   20.6157 C   0  0  0  0  0  0  0  0  0  0  0  0
    7.7523  -13.3427   19.3840 C   0  0  0  0  0  0  0  0  0  0  0  0
    8.4886  -13.5665   18.1622 C   0  0  0  0  0  0  0  0  0  0  0  0
    8.2910  -12.7966   16.9168 C   0  0  0  0  0  0  0  0  0  0  0  0
    9.1821  -13.4841   15.9029 N   0  0  0  0  0  0  0  0  0  0  0  0
    7.8997  -16.1354   22.0149 C   0  0  0  0  0  0  0  0  0  0  0  0
    6.9207  -16.8737   22.2421 O   0  0  0  0  0  0  0  0  0  0  0  0
    8.8101  -18.7522   22.8110 C   0  0  0  0  0  0  0  0  0  0  0  0
    9.6936  -17.9858   23.7542 C   0  0  1  0  0  0  0  0  0  0  0  0
   10.9035  -17.6432   23.1342 O   0  0  0  0  0  0  0  0  0  0  0  0
    8.9674  -16.7174   24.2219 C   0  0  2  0  0  0  0  0  0  0  0  0
    8.8221  -15.8860   23.0437 N   0  0  0  0  0  0  0  0  0  0  0  0
    9.8397  -16.0355   25.2368 C   0  0  0  0  0  0  0  0  0  0  0  0
   10.8688  -15.3827   24.9060 O   0  0  0  0  0  0  0  0  0  0  0  0
    9.5569  -16.0856   26.6233 N   0  0  0  0  0  0  0  0  0  0  0  0
   10.3056  -15.3246   27.6218 C   0  0  1  0  0  0  0  0  0  0  0  0
    9.2160  -14.5738   28.3950 C   0  0  0  0  0  0  0  0  0  0  0  0
    8.3690  -13.7332   27.5796 C   0  0  0  0  0  0  0  0  0  0  0  0
    7.1477  -14.1724   27.1343 C   0  0  0  0  0  0  0  0  0  0  0  0
    6.3331  -13.3526   26.3453 C   0  0  0  0  0  0  0  0  0  0  0  0
    6.7451  -12.0869   26.0014 C   0  0  0  0  0  0  0  0  0  0  0  0
    7.9685  -11.6434   26.4459 C   0  0  0  0  0  0  0  0  0  0  0  0
    8.7627  -12.4635   27.2244 C   0  0  0  0  0  0  0  0  0  0  0  0
   11.0774  -16.1798   28.5147 C   0  0  0  0  0  0  0  0  0  0  0  0
   10.9644  -17.4228   28.4591 O   0  0  0  0  0  0  0  0  0  0  0  0
   11.9448  -15.6335   29.4350 O   0  0  0  0  0  0  0  0  0  0  0  0
  2  1  1  6
  2  3  1  0
  4  3  1  0
  5  6  1  0
  5  4  1  0
  7  6  1  0
  8  9  2  0
  8  2  1  0
 11 10  1  6
 11 13  1  0
 12 11  1  0
 13 14  1  6
 14  8  1  0
 15 16  2  0
 15 13  1  0
 17 15  1  0
 18 19  1  1
 18 17  1  0
 20 19  1  0
 20 21  2  0
 22 21  1  0
 23 22  2  0
 24 25  2  0
 24 23  1  0
 25 20  1  0
 26 18  1  0
 27 26  2  0
 28 26  1  0
M  END
$$$$
