KTF.pdb
     RDKit          3D

 28 28  0  0  1  0  0  0  0  0999 V2000
    8.7674  -17.9911   18.9798 N   0  0  0  0  0  0  0  0  0  0  0  0
    8.2456  -16.6685   18.9702 C   0  0  1  0  0  0  0  0  0  0  0  0
    7.2140  -16.4152   17.9578 C   0  0  0  0  0  0  0  0  0  0  0  0
    7.4357  -16.7132   16.5552 C   0  0  0  0  0  0  0  0  0  0  0  0
    8.1992  -17.7822   15.9555 C   0  0  0  0  0  0  0  0  0  0  0  0
    8.3012  -18.0193   14.5007 C   0  0  0  0  0  0  0  0  0  0  0  0
    7.1673  -17.2094   13.9063 N   0  0  0  0  0  0  0  0  0  0  0  0
    7.7359  -16.3812   20.3677 C   0  0  0  0  0  0  0  0  0  0  0  0
    7.0915  -15.3268   20.5355 O   0  0  0  0  0  0  0  0  0  0  0  0
    5.6196  -18.5542   22.4657 C   0  0  0  0  0  0  0  0  0  0  0  0
    6.8331  -18.2558   23.2999 C   0  0  1  0  0  0  0  0  0  0  0  0
    7.7537  -19.3111   23.2332 O   0  0  0  0  0  0  0  0  0  0  0  0
    7.4878  -16.9580   22.8081 C   0  0  2  0  0  0  0  0  0  0  0  0
    7.9522  -17.2327   21.4629 N   0  0  0  0  0  0  0  0  0  0  0  0
    8.6508  -16.6588   23.7102 C   0  0  0  0  0  0  0  0  0  0  0  0
    9.8346  -16.9760   23.4058 O   0  0  0  0  0  0  0  0  0  0  0  0
    8.4856  -16.0028   24.9542 N   0  0  0  0  0  0  0  0  0  0  0  0
    9.5856  -15.7653   25.8870 C   0  0  1  0  0  0  0  0  0  0  0  0
    9.7692  -14.2442   25.8486 C   0  0  0  0  0  0  0  0  0  0  0  0
    8.5650  -13.4853   26.0995 C   0  0  0  0  0  0  0  0  0  0  0  0
    7.6244  -13.2982   25.1182 C   0  0  0  0  0  0  0  0  0  0  0  0
    6.4609  -12.5624   25.3687 C   0  0  0  0  0  0  0  0  0  0  0  0
    6.2396  -12.0119   26.6089 C   0  0  0  0  0  0  0  0  0  0  0  0
    7.1801  -12.1973   27.5948 C   0  0  0  0  0  0  0  0  0  0  0  0
    8.3246  -12.9262   27.3335 C   0  0  0  0  0  0  0  0  0  0  0  0
    9.2802  -16.2153   27.2393 C   0  0  0  0  0  0  0  0  0  0  0  0
    8.1608  -16.6995   27.5102 O   0  0  0  0  0  0  0  0  0  0  0  0
   10.2194  -16.1153   28.2420 O   0  0  0  0  0  0  0  0  0  0  0  0
  2  1  1  1
  2  3  1  0
  4  3  1  0
  5  6  1  0
  5  4  1  0
  7  6  1  0
  8  9  2  0
  8  2  1  0
 11 10  1  6
 11 13  1  0
 12 11  1  0
 13 14  1  6
 14  8  1  0
 15 16  2  0
 15 13  1  0
 17 15  1  0
 18 19  1  1
 18 17  1  0
 20 19  1  0
 20 21  2  0
 22 21  1  0
 23 22  2  0
 24 25  2  0
 24 23  1  0
 25 20  1  0
 26 18  1  0
 27 26  2  0
 28 26  1  0
M  END
$$$$
