KTF.pdb
     RDKit          3D

 28 28  0  0  1  0  0  0  0  0999 V2000
    7.2007  -16.7269   19.3603 N   0  0  0  0  0  0  0  0  0  0  0  0
    7.9387  -15.8777   20.2297 C   0  0  1  0  0  0  0  0  0  0  0  0
    7.4914  -14.4805   20.2604 C   0  0  0  0  0  0  0  0  0  0  0  0
    7.5124  -13.6491   19.0714 C   0  0  0  0  0  0  0  0  0  0  0  0
    8.5530  -12.7749   18.5833 C   0  0  0  0  0  0  0  0  0  0  0  0
    9.2802  -12.9730   17.3126 C   0  0  0  0  0  0  0  0  0  0  0  0
    8.1919  -13.0303   16.2603 N   0  0  0  0  0  0  0  0  0  0  0  0
    7.8952  -16.5061   21.6077 C   0  0  0  0  0  0  0  0  0  0  0  0
    7.0223  -17.3728   21.8132 O   0  0  0  0  0  0  0  0  0  0  0  0
    8.4265  -18.9643   22.5402 C   0  0  0  0  0  0  0  0  0  0  0  0
    9.4401  -18.3100   23.4358 C   0  0  1  0  0  0  0  0  0  0  0  0
   10.6727  -18.1810   22.7805 O   0  0  0  0  0  0  0  0  0  0  0  0
    8.9289  -16.9286   23.8665 C   0  0  2  0  0  0  0  0  0  0  0  0
    8.7768  -16.1632   22.6451 N   0  0  0  0  0  0  0  0  0  0  0  0
    9.9745  -16.3047   24.7459 C   0  0  0  0  0  0  0  0  0  0  0  0
   11.0570  -15.8497   24.2813 O   0  0  0  0  0  0  0  0  0  0  0  0
    9.8053  -16.1908   26.1471 N   0  0  0  0  0  0  0  0  0  0  0  0
   10.7691  -15.5216   27.0188 C   0  0  1  0  0  0  0  0  0  0  0  0
   10.5309  -14.0327   26.7443 C   0  0  0  0  0  0  0  0  0  0  0  0
    9.1704  -13.5917   26.9527 C   0  0  0  0  0  0  0  0  0  0  0  0
    8.8089  -12.9117   28.0883 C   0  0  0  0  0  0  0  0  0  0  0  0
    7.4896  -12.4877   28.2829 C   0  0  0  0  0  0  0  0  0  0  0  0
    6.5288  -12.7467   27.3344 C   0  0  0  0  0  0  0  0  0  0  0  0
    6.8874  -13.4279   26.1950 C   0  0  0  0  0  0  0  0  0  0  0  0
    8.1939  -13.8408   26.0159 C   0  0  0  0  0  0  0  0  0  0  0  0
   10.5569  -15.8281   28.4279 C   0  0  0  0  0  0  0  0  0  0  0  0
    9.6618  -16.6269   28.7765 O   0  0  0  0  0  0  0  0  0  0  0  0
   11.3389  -15.2435   29.3996 O   0  0  0  0  0  0  0  0  0  0  0  0
  2  1  1  6
  2  3  1  0
  4  3  1  0
  5  6  1  0
  5  4  1  0
  7  6  1  0
  8  9  2  0
  8  2  1  0
 11 10  1  6
 11 13  1  0
 12 11  1  0
 13 14  1  6
 14  8  1  0
 15 16  2  0
 15 13  1  0
 17 15  1  0
 18 19  1  1
 18 17  1  0
 20 19  1  0
 20 21  2  0
 22 21  1  0
 23 22  2  0
 24 25  2  0
 24 23  1  0
 25 20  1  0
 26 18  1  0
 27 26  2  0
 28 26  1  0
M  END
$$$$
