KTF.pdb
     RDKit          3D

 28 28  0  0  1  0  0  0  0  0999 V2000
    7.0332  -17.6296   19.7451 N   0  0  0  0  0  0  0  0  0  0  0  0
    7.5246  -16.5400   20.5151 C   0  0  1  0  0  0  0  0  0  0  0  0
    6.7404  -15.3039   20.4131 C   0  0  0  0  0  0  0  0  0  0  0  0
    7.3388  -14.0025   20.6449 C   0  0  0  0  0  0  0  0  0  0  0  0
    8.3715  -13.3232   19.8984 C   0  0  0  0  0  0  0  0  0  0  0  0
    8.8878  -11.9778   20.2245 C   0  0  0  0  0  0  0  0  0  0  0  0
    9.9744  -11.7319   19.1980 N   0  0  0  0  0  0  0  0  0  0  0  0
    7.6249  -17.0183   21.9492 C   0  0  0  0  0  0  0  0  0  0  0  0
    6.9002  -17.9765   22.2840 O   0  0  0  0  0  0  0  0  0  0  0  0
    9.1055  -19.2120   22.9864 C   0  0  0  0  0  0  0  0  0  0  0  0
    9.7861  -18.1921   23.8549 C   0  0  1  0  0  0  0  0  0  0  0  0
   10.9254  -17.6790   23.2192 O   0  0  0  0  0  0  0  0  0  0  0  0
    8.8073  -17.0541   24.1741 C   0  0  2  0  0  0  0  0  0  0  0  0
    8.4812  -16.4425   22.9012 N   0  0  0  0  0  0  0  0  0  0  0  0
    9.5183  -16.0701   25.0584 C   0  0  0  0  0  0  0  0  0  0  0  0
   10.3687  -15.2539   24.6053 O   0  0  0  0  0  0  0  0  0  0  0  0
    9.2747  -16.0015   26.4516 N   0  0  0  0  0  0  0  0  0  0  0  0
   10.1050  -15.2282   27.3730 C   0  0  1  0  0  0  0  0  0  0  0  0
    9.0846  -14.5200   28.2708 C   0  0  0  0  0  0  0  0  0  0  0  0
    8.2218  -13.5867   27.5826 C   0  0  0  0  0  0  0  0  0  0  0  0
    8.6330  -12.3066   27.3087 C   0  0  0  0  0  0  0  0  0  0  0  0
    7.7921  -11.4087   26.6418 C   0  0  0  0  0  0  0  0  0  0  0  0
    6.5333  -11.7964   26.2477 C   0  0  0  0  0  0  0  0  0  0  0  0
    6.1178  -13.0785   26.5206 C   0  0  0  0  0  0  0  0  0  0  0  0
    6.9586  -13.9547   27.1799 C   0  0  0  0  0  0  0  0  0  0  0  0
   10.9950  -16.0684   28.1646 C   0  0  0  0  0  0  0  0  0  0  0  0
   10.8961  -17.3131   28.1245 O   0  0  0  0  0  0  0  0  0  0  0  0
   11.9604  -15.5057   28.9701 O   0  0  0  0  0  0  0  0  0  0  0  0
  2  1  1  6
  2  3  1  0
  4  3  1  0
  5  6  1  0
  5  4  1  0
  7  6  1  0
  8  9  2  0
  8  2  1  0
 11 10  1  6
 11 13  1  0
 12 11  1  0
 13 14  1  6
 14  8  1  0
 15 16  2  0
 15 13  1  0
 17 15  1  0
 18 19  1  1
 18 17  1  0
 20 19  1  0
 20 21  2  0
 22 21  1  0
 23 22  2  0
 24 25  2  0
 24 23  1  0
 25 20  1  0
 26 18  1  0
 27 26  2  0
 28 26  1  0
M  END
$$$$
