KTF.pdb
     RDKit          3D

 28 28  0  0  1  0  0  0  0  0999 V2000
    9.8193  -18.5313   18.8531 N   0  0  0  0  0  0  0  0  0  0  0  0
   10.9717  -17.7867   19.2260 C   0  0  1  0  0  0  0  0  0  0  0  0
   11.7426  -17.2334   18.1067 C   0  0  0  0  0  0  0  0  0  0  0  0
   12.5653  -18.0767   17.2597 C   0  0  0  0  0  0  0  0  0  0  0  0
   12.6720  -19.5164   17.2276 C   0  0  0  0  0  0  0  0  0  0  0  0
   13.5754  -20.2655   16.3301 C   0  0  0  0  0  0  0  0  0  0  0  0
   14.9666  -19.8566   16.7685 N   0  0  0  0  0  0  0  0  0  0  0  0
   10.5108  -16.6994   20.1753 C   0  0  0  0  0  0  0  0  0  0  0  0
   11.3682  -15.8843   20.5700 O   0  0  0  0  0  0  0  0  0  0  0  0
    6.8793  -15.0176   19.9784 C   0  0  0  0  0  0  0  0  0  0  0  0
    7.2125  -15.4678   21.3726 C   0  0  1  0  0  0  0  0  0  0  0  0
    6.6418  -16.7201   21.6402 O   0  0  0  0  0  0  0  0  0  0  0  0
    8.7364  -15.5407   21.5384 C   0  0  2  0  0  0  0  0  0  0  0  0
    9.1863  -16.5701   20.6228 N   0  0  0  0  0  0  0  0  0  0  0  0
    9.0263  -15.9413   22.9566 C   0  0  0  0  0  0  0  0  0  0  0  0
    9.6820  -16.9830   23.2384 O   0  0  0  0  0  0  0  0  0  0  0  0
    8.5808  -15.1724   24.0590 N   0  0  0  0  0  0  0  0  0  0  0  0
    8.8206  -15.5524   25.4500 C   0  0  1  0  0  0  0  0  0  0  0  0
    9.6115  -14.3681   26.0163 C   0  0  0  0  0  0  0  0  0  0  0  0
    9.9027  -14.4585   27.4291 C   0  0  0  0  0  0  0  0  0  0  0  0
   10.7673  -15.4050   27.9183 C   0  0  0  0  0  0  0  0  0  0  0  0
   11.0445  -15.4862   29.2875 C   0  0  0  0  0  0  0  0  0  0  0  0
   10.4520  -14.6143   30.1700 C   0  0  0  0  0  0  0  0  0  0  0  0
    9.5849  -13.6644   29.6833 C   0  0  0  0  0  0  0  0  0  0  0  0
    9.3203  -13.5955   28.3288 C   0  0  0  0  0  0  0  0  0  0  0  0
    7.5850  -15.7535   26.1966 C   0  0  0  0  0  0  0  0  0  0  0  0
    7.5821  -16.4219   27.2520 O   0  0  0  0  0  0  0  0  0  0  0  0
    6.3994  -15.2106   25.7524 O   0  0  0  0  0  0  0  0  0  0  0  0
  2  1  1  6
  2  3  1  0
  4  3  1  0
  5  6  1  0
  5  4  1  0
  7  6  1  0
  8  9  2  0
  8  2  1  0
 11 10  1  6
 11 13  1  0
 12 11  1  0
 13 14  1  6
 14  8  1  0
 15 16  2  0
 15 13  1  0
 17 15  1  0
 18 19  1  1
 18 17  1  0
 20 19  1  0
 20 21  2  0
 22 21  1  0
 23 22  2  0
 24 25  2  0
 24 23  1  0
 25 20  1  0
 26 18  1  0
 27 26  2  0
 28 26  1  0
M  END
$$$$
