KTF.pdb
     RDKit          3D

 28 28  0  0  1  0  0  0  0  0999 V2000
   10.1320  -15.7727   18.5299 N   0  0  0  0  0  0  0  0  0  0  0  0
    9.2691  -14.7675   19.0462 C   0  0  1  0  0  0  0  0  0  0  0  0
    8.2916  -14.2366   18.0892 C   0  0  0  0  0  0  0  0  0  0  0  0
    8.4085  -14.4875   16.6648 C   0  0  0  0  0  0  0  0  0  0  0  0
    7.7439  -13.8336   15.5621 C   0  0  0  0  0  0  0  0  0  0  0  0
    7.9253  -14.2019   14.1428 C   0  0  0  0  0  0  0  0  0  0  0  0
    6.9119  -13.3547   13.4009 N   0  0  0  0  0  0  0  0  0  0  0  0
    8.5905  -15.3493   20.2695 C   0  0  0  0  0  0  0  0  0  0  0  0
    7.4771  -15.8863   20.1042 O   0  0  0  0  0  0  0  0  0  0  0  0
    7.6818  -17.6764   21.0807 C   0  0  0  0  0  0  0  0  0  0  0  0
    8.5833  -17.5132   22.2716 C   0  0  1  0  0  0  0  0  0  0  0  0
    9.8809  -17.9546   21.9769 O   0  0  0  0  0  0  0  0  0  0  0  0
    8.6151  -16.0380   22.6932 C   0  0  2  0  0  0  0  0  0  0  0  0
    9.1479  -15.3121   21.5576 N   0  0  0  0  0  0  0  0  0  0  0  0
    9.5398  -15.9158   23.8705 C   0  0  0  0  0  0  0  0  0  0  0  0
   10.7464  -15.5666   23.7420 O   0  0  0  0  0  0  0  0  0  0  0  0
    9.1101  -16.1851   25.1926 N   0  0  0  0  0  0  0  0  0  0  0  0
    9.9420  -15.9441   26.3701 C   0  0  1  0  0  0  0  0  0  0  0  0
    9.9668  -14.4163   26.4879 C   0  0  0  0  0  0  0  0  0  0  0  0
    8.6756  -13.8084   26.7159 C   0  0  0  0  0  0  0  0  0  0  0  0
    7.5255  -14.3771   26.2295 C   0  0  0  0  0  0  0  0  0  0  0  0
    6.2788  -13.7828   26.4545 C   0  0  0  0  0  0  0  0  0  0  0  0
    6.1851  -12.6129   27.1706 C   0  0  0  0  0  0  0  0  0  0  0  0
    7.3356  -12.0401   27.6596 C   0  0  0  0  0  0  0  0  0  0  0  0
    8.5601  -12.6379   27.4299 C   0  0  0  0  0  0  0  0  0  0  0  0
    9.3915  -16.5470   27.5776 C   0  0  0  0  0  0  0  0  0  0  0  0
    9.9632  -16.3999   28.6786 O   0  0  0  0  0  0  0  0  0  0  0  0
    8.2319  -17.2889   27.5266 O   0  0  0  0  0  0  0  0  0  0  0  0
  2  1  1  6
  2  3  1  0
  4  3  1  0
  5  6  1  0
  5  4  1  0
  7  6  1  0
  8  9  2  0
  8  2  1  0
 11 10  1  6
 11 13  1  0
 12 11  1  0
 13 14  1  6
 14  8  1  0
 15 16  2  0
 15 13  1  0
 17 15  1  0
 18 19  1  1
 18 17  1  0
 20 19  1  0
 20 21  2  0
 22 21  1  0
 23 22  2  0
 24 25  2  0
 24 23  1  0
 25 20  1  0
 26 18  1  0
 27 26  2  0
 28 26  1  0
M  END
$$$$
