EGR.pdb
     RDKit          3D

 25 24  0  0  1  0  0  0  0  0999 V2000
   17.9897  -23.4468  -11.1665 N   0  0  0  0  0  0  0  0  0  0  0  0
   18.0608  -23.1552   -9.7214 C   0  0  1  0  0  0  0  0  0  0  0  0
   16.8533  -22.4109   -9.2794 C   0  0  0  0  0  0  0  0  0  0  0  0
   15.6617  -23.3114   -9.1572 C   0  0  0  0  0  0  0  0  0  0  0  0
   14.4849  -22.6711   -9.7927 C   0  0  0  0  0  0  0  0  0  0  0  0
   14.5351  -21.5944  -10.4268 O   0  0  0  0  0  0  0  0  0  0  0  0
   18.1568  -24.4643   -9.0268 C   0  0  0  0  0  0  0  0  0  0  0  0
   18.0856  -25.5853   -9.5746 O   0  0  0  0  0  0  0  0  0  0  0  0
   13.2476  -23.2971   -9.6827 O   0  0  0  0  0  0  0  0  0  0  0  0
   18.3488  -24.5259   -7.5942 N   0  0  0  0  0  0  0  0  0  0  0  0
   18.6001  -25.7686   -6.9172 C   0  0  0  0  0  0  0  0  0  0  0  0
   18.7255  -25.4911   -5.4610 C   0  0  0  0  0  0  0  0  0  0  0  0
   18.8052  -24.2897   -5.0274 O   0  0  0  0  0  0  0  0  0  0  0  0
   13.7551  -22.4181   -0.7654 N   0  0  0  0  0  0  0  0  0  0  0  0
   13.7742  -23.6438   -0.0543 C   0  0  0  0  0  0  0  0  0  0  0  0
   13.0662  -23.7447    1.0246 N   0  0  0  0  0  0  0  0  0  0  0  0
   14.5610  -24.7015   -0.5484 N   0  0  0  0  0  0  0  0  0  0  0  0
   15.2373  -24.6097   -1.8341 C   0  0  0  0  0  0  0  0  0  0  0  0
   15.8623  -25.9460   -2.0974 C   0  0  0  0  0  0  0  0  0  0  0  0
   16.6346  -26.0650   -3.3638 C   0  0  0  0  0  0  0  0  0  0  0  0
   18.0662  -26.4384   -3.2185 C   0  0  2  0  0  0  0  0  0  0  0  0
   18.7631  -26.5172   -4.4877 N   0  0  0  0  0  0  0  0  0  0  0  0
   18.3007  -27.6365   -2.3913 C   0  0  0  0  0  0  0  0  0  0  0  0
   18.2138  -28.7805   -2.8732 O   0  0  0  0  0  0  0  0  0  0  0  0
   18.6196  -27.4870   -1.0599 O   0  0  0  0  0  0  0  0  0  0  0  0
  2  1  1  6
  3  2  1  0
  4  3  1  0
  5  4  1  0
  6  5  2  0
  7 10  1  0
  7  2  1  0
  8  7  2  0
  9  5  1  0
 11 12  1  0
 11 10  1  0
 12 22  1  0
 13 12  2  0
 15 14  1  0
 16 15  2  0
 17 15  1  0
 18 19  1  0
 18 17  1  0
 20 19  1  0
 21 20  1  6
 22 21  1  0
 23 25  1  0
 23 21  1  0
 24 23  2  0
M  END
$$$$
