EGR.pdb
     RDKit          3D

 25 24  0  0  1  0  0  0  0  0999 V2000
   25.7919  -18.2540  -18.7534 N   0  0  0  0  0  0  0  0  0  0  0  0
   26.2785  -18.1551  -17.3635 C   0  0  1  0  0  0  0  0  0  0  0  0
   27.1987  -16.9981  -17.2142 C   0  0  0  0  0  0  0  0  0  0  0  0
   28.0264  -16.7865  -18.4454 C   0  0  0  0  0  0  0  0  0  0  0  0
   29.0807  -17.8263  -18.5226 C   0  0  0  0  0  0  0  0  0  0  0  0
   29.9386  -17.8828  -19.4308 O   0  0  0  0  0  0  0  0  0  0  0  0
   25.0795  -17.9896  -16.5030 C   0  0  0  0  0  0  0  0  0  0  0  0
   25.0919  -17.7449  -15.2775 O   0  0  0  0  0  0  0  0  0  0  0  0
   29.1267  -18.8010  -17.5312 O   0  0  0  0  0  0  0  0  0  0  0  0
   23.7500  -18.1085  -17.0610 N   0  0  0  0  0  0  0  0  0  0  0  0
   22.5739  -17.8541  -16.2750 C   0  0  0  0  0  0  0  0  0  0  0  0
   21.8790  -19.1484  -16.0406 C   0  0  0  0  0  0  0  0  0  0  0  0
   21.6783  -19.9681  -17.0027 O   0  0  0  0  0  0  0  0  0  0  0  0
   18.3496  -23.7549  -10.4055 N   0  0  0  0  0  0  0  0  0  0  0  0
   18.6422  -24.8015  -11.3151 C   0  0  0  0  0  0  0  0  0  0  0  0
   17.9038  -25.8644  -11.2941 N   0  0  0  0  0  0  0  0  0  0  0  0
   19.7224  -24.6442  -12.2041 N   0  0  0  0  0  0  0  0  0  0  0  0
   20.5727  -23.4634  -12.1660 C   0  0  0  0  0  0  0  0  0  0  0  0
   19.7853  -22.3364  -12.7621 C   0  0  0  0  0  0  0  0  0  0  0  0
   20.5542  -21.1033  -13.0823 C   0  0  0  0  0  0  0  0  0  0  0  0
   20.7020  -20.7872  -14.5274 C   0  0  2  0  0  0  0  0  0  0  0  0
   21.4078  -19.5433  -14.7663 N   0  0  0  0  0  0  0  0  0  0  0  0
   19.4458  -20.8590  -15.2967 C   0  0  0  0  0  0  0  0  0  0  0  0
   18.6953  -19.8718  -15.4002 O   0  0  0  0  0  0  0  0  0  0  0  0
   19.0953  -22.0411  -15.9101 O   0  0  0  0  0  0  0  0  0  0  0  0
  2  1  1  6
  3  2  1  0
  4  3  1  0
  5  4  1  0
  6  5  2  0
  7 10  1  0
  7  2  1  0
  8  7  2  0
  9  5  1  0
 11 12  1  0
 11 10  1  0
 12 22  1  0
 13 12  2  0
 15 14  1  0
 16 15  2  0
 17 15  1  0
 18 19  1  0
 18 17  1  0
 20 19  1  0
 21 20  1  1
 22 21  1  0
 23 25  1  0
 23 21  1  0
 24 23  2  0
M  END
$$$$
