EGR.pdb
     RDKit          3D

 25 24  0  0  1  0  0  0  0  0999 V2000
   27.0518  -21.9494  -18.0544 N   0  0  0  0  0  0  0  0  0  0  0  0
   28.2514  -21.1092  -17.8708 C   0  0  1  0  0  0  0  0  0  0  0  0
   28.1823  -19.9048  -18.7381 C   0  0  0  0  0  0  0  0  0  0  0  0
   28.3665  -20.2525  -20.1841 C   0  0  0  0  0  0  0  0  0  0  0  0
   29.0000  -19.1153  -20.8941 C   0  0  0  0  0  0  0  0  0  0  0  0
   28.4489  -18.0056  -21.0638 O   0  0  0  0  0  0  0  0  0  0  0  0
   28.2870  -20.7250  -16.4367 C   0  0  0  0  0  0  0  0  0  0  0  0
   29.1557  -20.0063  -15.8977 O   0  0  0  0  0  0  0  0  0  0  0  0
   30.2828  -19.2827  -21.4052 O   0  0  0  0  0  0  0  0  0  0  0  0
   27.2619  -21.1846  -15.5252 N   0  0  0  0  0  0  0  0  0  0  0  0
   27.0874  -20.5979  -14.2247 C   0  0  0  0  0  0  0  0  0  0  0  0
   25.9067  -21.2328  -13.5797 C   0  0  0  0  0  0  0  0  0  0  0  0
   25.1398  -22.0146  -14.2417 O   0  0  0  0  0  0  0  0  0  0  0  0
   19.9388  -21.5024   -8.3233 N   0  0  0  0  0  0  0  0  0  0  0  0
   20.8565  -22.2417   -7.5361 C   0  0  0  0  0  0  0  0  0  0  0  0
   20.4272  -23.2842   -6.9002 N   0  0  0  0  0  0  0  0  0  0  0  0
   22.1964  -21.8141   -7.4770 N   0  0  0  0  0  0  0  0  0  0  0  0
   22.6520  -20.6380   -8.2037 C   0  0  0  0  0  0  0  0  0  0  0  0
   22.7744  -21.0326   -9.6442 C   0  0  0  0  0  0  0  0  0  0  0  0
   24.1255  -20.8789  -10.2485 C   0  0  0  0  0  0  0  0  0  0  0  0
   24.2203  -21.1571  -11.7057 C   0  0  2  0  0  0  0  0  0  0  0  0
   25.5674  -21.0152  -12.2235 N   0  0  0  0  0  0  0  0  0  0  0  0
   23.2390  -20.4264  -12.5291 C   0  0  0  0  0  0  0  0  0  0  0  0
   23.4958  -19.2999  -12.9911 O   0  0  0  0  0  0  0  0  0  0  0  0
   22.0145  -21.0002  -12.7897 O   0  0  0  0  0  0  0  0  0  0  0  0
  2  1  1  1
  3  2  1  0
  4  3  1  0
  5  4  1  0
  6  5  2  0
  7 10  1  0
  7  2  1  0
  8  7  2  0
  9  5  1  0
 11 12  1  0
 11 10  1  0
 12 22  1  0
 13 12  2  0
 15 14  1  0
 16 15  2  0
 17 15  1  0
 18 19  1  0
 18 17  1  0
 20 19  1  0
 21 20  1  1
 22 21  1  0
 23 25  1  0
 23 21  1  0
 24 23  2  0
M  END
$$$$
