EGR.pdb
     RDKit          3D

 25 24  0  0  1  0  0  0  0  0999 V2000
   19.1219  -21.3950  -10.0357 N   0  0  0  0  0  0  0  0  0  0  0  0
   20.1872  -21.3124   -9.0174 C   0  0  1  0  0  0  0  0  0  0  0  0
   20.3630  -22.6224   -8.3390 C   0  0  0  0  0  0  0  0  0  0  0  0
   19.1593  -22.9908   -7.5258 C   0  0  0  0  0  0  0  0  0  0  0  0
   19.3722  -24.3133   -6.8900 C   0  0  0  0  0  0  0  0  0  0  0  0
   20.4160  -24.9895   -7.0209 O   0  0  0  0  0  0  0  0  0  0  0  0
   21.4285  -20.9171   -9.7305 C   0  0  0  0  0  0  0  0  0  0  0  0
   22.5330  -20.6851   -9.1939 O   0  0  0  0  0  0  0  0  0  0  0  0
   18.3569  -24.8417   -6.0994 O   0  0  0  0  0  0  0  0  0  0  0  0
   21.4357  -20.7677  -11.1695 N   0  0  0  0  0  0  0  0  0  0  0  0
   22.6282  -20.4082  -11.8869 C   0  0  0  0  0  0  0  0  0  0  0  0
   22.2623  -20.1583  -13.3070 C   0  0  0  0  0  0  0  0  0  0  0  0
   21.1060  -20.4786  -13.7520 O   0  0  0  0  0  0  0  0  0  0  0  0
   21.2345  -13.8144  -18.6230 N   0  0  0  0  0  0  0  0  0  0  0  0
   21.2743  -14.9556  -19.4623 C   0  0  0  0  0  0  0  0  0  0  0  0
   20.7440  -14.8764  -20.6405 N   0  0  0  0  0  0  0  0  0  0  0  0
   21.8881  -16.1282  -18.9828 N   0  0  0  0  0  0  0  0  0  0  0  0
   22.3131  -16.2514  -17.5960 C   0  0  0  0  0  0  0  0  0  0  0  0
   23.0116  -17.5708  -17.4668 C   0  0  0  0  0  0  0  0  0  0  0  0
   23.3830  -17.9779  -16.0845 C   0  0  0  0  0  0  0  0  0  0  0  0
   22.7884  -19.2517  -15.6010 C   0  0  2  0  0  0  0  0  0  0  0  0
   23.1522  -19.5636  -14.2324 N   0  0  0  0  0  0  0  0  0  0  0  0
   23.0029  -20.4018  -16.4988 C   0  0  0  0  0  0  0  0  0  0  0  0
   24.0359  -21.0920  -16.4277 O   0  0  0  0  0  0  0  0  0  0  0  0
   22.0434  -20.7168  -17.4351 O   0  0  0  0  0  0  0  0  0  0  0  0
  2  1  1  6
  3  2  1  0
  4  3  1  0
  5  4  1  0
  6  5  2  0
  7 10  1  0
  7  2  1  0
  8  7  2  0
  9  5  1  0
 11 12  1  0
 11 10  1  0
 12 22  1  0
 13 12  2  0
 15 14  1  0
 16 15  2  0
 17 15  1  0
 18 19  1  0
 18 17  1  0
 20 19  1  0
 21 20  1  6
 22 21  1  0
 23 25  1  0
 23 21  1  0
 24 23  2  0
M  END
$$$$
