EGR.pdb
     RDKit          3D

 25 24  0  0  1  0  0  0  0  0999 V2000
   27.4900  -21.5366  -13.9756 N   0  0  0  0  0  0  0  0  0  0  0  0
   26.7895  -20.7455  -12.9451 C   0  0  1  0  0  0  0  0  0  0  0  0
   27.6983  -19.7233  -12.3649 C   0  0  0  0  0  0  0  0  0  0  0  0
   29.0622  -20.2835  -12.0965 C   0  0  0  0  0  0  0  0  0  0  0  0
   29.0713  -20.9652  -10.7797 C   0  0  0  0  0  0  0  0  0  0  0  0
   28.0786  -21.0307  -10.0220 O   0  0  0  0  0  0  0  0  0  0  0  0
   25.6317  -20.1016  -13.6161 C   0  0  0  0  0  0  0  0  0  0  0  0
   24.6898  -19.5168  -13.0394 O   0  0  0  0  0  0  0  0  0  0  0  0
   30.2487  -21.5707  -10.3531 O   0  0  0  0  0  0  0  0  0  0  0  0
   25.5163  -20.1126  -15.0582 N   0  0  0  0  0  0  0  0  0  0  0  0
   24.4363  -19.4493  -15.7359 C   0  0  0  0  0  0  0  0  0  0  0  0
   23.1924  -20.2347  -15.5146 C   0  0  0  0  0  0  0  0  0  0  0  0
   23.2239  -21.5132  -15.4698 O   0  0  0  0  0  0  0  0  0  0  0  0
   20.0769  -23.0223   -8.6329 N   0  0  0  0  0  0  0  0  0  0  0  0
   19.0963  -23.3949   -9.5857 C   0  0  0  0  0  0  0  0  0  0  0  0
   18.1511  -24.1997   -9.2189 N   0  0  0  0  0  0  0  0  0  0  0  0
   19.1883  -22.8760  -10.8911 N   0  0  0  0  0  0  0  0  0  0  0  0
   20.3034  -22.0331  -11.2973 C   0  0  0  0  0  0  0  0  0  0  0  0
   20.0167  -21.5688  -12.6929 C   0  0  0  0  0  0  0  0  0  0  0  0
   21.0808  -20.7536  -13.3390 C   0  0  0  0  0  0  0  0  0  0  0  0
   20.7977  -20.2979  -14.7254 C   0  0  2  0  0  0  0  0  0  0  0  0
   21.9257  -19.6281  -15.3435 N   0  0  0  0  0  0  0  0  0  0  0  0
   19.5546  -19.5172  -14.8666 C   0  0  0  0  0  0  0  0  0  0  0  0
   19.5632  -18.2742  -14.8082 O   0  0  0  0  0  0  0  0  0  0  0  0
   18.3614  -20.1758  -15.0643 O   0  0  0  0  0  0  0  0  0  0  0  0
  2  1  1  6
  3  2  1  0
  4  3  1  0
  5  4  1  0
  6  5  2  0
  7 10  1  0
  7  2  1  0
  8  7  2  0
  9  5  1  0
 11 12  1  0
 11 10  1  0
 12 22  1  0
 13 12  2  0
 15 14  1  0
 16 15  2  0
 17 15  1  0
 18 19  1  0
 18 17  1  0
 20 19  1  0
 21 20  1  1
 22 21  1  0
 23 25  1  0
 23 21  1  0
 24 23  2  0
M  END
$$$$
