EGR.pdb
     RDKit          3D

 25 24  0  0  1  0  0  0  0  0999 V2000
   28.4757  -24.5280  -17.6800 N   0  0  0  0  0  0  0  0  0  0  0  0
   29.3819  -23.4811  -18.1913 C   0  0  1  0  0  0  0  0  0  0  0  0
   29.5068  -23.5755  -19.6687 C   0  0  0  0  0  0  0  0  0  0  0  0
   29.7666  -24.9828  -20.1136 C   0  0  0  0  0  0  0  0  0  0  0  0
   29.8206  -25.0361  -21.5945 C   0  0  0  0  0  0  0  0  0  0  0  0
   28.8132  -24.9616  -22.3317 O   0  0  0  0  0  0  0  0  0  0  0  0
   28.7930  -22.1768  -17.7942 C   0  0  0  0  0  0  0  0  0  0  0  0
   29.2719  -21.0527  -18.0564 O   0  0  0  0  0  0  0  0  0  0  0  0
   31.0603  -25.1773  -22.2095 O   0  0  0  0  0  0  0  0  0  0  0  0
   27.5611  -22.1244  -17.0374 N   0  0  0  0  0  0  0  0  0  0  0  0
   26.9557  -20.8759  -16.6629 C   0  0  0  0  0  0  0  0  0  0  0  0
   25.7110  -21.1690  -15.9026 C   0  0  0  0  0  0  0  0  0  0  0  0
   24.9388  -22.1271  -16.2539 O   0  0  0  0  0  0  0  0  0  0  0  0
   24.9923  -20.5809   -7.6287 N   0  0  0  0  0  0  0  0  0  0  0  0
   23.7487  -21.1576   -7.9879 C   0  0  0  0  0  0  0  0  0  0  0  0
   22.9953  -21.6376   -7.0512 N   0  0  0  0  0  0  0  0  0  0  0  0
   23.3822  -21.1856   -9.3469 N   0  0  0  0  0  0  0  0  0  0  0  0
   24.0964  -20.4008  -10.3433 C   0  0  0  0  0  0  0  0  0  0  0  0
   23.4224  -20.6447  -11.6593 C   0  0  0  0  0  0  0  0  0  0  0  0
   23.9477  -19.8661  -12.8135 C   0  0  0  0  0  0  0  0  0  0  0  0
   24.0375  -20.5988  -14.1038 C   0  0  2  0  0  0  0  0  0  0  0  0
   25.3141  -20.4219  -14.7685 N   0  0  0  0  0  0  0  0  0  0  0  0
   22.9070  -20.3579  -15.0196 C   0  0  0  0  0  0  0  0  0  0  0  0
   22.9101  -19.3964  -15.8095 O   0  0  0  0  0  0  0  0  0  0  0  0
   21.8263  -21.2112  -14.9986 O   0  0  0  0  0  0  0  0  0  0  0  0
  2  1  1  6
  3  2  1  0
  4  3  1  0
  5  4  1  0
  6  5  2  0
  7 10  1  0
  7  2  1  0
  8  7  2  0
  9  5  1  0
 11 12  1  0
 11 10  1  0
 12 22  1  0
 13 12  2  0
 15 14  1  0
 16 15  2  0
 17 15  1  0
 18 19  1  0
 18 17  1  0
 20 19  1  0
 21 20  1  1
 22 21  1  0
 23 25  1  0
 23 21  1  0
 24 23  2  0
M  END
$$$$
