EGR.pdb
     RDKit          3D

 25 24  0  0  1  0  0  0  0  0999 V2000
   27.0606  -19.4176  -17.7425 N   0  0  0  0  0  0  0  0  0  0  0  0
   27.7825  -18.5331  -16.8071 C   0  0  1  0  0  0  0  0  0  0  0  0
   28.0444  -17.2123  -17.4352 C   0  0  0  0  0  0  0  0  0  0  0  0
   28.0082  -17.2937  -18.9312 C   0  0  0  0  0  0  0  0  0  0  0  0
   27.1261  -16.2294  -19.4676 C   0  0  0  0  0  0  0  0  0  0  0  0
   27.1116  -15.0546  -19.0392 O   0  0  0  0  0  0  0  0  0  0  0  0
   26.9187  -18.3848  -15.6083 C   0  0  0  0  0  0  0  0  0  0  0  0
   27.1559  -17.6475  -14.6275 O   0  0  0  0  0  0  0  0  0  0  0  0
   26.2600  -16.5463  -20.5089 O   0  0  0  0  0  0  0  0  0  0  0  0
   25.6812  -19.1257  -15.4956 N   0  0  0  0  0  0  0  0  0  0  0  0
   24.7436  -18.8761  -14.4352 C   0  0  0  0  0  0  0  0  0  0  0  0
   23.6093  -19.8276  -14.5801 C   0  0  0  0  0  0  0  0  0  0  0  0
   23.5458  -20.6244  -15.5795 O   0  0  0  0  0  0  0  0  0  0  0  0
   16.3767  -22.1328  -11.4019 N   0  0  0  0  0  0  0  0  0  0  0  0
   16.9682  -23.3982  -11.1634 C   0  0  0  0  0  0  0  0  0  0  0  0
   16.3519  -24.2339  -10.3904 N   0  0  0  0  0  0  0  0  0  0  0  0
   18.2004  -23.6963  -11.7754 N   0  0  0  0  0  0  0  0  0  0  0  0
   19.3956  -22.9126  -11.4994 C   0  0  0  0  0  0  0  0  0  0  0  0
   19.4734  -21.8466  -12.5497 C   0  0  0  0  0  0  0  0  0  0  0  0
   20.6658  -20.9585  -12.4884 C   0  0  0  0  0  0  0  0  0  0  0  0
   21.4793  -20.8771  -13.7300 C   0  0  2  0  0  0  0  0  0  0  0  0
   22.5540  -19.9076  -13.6411 N   0  0  0  0  0  0  0  0  0  0  0  0
   20.6897  -20.7057  -14.9637 C   0  0  0  0  0  0  0  0  0  0  0  0
   20.3857  -19.5743  -15.3832 O   0  0  0  0  0  0  0  0  0  0  0  0
   20.2788  -21.8184  -15.6635 O   0  0  0  0  0  0  0  0  0  0  0  0
  2  1  1  6
  3  2  1  0
  4  3  1  0
  5  4  1  0
  6  5  2  0
  7 10  1  0
  7  2  1  0
  8  7  2  0
  9  5  1  0
 11 12  1  0
 11 10  1  0
 12 22  1  0
 13 12  2  0
 15 14  1  0
 16 15  2  0
 17 15  1  0
 18 19  1  0
 18 17  1  0
 20 19  1  0
 21 20  1  1
 22 21  1  0
 23 25  1  0
 23 21  1  0
 24 23  2  0
M  END
$$$$
