EGR.pdb
     RDKit          3D

 25 24  0  0  1  0  0  0  0  0999 V2000
   28.1270  -19.6963  -17.0236 N   0  0  0  0  0  0  0  0  0  0  0  0
   28.0858  -18.3785  -17.6870 C   0  0  1  0  0  0  0  0  0  0  0  0
   28.5888  -18.4806  -19.0813 C   0  0  0  0  0  0  0  0  0  0  0  0
   28.4211  -19.8648  -19.6305 C   0  0  0  0  0  0  0  0  0  0  0  0
   28.9017  -19.9070  -21.0326 C   0  0  0  0  0  0  0  0  0  0  0  0
   30.0568  -19.5805  -21.3835 O   0  0  0  0  0  0  0  0  0  0  0  0
   26.6681  -17.9365  -17.6690 C   0  0  0  0  0  0  0  0  0  0  0  0
   26.2260  -16.8897  -18.1890 O   0  0  0  0  0  0  0  0  0  0  0  0
   28.0235  -20.3334  -22.0236 O   0  0  0  0  0  0  0  0  0  0  0  0
   25.6559  -18.7345  -17.0119 N   0  0  0  0  0  0  0  0  0  0  0  0
   24.2709  -18.3503  -17.0130 C   0  0  0  0  0  0  0  0  0  0  0  0
   23.5042  -19.3619  -16.2370 C   0  0  0  0  0  0  0  0  0  0  0  0
   23.0174  -20.3969  -16.8109 O   0  0  0  0  0  0  0  0  0  0  0  0
   22.1778  -21.2214   -7.4587 N   0  0  0  0  0  0  0  0  0  0  0  0
   21.2612  -21.9790   -8.2294 C   0  0  0  0  0  0  0  0  0  0  0  0
   20.4557  -22.7859   -7.6165 N   0  0  0  0  0  0  0  0  0  0  0  0
   21.2625  -21.8244   -9.6287 N   0  0  0  0  0  0  0  0  0  0  0  0
   22.0073  -20.7534  -10.2745 C   0  0  0  0  0  0  0  0  0  0  0  0
   21.9000  -20.9740  -11.7528 C   0  0  0  0  0  0  0  0  0  0  0  0
   22.5715  -19.9617  -12.6123 C   0  0  0  0  0  0  0  0  0  0  0  0
   22.5316  -20.2230  -14.0752 C   0  0  2  0  0  0  0  0  0  0  0  0
   23.2721  -19.2433  -14.8464 N   0  0  0  0  0  0  0  0  0  0  0  0
   21.1769  -20.4348  -14.6180 C   0  0  0  0  0  0  0  0  0  0  0  0
   20.4147  -19.4771  -14.8423 O   0  0  0  0  0  0  0  0  0  0  0  0
   20.7460  -21.7165  -14.8792 O   0  0  0  0  0  0  0  0  0  0  0  0
  2  1  1  6
  3  2  1  0
  4  3  1  0
  5  4  1  0
  6  5  2  0
  7 10  1  0
  7  2  1  0
  8  7  2  0
  9  5  1  0
 11 12  1  0
 11 10  1  0
 12 22  1  0
 13 12  2  0
 15 14  1  0
 16 15  2  0
 17 15  1  0
 18 19  1  0
 18 17  1  0
 20 19  1  0
 21 20  1  1
 22 21  1  0
 23 25  1  0
 23 21  1  0
 24 23  2  0
M  END
$$$$
