EGR.pdb
     RDKit          3D

 25 24  0  0  1  0  0  0  0  0999 V2000
   17.8882  -24.4194   -5.3043 N   0  0  0  0  0  0  0  0  0  0  0  0
   17.5089  -25.7399   -5.8436 C   0  0  1  0  0  0  0  0  0  0  0  0
   16.0591  -25.9907   -5.6372 C   0  0  0  0  0  0  0  0  0  0  0  0
   15.6906  -25.9455   -4.1853 C   0  0  0  0  0  0  0  0  0  0  0  0
   14.2457  -26.2394   -4.0278 C   0  0  0  0  0  0  0  0  0  0  0  0
   13.7733  -27.3952   -3.9583 O   0  0  0  0  0  0  0  0  0  0  0  0
   17.8397  -25.7199   -7.2913 C   0  0  0  0  0  0  0  0  0  0  0  0
   17.5883  -26.6322   -8.1075 O   0  0  0  0  0  0  0  0  0  0  0  0
   13.3552  -25.1735   -3.9520 O   0  0  0  0  0  0  0  0  0  0  0  0
   18.5106  -24.5803   -7.8780 N   0  0  0  0  0  0  0  0  0  0  0  0
   18.9339  -24.5761   -9.2516 C   0  0  0  0  0  0  0  0  0  0  0  0
   18.7659  -23.1990   -9.7887 C   0  0  0  0  0  0  0  0  0  0  0  0
   17.9378  -22.3833   -9.2533 O   0  0  0  0  0  0  0  0  0  0  0  0
   25.8116  -21.8331  -11.3279 N   0  0  0  0  0  0  0  0  0  0  0  0
   24.9369  -22.0508  -12.4214 C   0  0  0  0  0  0  0  0  0  0  0  0
   25.3072  -22.8639  -13.3580 N   0  0  0  0  0  0  0  0  0  0  0  0
   23.7019  -21.3756  -12.4459 N   0  0  0  0  0  0  0  0  0  0  0  0
   23.2816  -20.5193  -11.3464 C   0  0  0  0  0  0  0  0  0  0  0  0
   21.9577  -21.0350  -10.8701 C   0  0  0  0  0  0  0  0  0  0  0  0
   20.8172  -20.8672  -11.8111 C   0  0  0  0  0  0  0  0  0  0  0  0
   19.4936  -21.3284  -11.3158 C   0  0  2  0  0  0  0  0  0  0  0  0
   19.4964  -22.7178  -10.9006 N   0  0  0  0  0  0  0  0  0  0  0  0
   18.3686  -21.0314  -12.2218 C   0  0  0  0  0  0  0  0  0  0  0  0
   17.9358  -21.8868  -13.0151 O   0  0  0  0  0  0  0  0  0  0  0  0
   17.7874  -19.7832  -12.1913 O   0  0  0  0  0  0  0  0  0  0  0  0
  2  1  1  6
  3  2  1  0
  4  3  1  0
  5  4  1  0
  6  5  2  0
  7 10  1  0
  7  2  1  0
  8  7  2  0
  9  5  1  0
 11 12  1  0
 11 10  1  0
 12 22  1  0
 13 12  2  0
 15 14  1  0
 16 15  2  0
 17 15  1  0
 18 19  1  0
 18 17  1  0
 20 19  1  0
 21 20  1  6
 22 21  1  0
 23 25  1  0
 23 21  1  0
 24 23  2  0
M  END
$$$$
