EGR.pdb
     RDKit          3D

 25 24  0  0  1  0  0  0  0  0999 V2000
   19.6065  -23.9192   -9.9775 N   0  0  0  0  0  0  0  0  0  0  0  0
   18.4208  -23.0456  -10.0732 C   0  0  1  0  0  0  0  0  0  0  0  0
   17.5606  -23.2002   -8.8717 C   0  0  0  0  0  0  0  0  0  0  0  0
   17.2414  -24.6392   -8.6008 C   0  0  0  0  0  0  0  0  0  0  0  0
   15.9770  -25.0068   -9.2828 C   0  0  0  0  0  0  0  0  0  0  0  0
   15.2982  -24.2112   -9.9683 O   0  0  0  0  0  0  0  0  0  0  0  0
   18.9252  -21.6533  -10.1848 C   0  0  0  0  0  0  0  0  0  0  0  0
   18.2172  -20.6306  -10.3050 O   0  0  0  0  0  0  0  0  0  0  0  0
   15.5101  -26.3112   -9.1587 O   0  0  0  0  0  0  0  0  0  0  0  0
   20.3458  -21.3801  -10.1602 N   0  0  0  0  0  0  0  0  0  0  0  0
   20.8631  -20.0484  -10.3174 C   0  0  0  0  0  0  0  0  0  0  0  0
   20.9204  -19.7373  -11.7711 C   0  0  0  0  0  0  0  0  0  0  0  0
   20.0806  -18.9310  -12.3023 O   0  0  0  0  0  0  0  0  0  0  0  0
   26.6841  -23.3241  -17.1989 N   0  0  0  0  0  0  0  0  0  0  0  0
   26.1857  -23.9515  -16.0301 C   0  0  0  0  0  0  0  0  0  0  0  0
   26.4989  -25.1880  -15.8097 N   0  0  0  0  0  0  0  0  0  0  0  0
   25.3712  -23.2068  -15.1561 N   0  0  0  0  0  0  0  0  0  0  0  0
   24.7653  -21.9490  -15.5680 C   0  0  0  0  0  0  0  0  0  0  0  0
   24.0355  -21.4034  -14.3784 C   0  0  0  0  0  0  0  0  0  0  0  0
   23.3748  -20.0837  -14.5692 C   0  0  0  0  0  0  0  0  0  0  0  0
   21.9888  -19.9696  -14.0439 C   0  0  2  0  0  0  0  0  0  0  0  0
   21.8870  -20.3023  -12.6361 N   0  0  0  0  0  0  0  0  0  0  0  0
   20.9743  -20.6770  -14.8470 C   0  0  0  0  0  0  0  0  0  0  0  0
   20.6885  -20.3041  -15.9993 O   0  0  0  0  0  0  0  0  0  0  0  0
   20.3290  -21.7693  -14.3112 O   0  0  0  0  0  0  0  0  0  0  0  0
  2  1  1  1
  3  2  1  0
  4  3  1  0
  5  4  1  0
  6  5  2  0
  7 10  1  0
  7  2  1  0
  8  7  2  0
  9  5  1  0
 11 12  1  0
 11 10  1  0
 12 22  1  0
 13 12  2  0
 15 14  1  0
 16 15  2  0
 17 15  1  0
 18 19  1  0
 18 17  1  0
 20 19  1  0
 21 20  1  6
 22 21  1  0
 23 25  1  0
 23 21  1  0
 24 23  2  0
M  END
$$$$
