EGR.pdb
     RDKit          3D

 25 24  0  0  1  0  0  0  0  0999 V2000
   27.0098  -16.2036  -18.3193 N   0  0  0  0  0  0  0  0  0  0  0  0
   26.2145  -17.4455  -18.2589 C   0  0  1  0  0  0  0  0  0  0  0  0
   27.0327  -18.6100  -18.6858 C   0  0  0  0  0  0  0  0  0  0  0  0
   27.0215  -18.7784  -20.1749 C   0  0  0  0  0  0  0  0  0  0  0  0
   27.7216  -20.0334  -20.5404 C   0  0  0  0  0  0  0  0  0  0  0  0
   27.8123  -20.4654  -21.7104 O   0  0  0  0  0  0  0  0  0  0  0  0
   25.7722  -17.6002  -16.8497 C   0  0  0  0  0  0  0  0  0  0  0  0
   26.3570  -17.1341  -15.8485 O   0  0  0  0  0  0  0  0  0  0  0  0
   28.3158  -20.7815  -19.5293 O   0  0  0  0  0  0  0  0  0  0  0  0
   24.5709  -18.3410  -16.5317 N   0  0  0  0  0  0  0  0  0  0  0  0
   24.0799  -18.4443  -15.1848 C   0  0  0  0  0  0  0  0  0  0  0  0
   22.7113  -19.0259  -15.2291 C   0  0  0  0  0  0  0  0  0  0  0  0
   22.1113  -19.2051  -16.3451 O   0  0  0  0  0  0  0  0  0  0  0  0
   18.7800  -24.6480  -10.8402 N   0  0  0  0  0  0  0  0  0  0  0  0
   19.5301  -25.0061  -11.9879 C   0  0  0  0  0  0  0  0  0  0  0  0
   19.1112  -25.9884  -12.7195 N   0  0  0  0  0  0  0  0  0  0  0  0
   20.6990  -24.2808  -12.2869 N   0  0  0  0  0  0  0  0  0  0  0  0
   20.8523  -22.8887  -11.8900 C   0  0  0  0  0  0  0  0  0  0  0  0
   20.0427  -22.0679  -12.8473 C   0  0  0  0  0  0  0  0  0  0  0  0
   20.2758  -20.5989  -12.8034 C   0  0  0  0  0  0  0  0  0  0  0  0
   20.6664  -19.9648  -14.0899 C   0  0  2  0  0  0  0  0  0  0  0  0
   22.0053  -19.4084  -14.0643 N   0  0  0  0  0  0  0  0  0  0  0  0
   19.6834  -18.9986  -14.6144 C   0  0  0  0  0  0  0  0  0  0  0  0
   19.7421  -17.7920  -14.3157 O   0  0  0  0  0  0  0  0  0  0  0  0
   18.6802  -19.4399  -15.4482 O   0  0  0  0  0  0  0  0  0  0  0  0
  2  1  1  1
  3  2  1  0
  4  3  1  0
  5  4  1  0
  6  5  2  0
  7 10  1  0
  7  2  1  0
  8  7  2  0
  9  5  1  0
 11 12  1  0
 11 10  1  0
 12 22  1  0
 13 12  2  0
 15 14  1  0
 16 15  2  0
 17 15  1  0
 18 19  1  0
 18 17  1  0
 20 19  1  0
 21 20  1  1
 22 21  1  0
 23 25  1  0
 23 21  1  0
 24 23  2  0
M  END
$$$$
