EGR.pdb
     RDKit          3D

 25 24  0  0  1  0  0  0  0  0999 V2000
   15.9648  -16.4265   10.6031 N   0  0  0  0  0  0  0  0  0  0  0  0
   16.9009  -16.8955    9.5628 C   0  0  1  0  0  0  0  0  0  0  0  0
   18.0533  -17.6028   10.1787 C   0  0  0  0  0  0  0  0  0  0  0  0
   18.9139  -16.6699   10.9755 C   0  0  0  0  0  0  0  0  0  0  0  0
   20.0521  -17.4184   11.5611 C   0  0  0  0  0  0  0  0  0  0  0  0
   20.2701  -18.6317   11.3511 O   0  0  0  0  0  0  0  0  0  0  0  0
   16.1329  -17.8090    8.6790 C   0  0  0  0  0  0  0  0  0  0  0  0
   15.0220  -18.3156    8.9458 O   0  0  0  0  0  0  0  0  0  0  0  0
   20.9352  -16.7398   12.3946 O   0  0  0  0  0  0  0  0  0  0  0  0
   16.6520  -18.1899    7.3835 N   0  0  0  0  0  0  0  0  0  0  0  0
   15.9077  -19.0324    6.4879 C   0  0  0  0  0  0  0  0  0  0  0  0
   16.6820  -19.1722    5.2253 C   0  0  0  0  0  0  0  0  0  0  0  0
   17.7517  -18.4964    5.0342 O   0  0  0  0  0  0  0  0  0  0  0  0
   12.8189  -23.7482   -0.8301 N   0  0  0  0  0  0  0  0  0  0  0  0
   12.4645  -22.3954   -0.6014 C   0  0  0  0  0  0  0  0  0  0  0  0
   11.3724  -21.9437   -1.1294 N   0  0  0  0  0  0  0  0  0  0  0  0
   13.3124  -21.5973    0.1898 N   0  0  0  0  0  0  0  0  0  0  0  0
   14.6344  -22.0571    0.5895 C   0  0  0  0  0  0  0  0  0  0  0  0
   15.2176  -20.9987    1.4757 C   0  0  0  0  0  0  0  0  0  0  0  0
   16.5238  -21.3270    2.1086 C   0  0  0  0  0  0  0  0  0  0  0  0
   17.0949  -20.2820    2.9984 C   0  0  2  0  0  0  0  0  0  0  0  0
   16.2906  -20.0431    4.1811 N   0  0  0  0  0  0  0  0  0  0  0  0
   17.4442  -19.0242    2.3122 C   0  0  0  0  0  0  0  0  0  0  0  0
   18.4070  -18.9639    1.5262 O   0  0  0  0  0  0  0  0  0  0  0  0
   16.6926  -17.8945    2.5475 O   0  0  0  0  0  0  0  0  0  0  0  0
  2  1  1  1
  3  2  1  0
  4  3  1  0
  5  4  1  0
  6  5  2  0
  7 10  1  0
  7  2  1  0
  8  7  2  0
  9  5  1  0
 11 12  1  0
 11 10  1  0
 12 22  1  0
 13 12  2  0
 15 14  1  0
 16 15  2  0
 17 15  1  0
 18 19  1  0
 18 17  1  0
 20 19  1  0
 21 20  1  6
 22 21  1  0
 23 25  1  0
 23 21  1  0
 24 23  2  0
M  END
$$$$
