EGR.pdb
     RDKit          3D

 25 24  0  0  1  0  0  0  0  0999 V2000
   15.3122  -14.4280  -15.7763 N   0  0  0  0  0  0  0  0  0  0  0  0
   15.8189  -14.4991  -14.3919 C   0  0  1  0  0  0  0  0  0  0  0  0
   16.4266  -15.8287  -14.1266 C   0  0  0  0  0  0  0  0  0  0  0  0
   17.4685  -16.1748  -15.1466 C   0  0  0  0  0  0  0  0  0  0  0  0
   18.0791  -17.4840  -14.8120 C   0  0  0  0  0  0  0  0  0  0  0  0
   17.6187  -18.5841  -15.1883 O   0  0  0  0  0  0  0  0  0  0  0  0
   16.8297  -13.4201  -14.2522 C   0  0  0  0  0  0  0  0  0  0  0  0
   17.4792  -13.1616  -13.2163 O   0  0  0  0  0  0  0  0  0  0  0  0
   19.2321  -17.5000  -14.0341 O   0  0  0  0  0  0  0  0  0  0  0  0
   17.1417  -12.5539  -15.3682 N   0  0  0  0  0  0  0  0  0  0  0  0
   18.0967  -11.4859  -15.2531 C   0  0  0  0  0  0  0  0  0  0  0  0
   17.3642  -10.1932  -15.3285 C   0  0  0  0  0  0  0  0  0  0  0  0
   16.6189   -9.9199  -16.3322 O   0  0  0  0  0  0  0  0  0  0  0  0
   12.1934   -8.6089   -9.4658 N   0  0  0  0  0  0  0  0  0  0  0  0
   13.0998   -9.6781   -9.6737 C   0  0  0  0  0  0  0  0  0  0  0  0
   12.9024  -10.7893   -9.0398 N   0  0  0  0  0  0  0  0  0  0  0  0
   14.1773   -9.4902  -10.5601 N   0  0  0  0  0  0  0  0  0  0  0  0
   14.0486   -8.6585  -11.7477 C   0  0  0  0  0  0  0  0  0  0  0  0
   15.3841   -8.6544  -12.4273 C   0  0  0  0  0  0  0  0  0  0  0  0
   15.4571   -7.9112  -13.7144 C   0  0  0  0  0  0  0  0  0  0  0  0
   16.7774   -7.9239  -14.3974 C   0  0  2  0  0  0  0  0  0  0  0  0
   17.4455   -9.2084  -14.3160 N   0  0  0  0  0  0  0  0  0  0  0  0
   17.6723   -6.8173  -14.0108 C   0  0  0  0  0  0  0  0  0  0  0  0
   17.2749   -5.6381  -14.0047 O   0  0  0  0  0  0  0  0  0  0  0  0
   18.9730   -7.0935  -13.6521 O   0  0  0  0  0  0  0  0  0  0  0  0
  2  1  1  6
  3  2  1  0
  4  3  1  0
  5  4  1  0
  6  5  2  0
  7 10  1  0
  7  2  1  0
  8  7  2  0
  9  5  1  0
 11 12  1  0
 11 10  1  0
 12 22  1  0
 13 12  2  0
 15 14  1  0
 16 15  2  0
 17 15  1  0
 18 19  1  0
 18 17  1  0
 20 19  1  0
 21 20  1  1
 22 21  1  0
 23 25  1  0
 23 21  1  0
 24 23  2  0
M  END
$$$$
