AVD.pdb
     RDKit          3D

 21 20  0  0  1  0  0  0  0  0999 V2000
   17.7374  -10.4757  -12.3331 C   0  0  0  0  0  0  0  0  0  0  0  0
   16.7082  -10.5690  -11.2288 C   0  0  2  0  0  0  0  0  0  0  0  0
   15.8721  -11.7203  -11.3487 N   0  0  0  0  0  0  0  0  0  0  0  0
   15.8650   -9.3551  -11.1624 C   0  0  0  0  0  0  0  0  0  0  0  0
   15.1137   -9.0480  -12.1179 O   0  0  0  0  0  0  0  0  0  0  0  0
   13.3606   -8.9059   -8.6017 C   0  0  0  0  0  0  0  0  0  0  0  0
   14.2973   -7.7382   -8.4990 C   0  0  1  0  0  0  0  0  0  0  0  0
   15.2033   -7.8111   -7.2947 C   0  0  0  0  0  0  0  0  0  0  0  0
   15.0086   -7.4251   -9.7875 C   0  0  2  0  0  0  0  0  0  0  0  0
   15.9113   -8.5491  -10.0229 N   0  0  0  0  0  0  0  0  0  0  0  0
   15.8075   -6.1873   -9.7731 C   0  0  0  0  0  0  0  0  0  0  0  0
   16.8813   -6.1501   -9.1082 O   0  0  0  0  0  0  0  0  0  0  0  0
   15.4587   -4.9980  -10.4686 N   0  0  0  0  0  0  0  0  0  0  0  0
   16.1582   -3.7319  -10.3565 C   0  0  1  0  0  0  0  0  0  0  0  0
   16.2382   -2.9903  -11.6351 C   0  0  0  0  0  0  0  0  0  0  0  0
   17.0378   -3.7439  -12.6203 C   0  0  0  0  0  0  0  0  0  0  0  0
   16.9425   -4.9893  -12.8266 O   0  0  0  0  0  0  0  0  0  0  0  0
   15.6205   -2.8906   -9.2739 C   0  0  0  0  0  0  0  0  0  0  0  0
   14.5097   -3.1746   -8.7707 O   0  0  0  0  0  0  0  0  0  0  0  0
   17.9966   -3.0999  -13.4251 O   0  0  0  0  0  0  0  0  0  0  0  0
   16.2935   -1.7945   -8.7838 O   0  0  0  0  0  0  0  0  0  0  0  0
  2  1  1  6
  2  3  1  0
  4  2  1  0
  5  4  2  0
  7  6  1  6
  7  9  1  0
  8  7  1  0
  9 11  1  0
  9 10  1  1
 10  4  1  0
 11 13  1  0
 12 11  2  0
 13 14  1  0
 14 15  1  6
 14 18  1  0
 16 20  1  0
 16 15  1  0
 17 16  2  0
 18 19  2  0
 18 21  1  0
M  END
$$$$
