AVD.pdb
     RDKit          3D

 21 20  0  0  1  0  0  0  0  0999 V2000
   24.3445  -20.9307   -9.0918 C   0  0  0  0  0  0  0  0  0  0  0  0
   25.7289  -20.8681   -9.6977 C   0  0  2  0  0  0  0  0  0  0  0  0
   26.7172  -20.4154   -8.7718 N   0  0  0  0  0  0  0  0  0  0  0  0
   25.7598  -20.0136  -10.9051 C   0  0  0  0  0  0  0  0  0  0  0  0
   25.8061  -18.7651  -10.8012 O   0  0  0  0  0  0  0  0  0  0  0  0
   27.0599  -21.7360  -14.4127 C   0  0  0  0  0  0  0  0  0  0  0  0
   26.9697  -20.2608  -14.1537 C   0  0  1  0  0  0  0  0  0  0  0  0
   27.2662  -19.4267  -15.3755 C   0  0  0  0  0  0  0  0  0  0  0  0
   25.7201  -19.8563  -13.4195 C   0  0  2  0  0  0  0  0  0  0  0  0
   25.7368  -20.6093  -12.1679 N   0  0  0  0  0  0  0  0  0  0  0  0
   24.4603  -20.1569  -14.1217 C   0  0  0  0  0  0  0  0  0  0  0  0
   24.0546  -21.3519  -14.1832 O   0  0  0  0  0  0  0  0  0  0  0  0
   23.6398  -19.1825  -14.7519 N   0  0  0  0  0  0  0  0  0  0  0  0
   22.3607  -19.4518  -15.3815 C   0  0  1  0  0  0  0  0  0  0  0  0
   21.4149  -18.3162  -15.2984 C   0  0  0  0  0  0  0  0  0  0  0  0
   20.3925  -18.5697  -14.2650 C   0  0  0  0  0  0  0  0  0  0  0  0
   20.2782  -19.6481  -13.6116 O   0  0  0  0  0  0  0  0  0  0  0  0
   22.5096  -19.9341  -16.7650 C   0  0  0  0  0  0  0  0  0  0  0  0
   23.3784  -19.4177  -17.5042 O   0  0  0  0  0  0  0  0  0  0  0  0
   19.4404  -17.5895  -13.9269 O   0  0  0  0  0  0  0  0  0  0  0  0
   21.7284  -20.9400  -17.2870 O   0  0  0  0  0  0  0  0  0  0  0  0
  2  1  1  1
  2  3  1  0
  4  2  1  0
  5  4  2  0
  7  6  1  6
  7  9  1  0
  8  7  1  0
  9 11  1  0
  9 10  1  1
 10  4  1  0
 11 13  1  0
 12 11  2  0
 13 14  1  0
 14 15  1  6
 14 18  1  0
 16 20  1  0
 16 15  1  0
 17 16  2  0
 18 19  2  0
 18 21  1  0
M  END
$$$$
