AVD.pdb
     RDKit          3D

 21 20  0  0  1  0  0  0  0  0999 V2000
   27.6895  -19.8050  -16.5122 C   0  0  0  0  0  0  0  0  0  0  0  0
   28.0906  -20.8019  -15.4478 C   0  0  2  0  0  0  0  0  0  0  0  0
   28.8296  -21.9046  -15.9740 N   0  0  0  0  0  0  0  0  0  0  0  0
   26.9173  -21.3085  -14.7024 C   0  0  0  0  0  0  0  0  0  0  0  0
   26.1900  -22.2048  -15.1916 O   0  0  0  0  0  0  0  0  0  0  0  0
   26.3356  -19.4782  -11.0154 C   0  0  0  0  0  0  0  0  0  0  0  0
   25.9202  -20.9093  -11.1914 C   0  0  1  0  0  0  0  0  0  0  0  0
   24.9362  -21.3723  -10.1456 C   0  0  0  0  0  0  0  0  0  0  0  0
   25.5253  -21.2496  -12.6030 C   0  0  2  0  0  0  0  0  0  0  0  0
   26.6233  -20.7794  -13.4439 N   0  0  0  0  0  0  0  0  0  0  0  0
   24.2811  -20.6151  -13.0718 C   0  0  0  0  0  0  0  0  0  0  0  0
   24.2946  -19.3971  -13.4076 O   0  0  0  0  0  0  0  0  0  0  0  0
   23.0312  -21.2825  -13.1820 N   0  0  0  0  0  0  0  0  0  0  0  0
   21.7957  -20.6684  -13.6309 C   0  0  1  0  0  0  0  0  0  0  0  0
   21.1557  -21.3899  -14.7538 C   0  0  0  0  0  0  0  0  0  0  0  0
   19.9499  -20.6715  -15.2093 C   0  0  0  0  0  0  0  0  0  0  0  0
   19.9550  -19.6744  -15.9894 O   0  0  0  0  0  0  0  0  0  0  0  0
   20.8513  -20.4398  -12.5241 C   0  0  0  0  0  0  0  0  0  0  0  0
   20.8812  -21.1958  -11.5265 O   0  0  0  0  0  0  0  0  0  0  0  0
   18.6656  -21.0646  -14.7878 O   0  0  0  0  0  0  0  0  0  0  0  0
   19.9280  -19.4191  -12.5372 O   0  0  0  0  0  0  0  0  0  0  0  0
  2  1  1  6
  2  3  1  0
  4  2  1  0
  5  4  2  0
  7  6  1  6
  7  9  1  0
  8  7  1  0
  9 11  1  0
  9 10  1  6
 10  4  1  0
 11 13  1  0
 12 11  2  0
 13 14  1  0
 14 15  1  6
 14 18  1  0
 16 20  1  0
 16 15  1  0
 17 16  2  0
 18 19  2  0
 18 21  1  0
M  END
$$$$
