AVD.pdb
     RDKit          3D

 21 20  0  0  1  0  0  0  0  0999 V2000
   18.4386  -10.9653  -18.5915 C   0  0  0  0  0  0  0  0  0  0  0  0
   19.5851  -11.6462  -17.8780 C   0  0  2  0  0  0  0  0  0  0  0  0
   19.3723  -13.0472  -17.7020 N   0  0  0  0  0  0  0  0  0  0  0  0
   19.8601  -11.0229  -16.5647 C   0  0  0  0  0  0  0  0  0  0  0  0
   19.0617  -11.1707  -15.6095 O   0  0  0  0  0  0  0  0  0  0  0  0
   22.5931  -11.7167  -14.4206 C   0  0  0  0  0  0  0  0  0  0  0  0
   22.7028  -10.2536  -14.7350 C   0  0  1  0  0  0  0  0  0  0  0  0
   23.8509   -9.9320  -15.6596 C   0  0  0  0  0  0  0  0  0  0  0  0
   21.3948   -9.6266  -15.1351 C   0  0  2  0  0  0  0  0  0  0  0  0
   21.0205  -10.2647  -16.3946 N   0  0  0  0  0  0  0  0  0  0  0  0
   21.4429   -8.1702  -15.3525 C   0  0  0  0  0  0  0  0  0  0  0  0
   22.0017   -7.7164  -16.3908 O   0  0  0  0  0  0  0  0  0  0  0  0
   20.8936   -7.2069  -14.4636 N   0  0  0  0  0  0  0  0  0  0  0  0
   20.9611   -5.7694  -14.6479 C   0  0  1  0  0  0  0  0  0  0  0  0
   19.6394   -5.1062  -14.5810 C   0  0  0  0  0  0  0  0  0  0  0  0
   19.7815   -3.6502  -14.7752 C   0  0  0  0  0  0  0  0  0  0  0  0
   19.8195   -2.7975  -13.8402 O   0  0  0  0  0  0  0  0  0  0  0  0
   21.9332   -5.1351  -13.7414 C   0  0  0  0  0  0  0  0  0  0  0  0
   22.2684   -3.9447  -13.9375 O   0  0  0  0  0  0  0  0  0  0  0  0
   19.8871   -3.0946  -16.0643 O   0  0  0  0  0  0  0  0  0  0  0  0
   22.4945   -5.7998  -12.6748 O   0  0  0  0  0  0  0  0  0  0  0  0
  2  1  1  1
  2  3  1  0
  4  2  1  0
  5  4  2  0
  7  6  1  6
  7  9  1  0
  8  7  1  0
  9 11  1  0
  9 10  1  6
 10  4  1  0
 11 13  1  0
 12 11  2  0
 13 14  1  0
 14 15  1  1
 14 18  1  0
 16 20  1  0
 16 15  1  0
 17 16  2  0
 18 19  2  0
 18 21  1  0
M  END
$$$$
