AVD.pdb
     RDKit          3D

 21 20  0  0  1  0  0  0  0  0999 V2000
   17.6322  -10.6846  -18.1874 C   0  0  0  0  0  0  0  0  0  0  0  0
   18.5252  -11.6860  -17.4894 C   0  0  2  0  0  0  0  0  0  0  0  0
   17.8193  -12.8508  -17.0605 N   0  0  0  0  0  0  0  0  0  0  0  0
   19.2250  -11.0831  -16.3337 C   0  0  0  0  0  0  0  0  0  0  0  0
   18.6614  -11.0068  -15.2164 O   0  0  0  0  0  0  0  0  0  0  0  0
   23.2599  -10.9648  -16.6639 C   0  0  0  0  0  0  0  0  0  0  0  0
   22.5751  -10.7981  -15.3392 C   0  0  1  0  0  0  0  0  0  0  0  0
   23.5128  -10.3655  -14.2392 C   0  0  0  0  0  0  0  0  0  0  0  0
   21.3049   -9.9952  -15.4178 C   0  0  2  0  0  0  0  0  0  0  0  0
   20.5241  -10.5969  -16.4957 N   0  0  0  0  0  0  0  0  0  0  0  0
   21.4895   -8.5660  -15.7244 C   0  0  0  0  0  0  0  0  0  0  0  0
   21.9943   -8.2299  -16.8328 O   0  0  0  0  0  0  0  0  0  0  0  0
   21.1332   -7.5043  -14.8494 N   0  0  0  0  0  0  0  0  0  0  0  0
   21.4077   -6.0999  -15.0888 C   0  0  1  0  0  0  0  0  0  0  0  0
   20.1854   -5.2877  -15.2828 C   0  0  0  0  0  0  0  0  0  0  0  0
   19.3702   -5.8358  -16.3840 C   0  0  0  0  0  0  0  0  0  0  0  0
   19.6555   -5.7341  -17.6133 O   0  0  0  0  0  0  0  0  0  0  0  0
   22.2875   -5.5194  -14.0602 C   0  0  0  0  0  0  0  0  0  0  0  0
   22.4915   -6.1526  -12.9995 O   0  0  0  0  0  0  0  0  0  0  0  0
   18.1751   -6.5339  -16.1274 O   0  0  0  0  0  0  0  0  0  0  0  0
   22.9039   -4.2986  -14.2159 O   0  0  0  0  0  0  0  0  0  0  0  0
  2  1  1  1
  2  3  1  0
  4  2  1  0
  5  4  2  0
  7  6  1  6
  7  9  1  0
  8  7  1  0
  9 11  1  0
  9 10  1  6
 10  4  1  0
 11 13  1  0
 12 11  2  0
 13 14  1  0
 14 15  1  1
 14 18  1  0
 16 20  1  0
 16 15  1  0
 17 16  2  0
 18 19  2  0
 18 21  1  0
M  END
$$$$
