AVD.pdb
     RDKit          3D

 21 20  0  0  1  0  0  0  0  0999 V2000
   15.8414  -11.6596  -12.3581 C   0  0  0  0  0  0  0  0  0  0  0  0
   16.5976  -10.3763  -12.0961 C   0  0  2  0  0  0  0  0  0  0  0  0
   17.5479  -10.5013  -11.0377 N   0  0  0  0  0  0  0  0  0  0  0  0
   15.6822   -9.2515  -11.8032 C   0  0  0  0  0  0  0  0  0  0  0  0
   14.7188   -8.9991  -12.5646 O   0  0  0  0  0  0  0  0  0  0  0  0
   14.2294   -8.9233   -8.5068 C   0  0  0  0  0  0  0  0  0  0  0  0
   14.7416   -7.5490   -8.8236 C   0  0  1  0  0  0  0  0  0  0  0  0
   15.8396   -7.0979   -7.8922 C   0  0  0  0  0  0  0  0  0  0  0  0
   15.0483   -7.3450  -10.2826 C   0  0  2  0  0  0  0  0  0  0  0  0
   15.8991   -8.4683  -10.6675 N   0  0  0  0  0  0  0  0  0  0  0  0
   15.7620   -6.0959  -10.6003 C   0  0  0  0  0  0  0  0  0  0  0  0
   16.9912   -5.9970  -10.3253 O   0  0  0  0  0  0  0  0  0  0  0  0
   15.1623   -4.9613  -11.2109 N   0  0  0  0  0  0  0  0  0  0  0  0
   15.8597   -3.7387  -11.5629 C   0  0  1  0  0  0  0  0  0  0  0  0
   15.9049   -3.4877  -13.0210 C   0  0  0  0  0  0  0  0  0  0  0  0
   16.6026   -2.2189  -13.3055 C   0  0  0  0  0  0  0  0  0  0  0  0
   17.8320   -2.0068  -13.0900 O   0  0  0  0  0  0  0  0  0  0  0  0
   15.3464   -2.5710  -10.8267 C   0  0  0  0  0  0  0  0  0  0  0  0
   14.1432   -2.5444  -10.4812 O   0  0  0  0  0  0  0  0  0  0  0  0
   15.9178   -1.1191  -13.8561 O   0  0  0  0  0  0  0  0  0  0  0  0
   16.1402   -1.4961  -10.4964 O   0  0  0  0  0  0  0  0  0  0  0  0
  2  1  1  1
  2  3  1  0
  4  2  1  0
  5  4  2  0
  7  6  1  6
  7  9  1  0
  8  7  1  0
  9 11  1  0
  9 10  1  1
 10  4  1  0
 11 13  1  0
 12 11  2  0
 13 14  1  0
 14 15  1  6
 14 18  1  0
 16 20  1  0
 16 15  1  0
 17 16  2  0
 18 19  2  0
 18 21  1  0
M  END
$$$$
