AVD.pdb
     RDKit          3D

 21 20  0  0  1  0  0  0  0  0999 V2000
   33.7451  -39.2690   -6.7704 C   0  0  0  0  0  0  0  0  0  0  0  0
   34.2033  -37.8507   -7.0274 C   0  0  2  0  0  0  0  0  0  0  0  0
   35.6092  -37.7577   -7.2588 N   0  0  0  0  0  0  0  0  0  0  0  0
   33.8274  -36.9448   -5.9197 C   0  0  0  0  0  0  0  0  0  0  0  0
   34.5998  -36.7726   -4.9473 O   0  0  0  0  0  0  0  0  0  0  0  0
   30.2048  -35.0197   -6.5088 C   0  0  0  0  0  0  0  0  0  0  0  0
   31.2830  -34.3321   -5.7238 C   0  0  1  0  0  0  0  0  0  0  0  0
   30.7668  -33.1881   -4.8865 C   0  0  0  0  0  0  0  0  0  0  0  0
   32.1828  -35.2826   -4.9812 C   0  0  2  0  0  0  0  0  0  0  0  0
   32.6005  -36.2793   -5.9640 N   0  0  0  0  0  0  0  0  0  0  0  0
   31.5497  -35.9856   -3.8519 C   0  0  0  0  0  0  0  0  0  0  0  0
   30.6726  -36.8654   -4.0824 O   0  0  0  0  0  0  0  0  0  0  0  0
   31.8565  -35.7487   -2.4846 N   0  0  0  0  0  0  0  0  0  0  0  0
   31.2093  -36.3992   -1.3608 C   0  0  1  0  0  0  0  0  0  0  0  0
   31.8670  -36.1223   -0.0639 C   0  0  0  0  0  0  0  0  0  0  0  0
   31.5340  -37.1716    0.9188 C   0  0  0  0  0  0  0  0  0  0  0  0
   30.7273  -38.1251    0.7116 O   0  0  0  0  0  0  0  0  0  0  0  0
   29.7648  -36.1168   -1.3080 C   0  0  0  0  0  0  0  0  0  0  0  0
   29.3514  -34.9760   -1.6171 O   0  0  0  0  0  0  0  0  0  0  0  0
   32.1149  -37.1790    2.2011 O   0  0  0  0  0  0  0  0  0  0  0  0
   28.8385  -37.0626   -0.9314 O   0  0  0  0  0  0  0  0  0  0  0  0
  2  1  1  1
  2  3  1  0
  4  2  1  0
  5  4  2  0
  7  6  1  1
  7  9  1  0
  8  7  1  0
  9 11  1  0
  9 10  1  6
 10  4  1  0
 11 13  1  0
 12 11  2  0
 13 14  1  0
 14 15  1  1
 14 18  1  0
 16 20  1  0
 16 15  1  0
 17 16  2  0
 18 19  2  0
 18 21  1  0
M  END
$$$$
