AVD.pdb
     RDKit          3D

 21 20  0  0  1  0  0  0  0  0999 V2000
   17.2512  -11.9448  -12.4542 C   0  0  0  0  0  0  0  0  0  0  0  0
   16.1867  -11.8179  -11.3873 C   0  0  2  0  0  0  0  0  0  0  0  0
   15.1514  -12.7921  -11.5211 N   0  0  0  0  0  0  0  0  0  0  0  0
   15.5880  -10.4651  -11.3696 C   0  0  0  0  0  0  0  0  0  0  0  0
   14.7228  -10.1400  -12.2166 O   0  0  0  0  0  0  0  0  0  0  0  0
   15.5612   -6.5531   -8.3758 C   0  0  0  0  0  0  0  0  0  0  0  0
   15.2914   -7.9716   -8.7840 C   0  0  1  0  0  0  0  0  0  0  0  0
   14.0220   -8.5274   -8.1872 C   0  0  0  0  0  0  0  0  0  0  0  0
   15.4313   -8.2065  -10.2637 C   0  0  2  0  0  0  0  0  0  0  0  0
   15.9947   -9.5474  -10.3986 N   0  0  0  0  0  0  0  0  0  0  0  0
   16.3187   -7.2611  -10.9632 C   0  0  0  0  0  0  0  0  0  0  0  0
   17.5052   -7.1078  -10.5569 O   0  0  0  0  0  0  0  0  0  0  0  0
   15.9372   -6.4867  -12.0922 N   0  0  0  0  0  0  0  0  0  0  0  0
   16.7894   -5.5296  -12.7724 C   0  0  1  0  0  0  0  0  0  0  0  0
   16.6183   -5.5322  -14.2427 C   0  0  0  0  0  0  0  0  0  0  0  0
   17.5472   -4.5741  -14.8727 C   0  0  0  0  0  0  0  0  0  0  0  0
   18.7722   -4.4547  -14.5761 O   0  0  0  0  0  0  0  0  0  0  0  0
   16.6626   -4.1729  -12.2135 C   0  0  0  0  0  0  0  0  0  0  0  0
   15.5710   -3.8141  -11.7162 O   0  0  0  0  0  0  0  0  0  0  0  0
   17.1126   -3.6962  -15.8836 O   0  0  0  0  0  0  0  0  0  0  0  0
   17.7035   -3.2722  -12.2121 O   0  0  0  0  0  0  0  0  0  0  0  0
  2  1  1  6
  2  3  1  0
  4  2  1  0
  5  4  2  0
  7  6  1  6
  7  9  1  0
  8  7  1  0
  9 11  1  0
  9 10  1  1
 10  4  1  0
 11 13  1  0
 12 11  2  0
 13 14  1  0
 14 15  1  6
 14 18  1  0
 16 20  1  0
 16 15  1  0
 17 16  2  0
 18 19  2  0
 18 21  1  0
M  END
$$$$
