AVD.pdb
     RDKit          3D

 21 20  0  0  1  0  0  0  0  0999 V2000
   43.5312   -9.5305   -4.9568 C   0  0  0  0  0  0  0  0  0  0  0  0
   43.5318  -10.7125   -5.9003 C   0  0  2  0  0  0  0  0  0  0  0  0
   44.8473  -11.1812   -6.1978 N   0  0  0  0  0  0  0  0  0  0  0  0
   42.8231  -10.4059   -7.1623 C   0  0  0  0  0  0  0  0  0  0  0  0
   43.4599  -10.0380   -8.1776 O   0  0  0  0  0  0  0  0  0  0  0  0
   38.6647  -10.9811   -7.0431 C   0  0  0  0  0  0  0  0  0  0  0  0
   39.4284  -11.1008   -8.3292 C   0  0  1  0  0  0  0  0  0  0  0  0
   38.5439  -11.0382   -9.5500 C   0  0  0  0  0  0  0  0  0  0  0  0
   40.6352  -10.2045   -8.3956 C   0  0  2  0  0  0  0  0  0  0  0  0
   41.4331  -10.5294   -7.2160 N   0  0  0  0  0  0  0  0  0  0  0  0
   40.3410   -8.7611   -8.3701 C   0  0  0  0  0  0  0  0  0  0  0  0
   39.9605   -8.2248   -7.2912 O   0  0  0  0  0  0  0  0  0  0  0  0
   40.4562   -7.8979   -9.4932 N   0  0  0  0  0  0  0  0  0  0  0  0
   40.1280   -6.4847   -9.4949 C   0  0  1  0  0  0  0  0  0  0  0  0
   40.9042   -5.7029  -10.4836 C   0  0  0  0  0  0  0  0  0  0  0  0
   40.6094   -4.2631  -10.3502 C   0  0  0  0  0  0  0  0  0  0  0  0
   40.9527   -3.5439   -9.3665 O   0  0  0  0  0  0  0  0  0  0  0  0
   38.6809   -6.2474   -9.6308 C   0  0  0  0  0  0  0  0  0  0  0  0
   38.0081   -6.9803  -10.3911 O   0  0  0  0  0  0  0  0  0  0  0  0
   39.8983   -3.5702  -11.3481 O   0  0  0  0  0  0  0  0  0  0  0  0
   38.0273   -5.2456   -8.9498 O   0  0  0  0  0  0  0  0  0  0  0  0
  2  1  1  1
  2  3  1  0
  4  2  1  0
  5  4  2  0
  7  6  1  1
  7  9  1  0
  8  7  1  0
  9 11  1  0
  9 10  1  1
 10  4  1  0
 11 13  1  0
 12 11  2  0
 13 14  1  0
 14 15  1  6
 14 18  1  0
 16 20  1  0
 16 15  1  0
 17 16  2  0
 18 19  2  0
 18 21  1  0
M  END
$$$$
