AVD.pdb
     RDKit          3D

 21 20  0  0  1  0  0  0  0  0999 V2000
   20.5873    3.2306   -3.7460 C   0  0  0  0  0  0  0  0  0  0  0  0
   21.4083    3.0524   -2.4884 C   0  0  2  0  0  0  0  0  0  0  0  0
   20.9434    3.8595   -1.4061 N   0  0  0  0  0  0  0  0  0  0  0  0
   22.8419    3.3297   -2.7267 C   0  0  0  0  0  0  0  0  0  0  0  0
   23.2504    4.5082   -2.8539 O   0  0  0  0  0  0  0  0  0  0  0  0
   24.8429    0.2385   -1.8049 C   0  0  0  0  0  0  0  0  0  0  0  0
   25.8172    1.3031   -2.2160 C   0  0  1  0  0  0  0  0  0  0  0  0
   27.0650    0.7470   -2.8566 C   0  0  0  0  0  0  0  0  0  0  0  0
   25.1830    2.4334   -2.9804 C   0  0  2  0  0  0  0  0  0  0  0  0
   23.7421    2.2653   -2.8097 N   0  0  0  0  0  0  0  0  0  0  0  0
   25.4774    2.4515   -4.4238 C   0  0  0  0  0  0  0  0  0  0  0  0
   24.8841    1.6388   -5.1879 O   0  0  0  0  0  0  0  0  0  0  0  0
   26.4002    3.3366   -5.0443 N   0  0  0  0  0  0  0  0  0  0  0  0
   26.6885    3.3772   -6.4656 C   0  0  1  0  0  0  0  0  0  0  0  0
   25.9952    4.4764   -7.1741 C   0  0  0  0  0  0  0  0  0  0  0  0
   26.3154    4.4460   -8.6143 C   0  0  0  0  0  0  0  0  0  0  0  0
   27.0068    3.5499   -9.1815 O   0  0  0  0  0  0  0  0  0  0  0  0
   28.1351    3.3804   -6.7423 C   0  0  0  0  0  0  0  0  0  0  0  0
   28.5484    2.9694   -7.8505 O   0  0  0  0  0  0  0  0  0  0  0  0
   25.8546    5.4525   -9.4840 O   0  0  0  0  0  0  0  0  0  0  0  0
   29.0633    3.8220   -5.8268 O   0  0  0  0  0  0  0  0  0  0  0  0
  2  1  1  6
  2  3  1  0
  4  2  1  0
  5  4  2  0
  7  6  1  6
  7  9  1  0
  8  7  1  0
  9 11  1  0
  9 10  1  6
 10  4  1  0
 11 13  1  0
 12 11  2  0
 13 14  1  0
 14 15  1  1
 14 18  1  0
 16 20  1  0
 16 15  1  0
 17 16  2  0
 18 19  2  0
 18 21  1  0
M  END
$$$$
