AVD.pdb
     RDKit          3D

 21 20  0  0  1  0  0  0  0  0999 V2000
   26.6670  -10.6545  -15.3000 C   0  0  0  0  0  0  0  0  0  0  0  0
   25.4512  -11.4529  -15.7144 C   0  0  2  0  0  0  0  0  0  0  0  0
   25.7689  -12.5180  -16.6108 N   0  0  0  0  0  0  0  0  0  0  0  0
   24.4128  -10.5926  -16.3232 C   0  0  0  0  0  0  0  0  0  0  0  0
   24.5442  -10.1674  -17.4952 O   0  0  0  0  0  0  0  0  0  0  0  0
   21.1844  -11.2522  -17.3960 C   0  0  0  0  0  0  0  0  0  0  0  0
   21.0200  -10.2711  -16.2726 C   0  0  1  0  0  0  0  0  0  0  0  0
   20.5029  -10.9050  -15.0048 C   0  0  0  0  0  0  0  0  0  0  0  0
   22.2173   -9.3818  -16.0733 C   0  0  2  0  0  0  0  0  0  0  0  0
   23.2794  -10.2551  -15.5803 N   0  0  0  0  0  0  0  0  0  0  0  0
   22.0283   -8.2914  -15.1007 C   0  0  0  0  0  0  0  0  0  0  0  0
   22.4290   -8.4442  -13.9123 O   0  0  0  0  0  0  0  0  0  0  0  0
   21.4156   -7.0447  -15.4009 N   0  0  0  0  0  0  0  0  0  0  0  0
   21.1984   -5.9724  -14.4480 C   0  0  1  0  0  0  0  0  0  0  0  0
   22.2331   -4.9155  -14.5077 C   0  0  0  0  0  0  0  0  0  0  0  0
   21.9728   -3.8795  -13.4895 C   0  0  0  0  0  0  0  0  0  0  0  0
   21.3865   -2.7797  -13.7120 O   0  0  0  0  0  0  0  0  0  0  0  0
   19.8409   -5.4089  -14.5411 C   0  0  0  0  0  0  0  0  0  0  0  0
   19.2397   -5.4359  -15.6391 O   0  0  0  0  0  0  0  0  0  0  0  0
   22.3768   -4.0551  -12.1525 O   0  0  0  0  0  0  0  0  0  0  0  0
   19.1957   -4.8491  -13.4618 O   0  0  0  0  0  0  0  0  0  0  0  0
  2  1  1  6
  2  3  1  0
  4  2  1  0
  5  4  2  0
  7  6  1  6
  7  9  1  0
  8  7  1  0
  9 11  1  0
  9 10  1  1
 10  4  1  0
 11 13  1  0
 12 11  2  0
 13 14  1  0
 14 15  1  6
 14 18  1  0
 16 20  1  0
 16 15  1  0
 17 16  2  0
 18 19  2  0
 18 21  1  0
M  END
$$$$
