AVD.pdb
     RDKit          3D

 21 20  0  0  1  0  0  0  0  0999 V2000
   24.3319  -13.3255  -20.3049 C   0  0  0  0  0  0  0  0  0  0  0  0
   24.5177  -12.1009  -19.4371 C   0  0  2  0  0  0  0  0  0  0  0  0
   25.5990  -12.2364  -18.5145 N   0  0  0  0  0  0  0  0  0  0  0  0
   23.2818  -11.7611  -18.6981 C   0  0  0  0  0  0  0  0  0  0  0  0
   22.1897  -11.6439  -19.3025 O   0  0  0  0  0  0  0  0  0  0  0  0
   21.7648  -13.5524  -15.7787 C   0  0  0  0  0  0  0  0  0  0  0  0
   22.1515  -12.1640  -15.3611 C   0  0  1  0  0  0  0  0  0  0  0  0
   23.3734  -12.1314  -14.4767 C   0  0  0  0  0  0  0  0  0  0  0  0
   22.1898  -11.1837  -16.5021 C   0  0  2  0  0  0  0  0  0  0  0  0
   23.3395  -11.5705  -17.3159 N   0  0  0  0  0  0  0  0  0  0  0  0
   22.3578   -9.7744  -16.1068 C   0  0  0  0  0  0  0  0  0  0  0  0
   23.4841   -9.3756  -15.6962 O   0  0  0  0  0  0  0  0  0  0  0  0
   21.3256   -8.7986  -16.1537 N   0  0  0  0  0  0  0  0  0  0  0  0
   21.4808   -7.4035  -15.7866 C   0  0  1  0  0  0  0  0  0  0  0  0
   20.8151   -6.4721  -16.7249 C   0  0  0  0  0  0  0  0  0  0  0  0
   21.3371   -6.6559  -18.0929 C   0  0  0  0  0  0  0  0  0  0  0  0
   22.5637   -6.6401  -18.4058 O   0  0  0  0  0  0  0  0  0  0  0  0
   21.0836   -7.1453  -14.3921 C   0  0  0  0  0  0  0  0  0  0  0  0
   20.5336   -8.0564  -13.7325 O   0  0  0  0  0  0  0  0  0  0  0  0
   20.4692   -6.8682  -19.1808 O   0  0  0  0  0  0  0  0  0  0  0  0
   21.2943   -5.9335  -13.7742 O   0  0  0  0  0  0  0  0  0  0  0  0
  2  1  1  1
  2  3  1  0
  4  2  1  0
  5  4  2  0
  7  6  1  6
  7  9  1  0
  8  7  1  0
  9 11  1  0
  9 10  1  6
 10  4  1  0
 11 13  1  0
 12 11  2  0
 13 14  1  0
 14 15  1  6
 14 18  1  0
 16 20  1  0
 16 15  1  0
 17 16  2  0
 18 19  2  0
 18 21  1  0
M  END
$$$$
