AVD.pdb
     RDKit          3D

 21 20  0  0  1  0  0  0  0  0999 V2000
   16.6754  -10.0801  -17.3847 C   0  0  0  0  0  0  0  0  0  0  0  0
   17.6626  -11.0339  -16.7498 C   0  0  2  0  0  0  0  0  0  0  0  0
   17.0400  -12.2102  -16.2328 N   0  0  0  0  0  0  0  0  0  0  0  0
   18.4431  -10.3797  -15.6765 C   0  0  0  0  0  0  0  0  0  0  0  0
   17.9378  -10.1930  -14.5445 O   0  0  0  0  0  0  0  0  0  0  0  0
   22.3964  -10.4597  -16.3750 C   0  0  0  0  0  0  0  0  0  0  0  0
   21.8988  -10.2290  -14.9783 C   0  0  1  0  0  0  0  0  0  0  0  0
   22.9819   -9.7711  -14.0329 C   0  0  0  0  0  0  0  0  0  0  0  0
   20.6401   -9.4066  -14.9186 C   0  0  2  0  0  0  0  0  0  0  0  0
   19.7529   -9.9692  -15.9335 N   0  0  0  0  0  0  0  0  0  0  0  0
   20.8188   -7.9727  -15.2060 C   0  0  0  0  0  0  0  0  0  0  0  0
   21.0734   -7.6041  -16.3874 O   0  0  0  0  0  0  0  0  0  0  0  0
   20.7230   -6.9406  -14.2336 N   0  0  0  0  0  0  0  0  0  0  0  0
   20.8052   -5.5199  -14.5160 C   0  0  1  0  0  0  0  0  0  0  0  0
   19.5851   -4.7739  -14.1339 C   0  0  0  0  0  0  0  0  0  0  0  0
   19.7279   -3.3437  -14.4684 C   0  0  0  0  0  0  0  0  0  0  0  0
   20.0143   -2.8960  -15.6174 O   0  0  0  0  0  0  0  0  0  0  0  0
   22.0170   -4.9064  -13.9467 C   0  0  0  0  0  0  0  0  0  0  0  0
   22.4690   -5.3351  -12.8606 O   0  0  0  0  0  0  0  0  0  0  0  0
   19.5483   -2.3461  -13.4915 O   0  0  0  0  0  0  0  0  0  0  0  0
   22.6834   -3.8721  -14.5637 O   0  0  0  0  0  0  0  0  0  0  0  0
  2  1  1  1
  2  3  1  0
  4  2  1  0
  5  4  2  0
  7  6  1  6
  7  9  1  0
  8  7  1  0
  9 11  1  0
  9 10  1  6
 10  4  1  0
 11 13  1  0
 12 11  2  0
 13 14  1  0
 14 15  1  1
 14 18  1  0
 16 20  1  0
 16 15  1  0
 17 16  2  0
 18 19  2  0
 18 21  1  0
M  END
$$$$
