NCT.pdb
     RDKit          3D

 22 21  0  0  1  0  0  0  0  0999 V2000
    8.2966  -13.3598   14.1502 N   0  0  0  0  0  0  0  0  0  0  0  0
    7.5753  -13.9959   15.1926 C   0  0  0  0  0  0  0  0  0  0  0  0
    6.6513  -14.7921   14.8370 O   0  0  0  0  0  0  0  0  0  0  0  0
    7.8744  -13.7558   16.6191 C   0  0  0  0  0  0  0  0  0  0  0  0
    8.4231  -14.9546   17.3483 C   0  0  2  0  0  0  0  0  0  0  0  0
    7.2580  -15.8565   17.5113 N   0  0  0  0  0  0  0  0  0  0  0  0
    8.8534  -14.5054   18.7162 C   0  0  0  0  0  0  0  0  0  0  0  0
    9.8619  -13.8044   18.9437 O   0  0  0  0  0  0  0  0  0  0  0  0
    8.1022  -14.8705   19.8779 N   0  0  0  0  0  0  0  0  0  0  0  0
    8.5928  -14.5783   21.2262 C   0  0  1  0  0  0  0  0  0  0  0  0
    7.3882  -14.0277   21.9661 C   0  0  0  0  0  0  0  0  0  0  0  0
    7.5438  -14.0230   23.7415 S   0  0  0  0  0  0  0  0  0  0  0  0
    9.1254  -15.8033   21.8638 C   0  0  0  0  0  0  0  0  0  0  0  0
    8.3492  -16.7991   21.9378 O   0  0  0  0  0  0  0  0  0  0  0  0
   11.2600  -18.2277   20.6801 C   0  0  0  0  0  0  0  0  0  0  0  0
   11.9225  -17.8481   21.9839 C   0  0  1  0  0  0  0  0  0  0  0  0
   13.0381  -17.0480   21.7303 O   0  0  0  0  0  0  0  0  0  0  0  0
   10.9595  -17.1860   22.9055 C   0  0  2  0  0  0  0  0  0  0  0  0
   10.4310  -15.9499   22.3947 N   0  0  0  0  0  0  0  0  0  0  0  0
   11.4998  -17.0313   24.2850 C   0  0  0  0  0  0  0  0  0  0  0  0
   11.7593  -18.1112   25.0886 O   0  0  0  0  0  0  0  0  0  0  0  0
   11.7160  -15.8604   24.7020 O   0  0  0  0  0  0  0  0  0  0  0  0
  2  1  1  0
  3  2  2  0
  4  2  1  0
  5  4  1  0
  5  6  1  1
  7  5  1  0
  7  9  1  0
  8  7  2  0
 10 11  1  1
 10  9  1  0
 10 13  1  0
 12 11  1  0
 13 19  1  0
 14 13  2  0
 16 15  1  6
 16 17  1  0
 18 16  1  0
 18 19  1  6
 20 18  1  0
 20 21  1  0
 22 20  2  0
M  END
$$$$
