NCT.pdb
     RDKit          3D

 22 21  0  0  1  0  0  0  0  0999 V2000
    7.6200  -18.2870   16.1843 N   0  0  0  0  0  0  0  0  0  0  0  0
    8.1883  -19.1219   17.1801 C   0  0  0  0  0  0  0  0  0  0  0  0
    7.9540  -20.3663   17.0760 O   0  0  0  0  0  0  0  0  0  0  0  0
    9.0121  -18.5859   18.2828 C   0  0  0  0  0  0  0  0  0  0  0  0
    9.1321  -17.0841   18.2942 C   0  0  2  0  0  0  0  0  0  0  0  0
   10.0855  -16.7785   17.2009 N   0  0  0  0  0  0  0  0  0  0  0  0
    9.7744  -16.6824   19.5918 C   0  0  0  0  0  0  0  0  0  0  0  0
   10.9643  -16.9159   19.8921 O   0  0  0  0  0  0  0  0  0  0  0  0
    9.0293  -15.9831   20.5933 N   0  0  0  0  0  0  0  0  0  0  0  0
    9.6604  -15.5252   21.8328 C   0  0  1  0  0  0  0  0  0  0  0  0
    8.6257  -14.6286   22.4862 C   0  0  0  0  0  0  0  0  0  0  0  0
    7.6879  -15.4019   23.7897 S   0  0  0  0  0  0  0  0  0  0  0  0
   10.0204  -16.6766   22.6905 C   0  0  0  0  0  0  0  0  0  0  0  0
    9.7307  -17.8297   22.2594 O   0  0  0  0  0  0  0  0  0  0  0  0
   11.7264  -18.7409   22.3964 C   0  0  0  0  0  0  0  0  0  0  0  0
   12.3103  -18.3908   23.7452 C   0  0  1  0  0  0  0  0  0  0  0  0
   13.4693  -17.6314   23.5743 O   0  0  0  0  0  0  0  0  0  0  0  0
   11.3105  -17.6973   24.6022 C   0  0  2  0  0  0  0  0  0  0  0  0
   10.6627  -16.5909   23.9506 N   0  0  0  0  0  0  0  0  0  0  0  0
   11.8625  -17.3134   25.9314 C   0  0  0  0  0  0  0  0  0  0  0  0
   12.2909  -18.2488   26.8374 O   0  0  0  0  0  0  0  0  0  0  0  0
   11.9267  -16.0838   26.2066 O   0  0  0  0  0  0  0  0  0  0  0  0
  2  1  1  0
  3  2  2  0
  4  2  1  0
  5  4  1  0
  5  6  1  6
  7  5  1  0
  7  9  1  0
  8  7  2  0
 10 11  1  1
 10  9  1  0
 10 13  1  0
 12 11  1  0
 13 19  1  0
 14 13  2  0
 16 15  1  6
 16 17  1  0
 18 16  1  0
 18 19  1  6
 20 18  1  0
 20 21  1  0
 22 20  2  0
M  END
$$$$
