NCT.pdb
     RDKit          3D

 22 21  0  0  1  0  0  0  0  0999 V2000
    6.8114  -13.8045   17.8621 N   0  0  0  0  0  0  0  0  0  0  0  0
    7.2498  -14.9386   18.5923 C   0  0  0  0  0  0  0  0  0  0  0  0
    7.1784  -16.0578   17.9952 O   0  0  0  0  0  0  0  0  0  0  0  0
    7.7661  -14.8368   19.9725 C   0  0  0  0  0  0  0  0  0  0  0  0
    7.5404  -13.4962   20.6220 C   0  0  2  0  0  0  0  0  0  0  0  0
    8.3691  -12.5552   19.8312 N   0  0  0  0  0  0  0  0  0  0  0  0
    8.1089  -13.5553   22.0117 C   0  0  0  0  0  0  0  0  0  0  0  0
    9.3273  -13.6443   22.2724 O   0  0  0  0  0  0  0  0  0  0  0  0
    7.2522  -13.5111   23.1569 N   0  0  0  0  0  0  0  0  0  0  0  0
    7.7947  -13.5391   24.5167 C   0  0  1  0  0  0  0  0  0  0  0  0
    6.7928  -12.7622   25.3498 C   0  0  0  0  0  0  0  0  0  0  0  0
    7.0856  -12.8161   27.1070 S   0  0  0  0  0  0  0  0  0  0  0  0
    7.9479  -14.9339   24.9879 C   0  0  0  0  0  0  0  0  0  0  0  0
    6.9266  -15.6775   24.9303 O   0  0  0  0  0  0  0  0  0  0  0  0
    9.3621  -17.7754   23.6327 C   0  0  0  0  0  0  0  0  0  0  0  0
   10.0271  -17.7279   24.9886 C   0  0  1  0  0  0  0  0  0  0  0  0
   11.3515  -17.3088   24.8495 O   0  0  0  0  0  0  0  0  0  0  0  0
    9.2657  -16.8656   25.9329 C   0  0  2  0  0  0  0  0  0  0  0  0
    9.1432  -15.5011   25.4953 N   0  0  0  0  0  0  0  0  0  0  0  0
    9.7736  -16.9575   27.3302 C   0  0  0  0  0  0  0  0  0  0  0  0
    9.8066  -18.1450   28.0143 O   0  0  0  0  0  0  0  0  0  0  0  0
   10.1796  -15.8957   27.8773 O   0  0  0  0  0  0  0  0  0  0  0  0
  2  1  1  0
  3  2  2  0
  4  2  1  0
  5  4  1  0
  5  6  1  6
  7  5  1  0
  7  9  1  0
  8  7  2  0
 10 11  1  1
 10  9  1  0
 10 13  1  0
 12 11  1  0
 13 19  1  0
 14 13  2  0
 16 15  1  6
 16 17  1  0
 18 16  1  0
 18 19  1  6
 20 18  1  0
 20 21  1  0
 22 20  2  0
M  END
$$$$
