NCT.pdb
     RDKit          3D

 22 21  0  0  1  0  0  0  0  0999 V2000
    6.4274  -27.1314   26.2082 N   0  0  0  0  0  0  0  0  0  0  0  0
    6.4064  -25.7817   26.6432 C   0  0  0  0  0  0  0  0  0  0  0  0
    5.2619  -25.2770   26.8660 O   0  0  0  0  0  0  0  0  0  0  0  0
    7.6421  -24.9949   26.8331 C   0  0  0  0  0  0  0  0  0  0  0  0
    7.6815  -23.7047   26.0561 C   0  0  2  0  0  0  0  0  0  0  0  0
    7.8713  -24.1243   24.6471 N   0  0  0  0  0  0  0  0  0  0  0  0
    8.9081  -22.9476   26.4809 C   0  0  0  0  0  0  0  0  0  0  0  0
   10.0529  -23.1443   26.0214 O   0  0  0  0  0  0  0  0  0  0  0  0
    8.8286  -21.9202   27.4735 N   0  0  0  0  0  0  0  0  0  0  0  0
   10.0122  -21.1609   27.8817 C   0  0  1  0  0  0  0  0  0  0  0  0
    9.5671  -19.7107   27.8651 C   0  0  0  0  0  0  0  0  0  0  0  0
   10.6965  -18.5767   28.6492 S   0  0  0  0  0  0  0  0  0  0  0  0
   10.4678  -21.5878   29.2238 C   0  0  0  0  0  0  0  0  0  0  0  0
    9.5866  -21.6973   30.1242 O   0  0  0  0  0  0  0  0  0  0  0  0
   11.3013  -24.5704   30.8201 C   0  0  0  0  0  0  0  0  0  0  0  0
   12.5371  -23.7245   31.0201 C   0  0  1  0  0  0  0  0  0  0  0  0
   13.5304  -24.1218   30.1231 O   0  0  0  0  0  0  0  0  0  0  0  0
   12.2238  -22.2746   30.8989 C   0  0  2  0  0  0  0  0  0  0  0  0
   11.8072  -21.8842   29.5789 N   0  0  0  0  0  0  0  0  0  0  0  0
   13.3183  -21.4063   31.4156 C   0  0  0  0  0  0  0  0  0  0  0  0
   13.9845  -20.5203   30.6090 O   0  0  0  0  0  0  0  0  0  0  0  0
   13.6216  -21.5091   32.6359 O   0  0  0  0  0  0  0  0  0  0  0  0
  2  1  1  0
  3  2  2  0
  4  2  1  0
  5  4  1  0
  5  6  1  6
  7  5  1  0
  7  9  1  0
  8  7  2  0
 10 11  1  1
 10  9  1  0
 10 13  1  0
 12 11  1  0
 13 19  1  0
 14 13  2  0
 16 15  1  6
 16 17  1  0
 18 16  1  0
 18 19  1  6
 20 18  1  0
 20 21  1  0
 22 20  2  0
M  END
$$$$
