NCT.pdb
     RDKit          3D

 22 21  0  0  1  0  0  0  0  0999 V2000
    7.4038  -12.6772   17.7876 N   0  0  0  0  0  0  0  0  0  0  0  0
    7.9242  -13.6986   18.6228 C   0  0  0  0  0  0  0  0  0  0  0  0
    8.0413  -14.8510   18.1008 O   0  0  0  0  0  0  0  0  0  0  0  0
    8.3149  -13.4481   20.0251 C   0  0  0  0  0  0  0  0  0  0  0  0
    8.1331  -14.6309   20.9405 C   0  0  2  0  0  0  0  0  0  0  0  0
    6.6694  -14.8647   20.9605 N   0  0  0  0  0  0  0  0  0  0  0  0
    8.5525  -14.2140   22.3219 C   0  0  0  0  0  0  0  0  0  0  0  0
    9.7300  -13.9659   22.6570 O   0  0  0  0  0  0  0  0  0  0  0  0
    7.5883  -14.0729   23.3696 N   0  0  0  0  0  0  0  0  0  0  0  0
    7.9980  -13.8742   24.7613 C   0  0  1  0  0  0  0  0  0  0  0  0
    6.8682  -13.0792   25.3882 C   0  0  0  0  0  0  0  0  0  0  0  0
    6.9030  -13.0140   27.1689 S   0  0  0  0  0  0  0  0  0  0  0  0
    8.2031  -15.1761   25.4350 C   0  0  0  0  0  0  0  0  0  0  0  0
    7.2144  -15.9634   25.4816 O   0  0  0  0  0  0  0  0  0  0  0  0
   11.6972  -17.2244   25.3066 C   0  0  0  0  0  0  0  0  0  0  0  0
   10.3824  -17.8391   25.7262 C   0  0  1  0  0  0  0  0  0  0  0  0
   10.6131  -19.0709   26.3415 O   0  0  0  0  0  0  0  0  0  0  0  0
    9.6096  -16.9153   26.6005 C   0  0  2  0  0  0  0  0  0  0  0  0
    9.4143  -15.6102   26.0286 N   0  0  0  0  0  0  0  0  0  0  0  0
   10.1594  -16.8395   27.9827 C   0  0  0  0  0  0  0  0  0  0  0  0
   10.2860  -17.9505   28.7759 O   0  0  0  0  0  0  0  0  0  0  0  0
   10.5117  -15.7067   28.4122 O   0  0  0  0  0  0  0  0  0  0  0  0
  2  1  1  0
  3  2  2  0
  4  2  1  0
  5  4  1  0
  5  6  1  1
  7  5  1  0
  7  9  1  0
  8  7  2  0
 10 11  1  1
 10  9  1  0
 10 13  1  0
 12 11  1  0
 13 19  1  0
 14 13  2  0
 16 15  1  1
 16 17  1  0
 18 16  1  0
 18 19  1  6
 20 18  1  0
 20 21  1  0
 22 20  2  0
M  END
$$$$
