NCT.pdb
     RDKit          3D

 22 21  0  0  1  0  0  0  0  0999 V2000
   14.4724  -17.0930   19.7931 N   0  0  0  0  0  0  0  0  0  0  0  0
   13.5493  -17.9971   20.3779 C   0  0  0  0  0  0  0  0  0  0  0  0
   13.6765  -19.2204   20.0592 O   0  0  0  0  0  0  0  0  0  0  0  0
   12.4935  -17.5530   21.3108 C   0  0  0  0  0  0  0  0  0  0  0  0
   11.1304  -18.1270   21.0237 C   0  0  2  0  0  0  0  0  0  0  0  0
   10.9191  -17.8790   19.5776 N   0  0  0  0  0  0  0  0  0  0  0  0
   10.1190  -17.3158   21.7832 C   0  0  0  0  0  0  0  0  0  0  0  0
    9.0499  -16.8883   21.2987 O   0  0  0  0  0  0  0  0  0  0  0  0
   10.3335  -16.9756   23.1564 N   0  0  0  0  0  0  0  0  0  0  0  0
    9.2134  -16.6902   24.0553 C   0  0  1  0  0  0  0  0  0  0  0  0
    8.2262  -17.8166   23.8143 C   0  0  0  0  0  0  0  0  0  0  0  0
    6.8753  -17.8830   24.9749 S   0  0  0  0  0  0  0  0  0  0  0  0
    9.6728  -16.6441   25.4617 C   0  0  0  0  0  0  0  0  0  0  0  0
   10.5619  -17.4751   25.8055 O   0  0  0  0  0  0  0  0  0  0  0  0
   10.4436  -13.4476   29.1703 C   0  0  0  0  0  0  0  0  0  0  0  0
    9.4948  -13.9827   28.1233 C   0  0  1  0  0  0  0  0  0  0  0  0
    9.2811  -13.0134   27.1415 O   0  0  0  0  0  0  0  0  0  0  0  0
    9.9935  -15.2606   27.5460 C   0  0  2  0  0  0  0  0  0  0  0  0
    9.1989  -15.7458   26.4498 N   0  0  0  0  0  0  0  0  0  0  0  0
   10.2133  -16.3099   28.5801 C   0  0  0  0  0  0  0  0  0  0  0  0
   11.2429  -16.2361   29.4822 O   0  0  0  0  0  0  0  0  0  0  0  0
    9.4135  -17.2853   28.6046 O   0  0  0  0  0  0  0  0  0  0  0  0
  2  1  1  0
  3  2  2  0
  4  2  1  0
  5  4  1  0
  5  6  1  6
  7  5  1  0
  7  9  1  0
  8  7  2  0
 10 11  1  1
 10  9  1  0
 10 13  1  0
 12 11  1  0
 13 19  1  0
 14 13  2  0
 16 15  1  1
 16 17  1  0
 18 16  1  0
 18 19  1  6
 20 18  1  0
 20 21  1  0
 22 20  2  0
M  END
$$$$
