NCT.pdb
     RDKit          3D

 22 21  0  0  1  0  0  0  0  0999 V2000
    7.7351  -19.5608   15.3614 N   0  0  0  0  0  0  0  0  0  0  0  0
    7.4535  -19.8407   16.7229 C   0  0  0  0  0  0  0  0  0  0  0  0
    7.1434  -21.0409   17.0012 O   0  0  0  0  0  0  0  0  0  0  0  0
    7.5162  -18.8017   17.7711 C   0  0  0  0  0  0  0  0  0  0  0  0
    7.7533  -17.4081   17.2498 C   0  0  2  0  0  0  0  0  0  0  0  0
    8.5560  -17.6027   16.0188 N   0  0  0  0  0  0  0  0  0  0  0  0
    8.6095  -16.6816   18.2484 C   0  0  0  0  0  0  0  0  0  0  0  0
    9.8459  -16.8247   18.3541 O   0  0  0  0  0  0  0  0  0  0  0  0
    8.0327  -15.7498   19.1683 N   0  0  0  0  0  0  0  0  0  0  0  0
    8.8635  -14.9840   20.0998 C   0  0  1  0  0  0  0  0  0  0  0  0
    7.9471  -13.9004   20.6356 C   0  0  0  0  0  0  0  0  0  0  0  0
    7.3274  -12.7729   19.4022 S   0  0  0  0  0  0  0  0  0  0  0  0
    9.3806  -15.8583   21.1764 C   0  0  0  0  0  0  0  0  0  0  0  0
    8.7011  -16.8863   21.4609 O   0  0  0  0  0  0  0  0  0  0  0  0
    9.9783  -18.4743   21.6784 C   0  0  0  0  0  0  0  0  0  0  0  0
   11.3105  -17.9580   22.1698 C   0  0  1  0  0  0  0  0  0  0  0  0
   12.2337  -17.9641   21.1225 O   0  0  0  0  0  0  0  0  0  0  0  0
   11.1730  -16.6093   22.7840 C   0  0  2  0  0  0  0  0  0  0  0  0
   10.5725  -15.6375   21.9103 N   0  0  0  0  0  0  0  0  0  0  0  0
   12.4489  -16.1142   23.3721 C   0  0  0  0  0  0  0  0  0  0  0  0
   13.0122  -16.6955   24.4785 O   0  0  0  0  0  0  0  0  0  0  0  0
   13.0073  -15.1290   22.8161 O   0  0  0  0  0  0  0  0  0  0  0  0
  2  1  1  0
  3  2  2  0
  4  2  1  0
  5  4  1  0
  5  6  1  6
  7  5  1  0
  7  9  1  0
  8  7  2  0
 10 11  1  1
 10  9  1  0
 10 13  1  0
 12 11  1  0
 13 19  1  0
 14 13  2  0
 16 15  1  6
 16 17  1  0
 18 16  1  0
 18 19  1  6
 20 18  1  0
 20 21  1  0
 22 20  2  0
M  END
$$$$
