NCT.pdb
     RDKit          3D

 22 21  0  0  1  0  0  0  0  0999 V2000
   12.1500  -17.9684   15.5095 N   0  0  0  0  0  0  0  0  0  0  0  0
   10.8771  -17.6007   16.0155 C   0  0  0  0  0  0  0  0  0  0  0  0
    9.8689  -17.9903   15.3477 O   0  0  0  0  0  0  0  0  0  0  0  0
   10.7187  -16.8095   17.2529 C   0  0  0  0  0  0  0  0  0  0  0  0
   10.3327  -17.6205   18.4625 C   0  0  2  0  0  0  0  0  0  0  0  0
    8.9248  -18.0125   18.2142 N   0  0  0  0  0  0  0  0  0  0  0  0
   10.3534  -16.7074   19.6558 C   0  0  0  0  0  0  0  0  0  0  0  0
   11.3712  -16.1165   20.0744 O   0  0  0  0  0  0  0  0  0  0  0  0
    9.1620  -16.4552   20.4069 N   0  0  0  0  0  0  0  0  0  0  0  0
    9.2071  -15.7752   21.7030 C   0  0  1  0  0  0  0  0  0  0  0  0
    7.8371  -15.1418   21.8562 C   0  0  0  0  0  0  0  0  0  0  0  0
    7.4501  -14.5967   23.5083 S   0  0  0  0  0  0  0  0  0  0  0  0
    9.4990  -16.7394   22.7874 C   0  0  0  0  0  0  0  0  0  0  0  0
    9.0229  -17.9048   22.6664 O   0  0  0  0  0  0  0  0  0  0  0  0
   13.1461  -16.9784   23.6596 C   0  0  0  0  0  0  0  0  0  0  0  0
   12.1352  -18.0454   24.0097 C   0  0  1  0  0  0  0  0  0  0  0  0
   12.7499  -19.0486   24.7611 O   0  0  0  0  0  0  0  0  0  0  0  0
   10.9588  -17.4642   24.7122 C   0  0  2  0  0  0  0  0  0  0  0  0
   10.2674  -16.4630   23.9454 N   0  0  0  0  0  0  0  0  0  0  0  0
   11.2890  -16.9842   26.0831 C   0  0  0  0  0  0  0  0  0  0  0  0
   10.9963  -15.7104   26.4966 O   0  0  0  0  0  0  0  0  0  0  0  0
   11.8549  -17.7943   26.8673 O   0  0  0  0  0  0  0  0  0  0  0  0
  2  1  1  0
  3  2  2  0
  4  2  1  0
  5  4  1  0
  5  6  1  6
  7  5  1  0
  7  9  1  0
  8  7  2  0
 10 11  1  1
 10  9  1  0
 10 13  1  0
 12 11  1  0
 13 19  1  0
 14 13  2  0
 16 15  1  1
 16 17  1  0
 18 16  1  0
 18 19  1  6
 20 18  1  0
 20 21  1  0
 22 20  2  0
M  END
$$$$
