NCT.pdb
     RDKit          3D

 22 21  0  0  1  0  0  0  0  0999 V2000
    8.0443  -17.2816   17.6378 N   0  0  0  0  0  0  0  0  0  0  0  0
    7.9246  -15.9740   17.1017 C   0  0  0  0  0  0  0  0  0  0  0  0
    7.1900  -15.8497   16.0725 O   0  0  0  0  0  0  0  0  0  0  0  0
    8.6102  -14.8104   17.7000 C   0  0  0  0  0  0  0  0  0  0  0  0
    7.7351  -13.9632   18.5868 C   0  0  2  0  0  0  0  0  0  0  0  0
    7.7380  -12.6268   17.9455 N   0  0  0  0  0  0  0  0  0  0  0  0
    8.4155  -13.8361   19.9206 C   0  0  0  0  0  0  0  0  0  0  0  0
    8.9339  -12.7841   20.3507 O   0  0  0  0  0  0  0  0  0  0  0  0
    8.5104  -14.9567   20.8052 N   0  0  0  0  0  0  0  0  0  0  0  0
    8.6669  -14.7767   22.2499 C   0  0  1  0  0  0  0  0  0  0  0  0
    7.3928  -14.0836   22.6945 C   0  0  0  0  0  0  0  0  0  0  0  0
    7.2804  -13.7863   24.4482 S   0  0  0  0  0  0  0  0  0  0  0  0
    8.8529  -16.0831   22.9206 C   0  0  0  0  0  0  0  0  0  0  0  0
    8.2361  -17.0742   22.4340 O   0  0  0  0  0  0  0  0  0  0  0  0
   10.4997  -17.8921   21.8393 C   0  0  0  0  0  0  0  0  0  0  0  0
   11.2766  -17.9073   23.1351 C   0  0  1  0  0  0  0  0  0  0  0  0
   12.3997  -17.0860   23.0208 O   0  0  0  0  0  0  0  0  0  0  0  0
   10.4156  -17.5176   24.2849 C   0  0  2  0  0  0  0  0  0  0  0  0
    9.6649  -16.3119   24.0591 N   0  0  0  0  0  0  0  0  0  0  0  0
   11.1635  -17.4736   25.5723 C   0  0  0  0  0  0  0  0  0  0  0  0
   11.6747  -18.6047   26.1542 O   0  0  0  0  0  0  0  0  0  0  0  0
   11.3169  -16.3489   26.1230 O   0  0  0  0  0  0  0  0  0  0  0  0
  2  1  1  0
  3  2  2  0
  4  2  1  0
  5  4  1  0
  5  6  1  6
  7  5  1  0
  7  9  1  0
  8  7  2  0
 10 11  1  1
 10  9  1  0
 10 13  1  0
 12 11  1  0
 13 19  1  0
 14 13  2  0
 16 15  1  6
 16 17  1  0
 18 16  1  0
 18 19  1  6
 20 18  1  0
 20 21  1  0
 22 20  2  0
M  END
$$$$
