NCT.pdb
     RDKit          3D

 22 21  0  0  1  0  0  0  0  0999 V2000
    5.6146  -17.6720   20.5703 N   0  0  0  0  0  0  0  0  0  0  0  0
    6.6160  -16.9111   19.9149 C   0  0  0  0  0  0  0  0  0  0  0  0
    6.5295  -16.8328   18.6497 O   0  0  0  0  0  0  0  0  0  0  0  0
    7.7051  -16.2389   20.6525 C   0  0  0  0  0  0  0  0  0  0  0  0
    7.4883  -14.7640   20.8708 C   0  0  2  0  0  0  0  0  0  0  0  0
    8.2340  -14.1109   19.7685 N   0  0  0  0  0  0  0  0  0  0  0  0
    8.1533  -14.3864   22.1643 C   0  0  0  0  0  0  0  0  0  0  0  0
    9.3899  -14.3227   22.3296 O   0  0  0  0  0  0  0  0  0  0  0  0
    7.3762  -14.0667   23.3224 N   0  0  0  0  0  0  0  0  0  0  0  0
    8.0078  -13.8171   24.6196 C   0  0  1  0  0  0  0  0  0  0  0  0
    7.0513  -12.8889   25.3443 C   0  0  0  0  0  0  0  0  0  0  0  0
    7.4283  -12.6289   27.0667 S   0  0  0  0  0  0  0  0  0  0  0  0
    8.2133  -15.0869   25.3521 C   0  0  0  0  0  0  0  0  0  0  0  0
    7.1973  -15.8169   25.5368 O   0  0  0  0  0  0  0  0  0  0  0  0
    9.8899  -18.0437   24.3741 C   0  0  0  0  0  0  0  0  0  0  0  0
   10.4809  -17.7683   25.7370 C   0  0  1  0  0  0  0  0  0  0  0  0
   11.7912  -17.3071   25.5981 O   0  0  0  0  0  0  0  0  0  0  0  0
    9.6346  -16.8188   26.5101 C   0  0  2  0  0  0  0  0  0  0  0  0
    9.4529  -15.5491   25.8597 N   0  0  0  0  0  0  0  0  0  0  0  0
   10.0906  -16.6609   27.9193 C   0  0  0  0  0  0  0  0  0  0  0  0
   10.1563  -17.7223   28.7846 O   0  0  0  0  0  0  0  0  0  0  0  0
   10.4204  -15.5051   28.3028 O   0  0  0  0  0  0  0  0  0  0  0  0
  2  1  1  0
  3  2  2  0
  4  2  1  0
  5  4  1  0
  5  6  1  6
  7  5  1  0
  7  9  1  0
  8  7  2  0
 10 11  1  1
 10  9  1  0
 10 13  1  0
 12 11  1  0
 13 19  1  0
 14 13  2  0
 16 15  1  6
 16 17  1  0
 18 16  1  0
 18 19  1  6
 20 18  1  0
 20 21  1  0
 22 20  2  0
M  END
$$$$
