NCT.pdb
     RDKit          3D

 22 21  0  0  1  0  0  0  0  0999 V2000
    5.5732  -16.5394   19.3383 N   0  0  0  0  0  0  0  0  0  0  0  0
    6.9066  -16.0708   19.2205 C   0  0  0  0  0  0  0  0  0  0  0  0
    7.3800  -16.0019   18.0434 O   0  0  0  0  0  0  0  0  0  0  0  0
    7.7115  -15.6784   20.3954 C   0  0  0  0  0  0  0  0  0  0  0  0
    7.3935  -14.3084   20.9356 C   0  0  2  0  0  0  0  0  0  0  0  0
    7.9311  -13.3732   19.9189 N   0  0  0  0  0  0  0  0  0  0  0  0
    8.1815  -14.1170   22.2007 C   0  0  0  0  0  0  0  0  0  0  0  0
    9.4262  -14.0233   22.2491 O   0  0  0  0  0  0  0  0  0  0  0  0
    7.5236  -14.0282   23.4681 N   0  0  0  0  0  0  0  0  0  0  0  0
    8.2702  -14.1295   24.7237 C   0  0  1  0  0  0  0  0  0  0  0  0
    7.4511  -13.3390   25.7266 C   0  0  0  0  0  0  0  0  0  0  0  0
    5.6864  -13.4716   25.5154 S   0  0  0  0  0  0  0  0  0  0  0  0
    8.4252  -15.5459   25.1249 C   0  0  0  0  0  0  0  0  0  0  0  0
    7.8469  -16.4143   24.4102 O   0  0  0  0  0  0  0  0  0  0  0  0
   11.3808  -18.9430   25.3950 C   0  0  0  0  0  0  0  0  0  0  0  0
   10.6956  -17.6109   25.1985 C   0  0  1  0  0  0  0  0  0  0  0  0
   10.0391  -17.5958   23.9665 O   0  0  0  0  0  0  0  0  0  0  0  0
    9.7725  -17.3076   26.3259 C   0  0  2  0  0  0  0  0  0  0  0  0
    9.1683  -16.0053   26.2406 N   0  0  0  0  0  0  0  0  0  0  0  0
   10.3965  -17.5443   27.6576 C   0  0  0  0  0  0  0  0  0  0  0  0
   10.2543  -18.7333   28.3251 O   0  0  0  0  0  0  0  0  0  0  0  0
   11.0708  -16.6061   28.1642 O   0  0  0  0  0  0  0  0  0  0  0  0
  2  1  1  0
  3  2  2  0
  4  2  1  0
  5  4  1  0
  5  6  1  6
  7  5  1  0
  7  9  1  0
  8  7  2  0
 10 11  1  1
 10  9  1  0
 10 13  1  0
 12 11  1  0
 13 19  1  0
 14 13  2  0
 16 15  1  1
 16 17  1  0
 18 16  1  0
 18 19  1  1
 20 18  1  0
 20 21  1  0
 22 20  2  0
M  END
$$$$
