HNE.pdb
     RDKit          3D

 28 28  0  0  1  0  0  0  0  0999 V2000
   23.5788  -14.1464  -17.1051 N   0  0  0  0  0  0  0  0  0  0  0  0
   23.8082  -12.9320  -16.3398 C   0  0  1  0  0  0  0  0  0  0  0  0
   25.1861  -12.3974  -16.5435 C   0  0  0  0  0  0  0  0  0  0  0  0
   26.2663  -13.3188  -16.1165 C   0  0  0  0  0  0  0  0  0  0  0  0
   26.2106  -14.3502  -15.1931 C   0  0  0  0  0  0  0  0  0  0  0  0
   27.4061  -14.9466  -15.0919 N   0  0  0  0  0  0  0  0  0  0  0  0
   28.2216  -14.3022  -15.9440 C   0  0  0  0  0  0  0  0  0  0  0  0
   27.5313  -13.3113  -16.5690 N   0  0  0  0  0  0  0  0  0  0  0  0
   22.7132  -11.9800  -16.5403 C   0  0  0  0  0  0  0  0  0  0  0  0
   22.2782  -11.7351  -17.7097 O   0  0  0  0  0  0  0  0  0  0  0  0
   18.7357   -8.7644  -15.9821 N   0  0  0  0  0  0  0  0  0  0  0  0
   18.6263   -9.8697  -15.0747 C   0  0  0  0  0  0  0  0  0  0  0  0
   17.5376   -9.9944  -14.4668 O   0  0  0  0  0  0  0  0  0  0  0  0
   19.7905  -10.7653  -14.9282 C   0  0  0  0  0  0  0  0  0  0  0  0
   20.9977  -10.3173  -15.7203 C   0  0  2  0  0  0  0  0  0  0  0  0
   22.0702  -11.2787  -15.4783 N   0  0  0  0  0  0  0  0  0  0  0  0
   21.3900   -8.9250  -15.4533 C   0  0  0  0  0  0  0  0  0  0  0  0
   22.1764   -8.6315  -14.5194 O   0  0  0  0  0  0  0  0  0  0  0  0
   20.9159   -7.8074  -16.2213 N   0  0  0  0  0  0  0  0  0  0  0  0
   21.2897   -6.4547  -15.8875 C   0  0  1  0  0  0  0  0  0  0  0  0
   21.0560   -5.4283  -16.9241 C   0  0  0  0  0  0  0  0  0  0  0  0
   21.8670   -5.5196  -18.1682 C   0  0  0  0  0  0  0  0  0  0  0  0
   21.6528   -4.4759  -19.1654 C   0  0  0  0  0  0  0  0  0  0  0  0
   20.8033   -3.5735  -19.0274 O   0  0  0  0  0  0  0  0  0  0  0  0
   20.4851   -6.0499  -14.6703 C   0  0  0  0  0  0  0  0  0  0  0  0
   20.6834   -4.8310  -14.0505 O   0  0  0  0  0  0  0  0  0  0  0  0
   22.4268   -4.4824  -20.3233 O   0  0  0  0  0  0  0  0  0  0  0  0
   19.6362   -6.8653  -14.2531 O   0  0  0  0  0  0  0  0  0  0  0  0
  2  1  1  6
  2  9  1  0
  3  2  1  0
  3  4  1  0
  4  5  2  0
  5  6  1  0
  7  6  1  0
  8  4  1  0
  8  7  2  0
  9 16  1  0
  9 10  2  0
 11 12  1  0
 12 13  2  0
 15 14  1  1
 14 12  1  0
 15 17  1  0
 16 15  1  0
 17 19  1  0
 18 17  2  0
 19 20  1  0
 20 21  1  6
 20 25  1  0
 21 22  1  0
 22 23  1  0
 23 24  2  0
 25 28  2  0
 25 26  1  0
 27 23  1  0
M  END
$$$$
