HNE.pdb
     RDKit          3D

 28 28  0  0  1  0  0  0  0  0999 V2000
   21.5690  -13.4786  -17.9078 N   0  0  0  0  0  0  0  0  0  0  0  0
   21.7405  -12.1476  -18.4663 C   0  0  1  0  0  0  0  0  0  0  0  0
   20.6392  -11.7927  -19.4082 C   0  0  0  0  0  0  0  0  0  0  0  0
   20.4782  -12.7362  -20.5404 C   0  0  0  0  0  0  0  0  0  0  0  0
   21.2555  -13.8348  -20.8698 C   0  0  0  0  0  0  0  0  0  0  0  0
   20.7753  -14.4289  -21.9705 N   0  0  0  0  0  0  0  0  0  0  0  0
   19.6985  -13.7163  -22.3435 C   0  0  0  0  0  0  0  0  0  0  0  0
   19.5149  -12.6858  -21.4755 N   0  0  0  0  0  0  0  0  0  0  0  0
   22.0191  -11.1746  -17.4074 C   0  0  0  0  0  0  0  0  0  0  0  0
   21.1465  -10.9230  -16.5175 O   0  0  0  0  0  0  0  0  0  0  0  0
   24.5464  -11.6359  -15.0066 N   0  0  0  0  0  0  0  0  0  0  0  0
   25.4707  -10.5875  -15.3284 C   0  0  0  0  0  0  0  0  0  0  0  0
   26.6707  -10.7809  -15.0239 O   0  0  0  0  0  0  0  0  0  0  0  0
   24.9439   -9.3754  -15.9859 C   0  0  0  0  0  0  0  0  0  0  0  0
   23.4603   -9.4408  -16.2686 C   0  0  2  0  0  0  0  0  0  0  0  0
   23.2474  -10.4593  -17.2934 N   0  0  0  0  0  0  0  0  0  0  0  0
   22.8707   -8.1370  -16.6094 C   0  0  0  0  0  0  0  0  0  0  0  0
   23.0207   -7.6250  -17.7462 O   0  0  0  0  0  0  0  0  0  0  0  0
   22.0911   -7.3556  -15.6900 N   0  0  0  0  0  0  0  0  0  0  0  0
   21.4542   -6.1281  -16.1004 C   0  0  1  0  0  0  0  0  0  0  0  0
   19.9822   -6.1549  -16.2233 C   0  0  0  0  0  0  0  0  0  0  0  0
   19.3114   -4.8974  -16.6508 C   0  0  0  0  0  0  0  0  0  0  0  0
   17.8555   -4.9329  -16.7433 C   0  0  0  0  0  0  0  0  0  0  0  0
   17.1351   -5.4501  -15.8666 O   0  0  0  0  0  0  0  0  0  0  0  0
   21.7960   -5.0738  -15.0687 C   0  0  0  0  0  0  0  0  0  0  0  0
   21.6565   -3.7269  -15.3440 O   0  0  0  0  0  0  0  0  0  0  0  0
   17.2378   -4.3668  -17.8558 O   0  0  0  0  0  0  0  0  0  0  0  0
   22.2086   -5.4755  -13.9605 O   0  0  0  0  0  0  0  0  0  0  0  0
  2  1  1  1
  2  9  1  0
  3  2  1  0
  3  4  1  0
  4  5  2  0
  5  6  1  0
  7  6  1  0
  8  4  1  0
  8  7  2  0
  9 16  1  0
  9 10  2  0
 11 12  1  0
 12 13  2  0
 15 14  1  6
 14 12  1  0
 15 17  1  0
 16 15  1  0
 17 19  1  0
 18 17  2  0
 19 20  1  0
 20 21  1  1
 20 25  1  0
 21 22  1  0
 22 23  1  0
 23 24  2  0
 25 28  2  0
 25 26  1  0
 27 23  1  0
M  END
$$$$
