HNE.pdb
     RDKit          3D

 28 28  0  0  1  0  0  0  0  0999 V2000
   41.2509   -9.4455   -5.2254 N   0  0  0  0  0  0  0  0  0  0  0  0
   41.0582   -8.5554   -6.3584 C   0  0  1  0  0  0  0  0  0  0  0  0
   39.6196   -8.4387   -6.7364 C   0  0  0  0  0  0  0  0  0  0  0  0
   38.9589   -9.7339   -7.0261 C   0  0  0  0  0  0  0  0  0  0  0  0
   38.1371  -10.4899   -6.2060 C   0  0  0  0  0  0  0  0  0  0  0  0
   37.7417  -11.6003   -6.8429 N   0  0  0  0  0  0  0  0  0  0  0  0
   38.3059  -11.5562   -8.0619 C   0  0  0  0  0  0  0  0  0  0  0  0
   39.0471  -10.4220   -8.1767 N   0  0  0  0  0  0  0  0  0  0  0  0
   41.7729   -7.2937   -6.1521 C   0  0  0  0  0  0  0  0  0  0  0  0
   41.5958   -6.6191   -5.0890 O   0  0  0  0  0  0  0  0  0  0  0  0
   46.6342   -4.3714   -6.2532 N   0  0  0  0  0  0  0  0  0  0  0  0
   45.5596   -4.3395   -7.2026 C   0  0  0  0  0  0  0  0  0  0  0  0
   45.3733   -3.2577   -7.8070 O   0  0  0  0  0  0  0  0  0  0  0  0
   44.7648   -5.5687   -7.3927 C   0  0  0  0  0  0  0  0  0  0  0  0
   43.3497   -5.4568   -6.8728 C   0  0  2  0  0  0  0  0  0  0  0  0
   42.6922   -6.7423   -7.0923 N   0  0  0  0  0  0  0  0  0  0  0  0
   42.6075   -4.3176   -7.4343 C   0  0  0  0  0  0  0  0  0  0  0  0
   42.0384   -4.3905   -8.5513 O   0  0  0  0  0  0  0  0  0  0  0  0
   42.4747   -3.0524   -6.7670 N   0  0  0  0  0  0  0  0  0  0  0  0
   41.6103   -2.0190   -7.2825 C   0  0  1  0  0  0  0  0  0  0  0  0
   40.8835   -1.2057   -6.2860 C   0  0  0  0  0  0  0  0  0  0  0  0
   40.0454   -0.0886   -6.7993 C   0  0  0  0  0  0  0  0  0  0  0  0
   39.3604    0.7260   -5.8008 C   0  0  0  0  0  0  0  0  0  0  0  0
   39.3433    0.4358   -4.5882 O   0  0  0  0  0  0  0  0  0  0  0  0
   42.4707   -1.0701   -8.0899 C   0  0  0  0  0  0  0  0  0  0  0  0
   41.9560   -0.3711   -9.1650 O   0  0  0  0  0  0  0  0  0  0  0  0
   38.6952    1.8779   -6.2134 O   0  0  0  0  0  0  0  0  0  0  0  0
   43.6637   -0.9479   -7.7411 O   0  0  0  0  0  0  0  0  0  0  0  0
  2  1  1  1
  2  9  1  0
  3  2  1  0
  3  4  1  0
  4  5  2  0
  5  6  1  0
  7  6  1  0
  8  4  1  0
  8  7  2  0
  9 16  1  0
  9 10  2  0
 11 12  1  0
 12 13  2  0
 15 14  1  6
 14 12  1  0
 15 17  1  0
 16 15  1  0
 17 19  1  0
 18 17  2  0
 19 20  1  0
 20 21  1  1
 20 25  1  0
 21 22  1  0
 22 23  1  0
 23 24  2  0
 25 28  2  0
 25 26  1  0
 27 23  1  0
M  END
$$$$
