HNE.pdb
     RDKit          3D

 28 28  0  0  1  0  0  0  0  0999 V2000
   29.8696  -34.8764   -6.2095 N   0  0  0  0  0  0  0  0  0  0  0  0
   30.0161  -34.3679   -4.8556 C   0  0  1  0  0  0  0  0  0  0  0  0
   30.5761  -32.9852   -4.8376 C   0  0  0  0  0  0  0  0  0  0  0  0
   31.9058  -32.8581   -5.4810 C   0  0  0  0  0  0  0  0  0  0  0  0
   32.2472  -32.1749   -6.6369 C   0  0  0  0  0  0  0  0  0  0  0  0
   33.5580  -32.3050   -6.8820 N   0  0  0  0  0  0  0  0  0  0  0  0
   34.0527  -33.0656   -5.8906 C   0  0  0  0  0  0  0  0  0  0  0  0
   33.0501  -33.4039   -5.0364 N   0  0  0  0  0  0  0  0  0  0  0  0
   28.7839  -34.5723   -4.0904 C   0  0  0  0  0  0  0  0  0  0  0  0
   27.6497  -34.3814   -4.6323 O   0  0  0  0  0  0  0  0  0  0  0  0
   27.4987  -39.5787   -3.7232 N   0  0  0  0  0  0  0  0  0  0  0  0
   27.6101  -38.5502   -2.7299 C   0  0  0  0  0  0  0  0  0  0  0  0
   27.0501  -38.7659   -1.6298 O   0  0  0  0  0  0  0  0  0  0  0  0
   28.3669  -37.3308   -3.0752 C   0  0  0  0  0  0  0  0  0  0  0  0
   27.9516  -36.1178   -2.2742 C   0  0  2  0  0  0  0  0  0  0  0  0
   28.7592  -34.9883   -2.7268 N   0  0  0  0  0  0  0  0  0  0  0  0
   28.0062  -36.3294   -0.8196 C   0  0  0  0  0  0  0  0  0  0  0  0
   29.0611  -36.7011   -0.2488 O   0  0  0  0  0  0  0  0  0  0  0  0
   26.8812  -36.1337    0.0520 N   0  0  0  0  0  0  0  0  0  0  0  0
   27.0570  -35.9145    1.4669 C   0  0  1  0  0  0  0  0  0  0  0  0
   25.9240  -35.2980    2.1872 C   0  0  0  0  0  0  0  0  0  0  0  0
   24.6364  -36.0435    2.1969 C   0  0  0  0  0  0  0  0  0  0  0  0
   23.4809  -35.3439    2.7492 C   0  0  0  0  0  0  0  0  0  0  0  0
   23.5319  -34.1624    3.1448 O   0  0  0  0  0  0  0  0  0  0  0  0
   27.3101  -37.2637    2.1060 C   0  0  0  0  0  0  0  0  0  0  0  0
   27.5714  -37.3810    3.4578 O   0  0  0  0  0  0  0  0  0  0  0  0
   22.2663  -36.0191    2.8417 O   0  0  0  0  0  0  0  0  0  0  0  0
   27.2720  -38.2631    1.3582 O   0  0  0  0  0  0  0  0  0  0  0  0
  2  1  1  6
  2  9  1  0
  3  2  1  0
  3  4  1  0
  4  5  2  0
  5  6  1  0
  7  6  1  0
  8  4  1  0
  8  7  2  0
  9 16  1  0
  9 10  2  0
 11 12  1  0
 12 13  2  0
 15 14  1  6
 14 12  1  0
 15 17  1  0
 16 15  1  0
 17 19  1  0
 18 17  2  0
 19 20  1  0
 20 21  1  1
 20 25  1  0
 21 22  1  0
 22 23  1  0
 23 24  2  0
 25 28  2  0
 25 26  1  0
 27 23  1  0
M  END
$$$$
