HNE.pdb
     RDKit          3D

 28 28  0  0  1  0  0  0  0  0999 V2000
   14.7090  -11.6456  -13.4353 N   0  0  0  0  0  0  0  0  0  0  0  0
   15.7949  -11.0203  -12.6985 C   0  0  1  0  0  0  0  0  0  0  0  0
   17.0524  -10.9659  -13.4995 C   0  0  0  0  0  0  0  0  0  0  0  0
   17.5017  -12.2802  -14.0181 C   0  0  0  0  0  0  0  0  0  0  0  0
   17.7291  -12.6620  -15.3303 C   0  0  0  0  0  0  0  0  0  0  0  0
   18.1281  -13.9401  -15.3786 N   0  0  0  0  0  0  0  0  0  0  0  0
   18.1561  -14.3739  -14.1068 C   0  0  0  0  0  0  0  0  0  0  0  0
   17.7756  -13.3665  -13.2765 N   0  0  0  0  0  0  0  0  0  0  0  0
   15.3557   -9.7553  -12.1048 C   0  0  0  0  0  0  0  0  0  0  0  0
   14.5785   -8.9786  -12.7446 O   0  0  0  0  0  0  0  0  0  0  0  0
   15.3578   -6.7129   -6.8027 N   0  0  0  0  0  0  0  0  0  0  0  0
   14.7370   -6.9721   -8.0693 C   0  0  0  0  0  0  0  0  0  0  0  0
   13.9304   -6.1097   -8.4887 O   0  0  0  0  0  0  0  0  0  0  0  0
   15.0916   -8.2199   -8.7737 C   0  0  0  0  0  0  0  0  0  0  0  0
   15.3068   -8.0326  -10.2583 C   0  0  2  0  0  0  0  0  0  0  0  0
   15.7493   -9.3111  -10.8083 N   0  0  0  0  0  0  0  0  0  0  0  0
   16.2053   -6.9143  -10.5836 C   0  0  0  0  0  0  0  0  0  0  0  0
   17.4451   -6.9930  -10.4009 O   0  0  0  0  0  0  0  0  0  0  0  0
   15.7499   -5.6641  -11.1253 N   0  0  0  0  0  0  0  0  0  0  0  0
   16.6791   -4.6314  -11.5136 C   0  0  1  0  0  0  0  0  0  0  0  0
   17.5936   -4.9490  -12.6295 C   0  0  0  0  0  0  0  0  0  0  0  0
   16.9795   -5.2212  -13.9571 C   0  0  0  0  0  0  0  0  0  0  0  0
   17.8986   -5.4457  -15.0681 C   0  0  0  0  0  0  0  0  0  0  0  0
   18.1813   -6.5840  -15.4918 O   0  0  0  0  0  0  0  0  0  0  0  0
   15.8657   -3.4252  -11.9337 C   0  0  0  0  0  0  0  0  0  0  0  0
   16.4624   -2.1999  -12.1618 O   0  0  0  0  0  0  0  0  0  0  0  0
   18.4892   -4.3460  -15.6858 O   0  0  0  0  0  0  0  0  0  0  0  0
   14.6344   -3.5875  -12.0646 O   0  0  0  0  0  0  0  0  0  0  0  0
  2  1  1  6
  2  9  1  0
  3  2  1  0
  3  4  1  0
  4  5  2  0
  5  6  1  0
  7  6  1  0
  8  4  1  0
  8  7  2  0
  9 16  1  0
  9 10  2  0
 11 12  1  0
 12 13  2  0
 15 14  1  1
 14 12  1  0
 15 17  1  0
 16 15  1  0
 17 19  1  0
 18 17  2  0
 19 20  1  0
 20 21  1  6
 20 25  1  0
 21 22  1  0
 22 23  1  0
 23 24  2  0
 25 28  2  0
 25 26  1  0
 27 23  1  0
M  END
$$$$
