HNE.pdb
     RDKit          3D

 28 28  0  0  1  0  0  0  0  0999 V2000
   23.9996  -14.0484  -16.0692 N   0  0  0  0  0  0  0  0  0  0  0  0
   23.1071  -13.0095  -16.5562 C   0  0  1  0  0  0  0  0  0  0  0  0
   21.6772  -13.3244  -16.2697 C   0  0  0  0  0  0  0  0  0  0  0  0
   21.2748  -14.7064  -16.6249 C   0  0  0  0  0  0  0  0  0  0  0  0
   21.0783  -15.2556  -17.8815 C   0  0  0  0  0  0  0  0  0  0  0  0
   20.7184  -16.5417  -17.7740 N   0  0  0  0  0  0  0  0  0  0  0  0
   20.6846  -16.8145  -16.4584 C   0  0  0  0  0  0  0  0  0  0  0  0
   21.0226  -15.7000  -15.7564 N   0  0  0  0  0  0  0  0  0  0  0  0
   23.5719  -11.6873  -16.1306 C   0  0  0  0  0  0  0  0  0  0  0  0
   23.3788  -11.2892  -14.9386 O   0  0  0  0  0  0  0  0  0  0  0  0
   27.9951   -9.7779  -15.9839 N   0  0  0  0  0  0  0  0  0  0  0  0
   27.0471  -10.0717  -17.0192 C   0  0  0  0  0  0  0  0  0  0  0  0
   27.2162  -11.1401  -17.6517 O   0  0  0  0  0  0  0  0  0  0  0  0
   25.9577   -9.1046  -17.2576 C   0  0  0  0  0  0  0  0  0  0  0  0
   24.6760   -9.4518  -16.5350 C   0  0  2  0  0  0  0  0  0  0  0  0
   24.2548  -10.7750  -16.9876 N   0  0  0  0  0  0  0  0  0  0  0  0
   23.6298   -8.4270  -16.6723 C   0  0  0  0  0  0  0  0  0  0  0  0
   22.9829   -8.2871  -17.7394 O   0  0  0  0  0  0  0  0  0  0  0  0
   23.2682   -7.5184  -15.6199 N   0  0  0  0  0  0  0  0  0  0  0  0
   22.1470   -6.6210  -15.7554 C   0  0  1  0  0  0  0  0  0  0  0  0
   20.8212   -7.1572  -15.3846 C   0  0  0  0  0  0  0  0  0  0  0  0
   19.6549   -6.2432  -15.5189 C   0  0  0  0  0  0  0  0  0  0  0  0
   18.3547   -6.7827  -15.1342 C   0  0  0  0  0  0  0  0  0  0  0  0
   17.8903   -7.8349  -15.6161 O   0  0  0  0  0  0  0  0  0  0  0  0
   22.4111   -5.4282  -14.8608 C   0  0  0  0  0  0  0  0  0  0  0  0
   21.7357   -4.2354  -15.0352 O   0  0  0  0  0  0  0  0  0  0  0  0
   17.5947   -6.0977  -14.1893 O   0  0  0  0  0  0  0  0  0  0  0  0
   23.2647   -5.5708  -13.9604 O   0  0  0  0  0  0  0  0  0  0  0  0
  2  1  1  1
  2  9  1  0
  3  2  1  0
  3  4  1  0
  4  5  2  0
  5  6  1  0
  7  6  1  0
  8  4  1  0
  8  7  2  0
  9 16  1  0
  9 10  2  0
 11 12  1  0
 12 13  2  0
 15 14  1  6
 14 12  1  0
 15 17  1  0
 16 15  1  0
 17 19  1  0
 18 17  2  0
 19 20  1  0
 20 21  1  1
 20 25  1  0
 21 22  1  0
 22 23  1  0
 23 24  2  0
 25 28  2  0
 25 26  1  0
 27 23  1  0
M  END
$$$$
