HNE.pdb
     RDKit          3D

 28 28  0  0  1  0  0  0  0  0999 V2000
   24.1111  -15.2073  -15.8510 N   0  0  0  0  0  0  0  0  0  0  0  0
   23.0302  -14.2949  -16.1860 C   0  0  1  0  0  0  0  0  0  0  0  0
   21.8935  -14.4016  -15.2255 C   0  0  0  0  0  0  0  0  0  0  0  0
   21.2597  -15.7411  -15.1783 C   0  0  0  0  0  0  0  0  0  0  0  0
   21.5823  -16.8782  -15.9011 C   0  0  0  0  0  0  0  0  0  0  0  0
   20.7672  -17.8872  -15.5659 N   0  0  0  0  0  0  0  0  0  0  0  0
   19.9285  -17.4003  -14.6353 C   0  0  0  0  0  0  0  0  0  0  0  0
   20.2255  -16.0949  -14.3971 N   0  0  0  0  0  0  0  0  0  0  0  0
   23.5476  -12.9450  -16.4220 C   0  0  0  0  0  0  0  0  0  0  0  0
   24.6304  -12.5650  -15.8745 O   0  0  0  0  0  0  0  0  0  0  0  0
   24.8761   -9.0408  -20.5675 N   0  0  0  0  0  0  0  0  0  0  0  0
   24.8252   -9.4184  -19.1848 C   0  0  0  0  0  0  0  0  0  0  0  0
   25.3531   -8.6307  -18.3655 O   0  0  0  0  0  0  0  0  0  0  0  0
   24.1625  -10.6907  -18.8367 C   0  0  0  0  0  0  0  0  0  0  0  0
   23.4675  -10.6596  -17.4946 C   0  0  2  0  0  0  0  0  0  0  0  0
   22.9023  -11.9849  -17.2557 N   0  0  0  0  0  0  0  0  0  0  0  0
   22.4833   -9.5736  -17.3694 C   0  0  0  0  0  0  0  0  0  0  0  0
   21.3182   -9.6871  -17.8237 O   0  0  0  0  0  0  0  0  0  0  0  0
   22.7662   -8.3180  -16.7313 N   0  0  0  0  0  0  0  0  0  0  0  0
   21.7516   -7.3024  -16.5900 C   0  0  1  0  0  0  0  0  0  0  0  0
   21.9857   -6.2718  -15.5578 C   0  0  0  0  0  0  0  0  0  0  0  0
   20.9120   -5.2638  -15.3458 C   0  0  0  0  0  0  0  0  0  0  0  0
   21.1375   -4.2815  -14.2904 C   0  0  0  0  0  0  0  0  0  0  0  0
   22.1502   -4.2918  -13.5629 O   0  0  0  0  0  0  0  0  0  0  0  0
   21.6410   -6.5849  -17.9189 C   0  0  0  0  0  0  0  0  0  0  0  0
   20.4525   -6.0125  -18.3299 O   0  0  0  0  0  0  0  0  0  0  0  0
   20.1847   -3.2875  -14.0813 O   0  0  0  0  0  0  0  0  0  0  0  0
   22.6699   -6.5339  -18.6248 O   0  0  0  0  0  0  0  0  0  0  0  0
  2  1  1  1
  2  9  1  0
  3  2  1  0
  3  4  1  0
  4  5  2  0
  5  6  1  0
  7  6  1  0
  8  4  1  0
  8  7  2  0
  9 16  1  0
  9 10  2  0
 11 12  1  0
 12 13  2  0
 15 14  1  6
 14 12  1  0
 15 17  1  0
 16 15  1  0
 17 19  1  0
 18 17  2  0
 19 20  1  0
 20 21  1  1
 20 25  1  0
 21 22  1  0
 22 23  1  0
 23 24  2  0
 25 28  2  0
 25 26  1  0
 27 23  1  0
M  END
$$$$
