HNE.pdb
     RDKit          3D

 28 28  0  0  1  0  0  0  0  0999 V2000
   17.2919  -12.5814  -16.7660 N   0  0  0  0  0  0  0  0  0  0  0  0
   17.9440  -11.4149  -17.3378 C   0  0  1  0  0  0  0  0  0  0  0  0
   16.9867  -10.5572  -18.0955 C   0  0  0  0  0  0  0  0  0  0  0  0
   16.3139  -11.2450  -19.2234 C   0  0  0  0  0  0  0  0  0  0  0  0
   16.8577  -11.6807  -20.4209 C   0  0  0  0  0  0  0  0  0  0  0  0
   15.9132  -12.2571  -21.1763 N   0  0  0  0  0  0  0  0  0  0  0  0
   14.7728  -12.1914  -20.4681 C   0  0  0  0  0  0  0  0  0  0  0  0
   15.0130  -11.5762  -19.2795 N   0  0  0  0  0  0  0  0  0  0  0  0
   18.7596  -10.7327  -16.3303 C   0  0  0  0  0  0  0  0  0  0  0  0
   18.2574  -10.4040  -15.2095 O   0  0  0  0  0  0  0  0  0  0  0  0
   22.6645   -8.5666  -13.6969 N   0  0  0  0  0  0  0  0  0  0  0  0
   23.0494   -9.8360  -14.2424 C   0  0  0  0  0  0  0  0  0  0  0  0
   24.0976  -10.3505  -13.7876 O   0  0  0  0  0  0  0  0  0  0  0  0
   22.1915  -10.4321  -15.2853 C   0  0  0  0  0  0  0  0  0  0  0  0
   20.9013   -9.6762  -15.5076 C   0  0  2  0  0  0  0  0  0  0  0  0
   20.1324  -10.3966  -16.5190 N   0  0  0  0  0  0  0  0  0  0  0  0
   21.1027   -8.2551  -15.8296 C   0  0  0  0  0  0  0  0  0  0  0  0
   21.4108   -7.8810  -16.9880 O   0  0  0  0  0  0  0  0  0  0  0  0
   20.9680   -7.1979  -14.8663 N   0  0  0  0  0  0  0  0  0  0  0  0
   21.0221   -5.8115  -15.2608 C   0  0  1  0  0  0  0  0  0  0  0  0
   19.7457   -5.0678  -15.2430 C   0  0  0  0  0  0  0  0  0  0  0  0
   19.7861   -3.6357  -15.6448 C   0  0  0  0  0  0  0  0  0  0  0  0
   18.5177   -2.9145  -15.6201 C   0  0  0  0  0  0  0  0  0  0  0  0
   18.4154   -1.7158  -15.9482 O   0  0  0  0  0  0  0  0  0  0  0  0
   21.9624   -5.1055  -14.3067 C   0  0  0  0  0  0  0  0  0  0  0  0
   22.5953   -3.9292  -14.6601 O   0  0  0  0  0  0  0  0  0  0  0  0
   17.3685   -3.5879  -15.2134 O   0  0  0  0  0  0  0  0  0  0  0  0
   22.1394   -5.6331  -13.1887 O   0  0  0  0  0  0  0  0  0  0  0  0
  2  1  1  1
  2  9  1  0
  3  2  1  0
  3  4  1  0
  4  5  2  0
  5  6  1  0
  7  6  1  0
  8  4  1  0
  8  7  2  0
  9 16  1  0
  9 10  2  0
 11 12  1  0
 12 13  2  0
 15 14  1  6
 14 12  1  0
 15 17  1  0
 16 15  1  0
 17 19  1  0
 18 17  2  0
 19 20  1  0
 20 21  1  1
 20 25  1  0
 21 22  1  0
 22 23  1  0
 23 24  2  0
 25 28  2  0
 25 26  1  0
 27 23  1  0
M  END
$$$$
