HNE.pdb
     RDKit          3D

 28 28  0  0  1  0  0  0  0  0999 V2000
   20.2440  -12.8933  -19.4852 N   0  0  0  0  0  0  0  0  0  0  0  0
   21.0418  -12.2614  -18.4473 C   0  0  1  0  0  0  0  0  0  0  0  0
   22.4381  -11.9968  -18.9017 C   0  0  0  0  0  0  0  0  0  0  0  0
   23.1969  -13.2134  -19.2787 C   0  0  0  0  0  0  0  0  0  0  0  0
   22.8235  -14.5415  -19.1514 C   0  0  0  0  0  0  0  0  0  0  0  0
   23.7945  -15.3419  -19.6112 N   0  0  0  0  0  0  0  0  0  0  0  0
   24.7826  -14.5328  -20.0299 C   0  0  0  0  0  0  0  0  0  0  0  0
   24.4223  -13.2371  -19.8291 N   0  0  0  0  0  0  0  0  0  0  0  0
   20.3274  -11.1214  -17.8682 C   0  0  0  0  0  0  0  0  0  0  0  0
   19.6969  -10.3088  -18.6157 O   0  0  0  0  0  0  0  0  0  0  0  0
   16.8774   -8.3002  -14.8551 N   0  0  0  0  0  0  0  0  0  0  0  0
   17.9655   -8.9727  -14.2063 C   0  0  0  0  0  0  0  0  0  0  0  0
   18.2897   -8.5544  -13.0704 O   0  0  0  0  0  0  0  0  0  0  0  0
   18.6123  -10.0927  -14.9177 C   0  0  0  0  0  0  0  0  0  0  0  0
   19.6355   -9.6471  -15.9375 C   0  0  2  0  0  0  0  0  0  0  0  0
   20.2823  -10.8431  -16.4704 N   0  0  0  0  0  0  0  0  0  0  0  0
   20.5856   -8.6516  -15.4178 C   0  0  0  0  0  0  0  0  0  0  0  0
   21.6219   -8.9939  -14.7966 O   0  0  0  0  0  0  0  0  0  0  0  0
   20.4114   -7.2341  -15.5729 N   0  0  0  0  0  0  0  0  0  0  0  0
   21.3570   -6.2965  -15.0182 C   0  0  1  0  0  0  0  0  0  0  0  0
   21.2780   -4.9062  -15.5116 C   0  0  0  0  0  0  0  0  0  0  0  0
   22.2807   -3.9396  -14.9880 C   0  0  0  0  0  0  0  0  0  0  0  0
   22.1715   -2.5640  -15.4628 C   0  0  0  0  0  0  0  0  0  0  0  0
   22.3595   -1.5772  -14.7240 O   0  0  0  0  0  0  0  0  0  0  0  0
   21.1262   -6.2522  -13.5223 C   0  0  0  0  0  0  0  0  0  0  0  0
   22.1402   -5.9095  -12.6484 O   0  0  0  0  0  0  0  0  0  0  0  0
   21.8434   -2.3367  -16.7971 O   0  0  0  0  0  0  0  0  0  0  0  0
   19.9809   -6.5384  -13.1151 O   0  0  0  0  0  0  0  0  0  0  0  0
  2  1  1  6
  2  9  1  0
  3  2  1  0
  3  4  1  0
  4  5  2  0
  5  6  1  0
  7  6  1  0
  8  4  1  0
  8  7  2  0
  9 16  1  0
  9 10  2  0
 11 12  1  0
 12 13  2  0
 15 14  1  1
 14 12  1  0
 15 17  1  0
 16 15  1  0
 17 19  1  0
 18 17  2  0
 19 20  1  0
 20 21  1  6
 20 25  1  0
 21 22  1  0
 22 23  1  0
 23 24  2  0
 25 28  2  0
 25 26  1  0
 27 23  1  0
M  END
$$$$
