HNE.pdb
     RDKit          3D

 28 28  0  0  1  0  0  0  0  0999 V2000
   16.8307  -11.1711  -12.6957 N   0  0  0  0  0  0  0  0  0  0  0  0
   15.7454  -11.1514  -11.7289 C   0  0  1  0  0  0  0  0  0  0  0  0
   15.7701  -12.3490  -10.8394 C   0  0  0  0  0  0  0  0  0  0  0  0
   15.7220  -13.6439  -11.5599 C   0  0  0  0  0  0  0  0  0  0  0  0
   14.6271  -14.4540  -11.8136 C   0  0  0  0  0  0  0  0  0  0  0  0
   15.0046  -15.5428  -12.4969 N   0  0  0  0  0  0  0  0  0  0  0  0
   16.3315  -15.4312  -12.6797 C   0  0  0  0  0  0  0  0  0  0  0  0
   16.7711  -14.2770  -12.1109 N   0  0  0  0  0  0  0  0  0  0  0  0
   15.6761   -9.8523  -11.0559 C   0  0  0  0  0  0  0  0  0  0  0  0
   14.7832   -9.6275  -10.1791 O   0  0  0  0  0  0  0  0  0  0  0  0
   16.3355   -5.0077   -9.4589 N   0  0  0  0  0  0  0  0  0  0  0  0
   17.2208   -5.9908   -8.9051 C   0  0  0  0  0  0  0  0  0  0  0  0
   17.8288   -5.6746   -7.8560 O   0  0  0  0  0  0  0  0  0  0  0  0
   17.3464   -7.2844   -9.6048 C   0  0  0  0  0  0  0  0  0  0  0  0
   16.3759   -7.4443  -10.7528 C   0  0  2  0  0  0  0  0  0  0  0  0
   16.5731   -8.7757  -11.3198 N   0  0  0  0  0  0  0  0  0  0  0  0
   16.4644   -6.3660  -11.7495 C   0  0  0  0  0  0  0  0  0  0  0  0
   17.4107   -6.3084  -12.5729 O   0  0  0  0  0  0  0  0  0  0  0  0
   15.4971   -5.3099  -11.8618 N   0  0  0  0  0  0  0  0  0  0  0  0
   15.5974   -4.3068  -12.8935 C   0  0  1  0  0  0  0  0  0  0  0  0
   14.5762   -4.3498  -13.9603 C   0  0  0  0  0  0  0  0  0  0  0  0
   14.6745   -5.4536  -14.9532 C   0  0  0  0  0  0  0  0  0  0  0  0
   13.4169   -5.9607  -15.4926 C   0  0  0  0  0  0  0  0  0  0  0  0
   12.3055   -5.5043  -15.1586 O   0  0  0  0  0  0  0  0  0  0  0  0
   15.4838   -2.9542  -12.2224 C   0  0  0  0  0  0  0  0  0  0  0  0
   15.7355   -1.7850  -12.9145 O   0  0  0  0  0  0  0  0  0  0  0  0
   13.4525   -6.9990  -16.4201 O   0  0  0  0  0  0  0  0  0  0  0  0
   15.1532   -2.9430  -11.0182 O   0  0  0  0  0  0  0  0  0  0  0  0
  2  1  1  1
  2  9  1  0
  3  2  1  0
  3  4  1  0
  4  5  2  0
  5  6  1  0
  7  6  1  0
  8  4  1  0
  8  7  2  0
  9 16  1  0
  9 10  2  0
 11 12  1  0
 12 13  2  0
 15 14  1  1
 14 12  1  0
 15 17  1  0
 16 15  1  0
 17 19  1  0
 18 17  2  0
 19 20  1  0
 20 21  1  6
 20 25  1  0
 21 22  1  0
 22 23  1  0
 23 24  2  0
 25 28  2  0
 25 26  1  0
 27 23  1  0
M  END
$$$$
