HNE.pdb
     RDKit          3D

 28 28  0  0  1  0  0  0  0  0999 V2000
   22.6340  -13.4373  -17.9528 N   0  0  0  0  0  0  0  0  0  0  0  0
   22.9219  -12.2004  -18.6600 C   0  0  1  0  0  0  0  0  0  0  0  0
   21.8376  -11.8427  -19.6205 C   0  0  0  0  0  0  0  0  0  0  0  0
   21.5695  -12.8764  -20.6489 C   0  0  0  0  0  0  0  0  0  0  0  0
   22.2940  -13.1686  -21.7931 C   0  0  0  0  0  0  0  0  0  0  0  0
   21.7182  -14.1772  -22.4612 N   0  0  0  0  0  0  0  0  0  0  0  0
   20.6331  -14.5286  -21.7503 C   0  0  0  0  0  0  0  0  0  0  0  0
   20.5396  -13.7392  -20.6471 N   0  0  0  0  0  0  0  0  0  0  0  0
   23.3216  -11.1493  -17.7214 C   0  0  0  0  0  0  0  0  0  0  0  0
   22.5228  -10.7590  -16.8125 O   0  0  0  0  0  0  0  0  0  0  0  0
   25.7471  -11.7097  -15.3737 N   0  0  0  0  0  0  0  0  0  0  0  0
   26.8048  -10.8237  -15.7653 C   0  0  0  0  0  0  0  0  0  0  0  0
   27.9678  -11.1537  -15.4355 O   0  0  0  0  0  0  0  0  0  0  0  0
   26.4466   -9.6053  -16.5179 C   0  0  0  0  0  0  0  0  0  0  0  0
   24.9639   -9.4756  -16.7824 C   0  0  2  0  0  0  0  0  0  0  0  0
   24.5931  -10.5045  -17.7503 N   0  0  0  0  0  0  0  0  0  0  0  0
   24.5569   -8.1207  -17.1854 C   0  0  0  0  0  0  0  0  0  0  0  0
   24.8482   -7.6558  -18.3149 O   0  0  0  0  0  0  0  0  0  0  0  0
   23.8087   -7.2337  -16.3385 N   0  0  0  0  0  0  0  0  0  0  0  0
   23.2300   -6.0162  -16.8519 C   0  0  1  0  0  0  0  0  0  0  0  0
   22.0129   -5.5244  -16.1740 C   0  0  0  0  0  0  0  0  0  0  0  0
   22.1135   -5.2366  -14.7176 C   0  0  0  0  0  0  0  0  0  0  0  0
   20.8967   -4.7749  -14.0577 C   0  0  0  0  0  0  0  0  0  0  0  0
   20.4136   -3.6410  -14.2474 O   0  0  0  0  0  0  0  0  0  0  0  0
   24.2779   -4.9300  -16.7292 C   0  0  0  0  0  0  0  0  0  0  0  0
   24.1893   -3.7601  -17.4591 O   0  0  0  0  0  0  0  0  0  0  0  0
   20.2420   -5.6322  -13.1767 O   0  0  0  0  0  0  0  0  0  0  0  0
   25.2234   -5.1388  -15.9405 O   0  0  0  0  0  0  0  0  0  0  0  0
  2  1  1  1
  2  9  1  0
  3  2  1  0
  3  4  1  0
  4  5  2  0
  5  6  1  0
  7  6  1  0
  8  4  1  0
  8  7  2  0
  9 16  1  0
  9 10  2  0
 11 12  1  0
 12 13  2  0
 15 14  1  6
 14 12  1  0
 15 17  1  0
 16 15  1  0
 17 19  1  0
 18 17  2  0
 19 20  1  0
 20 21  1  1
 20 25  1  0
 21 22  1  0
 22 23  1  0
 23 24  2  0
 25 28  2  0
 25 26  1  0
 27 23  1  0
M  END
$$$$
