HNE.pdb
     RDKit          3D

 28 28  0  0  1  0  0  0  0  0999 V2000
   24.8608  -19.2773  -17.0196 N   0  0  0  0  0  0  0  0  0  0  0  0
   24.9661  -18.5668  -15.7559 C   0  0  1  0  0  0  0  0  0  0  0  0
   25.7271  -17.2911  -15.8960 C   0  0  0  0  0  0  0  0  0  0  0  0
   27.0506  -17.4398  -16.5474 C   0  0  0  0  0  0  0  0  0  0  0  0
   27.4190  -17.1194  -17.8440 C   0  0  0  0  0  0  0  0  0  0  0  0
   28.7124  -17.4065  -18.0426 N   0  0  0  0  0  0  0  0  0  0  0  0
   29.1695  -17.9071  -16.8821 C   0  0  0  0  0  0  0  0  0  0  0  0
   28.1610  -17.9288  -15.9702 N   0  0  0  0  0  0  0  0  0  0  0  0
   23.6560  -18.4659  -15.1087 C   0  0  0  0  0  0  0  0  0  0  0  0
   23.5322  -17.8673  -13.9939 O   0  0  0  0  0  0  0  0  0  0  0  0
   18.4664  -16.9290  -14.7473 N   0  0  0  0  0  0  0  0  0  0  0  0
   18.8209  -18.1883  -15.3351 C   0  0  0  0  0  0  0  0  0  0  0  0
   17.9479  -19.0869  -15.3118 O   0  0  0  0  0  0  0  0  0  0  0  0
   20.1708  -18.3277  -15.9158 C   0  0  0  0  0  0  0  0  0  0  0  0
   21.1773  -18.9288  -14.9613 C   0  0  2  0  0  0  0  0  0  0  0  0
   22.4580  -19.0098  -15.6585 N   0  0  0  0  0  0  0  0  0  0  0  0
   20.7444  -20.2105  -14.3839 C   0  0  0  0  0  0  0  0  0  0  0  0
   20.8827  -21.2920  -15.0069 O   0  0  0  0  0  0  0  0  0  0  0  0
   20.1388  -20.3306  -13.0868 N   0  0  0  0  0  0  0  0  0  0  0  0
   19.7808  -21.6173  -12.5417 C   0  0  1  0  0  0  0  0  0  0  0  0
   19.9190  -21.7786  -11.0797 C   0  0  0  0  0  0  0  0  0  0  0  0
   19.5816  -23.1096  -10.5064 C   0  0  0  0  0  0  0  0  0  0  0  0
   19.6104  -23.2202   -9.0516 C   0  0  0  0  0  0  0  0  0  0  0  0
   19.8958  -22.2619   -8.3065 O   0  0  0  0  0  0  0  0  0  0  0  0
   18.3260  -21.8642  -12.8816 C   0  0  0  0  0  0  0  0  0  0  0  0
   17.8550  -23.1364  -13.1437 O   0  0  0  0  0  0  0  0  0  0  0  0
   19.3074  -24.4459   -8.4637 O   0  0  0  0  0  0  0  0  0  0  0  0
   17.5730  -20.8684  -12.9142 O   0  0  0  0  0  0  0  0  0  0  0  0
  2  1  1  6
  2  9  1  0
  3  2  1  0
  3  4  1  0
  4  5  2  0
  5  6  1  0
  7  6  1  0
  8  4  1  0
  8  7  2  0
  9 16  1  0
  9 10  2  0
 11 12  1  0
 12 13  2  0
 15 14  1  6
 14 12  1  0
 15 17  1  0
 16 15  1  0
 17 19  1  0
 18 17  2  0
 19 20  1  0
 20 21  1  1
 20 25  1  0
 21 22  1  0
 22 23  1  0
 23 24  2  0
 25 28  2  0
 25 26  1  0
 27 23  1  0
M  END
$$$$
