HNE.pdb
     RDKit          3D

 28 28  0  0  1  0  0  0  0  0999 V2000
   14.4164   -9.2156  -12.8128 N   0  0  0  0  0  0  0  0  0  0  0  0
   15.8505   -9.3695  -12.9932 C   0  0  1  0  0  0  0  0  0  0  0  0
   16.1795  -10.0629  -14.2727 C   0  0  0  0  0  0  0  0  0  0  0  0
   15.5944  -11.4193  -14.3984 C   0  0  0  0  0  0  0  0  0  0  0  0
   16.0929  -12.6246  -13.9314 C   0  0  0  0  0  0  0  0  0  0  0  0
   15.2613  -13.6252  -14.2512 N   0  0  0  0  0  0  0  0  0  0  0  0
   14.2376  -13.0652  -14.9181 C   0  0  0  0  0  0  0  0  0  0  0  0
   14.4371  -11.7232  -15.0095 N   0  0  0  0  0  0  0  0  0  0  0  0
   16.5409   -8.1000  -12.7541 C   0  0  0  0  0  0  0  0  0  0  0  0
   16.4060   -7.1303  -13.5653 O   0  0  0  0  0  0  0  0  0  0  0  0
   16.2310   -4.7581   -9.7776 N   0  0  0  0  0  0  0  0  0  0  0  0
   16.8655   -5.9879   -9.4009 C   0  0  0  0  0  0  0  0  0  0  0  0
   16.2472   -6.7160   -8.5899 O   0  0  0  0  0  0  0  0  0  0  0  0
   18.1827   -6.2983   -9.9906 C   0  0  0  0  0  0  0  0  0  0  0  0
   18.1223   -6.6073  -11.4692 C   0  0  2  0  0  0  0  0  0  0  0  0
   17.3873   -7.8588  -11.6322 N   0  0  0  0  0  0  0  0  0  0  0  0
   19.4412   -6.6153  -12.1205 C   0  0  0  0  0  0  0  0  0  0  0  0
   20.3313   -7.4379  -11.7921 O   0  0  0  0  0  0  0  0  0  0  0  0
   19.8145   -5.7017  -13.1643 N   0  0  0  0  0  0  0  0  0  0  0  0
   21.0938   -5.7978  -13.8239 C   0  0  1  0  0  0  0  0  0  0  0  0
   21.0973   -5.6220  -15.2907 C   0  0  0  0  0  0  0  0  0  0  0  0
   20.6552   -4.3035  -15.8198 C   0  0  0  0  0  0  0  0  0  0  0  0
   20.1563   -4.2842  -17.1910 C   0  0  0  0  0  0  0  0  0  0  0  0
   20.3191   -5.2337  -17.9828 O   0  0  0  0  0  0  0  0  0  0  0  0
   21.9845   -4.7193  -13.2438 C   0  0  0  0  0  0  0  0  0  0  0  0
   23.3561   -4.7554  -13.4064 O   0  0  0  0  0  0  0  0  0  0  0  0
   19.4683   -3.1600  -17.6411 O   0  0  0  0  0  0  0  0  0  0  0  0
   21.4247   -3.7979  -12.6135 O   0  0  0  0  0  0  0  0  0  0  0  0
  2  1  1  6
  2  9  1  0
  3  2  1  0
  3  4  1  0
  4  5  2  0
  5  6  1  0
  7  6  1  0
  8  4  1  0
  8  7  2  0
  9 16  1  0
  9 10  2  0
 11 12  1  0
 12 13  2  0
 15 14  1  1
 14 12  1  0
 15 17  1  0
 16 15  1  0
 17 19  1  0
 18 17  2  0
 19 20  1  0
 20 21  1  6
 20 25  1  0
 21 22  1  0
 22 23  1  0
 23 24  2  0
 25 28  2  0
 25 26  1  0
 27 23  1  0
M  END
$$$$
