HNE.pdb
     RDKit          3D

 28 28  0  0  1  0  0  0  0  0999 V2000
   17.7292  -13.3255  -18.1839 N   0  0  0  0  0  0  0  0  0  0  0  0
   18.7035  -12.2478  -18.2322 C   0  0  1  0  0  0  0  0  0  0  0  0
   19.5126  -12.2845  -19.4852 C   0  0  0  0  0  0  0  0  0  0  0  0
   20.2919  -13.5320  -19.6708 C   0  0  0  0  0  0  0  0  0  0  0  0
   21.2585  -14.0808  -18.8438 C   0  0  0  0  0  0  0  0  0  0  0  0
   21.7256  -15.2210  -19.3701 N   0  0  0  0  0  0  0  0  0  0  0  0
   21.0633  -15.4013  -20.5256 C   0  0  0  0  0  0  0  0  0  0  0  0
   20.1902  -14.3755  -20.7116 N   0  0  0  0  0  0  0  0  0  0  0  0
   18.0722  -10.9655  -17.9120 C   0  0  0  0  0  0  0  0  0  0  0  0
   17.1645  -10.4885  -18.6637 O   0  0  0  0  0  0  0  0  0  0  0  0
   16.4124  -10.4007  -13.4865 N   0  0  0  0  0  0  0  0  0  0  0  0
   16.3131   -9.5973  -14.6704 C   0  0  0  0  0  0  0  0  0  0  0  0
   15.2288   -9.6478  -15.2965 O   0  0  0  0  0  0  0  0  0  0  0  0
   17.4817   -8.7820  -15.0559 C   0  0  0  0  0  0  0  0  0  0  0  0
   17.8163   -8.8683  -16.5276 C   0  0  2  0  0  0  0  0  0  0  0  0
   18.4121  -10.1792  -16.7721 N   0  0  0  0  0  0  0  0  0  0  0  0
   18.6453   -7.7515  -17.0066 C   0  0  0  0  0  0  0  0  0  0  0  0
   19.8852   -7.7221  -16.8102 O   0  0  0  0  0  0  0  0  0  0  0  0
   18.1174   -6.6238  -17.7232 N   0  0  0  0  0  0  0  0  0  0  0  0
   18.9708   -5.5465  -18.1611 C   0  0  1  0  0  0  0  0  0  0  0  0
   18.4492   -4.6867  -19.2433 C   0  0  0  0  0  0  0  0  0  0  0  0
   18.2955   -5.3031  -20.5888 C   0  0  0  0  0  0  0  0  0  0  0  0
   16.9848   -5.1790  -21.2182 C   0  0  0  0  0  0  0  0  0  0  0  0
   16.0110   -4.6443  -20.6516 O   0  0  0  0  0  0  0  0  0  0  0  0
   19.2224   -4.6532  -16.9646 C   0  0  0  0  0  0  0  0  0  0  0  0
   20.0068   -3.5202  -17.0657 O   0  0  0  0  0  0  0  0  0  0  0  0
   16.8068   -5.6774  -22.5064 O   0  0  0  0  0  0  0  0  0  0  0  0
   18.6900   -4.9858  -15.8849 O   0  0  0  0  0  0  0  0  0  0  0  0
  2  1  1  6
  2  9  1  0
  3  2  1  0
  3  4  1  0
  4  5  2  0
  5  6  1  0
  7  6  1  0
  8  4  1  0
  8  7  2  0
  9 16  1  0
  9 10  2  0
 11 12  1  0
 12 13  2  0
 15 14  1  1
 14 12  1  0
 15 17  1  0
 16 15  1  0
 17 19  1  0
 18 17  2  0
 19 20  1  0
 20 21  1  6
 20 25  1  0
 21 22  1  0
 22 23  1  0
 23 24  2  0
 25 28  2  0
 25 26  1  0
 27 23  1  0
M  END
$$$$
