HRP.pdb
     RDKit          3D

 29 30  0  0  1  0  0  0  0  0999 V2000
   18.9356  -15.1910  -16.5699 N   0  0  0  0  0  0  0  0  0  0  0  0
   19.8933  -16.0168  -17.2791 C   0  0  1  0  0  0  0  0  0  0  0  0
   20.4237  -15.1975  -18.4383 C   0  0  0  0  0  0  0  0  0  0  0  0
   19.4251  -14.9705  -19.4861 C   0  0  0  0  0  0  0  0  0  0  0  0
   19.1532  -15.8038  -20.5315 C   0  0  0  0  0  0  0  0  0  0  0  0
   18.1798  -15.2221  -21.2464 N   0  0  0  0  0  0  0  0  0  0  0  0
   17.8504  -14.0632  -20.6713 C   0  0  0  0  0  0  0  0  0  0  0  0
   18.6234  -13.9145  -19.5849 N   0  0  0  0  0  0  0  0  0  0  0  0
   21.0629  -16.3516  -16.4245 C   0  0  0  0  0  0  0  0  0  0  0  0
   21.7120  -15.4458  -15.8423 O   0  0  0  0  0  0  0  0  0  0  0  0
   26.4343  -21.7749  -11.8940 N   0  0  0  0  0  0  0  0  0  0  0  0
   25.8120  -22.0986  -13.1080 C   0  0  0  0  0  0  0  0  0  0  0  0
   26.5235  -22.7296  -13.9944 N   0  0  0  0  0  0  0  0  0  0  0  0
   24.4562  -21.7456  -13.3485 N   0  0  0  0  0  0  0  0  0  0  0  0
   24.2021  -20.6352  -14.2372 C   0  0  0  0  0  0  0  0  0  0  0  0
   23.4393  -19.5274  -13.5436 C   0  0  0  0  0  0  0  0  0  0  0  0
   22.2790  -19.1559  -14.4163 C   0  0  0  0  0  0  0  0  0  0  0  0
   22.6167  -18.0390  -15.3841 C   0  0  2  0  0  0  0  0  0  0  0  0
   21.5147  -17.6901  -16.2138 N   0  0  0  0  0  0  0  0  0  0  0  0
   23.9117  -18.2694  -16.0510 C   0  0  0  0  0  0  0  0  0  0  0  0
   23.7623  -18.9431  -17.1620 O   0  0  0  0  0  0  0  0  0  0  0  0
   26.1171  -22.9170  -14.9318 N   0  0  0  0  0  0  0  0  0  0  0  0
   25.1792  -17.8725  -15.6440 C   0  0  0  0  0  0  0  0  0  0  0  0
   25.6348  -17.2861  -14.4348 C   0  0  0  0  0  0  0  0  0  0  0  0
   26.7246  -16.3182  -14.9144 C   0  0  0  0  0  0  0  0  0  0  0  0
   27.0032  -16.6659  -16.3413 C   0  0  2  0  0  0  0  0  0  0  0  0
   26.3751  -18.0170  -16.4860 C   0  0  0  0  0  0  0  0  0  0  0  0
   27.2321  -19.1235  -16.0117 O   0  0  0  0  0  0  0  0  0  0  0  0
   27.0368  -19.7813  -14.9789 O   0  0  0  0  0  0  0  0  0  0  0  0
  2  1  1  1
  2  3  1  0
  4  3  1  0
  4  8  1  0
  5  6  1  0
  5  4  2  0
  6  7  1  0
  7  8  2  0
  9  2  1  0
 10  9  2  0
 12 11  1  0
 12 14  1  0
 13 12  2  0
 15 14  1  0
 16 15  1  0
 17 16  1  0
 18 17  1  6
 18 19  1  0
 19  9  1  0
 20 21  2  0
 20 18  1  0
 22 20  1  0
 23 22  1  0
 24 23  1  0
 25 24  1  0
 25 26  1  0
 26 22  1  0
 26 27  1  1
 28 27  2  0
 29 27  1  0
M  END
$$$$
