HRP.pdb
     RDKit          3D

 29 30  0  0  1  0  0  0  0  0999 V2000
   30.1308  -36.5453  -20.8714 N   0  0  0  0  0  0  0  0  0  0  0  0
   28.8511  -35.8914  -20.6799 C   0  0  1  0  0  0  0  0  0  0  0  0
   27.8554  -36.9594  -20.2745 C   0  0  0  0  0  0  0  0  0  0  0  0
   26.9552  -37.3487  -21.3629 C   0  0  0  0  0  0  0  0  0  0  0  0
   26.9881  -36.8748  -22.6417 C   0  0  0  0  0  0  0  0  0  0  0  0
   25.9988  -37.4880  -23.3068 N   0  0  0  0  0  0  0  0  0  0  0  0
   25.3653  -38.3188  -22.4758 C   0  0  0  0  0  0  0  0  0  0  0  0
   25.9613  -38.2276  -21.2773 N   0  0  0  0  0  0  0  0  0  0  0  0
   28.9014  -34.9109  -19.5634 C   0  0  0  0  0  0  0  0  0  0  0  0
   29.4525  -35.2083  -18.4730 O   0  0  0  0  0  0  0  0  0  0  0  0
   26.4033  -26.6214  -18.5187 N   0  0  0  0  0  0  0  0  0  0  0  0
   27.4239  -26.7300  -17.5635 C   0  0  0  0  0  0  0  0  0  0  0  0
   27.7589  -25.6501  -16.9219 N   0  0  0  0  0  0  0  0  0  0  0  0
   28.0597  -27.9769  -17.3152 N   0  0  0  0  0  0  0  0  0  0  0  0
   27.8289  -29.0449  -18.2604 C   0  0  0  0  0  0  0  0  0  0  0  0
   28.6819  -30.2567  -17.9539 C   0  0  0  0  0  0  0  0  0  0  0  0
   28.5100  -31.2326  -19.0782 C   0  0  0  0  0  0  0  0  0  0  0  0
   28.3420  -32.6572  -18.5877 C   0  0  2  0  0  0  0  0  0  0  0  0
   28.3415  -33.6000  -19.6533 N   0  0  0  0  0  0  0  0  0  0  0  0
   27.2571  -32.7668  -17.5947 C   0  0  0  0  0  0  0  0  0  0  0  0
   26.1031  -32.9810  -18.1716 O   0  0  0  0  0  0  0  0  0  0  0  0
   28.4955  -25.7016  -16.1912 N   0  0  0  0  0  0  0  0  0  0  0  0
   27.3353  -32.6700  -16.2112 C   0  0  0  0  0  0  0  0  0  0  0  0
   28.4216  -32.3587  -15.3529 C   0  0  0  0  0  0  0  0  0  0  0  0
   28.1688  -33.2644  -14.1403 C   0  0  0  0  0  0  0  0  0  0  0  0
   26.7793  -33.7950  -14.2891 C   0  0  2  0  0  0  0  0  0  0  0  0
   26.1844  -32.8919  -15.3243 C   0  0  0  0  0  0  0  0  0  0  0  0
   25.6772  -31.6161  -14.7777 O   0  0  0  0  0  0  0  0  0  0  0  0
   26.1600  -30.4990  -15.0154 O   0  0  0  0  0  0  0  0  0  0  0  0
  2  1  1  1
  2  3  1  0
  4  3  1  0
  4  8  1  0
  5  6  1  0
  5  4  2  0
  6  7  1  0
  7  8  2  0
  9  2  1  0
 10  9  2  0
 12 11  1  0
 12 14  1  0
 13 12  2  0
 15 14  1  0
 16 15  1  0
 17 16  1  0
 18 17  1  6
 18 19  1  0
 19  9  1  0
 20 21  2  0
 20 18  1  0
 22 20  1  0
 23 22  1  0
 24 23  1  0
 25 24  1  0
 25 26  1  0
 26 22  1  0
 26 27  1  1
 28 27  2  0
 29 27  1  0
M  END
$$$$
