HRP.pdb
     RDKit          3D

 29 30  0  0  1  0  0  0  0  0999 V2000
   21.0411  -29.5933  -14.2447 N   0  0  0  0  0  0  0  0  0  0  0  0
   21.5442  -29.8454  -12.9085 C   0  0  1  0  0  0  0  0  0  0  0  0
   20.3842  -29.6696  -11.9495 C   0  0  0  0  0  0  0  0  0  0  0  0
   19.9511  -28.2758  -11.8210 C   0  0  0  0  0  0  0  0  0  0  0  0
   20.6509  -27.2683  -11.2243 C   0  0  0  0  0  0  0  0  0  0  0  0
   19.8994  -26.1628  -11.3255 N   0  0  0  0  0  0  0  0  0  0  0  0
   18.7661  -26.4639  -11.9636 C   0  0  0  0  0  0  0  0  0  0  0  0
   18.8049  -27.7703  -12.2665 N   0  0  0  0  0  0  0  0  0  0  0  0
   22.0118  -31.2487  -12.7578 C   0  0  0  0  0  0  0  0  0  0  0  0
   21.4140  -32.1899  -13.3390 O   0  0  0  0  0  0  0  0  0  0  0  0
   26.7625  -31.1247  -16.1390 N   0  0  0  0  0  0  0  0  0  0  0  0
   27.8642  -31.6801  -15.4729 C   0  0  0  0  0  0  0  0  0  0  0  0
   29.0049  -31.0679  -15.5916 N   0  0  0  0  0  0  0  0  0  0  0  0
   27.7270  -32.8660  -14.7012 N   0  0  0  0  0  0  0  0  0  0  0  0
   26.3923  -33.3801  -14.4972 C   0  0  0  0  0  0  0  0  0  0  0  0
   25.7560  -32.8045  -13.2507 C   0  0  0  0  0  0  0  0  0  0  0  0
   24.3676  -33.3593  -13.1486 C   0  0  0  0  0  0  0  0  0  0  0  0
   23.6653  -32.9313  -11.8751 C   0  0  2  0  0  0  0  0  0  0  0  0
   23.1420  -31.6111  -11.9631 N   0  0  0  0  0  0  0  0  0  0  0  0
   24.4617  -33.2586  -10.6778 C   0  0  0  0  0  0  0  0  0  0  0  0
   25.1977  -32.2444  -10.3032 O   0  0  0  0  0  0  0  0  0  0  0  0
   29.8147  -31.3890  -15.0257 N   0  0  0  0  0  0  0  0  0  0  0  0
   24.5046  -34.4497   -9.9642 C   0  0  0  0  0  0  0  0  0  0  0  0
   23.8476  -35.6904  -10.1703 C   0  0  0  0  0  0  0  0  0  0  0  0
   23.5537  -36.1625   -8.7402 C   0  0  0  0  0  0  0  0  0  0  0  0
   24.3483  -35.2818   -7.8306 C   0  0  1  0  0  0  0  0  0  0  0  0
   25.3274  -34.6355   -8.7605 C   0  0  0  0  0  0  0  0  0  0  0  0
   26.5129  -35.4698   -9.0472 O   0  0  0  0  0  0  0  0  0  0  0  0
   26.7236  -36.0622  -10.1159 O   0  0  0  0  0  0  0  0  0  0  0  0
  2  1  1  6
  2  3  1  0
  4  3  1  0
  4  8  1  0
  5  6  1  0
  5  4  2  0
  6  7  1  0
  7  8  2  0
  9  2  1  0
 10  9  2  0
 12 11  1  0
 12 14  1  0
 13 12  2  0
 15 14  1  0
 16 15  1  0
 17 16  1  0
 18 17  1  6
 18 19  1  0
 19  9  1  0
 20 21  2  0
 20 18  1  0
 22 20  1  0
 23 22  1  0
 24 23  1  0
 25 24  1  0
 25 26  1  0
 26 22  1  0
 26 27  1  1
 28 27  2  0
 29 27  1  0
M  END
$$$$
