HRP.pdb
     RDKit          3D

 29 30  0  0  1  0  0  0  0  0999 V2000
   25.1501  -17.3319  -18.0303 N   0  0  0  0  0  0  0  0  0  0  0  0
   25.1747  -17.1391  -16.5935 C   0  0  1  0  0  0  0  0  0  0  0  0
   23.7527  -16.8573  -16.1521 C   0  0  0  0  0  0  0  0  0  0  0  0
   23.3290  -15.4812  -16.4229 C   0  0  0  0  0  0  0  0  0  0  0  0
   22.9389  -14.5624  -15.4930 C   0  0  0  0  0  0  0  0  0  0  0  0
   22.6367  -13.4403  -16.1613 N   0  0  0  0  0  0  0  0  0  0  0  0
   22.8298  -13.6455  -17.4663 C   0  0  0  0  0  0  0  0  0  0  0  0
   23.2572  -14.9078  -17.6203 N   0  0  0  0  0  0  0  0  0  0  0  0
   25.6033  -18.3740  -15.8850 C   0  0  0  0  0  0  0  0  0  0  0  0
   24.9474  -19.4404  -16.0012 O   0  0  0  0  0  0  0  0  0  0  0  0
   31.7016  -21.4663  -10.0932 N   0  0  0  0  0  0  0  0  0  0  0  0
   31.8232  -21.9563  -11.4013 C   0  0  0  0  0  0  0  0  0  0  0  0
   32.6300  -22.9579  -11.5913 N   0  0  0  0  0  0  0  0  0  0  0  0
   31.0884  -21.3729  -12.4691 N   0  0  0  0  0  0  0  0  0  0  0  0
   30.1720  -20.3042  -12.1445 C   0  0  0  0  0  0  0  0  0  0  0  0
   28.7891  -20.5654  -12.7007 C   0  0  0  0  0  0  0  0  0  0  0  0
   28.5063  -19.5167  -13.7332 C   0  0  0  0  0  0  0  0  0  0  0  0
   27.0525  -19.5041  -14.1626 C   0  0  2  0  0  0  0  0  0  0  0  0
   26.7586  -18.4290  -15.0470 N   0  0  0  0  0  0  0  0  0  0  0  0
   26.1445  -19.6970  -13.0165 C   0  0  0  0  0  0  0  0  0  0  0  0
   25.8499  -18.5581  -12.4452 O   0  0  0  0  0  0  0  0  0  0  0  0
   32.6982  -23.3824  -12.5369 N   0  0  0  0  0  0  0  0  0  0  0  0
   25.6135  -20.8811  -12.5210 C   0  0  0  0  0  0  0  0  0  0  0  0
   25.8278  -22.2333  -12.8942 C   0  0  0  0  0  0  0  0  0  0  0  0
   24.4394  -22.8612  -12.7135 C   0  0  0  0  0  0  0  0  0  0  0  0
   23.6193  -21.8674  -11.9556 C   0  0  2  0  0  0  0  0  0  0  0  0
   24.6497  -20.9271  -11.4123 C   0  0  0  0  0  0  0  0  0  0  0  0
   25.2891  -21.4025  -10.1677 O   0  0  0  0  0  0  0  0  0  0  0  0
   26.4201  -21.9059  -10.0971 O   0  0  0  0  0  0  0  0  0  0  0  0
  2  1  1  6
  2  3  1  0
  4  3  1  0
  4  8  1  0
  5  6  1  0
  5  4  2  0
  6  7  1  0
  7  8  2  0
  9  2  1  0
 10  9  2  0
 12 11  1  0
 12 14  1  0
 13 12  2  0
 15 14  1  0
 16 15  1  0
 17 16  1  0
 18 17  1  1
 18 19  1  0
 19  9  1  0
 20 21  2  0
 20 18  1  0
 22 20  1  0
 23 22  1  0
 24 23  1  0
 25 24  1  0
 25 26  1  0
 26 22  1  0
 26 27  1  1
 28 27  2  0
 29 27  1  0
M  END
$$$$
