HRP.pdb
     RDKit          3D

 29 30  0  0  1  0  0  0  0  0999 V2000
   15.3916  -21.6457    0.7874 N   0  0  0  0  0  0  0  0  0  0  0  0
   15.2856  -21.4545    2.2207 C   0  0  1  0  0  0  0  0  0  0  0  0
   15.4338  -22.8161    2.8692 C   0  0  0  0  0  0  0  0  0  0  0  0
   14.4606  -23.0521    3.9387 C   0  0  0  0  0  0  0  0  0  0  0  0
   14.7471  -23.2399    5.2592 C   0  0  0  0  0  0  0  0  0  0  0  0
   13.5765  -23.4200    5.8870 N   0  0  0  0  0  0  0  0  0  0  0  0
   12.5876  -23.3482    4.9931 C   0  0  0  0  0  0  0  0  0  0  0  0
   13.1410  -23.1208    3.7923 N   0  0  0  0  0  0  0  0  0  0  0  0
   16.3944  -20.6122    2.7419 C   0  0  0  0  0  0  0  0  0  0  0  0
   17.5902  -20.8799    2.4601 O   0  0  0  0  0  0  0  0  0  0  0  0
   17.3367  -12.1278    4.4136 N   0  0  0  0  0  0  0  0  0  0  0  0
   18.5490  -12.6711    4.8621 C   0  0  0  0  0  0  0  0  0  0  0  0
   19.5418  -11.8508    5.0394 N   0  0  0  0  0  0  0  0  0  0  0  0
   18.6753  -14.0651    5.1096 N   0  0  0  0  0  0  0  0  0  0  0  0
   17.6535  -14.9345    4.5737 C   0  0  0  0  0  0  0  0  0  0  0  0
   18.0203  -16.3938    4.7346 C   0  0  0  0  0  0  0  0  0  0  0  0
   16.9370  -17.2101    4.0975 C   0  0  0  0  0  0  0  0  0  0  0  0
   17.2248  -18.6976    4.1521 C   0  0  2  0  0  0  0  0  0  0  0  0
   16.1800  -19.4725    3.5756 N   0  0  0  0  0  0  0  0  0  0  0  0
   17.7098  -19.1099    5.4824 C   0  0  0  0  0  0  0  0  0  0  0  0
   16.7562  -19.6613    6.1874 O   0  0  0  0  0  0  0  0  0  0  0  0
   20.4445  -12.2169    5.4003 N   0  0  0  0  0  0  0  0  0  0  0  0
   18.9840  -18.9777    6.0198 C   0  0  0  0  0  0  0  0  0  0  0  0
   20.1974  -18.5104    5.4516 C   0  0  0  0  0  0  0  0  0  0  0  0
   21.2501  -19.4186    6.1009 C   0  0  0  0  0  0  0  0  0  0  0  0
   20.5638  -20.1297    7.2224 C   0  0  2  0  0  0  0  0  0  0  0  0
   19.3107  -19.3321    7.4083 C   0  0  0  0  0  0  0  0  0  0  0  0
   19.4943  -18.1239    8.2391 O   0  0  0  0  0  0  0  0  0  0  0  0
   19.4518  -16.9584    7.8179 O   0  0  0  0  0  0  0  0  0  0  0  0
  2  1  1  6
  2  3  1  0
  4  3  1  0
  4  8  1  0
  5  6  1  0
  5  4  2  0
  6  7  1  0
  7  8  2  0
  9  2  1  0
 10  9  2  0
 12 11  1  0
 12 14  1  0
 13 12  2  0
 15 14  1  0
 16 15  1  0
 17 16  1  0
 18 17  1  1
 18 19  1  0
 19  9  1  0
 20 21  2  0
 20 18  1  0
 22 20  1  0
 23 22  1  0
 24 23  1  0
 25 24  1  0
 25 26  1  0
 26 22  1  0
 26 27  1  1
 28 27  2  0
 29 27  1  0
M  END
$$$$
