HRP.pdb
     RDKit          3D

 29 30  0  0  1  0  0  0  0  0999 V2000
   28.5958  -24.6739  -17.4565 N   0  0  0  0  0  0  0  0  0  0  0  0
   27.2294  -24.5297  -16.9937 C   0  0  1  0  0  0  0  0  0  0  0  0
   26.9319  -25.7109  -16.0922 C   0  0  0  0  0  0  0  0  0  0  0  0
   26.5425  -26.9143  -16.8317 C   0  0  0  0  0  0  0  0  0  0  0  0
   25.2812  -27.4252  -16.9288 C   0  0  0  0  0  0  0  0  0  0  0  0
   25.3670  -28.5242  -17.6916 N   0  0  0  0  0  0  0  0  0  0  0  0
   26.6377  -28.6991  -18.0617 C   0  0  0  0  0  0  0  0  0  0  0  0
   27.3577  -27.7013  -17.5271 N   0  0  0  0  0  0  0  0  0  0  0  0
   27.0611  -23.3079  -16.1633 C   0  0  0  0  0  0  0  0  0  0  0  0
   27.8411  -23.0706  -15.2061 O   0  0  0  0  0  0  0  0  0  0  0  0
   22.2243  -16.3771  -17.7790 N   0  0  0  0  0  0  0  0  0  0  0  0
   21.6937  -17.5129  -17.1509 C   0  0  0  0  0  0  0  0  0  0  0  0
   20.4152  -17.7174  -17.2674 N   0  0  0  0  0  0  0  0  0  0  0  0
   22.5306  -18.3983  -16.4186 N   0  0  0  0  0  0  0  0  0  0  0  0
   23.8899  -17.9785  -16.1669 C   0  0  0  0  0  0  0  0  0  0  0  0
   24.6488  -19.0018  -15.3502 C   0  0  0  0  0  0  0  0  0  0  0  0
   25.0565  -20.1108  -16.2721 C   0  0  0  0  0  0  0  0  0  0  0  0
   25.7757  -21.2313  -15.5472 C   0  0  2  0  0  0  0  0  0  0  0  0
   26.0288  -22.3477  -16.3923 N   0  0  0  0  0  0  0  0  0  0  0  0
   25.1660  -21.5094  -14.2334 C   0  0  0  0  0  0  0  0  0  0  0  0
   24.2933  -22.4804  -14.3090 O   0  0  0  0  0  0  0  0  0  0  0  0
   19.9893  -18.5448  -16.8058 N   0  0  0  0  0  0  0  0  0  0  0  0
   25.4086  -20.8861  -13.0159 C   0  0  0  0  0  0  0  0  0  0  0  0
   26.2461  -19.7932  -12.6724 C   0  0  0  0  0  0  0  0  0  0  0  0
   26.7699  -20.1876  -11.2852 C   0  0  0  0  0  0  0  0  0  0  0  0
   25.9363  -21.3415  -10.8288 C   0  0  2  0  0  0  0  0  0  0  0  0
   24.7652  -21.2983  -11.7603 C   0  0  0  0  0  0  0  0  0  0  0  0
   23.7196  -20.3360  -11.3546 O   0  0  0  0  0  0  0  0  0  0  0  0
   22.9550  -20.4822  -10.3895 O   0  0  0  0  0  0  0  0  0  0  0  0
  2  1  1  1
  2  3  1  0
  4  3  1  0
  4  8  1  0
  5  6  1  0
  5  4  2  0
  6  7  1  0
  7  8  2  0
  9  2  1  0
 10  9  2  0
 12 11  1  0
 12 14  1  0
 13 12  2  0
 15 14  1  0
 16 15  1  0
 17 16  1  0
 18 17  1  6
 18 19  1  0
 19  9  1  0
 20 21  2  0
 20 18  1  0
 22 20  1  0
 23 22  1  0
 24 23  1  0
 25 24  1  0
 25 26  1  0
 26 22  1  0
 26 27  1  1
 28 27  2  0
 29 27  1  0
M  END
$$$$
