HRP.pdb
     RDKit          3D

 29 30  0  0  1  0  0  0  0  0999 V2000
   18.5857  -18.9621  -13.2982 N   0  0  0  0  0  0  0  0  0  0  0  0
   19.7903  -18.6844  -14.0558 C   0  0  1  0  0  0  0  0  0  0  0  0
   20.2235  -17.2735  -13.7124 C   0  0  0  0  0  0  0  0  0  0  0  0
   19.3569  -16.2477  -14.2981 C   0  0  0  0  0  0  0  0  0  0  0  0
   19.5294  -15.6459  -15.5102 C   0  0  0  0  0  0  0  0  0  0  0  0
   18.5201  -14.7760  -15.6572 N   0  0  0  0  0  0  0  0  0  0  0  0
   17.7394  -14.8283  -14.5754 C   0  0  0  0  0  0  0  0  0  0  0  0
   18.2622  -15.7392  -13.7406 N   0  0  0  0  0  0  0  0  0  0  0  0
   20.9058  -19.5816  -13.6543 C   0  0  0  0  0  0  0  0  0  0  0  0
   21.2109  -19.7228  -12.4427 O   0  0  0  0  0  0  0  0  0  0  0  0
   24.9837  -26.1529  -17.8523 N   0  0  0  0  0  0  0  0  0  0  0  0
   25.7754  -26.0145  -16.7034 C   0  0  0  0  0  0  0  0  0  0  0  0
   26.7390  -26.8708  -16.5352 N   0  0  0  0  0  0  0  0  0  0  0  0
   25.5246  -24.9750  -15.7667 N   0  0  0  0  0  0  0  0  0  0  0  0
   24.3624  -24.1450  -15.9845 C   0  0  0  0  0  0  0  0  0  0  0  0
   24.1896  -23.1244  -14.8806 C   0  0  0  0  0  0  0  0  0  0  0  0
   22.9791  -22.3022  -15.2040 C   0  0  0  0  0  0  0  0  0  0  0  0
   22.7902  -21.1465  -14.2413 C   0  0  2  0  0  0  0  0  0  0  0  0
   21.6846  -20.3233  -14.5943 N   0  0  0  0  0  0  0  0  0  0  0  0
   24.0661  -20.4668  -13.9494 C   0  0  0  0  0  0  0  0  0  0  0  0
   24.1867  -19.3627  -14.6399 O   0  0  0  0  0  0  0  0  0  0  0  0
   27.3572  -26.7828  -15.7051 N   0  0  0  0  0  0  0  0  0  0  0  0
   25.0767  -20.8567  -13.0798 C   0  0  0  0  0  0  0  0  0  0  0  0
   25.2144  -22.0042  -12.2565 C   0  0  0  0  0  0  0  0  0  0  0  0
   25.9079  -21.4462  -11.0066 C   0  0  0  0  0  0  0  0  0  0  0  0
   26.3803  -20.0729  -11.3606 C   0  0  2  0  0  0  0  0  0  0  0  0
   26.2933  -20.0632  -12.8551 C   0  0  0  0  0  0  0  0  0  0  0  0
   27.4615  -20.6757  -13.5213 O   0  0  0  0  0  0  0  0  0  0  0  0
   27.4511  -21.7639  -14.1157 O   0  0  0  0  0  0  0  0  0  0  0  0
  2  1  1  1
  2  3  1  0
  4  3  1  0
  4  8  1  0
  5  6  1  0
  5  4  2  0
  6  7  1  0
  7  8  2  0
  9  2  1  0
 10  9  2  0
 12 11  1  0
 12 14  1  0
 13 12  2  0
 15 14  1  0
 16 15  1  0
 17 16  1  0
 18 17  1  6
 18 19  1  0
 19  9  1  0
 20 21  2  0
 20 18  1  0
 22 20  1  0
 23 22  1  0
 24 23  1  0
 25 24  1  0
 25 26  1  0
 26 22  1  0
 26 27  1  1
 28 27  2  0
 29 27  1  0
M  END
$$$$
