HRP.pdb
     RDKit          3D

 29 30  0  0  1  0  0  0  0  0999 V2000
   19.3391  -17.3109  -15.8609 N   0  0  0  0  0  0  0  0  0  0  0  0
   20.3612  -17.9071  -16.6987 C   0  0  1  0  0  0  0  0  0  0  0  0
   20.2052  -17.3200  -18.0869 C   0  0  0  0  0  0  0  0  0  0  0  0
   18.9524  -17.7105  -18.7385 C   0  0  0  0  0  0  0  0  0  0  0  0
   18.7087  -18.8968  -19.3665 C   0  0  0  0  0  0  0  0  0  0  0  0
   17.4484  -18.8424  -19.8200 N   0  0  0  0  0  0  0  0  0  0  0  0
   16.9173  -17.6632  -19.4891 C   0  0  0  0  0  0  0  0  0  0  0  0
   17.8517  -16.9695  -18.8216 N   0  0  0  0  0  0  0  0  0  0  0  0
   21.7264  -17.5447  -16.2344 C   0  0  0  0  0  0  0  0  0  0  0  0
   22.0309  -16.3452  -16.0121 O   0  0  0  0  0  0  0  0  0  0  0  0
   25.6087  -23.1839  -11.8264 N   0  0  0  0  0  0  0  0  0  0  0  0
   24.9081  -23.1621  -13.0407 C   0  0  0  0  0  0  0  0  0  0  0  0
   24.6934  -24.3024  -13.6270 N   0  0  0  0  0  0  0  0  0  0  0  0
   24.4555  -21.9356  -13.5988 N   0  0  0  0  0  0  0  0  0  0  0  0
   24.6781  -20.7305  -12.8336 C   0  0  0  0  0  0  0  0  0  0  0  0
   24.0361  -19.5263  -13.4877 C   0  0  0  0  0  0  0  0  0  0  0  0
   24.7215  -19.3001  -14.8011 C   0  0  0  0  0  0  0  0  0  0  0  0
   24.0792  -18.1871  -15.6053 C   0  0  2  0  0  0  0  0  0  0  0  0
   22.7558  -18.5104  -16.0160 N   0  0  0  0  0  0  0  0  0  0  0  0
   24.9930  -17.6643  -16.6380 C   0  0  0  0  0  0  0  0  0  0  0  0
   24.6593  -18.0895  -17.8289 O   0  0  0  0  0  0  0  0  0  0  0  0
   24.1110  -24.3294  -14.4867 N   0  0  0  0  0  0  0  0  0  0  0  0
   26.0919  -16.8292  -16.4808 C   0  0  0  0  0  0  0  0  0  0  0  0
   26.6509  -16.2224  -15.3262 C   0  0  0  0  0  0  0  0  0  0  0  0
   27.1176  -14.8578  -15.8501 C   0  0  0  0  0  0  0  0  0  0  0  0
   27.0540  -14.9312  -17.3417 C   0  0  1  0  0  0  0  0  0  0  0  0
   26.9423  -16.4014  -17.6007 C   0  0  0  0  0  0  0  0  0  0  0  0
   28.2407  -17.1067  -17.5856 O   0  0  0  0  0  0  0  0  0  0  0  0
   28.5948  -17.9256  -16.7244 O   0  0  0  0  0  0  0  0  0  0  0  0
  2  1  1  1
  2  3  1  0
  4  3  1  0
  4  8  1  0
  5  6  1  0
  5  4  2  0
  6  7  1  0
  7  8  2  0
  9  2  1  0
 10  9  2  0
 12 11  1  0
 12 14  1  0
 13 12  2  0
 15 14  1  0
 16 15  1  0
 17 16  1  0
 18 17  1  6
 18 19  1  0
 19  9  1  0
 20 21  2  0
 20 18  1  0
 22 20  1  0
 23 22  1  0
 24 23  1  0
 25 24  1  0
 25 26  1  0
 26 22  1  0
 26 27  1  6
 28 27  2  0
 29 27  1  0
M  END
$$$$
