HRP.pdb
     RDKit          3D

 29 30  0  0  1  0  0  0  0  0999 V2000
   15.5512  -12.0785  -14.8285 N   0  0  0  0  0  0  0  0  0  0  0  0
   16.3344  -11.4342  -15.8647 C   0  0  1  0  0  0  0  0  0  0  0  0
   15.4837  -10.3242  -16.4482 C   0  0  0  0  0  0  0  0  0  0  0  0
   14.2980  -10.8188  -17.1526 C   0  0  0  0  0  0  0  0  0  0  0  0
   13.0000  -10.5670  -16.8167 C   0  0  0  0  0  0  0  0  0  0  0  0
   12.2372  -11.2046  -17.7160 N   0  0  0  0  0  0  0  0  0  0  0  0
   13.0274  -11.8357  -18.5876 C   0  0  0  0  0  0  0  0  0  0  0  0
   14.2984  -11.5930  -18.2335 N   0  0  0  0  0  0  0  0  0  0  0  0
   17.5515  -10.7884  -15.3060 C   0  0  0  0  0  0  0  0  0  0  0  0
   17.4792  -10.0601  -14.2836 O   0  0  0  0  0  0  0  0  0  0  0  0
   23.3595  -15.2708  -18.2320 N   0  0  0  0  0  0  0  0  0  0  0  0
   22.2307  -14.7051  -18.8418 C   0  0  0  0  0  0  0  0  0  0  0  0
   21.5428  -15.4620  -19.6442 N   0  0  0  0  0  0  0  0  0  0  0  0
   21.8631  -13.3561  -18.5850 N   0  0  0  0  0  0  0  0  0  0  0  0
   21.7920  -12.9337  -17.2053 C   0  0  0  0  0  0  0  0  0  0  0  0
   21.4620  -11.4615  -17.0877 C   0  0  0  0  0  0  0  0  0  0  0  0
   21.2713  -11.1507  -15.6342 C   0  0  0  0  0  0  0  0  0  0  0  0
   20.0262  -10.3249  -15.3771 C   0  0  2  0  0  0  0  0  0  0  0  0
   18.8500  -10.9486  -15.8791 N   0  0  0  0  0  0  0  0  0  0  0  0
   20.2328   -8.9062  -15.7230 C   0  0  0  0  0  0  0  0  0  0  0  0
   19.5392   -8.5673  -16.7787 O   0  0  0  0  0  0  0  0  0  0  0  0
   20.7029  -15.0718  -20.1147 N   0  0  0  0  0  0  0  0  0  0  0  0
   21.0334   -7.9664  -15.0862 C   0  0  0  0  0  0  0  0  0  0  0  0
   21.9368   -8.0870  -13.9986 C   0  0  0  0  0  0  0  0  0  0  0  0
   21.7462   -6.7623  -13.2482 C   0  0  0  0  0  0  0  0  0  0  0  0
   20.9627   -5.8693  -14.1555 C   0  0  1  0  0  0  0  0  0  0  0  0
   21.0816   -6.5519  -15.4825 C   0  0  0  0  0  0  0  0  0  0  0  0
   22.3355   -6.2402  -16.1996 O   0  0  0  0  0  0  0  0  0  0  0  0
   23.2663   -7.0385  -16.3838 O   0  0  0  0  0  0  0  0  0  0  0  0
  2  1  1  1
  2  3  1  0
  4  3  1  0
  4  8  1  0
  5  6  1  0
  5  4  2  0
  6  7  1  0
  7  8  2  0
  9  2  1  0
 10  9  2  0
 12 11  1  0
 12 14  1  0
 13 12  2  0
 15 14  1  0
 16 15  1  0
 17 16  1  0
 18 17  1  6
 18 19  1  0
 19  9  1  0
 20 21  2  0
 20 18  1  0
 22 20  1  0
 23 22  1  0
 24 23  1  0
 25 24  1  0
 25 26  1  0
 26 22  1  0
 26 27  1  6
 28 27  2  0
 29 27  1  0
M  END
$$$$
