HRP.pdb
     RDKit          3D

 29 30  0  0  1  0  0  0  0  0999 V2000
   20.9419  -21.0454  -16.8761 N   0  0  0  0  0  0  0  0  0  0  0  0
   21.6216  -20.0147  -16.1160 C   0  0  1  0  0  0  0  0  0  0  0  0
   20.6355  -19.4831  -15.0955 C   0  0  0  0  0  0  0  0  0  0  0  0
   19.5802  -18.6595  -15.6909 C   0  0  0  0  0  0  0  0  0  0  0  0
   18.3222  -19.0760  -16.0153 C   0  0  0  0  0  0  0  0  0  0  0  0
   17.6845  -18.0151  -16.5302 N   0  0  0  0  0  0  0  0  0  0  0  0
   18.5121  -16.9675  -16.5299 C   0  0  0  0  0  0  0  0  0  0  0  0
   19.6807  -17.3729  -16.0103 N   0  0  0  0  0  0  0  0  0  0  0  0
   22.7690  -20.5692  -15.3502 C   0  0  0  0  0  0  0  0  0  0  0  0
   22.6251  -21.5875  -14.6267 O   0  0  0  0  0  0  0  0  0  0  0  0
   28.6646  -18.5487  -18.7135 N   0  0  0  0  0  0  0  0  0  0  0  0
   28.0201  -17.3765  -18.2931 C   0  0  0  0  0  0  0  0  0  0  0  0
   27.6430  -16.5393  -19.2134 N   0  0  0  0  0  0  0  0  0  0  0  0
   27.7937  -17.1247  -16.9125 N   0  0  0  0  0  0  0  0  0  0  0  0
   27.7461  -18.2631  -16.0243 C   0  0  0  0  0  0  0  0  0  0  0  0
   26.4754  -19.0639  -16.2095 C   0  0  0  0  0  0  0  0  0  0  0  0
   26.5058  -20.2010  -15.2339 C   0  0  0  0  0  0  0  0  0  0  0  0
   25.1612  -20.4334  -14.5735 C   0  0  2  0  0  0  0  0  0  0  0  0
   24.0770  -19.9965  -15.3848 N   0  0  0  0  0  0  0  0  0  0  0  0
   25.1635  -19.9961  -13.1650 C   0  0  0  0  0  0  0  0  0  0  0  0
   24.4438  -18.9166  -13.0001 O   0  0  0  0  0  0  0  0  0  0  0  0
   27.1058  -15.6931  -18.9405 N   0  0  0  0  0  0  0  0  0  0  0  0
   25.8085  -20.5741  -12.0789 C   0  0  0  0  0  0  0  0  0  0  0  0
   26.6895  -21.6832  -11.9932 C   0  0  0  0  0  0  0  0  0  0  0  0
   26.2968  -22.3284  -10.6575 C   0  0  0  0  0  0  0  0  0  0  0  0
   25.4228  -21.3430   -9.9508 C   0  0  1  0  0  0  0  0  0  0  0  0
   25.6716  -20.0734  -10.7039 C   0  0  0  0  0  0  0  0  0  0  0  0
   26.8897  -19.3567  -10.2723 O   0  0  0  0  0  0  0  0  0  0  0  0
   27.9386  -19.2785  -10.9290 O   0  0  0  0  0  0  0  0  0  0  0  0
  2  1  1  1
  2  3  1  0
  4  3  1  0
  4  8  1  0
  5  6  1  0
  5  4  2  0
  6  7  1  0
  7  8  2  0
  9  2  1  0
 10  9  2  0
 12 11  1  0
 12 14  1  0
 13 12  2  0
 15 14  1  0
 16 15  1  0
 17 16  1  0
 18 17  1  6
 18 19  1  0
 19  9  1  0
 20 21  2  0
 20 18  1  0
 22 20  1  0
 23 22  1  0
 24 23  1  0
 25 24  1  0
 25 26  1  0
 26 22  1  0
 26 27  1  1
 28 27  2  0
 29 27  1  0
M  END
$$$$
