HRP.pdb
     RDKit          3D

 29 30  0  0  1  0  0  0  0  0999 V2000
   28.6688  -24.1148  -18.0059 N   0  0  0  0  0  0  0  0  0  0  0  0
   28.5918  -22.7667  -17.4780 C   0  0  1  0  0  0  0  0  0  0  0  0
   28.6763  -21.8161  -18.6551 C   0  0  0  0  0  0  0  0  0  0  0  0
   30.0085  -21.7714  -19.2631 C   0  0  0  0  0  0  0  0  0  0  0  0
   31.1226  -21.2037  -18.7173 C   0  0  0  0  0  0  0  0  0  0  0  0
   32.1185  -21.3840  -19.5963 N   0  0  0  0  0  0  0  0  0  0  0  0
   31.6479  -22.0420  -20.6583 C   0  0  0  0  0  0  0  0  0  0  0  0
   30.3445  -22.2779  -20.4455 N   0  0  0  0  0  0  0  0  0  0  0  0
   27.2831  -22.5130  -16.8195 C   0  0  0  0  0  0  0  0  0  0  0  0
   26.2124  -22.9084  -17.3469 O   0  0  0  0  0  0  0  0  0  0  0  0
   25.4639  -20.5209   -8.5284 N   0  0  0  0  0  0  0  0  0  0  0  0
   24.2902  -20.8940   -9.1986 C   0  0  0  0  0  0  0  0  0  0  0  0
   23.2430  -21.1496   -8.4720 N   0  0  0  0  0  0  0  0  0  0  0  0
   24.2589  -20.9857  -10.6168 N   0  0  0  0  0  0  0  0  0  0  0  0
   25.3363  -20.3632  -11.3509 C   0  0  0  0  0  0  0  0  0  0  0  0
   25.1068  -20.4308  -12.8452 C   0  0  0  0  0  0  0  0  0  0  0  0
   26.1004  -21.3960  -13.4168 C   0  0  0  0  0  0  0  0  0  0  0  0
   25.9228  -21.5939  -14.9093 C   0  0  2  0  0  0  0  0  0  0  0  0
   27.1590  -21.8211  -15.5761 N   0  0  0  0  0  0  0  0  0  0  0  0
   25.0243  -20.5787  -15.4900 C   0  0  0  0  0  0  0  0  0  0  0  0
   25.6782  -19.4937  -15.8149 O   0  0  0  0  0  0  0  0  0  0  0  0
   22.3637  -21.4498   -8.9366 N   0  0  0  0  0  0  0  0  0  0  0  0
   23.6544  -20.6560  -15.7072 C   0  0  0  0  0  0  0  0  0  0  0  0
   22.6998  -21.6372  -15.3337 C   0  0  0  0  0  0  0  0  0  0  0  0
   21.7452  -21.6592  -16.5349 C   0  0  0  0  0  0  0  0  0  0  0  0
   22.0755  -20.4584  -17.3617 C   0  0  2  0  0  0  0  0  0  0  0  0
   22.8961  -19.6239  -16.4283 C   0  0  0  0  0  0  0  0  0  0  0  0
   22.0893  -18.8063  -15.4986 O   0  0  0  0  0  0  0  0  0  0  0  0
   21.4079  -17.8230  -15.8249 O   0  0  0  0  0  0  0  0  0  0  0  0
  2  1  1  6
  2  3  1  0
  4  3  1  0
  4  8  1  0
  5  6  1  0
  5  4  2  0
  6  7  1  0
  7  8  2  0
  9  2  1  0
 10  9  2  0
 12 11  1  0
 12 14  1  0
 13 12  2  0
 15 14  1  0
 16 15  1  0
 17 16  1  0
 18 17  1  1
 18 19  1  0
 19  9  1  0
 20 21  2  0
 20 18  1  0
 22 20  1  0
 23 22  1  0
 24 23  1  0
 25 24  1  0
 25 26  1  0
 26 22  1  0
 26 27  1  1
 28 27  2  0
 29 27  1  0
M  END
$$$$
