HRP.pdb
     RDKit          3D

 29 30  0  0  1  0  0  0  0  0999 V2000
   19.9951  -17.1430  -17.1534 N   0  0  0  0  0  0  0  0  0  0  0  0
   20.8693  -18.2376  -17.5274 C   0  0  1  0  0  0  0  0  0  0  0  0
   21.3247  -17.9847  -18.9504 C   0  0  0  0  0  0  0  0  0  0  0  0
   20.6565  -18.8462  -19.9292 C   0  0  0  0  0  0  0  0  0  0  0  0
   19.5812  -18.5068  -20.6970 C   0  0  0  0  0  0  0  0  0  0  0  0
   19.2899  -19.5776  -21.4492 N   0  0  0  0  0  0  0  0  0  0  0  0
   20.1517  -20.5567  -21.1649 C   0  0  0  0  0  0  0  0  0  0  0  0
   20.9925  -20.0979  -20.2255 N   0  0  0  0  0  0  0  0  0  0  0  0
   22.0956  -18.2674  -16.6872 C   0  0  0  0  0  0  0  0  0  0  0  0
   22.6520  -17.1991  -16.3265 O   0  0  0  0  0  0  0  0  0  0  0  0
   26.7778  -21.5338  -10.5959 N   0  0  0  0  0  0  0  0  0  0  0  0
   25.6402  -20.8632  -10.1247 C   0  0  0  0  0  0  0  0  0  0  0  0
   25.5640  -20.6423   -8.8458 N   0  0  0  0  0  0  0  0  0  0  0  0
   24.6174  -20.4462  -11.0195 N   0  0  0  0  0  0  0  0  0  0  0  0
   24.2537  -21.3496  -12.0867 C   0  0  0  0  0  0  0  0  0  0  0  0
   24.6958  -20.8270  -13.4364 C   0  0  0  0  0  0  0  0  0  0  0  0
   23.5492  -20.0660  -14.0296 C   0  0  0  0  0  0  0  0  0  0  0  0
   23.8610  -19.5363  -15.4154 C   0  0  2  0  0  0  0  0  0  0  0  0
   22.7069  -19.4805  -16.2457 N   0  0  0  0  0  0  0  0  0  0  0  0
   25.0653  -20.1710  -15.9827 C   0  0  0  0  0  0  0  0  0  0  0  0
   24.7524  -21.1611  -16.7778 O   0  0  0  0  0  0  0  0  0  0  0  0
   24.7765  -20.0755   -8.4747 N   0  0  0  0  0  0  0  0  0  0  0  0
   26.3988  -19.8456  -15.7693 C   0  0  0  0  0  0  0  0  0  0  0  0
   27.0168  -19.0079  -14.8050 C   0  0  0  0  0  0  0  0  0  0  0  0
   28.1643  -18.3660  -15.5960 C   0  0  0  0  0  0  0  0  0  0  0  0
   28.2818  -19.1345  -16.8728 C   0  0  2  0  0  0  0  0  0  0  0  0
   27.4964  -20.3771  -16.5898 C   0  0  0  0  0  0  0  0  0  0  0  0
   28.2606  -21.4079  -15.8571 O   0  0  0  0  0  0  0  0  0  0  0  0
   28.0575  -21.7409  -14.6800 O   0  0  0  0  0  0  0  0  0  0  0  0
  2  1  1  1
  2  3  1  0
  4  3  1  0
  4  8  1  0
  5  6  1  0
  5  4  2  0
  6  7  1  0
  7  8  2  0
  9  2  1  0
 10  9  2  0
 12 11  1  0
 12 14  1  0
 13 12  2  0
 15 14  1  0
 16 15  1  0
 17 16  1  0
 18 17  1  1
 18 19  1  0
 19  9  1  0
 20 21  2  0
 20 18  1  0
 22 20  1  0
 23 22  1  0
 24 23  1  0
 25 24  1  0
 25 26  1  0
 26 22  1  0
 26 27  1  1
 28 27  2  0
 29 27  1  0
M  END
$$$$
