HRP.pdb
     RDKit          3D

 29 30  0  0  1  0  0  0  0  0999 V2000
   29.2310  -31.5684  -17.6296 N   0  0  0  0  0  0  0  0  0  0  0  0
   30.1823  -32.0679  -16.6562 C   0  0  1  0  0  0  0  0  0  0  0  0
   29.7251  -33.4543  -16.2496 C   0  0  0  0  0  0  0  0  0  0  0  0
   28.5826  -33.4367  -15.3326 C   0  0  0  0  0  0  0  0  0  0  0  0
   28.1502  -32.3651  -14.6074 C   0  0  0  0  0  0  0  0  0  0  0  0
   27.0854  -32.7777  -13.9053 N   0  0  0  0  0  0  0  0  0  0  0  0
   26.8555  -34.0640  -14.1788 C   0  0  0  0  0  0  0  0  0  0  0  0
   27.7838  -34.4642  -15.0608 N   0  0  0  0  0  0  0  0  0  0  0  0
   31.5372  -32.2234  -17.2482 C   0  0  0  0  0  0  0  0  0  0  0  0
   31.6771  -32.5931  -18.4418 O   0  0  0  0  0  0  0  0  0  0  0  0
   39.3814  -28.9026  -15.0120 N   0  0  0  0  0  0  0  0  0  0  0  0
   39.6542  -29.5856  -16.2057 C   0  0  0  0  0  0  0  0  0  0  0  0
   40.8218  -29.4005  -16.7465 N   0  0  0  0  0  0  0  0  0  0  0  0
   38.6844  -30.4439  -16.7919 N   0  0  0  0  0  0  0  0  0  0  0  0
   37.3573  -30.4415  -16.2209 C   0  0  0  0  0  0  0  0  0  0  0  0
   36.4493  -31.4351  -16.9126 C   0  0  0  0  0  0  0  0  0  0  0  0
   35.0676  -31.2514  -16.3622 C   0  0  0  0  0  0  0  0  0  0  0  0
   34.0469  -32.1334  -17.0539 C   0  0  2  0  0  0  0  0  0  0  0  0
   32.7387  -31.9695  -16.5188 N   0  0  0  0  0  0  0  0  0  0  0  0
   34.5387  -33.5148  -17.2116 C   0  0  0  0  0  0  0  0  0  0  0  0
   34.1874  -34.2642  -16.1990 O   0  0  0  0  0  0  0  0  0  0  0  0
   41.0644  -29.9114  -17.6178 N   0  0  0  0  0  0  0  0  0  0  0  0
   35.2841  -34.0562  -18.2513 C   0  0  0  0  0  0  0  0  0  0  0  0
   35.8438  -33.4621  -19.4121 C   0  0  0  0  0  0  0  0  0  0  0  0
   35.6757  -34.5592  -20.4717 C   0  0  0  0  0  0  0  0  0  0  0  0
   35.3049  -35.8066  -19.7362 C   0  0  2  0  0  0  0  0  0  0  0  0
   35.6552  -35.4768  -18.3186 C   0  0  0  0  0  0  0  0  0  0  0  0
   37.0851  -35.6712  -18.0002 O   0  0  0  0  0  0  0  0  0  0  0  0
   37.6764  -36.7609  -18.0222 O   0  0  0  0  0  0  0  0  0  0  0  0
  2  1  1  6
  2  3  1  0
  4  3  1  0
  4  8  1  0
  5  6  1  0
  5  4  2  0
  6  7  1  0
  7  8  2  0
  9  2  1  0
 10  9  2  0
 12 11  1  0
 12 14  1  0
 13 12  2  0
 15 14  1  0
 16 15  1  0
 17 16  1  0
 18 17  1  1
 18 19  1  0
 19  9  1  0
 20 21  2  0
 20 18  1  0
 22 20  1  0
 23 22  1  0
 24 23  1  0
 25 24  1  0
 25 26  1  0
 26 22  1  0
 26 27  1  6
 28 27  2  0
 29 27  1  0
M  END
$$$$
