TSY.pdb
     RDKit          3D

 26 26  0  0  1  0  0  0  0  0999 V2000
    9.9063  -13.0273   20.3899 C   0  0  0  0  0  0  0  0  0  0  0  0
    8.5750  -12.8943   19.6994 C   0  0  1  0  0  0  0  0  0  0  0  0
    8.6453  -12.1747   18.5154 O   0  0  0  0  0  0  0  0  0  0  0  0
    7.9461  -14.2276   19.3959 C   0  0  2  0  0  0  0  0  0  0  0  0
    6.6760  -14.0129   18.7603 N   0  0  0  0  0  0  0  0  0  0  0  0
    7.8133  -15.0336   20.6483 C   0  0  0  0  0  0  0  0  0  0  0  0
    6.9005  -14.7150   21.4470 O   0  0  0  0  0  0  0  0  0  0  0  0
   10.1401  -18.4703   21.3732 O   0  0  0  0  0  0  0  0  0  0  0  0
    8.8603  -18.3853   21.8844 C   0  0  0  0  0  0  0  0  0  0  0  0
    8.4380  -16.9412   22.1290 C   0  0  2  0  0  0  0  0  0  0  0  0
    8.6419  -16.1137   20.9778 N   0  0  0  0  0  0  0  0  0  0  0  0
    9.0989  -16.3761   23.3208 C   0  0  0  0  0  0  0  0  0  0  0  0
   10.1795  -15.7215   23.1579 O   0  0  0  0  0  0  0  0  0  0  0  0
    5.5578  -10.8603   25.7549 O   0  0  0  0  0  0  0  0  0  0  0  0
    6.2027  -12.0646   26.0104 C   0  0  0  0  0  0  0  0  0  0  0  0
    7.5238  -12.0523   26.4013 C   0  0  0  0  0  0  0  0  0  0  0  0
    8.1724  -13.2474   26.6574 C   0  0  0  0  0  0  0  0  0  0  0  0
    7.5432  -14.4738   26.5365 C   0  0  0  0  0  0  0  0  0  0  0  0
    8.3049  -15.6664   26.8260 C   0  0  0  0  0  0  0  0  0  0  0  0
    9.3460  -16.0461   25.8190 C   0  0  2  0  0  0  0  0  0  0  0  0
    8.6305  -16.5011   24.6374 N   0  0  0  0  0  0  0  0  0  0  0  0
   10.2332  -17.1283   26.2477 C   0  0  0  0  0  0  0  0  0  0  0  0
   10.2453  -18.3710   25.6603 O   0  0  0  0  0  0  0  0  0  0  0  0
    6.2199  -14.4813   26.1447 C   0  0  0  0  0  0  0  0  0  0  0  0
    5.5848  -13.2927   25.8929 C   0  0  0  0  0  0  0  0  0  0  0  0
   11.0535  -16.9527   27.2123 O   0  0  0  0  0  0  0  0  0  0  0  0
  2  1  1  6
  3  2  1  0
  4  2  1  0
  4  6  1  0
  4  5  1  1
  6  7  2  0
  9  8  1  0
 10  9  1  6
 11  6  1  0
 11 10  1  0
 12 10  1  0
 12 21  1  0
 13 12  2  0
 15 14  1  0
 16 15  2  0
 17 16  1  0
 18 24  1  0
 18 17  2  0
 19 18  1  0
 20 22  1  0
 20 21  1  0
 20 19  1  1
 22 23  1  0
 24 25  2  0
 25 15  1  0
 26 22  2  0
M  END
$$$$
