TSY.pdb
     RDKit          3D

 26 26  0  0  1  0  0  0  0  0999 V2000
   11.9570  -16.3865   16.7984 C   0  0  0  0  0  0  0  0  0  0  0  0
   10.6586  -16.3678   16.0363 C   0  0  1  0  0  0  0  0  0  0  0  0
   10.8305  -16.1770   14.6729 O   0  0  0  0  0  0  0  0  0  0  0  0
    9.8561  -17.6260   16.2317 C   0  0  2  0  0  0  0  0  0  0  0  0
    8.7397  -17.6148   15.3279 N   0  0  0  0  0  0  0  0  0  0  0  0
    9.4185  -17.7439   17.6566 C   0  0  0  0  0  0  0  0  0  0  0  0
    8.5701  -16.9187   18.0712 O   0  0  0  0  0  0  0  0  0  0  0  0
   11.1059  -20.5775   20.1708 O   0  0  0  0  0  0  0  0  0  0  0  0
    9.8929  -20.0708   20.5931 C   0  0  0  0  0  0  0  0  0  0  0  0
    9.5771  -18.7289   19.9427 C   0  0  2  0  0  0  0  0  0  0  0  0
    9.8970  -18.7138   18.5466 N   0  0  0  0  0  0  0  0  0  0  0  0
   10.2282  -17.6131   20.6552 C   0  0  0  0  0  0  0  0  0  0  0  0
   11.3670  -17.2172   20.2437 O   0  0  0  0  0  0  0  0  0  0  0  0
    7.2496  -12.5819   17.8367 O   0  0  0  0  0  0  0  0  0  0  0  0
    7.7958  -13.1021   19.0038 C   0  0  0  0  0  0  0  0  0  0  0  0
    7.0128  -13.8843   19.8245 C   0  0  0  0  0  0  0  0  0  0  0  0
    7.5498  -14.4057   20.9882 C   0  0  0  0  0  0  0  0  0  0  0  0
    8.8590  -14.1729   21.3705 C   0  0  0  0  0  0  0  0  0  0  0  0
    9.3278  -14.7610   22.6036 C   0  0  0  0  0  0  0  0  0  0  0  0
   10.3448  -15.8520   22.4706 C   0  0  2  0  0  0  0  0  0  0  0  0
    9.6908  -16.9417   21.7637 N   0  0  0  0  0  0  0  0  0  0  0  0
   10.8354  -16.3778   23.7454 C   0  0  0  0  0  0  0  0  0  0  0  0
   11.7461  -15.7158   24.5339 O   0  0  0  0  0  0  0  0  0  0  0  0
    9.6396  -13.3889   20.5455 C   0  0  0  0  0  0  0  0  0  0  0  0
    9.0997  -12.8762   19.3944 C   0  0  0  0  0  0  0  0  0  0  0  0
   10.4229  -17.5049   24.1853 O   0  0  0  0  0  0  0  0  0  0  0  0
  2  1  1  1
  3  2  1  0
  4  2  1  0
  4  6  1  0
  4  5  1  6
  6  7  2  0
  9  8  1  0
 10  9  1  1
 11  6  1  0
 11 10  1  0
 12 10  1  0
 12 21  1  0
 13 12  2  0
 15 14  1  0
 16 15  2  0
 17 16  1  0
 18 24  1  0
 18 17  2  0
 19 18  1  0
 20 22  1  0
 20 21  1  0
 20 19  1  1
 22 23  1  0
 24 25  2  0
 25 15  1  0
 26 22  2  0
M  END
$$$$
