TSY.pdb
     RDKit          3D

 26 26  0  0  1  0  0  0  0  0999 V2000
    9.9816  -13.1549   20.6275 C   0  0  0  0  0  0  0  0  0  0  0  0
    8.5863  -12.8667   20.1404 C   0  0  1  0  0  0  0  0  0  0  0  0
    8.5573  -12.0201   19.0417 O   0  0  0  0  0  0  0  0  0  0  0  0
    7.8294  -14.1176   19.7831 C   0  0  2  0  0  0  0  0  0  0  0  0
    6.5340  -13.7540   19.2801 N   0  0  0  0  0  0  0  0  0  0  0  0
    7.7327  -15.0204   20.9711 C   0  0  0  0  0  0  0  0  0  0  0  0
    6.9234  -14.7024   21.8747 O   0  0  0  0  0  0  0  0  0  0  0  0
   10.1813  -18.4577   21.5146 O   0  0  0  0  0  0  0  0  0  0  0  0
    8.8899  -18.4498   22.0029 C   0  0  0  0  0  0  0  0  0  0  0  0
    8.3940  -17.0360   22.2833 C   0  0  2  0  0  0  0  0  0  0  0  0
    8.4868  -16.1899   21.1313 N   0  0  0  0  0  0  0  0  0  0  0  0
    9.0809  -16.4396   23.4448 C   0  0  0  0  0  0  0  0  0  0  0  0
   10.0639  -15.6588   23.2287 O   0  0  0  0  0  0  0  0  0  0  0  0
    5.8123  -10.8709   25.7445 O   0  0  0  0  0  0  0  0  0  0  0  0
    6.4310  -12.0827   26.0273 C   0  0  0  0  0  0  0  0  0  0  0  0
    7.7348  -12.0863   26.4729 C   0  0  0  0  0  0  0  0  0  0  0  0
    8.3573  -13.2890   26.7564 C   0  0  0  0  0  0  0  0  0  0  0  0
    7.7186  -14.5077   26.6100 C   0  0  0  0  0  0  0  0  0  0  0  0
    8.4528  -15.7092   26.9315 C   0  0  0  0  0  0  0  0  0  0  0  0
    9.4749  -16.1474   25.9288 C   0  0  2  0  0  0  0  0  0  0  0  0
    8.7373  -16.6635   24.7865 N   0  0  0  0  0  0  0  0  0  0  0  0
   10.3665  -17.2079   26.4004 C   0  0  0  0  0  0  0  0  0  0  0  0
   10.3917  -18.4697   25.8557 O   0  0  0  0  0  0  0  0  0  0  0  0
    6.4128  -14.4993   26.1635 C   0  0  0  0  0  0  0  0  0  0  0  0
    5.8035  -13.3032   25.8848 C   0  0  0  0  0  0  0  0  0  0  0  0
   11.1783  -16.9936   27.3642 O   0  0  0  0  0  0  0  0  0  0  0  0
  2  1  1  6
  3  2  1  0
  4  2  1  0
  4  6  1  0
  4  5  1  1
  6  7  2  0
  9  8  1  0
 10  9  1  6
 11  6  1  0
 11 10  1  0
 12 10  1  0
 12 21  1  0
 13 12  2  0
 15 14  1  0
 16 15  2  0
 17 16  1  0
 18 24  1  0
 18 17  2  0
 19 18  1  0
 20 22  1  0
 20 21  1  0
 20 19  1  1
 22 23  1  0
 24 25  2  0
 25 15  1  0
 26 22  2  0
M  END
$$$$
