TSY.pdb
     RDKit          3D

 26 26  0  0  1  0  0  0  0  0999 V2000
    9.2065  -12.5857   20.6943 C   0  0  0  0  0  0  0  0  0  0  0  0
    8.1714  -12.8895   19.6439 C   0  0  1  0  0  0  0  0  0  0  0  0
    8.2995  -12.1013   18.5094 O   0  0  0  0  0  0  0  0  0  0  0  0
    8.1922  -14.3313   19.2126 C   0  0  2  0  0  0  0  0  0  0  0  0
    7.1495  -14.5471   18.2483 N   0  0  0  0  0  0  0  0  0  0  0  0
    8.0474  -15.2282   20.4001 C   0  0  0  0  0  0  0  0  0  0  0  0
    6.8994  -15.3630   20.8865 O   0  0  0  0  0  0  0  0  0  0  0  0
   11.0201  -17.9756   21.5433 O   0  0  0  0  0  0  0  0  0  0  0  0
    9.6741  -18.1795   21.7739 C   0  0  0  0  0  0  0  0  0  0  0  0
    8.9378  -16.8736   22.0498 C   0  0  2  0  0  0  0  0  0  0  0  0
    9.1101  -15.9202   20.9949 N   0  0  0  0  0  0  0  0  0  0  0  0
    9.3148  -16.3029   23.3569 C   0  0  0  0  0  0  0  0  0  0  0  0
   10.2392  -15.4269   23.3885 O   0  0  0  0  0  0  0  0  0  0  0  0
    6.0816  -10.5953   26.3515 O   0  0  0  0  0  0  0  0  0  0  0  0
    6.5970  -11.8822   26.4486 C   0  0  0  0  0  0  0  0  0  0  0  0
    5.7732  -12.9588   26.2025 C   0  0  0  0  0  0  0  0  0  0  0  0
    6.2794  -14.2431   26.2972 C   0  0  0  0  0  0  0  0  0  0  0  0
    7.5971  -14.4983   26.6335 C   0  0  0  0  0  0  0  0  0  0  0  0
    8.0315  -15.8738   26.7070 C   0  0  0  0  0  0  0  0  0  0  0  0
    9.2316  -16.2324   25.8865 C   0  0  2  0  0  0  0  0  0  0  0  0
    8.7324  -16.6487   24.5856 N   0  0  0  0  0  0  0  0  0  0  0  0
   10.0281  -17.3326   26.4318 C   0  0  0  0  0  0  0  0  0  0  0  0
   10.8358  -17.2036   27.5366 O   0  0  0  0  0  0  0  0  0  0  0  0
    8.4185  -13.4169   26.8791 C   0  0  0  0  0  0  0  0  0  0  0  0
    7.9090  -12.1478   26.7831 C   0  0  0  0  0  0  0  0  0  0  0  0
   10.0013  -18.4877   25.8849 O   0  0  0  0  0  0  0  0  0  0  0  0
  2  1  1  1
  3  2  1  0
  4  2  1  0
  4  6  1  0
  4  5  1  6
  6  7  2  0
  9  8  1  0
 10  9  1  6
 11  6  1  0
 11 10  1  0
 12 10  1  0
 12 21  1  0
 13 12  2  0
 15 14  1  0
 16 15  2  0
 17 16  1  0
 18 24  1  0
 18 17  2  0
 19 18  1  0
 20 22  1  0
 20 21  1  0
 20 19  1  1
 22 23  1  0
 24 25  2  0
 25 15  1  0
 26 22  2  0
M  END
$$$$
