TSY.pdb
     RDKit          3D

 26 26  0  0  1  0  0  0  0  0999 V2000
   10.0289  -13.8821   17.7856 C   0  0  0  0  0  0  0  0  0  0  0  0
    9.5256  -14.2879   19.1454 C   0  0  1  0  0  0  0  0  0  0  0  0
   10.0608  -13.5255   20.1736 O   0  0  0  0  0  0  0  0  0  0  0  0
    8.0257  -14.2210   19.2498 C   0  0  2  0  0  0  0  0  0  0  0  0
    7.5996  -12.8687   19.0194 N   0  0  0  0  0  0  0  0  0  0  0  0
    7.5772  -14.7271   20.5834 C   0  0  0  0  0  0  0  0  0  0  0  0
    7.3096  -13.8760   21.4647 O   0  0  0  0  0  0  0  0  0  0  0  0
    7.7015  -18.8390   21.7751 O   0  0  0  0  0  0  0  0  0  0  0  0
    6.6657  -18.0259   22.1902 C   0  0  0  0  0  0  0  0  0  0  0  0
    7.0641  -16.5546   22.2016 C   0  0  2  0  0  0  0  0  0  0  0  0
    7.4401  -16.0842   20.9020 N   0  0  0  0  0  0  0  0  0  0  0  0
    8.1194  -16.2851   23.1967 C   0  0  0  0  0  0  0  0  0  0  0  0
    9.2974  -16.0434   22.7762 O   0  0  0  0  0  0  0  0  0  0  0  0
    5.5515  -10.5921   26.2093 O   0  0  0  0  0  0  0  0  0  0  0  0
    6.1885  -11.8179   26.3605 C   0  0  0  0  0  0  0  0  0  0  0  0
    7.5571  -11.8887   26.2176 C   0  0  0  0  0  0  0  0  0  0  0  0
    8.1983  -13.1058   26.3668 C   0  0  0  0  0  0  0  0  0  0  0  0
    7.5152  -14.2734   26.6576 C   0  0  0  0  0  0  0  0  0  0  0  0
    8.2736  -15.4951   26.7941 C   0  0  0  0  0  0  0  0  0  0  0  0
    8.9713  -15.9810   25.5616 C   0  0  2  0  0  0  0  0  0  0  0  0
    7.9319  -16.2725   24.5870 N   0  0  0  0  0  0  0  0  0  0  0  0
    9.7568  -17.2009   25.7545 C   0  0  0  0  0  0  0  0  0  0  0  0
    9.4654  -18.3917   25.1327 O   0  0  0  0  0  0  0  0  0  0  0  0
    6.1446  -14.1978   26.7998 C   0  0  0  0  0  0  0  0  0  0  0  0
    5.5173  -12.9880   26.6504 C   0  0  0  0  0  0  0  0  0  0  0  0
   10.7723  -17.2039   26.5308 O   0  0  0  0  0  0  0  0  0  0  0  0
  2  1  1  6
  3  2  1  0
  4  2  1  0
  4  6  1  0
  4  5  1  1
  6  7  2  0
  9  8  1  0
 10  9  1  6
 11  6  1  0
 11 10  1  0
 12 10  1  0
 12 21  1  0
 13 12  2  0
 15 14  1  0
 16 15  2  0
 17 16  1  0
 18 24  1  0
 18 17  2  0
 19 18  1  0
 20 22  1  0
 20 21  1  0
 20 19  1  1
 22 23  1  0
 24 25  2  0
 25 15  1  0
 26 22  2  0
M  END
$$$$
