TSY.pdb
     RDKit          3D

 26 26  0  0  1  0  0  0  0  0999 V2000
   14.7546  -21.0680   15.6594 C   0  0  0  0  0  0  0  0  0  0  0  0
   14.9104  -20.3703   16.9846 C   0  0  1  0  0  0  0  0  0  0  0  0
   16.1694  -20.5374   17.5430 O   0  0  0  0  0  0  0  0  0  0  0  0
   14.6340  -18.8935   16.8958 C   0  0  2  0  0  0  0  0  0  0  0  0
   15.6171  -18.2830   16.0449 N   0  0  0  0  0  0  0  0  0  0  0  0
   14.6251  -18.2862   18.2621 C   0  0  0  0  0  0  0  0  0  0  0  0
   15.5622  -17.5056   18.5540 O   0  0  0  0  0  0  0  0  0  0  0  0
   11.7146  -19.2408   21.1834 O   0  0  0  0  0  0  0  0  0  0  0  0
   12.3045  -17.9928   21.2133 C   0  0  0  0  0  0  0  0  0  0  0  0
   13.6773  -17.9941   20.5507 C   0  0  2  0  0  0  0  0  0  0  0  0
   13.6398  -18.5365   19.2256 N   0  0  0  0  0  0  0  0  0  0  0  0
   14.6823  -18.6809   21.3842 C   0  0  0  0  0  0  0  0  0  0  0  0
   15.1290  -19.8056   20.9864 O   0  0  0  0  0  0  0  0  0  0  0  0
   11.0952  -20.6822   27.0681 O   0  0  0  0  0  0  0  0  0  0  0  0
   12.1674  -20.5937   26.1884 C   0  0  0  0  0  0  0  0  0  0  0  0
   13.4271  -20.3373   26.6842 C   0  0  0  0  0  0  0  0  0  0  0  0
   14.4993  -20.2478   25.8143 C   0  0  0  0  0  0  0  0  0  0  0  0
   14.3606  -20.4068   24.4468 C   0  0  0  0  0  0  0  0  0  0  0  0
   15.5401  -20.2953   23.6207 C   0  0  0  0  0  0  0  0  0  0  0  0
   16.1084  -18.9190   23.4627 C   0  0  2  0  0  0  0  0  0  0  0  0
   15.1947  -18.1924   22.5955 N   0  0  0  0  0  0  0  0  0  0  0  0
   17.4348  -18.8815   22.8450 C   0  0  0  0  0  0  0  0  0  0  0  0
   17.7477  -19.5566   21.6892 O   0  0  0  0  0  0  0  0  0  0  0  0
   13.0971  -20.6635   23.9547 C   0  0  0  0  0  0  0  0  0  0  0  0
   12.0401  -20.7506   24.8235 C   0  0  0  0  0  0  0  0  0  0  0  0
   18.3785  -18.1998   23.3728 O   0  0  0  0  0  0  0  0  0  0  0  0
  2  1  1  6
  3  2  1  0
  4  2  1  0
  4  6  1  0
  4  5  1  6
  6  7  2  0
  9  8  1  0
 10  9  1  1
 11  6  1  0
 11 10  1  0
 12 10  1  0
 12 21  1  0
 13 12  2  0
 15 14  1  0
 16 15  2  0
 17 16  1  0
 18 24  1  0
 18 17  2  0
 19 18  1  0
 20 22  1  0
 20 21  1  0
 20 19  1  6
 22 23  1  0
 24 25  2  0
 25 15  1  0
 26 22  2  0
M  END
$$$$
