TSY.pdb
     RDKit          3D

 26 26  0  0  1  0  0  0  0  0999 V2000
    7.9440  -12.3898   20.9660 C   0  0  0  0  0  0  0  0  0  0  0  0
    8.6435  -13.2600   19.9557 C   0  0  1  0  0  0  0  0  0  0  0  0
    9.9549  -13.5505   20.3028 O   0  0  0  0  0  0  0  0  0  0  0  0
    7.9261  -14.5619   19.7197 C   0  0  2  0  0  0  0  0  0  0  0  0
    6.6235  -14.2881   19.1797 N   0  0  0  0  0  0  0  0  0  0  0  0
    7.8491  -15.3473   20.9897 C   0  0  0  0  0  0  0  0  0  0  0  0
    6.8756  -15.1257   21.7486 O   0  0  0  0  0  0  0  0  0  0  0  0
   10.4594  -18.5922   21.9135 O   0  0  0  0  0  0  0  0  0  0  0  0
    9.1339  -18.5577   22.2983 C   0  0  0  0  0  0  0  0  0  0  0  0
    8.6457  -17.1336   22.5377 C   0  0  2  0  0  0  0  0  0  0  0  0
    8.7927  -16.3073   21.3770 N   0  0  0  0  0  0  0  0  0  0  0  0
    9.2957  -16.5271   23.7150 C   0  0  0  0  0  0  0  0  0  0  0  0
   10.3031  -15.7710   23.5251 O   0  0  0  0  0  0  0  0  0  0  0  0
    5.9538  -10.8725   25.8558 O   0  0  0  0  0  0  0  0  0  0  0  0
    6.5506  -12.0883   26.1674 C   0  0  0  0  0  0  0  0  0  0  0  0
    7.8512  -12.1041   26.6218 C   0  0  0  0  0  0  0  0  0  0  0  0
    8.4520  -13.3108   26.9340 C   0  0  0  0  0  0  0  0  0  0  0  0
    7.7941  -14.5216   26.8082 C   0  0  0  0  0  0  0  0  0  0  0  0
    8.5063  -15.7282   27.1591 C   0  0  0  0  0  0  0  0  0  0  0  0
    9.5745  -16.1661   26.2055 C   0  0  2  0  0  0  0  0  0  0  0  0
    8.8916  -16.7158   25.0452 N   0  0  0  0  0  0  0  0  0  0  0  0
   10.4649  -17.2018   26.7315 C   0  0  0  0  0  0  0  0  0  0  0  0
   11.4209  -16.9594   27.6890 O   0  0  0  0  0  0  0  0  0  0  0  0
    6.4916  -14.5009   26.3527 C   0  0  0  0  0  0  0  0  0  0  0  0
    5.9039  -13.3010   26.0456 C   0  0  0  0  0  0  0  0  0  0  0  0
   10.3839  -18.4050   26.3076 O   0  0  0  0  0  0  0  0  0  0  0  0
  2  1  1  1
  3  2  1  0
  4  2  1  0
  4  6  1  0
  4  5  1  1
  6  7  2  0
  9  8  1  0
 10  9  1  6
 11  6  1  0
 11 10  1  0
 12 10  1  0
 12 21  1  0
 13 12  2  0
 15 14  1  0
 16 15  2  0
 17 16  1  0
 18 24  1  0
 18 17  2  0
 19 18  1  0
 20 22  1  0
 20 21  1  0
 20 19  1  1
 22 23  1  0
 24 25  2  0
 25 15  1  0
 26 22  2  0
M  END
$$$$
