TSY.pdb
     RDKit          3D

 26 26  0  0  1  0  0  0  0  0999 V2000
   10.2785  -13.3595   20.3670 C   0  0  0  0  0  0  0  0  0  0  0  0
    8.9059  -12.9812   19.8772 C   0  0  1  0  0  0  0  0  0  0  0  0
    8.9341  -12.1532   18.7644 O   0  0  0  0  0  0  0  0  0  0  0  0
    8.0613  -14.1810   19.5421 C   0  0  2  0  0  0  0  0  0  0  0  0
    6.7691  -13.7358   19.1002 N   0  0  0  0  0  0  0  0  0  0  0  0
    7.9629  -15.0905   20.7248 C   0  0  0  0  0  0  0  0  0  0  0  0
    7.1115  -14.8091   21.6015 O   0  0  0  0  0  0  0  0  0  0  0  0
   10.5574  -18.3918   21.3577 O   0  0  0  0  0  0  0  0  0  0  0  0
    9.2440  -18.4735   21.7757 C   0  0  0  0  0  0  0  0  0  0  0  0
    8.6424  -17.0981   22.0400 C   0  0  2  0  0  0  0  0  0  0  0  0
    8.7594  -16.2280   20.9083 N   0  0  0  0  0  0  0  0  0  0  0  0
    9.2103  -16.4806   23.2535 C   0  0  0  0  0  0  0  0  0  0  0  0
   10.1656  -15.6491   23.1166 O   0  0  0  0  0  0  0  0  0  0  0  0
    5.9035  -10.8455   25.8605 O   0  0  0  0  0  0  0  0  0  0  0  0
    6.4706  -12.0994   26.0540 C   0  0  0  0  0  0  0  0  0  0  0  0
    7.6911  -12.1971   26.6859 C   0  0  0  0  0  0  0  0  0  0  0  0
    8.2620  -13.4422   26.8820 C   0  0  0  0  0  0  0  0  0  0  0  0
    7.6520  -14.6120   26.4651 C   0  0  0  0  0  0  0  0  0  0  0  0
    8.3274  -15.8640   26.7155 C   0  0  0  0  0  0  0  0  0  0  0  0
    9.4254  -16.2244   25.7633 C   0  0  2  0  0  0  0  0  0  0  0  0
    8.7804  -16.7359   24.5644 N   0  0  0  0  0  0  0  0  0  0  0  0
   10.3358  -17.2589   26.2563 C   0  0  0  0  0  0  0  0  0  0  0  0
   11.3016  -17.0236   27.2057 O   0  0  0  0  0  0  0  0  0  0  0  0
    6.4297  -14.5094   25.8326 C   0  0  0  0  0  0  0  0  0  0  0  0
    5.8711  -13.2719   25.6423 C   0  0  0  0  0  0  0  0  0  0  0  0
   10.2642  -18.4543   25.8092 O   0  0  0  0  0  0  0  0  0  0  0  0
  2  1  1  6
  3  2  1  0
  4  2  1  0
  4  6  1  0
  4  5  1  1
  6  7  2  0
  9  8  1  0
 10  9  1  6
 11  6  1  0
 11 10  1  0
 12 10  1  0
 12 21  1  0
 13 12  2  0
 15 14  1  0
 16 15  2  0
 17 16  1  0
 18 24  1  0
 18 17  2  0
 19 18  1  0
 20 22  1  0
 20 21  1  0
 20 19  1  1
 22 23  1  0
 24 25  2  0
 25 15  1  0
 26 22  2  0
M  END
$$$$
