TSY.pdb
     RDKit          3D

 26 26  0  0  1  0  0  0  0  0999 V2000
    8.0185  -23.6098   16.2552 C   0  0  0  0  0  0  0  0  0  0  0  0
    8.4566  -23.7402   14.8206 C   0  0  1  0  0  0  0  0  0  0  0  0
    7.4670  -24.2516   13.9935 O   0  0  0  0  0  0  0  0  0  0  0  0
    8.9197  -22.4324   14.2370 C   0  0  2  0  0  0  0  0  0  0  0  0
    9.3047  -22.6400   12.8687 N   0  0  0  0  0  0  0  0  0  0  0  0
   10.0403  -21.8706   15.0521 C   0  0  0  0  0  0  0  0  0  0  0  0
   11.1871  -22.3405   14.8602 O   0  0  0  0  0  0  0  0  0  0  0  0
    9.5099  -18.9888   18.1700 O   0  0  0  0  0  0  0  0  0  0  0  0
   10.6699  -19.0109   17.4214 C   0  0  0  0  0  0  0  0  0  0  0  0
   10.9506  -20.3934   16.8440 C   0  0  2  0  0  0  0  0  0  0  0  0
    9.8845  -20.8593   16.0086 N   0  0  0  0  0  0  0  0  0  0  0  0
   11.2696  -21.3700   17.9028 C   0  0  0  0  0  0  0  0  0  0  0  0
   10.3056  -21.9701   18.4801 O   0  0  0  0  0  0  0  0  0  0  0  0
   15.2952  -27.9189   22.2001 O   0  0  0  0  0  0  0  0  0  0  0  0
   14.8067  -26.9261   21.3592 C   0  0  0  0  0  0  0  0  0  0  0  0
   15.6920  -26.0712   20.7398 C   0  0  0  0  0  0  0  0  0  0  0  0
   15.2129  -25.0803   19.9013 C   0  0  0  0  0  0  0  0  0  0  0  0
   13.8628  -24.9071   19.6532 C   0  0  0  0  0  0  0  0  0  0  0  0
   13.4606  -23.8437   18.7624 C   0  0  0  0  0  0  0  0  0  0  0  0
   12.8698  -22.6287   19.4080 C   0  0  2  0  0  0  0  0  0  0  0  0
   12.5640  -21.6979   18.3333 N   0  0  0  0  0  0  0  0  0  0  0  0
   13.7643  -21.9490   20.3461 C   0  0  0  0  0  0  0  0  0  0  0  0
   13.9383  -22.3518   21.6488 O   0  0  0  0  0  0  0  0  0  0  0  0
   12.9797  -25.7656   20.2757 C   0  0  0  0  0  0  0  0  0  0  0  0
   13.4627  -26.7446   21.1050 C   0  0  0  0  0  0  0  0  0  0  0  0
   14.4363  -20.9258   19.9779 O   0  0  0  0  0  0  0  0  0  0  0  0
  2  1  1  1
  3  2  1  0
  4  2  1  0
  4  6  1  0
  4  5  1  6
  6  7  2  0
  9  8  1  0
 10  9  1  1
 11  6  1  0
 11 10  1  0
 12 10  1  0
 12 21  1  0
 13 12  2  0
 15 14  1  0
 16 15  2  0
 17 16  1  0
 18 24  1  0
 18 17  2  0
 19 18  1  0
 20 22  1  0
 20 21  1  0
 20 19  1  6
 22 23  1  0
 24 25  2  0
 25 15  1  0
 26 22  2  0
M  END
$$$$
