TSY.pdb
     RDKit          3D

 26 26  0  0  1  0  0  0  0  0999 V2000
   10.2103  -12.8414   19.5643 C   0  0  0  0  0  0  0  0  0  0  0  0
    8.8811  -12.8168   18.8574 C   0  0  1  0  0  0  0  0  0  0  0  0
    8.9093  -12.1002   17.6697 O   0  0  0  0  0  0  0  0  0  0  0  0
    8.3623  -14.1969   18.5549 C   0  0  2  0  0  0  0  0  0  0  0  0
    7.0999  -14.0853   17.8786 N   0  0  0  0  0  0  0  0  0  0  0  0
    8.2510  -14.9949   19.8145 C   0  0  0  0  0  0  0  0  0  0  0  0
    7.3419  -14.6811   20.6194 O   0  0  0  0  0  0  0  0  0  0  0  0
   10.8186  -18.2568   20.7570 O   0  0  0  0  0  0  0  0  0  0  0  0
    9.4618  -18.3345   21.0007 C   0  0  0  0  0  0  0  0  0  0  0  0
    8.8435  -16.9604   21.2313 C   0  0  2  0  0  0  0  0  0  0  0  0
    9.0956  -16.0625   20.1442 N   0  0  0  0  0  0  0  0  0  0  0  0
    9.2729  -16.3803   22.5180 C   0  0  0  0  0  0  0  0  0  0  0  0
   10.3161  -15.6495   22.5320 O   0  0  0  0  0  0  0  0  0  0  0  0
    5.9221  -10.4905   26.0211 O   0  0  0  0  0  0  0  0  0  0  0  0
    6.4360  -11.7802   25.9584 C   0  0  0  0  0  0  0  0  0  0  0  0
    5.7358  -12.8141   26.5408 C   0  0  0  0  0  0  0  0  0  0  0  0
    6.2413  -14.1008   26.4824 C   0  0  0  0  0  0  0  0  0  0  0  0
    7.4377  -14.4001   25.8551 C   0  0  0  0  0  0  0  0  0  0  0  0
    7.8822  -15.7744   25.8471 C   0  0  0  0  0  0  0  0  0  0  0  0
    9.0980  -16.0708   25.0249 C   0  0  2  0  0  0  0  0  0  0  0  0
    8.6192  -16.5687   23.7451 N   0  0  0  0  0  0  0  0  0  0  0  0
    9.9801  -17.0886   25.5979 C   0  0  0  0  0  0  0  0  0  0  0  0
   10.8855  -16.8252   26.5981 O   0  0  0  0  0  0  0  0  0  0  0  0
    8.1356  -13.3615   25.2732 C   0  0  0  0  0  0  0  0  0  0  0  0
    7.6277  -12.0896   25.3357 C   0  0  0  0  0  0  0  0  0  0  0  0
    9.9398  -18.2949   25.1772 O   0  0  0  0  0  0  0  0  0  0  0  0
  2  1  1  6
  3  2  1  0
  4  2  1  0
  4  6  1  0
  4  5  1  1
  6  7  2  0
  9  8  1  0
 10  9  1  6
 11  6  1  0
 11 10  1  0
 12 10  1  0
 12 21  1  0
 13 12  2  0
 15 14  1  0
 16 15  2  0
 17 16  1  0
 18 24  1  0
 18 17  2  0
 19 18  1  0
 20 22  1  0
 20 21  1  0
 20 19  1  1
 22 23  1  0
 24 25  2  0
 25 15  1  0
 26 22  2  0
M  END
$$$$
