TSY.pdb
     RDKit          3D

 26 26  0  0  1  0  0  0  0  0999 V2000
    7.3875  -17.3994   25.5948 C   0  0  0  0  0  0  0  0  0  0  0  0
    7.4737  -18.9002   25.5097 C   0  0  1  0  0  0  0  0  0  0  0  0
    6.4146  -19.5427   26.1344 O   0  0  0  0  0  0  0  0  0  0  0  0
    7.5449  -19.3950   24.0900 C   0  0  2  0  0  0  0  0  0  0  0  0
    7.3250  -20.8145   24.0769 N   0  0  0  0  0  0  0  0  0  0  0  0
    8.8603  -19.0292   23.4804 C   0  0  0  0  0  0  0  0  0  0  0  0
    9.8828  -19.6048   23.9229 O   0  0  0  0  0  0  0  0  0  0  0  0
    9.1446  -16.2006   20.4264 O   0  0  0  0  0  0  0  0  0  0  0  0
   10.1690  -17.1222   20.5138 C   0  0  0  0  0  0  0  0  0  0  0  0
   10.2872  -17.7135   21.9137 C   0  0  2  0  0  0  0  0  0  0  0  0
    9.0148  -18.0896   22.4532 N   0  0  0  0  0  0  0  0  0  0  0  0
   11.0116  -16.8087   22.8264 C   0  0  0  0  0  0  0  0  0  0  0  0
   10.3961  -15.7897   23.2798 O   0  0  0  0  0  0  0  0  0  0  0  0
    9.7733  -17.2998   29.4425 O   0  0  0  0  0  0  0  0  0  0  0  0
   10.6718  -17.1720   28.3901 C   0  0  0  0  0  0  0  0  0  0  0  0
   11.9385  -16.6907   28.6396 C   0  0  0  0  0  0  0  0  0  0  0  0
   12.8385  -16.5608   27.5967 C   0  0  0  0  0  0  0  0  0  0  0  0
   12.5179  -16.8981   26.2937 C   0  0  0  0  0  0  0  0  0  0  0  0
   13.5260  -16.7267   25.2736 C   0  0  0  0  0  0  0  0  0  0  0  0
   13.0931  -16.0145   24.0297 C   0  0  2  0  0  0  0  0  0  0  0  0
   12.3406  -16.9788   23.2429 N   0  0  0  0  0  0  0  0  0  0  0  0
   14.1953  -15.5250   23.2004 C   0  0  0  0  0  0  0  0  0  0  0  0
   15.0486  -14.5223   23.5954 O   0  0  0  0  0  0  0  0  0  0  0  0
   11.2481  -17.3797   26.0484 C   0  0  0  0  0  0  0  0  0  0  0  0
   10.3625  -17.5053   27.0874 C   0  0  0  0  0  0  0  0  0  0  0  0
   14.4113  -16.0264   22.0446 O   0  0  0  0  0  0  0  0  0  0  0  0
  2  1  1  6
  3  2  1  0
  4  2  1  0
  4  6  1  0
  4  5  1  1
  6  7  2  0
  9  8  1  0
 10  9  1  6
 11  6  1  0
 11 10  1  0
 12 10  1  0
 12 21  1  0
 13 12  2  0
 15 14  1  0
 16 15  2  0
 17 16  1  0
 18 24  1  0
 18 17  2  0
 19 18  1  0
 20 22  1  0
 20 21  1  0
 20 19  1  1
 22 23  1  0
 24 25  2  0
 25 15  1  0
 26 22  2  0
M  END
$$$$
