TSY.pdb
     RDKit          3D

 26 26  0  0  1  0  0  0  0  0999 V2000
   10.7651  -14.9225   19.2153 C   0  0  0  0  0  0  0  0  0  0  0  0
   10.0525  -13.6925   18.7190 C   0  0  1  0  0  0  0  0  0  0  0  0
   10.4987  -13.2694   17.4753 O   0  0  0  0  0  0  0  0  0  0  0  0
    8.5616  -13.8820   18.6378 C   0  0  2  0  0  0  0  0  0  0  0  0
    7.9585  -12.6621   18.1781 N   0  0  0  0  0  0  0  0  0  0  0  0
    8.0212  -14.3048   19.9663 C   0  0  0  0  0  0  0  0  0  0  0  0
    8.0788  -13.4749   20.9047 O   0  0  0  0  0  0  0  0  0  0  0  0
    7.0374  -18.3096   21.0943 O   0  0  0  0  0  0  0  0  0  0  0  0
    6.1826  -17.2778   21.4276 C   0  0  0  0  0  0  0  0  0  0  0  0
    6.9032  -15.9358   21.4867 C   0  0  2  0  0  0  0  0  0  0  0  0
    7.4595  -15.5625   20.2207 N   0  0  0  0  0  0  0  0  0  0  0  0
    7.9253  -15.9142   22.5502 C   0  0  0  0  0  0  0  0  0  0  0  0
    9.1508  -15.9893   22.2106 O   0  0  0  0  0  0  0  0  0  0  0  0
   11.0726  -14.5819   30.8570 O   0  0  0  0  0  0  0  0  0  0  0  0
   10.3262  -14.7362   29.6949 C   0  0  0  0  0  0  0  0  0  0  0  0
    9.8953  -13.6169   29.0167 C   0  0  0  0  0  0  0  0  0  0  0  0
    9.1517  -13.7628   27.8590 C   0  0  0  0  0  0  0  0  0  0  0  0
    8.8162  -15.0024   27.3440 C   0  0  0  0  0  0  0  0  0  0  0  0
    8.0363  -15.0515   26.1292 C   0  0  0  0  0  0  0  0  0  0  0  0
    8.6712  -15.7451   24.9639 C   0  0  2  0  0  0  0  0  0  0  0  0
    7.6572  -15.8164   23.9239 N   0  0  0  0  0  0  0  0  0  0  0  0
    9.1187  -17.1100   25.2452 C   0  0  0  0  0  0  0  0  0  0  0  0
   10.3954  -17.4162   25.6524 O   0  0  0  0  0  0  0  0  0  0  0  0
    9.2499  -16.1206   28.0265 C   0  0  0  0  0  0  0  0  0  0  0  0
    9.9862  -15.9672   29.1728 C   0  0  0  0  0  0  0  0  0  0  0  0
    8.3155  -18.0963   25.1188 O   0  0  0  0  0  0  0  0  0  0  0  0
  2  1  1  6
  3  2  1  0
  4  2  1  0
  4  6  1  0
  4  5  1  1
  6  7  2  0
  9  8  1  0
 10  9  1  6
 11  6  1  0
 11 10  1  0
 12 10  1  0
 12 21  1  0
 13 12  2  0
 15 14  1  0
 16 15  2  0
 17 16  1  0
 18 24  1  0
 18 17  2  0
 19 18  1  0
 20 22  1  0
 20 21  1  0
 20 19  1  1
 22 23  1  0
 24 25  2  0
 25 15  1  0
 26 22  2  0
M  END
$$$$
