ENN.pdb
     RDKit          3D

 26 25  0  0  1  0  0  0  0  0999 V2000
   19.6041  -11.0438  -16.2799 N   0  0  0  0  0  0  0  0  0  0  0  0
   18.8993   -9.8778  -15.7218 C   0  0  1  0  0  0  0  0  0  0  0  0
   17.4286  -10.1319  -15.7018 C   0  0  0  0  0  0  0  0  0  0  0  0
   16.9301  -10.5474  -17.0522 C   0  0  0  0  0  0  0  0  0  0  0  0
   15.4609  -10.7778  -17.0553 C   0  0  0  0  0  0  0  0  0  0  0  0
   14.6606  -10.3055  -16.2212 O   0  0  0  0  0  0  0  0  0  0  0  0
   19.5034   -9.6056  -14.3957 C   0  0  0  0  0  0  0  0  0  0  0  0
   20.6332  -10.0969  -14.0526 O   0  0  0  0  0  0  0  0  0  0  0  0
   14.8799  -11.5807  -18.0515 O   0  0  0  0  0  0  0  0  0  0  0  0
   21.3945   -4.8344  -12.6057 N   0  0  0  0  0  0  0  0  0  0  0  0
   21.2915   -6.2355  -12.4231 C   0  0  0  0  0  0  0  0  0  0  0  0
   21.9144   -6.7015  -11.4264 O   0  0  0  0  0  0  0  0  0  0  0  0
   20.5096   -7.1083  -13.3325 C   0  0  0  0  0  0  0  0  0  0  0  0
   19.5823   -7.9953  -12.5378 C   0  0  2  0  0  0  0  0  0  0  0  0
   18.8199   -8.7809  -13.4766 N   0  0  0  0  0  0  0  0  0  0  0  0
   18.6001   -7.1827  -11.7532 C   0  0  0  0  0  0  0  0  0  0  0  0
   18.9999   -6.4278  -10.8175 O   0  0  0  0  0  0  0  0  0  0  0  0
   15.9412   -4.7661   -8.0325 N   0  0  0  0  0  0  0  0  0  0  0  0
   15.5593   -5.7791   -8.9467 C   0  0  0  0  0  0  0  0  0  0  0  0
   14.3290   -6.0596   -9.0964 O   0  0  0  0  0  0  0  0  0  0  0  0
   16.6141   -6.4853   -9.7059 C   0  0  0  0  0  0  0  0  0  0  0  0
   16.2891   -6.4261  -11.1760 C   0  0  2  0  0  0  0  0  0  0  0  0
   17.2040   -7.1883  -11.9790 N   0  0  0  0  0  0  0  0  0  0  0  0
   16.3693   -4.9694  -11.5553 C   0  0  0  0  0  0  0  0  0  0  0  0
   17.4520   -4.4160  -11.8347 O   0  0  0  0  0  0  0  0  0  0  0  0
   15.2048   -4.2300  -11.5925 O   0  0  0  0  0  0  0  0  0  0  0  0
  2  1  1  1
  3  2  1  0
  4  3  1  0
  5  4  1  0
  5  6  2  0
  7  2  1  0
  7  8  2  0
  9  5  1  0
 10 11  1  0
 11 13  1  0
 12 11  2  0
 14 13  1  6
 14 15  1  0
 15  7  1  0
 16 14  1  0
 17 16  2  0
 19 21  1  0
 19 18  1  0
 20 19  2  0
 22 23  1  0
 22 21  1  1
 23 16  1  0
 24 22  1  0
 25 24  2  0
 26 24  1  0
M  END
$$$$
