ENN.pdb
     RDKit          3D

 26 25  0  0  1  0  0  0  0  0999 V2000
   18.0760  -10.8551  -15.6288 N   0  0  0  0  0  0  0  0  0  0  0  0
   18.8412  -10.0835  -14.6354 C   0  0  1  0  0  0  0  0  0  0  0  0
   19.9650   -9.3636  -15.3037 C   0  0  0  0  0  0  0  0  0  0  0  0
   19.4678   -8.4948  -16.4185 C   0  0  0  0  0  0  0  0  0  0  0  0
   19.7495   -7.0560  -16.1693 C   0  0  0  0  0  0  0  0  0  0  0  0
   20.8394   -6.5994  -15.7659 O   0  0  0  0  0  0  0  0  0  0  0  0
   17.8720   -9.2102  -13.9314 C   0  0  0  0  0  0  0  0  0  0  0  0
   16.7146   -8.9570  -14.4130 O   0  0  0  0  0  0  0  0  0  0  0  0
   18.7458   -6.0973  -16.3894 O   0  0  0  0  0  0  0  0  0  0  0  0
   15.5761   -6.2968  -10.3831 N   0  0  0  0  0  0  0  0  0  0  0  0
   16.7082   -6.9095   -9.7917 C   0  0  0  0  0  0  0  0  0  0  0  0
   16.8957   -6.6422   -8.5702 O   0  0  0  0  0  0  0  0  0  0  0  0
   17.6203   -7.8060  -10.5433 C   0  0  0  0  0  0  0  0  0  0  0  0
   17.2754   -7.7914  -12.0125 C   0  0  2  0  0  0  0  0  0  0  0  0
   18.2267   -8.6357  -12.6919 N   0  0  0  0  0  0  0  0  0  0  0  0
   17.4256   -6.4176  -12.5879 C   0  0  0  0  0  0  0  0  0  0  0  0
   18.5779   -5.9511  -12.8328 O   0  0  0  0  0  0  0  0  0  0  0  0
   17.4537   -2.5018  -16.1076 N   0  0  0  0  0  0  0  0  0  0  0  0
   16.2410   -2.8795  -15.4797 C   0  0  0  0  0  0  0  0  0  0  0  0
   15.2957   -2.0361  -15.3792 O   0  0  0  0  0  0  0  0  0  0  0  0
   16.1111   -4.2565  -14.9557 C   0  0  0  0  0  0  0  0  0  0  0  0
   16.5243   -4.2754  -13.5068 C   0  0  2  0  0  0  0  0  0  0  0  0
   16.3425   -5.5612  -12.8933 N   0  0  0  0  0  0  0  0  0  0  0  0
   15.6542   -3.2545  -12.8190 C   0  0  0  0  0  0  0  0  0  0  0  0
   14.5105   -3.5306  -12.4039 O   0  0  0  0  0  0  0  0  0  0  0  0
   16.1438   -1.9760  -12.6464 O   0  0  0  0  0  0  0  0  0  0  0  0
  2  1  1  6
  3  2  1  0
  4  3  1  0
  5  4  1  0
  5  6  2  0
  7  2  1  0
  7  8  2  0
  9  5  1  0
 10 11  1  0
 11 13  1  0
 12 11  2  0
 14 13  1  1
 14 15  1  0
 15  7  1  0
 16 14  1  0
 17 16  2  0
 19 21  1  0
 19 18  1  0
 20 19  2  0
 22 23  1  0
 22 21  1  6
 23 16  1  0
 24 22  1  0
 25 24  2  0
 26 24  1  0
M  END
$$$$
