ENN.pdb
     RDKit          3D

 26 25  0  0  1  0  0  0  0  0999 V2000
   18.4789  -10.1117  -17.2505 N   0  0  0  0  0  0  0  0  0  0  0  0
   18.0167   -9.8916  -15.8700 C   0  0  1  0  0  0  0  0  0  0  0  0
   17.8749  -11.1994  -15.1646 C   0  0  0  0  0  0  0  0  0  0  0  0
   17.0070  -12.1436  -15.9391 C   0  0  0  0  0  0  0  0  0  0  0  0
   16.7651  -13.4103  -15.1984 C   0  0  0  0  0  0  0  0  0  0  0  0
   15.8322  -13.5998  -14.3903 O   0  0  0  0  0  0  0  0  0  0  0  0
   18.9708   -8.9454  -15.2439 C   0  0  0  0  0  0  0  0  0  0  0  0
   18.8224   -8.5289  -14.0439 O   0  0  0  0  0  0  0  0  0  0  0  0
   17.6232  -14.5070  -15.3870 O   0  0  0  0  0  0  0  0  0  0  0  0
   21.8149   -9.6106  -13.6000 N   0  0  0  0  0  0  0  0  0  0  0  0
   22.7025   -9.2442  -14.6415 C   0  0  0  0  0  0  0  0  0  0  0  0
   23.7743   -9.9121  -14.7032 O   0  0  0  0  0  0  0  0  0  0  0  0
   22.4069   -8.1526  -15.6014 C   0  0  0  0  0  0  0  0  0  0  0  0
   21.0255   -7.5973  -15.3536 C   0  0  2  0  0  0  0  0  0  0  0  0
   20.0797   -8.4839  -15.9853 N   0  0  0  0  0  0  0  0  0  0  0  0
   20.8602   -6.2561  -15.9974 C   0  0  0  0  0  0  0  0  0  0  0  0
   21.5129   -5.9659  -17.0439 O   0  0  0  0  0  0  0  0  0  0  0  0
   18.8326   -2.1485  -17.9297 N   0  0  0  0  0  0  0  0  0  0  0  0
   18.4153   -3.4320  -18.3610 C   0  0  0  0  0  0  0  0  0  0  0  0
   17.7332   -3.5460  -19.4270 O   0  0  0  0  0  0  0  0  0  0  0  0
   18.7901   -4.6107  -17.5500 C   0  0  0  0  0  0  0  0  0  0  0  0
   19.5539   -4.1523  -16.3348 C   0  0  2  0  0  0  0  0  0  0  0  0
   19.9998   -5.2432  -15.5139 N   0  0  0  0  0  0  0  0  0  0  0  0
   18.6003   -3.2836  -15.5547 C   0  0  0  0  0  0  0  0  0  0  0  0
   18.5123   -2.0546  -15.7504 O   0  0  0  0  0  0  0  0  0  0  0  0
   17.8026   -3.8725  -14.5951 O   0  0  0  0  0  0  0  0  0  0  0  0
  2  1  1  6
  3  2  1  0
  4  3  1  0
  5  4  1  0
  5  6  2  0
  7  2  1  0
  7  8  2  0
  9  5  1  0
 10 11  1  0
 11 13  1  0
 12 11  2  0
 14 13  1  6
 14 15  1  0
 15  7  1  0
 16 14  1  0
 17 16  2  0
 19 21  1  0
 19 18  1  0
 20 19  2  0
 22 23  1  0
 22 21  1  6
 23 16  1  0
 24 22  1  0
 25 24  2  0
 26 24  1  0
M  END
$$$$
