ENN.pdb
     RDKit          3D

 26 25  0  0  1  0  0  0  0  0999 V2000
   19.0195  -11.0737  -17.3642 N   0  0  0  0  0  0  0  0  0  0  0  0
   18.5122  -10.7905  -16.0114 C   0  0  1  0  0  0  0  0  0  0  0  0
   18.0446  -12.0531  -15.3670 C   0  0  0  0  0  0  0  0  0  0  0  0
   17.7761  -13.1171  -16.3870 C   0  0  0  0  0  0  0  0  0  0  0  0
   17.2563  -14.3641  -15.7653 C   0  0  0  0  0  0  0  0  0  0  0  0
   16.8045  -14.4506  -14.6045 O   0  0  0  0  0  0  0  0  0  0  0  0
   19.5951  -10.0840  -15.2863 C   0  0  0  0  0  0  0  0  0  0  0  0
   19.5056   -9.8032  -14.0419 O   0  0  0  0  0  0  0  0  0  0  0  0
   17.2517  -15.5630  -16.4984 O   0  0  0  0  0  0  0  0  0  0  0  0
   23.9298  -11.8879  -15.8482 N   0  0  0  0  0  0  0  0  0  0  0  0
   23.5555  -10.7189  -15.1409 C   0  0  0  0  0  0  0  0  0  0  0  0
   23.6073  -10.8055  -13.8805 O   0  0  0  0  0  0  0  0  0  0  0  0
   23.1292   -9.4712  -15.8205 C   0  0  0  0  0  0  0  0  0  0  0  0
   21.8042   -9.0020  -15.2707 C   0  0  2  0  0  0  0  0  0  0  0  0
   20.7643   -9.7053  -15.9804 N   0  0  0  0  0  0  0  0  0  0  0  0
   21.5982   -7.5427  -15.5328 C   0  0  0  0  0  0  0  0  0  0  0  0
   21.7715   -7.0728  -16.6966 O   0  0  0  0  0  0  0  0  0  0  0  0
   17.8945   -4.1321  -15.8188 N   0  0  0  0  0  0  0  0  0  0  0  0
   18.6974   -5.0828  -15.1412 C   0  0  0  0  0  0  0  0  0  0  0  0
   18.4401   -6.3215  -15.2595 O   0  0  0  0  0  0  0  0  0  0  0  0
   19.8210   -4.5998  -14.3094 C   0  0  0  0  0  0  0  0  0  0  0  0
   21.1064   -5.1988  -14.8183 C   0  0  2  0  0  0  0  0  0  0  0  0
   21.2102   -6.6055  -14.5474 N   0  0  0  0  0  0  0  0  0  0  0  0
   22.2123   -4.4599  -14.1088 C   0  0  0  0  0  0  0  0  0  0  0  0
   22.4573   -3.2576  -14.3349 O   0  0  0  0  0  0  0  0  0  0  0  0
   22.9742   -5.1405  -13.1812 O   0  0  0  0  0  0  0  0  0  0  0  0
  2  1  1  6
  3  2  1  0
  4  3  1  0
  5  4  1  0
  5  6  2  0
  7  2  1  0
  7  8  2  0
  9  5  1  0
 10 11  1  0
 11 13  1  0
 12 11  2  0
 14 13  1  6
 14 15  1  0
 15  7  1  0
 16 14  1  0
 17 16  2  0
 19 21  1  0
 19 18  1  0
 20 19  2  0
 22 23  1  0
 22 21  1  1
 23 16  1  0
 24 22  1  0
 25 24  2  0
 26 24  1  0
M  END
$$$$
