ENN.pdb
     RDKit          3D

 26 25  0  0  1  0  0  0  0  0999 V2000
   17.5853  -11.3477  -15.9040 N   0  0  0  0  0  0  0  0  0  0  0  0
   18.3176  -10.3853  -16.7439 C   0  0  1  0  0  0  0  0  0  0  0  0
   17.5987  -10.1854  -18.0365 C   0  0  0  0  0  0  0  0  0  0  0  0
   17.6399  -11.4238  -18.8788 C   0  0  0  0  0  0  0  0  0  0  0  0
   16.9185  -11.2439  -20.1668 C   0  0  0  0  0  0  0  0  0  0  0  0
   15.8299  -11.7816  -20.4585 O   0  0  0  0  0  0  0  0  0  0  0  0
   18.4962   -9.1572  -15.9330 C   0  0  0  0  0  0  0  0  0  0  0  0
   17.6090   -8.7595  -15.1022 O   0  0  0  0  0  0  0  0  0  0  0  0
   17.4615  -10.4162  -21.1642 O   0  0  0  0  0  0  0  0  0  0  0  0
   19.6371   -8.4244  -12.7322 N   0  0  0  0  0  0  0  0  0  0  0  0
   20.9336   -8.1157  -13.2125 C   0  0  0  0  0  0  0  0  0  0  0  0
   21.8899   -8.4794  -12.4698 O   0  0  0  0  0  0  0  0  0  0  0  0
   21.1674   -7.4133  -14.4980 C   0  0  0  0  0  0  0  0  0  0  0  0
   19.8660   -7.2347  -15.2412 C   0  0  2  0  0  0  0  0  0  0  0  0
   19.6767   -8.3966  -16.0741 N   0  0  0  0  0  0  0  0  0  0  0  0
   19.9251   -6.0505  -16.1549 C   0  0  0  0  0  0  0  0  0  0  0  0
   20.5585   -6.1207  -17.2501 O   0  0  0  0  0  0  0  0  0  0  0  0
   19.5522   -1.6635  -18.5003 N   0  0  0  0  0  0  0  0  0  0  0  0
   18.2344   -2.0919  -18.2041 C   0  0  0  0  0  0  0  0  0  0  0  0
   17.2459   -1.5059  -18.7465 O   0  0  0  0  0  0  0  0  0  0  0  0
   18.0481   -3.2185  -17.2641 C   0  0  0  0  0  0  0  0  0  0  0  0
   19.3962   -3.6903  -16.7841 C   0  0  2  0  0  0  0  0  0  0  0  0
   19.3070   -4.8074  -15.8857 N   0  0  0  0  0  0  0  0  0  0  0  0
   20.0136   -2.5127  -16.0739 C   0  0  0  0  0  0  0  0  0  0  0  0
   20.0252   -2.4209  -14.8297 O   0  0  0  0  0  0  0  0  0  0  0  0
   20.5820   -1.5077  -16.8295 O   0  0  0  0  0  0  0  0  0  0  0  0
  2  1  1  1
  3  2  1  0
  4  3  1  0
  5  4  1  0
  5  6  2  0
  7  2  1  0
  7  8  2  0
  9  5  1  0
 10 11  1  0
 11 13  1  0
 12 11  2  0
 14 13  1  6
 14 15  1  0
 15  7  1  0
 16 14  1  0
 17 16  2  0
 19 21  1  0
 19 18  1  0
 20 19  2  0
 22 23  1  0
 22 21  1  1
 23 16  1  0
 24 22  1  0
 25 24  2  0
 26 24  1  0
M  END
$$$$
