ENN.pdb
     RDKit          3D

 26 25  0  0  1  0  0  0  0  0999 V2000
   28.8547   -9.5927  -18.7509 N   0  0  0  0  0  0  0  0  0  0  0  0
   27.5950   -9.1341  -19.3595 C   0  0  1  0  0  0  0  0  0  0  0  0
   27.4894   -9.6424  -20.7589 C   0  0  0  0  0  0  0  0  0  0  0  0
   28.8212   -9.6267  -21.4450 C   0  0  0  0  0  0  0  0  0  0  0  0
   28.7632  -10.2685  -22.7853 C   0  0  0  0  0  0  0  0  0  0  0  0
   28.1989   -9.7828  -23.7877 O   0  0  0  0  0  0  0  0  0  0  0  0
   26.5009   -9.5630  -18.4558 C   0  0  0  0  0  0  0  0  0  0  0  0
   25.4824  -10.2071  -18.8839 O   0  0  0  0  0  0  0  0  0  0  0  0
   29.3745  -11.5171  -22.9911 O   0  0  0  0  0  0  0  0  0  0  0  0
   27.8117  -12.4680  -15.5675 N   0  0  0  0  0  0  0  0  0  0  0  0
   26.5095  -11.9122  -15.6105 C   0  0  0  0  0  0  0  0  0  0  0  0
   25.6156  -12.6579  -16.1039 O   0  0  0  0  0  0  0  0  0  0  0  0
   26.2018  -10.5486  -15.1143 C   0  0  0  0  0  0  0  0  0  0  0  0
   25.5389   -9.7341  -16.1983 C   0  0  2  0  0  0  0  0  0  0  0  0
   26.5753   -9.2566  -17.0801 N   0  0  0  0  0  0  0  0  0  0  0  0
   24.8633   -8.5261  -15.6281 C   0  0  0  0  0  0  0  0  0  0  0  0
   25.5522   -7.5609  -15.1821 O   0  0  0  0  0  0  0  0  0  0  0  0
   22.8658   -4.4587  -13.7283 N   0  0  0  0  0  0  0  0  0  0  0  0
   22.5203   -4.7909  -15.0618 C   0  0  0  0  0  0  0  0  0  0  0  0
   21.6411   -4.1063  -15.6726 O   0  0  0  0  0  0  0  0  0  0  0  0
   23.2000   -5.9345  -15.7079 C   0  0  0  0  0  0  0  0  0  0  0  0
   22.8505   -7.1998  -14.9682 C   0  0  2  0  0  0  0  0  0  0  0  0
   23.4608   -8.3664  -15.5422 N   0  0  0  0  0  0  0  0  0  0  0  0
   21.3498   -7.3189  -15.0459 C   0  0  0  0  0  0  0  0  0  0  0  0
   20.7861   -8.0648  -15.8719 O   0  0  0  0  0  0  0  0  0  0  0  0
   20.5808   -6.5764  -14.1731 O   0  0  0  0  0  0  0  0  0  0  0  0
  2  1  1  1
  3  2  1  0
  4  3  1  0
  5  4  1  0
  5  6  2  0
  7  2  1  0
  7  8  2  0
  9  5  1  0
 10 11  1  0
 11 13  1  0
 12 11  2  0
 14 13  1  1
 14 15  1  0
 15  7  1  0
 16 14  1  0
 17 16  2  0
 19 21  1  0
 19 18  1  0
 20 19  2  0
 22 23  1  0
 22 21  1  6
 23 16  1  0
 24 22  1  0
 25 24  2  0
 26 24  1  0
M  END
$$$$
