ENN.pdb
     RDKit          3D

 26 25  0  0  1  0  0  0  0  0999 V2000
   17.2527  -11.1106  -14.8282 N   0  0  0  0  0  0  0  0  0  0  0  0
   17.7068  -11.0277  -16.2263 C   0  0  1  0  0  0  0  0  0  0  0  0
   16.6883  -11.6379  -17.1309 C   0  0  0  0  0  0  0  0  0  0  0  0
   15.7558  -12.5334  -16.3739 C   0  0  0  0  0  0  0  0  0  0  0  0
   14.7345  -13.1500  -17.2620 C   0  0  0  0  0  0  0  0  0  0  0  0
   13.5157  -13.2304  -17.0030 O   0  0  0  0  0  0  0  0  0  0  0  0
   18.0061   -9.6011  -16.4963 C   0  0  0  0  0  0  0  0  0  0  0  0
   18.3890   -9.1955  -17.6471 O   0  0  0  0  0  0  0  0  0  0  0  0
   15.1196  -13.6982  -18.4973 O   0  0  0  0  0  0  0  0  0  0  0  0
   16.6266   -4.2454  -16.4517 N   0  0  0  0  0  0  0  0  0  0  0  0
   17.1217   -5.0336  -15.3838 C   0  0  0  0  0  0  0  0  0  0  0  0
   17.7908   -4.4092  -14.5114 O   0  0  0  0  0  0  0  0  0  0  0  0
   16.8792   -6.4936  -15.2838 C   0  0  0  0  0  0  0  0  0  0  0  0
   18.0939   -7.2591  -15.7490 C   0  0  2  0  0  0  0  0  0  0  0  0
   17.8675   -8.6535  -15.4594 N   0  0  0  0  0  0  0  0  0  0  0  0
   19.3143   -6.8496  -14.9851 C   0  0  0  0  0  0  0  0  0  0  0  0
   19.4707   -7.2232  -13.7846 O   0  0  0  0  0  0  0  0  0  0  0  0
   22.2690   -8.2706  -15.2306 N   0  0  0  0  0  0  0  0  0  0  0  0
   23.1438   -7.2951  -15.7696 C   0  0  0  0  0  0  0  0  0  0  0  0
   24.2038   -7.6623  -16.3665 O   0  0  0  0  0  0  0  0  0  0  0  0
   22.7932   -5.8660  -15.6198 C   0  0  0  0  0  0  0  0  0  0  0  0
   21.5481   -5.7477  -14.7795 C   0  0  2  0  0  0  0  0  0  0  0  0
   20.3507   -6.0460  -15.5144 N   0  0  0  0  0  0  0  0  0  0  0  0
   21.5104   -4.3186  -14.3015 C   0  0  0  0  0  0  0  0  0  0  0  0
   20.9336   -3.4193  -14.9459 O   0  0  0  0  0  0  0  0  0  0  0  0
   22.1358   -4.0014  -13.1131 O   0  0  0  0  0  0  0  0  0  0  0  0
  2  1  1  1
  3  2  1  0
  4  3  1  0
  5  4  1  0
  5  6  2  0
  7  2  1  0
  7  8  2  0
  9  5  1  0
 10 11  1  0
 11 13  1  0
 12 11  2  0
 14 13  1  1
 14 15  1  0
 15  7  1  0
 16 14  1  0
 17 16  2  0
 19 21  1  0
 19 18  1  0
 20 19  2  0
 22 23  1  0
 22 21  1  6
 23 16  1  0
 24 22  1  0
 25 24  2  0
 26 24  1  0
M  END
$$$$
