ENN.pdb
     RDKit          3D

 26 25  0  0  1  0  0  0  0  0999 V2000
   13.3167   -9.4264  -12.2378 N   0  0  0  0  0  0  0  0  0  0  0  0
   14.6305   -9.4472  -11.5738 C   0  0  1  0  0  0  0  0  0  0  0  0
   15.6554  -10.0315  -12.4882 C   0  0  0  0  0  0  0  0  0  0  0  0
   15.4212  -11.4956  -12.7026 C   0  0  0  0  0  0  0  0  0  0  0  0
   15.6825  -12.2863  -11.4704 C   0  0  0  0  0  0  0  0  0  0  0  0
   14.9934  -13.2516  -11.0799 O   0  0  0  0  0  0  0  0  0  0  0  0
   14.9087   -8.0604  -11.1298 C   0  0  0  0  0  0  0  0  0  0  0  0
   14.6290   -7.0472  -11.8583 O   0  0  0  0  0  0  0  0  0  0  0  0
   16.7756  -11.9624  -10.6489 O   0  0  0  0  0  0  0  0  0  0  0  0
   13.0727   -6.0544   -8.7409 N   0  0  0  0  0  0  0  0  0  0  0  0
   14.0122   -6.2408   -7.6971 C   0  0  0  0  0  0  0  0  0  0  0  0
   13.5338   -6.2337   -6.5268 O   0  0  0  0  0  0  0  0  0  0  0  0
   15.4619   -6.4321   -7.9464 C   0  0  0  0  0  0  0  0  0  0  0  0
   15.7353   -6.4863   -9.4298 C   0  0  2  0  0  0  0  0  0  0  0  0
   15.4998   -7.8401   -9.8672 N   0  0  0  0  0  0  0  0  0  0  0  0
   17.1701   -6.1780   -9.7250 C   0  0  0  0  0  0  0  0  0  0  0  0
   18.0676   -6.4379   -8.8694 O   0  0  0  0  0  0  0  0  0  0  0  0
   22.0206   -5.9795  -11.1656 N   0  0  0  0  0  0  0  0  0  0  0  0
   21.0507   -6.5767  -12.0085 C   0  0  0  0  0  0  0  0  0  0  0  0
   21.3655   -6.9050  -13.1950 O   0  0  0  0  0  0  0  0  0  0  0  0
   19.6891   -6.8018  -11.4766 C   0  0  0  0  0  0  0  0  0  0  0  0
   19.0210   -5.4707  -11.2481 C   0  0  2  0  0  0  0  0  0  0  0  0
   17.6259   -5.5958  -10.9306 N   0  0  0  0  0  0  0  0  0  0  0  0
   19.1841   -4.7038  -12.5356 C   0  0  0  0  0  0  0  0  0  0  0  0
   20.2820   -4.2278  -12.8888 O   0  0  0  0  0  0  0  0  0  0  0  0
   18.0804   -4.5259  -13.3445 O   0  0  0  0  0  0  0  0  0  0  0  0
  2  1  1  6
  3  2  1  0
  4  3  1  0
  5  4  1  0
  5  6  2  0
  7  2  1  0
  7  8  2  0
  9  5  1  0
 10 11  1  0
 11 13  1  0
 12 11  2  0
 14 13  1  1
 14 15  1  0
 15  7  1  0
 16 14  1  0
 17 16  2  0
 19 21  1  0
 19 18  1  0
 20 19  2  0
 22 23  1  0
 22 21  1  6
 23 16  1  0
 24 22  1  0
 25 24  2  0
 26 24  1  0
M  END
$$$$
