ENN.pdb
     RDKit          3D

 26 25  0  0  1  0  0  0  0  0999 V2000
   12.6273  -10.6306  -10.5809 N   0  0  0  0  0  0  0  0  0  0  0  0
   14.0733  -10.4672  -10.8050 C   0  0  1  0  0  0  0  0  0  0  0  0
   14.4820  -11.1872  -12.0469 C   0  0  0  0  0  0  0  0  0  0  0  0
   14.4077  -12.6724  -11.8637 C   0  0  0  0  0  0  0  0  0  0  0  0
   15.7469  -13.2689  -11.6136 C   0  0  0  0  0  0  0  0  0  0  0  0
   16.8177  -12.6286  -11.5643 O   0  0  0  0  0  0  0  0  0  0  0  0
   14.3444   -9.0097  -10.8111 C   0  0  0  0  0  0  0  0  0  0  0  0
   13.4614   -8.1583  -11.1728 O   0  0  0  0  0  0  0  0  0  0  0  0
   15.8700  -14.6541  -11.4114 O   0  0  0  0  0  0  0  0  0  0  0  0
   15.0764   -7.7461   -6.9645 N   0  0  0  0  0  0  0  0  0  0  0  0
   15.2181   -6.7810   -7.9917 C   0  0  0  0  0  0  0  0  0  0  0  0
   14.3154   -5.8969   -8.0360 O   0  0  0  0  0  0  0  0  0  0  0  0
   16.3444   -6.7954   -8.9570 C   0  0  0  0  0  0  0  0  0  0  0  0
   15.8412   -7.1144  -10.3438 C   0  0  2  0  0  0  0  0  0  0  0  0
   15.6115   -8.5367  -10.4075 N   0  0  0  0  0  0  0  0  0  0  0  0
   16.8743   -6.7947  -11.3788 C   0  0  0  0  0  0  0  0  0  0  0  0
   18.0550   -7.2385  -11.2601 O   0  0  0  0  0  0  0  0  0  0  0  0
   16.2869   -8.3804  -15.1349 N   0  0  0  0  0  0  0  0  0  0  0  0
   17.4619   -7.6609  -14.8046 C   0  0  0  0  0  0  0  0  0  0  0  0
   18.5179   -8.2927  -14.4875 O   0  0  0  0  0  0  0  0  0  0  0  0
   17.4232   -6.1828  -14.8395 C   0  0  0  0  0  0  0  0  0  0  0  0
   17.6700   -5.6486  -13.4524 C   0  0  2  0  0  0  0  0  0  0  0  0
   16.6314   -6.0047  -12.5264 N   0  0  0  0  0  0  0  0  0  0  0  0
   17.7335   -4.1494  -13.5956 C   0  0  0  0  0  0  0  0  0  0  0  0
   16.8564   -3.4005  -13.1196 O   0  0  0  0  0  0  0  0  0  0  0  0
   18.7977   -3.5940  -14.2761 O   0  0  0  0  0  0  0  0  0  0  0  0
  2  1  1  6
  3  2  1  0
  4  3  1  0
  5  4  1  0
  5  6  2  0
  7  2  1  0
  7  8  2  0
  9  5  1  0
 10 11  1  0
 11 13  1  0
 12 11  2  0
 14 13  1  1
 14 15  1  0
 15  7  1  0
 16 14  1  0
 17 16  2  0
 19 21  1  0
 19 18  1  0
 20 19  2  0
 22 23  1  0
 22 21  1  6
 23 16  1  0
 24 22  1  0
 25 24  2  0
 26 24  1  0
M  END
$$$$
