ENN.pdb
     RDKit          3D

 26 25  0  0  1  0  0  0  0  0999 V2000
   16.2837  -11.1996  -13.4410 N   0  0  0  0  0  0  0  0  0  0  0  0
   17.2597  -10.3865  -12.6967 C   0  0  1  0  0  0  0  0  0  0  0  0
   18.4250  -10.0609  -13.5707 C   0  0  0  0  0  0  0  0  0  0  0  0
   18.1173  -10.3344  -15.0113 C   0  0  0  0  0  0  0  0  0  0  0  0
   18.5172   -9.2026  -15.8893 C   0  0  0  0  0  0  0  0  0  0  0  0
   17.7252   -8.4687  -16.5163 O   0  0  0  0  0  0  0  0  0  0  0  0
   16.5262   -9.2103  -12.1712 C   0  0  0  0  0  0  0  0  0  0  0  0
   15.5050   -8.7262  -12.7699 O   0  0  0  0  0  0  0  0  0  0  0  0
   19.8778   -8.8950  -16.0596 O   0  0  0  0  0  0  0  0  0  0  0  0
   14.7475   -5.5798   -9.0339 N   0  0  0  0  0  0  0  0  0  0  0  0
   15.7040   -6.3445   -8.3218 C   0  0  0  0  0  0  0  0  0  0  0  0
   15.8303   -6.0546   -7.0976 O   0  0  0  0  0  0  0  0  0  0  0  0
   16.5099   -7.4155   -8.9573 C   0  0  0  0  0  0  0  0  0  0  0  0
   16.1940   -7.5042  -10.4305 C   0  0  2  0  0  0  0  0  0  0  0  0
   16.9591   -8.5985  -10.9752 N   0  0  0  0  0  0  0  0  0  0  0  0
   16.6317   -6.2673  -11.1511 C   0  0  0  0  0  0  0  0  0  0  0  0
   17.8636   -6.0456  -11.3475 O   0  0  0  0  0  0  0  0  0  0  0  0
   16.5801   -2.7632  -15.3498 N   0  0  0  0  0  0  0  0  0  0  0  0
   15.7358   -2.5879  -14.2255 C   0  0  0  0  0  0  0  0  0  0  0  0
   15.4309   -1.4144  -13.8451 O   0  0  0  0  0  0  0  0  0  0  0  0
   15.2303   -3.7872  -13.5229 C   0  0  0  0  0  0  0  0  0  0  0  0
   16.1975   -4.1651  -12.4310 C   0  0  2  0  0  0  0  0  0  0  0  0
   15.7469   -5.2841  -11.6516 N   0  0  0  0  0  0  0  0  0  0  0  0
   16.3192   -2.9469  -11.5514 C   0  0  0  0  0  0  0  0  0  0  0  0
   15.5987   -2.7806  -10.5465 O   0  0  0  0  0  0  0  0  0  0  0  0
   17.2589   -1.9892  -11.8735 O   0  0  0  0  0  0  0  0  0  0  0  0
  2  1  1  6
  3  2  1  0
  4  3  1  0
  5  4  1  0
  5  6  2  0
  7  2  1  0
  7  8  2  0
  9  5  1  0
 10 11  1  0
 11 13  1  0
 12 11  2  0
 14 13  1  1
 14 15  1  0
 15  7  1  0
 16 14  1  0
 17 16  2  0
 19 21  1  0
 19 18  1  0
 20 19  2  0
 22 23  1  0
 22 21  1  6
 23 16  1  0
 24 22  1  0
 25 24  2  0
 26 24  1  0
M  END
$$$$
