ENN.pdb
     RDKit          3D

 26 25  0  0  1  0  0  0  0  0999 V2000
   24.5372  -13.2329  -16.9661 N   0  0  0  0  0  0  0  0  0  0  0  0
   25.1260  -13.2638  -15.6170 C   0  0  1  0  0  0  0  0  0  0  0  0
   26.1638  -14.3337  -15.5374 C   0  0  0  0  0  0  0  0  0  0  0  0
   25.7049  -15.5879  -16.2164 C   0  0  0  0  0  0  0  0  0  0  0  0
   26.7389  -16.6558  -16.1686 C   0  0  0  0  0  0  0  0  0  0  0  0
   27.8591  -16.5436  -15.6284 O   0  0  0  0  0  0  0  0  0  0  0  0
   25.6184  -11.8948  -15.3324 C   0  0  0  0  0  0  0  0  0  0  0  0
   26.1063  -11.5735  -14.1947 O   0  0  0  0  0  0  0  0  0  0  0  0
   26.4848  -17.9040  -16.7619 O   0  0  0  0  0  0  0  0  0  0  0  0
   28.7666  -10.7677  -18.0195 N   0  0  0  0  0  0  0  0  0  0  0  0
   28.2539   -9.9291  -16.9994 C   0  0  0  0  0  0  0  0  0  0  0  0
   28.9551   -9.8580  -15.9498 O   0  0  0  0  0  0  0  0  0  0  0  0
   26.9813   -9.1799  -17.1401 C   0  0  0  0  0  0  0  0  0  0  0  0
   26.0175   -9.5754  -16.0481 C   0  0  2  0  0  0  0  0  0  0  0  0
   25.5515  -10.9086  -16.3399 N   0  0  0  0  0  0  0  0  0  0  0  0
   24.8135   -8.6860  -16.0436 C   0  0  0  0  0  0  0  0  0  0  0  0
   24.9488   -7.4296  -15.9518 O   0  0  0  0  0  0  0  0  0  0  0  0
   18.8958   -8.0607  -16.2414 N   0  0  0  0  0  0  0  0  0  0  0  0
   20.1230   -7.7023  -16.8523 C   0  0  0  0  0  0  0  0  0  0  0  0
   20.2728   -6.5313  -17.3226 O   0  0  0  0  0  0  0  0  0  0  0  0
   21.2020   -8.7113  -16.9245 C   0  0  0  0  0  0  0  0  0  0  0  0
   22.3487   -8.2725  -16.0511 C   0  0  2  0  0  0  0  0  0  0  0  0
   23.4813   -9.1514  -16.1370 N   0  0  0  0  0  0  0  0  0  0  0  0
   21.8126   -8.2678  -14.6423 C   0  0  0  0  0  0  0  0  0  0  0  0
   21.8276   -9.2879  -13.9241 O   0  0  0  0  0  0  0  0  0  0  0  0
   21.2897   -7.0950  -14.1369 O   0  0  0  0  0  0  0  0  0  0  0  0
  2  1  1  6
  3  2  1  0
  4  3  1  0
  5  4  1  0
  5  6  2  0
  7  2  1  0
  7  8  2  0
  9  5  1  0
 10 11  1  0
 11 13  1  0
 12 11  2  0
 14 13  1  6
 14 15  1  0
 15  7  1  0
 16 14  1  0
 17 16  2  0
 19 21  1  0
 19 18  1  0
 20 19  2  0
 22 23  1  0
 22 21  1  6
 23 16  1  0
 24 22  1  0
 25 24  2  0
 26 24  1  0
M  END
$$$$
