ENN.pdb
     RDKit          3D

 26 25  0  0  1  0  0  0  0  0999 V2000
   19.5513  -13.7145  -16.8091 N   0  0  0  0  0  0  0  0  0  0  0  0
   19.0100  -12.3462  -16.7564 C   0  0  1  0  0  0  0  0  0  0  0  0
   18.1704  -12.1762  -15.5341 C   0  0  0  0  0  0  0  0  0  0  0  0
   16.9165  -12.9918  -15.6180 C   0  0  0  0  0  0  0  0  0  0  0  0
   16.0043  -12.7275  -14.4736 C   0  0  0  0  0  0  0  0  0  0  0  0
   14.9466  -13.3499  -14.2429 O   0  0  0  0  0  0  0  0  0  0  0  0
   20.1664  -11.4235  -16.8523 C   0  0  0  0  0  0  0  0  0  0  0  0
   21.1766  -11.5209  -16.0743 O   0  0  0  0  0  0  0  0  0  0  0  0
   16.3111  -11.7106  -13.5535 O   0  0  0  0  0  0  0  0  0  0  0  0
   22.5256  -11.1677  -19.6239 N   0  0  0  0  0  0  0  0  0  0  0  0
   22.0509   -9.9281  -20.1188 C   0  0  0  0  0  0  0  0  0  0  0  0
   22.2489   -9.7221  -21.3504 O   0  0  0  0  0  0  0  0  0  0  0  0
   21.3664   -8.9302  -19.2608 C   0  0  0  0  0  0  0  0  0  0  0  0
   21.2441   -9.4497  -17.8490 C   0  0  2  0  0  0  0  0  0  0  0  0
   20.1626  -10.4034  -17.8278 N   0  0  0  0  0  0  0  0  0  0  0  0
   20.8737   -8.3521  -16.9010 C   0  0  0  0  0  0  0  0  0  0  0  0
   19.7017   -7.8709  -16.9086 O   0  0  0  0  0  0  0  0  0  0  0  0
   20.5440   -4.8944  -13.3247 N   0  0  0  0  0  0  0  0  0  0  0  0
   21.7834   -5.5042  -13.0090 C   0  0  0  0  0  0  0  0  0  0  0  0
   22.4185   -5.1371  -11.9714 O   0  0  0  0  0  0  0  0  0  0  0  0
   22.3048   -6.5592  -13.9050 C   0  0  0  0  0  0  0  0  0  0  0  0
   21.3730   -6.7163  -15.0786 C   0  0  2  0  0  0  0  0  0  0  0  0
   21.7611   -7.7835  -15.9579 N   0  0  0  0  0  0  0  0  0  0  0  0
   21.4201   -5.4036  -15.8181 C   0  0  0  0  0  0  0  0  0  0  0  0
   22.2225   -5.1969  -16.7508 O   0  0  0  0  0  0  0  0  0  0  0  0
   20.5456   -4.4029  -15.4466 O   0  0  0  0  0  0  0  0  0  0  0  0
  2  1  1  1
  3  2  1  0
  4  3  1  0
  5  4  1  0
  5  6  2  0
  7  2  1  0
  7  8  2  0
  9  5  1  0
 10 11  1  0
 11 13  1  0
 12 11  2  0
 14 13  1  6
 14 15  1  0
 15  7  1  0
 16 14  1  0
 17 16  2  0
 19 21  1  0
 19 18  1  0
 20 19  2  0
 22 23  1  0
 22 21  1  1
 23 16  1  0
 24 22  1  0
 25 24  2  0
 26 24  1  0
M  END
$$$$
