ENN.pdb
     RDKit          3D

 26 25  0  0  1  0  0  0  0  0999 V2000
   16.1546  -11.7086  -10.4297 N   0  0  0  0  0  0  0  0  0  0  0  0
   15.6098  -11.1126  -11.6609 C   0  0  1  0  0  0  0  0  0  0  0  0
   14.2634  -11.6866  -11.9535 C   0  0  0  0  0  0  0  0  0  0  0  0
   14.3369  -13.1692  -12.1566 C   0  0  0  0  0  0  0  0  0  0  0  0
   12.9895  -13.7730  -12.3344 C   0  0  0  0  0  0  0  0  0  0  0  0
   12.1709  -13.4482  -13.2195 O   0  0  0  0  0  0  0  0  0  0  0  0
   15.6336   -9.6423  -11.4725 C   0  0  0  0  0  0  0  0  0  0  0  0
   15.2132   -8.8374  -12.3730 O   0  0  0  0  0  0  0  0  0  0  0  0
   12.5575  -14.7899  -11.4661 O   0  0  0  0  0  0  0  0  0  0  0  0
   13.3020   -7.6722   -9.7692 N   0  0  0  0  0  0  0  0  0  0  0  0
   14.0966   -7.5147   -8.6071 C   0  0  0  0  0  0  0  0  0  0  0  0
   13.4586   -7.4356   -7.5183 O   0  0  0  0  0  0  0  0  0  0  0  0
   15.5777   -7.4453   -8.6505 C   0  0  0  0  0  0  0  0  0  0  0  0
   16.0717   -7.6785  -10.0574 C   0  0  2  0  0  0  0  0  0  0  0  0
   16.1330   -9.1039  -10.2672 N   0  0  0  0  0  0  0  0  0  0  0  0
   17.4623   -7.1534  -10.2345 C   0  0  0  0  0  0  0  0  0  0  0  0
   18.4154   -7.6272   -9.5472 O   0  0  0  0  0  0  0  0  0  0  0  0
   21.6976   -5.3571  -12.2150 N   0  0  0  0  0  0  0  0  0  0  0  0
   21.2302   -6.6547  -12.5398 C   0  0  0  0  0  0  0  0  0  0  0  0
   21.9792   -7.4478  -13.1915 O   0  0  0  0  0  0  0  0  0  0  0  0
   19.8726   -7.0499  -12.1062 C   0  0  0  0  0  0  0  0  0  0  0  0
   19.1772   -5.8551  -11.5070 C   0  0  2  0  0  0  0  0  0  0  0  0
   17.8151   -6.1288  -11.1432 N   0  0  0  0  0  0  0  0  0  0  0  0
   19.2166   -4.7837  -12.5668 C   0  0  0  0  0  0  0  0  0  0  0  0
   18.3082   -4.6542  -13.4121 O   0  0  0  0  0  0  0  0  0  0  0  0
   20.2943   -3.9225  -12.5976 O   0  0  0  0  0  0  0  0  0  0  0  0
  2  1  1  1
  3  2  1  0
  4  3  1  0
  5  4  1  0
  5  6  2  0
  7  2  1  0
  7  8  2  0
  9  5  1  0
 10 11  1  0
 11 13  1  0
 12 11  2  0
 14 13  1  1
 14 15  1  0
 15  7  1  0
 16 14  1  0
 17 16  2  0
 19 21  1  0
 19 18  1  0
 20 19  2  0
 22 23  1  0
 22 21  1  6
 23 16  1  0
 24 22  1  0
 25 24  2  0
 26 24  1  0
M  END
$$$$
