AWP.pdb
     RDKit          3D

 27 29  0  0  1  0  0  0  0  0999 V2000
    5.6553  -20.0790   23.9158 C   0  0  0  0  0  0  0  0  0  0  0  0
    6.9004  -19.7354   23.1063 C   0  0  2  0  0  0  0  0  0  0  0  0
    8.0775  -19.9816   23.8867 N   0  0  0  0  0  0  0  0  0  0  0  0
    6.7826  -18.2953   22.7514 C   0  0  0  0  0  0  0  0  0  0  0  0
    5.7804  -17.8752   22.1194 O   0  0  0  0  0  0  0  0  0  0  0  0
    7.7790  -17.3312   23.1011 N   0  0  0  0  0  0  0  0  0  0  0  0
    7.7048  -15.9464   22.7172 C   0  0  1  0  0  0  0  0  0  0  0  0
    8.2686  -15.1765   23.8484 C   0  0  0  0  0  0  0  0  0  0  0  0
    7.4218  -14.7396   24.9108 C   0  0  0  0  0  0  0  0  0  0  0  0
    6.5551  -15.5665   25.5970 C   0  0  0  0  0  0  0  0  0  0  0  0
    5.9037  -14.8636   26.5337 N   0  0  0  0  0  0  0  0  0  0  0  0
    6.3104  -13.5828   26.4953 C   0  0  0  0  0  0  0  0  0  0  0  0
    5.9731  -12.4607   27.2208 C   0  0  0  0  0  0  0  0  0  0  0  0
    6.5919  -11.2663   26.9226 C   0  0  0  0  0  0  0  0  0  0  0  0
    7.5385  -11.1955   25.9088 C   0  0  0  0  0  0  0  0  0  0  0  0
    7.8867  -12.3123   25.1729 C   0  0  0  0  0  0  0  0  0  0  0  0
    7.2587  -13.4994   25.4834 C   0  0  0  0  0  0  0  0  0  0  0  0
    8.4263  -15.7774   21.4466 C   0  0  0  0  0  0  0  0  0  0  0  0
    9.0383  -16.8803   21.0681 O   0  0  0  0  0  0  0  0  0  0  0  0
    8.5774  -14.7111   20.6019 N   0  0  0  0  0  0  0  0  0  0  0  0
    8.1550  -13.3341   20.9515 C   0  0  0  0  0  0  0  0  0  0  0  0
    7.9814  -12.5904   19.6767 C   0  0  0  0  0  0  0  0  0  0  0  0
    8.3363  -13.5017   18.5596 C   0  0  0  0  0  0  0  0  0  0  0  0
    9.1187  -14.6131   19.2784 C   0  0  1  0  0  0  0  0  0  0  0  0
   10.5319  -14.1167   19.2935 C   0  0  0  0  0  0  0  0  0  0  0  0
   11.3030  -14.2012   18.1445 O   0  0  0  0  0  0  0  0  0  0  0  0
   11.0599  -13.6181   20.3179 O   0  0  0  0  0  0  0  0  0  0  0  0
  2  1  1  1
  2  3  1  0
  4  2  1  0
  5  4  2  0
  6  4  1  0
  7  6  1  0
  8  9  1  0
  7  8  1  1
  9 17  1  0
 10  9  2  0
 10 11  1  0
 11 12  1  0
 12 13  1  0
 13 14  2  0
 15 14  1  0
 16 15  2  0
 17 12  2  0
 17 16  1  0
 18 20  1  0
 18  7  1  0
 19 18  2  0
 20 21  1  0
 21 22  1  0
 23 22  1  0
 24 23  1  0
 24 20  1  0
 25 26  1  0
 24 25  1  1
 27 25  2  0
M  END
$$$$
