AWP.pdb
     RDKit          3D

 27 29  0  0  1  0  0  0  0  0999 V2000
    8.2671  -17.6878   19.3722 C   0  0  0  0  0  0  0  0  0  0  0  0
    7.4909  -16.4904   19.9086 C   0  0  2  0  0  0  0  0  0  0  0  0
    7.5512  -15.4063   18.9726 N   0  0  0  0  0  0  0  0  0  0  0  0
    8.1325  -16.1222   21.1995 C   0  0  0  0  0  0  0  0  0  0  0  0
    9.0913  -15.3096   21.2251 O   0  0  0  0  0  0  0  0  0  0  0  0
    7.7045  -16.6591   22.4538 N   0  0  0  0  0  0  0  0  0  0  0  0
    8.2790  -16.2708   23.7145 C   0  0  1  0  0  0  0  0  0  0  0  0
    7.1775  -16.3258   24.7015 C   0  0  0  0  0  0  0  0  0  0  0  0
    6.6933  -15.1254   25.3026 C   0  0  0  0  0  0  0  0  0  0  0  0
    5.4008  -14.9569   25.7577 C   0  0  0  0  0  0  0  0  0  0  0  0
    5.2571  -13.7269   26.2698 N   0  0  0  0  0  0  0  0  0  0  0  0
    6.4215  -13.0623   26.1709 C   0  0  0  0  0  0  0  0  0  0  0  0
    6.8210  -11.7941   26.5332 C   0  0  0  0  0  0  0  0  0  0  0  0
    8.1212  -11.4113   26.2857 C   0  0  0  0  0  0  0  0  0  0  0  0
    9.0126  -12.2887   25.6820 C   0  0  0  0  0  0  0  0  0  0  0  0
    8.6263  -13.5634   25.3132 C   0  0  0  0  0  0  0  0  0  0  0  0
    7.3224  -13.9310   25.5675 C   0  0  0  0  0  0  0  0  0  0  0  0
    9.4048  -17.1706   24.0088 C   0  0  0  0  0  0  0  0  0  0  0  0
    9.2167  -18.3816   23.5267 O   0  0  0  0  0  0  0  0  0  0  0  0
   10.5862  -16.9888   24.6753 N   0  0  0  0  0  0  0  0  0  0  0  0
   10.9838  -15.6961   25.2821 C   0  0  0  0  0  0  0  0  0  0  0  0
   12.4619  -15.7177   25.4338 C   0  0  0  0  0  0  0  0  0  0  0  0
   12.9547  -17.0349   24.9579 C   0  0  0  0  0  0  0  0  0  0  0  0
   11.6721  -17.8826   24.9513 C   0  0  1  0  0  0  0  0  0  0  0  0
   11.5921  -18.4387   26.3400 C   0  0  0  0  0  0  0  0  0  0  0  0
   10.4906  -18.1547   27.1323 O   0  0  0  0  0  0  0  0  0  0  0  0
   12.4935  -19.1639   26.8282 O   0  0  0  0  0  0  0  0  0  0  0  0
  2  1  1  6
  2  3  1  0
  4  2  1  0
  5  4  2  0
  6  4  1  0
  7  6  1  0
  8  9  1  0
  7  8  1  1
  9 17  1  0
 10  9  2  0
 10 11  1  0
 11 12  1  0
 12 13  1  0
 13 14  2  0
 15 14  1  0
 16 15  2  0
 17 12  2  0
 17 16  1  0
 18 20  1  0
 18  7  1  0
 19 18  2  0
 20 21  1  0
 21 22  1  0
 23 22  1  0
 24 23  1  0
 24 20  1  0
 25 26  1  0
 24 25  1  1
 27 25  2  0
M  END
$$$$
