AWP.pdb
     RDKit          3D

 27 29  0  0  1  0  0  0  0  0999 V2000
    6.6590  -20.6277   21.8096 C   0  0  0  0  0  0  0  0  0  0  0  0
    6.2005  -20.0207   23.1306 C   0  0  2  0  0  0  0  0  0  0  0  0
    4.8669  -20.4510   23.4327 N   0  0  0  0  0  0  0  0  0  0  0  0
    6.2619  -18.5445   22.9545 C   0  0  0  0  0  0  0  0  0  0  0  0
    5.3376  -17.9353   22.3589 O   0  0  0  0  0  0  0  0  0  0  0  0
    7.3499  -17.7547   23.4415 N   0  0  0  0  0  0  0  0  0  0  0  0
    7.4432  -16.3329   23.2412 C   0  0  1  0  0  0  0  0  0  0  0  0
    8.0182  -15.7800   24.4877 C   0  0  0  0  0  0  0  0  0  0  0  0
    7.2381  -14.9192   25.3166 C   0  0  0  0  0  0  0  0  0  0  0  0
    5.9888  -15.2435   25.8067 C   0  0  0  0  0  0  0  0  0  0  0  0
    5.5176  -14.2339   26.5513 N   0  0  0  0  0  0  0  0  0  0  0  0
    6.4193  -13.2370   26.5751 C   0  0  0  0  0  0  0  0  0  0  0  0
    6.4432  -11.9969   27.1758 C   0  0  0  0  0  0  0  0  0  0  0  0
    7.5485  -11.1938   26.9974 C   0  0  0  0  0  0  0  0  0  0  0  0
    8.6189  -11.6273   26.2259 C   0  0  0  0  0  0  0  0  0  0  0  0
    8.6090  -12.8682   25.6175 C   0  0  0  0  0  0  0  0  0  0  0  0
    7.4961  -13.6595   25.8055 C   0  0  0  0  0  0  0  0  0  0  0  0
    8.2506  -16.0855   22.0368 C   0  0  0  0  0  0  0  0  0  0  0  0
    8.9126  -17.1560   21.6496 O   0  0  0  0  0  0  0  0  0  0  0  0
    8.4385  -14.9748   21.2596 N   0  0  0  0  0  0  0  0  0  0  0  0
    7.9458  -13.6287   21.6369 C   0  0  0  0  0  0  0  0  0  0  0  0
    7.8562  -12.8273   20.3888 C   0  0  0  0  0  0  0  0  0  0  0  0
    8.3313  -13.6718   19.2639 C   0  0  0  0  0  0  0  0  0  0  0  0
    9.0851  -14.7962   19.9929 C   0  0  1  0  0  0  0  0  0  0  0  0
   10.4760  -14.2632   20.1516 C   0  0  0  0  0  0  0  0  0  0  0  0
   10.9608  -13.9722   21.4173 O   0  0  0  0  0  0  0  0  0  0  0  0
   11.2371  -14.0645   19.1728 O   0  0  0  0  0  0  0  0  0  0  0  0
  2  1  1  6
  2  3  1  0
  4  2  1  0
  5  4  2  0
  6  4  1  0
  7  6  1  0
  8  9  1  0
  7  8  1  1
  9 17  1  0
 10  9  2  0
 10 11  1  0
 11 12  1  0
 12 13  1  0
 13 14  2  0
 15 14  1  0
 16 15  2  0
 17 12  2  0
 17 16  1  0
 18 20  1  0
 18  7  1  0
 19 18  2  0
 20 21  1  0
 21 22  1  0
 23 22  1  0
 24 23  1  0
 24 20  1  0
 25 26  1  0
 24 25  1  1
 27 25  2  0
M  END
$$$$
