AWP.pdb
     RDKit          3D

 27 29  0  0  1  0  0  0  0  0999 V2000
    6.0078  -20.9964   22.4719 C   0  0  0  0  0  0  0  0  0  0  0  0
    4.8875  -20.2140   23.1475 C   0  0  2  0  0  0  0  0  0  0  0  0
    3.6710  -20.3548   22.4023 N   0  0  0  0  0  0  0  0  0  0  0  0
    5.3337  -18.7951   23.1847 C   0  0  0  0  0  0  0  0  0  0  0  0
    5.0490  -18.0132   22.2425 O   0  0  0  0  0  0  0  0  0  0  0  0
    6.0933  -18.2541   24.2687 N   0  0  0  0  0  0  0  0  0  0  0  0
    6.5587  -16.8930   24.3028 C   0  0  1  0  0  0  0  0  0  0  0  0
    6.7415  -16.5578   25.7327 C   0  0  0  0  0  0  0  0  0  0  0  0
    7.4655  -15.3863   26.1072 C   0  0  0  0  0  0  0  0  0  0  0  0
    8.8057  -15.3800   26.4384 C   0  0  0  0  0  0  0  0  0  0  0  0
    9.1925  -14.1330   26.7400 N   0  0  0  0  0  0  0  0  0  0  0  0
    8.1452  -13.2985   26.6200 C   0  0  0  0  0  0  0  0  0  0  0  0
    7.9900  -11.9419   26.8064 C   0  0  0  0  0  0  0  0  0  0  0  0
    6.7501  -11.3799   26.5941 C   0  0  0  0  0  0  0  0  0  0  0  0
    5.6764  -12.1675   26.1992 C   0  0  0  0  0  0  0  0  0  0  0  0
    5.8171  -13.5291   26.0084 C   0  0  0  0  0  0  0  0  0  0  0  0
    7.0637  -14.0759   26.2250 C   0  0  0  0  0  0  0  0  0  0  0  0
    7.7845  -16.8009   23.4949 C   0  0  0  0  0  0  0  0  0  0  0  0
    8.4200  -17.9516   23.4169 O   0  0  0  0  0  0  0  0  0  0  0  0
    8.3755  -15.7652   22.8232 N   0  0  0  0  0  0  0  0  0  0  0  0
    8.0108  -14.3451   23.0405 C   0  0  0  0  0  0  0  0  0  0  0  0
    8.4369  -13.5918   21.8326 C   0  0  0  0  0  0  0  0  0  0  0  0
    9.0940  -14.5450   20.9031 C   0  0  0  0  0  0  0  0  0  0  0  0
    9.3993  -15.7405   21.8204 C   0  0  1  0  0  0  0  0  0  0  0  0
   10.7405  -15.4210   22.4062 C   0  0  0  0  0  0  0  0  0  0  0  0
   10.8659  -15.2297   23.7735 O   0  0  0  0  0  0  0  0  0  0  0  0
   11.7754  -15.3170   21.7028 O   0  0  0  0  0  0  0  0  0  0  0  0
  2  1  1  6
  2  3  1  0
  4  2  1  0
  5  4  2  0
  6  4  1  0
  7  6  1  0
  8  9  1  0
  7  8  1  1
  9 17  1  0
 10  9  2  0
 10 11  1  0
 11 12  1  0
 12 13  1  0
 13 14  2  0
 15 14  1  0
 16 15  2  0
 17 12  2  0
 17 16  1  0
 18 20  1  0
 18  7  1  0
 19 18  2  0
 20 21  1  0
 21 22  1  0
 23 22  1  0
 24 23  1  0
 24 20  1  0
 25 26  1  0
 24 25  1  1
 27 25  2  0
M  END
$$$$
