AWP.pdb
     RDKit          3D

 27 29  0  0  1  0  0  0  0  0999 V2000
    5.3422  -20.5949   21.8341 C   0  0  0  0  0  0  0  0  0  0  0  0
    4.4368  -19.8564   22.8132 C   0  0  2  0  0  0  0  0  0  0  0  0
    3.0933  -19.8275   22.3141 N   0  0  0  0  0  0  0  0  0  0  0  0
    4.9928  -18.4822   22.9397 C   0  0  0  0  0  0  0  0  0  0  0  0
    4.6674  -17.5857   22.1207 O   0  0  0  0  0  0  0  0  0  0  0  0
    5.9068  -18.1128   23.9754 N   0  0  0  0  0  0  0  0  0  0  0  0
    6.4511  -16.7876   24.1105 C   0  0  1  0  0  0  0  0  0  0  0  0
    6.8878  -16.6653   25.5192 C   0  0  0  0  0  0  0  0  0  0  0  0
    7.6394  -15.5275   25.9403 C   0  0  0  0  0  0  0  0  0  0  0  0
    9.0067  -15.5330   26.1314 C   0  0  0  0  0  0  0  0  0  0  0  0
    9.4149  -14.3182   26.5228 N   0  0  0  0  0  0  0  0  0  0  0  0
    8.3556  -13.4939   26.6002 C   0  0  0  0  0  0  0  0  0  0  0  0
    8.2121  -12.1673   26.9449 C   0  0  0  0  0  0  0  0  0  0  0  0
    6.9534  -11.6075   26.9216 C   0  0  0  0  0  0  0  0  0  0  0  0
    5.8495  -12.3675   26.5571 C   0  0  0  0  0  0  0  0  0  0  0  0
    5.9781  -13.6988   26.2091 C   0  0  0  0  0  0  0  0  0  0  0  0
    7.2438  -14.2439   26.2374 C   0  0  0  0  0  0  0  0  0  0  0  0
    7.5293  -16.6255   23.1231 C   0  0  0  0  0  0  0  0  0  0  0  0
    8.0420  -17.7791   22.7481 O   0  0  0  0  0  0  0  0  0  0  0  0
    8.0875  -15.5237   22.5336 N   0  0  0  0  0  0  0  0  0  0  0  0
    7.7785  -14.1360   22.9530 C   0  0  0  0  0  0  0  0  0  0  0  0
    8.1200  -13.2457   21.8133 C   0  0  0  0  0  0  0  0  0  0  0  0
    8.6719  -14.0866   20.7211 C   0  0  0  0  0  0  0  0  0  0  0  0
    9.0232  -15.3905   21.4561 C   0  0  1  0  0  0  0  0  0  0  0  0
   10.4167  -15.1655   21.9576 C   0  0  0  0  0  0  0  0  0  0  0  0
   11.4754  -15.1481   21.0627 O   0  0  0  0  0  0  0  0  0  0  0  0
   10.6748  -14.9885   23.1736 O   0  0  0  0  0  0  0  0  0  0  0  0
  2  1  1  6
  2  3  1  0
  4  2  1  0
  5  4  2  0
  6  4  1  0
  7  6  1  0
  8  9  1  0
  7  8  1  1
  9 17  1  0
 10  9  2  0
 10 11  1  0
 11 12  1  0
 12 13  1  0
 13 14  2  0
 15 14  1  0
 16 15  2  0
 17 12  2  0
 17 16  1  0
 18 20  1  0
 18  7  1  0
 19 18  2  0
 20 21  1  0
 21 22  1  0
 23 22  1  0
 24 23  1  0
 24 20  1  0
 25 26  1  0
 24 25  1  1
 27 25  2  0
M  END
$$$$
