AWP.pdb
     RDKit          3D

 27 29  0  0  1  0  0  0  0  0999 V2000
    7.4851  -22.1559   23.3202 C   0  0  0  0  0  0  0  0  0  0  0  0
    6.3883  -21.4575   24.1159 C   0  0  2  0  0  0  0  0  0  0  0  0
    5.1000  -21.9064   23.6757 N   0  0  0  0  0  0  0  0  0  0  0  0
    6.5612  -19.9998   23.8732 C   0  0  0  0  0  0  0  0  0  0  0  0
    6.2013  -19.4887   22.7825 O   0  0  0  0  0  0  0  0  0  0  0  0
    7.1328  -19.1192   24.8440 N   0  0  0  0  0  0  0  0  0  0  0  0
    7.2528  -17.6991   24.6460 C   0  0  1  0  0  0  0  0  0  0  0  0
    7.0499  -17.0810   25.9753 C   0  0  0  0  0  0  0  0  0  0  0  0
    6.6850  -15.7051   26.0777 C   0  0  0  0  0  0  0  0  0  0  0  0
    5.4124  -15.2243   25.8422 C   0  0  0  0  0  0  0  0  0  0  0  0
    5.3889  -13.8965   26.0215 N   0  0  0  0  0  0  0  0  0  0  0  0
    6.6149  -13.4707   26.3722 C   0  0  0  0  0  0  0  0  0  0  0  0
    7.1369  -12.2302   26.6688 C   0  0  0  0  0  0  0  0  0  0  0  0
    8.4710  -12.1328   26.9993 C   0  0  0  0  0  0  0  0  0  0  0  0
    9.2744  -13.2652   27.0327 C   0  0  0  0  0  0  0  0  0  0  0  0
    8.7649  -14.5156   26.7376 C   0  0  0  0  0  0  0  0  0  0  0  0
    7.4287  -14.5962   26.4089 C   0  0  0  0  0  0  0  0  0  0  0  0
    8.5651  -17.4237   24.0412 C   0  0  0  0  0  0  0  0  0  0  0  0
    9.4389  -18.3782   24.2854 O   0  0  0  0  0  0  0  0  0  0  0  0
    9.0380  -16.3835   23.2878 N   0  0  0  0  0  0  0  0  0  0  0  0
    8.3567  -15.0700   23.2016 C   0  0  0  0  0  0  0  0  0  0  0  0
    8.8221  -14.4144   21.9518 C   0  0  0  0  0  0  0  0  0  0  0  0
    9.8127  -15.3100   21.3030 C   0  0  0  0  0  0  0  0  0  0  0  0
   10.1932  -16.2629   22.4480 C   0  0  1  0  0  0  0  0  0  0  0  0
   11.3171  -15.5640   23.1496 C   0  0  0  0  0  0  0  0  0  0  0  0
   12.5696  -15.5097   22.5577 O   0  0  0  0  0  0  0  0  0  0  0  0
   11.1743  -15.0146   24.2696 O   0  0  0  0  0  0  0  0  0  0  0  0
  2  1  1  6
  2  3  1  0
  4  2  1  0
  5  4  2  0
  6  4  1  0
  7  6  1  0
  8  9  1  0
  7  8  1  1
  9 17  1  0
 10  9  2  0
 10 11  1  0
 11 12  1  0
 12 13  1  0
 13 14  2  0
 15 14  1  0
 16 15  2  0
 17 12  2  0
 17 16  1  0
 18 20  1  0
 18  7  1  0
 19 18  2  0
 20 21  1  0
 21 22  1  0
 23 22  1  0
 24 23  1  0
 24 20  1  0
 25 26  1  0
 24 25  1  1
 27 25  2  0
M  END
$$$$
