AWP.pdb
     RDKit          3D

 27 29  0  0  1  0  0  0  0  0999 V2000
    7.7548  -22.0907   23.0772 C   0  0  0  0  0  0  0  0  0  0  0  0
    6.6354  -21.1189   22.7222 C   0  0  2  0  0  0  0  0  0  0  0  0
    6.0788  -21.4555   21.4447 N   0  0  0  0  0  0  0  0  0  0  0  0
    7.2507  -19.7643   22.7002 C   0  0  0  0  0  0  0  0  0  0  0  0
    7.8954  -19.3741   21.6941 O   0  0  0  0  0  0  0  0  0  0  0  0
    7.1456  -18.8521   23.7963 N   0  0  0  0  0  0  0  0  0  0  0  0
    7.6159  -17.4935   23.7388 C   0  0  1  0  0  0  0  0  0  0  0  0
    6.5921  -16.6755   24.4266 C   0  0  0  0  0  0  0  0  0  0  0  0
    6.7429  -15.2587   24.5082 C   0  0  0  0  0  0  0  0  0  0  0  0
    6.5065  -14.3954   23.4570 C   0  0  0  0  0  0  0  0  0  0  0  0
    6.7327  -13.1335   23.8469 N   0  0  0  0  0  0  0  0  0  0  0  0
    7.1158  -13.1253   25.1356 C   0  0  0  0  0  0  0  0  0  0  0  0
    7.4642  -12.1212   26.0129 C   0  0  0  0  0  0  0  0  0  0  0  0
    7.8172  -12.4581   27.3014 C   0  0  0  0  0  0  0  0  0  0  0  0
    7.8214  -13.7861   27.7079 C   0  0  0  0  0  0  0  0  0  0  0  0
    7.4745  -14.8036   26.8392 C   0  0  0  0  0  0  0  0  0  0  0  0
    7.1239  -14.4502   25.5538 C   0  0  0  0  0  0  0  0  0  0  0  0
    8.9516  -17.4380   24.3522 C   0  0  0  0  0  0  0  0  0  0  0  0
    9.0615  -18.2464   25.3860 O   0  0  0  0  0  0  0  0  0  0  0  0
   10.0779  -16.7190   24.0560 N   0  0  0  0  0  0  0  0  0  0  0  0
   10.0580  -15.4805   23.2421 C   0  0  0  0  0  0  0  0  0  0  0  0
   11.4292  -15.2863   22.7031 C   0  0  0  0  0  0  0  0  0  0  0  0
   12.2873  -16.3816   23.2213 C   0  0  0  0  0  0  0  0  0  0  0  0
   11.4554  -16.9229   24.3955 C   0  0  1  0  0  0  0  0  0  0  0  0
   11.8697  -16.0766   25.5602 C   0  0  0  0  0  0  0  0  0  0  0  0
   13.1140  -16.2675   26.1409 O   0  0  0  0  0  0  0  0  0  0  0  0
   11.1282  -15.1858   26.0432 O   0  0  0  0  0  0  0  0  0  0  0  0
  2  1  1  6
  2  3  1  0
  4  2  1  0
  5  4  2  0
  6  4  1  0
  7  6  1  0
  8  9  1  0
  7  8  1  1
  9 17  1  0
 10  9  2  0
 10 11  1  0
 11 12  1  0
 12 13  1  0
 13 14  2  0
 15 14  1  0
 16 15  2  0
 17 12  2  0
 17 16  1  0
 18 20  1  0
 18  7  1  0
 19 18  2  0
 20 21  1  0
 21 22  1  0
 23 22  1  0
 24 23  1  0
 24 20  1  0
 25 26  1  0
 24 25  1  1
 27 25  2  0
M  END
$$$$
