AWP.pdb
     RDKit          3D

 27 29  0  0  1  0  0  0  0  0999 V2000
   12.0765  -17.4346   21.2728 C   0  0  0  0  0  0  0  0  0  0  0  0
   10.6508  -16.9103   21.1451 C   0  0  2  0  0  0  0  0  0  0  0  0
   10.5350  -16.0793   19.9827 N   0  0  0  0  0  0  0  0  0  0  0  0
   10.3779  -16.1380   22.3871 C   0  0  0  0  0  0  0  0  0  0  0  0
   10.7768  -14.9511   22.4996 O   0  0  0  0  0  0  0  0  0  0  0  0
    9.6635  -16.6893   23.4963 N   0  0  0  0  0  0  0  0  0  0  0  0
    9.3012  -15.9237   24.6595 C   0  0  1  0  0  0  0  0  0  0  0  0
    7.9372  -16.3618   25.0304 C   0  0  0  0  0  0  0  0  0  0  0  0
    6.9207  -15.3952   25.2934 C   0  0  0  0  0  0  0  0  0  0  0  0
    5.5890  -15.7071   25.4816 C   0  0  0  0  0  0  0  0  0  0  0  0
    4.8889  -14.5875   25.7103 N   0  0  0  0  0  0  0  0  0  0  0  0
    5.7167  -13.5285   25.6807 C   0  0  0  0  0  0  0  0  0  0  0  0
    5.5266  -12.1740   25.8488 C   0  0  0  0  0  0  0  0  0  0  0  0
    6.6146  -11.3339   25.7540 C   0  0  0  0  0  0  0  0  0  0  0  0
    7.8798  -11.8442   25.4938 C   0  0  0  0  0  0  0  0  0  0  0  0
    8.0856  -13.2001   25.3230 C   0  0  0  0  0  0  0  0  0  0  0  0
    6.9871  -14.0271   25.4207 C   0  0  0  0  0  0  0  0  0  0  0  0
   10.3166  -16.1502   25.6994 C   0  0  0  0  0  0  0  0  0  0  0  0
   11.3074  -16.9068   25.2750 O   0  0  0  0  0  0  0  0  0  0  0  0
   10.4225  -15.7305   26.9978 N   0  0  0  0  0  0  0  0  0  0  0  0
    9.4145  -14.8646   27.6543 C   0  0  0  0  0  0  0  0  0  0  0  0
   10.0832  -14.2075   28.8073 C   0  0  0  0  0  0  0  0  0  0  0  0
   11.4808  -14.7041   28.8735 C   0  0  0  0  0  0  0  0  0  0  0  0
   11.4228  -15.9659   27.9969 C   0  0  1  0  0  0  0  0  0  0  0  0
   11.0148  -17.0527   28.9436 C   0  0  0  0  0  0  0  0  0  0  0  0
    9.7781  -17.6622   28.7992 O   0  0  0  0  0  0  0  0  0  0  0  0
   11.7551  -17.4443   29.8791 O   0  0  0  0  0  0  0  0  0  0  0  0
  2  1  1  1
  2  3  1  0
  4  2  1  0
  5  4  2  0
  6  4  1  0
  7  6  1  0
  8  9  1  0
  7  8  1  1
  9 17  1  0
 10  9  2  0
 10 11  1  0
 11 12  1  0
 12 13  1  0
 13 14  2  0
 15 14  1  0
 16 15  2  0
 17 12  2  0
 17 16  1  0
 18 20  1  0
 18  7  1  0
 19 18  2  0
 20 21  1  0
 21 22  1  0
 23 22  1  0
 24 23  1  0
 24 20  1  0
 25 26  1  0
 24 25  1  1
 27 25  2  0
M  END
$$$$
