AWP.pdb
     RDKit          3D

 27 29  0  0  1  0  0  0  0  0999 V2000
    6.5087  -21.2693   22.3022 C   0  0  0  0  0  0  0  0  0  0  0  0
    5.7465  -20.8284   23.5465 C   0  0  2  0  0  0  0  0  0  0  0  0
    4.3848  -21.2701   23.4711 N   0  0  0  0  0  0  0  0  0  0  0  0
    5.8285  -19.3432   23.5810 C   0  0  0  0  0  0  0  0  0  0  0  0
    5.1480  -18.6492   22.7838 O   0  0  0  0  0  0  0  0  0  0  0  0
    6.6660  -18.6386   24.5012 N   0  0  0  0  0  0  0  0  0  0  0  0
    6.8447  -17.2112   24.4702 C   0  0  1  0  0  0  0  0  0  0  0  0
    7.0378  -16.7914   25.8762 C   0  0  0  0  0  0  0  0  0  0  0  0
    7.0993  -15.4048   26.2081 C   0  0  0  0  0  0  0  0  0  0  0  0
    6.0262  -14.5409   26.1174 C   0  0  0  0  0  0  0  0  0  0  0  0
    6.3997  -13.3120   26.4996 N   0  0  0  0  0  0  0  0  0  0  0  0
    7.6987  -13.3268   26.8459 C   0  0  0  0  0  0  0  0  0  0  0  0
    8.5677  -12.3590   27.3014 C   0  0  0  0  0  0  0  0  0  0  0  0
    9.8719  -12.7115   27.5715 C   0  0  0  0  0  0  0  0  0  0  0  0
   10.3022  -14.0192   27.3877 C   0  0  0  0  0  0  0  0  0  0  0  0
    9.4423  -15.0002   26.9315 C   0  0  0  0  0  0  0  0  0  0  0  0
    8.1409  -14.6315   26.6658 C   0  0  0  0  0  0  0  0  0  0  0  0
    7.9768  -16.9039   23.5828 C   0  0  0  0  0  0  0  0  0  0  0  0
    8.8083  -17.9181   23.4630 O   0  0  0  0  0  0  0  0  0  0  0  0
    8.3205  -15.7853   22.8731 N   0  0  0  0  0  0  0  0  0  0  0  0
    7.7390  -14.4477   23.1370 C   0  0  0  0  0  0  0  0  0  0  0  0
    7.9219  -13.6377   21.9046 C   0  0  0  0  0  0  0  0  0  0  0  0
    8.6477  -14.4684   20.9108 C   0  0  0  0  0  0  0  0  0  0  0  0
    9.2326  -15.5899   21.7849 C   0  0  1  0  0  0  0  0  0  0  0  0
   10.5457  -15.0429   22.2544 C   0  0  0  0  0  0  0  0  0  0  0  0
   10.7494  -14.8079   23.6054 O   0  0  0  0  0  0  0  0  0  0  0  0
   11.4878  -14.7829   21.4660 O   0  0  0  0  0  0  0  0  0  0  0  0
  2  1  1  6
  2  3  1  0
  4  2  1  0
  5  4  2  0
  6  4  1  0
  7  6  1  0
  8  9  1  0
  7  8  1  1
  9 17  1  0
 10  9  2  0
 10 11  1  0
 11 12  1  0
 12 13  1  0
 13 14  2  0
 15 14  1  0
 16 15  2  0
 17 12  2  0
 17 16  1  0
 18 20  1  0
 18  7  1  0
 19 18  2  0
 20 21  1  0
 21 22  1  0
 23 22  1  0
 24 23  1  0
 24 20  1  0
 25 26  1  0
 24 25  1  1
 27 25  2  0
M  END
$$$$
