AWP.pdb
     RDKit          3D

 27 29  0  0  1  0  0  0  0  0999 V2000
    7.0811  -21.6963   22.7902 C   0  0  0  0  0  0  0  0  0  0  0  0
    6.0629  -21.0860   23.7465 C   0  0  2  0  0  0  0  0  0  0  0  0
    4.7486  -21.5689   23.4389 N   0  0  0  0  0  0  0  0  0  0  0  0
    6.1504  -19.6121   23.5634 C   0  0  0  0  0  0  0  0  0  0  0  0
    5.4682  -19.0390   22.6765 O   0  0  0  0  0  0  0  0  0  0  0  0
    6.9952  -18.7843   24.3669 N   0  0  0  0  0  0  0  0  0  0  0  0
    7.0232  -17.3495   24.2619 C   0  0  1  0  0  0  0  0  0  0  0  0
    7.2190  -16.8413   25.6380 C   0  0  0  0  0  0  0  0  0  0  0  0
    6.7511  -15.5412   25.9952 C   0  0  0  0  0  0  0  0  0  0  0  0
    5.4179  -15.2139   26.1420 C   0  0  0  0  0  0  0  0  0  0  0  0
    5.3027  -13.9231   26.4829 N   0  0  0  0  0  0  0  0  0  0  0  0
    6.5261  -13.3724   26.5695 C   0  0  0  0  0  0  0  0  0  0  0  0
    6.9742  -12.1062   26.8777 C   0  0  0  0  0  0  0  0  0  0  0  0
    8.3304  -11.8634   26.8780 C   0  0  0  0  0  0  0  0  0  0  0  0
    9.2291  -12.8774   26.5728 C   0  0  0  0  0  0  0  0  0  0  0  0
    8.7944  -14.1519   26.2617 C   0  0  0  0  0  0  0  0  0  0  0  0
    7.4347  -14.3786   26.2658 C   0  0  0  0  0  0  0  0  0  0  0  0
    8.0865  -16.9735   23.3176 C   0  0  0  0  0  0  0  0  0  0  0  0
    8.9909  -17.9207   23.1793 O   0  0  0  0  0  0  0  0  0  0  0  0
    8.3071  -15.8476   22.5714 N   0  0  0  0  0  0  0  0  0  0  0  0
    7.5810  -14.5743   22.7915 C   0  0  0  0  0  0  0  0  0  0  0  0
    7.6774  -13.7898   21.5331 C   0  0  0  0  0  0  0  0  0  0  0  0
    8.4934  -14.5675   20.5667 C   0  0  0  0  0  0  0  0  0  0  0  0
    9.1955  -15.5886   21.4768 C   0  0  1  0  0  0  0  0  0  0  0  0
   10.4390  -14.8853   21.9275 C   0  0  0  0  0  0  0  0  0  0  0  0
   11.4936  -14.7183   21.0433 O   0  0  0  0  0  0  0  0  0  0  0  0
   10.5723  -14.4314   23.0906 O   0  0  0  0  0  0  0  0  0  0  0  0
  2  1  1  6
  2  3  1  0
  4  2  1  0
  5  4  2  0
  6  4  1  0
  7  6  1  0
  8  9  1  0
  7  8  1  1
  9 17  1  0
 10  9  2  0
 10 11  1  0
 11 12  1  0
 12 13  1  0
 13 14  2  0
 15 14  1  0
 16 15  2  0
 17 12  2  0
 17 16  1  0
 18 20  1  0
 18  7  1  0
 19 18  2  0
 20 21  1  0
 21 22  1  0
 23 22  1  0
 24 23  1  0
 24 20  1  0
 25 26  1  0
 24 25  1  1
 27 25  2  0
M  END
$$$$
