AWP.pdb
     RDKit          3D

 27 29  0  0  1  0  0  0  0  0999 V2000
    4.2048  -21.1783   23.3522 C   0  0  0  0  0  0  0  0  0  0  0  0
    5.6695  -20.8330   23.1093 C   0  0  2  0  0  0  0  0  0  0  0  0
    6.4962  -21.4853   24.0819 N   0  0  0  0  0  0  0  0  0  0  0  0
    5.7730  -19.3530   23.2219 C   0  0  0  0  0  0  0  0  0  0  0  0
    5.1096  -18.6081   22.4568 O   0  0  0  0  0  0  0  0  0  0  0  0
    6.6130  -18.7101   24.1841 N   0  0  0  0  0  0  0  0  0  0  0  0
    6.7992  -17.2844   24.2401 C   0  0  1  0  0  0  0  0  0  0  0  0
    7.0044  -16.9533   25.6679 C   0  0  0  0  0  0  0  0  0  0  0  0
    6.8989  -15.6013   26.1124 C   0  0  0  0  0  0  0  0  0  0  0  0
    5.7033  -14.9247   26.2493 C   0  0  0  0  0  0  0  0  0  0  0  0
    5.9345  -13.6792   26.6861 N   0  0  0  0  0  0  0  0  0  0  0  0
    7.2572  -13.4999   26.8470 C   0  0  0  0  0  0  0  0  0  0  0  0
    8.0237  -12.4332   27.2641 C   0  0  0  0  0  0  0  0  0  0  0  0
    9.3925  -12.5802   27.3186 C   0  0  0  0  0  0  0  0  0  0  0  0
    9.9882  -13.7823   26.9594 C   0  0  0  0  0  0  0  0  0  0  0  0
    9.2324  -14.8604   26.5392 C   0  0  0  0  0  0  0  0  0  0  0  0
    7.8646  -14.6973   26.4901 C   0  0  0  0  0  0  0  0  0  0  0  0
    7.9267  -16.9284   23.3650 C   0  0  0  0  0  0  0  0  0  0  0  0
    8.7981  -17.9088   23.2479 O   0  0  0  0  0  0  0  0  0  0  0  0
    8.2331  -15.7934   22.6644 N   0  0  0  0  0  0  0  0  0  0  0  0
    7.5857  -14.4845   22.9186 C   0  0  0  0  0  0  0  0  0  0  0  0
    7.7562  -13.6638   21.6916 C   0  0  0  0  0  0  0  0  0  0  0  0
    8.5393  -14.4577   20.7114 C   0  0  0  0  0  0  0  0  0  0  0  0
    9.1571  -15.5536   21.5953 C   0  0  1  0  0  0  0  0  0  0  0  0
   10.4340  -14.9484   22.0924 C   0  0  0  0  0  0  0  0  0  0  0  0
   10.5634  -14.6201   23.4330 O   0  0  0  0  0  0  0  0  0  0  0  0
   11.4107  -14.7208   21.3367 O   0  0  0  0  0  0  0  0  0  0  0  0
  2  1  1  1
  2  3  1  0
  4  2  1  0
  5  4  2  0
  6  4  1  0
  7  6  1  0
  8  9  1  0
  7  8  1  1
  9 17  1  0
 10  9  2  0
 10 11  1  0
 11 12  1  0
 12 13  1  0
 13 14  2  0
 15 14  1  0
 16 15  2  0
 17 12  2  0
 17 16  1  0
 18 20  1  0
 18  7  1  0
 19 18  2  0
 20 21  1  0
 21 22  1  0
 23 22  1  0
 24 23  1  0
 24 20  1  0
 25 26  1  0
 24 25  1  1
 27 25  2  0
M  END
$$$$
