AWP.pdb
     RDKit          3D

 27 29  0  0  1  0  0  0  0  0999 V2000
   12.6059  -18.2679   21.5789 C   0  0  0  0  0  0  0  0  0  0  0  0
   11.8263  -17.0993   20.9870 C   0  0  2  0  0  0  0  0  0  0  0  0
   12.6649  -16.3480   20.0997 N   0  0  0  0  0  0  0  0  0  0  0  0
   11.3822  -16.2686   22.1388 C   0  0  0  0  0  0  0  0  0  0  0  0
   12.1200  -15.3546   22.5867 O   0  0  0  0  0  0  0  0  0  0  0  0
   10.1211  -16.4587   22.7854 N   0  0  0  0  0  0  0  0  0  0  0  0
    9.6493  -15.6193   23.8547 C   0  0  1  0  0  0  0  0  0  0  0  0
    8.1808  -15.5339   23.6915 C   0  0  0  0  0  0  0  0  0  0  0  0
    7.3811  -14.9274   24.7060 C   0  0  0  0  0  0  0  0  0  0  0  0
    6.6679  -15.6352   25.6529 C   0  0  0  0  0  0  0  0  0  0  0  0
    6.0226  -14.7853   26.4634 N   0  0  0  0  0  0  0  0  0  0  0  0
    6.2836  -13.5217   26.0857 C   0  0  0  0  0  0  0  0  0  0  0  0
    5.8870  -12.2906   26.5616 C   0  0  0  0  0  0  0  0  0  0  0  0
    6.3462  -11.1552   25.9305 C   0  0  0  0  0  0  0  0  0  0  0  0
    7.1938  -11.2507   24.8344 C   0  0  0  0  0  0  0  0  0  0  0  0
    7.5999  -12.4782   24.3461 C   0  0  0  0  0  0  0  0  0  0  0  0
    7.1317  -13.6044   24.9884 C   0  0  0  0  0  0  0  0  0  0  0  0
   10.0864  -16.2041   25.1316 C   0  0  0  0  0  0  0  0  0  0  0  0
   10.5877  -17.4127   24.9830 O   0  0  0  0  0  0  0  0  0  0  0  0
   10.0702  -15.7371   26.4180 N   0  0  0  0  0  0  0  0  0  0  0  0
    9.2180  -14.6076   26.8596 C   0  0  0  0  0  0  0  0  0  0  0  0
    9.8229  -14.0594   28.1012 C   0  0  0  0  0  0  0  0  0  0  0  0
   11.0154  -14.8792   28.4336 C   0  0  0  0  0  0  0  0  0  0  0  0
   10.7903  -16.1438   27.5887 C   0  0  1  0  0  0  0  0  0  0  0  0
    9.9627  -17.0305   28.4677 C   0  0  0  0  0  0  0  0  0  0  0  0
    8.6721  -17.3650   28.0873 O   0  0  0  0  0  0  0  0  0  0  0  0
   10.3920  -17.4936   29.5530 O   0  0  0  0  0  0  0  0  0  0  0  0
  2  1  1  1
  2  3  1  0
  4  2  1  0
  5  4  2  0
  6  4  1  0
  7  6  1  0
  8  9  1  0
  7  8  1  1
  9 17  1  0
 10  9  2  0
 10 11  1  0
 11 12  1  0
 12 13  1  0
 13 14  2  0
 15 14  1  0
 16 15  2  0
 17 12  2  0
 17 16  1  0
 18 20  1  0
 18  7  1  0
 19 18  2  0
 20 21  1  0
 21 22  1  0
 23 22  1  0
 24 23  1  0
 24 20  1  0
 25 26  1  0
 24 25  1  1
 27 25  2  0
M  END
$$$$
