TYM.pdb
     RDKit          3D

 28 28  0  0  1  0  0  0  0  0999 V2000
   29.5197  -24.5715  -16.8504 C   0  0  0  0  0  0  0  0  0  0  0  0
   28.0989  -24.1072  -16.8988 C   0  0  1  0  0  0  0  0  0  0  0  0
   27.7182  -23.7582  -18.1879 O   0  0  0  0  0  0  0  0  0  0  0  0
   27.1517  -25.1820  -16.4080 C   0  0  2  0  0  0  0  0  0  0  0  0
   27.1727  -26.3268  -17.3115 N   0  0  0  0  0  0  0  0  0  0  0  0
   25.7753  -24.6898  -16.1977 C   0  0  0  0  0  0  0  0  0  0  0  0
   24.9215  -24.9621  -17.0886 O   0  0  0  0  0  0  0  0  0  0  0  0
   18.8558  -20.0639  -12.8052 O   0  0  0  0  0  0  0  0  0  0  0  0
   20.0514  -20.7397  -13.0168 C   0  0  0  0  0  0  0  0  0  0  0  0
   20.0705  -22.1075  -13.1929 C   0  0  0  0  0  0  0  0  0  0  0  0
   21.2503  -22.7907  -13.4039 C   0  0  0  0  0  0  0  0  0  0  0  0
   22.4713  -22.1466  -13.4503 C   0  0  0  0  0  0  0  0  0  0  0  0
   23.7329  -22.8621  -13.6671 C   0  0  0  0  0  0  0  0  0  0  0  0
   23.9781  -23.3388  -15.0644 C   0  0  2  0  0  0  0  0  0  0  0  0
   25.3219  -23.9426  -15.0920 N   0  0  0  0  0  0  0  0  0  0  0  0
   23.8610  -22.2462  -16.0362 C   0  0  0  0  0  0  0  0  0  0  0  0
   24.7754  -21.3874  -16.0979 O   0  0  0  0  0  0  0  0  0  0  0  0
   22.4447  -20.7698  -13.2722 C   0  0  0  0  0  0  0  0  0  0  0  0
   21.2652  -20.0855  -13.0611 C   0  0  0  0  0  0  0  0  0  0  0  0
   25.0792  -21.9860  -21.7660 C   0  0  0  0  0  0  0  0  0  0  0  0
   24.3846  -20.3351  -21.5827 S   0  0  0  0  0  0  0  0  0  0  0  0
   23.3674  -20.1227  -20.1337 C   0  0  0  0  0  0  0  0  0  0  0  0
   23.4651  -21.1840  -19.0996 C   0  0  0  0  0  0  0  0  0  0  0  0
   22.6580  -20.9775  -17.8651 C   0  0  2  0  0  0  0  0  0  0  0  0
   22.7678  -22.0855  -16.9304 N   0  0  0  0  0  0  0  0  0  0  0  0
   21.2485  -20.7132  -18.1657 C   0  0  0  0  0  0  0  0  0  0  0  0
   20.2492  -21.5043  -17.6173 O   0  0  0  0  0  0  0  0  0  0  0  0
   20.8653  -19.7684  -18.9286 O   0  0  0  0  0  0  0  0  0  0  0  0
  2  4  1  0
  2  1  1  6
  3  2  1  0
  4  6  1  0
  4  5  1  6
  6  7  2  0
  9  8  1  0
  9 10  2  0
 11 10  1  0
 12 11  2  0
 13 12  1  0
 14 13  1  1
 15 14  1  0
 15  6  1  0
 16 14  1  0
 16 17  2  0
 18 19  2  0
 18 12  1  0
 19  9  1  0
 21 20  1  0
 21 22  1  0
 22 23  1  0
 24 23  1  6
 24 25  1  0
 24 26  1  0
 25 16  1  0
 26 28  2  0
 26 27  1  0
M  END
$$$$
