TYM.pdb
     RDKit          3D

 28 28  0  0  1  0  0  0  0  0999 V2000
   27.4018   -9.1205  -19.1373 C   0  0  0  0  0  0  0  0  0  0  0  0
   27.1541  -10.3807  -19.9035 C   0  0  1  0  0  0  0  0  0  0  0  0
   28.3005  -10.8178  -20.5539 O   0  0  0  0  0  0  0  0  0  0  0  0
   26.6816  -11.4946  -18.9928 C   0  0  2  0  0  0  0  0  0  0  0  0
   26.4284  -12.7063  -19.7639 N   0  0  0  0  0  0  0  0  0  0  0  0
   25.5063  -11.1202  -18.1806 C   0  0  0  0  0  0  0  0  0  0  0  0
   24.3716  -11.2121  -18.7291 O   0  0  0  0  0  0  0  0  0  0  0  0
   22.9321  -16.6056  -15.7394 O   0  0  0  0  0  0  0  0  0  0  0  0
   23.2530  -15.2697  -15.5309 C   0  0  0  0  0  0  0  0  0  0  0  0
   22.3177  -14.2765  -15.7332 C   0  0  0  0  0  0  0  0  0  0  0  0
   22.6231  -12.9466  -15.5297 C   0  0  0  0  0  0  0  0  0  0  0  0
   23.8755  -12.5380  -15.1146 C   0  0  0  0  0  0  0  0  0  0  0  0
   24.2146  -11.1272  -14.9014 C   0  0  0  0  0  0  0  0  0  0  0  0
   24.2981  -10.2850  -16.1356 C   0  0  2  0  0  0  0  0  0  0  0  0
   25.5307  -10.6689  -16.8457 N   0  0  0  0  0  0  0  0  0  0  0  0
   24.2878   -8.8536  -15.8145 C   0  0  0  0  0  0  0  0  0  0  0  0
   25.3385   -8.3213  -15.3785 O   0  0  0  0  0  0  0  0  0  0  0  0
   24.8121  -13.5430  -14.9130 C   0  0  0  0  0  0  0  0  0  0  0  0
   24.5077  -14.8735  -15.1161 C   0  0  0  0  0  0  0  0  0  0  0  0
   21.8874   -1.5617  -17.6273 C   0  0  0  0  0  0  0  0  0  0  0  0
   22.0440   -3.3194  -17.9844 S   0  0  0  0  0  0  0  0  0  0  0  0
   22.6327   -4.2977  -16.6148 C   0  0  0  0  0  0  0  0  0  0  0  0
   22.7161   -5.7631  -16.8405 C   0  0  0  0  0  0  0  0  0  0  0  0
   23.1806   -6.5822  -15.6867 C   0  0  2  0  0  0  0  0  0  0  0  0
   23.1544   -8.0090  -15.9640 N   0  0  0  0  0  0  0  0  0  0  0  0
   22.4230   -6.2948  -14.4660 C   0  0  0  0  0  0  0  0  0  0  0  0
   22.6613   -5.1343  -13.7438 O   0  0  0  0  0  0  0  0  0  0  0  0
   21.5256   -7.0719  -14.0052 O   0  0  0  0  0  0  0  0  0  0  0  0
  2  4  1  0
  2  1  1  1
  3  2  1  0
  4  6  1  0
  4  5  1  6
  6  7  2  0
  9  8  1  0
  9 10  2  0
 11 10  1  0
 12 11  2  0
 13 12  1  0
 14 13  1  1
 15 14  1  0
 15  6  1  0
 16 14  1  0
 16 17  2  0
 18 19  2  0
 18 12  1  0
 19  9  1  0
 21 20  1  0
 21 22  1  0
 22 23  1  0
 24 23  1  6
 24 25  1  0
 24 26  1  0
 25 16  1  0
 26 28  2  0
 26 27  1  0
M  END
$$$$
