TYM.pdb
     RDKit          3D

 28 28  0  0  1  0  0  0  0  0999 V2000
   23.5414  -19.7993  -12.8336 C   0  0  0  0  0  0  0  0  0  0  0  0
   23.8768  -21.0532  -13.5764 C   0  0  1  0  0  0  0  0  0  0  0  0
   23.7395  -20.8875  -14.9483 O   0  0  0  0  0  0  0  0  0  0  0  0
   25.2993  -21.4927  -13.3001 C   0  0  2  0  0  0  0  0  0  0  0  0
   25.5989  -22.7232  -14.0236 N   0  0  0  0  0  0  0  0  0  0  0  0
   25.5935  -21.6322  -11.8596 C   0  0  0  0  0  0  0  0  0  0  0  0
   25.2925  -22.7305  -11.3118 O   0  0  0  0  0  0  0  0  0  0  0  0
   28.3754  -19.9173   -3.5092 O   0  0  0  0  0  0  0  0  0  0  0  0
   28.1415  -19.9202   -4.8790 C   0  0  0  0  0  0  0  0  0  0  0  0
   27.3447  -18.9583   -5.4638 C   0  0  0  0  0  0  0  0  0  0  0  0
   27.1045  -18.9496   -6.8223 C   0  0  0  0  0  0  0  0  0  0  0  0
   27.6456  -19.8984   -7.6677 C   0  0  0  0  0  0  0  0  0  0  0  0
   27.3925  -19.9040   -9.1122 C   0  0  0  0  0  0  0  0  0  0  0  0
   26.3357  -20.8532   -9.5833 C   0  0  2  0  0  0  0  0  0  0  0  0
   26.1816  -20.6523  -11.0348 N   0  0  0  0  0  0  0  0  0  0  0  0
   25.0678  -20.6445   -8.8754 C   0  0  0  0  0  0  0  0  0  0  0  0
   24.3985  -19.6103   -9.1200 O   0  0  0  0  0  0  0  0  0  0  0  0
   28.4466  -20.8637   -7.0723 C   0  0  0  0  0  0  0  0  0  0  0  0
   28.6876  -20.8733   -5.7137 C   0  0  0  0  0  0  0  0  0  0  0  0
   19.5990  -23.9801   -8.8010 C   0  0  0  0  0  0  0  0  0  0  0  0
   19.7656  -23.5166   -7.0692 S   0  0  0  0  0  0  0  0  0  0  0  0
   20.9722  -22.2399   -6.7632 C   0  0  0  0  0  0  0  0  0  0  0  0
   22.2900  -22.4069   -7.4270 C   0  0  0  0  0  0  0  0  0  0  0  0
   23.2771  -21.3118   -7.2172 C   0  0  2  0  0  0  0  0  0  0  0  0
   24.5310  -21.5444   -7.9149 N   0  0  0  0  0  0  0  0  0  0  0  0
   23.5329  -21.0649   -5.7957 C   0  0  0  0  0  0  0  0  0  0  0  0
   24.7273  -21.4642   -5.2135 O   0  0  0  0  0  0  0  0  0  0  0  0
   22.6970  -20.4863   -5.0288 O   0  0  0  0  0  0  0  0  0  0  0  0
  2  4  1  0
  2  1  1  1
  3  2  1  0
  4  6  1  0
  4  5  1  6
  6  7  2  0
  9  8  1  0
  9 10  2  0
 11 10  1  0
 12 11  2  0
 13 12  1  0
 14 13  1  1
 15 14  1  0
 15  6  1  0
 16 14  1  0
 16 17  2  0
 18 19  2  0
 18 12  1  0
 19  9  1  0
 21 20  1  0
 21 22  1  0
 22 23  1  0
 24 23  1  1
 24 25  1  0
 24 26  1  0
 25 16  1  0
 26 28  2  0
 26 27  1  0
M  END
$$$$
