TYM.pdb
     RDKit          3D

 28 28  0  0  1  0  0  0  0  0999 V2000
   26.3503  -21.1883  -18.5109 C   0  0  0  0  0  0  0  0  0  0  0  0
   27.4529  -22.1922  -18.6250 C   0  0  1  0  0  0  0  0  0  0  0  0
   28.3017  -21.9017  -19.6849 O   0  0  0  0  0  0  0  0  0  0  0  0
   28.2855  -22.2412  -17.3610 C   0  0  2  0  0  0  0  0  0  0  0  0
   29.2920  -23.2921  -17.4579 N   0  0  0  0  0  0  0  0  0  0  0  0
   27.4727  -22.3881  -16.1367 C   0  0  0  0  0  0  0  0  0  0  0  0
   27.0213  -23.5394  -15.8773 O   0  0  0  0  0  0  0  0  0  0  0  0
   23.1545  -20.6160   -8.4831 O   0  0  0  0  0  0  0  0  0  0  0  0
   23.9920  -20.6118   -9.5920 C   0  0  0  0  0  0  0  0  0  0  0  0
   23.6017  -20.0148  -10.7724 C   0  0  0  0  0  0  0  0  0  0  0  0
   24.4234  -20.0034  -11.8805 C   0  0  0  0  0  0  0  0  0  0  0  0
   25.6756  -20.5861  -11.8696 C   0  0  0  0  0  0  0  0  0  0  0  0
   26.5557  -20.5867  -13.0428 C   0  0  0  0  0  0  0  0  0  0  0  0
   26.2175  -21.5814  -14.1086 C   0  0  2  0  0  0  0  0  0  0  0  0
   27.1523  -21.3612  -15.2261 N   0  0  0  0  0  0  0  0  0  0  0  0
   24.8223  -21.4538  -14.5434 C   0  0  0  0  0  0  0  0  0  0  0  0
   24.5019  -20.4901  -15.2823 O   0  0  0  0  0  0  0  0  0  0  0  0
   26.0620  -21.1854  -10.6782 C   0  0  0  0  0  0  0  0  0  0  0  0
   25.2410  -21.1973   -9.5693 C   0  0  0  0  0  0  0  0  0  0  0  0
   18.5087  -24.7634  -17.6902 C   0  0  0  0  0  0  0  0  0  0  0  0
   20.0971  -24.9192  -16.8572 S   0  0  0  0  0  0  0  0  0  0  0  0
   20.6329  -23.4419  -16.0146 C   0  0  0  0  0  0  0  0  0  0  0  0
   22.0000  -23.4735  -15.4355 C   0  0  0  0  0  0  0  0  0  0  0  0
   22.4277  -22.2579  -14.6890 C   0  0  2  0  0  0  0  0  0  0  0  0
   23.7868  -22.3586  -14.1831 N   0  0  0  0  0  0  0  0  0  0  0  0
   21.5090  -21.9305  -13.5956 C   0  0  0  0  0  0  0  0  0  0  0  0
   20.3693  -21.1756  -13.8330 O   0  0  0  0  0  0  0  0  0  0  0  0
   21.6960  -22.3071  -12.3936 O   0  0  0  0  0  0  0  0  0  0  0  0
  2  4  1  0
  2  1  1  1
  3  2  1  0
  4  6  1  0
  4  5  1  6
  6  7  2  0
  9  8  1  0
  9 10  2  0
 11 10  1  0
 12 11  2  0
 13 12  1  0
 14 13  1  1
 15 14  1  0
 15  6  1  0
 16 14  1  0
 16 17  2  0
 18 19  2  0
 18 12  1  0
 19  9  1  0
 21 20  1  0
 21 22  1  0
 22 23  1  0
 24 23  1  1
 24 25  1  0
 24 26  1  0
 25 16  1  0
 26 28  2  0
 26 27  1  0
M  END
$$$$
