TYM.pdb
     RDKit          3D

 28 28  0  0  1  0  0  0  0  0999 V2000
   25.9178  -11.0950  -15.5070 C   0  0  0  0  0  0  0  0  0  0  0  0
   26.0553  -12.0747  -16.6284 C   0  0  1  0  0  0  0  0  0  0  0  0
   26.7934  -13.1877  -16.2479 O   0  0  0  0  0  0  0  0  0  0  0  0
   24.7018  -12.5551  -17.1086 C   0  0  2  0  0  0  0  0  0  0  0  0
   24.8615  -13.5253  -18.1858 N   0  0  0  0  0  0  0  0  0  0  0  0
   23.8037  -11.4529  -17.5082 C   0  0  0  0  0  0  0  0  0  0  0  0
   24.0418  -10.8842  -18.6112 O   0  0  0  0  0  0  0  0  0  0  0  0
   18.3323  -14.4858  -14.5682 O   0  0  0  0  0  0  0  0  0  0  0  0
   18.8876  -13.4580  -15.3207 C   0  0  0  0  0  0  0  0  0  0  0  0
   18.7162  -12.1394  -14.9546 C   0  0  0  0  0  0  0  0  0  0  0  0
   19.2623  -11.1096  -15.6926 C   0  0  0  0  0  0  0  0  0  0  0  0
   20.0067  -11.3404  -16.8328 C   0  0  0  0  0  0  0  0  0  0  0  0
   20.5867  -10.2544  -17.6297 C   0  0  0  0  0  0  0  0  0  0  0  0
   21.9419   -9.7859  -17.2012 C   0  0  2  0  0  0  0  0  0  0  0  0
   22.7011  -10.9738  -16.7727 N   0  0  0  0  0  0  0  0  0  0  0  0
   21.8547   -8.7894  -16.1282 C   0  0  0  0  0  0  0  0  0  0  0  0
   22.5270   -8.9631  -15.0816 O   0  0  0  0  0  0  0  0  0  0  0  0
   20.1751  -12.6701  -17.1956 C   0  0  0  0  0  0  0  0  0  0  0  0
   19.6295  -13.7009  -16.4582 C   0  0  0  0  0  0  0  0  0  0  0  0
   25.2886   -2.3841  -15.4497 C   0  0  0  0  0  0  0  0  0  0  0  0
   24.8308   -4.0190  -16.0487 S   0  0  0  0  0  0  0  0  0  0  0  0
   23.2370   -4.5876  -15.4868 C   0  0  0  0  0  0  0  0  0  0  0  0
   22.8036   -5.9209  -15.9766 C   0  0  0  0  0  0  0  0  0  0  0  0
   21.4347   -6.3549  -15.5821 C   0  0  2  0  0  0  0  0  0  0  0  0
   21.0499   -7.6192  -16.1875 N   0  0  0  0  0  0  0  0  0  0  0  0
   20.4266   -5.3323  -15.8735 C   0  0  0  0  0  0  0  0  0  0  0  0
   19.4895   -5.5305  -16.8773 O   0  0  0  0  0  0  0  0  0  0  0  0
   20.3520   -4.2291  -15.2419 O   0  0  0  0  0  0  0  0  0  0  0  0
  2  4  1  0
  2  1  1  1
  3  2  1  0
  4  6  1  0
  4  5  1  6
  6  7  2  0
  9  8  1  0
  9 10  2  0
 11 10  1  0
 12 11  2  0
 13 12  1  0
 14 13  1  1
 15 14  1  0
 15  6  1  0
 16 14  1  0
 16 17  2  0
 18 19  2  0
 18 12  1  0
 19  9  1  0
 21 20  1  0
 21 22  1  0
 22 23  1  0
 24 23  1  6
 24 25  1  0
 24 26  1  0
 25 16  1  0
 26 28  2  0
 26 27  1  0
M  END
$$$$
