TYM.pdb
     RDKit          3D

 28 28  0  0  1  0  0  0  0  0999 V2000
   28.2985  -21.5307  -16.5230 C   0  0  0  0  0  0  0  0  0  0  0  0
   27.7699  -21.3158  -15.1406 C   0  0  1  0  0  0  0  0  0  0  0  0
   28.6938  -20.6630  -14.3352 O   0  0  0  0  0  0  0  0  0  0  0  0
   26.5013  -20.4890  -15.1590 C   0  0  2  0  0  0  0  0  0  0  0  0
   26.7059  -19.2642  -15.9239 N   0  0  0  0  0  0  0  0  0  0  0  0
   25.9798  -20.1973  -13.8084 C   0  0  0  0  0  0  0  0  0  0  0  0
   26.2500  -19.0651  -13.3166 O   0  0  0  0  0  0  0  0  0  0  0  0
   19.8513  -18.3022  -15.2981 O   0  0  0  0  0  0  0  0  0  0  0  0
   20.6805  -18.9775  -14.4107 C   0  0  0  0  0  0  0  0  0  0  0  0
   20.8950  -18.4969  -13.1359 C   0  0  0  0  0  0  0  0  0  0  0  0
   21.7156  -19.1575  -12.2451 C   0  0  0  0  0  0  0  0  0  0  0  0
   22.3645  -20.3303  -12.5785 C   0  0  0  0  0  0  0  0  0  0  0  0
   23.2446  -21.0382  -11.6431 C   0  0  0  0  0  0  0  0  0  0  0  0
   24.6906  -20.6558  -11.6949 C   0  0  2  0  0  0  0  0  0  0  0  0
   25.2053  -21.0657  -13.0133 N   0  0  0  0  0  0  0  0  0  0  0  0
   25.4526  -21.2756  -10.6053 C   0  0  0  0  0  0  0  0  0  0  0  0
   25.7855  -22.4824  -10.7066 O   0  0  0  0  0  0  0  0  0  0  0  0
   22.1443  -20.8082  -13.8633 C   0  0  0  0  0  0  0  0  0  0  0  0
   21.3236  -20.1484  -14.7551 C   0  0  0  0  0  0  0  0  0  0  0  0
   28.3002  -17.7872   -4.8156 C   0  0  0  0  0  0  0  0  0  0  0  0
   28.2701  -19.3899   -5.6353 S   0  0  0  0  0  0  0  0  0  0  0  0
   27.9160  -19.3157   -7.3812 C   0  0  0  0  0  0  0  0  0  0  0  0
   27.9192  -20.6102   -8.1091 C   0  0  0  0  0  0  0  0  0  0  0  0
   26.5889  -21.2368   -8.3450 C   0  0  2  0  0  0  0  0  0  0  0  0
   25.8496  -20.5972   -9.4209 N   0  0  0  0  0  0  0  0  0  0  0  0
   25.7729  -21.2729   -7.1287 C   0  0  0  0  0  0  0  0  0  0  0  0
   26.2236  -21.9345   -5.9954 O   0  0  0  0  0  0  0  0  0  0  0  0
   24.6312  -20.7159   -7.0402 O   0  0  0  0  0  0  0  0  0  0  0  0
  2  4  1  0
  2  1  1  6
  3  2  1  0
  4  6  1  0
  4  5  1  1
  6  7  2  0
  9  8  1  0
  9 10  2  0
 11 10  1  0
 12 11  2  0
 13 12  1  0
 14 13  1  6
 15 14  1  0
 15  6  1  0
 16 14  1  0
 16 17  2  0
 18 19  2  0
 18 12  1  0
 19  9  1  0
 21 20  1  0
 21 22  1  0
 22 23  1  0
 24 23  1  1
 24 25  1  0
 24 26  1  0
 25 16  1  0
 26 28  2  0
 26 27  1  0
M  END
$$$$
