TYM.pdb
     RDKit          3D

 28 28  0  0  1  0  0  0  0  0999 V2000
   14.5552  -10.7806  -16.3262 C   0  0  0  0  0  0  0  0  0  0  0  0
   15.0138  -10.0279  -15.1181 C   0  0  1  0  0  0  0  0  0  0  0  0
   14.3911  -10.4843  -13.9639 O   0  0  0  0  0  0  0  0  0  0  0  0
   16.5099  -10.1588  -14.9233 C   0  0  2  0  0  0  0  0  0  0  0  0
   16.8762  -11.5583  -14.7384 N   0  0  0  0  0  0  0  0  0  0  0  0
   17.0271   -9.3192  -13.8240 C   0  0  0  0  0  0  0  0  0  0  0  0
   17.4287   -9.9126  -12.7832 O   0  0  0  0  0  0  0  0  0  0  0  0
   23.2153   -9.7892  -14.9308 O   0  0  0  0  0  0  0  0  0  0  0  0
   22.1685   -8.9792  -14.5075 C   0  0  0  0  0  0  0  0  0  0  0  0
   21.3096   -8.3986  -15.4170 C   0  0  0  0  0  0  0  0  0  0  0  0
   20.2664   -7.5926  -15.0102 C   0  0  0  0  0  0  0  0  0  0  0  0
   20.0255   -7.3237  -13.6771 C   0  0  0  0  0  0  0  0  0  0  0  0
   18.9243   -6.4633  -13.2323 C   0  0  0  0  0  0  0  0  0  0  0  0
   17.7178   -7.1732  -12.7029 C   0  0  2  0  0  0  0  0  0  0  0  0
   17.1162   -7.9126  -13.8264 N   0  0  0  0  0  0  0  0  0  0  0  0
   16.7605   -6.2374  -12.1028 C   0  0  0  0  0  0  0  0  0  0  0  0
   16.0039   -5.5759  -12.8562 O   0  0  0  0  0  0  0  0  0  0  0  0
   20.8940   -7.9114  -12.7670 C   0  0  0  0  0  0  0  0  0  0  0  0
   21.9377   -8.7178  -13.1727 C   0  0  0  0  0  0  0  0  0  0  0  0
   12.3572   -8.8344   -7.8625 C   0  0  0  0  0  0  0  0  0  0  0  0
   13.3817   -7.3782   -7.5953 S   0  0  0  0  0  0  0  0  0  0  0  0
   14.0905   -6.6956   -9.0822 C   0  0  0  0  0  0  0  0  0  0  0  0
   15.0293   -5.5591   -8.9022 C   0  0  0  0  0  0  0  0  0  0  0  0
   15.6984   -5.0557  -10.1338 C   0  0  2  0  0  0  0  0  0  0  0  0
   16.6238   -6.0206  -10.7047 N   0  0  0  0  0  0  0  0  0  0  0  0
   16.3815   -3.7794   -9.9076 C   0  0  0  0  0  0  0  0  0  0  0  0
   17.7536   -3.6720  -10.0833 O   0  0  0  0  0  0  0  0  0  0  0  0
   15.7746   -2.7204   -9.5446 O   0  0  0  0  0  0  0  0  0  0  0  0
  2  4  1  0
  2  1  1  6
  3  2  1  0
  4  6  1  0
  4  5  1  1
  6  7  2  0
  9  8  1  0
  9 10  2  0
 11 10  1  0
 12 11  2  0
 13 12  1  0
 14 13  1  6
 15 14  1  0
 15  6  1  0
 16 14  1  0
 16 17  2  0
 18 19  2  0
 18 12  1  0
 19  9  1  0
 21 20  1  0
 21 22  1  0
 22 23  1  0
 24 23  1  1
 24 25  1  0
 24 26  1  0
 25 16  1  0
 26 28  2  0
 26 27  1  0
M  END
$$$$
