TYM.pdb
     RDKit          3D

 28 28  0  0  1  0  0  0  0  0999 V2000
   27.3943  -17.7800  -17.9775 C   0  0  0  0  0  0  0  0  0  0  0  0
   26.8901  -18.1424  -16.6170 C   0  0  1  0  0  0  0  0  0  0  0  0
   27.2824  -17.2139  -15.6618 O   0  0  0  0  0  0  0  0  0  0  0  0
   25.3781  -18.2240  -16.5941 C   0  0  2  0  0  0  0  0  0  0  0  0
   24.7961  -16.9667  -17.0497 N   0  0  0  0  0  0  0  0  0  0  0  0
   24.8386  -18.6188  -15.2773 C   0  0  0  0  0  0  0  0  0  0  0  0
   24.2116  -17.7389  -14.6221 O   0  0  0  0  0  0  0  0  0  0  0  0
   18.2566  -20.2843  -15.2689 O   0  0  0  0  0  0  0  0  0  0  0  0
   19.5429  -20.5410  -14.8099 C   0  0  0  0  0  0  0  0  0  0  0  0
   20.5791  -20.7621  -15.6928 C   0  0  0  0  0  0  0  0  0  0  0  0
   21.8606  -21.0178  -15.2506 C   0  0  0  0  0  0  0  0  0  0  0  0
   22.1755  -21.0665  -13.9067 C   0  0  0  0  0  0  0  0  0  0  0  0
   23.5322  -21.3441  -13.4238 C   0  0  0  0  0  0  0  0  0  0  0  0
   24.4424  -20.1601  -13.3262 C   0  0  2  0  0  0  0  0  0  0  0  0
   24.9569  -19.8900  -14.6803 N   0  0  0  0  0  0  0  0  0  0  0  0
   25.5340  -20.3950  -12.3747 C   0  0  0  0  0  0  0  0  0  0  0  0
   26.5461  -21.0332  -12.7567 O   0  0  0  0  0  0  0  0  0  0  0  0
   21.1276  -20.8431  -13.0236 C   0  0  0  0  0  0  0  0  0  0  0  0
   19.8455  -20.5871  -13.4648 C   0  0  0  0  0  0  0  0  0  0  0  0
   28.7987  -17.8736   -6.5733 C   0  0  0  0  0  0  0  0  0  0  0  0
   27.4401  -19.0271   -6.3183 S   0  0  0  0  0  0  0  0  0  0  0  0
   27.2270  -20.2133   -7.6323 C   0  0  0  0  0  0  0  0  0  0  0  0
   26.2367  -19.8622   -8.6818 C   0  0  0  0  0  0  0  0  0  0  0  0
   26.5756  -20.2746  -10.0721 C   0  0  2  0  0  0  0  0  0  0  0  0
   25.5302  -19.9442  -11.0266 N   0  0  0  0  0  0  0  0  0  0  0  0
   26.9023  -21.7002  -10.1602 C   0  0  0  0  0  0  0  0  0  0  0  0
   28.2194  -22.1290  -10.0799 O   0  0  0  0  0  0  0  0  0  0  0  0
   26.0219  -22.6075  -10.3132 O   0  0  0  0  0  0  0  0  0  0  0  0
  2  4  1  0
  2  1  1  6
  3  2  1  0
  4  6  1  0
  4  5  1  1
  6  7  2  0
  9  8  1  0
  9 10  2  0
 11 10  1  0
 12 11  2  0
 13 12  1  0
 14 13  1  6
 15 14  1  0
 15  6  1  0
 16 14  1  0
 16 17  2  0
 18 19  2  0
 18 12  1  0
 19  9  1  0
 21 20  1  0
 21 22  1  0
 22 23  1  0
 24 23  1  1
 24 25  1  0
 24 26  1  0
 25 16  1  0
 26 28  2  0
 26 27  1  0
M  END
$$$$
