TYM.pdb
     RDKit          3D

 28 28  0  0  1  0  0  0  0  0999 V2000
   20.9794   -8.2419  -20.6803 C   0  0  0  0  0  0  0  0  0  0  0  0
   21.0944   -9.7168  -20.4611 C   0  0  1  0  0  0  0  0  0  0  0  0
   21.3441  -10.3926  -21.6483 O   0  0  0  0  0  0  0  0  0  0  0  0
   22.2132  -10.0439  -19.4944 C   0  0  2  0  0  0  0  0  0  0  0  0
   22.3022  -11.4855  -19.2917 N   0  0  0  0  0  0  0  0  0  0  0  0
   22.0960   -9.3276  -18.2083 C   0  0  0  0  0  0  0  0  0  0  0  0
   21.4112   -9.8782  -17.3002 O   0  0  0  0  0  0  0  0  0  0  0  0
   27.6858  -11.2092  -15.6407 O   0  0  0  0  0  0  0  0  0  0  0  0
   26.7419  -10.1945  -15.7433 C   0  0  0  0  0  0  0  0  0  0  0  0
   26.8209   -9.2523  -16.7473 C   0  0  0  0  0  0  0  0  0  0  0  0
   25.8904   -8.2400  -16.8606 C   0  0  0  0  0  0  0  0  0  0  0  0
   24.8340   -8.1144  -15.9798 C   0  0  0  0  0  0  0  0  0  0  0  0
   23.8424   -7.0391  -16.0854 C   0  0  0  0  0  0  0  0  0  0  0  0
   22.4904   -7.4479  -16.5802 C   0  0  2  0  0  0  0  0  0  0  0  0
   22.6790   -8.0829  -17.8964 N   0  0  0  0  0  0  0  0  0  0  0  0
   21.5767   -6.3031  -16.6632 C   0  0  0  0  0  0  0  0  0  0  0  0
   21.9278   -5.2919  -17.3201 O   0  0  0  0  0  0  0  0  0  0  0  0
   24.7607   -9.0662  -14.9715 C   0  0  0  0  0  0  0  0  0  0  0  0
   25.6907  -10.0792  -14.8573 C   0  0  0  0  0  0  0  0  0  0  0  0
   17.3353   -7.4629  -20.7953 C   0  0  0  0  0  0  0  0  0  0  0  0
   17.0543   -7.0127  -19.0749 S   0  0  0  0  0  0  0  0  0  0  0  0
   18.3004   -5.9416  -18.3826 C   0  0  0  0  0  0  0  0  0  0  0  0
   18.1298   -5.5699  -16.9551 C   0  0  0  0  0  0  0  0  0  0  0  0
   19.3631   -5.1570  -16.2296 C   0  0  2  0  0  0  0  0  0  0  0  0
   20.2987   -6.2539  -16.0429 N   0  0  0  0  0  0  0  0  0  0  0  0
   19.0607   -4.5312  -14.9398 C   0  0  0  0  0  0  0  0  0  0  0  0
   18.2684   -3.3941  -14.8752 O   0  0  0  0  0  0  0  0  0  0  0  0
   19.4958   -4.9794  -13.8301 O   0  0  0  0  0  0  0  0  0  0  0  0
  2  4  1  0
  2  1  1  6
  3  2  1  0
  4  6  1  0
  4  5  1  1
  6  7  2  0
  9  8  1  0
  9 10  2  0
 11 10  1  0
 12 11  2  0
 13 12  1  0
 14 13  1  6
 15 14  1  0
 15  6  1  0
 16 14  1  0
 16 17  2  0
 18 19  2  0
 18 12  1  0
 19  9  1  0
 21 20  1  0
 21 22  1  0
 22 23  1  0
 24 23  1  1
 24 25  1  0
 24 26  1  0
 25 16  1  0
 26 28  2  0
 26 27  1  0
M  END
$$$$
