TYM.pdb
     RDKit          3D

 28 28  0  0  1  0  0  0  0  0999 V2000
   20.1596  -14.9652  -19.2527 C   0  0  0  0  0  0  0  0  0  0  0  0
   19.9818  -13.5629  -18.7645 C   0  0  1  0  0  0  0  0  0  0  0  0
   18.7415  -13.0503  -19.1209 O   0  0  0  0  0  0  0  0  0  0  0  0
   20.1023  -13.4856  -17.2569 C   0  0  2  0  0  0  0  0  0  0  0  0
   19.0574  -14.2822  -16.6238 N   0  0  0  0  0  0  0  0  0  0  0  0
   20.1045  -12.1001  -16.7457 C   0  0  0  0  0  0  0  0  0  0  0  0
   18.9914  -11.6072  -16.4068 O   0  0  0  0  0  0  0  0  0  0  0  0
   22.7639   -4.3869  -13.0897 O   0  0  0  0  0  0  0  0  0  0  0  0
   22.6439   -5.6735  -13.6009 C   0  0  0  0  0  0  0  0  0  0  0  0
   21.8806   -6.6239  -12.9556 C   0  0  0  0  0  0  0  0  0  0  0  0
   21.7530   -7.9047  -13.4524 C   0  0  0  0  0  0  0  0  0  0  0  0
   22.3790   -8.3042  -14.6169 C   0  0  0  0  0  0  0  0  0  0  0  0
   22.2568   -9.6643  -15.1516 C   0  0  0  0  0  0  0  0  0  0  0  0
   21.1239   -9.8893  -16.1033 C   0  0  2  0  0  0  0  0  0  0  0  0
   21.2358  -11.2725  -16.5987 N   0  0  0  0  0  0  0  0  0  0  0  0
   21.1441   -8.9216  -17.2056 C   0  0  0  0  0  0  0  0  0  0  0  0
   22.0208   -9.0353  -18.0978 O   0  0  0  0  0  0  0  0  0  0  0  0
   23.1458   -7.3425  -15.2612 C   0  0  0  0  0  0  0  0  0  0  0  0
   23.2741   -6.0612  -14.7653 C   0  0  0  0  0  0  0  0  0  0  0  0
   16.9145   -9.5672  -22.0145 C   0  0  0  0  0  0  0  0  0  0  0  0
   17.1287   -8.1574  -20.9154 S   0  0  0  0  0  0  0  0  0  0  0  0
   18.7049   -8.1072  -20.0835 C   0  0  0  0  0  0  0  0  0  0  0  0
   18.9580   -6.9231  -19.2236 C   0  0  0  0  0  0  0  0  0  0  0  0
   20.2390   -6.9219  -18.4640 C   0  0  2  0  0  0  0  0  0  0  0  0
   20.2266   -7.8443  -17.3405 N   0  0  0  0  0  0  0  0  0  0  0  0
   20.6074   -5.5796  -18.0065 C   0  0  0  0  0  0  0  0  0  0  0  0
   21.6739   -4.9051  -18.5831 O   0  0  0  0  0  0  0  0  0  0  0  0
   19.9893   -4.9678  -17.0763 O   0  0  0  0  0  0  0  0  0  0  0  0
  2  4  1  0
  2  1  1  1
  3  2  1  0
  4  6  1  0
  4  5  1  1
  6  7  2  0
  9  8  1  0
  9 10  2  0
 11 10  1  0
 12 11  2  0
 13 12  1  0
 14 13  1  1
 15 14  1  0
 15  6  1  0
 16 14  1  0
 16 17  2  0
 18 19  2  0
 18 12  1  0
 19  9  1  0
 21 20  1  0
 21 22  1  0
 22 23  1  0
 24 23  1  1
 24 25  1  0
 24 26  1  0
 25 16  1  0
 26 28  2  0
 26 27  1  0
M  END
$$$$
