TYM.pdb
     RDKit          3D

 28 28  0  0  1  0  0  0  0  0999 V2000
   23.9617  -19.5389  -13.3990 C   0  0  0  0  0  0  0  0  0  0  0  0
   24.2777  -20.8246  -14.0944 C   0  0  1  0  0  0  0  0  0  0  0  0
   24.3121  -20.6655  -15.4735 O   0  0  0  0  0  0  0  0  0  0  0  0
   25.6193  -21.3727  -13.6549 C   0  0  2  0  0  0  0  0  0  0  0  0
   25.8761  -22.6575  -14.2958 N   0  0  0  0  0  0  0  0  0  0  0  0
   25.7537  -21.4689  -12.1874 C   0  0  0  0  0  0  0  0  0  0  0  0
   25.2594  -22.4880  -11.6272 O   0  0  0  0  0  0  0  0  0  0  0  0
   28.0352  -19.6300   -3.6982 O   0  0  0  0  0  0  0  0  0  0  0  0
   27.9148  -19.6902   -5.0813 C   0  0  0  0  0  0  0  0  0  0  0  0
   28.2441  -20.8377   -5.7719 C   0  0  0  0  0  0  0  0  0  0  0  0
   28.1290  -20.9108   -7.1447 C   0  0  0  0  0  0  0  0  0  0  0  0
   27.6802  -19.8449   -7.8998 C   0  0  0  0  0  0  0  0  0  0  0  0
   27.5599  -19.9077   -9.3600 C   0  0  0  0  0  0  0  0  0  0  0  0
   26.3867  -20.6757   -9.8832 C   0  0  2  0  0  0  0  0  0  0  0  0
   26.3846  -20.5278  -11.3492 N   0  0  0  0  0  0  0  0  0  0  0  0
   25.1277  -20.2057   -9.2949 C   0  0  0  0  0  0  0  0  0  0  0  0
   24.5664  -19.1961   -9.7878 O   0  0  0  0  0  0  0  0  0  0  0  0
   27.3506  -18.6930   -7.1981 C   0  0  0  0  0  0  0  0  0  0  0  0
   27.4652  -18.6188   -5.8250 C   0  0  0  0  0  0  0  0  0  0  0  0
   20.0270  -20.9157  -11.9625 C   0  0  0  0  0  0  0  0  0  0  0  0
   19.9763  -22.0217  -10.5428 S   0  0  0  0  0  0  0  0  0  0  0  0
   20.8401  -21.4135   -9.1064 C   0  0  0  0  0  0  0  0  0  0  0  0
   22.3228  -21.3945   -9.1890 C   0  0  0  0  0  0  0  0  0  0  0  0
   23.0414  -20.8364   -8.0100 C   0  0  2  0  0  0  0  0  0  0  0  0
   24.4842  -20.8213   -8.1870 N   0  0  0  0  0  0  0  0  0  0  0  0
   22.6958  -21.5379   -6.7709 C   0  0  0  0  0  0  0  0  0  0  0  0
   23.1760  -22.8162   -6.5257 O   0  0  0  0  0  0  0  0  0  0  0  0
   21.9529  -21.0316   -5.8690 O   0  0  0  0  0  0  0  0  0  0  0  0
  2  4  1  0
  2  1  1  1
  3  2  1  0
  4  6  1  0
  4  5  1  6
  6  7  2  0
  9  8  1  0
  9 10  2  0
 11 10  1  0
 12 11  2  0
 13 12  1  0
 14 13  1  1
 15 14  1  0
 15  6  1  0
 16 14  1  0
 16 17  2  0
 18 19  2  0
 18 12  1  0
 19  9  1  0
 21 20  1  0
 21 22  1  0
 22 23  1  0
 24 23  1  6
 24 25  1  0
 24 26  1  0
 25 16  1  0
 26 28  2  0
 26 27  1  0
M  END
$$$$
