STP.pdb
     RDKit          3D

 21 21  0  0  1  0  0  0  0  0999 V2000
   16.9821  -15.8278  -14.2237 O   0  0  0  0  0  0  0  0  0  0  0  0
   17.3126  -14.8759  -15.1660 C   0  0  0  0  0  0  0  0  0  0  0  0
   18.3392  -15.4105  -16.1411 C   0  0  2  0  0  0  0  0  0  0  0  0
   18.4801  -16.8335  -15.8980 N   0  0  0  0  0  0  0  0  0  0  0  0
   19.6092  -14.6897  -16.0846 C   0  0  0  0  0  0  0  0  0  0  0  0
   20.6186  -15.2066  -15.5445 O   0  0  0  0  0  0  0  0  0  0  0  0
   21.3791  -13.2398  -19.0089 C   0  0  0  0  0  0  0  0  0  0  0  0
   21.0087  -12.0789  -18.0746 C   0  0  1  0  0  0  0  0  0  0  0  0
   19.7003  -11.7420  -18.4096 O   0  0  0  0  0  0  0  0  0  0  0  0
   20.9679  -12.6178  -16.6308 C   0  0  2  0  0  0  0  0  0  0  0  0
   19.7250  -13.4095  -16.6312 N   0  0  0  0  0  0  0  0  0  0  0  0
   20.8347  -11.4930  -15.6731 C   0  0  0  0  0  0  0  0  0  0  0  0
   19.7423  -10.8535  -15.6854 O   0  0  0  0  0  0  0  0  0  0  0  0
   21.8739  -11.1137  -14.7545 N   0  0  0  0  0  0  0  0  0  0  0  0
   23.1493  -11.7485  -14.5522 C   0  0  0  0  0  0  0  0  0  0  0  0
   24.0729  -10.5481  -14.3196 C   0  0  0  0  0  0  0  0  0  0  0  0
   23.1984   -9.7912  -13.3013 C   0  0  0  0  0  0  0  0  0  0  0  0
   21.7829   -9.9876  -13.8588 C   0  0  1  0  0  0  0  0  0  0  0  0
   21.3422   -8.7344  -14.5309 C   0  0  0  0  0  0  0  0  0  0  0  0
   20.9401   -7.6361  -13.8016 O   0  0  0  0  0  0  0  0  0  0  0  0
   21.3414   -8.6901  -15.7772 O   0  0  0  0  0  0  0  0  0  0  0  0
  1  2  1  0
  2  3  1  0
  3  4  1  1
  5  3  1  0
  6  5  2  0
  8  7  1  6
  8 10  1  0
  9  8  1  0
 10 12  1  0
 10 11  1  6
 11  5  1  0
 12 14  1  0
 13 12  2  0
 14 15  1  0
 14 18  1  0
 15 16  1  0
 16 17  1  0
 18 19  1  6
 18 17  1  0
 19 20  1  0
 21 19  2  0
M  END
$$$$
