STP.pdb
     RDKit          3D

 21 21  0  0  1  0  0  0  0  0999 V2000
   22.0904  -12.4958  -18.8390 O   0  0  0  0  0  0  0  0  0  0  0  0
   21.3626  -11.3371  -18.6628 C   0  0  0  0  0  0  0  0  0  0  0  0
   20.2530  -11.5408  -17.6538 C   0  0  2  0  0  0  0  0  0  0  0  0
   19.2942  -12.4629  -18.2321 N   0  0  0  0  0  0  0  0  0  0  0  0
   19.6481  -10.2867  -17.2102 C   0  0  0  0  0  0  0  0  0  0  0  0
   18.7916   -9.7002  -17.9174 O   0  0  0  0  0  0  0  0  0  0  0  0
   17.4542   -9.6166  -14.6807 C   0  0  0  0  0  0  0  0  0  0  0  0
   18.7143   -8.8641  -14.2294 C   0  0  1  0  0  0  0  0  0  0  0  0
   19.4997   -9.8168  -13.5864 O   0  0  0  0  0  0  0  0  0  0  0  0
   19.4920   -8.4301  -15.4878 C   0  0  2  0  0  0  0  0  0  0  0  0
   20.0116   -9.7151  -15.9886 N   0  0  0  0  0  0  0  0  0  0  0  0
   20.6272   -7.5553  -15.1061 C   0  0  0  0  0  0  0  0  0  0  0  0
   21.5208   -8.0625  -14.3666 O   0  0  0  0  0  0  0  0  0  0  0  0
   20.7469   -6.1883  -15.5355 N   0  0  0  0  0  0  0  0  0  0  0  0
   19.8980   -5.4720  -16.4503 C   0  0  0  0  0  0  0  0  0  0  0  0
   19.8474   -4.0773  -15.8175 C   0  0  0  0  0  0  0  0  0  0  0  0
   21.3557   -3.8982  -15.5578 C   0  0  0  0  0  0  0  0  0  0  0  0
   21.7867   -5.2942  -15.0901 C   0  0  1  0  0  0  0  0  0  0  0  0
   21.9614   -5.2839  -13.6117 C   0  0  0  0  0  0  0  0  0  0  0  0
   23.0845   -4.7371  -13.0289 O   0  0  0  0  0  0  0  0  0  0  0  0
   21.0681   -5.7823  -12.8983 O   0  0  0  0  0  0  0  0  0  0  0  0
  1  2  1  0
  2  3  1  0
  3  4  1  6
  5  3  1  0
  6  5  2  0
  8  7  1  6
  8 10  1  0
  9  8  1  0
 10 12  1  0
 10 11  1  1
 11  5  1  0
 12 14  1  0
 13 12  2  0
 14 15  1  0
 14 18  1  0
 15 16  1  0
 16 17  1  0
 18 19  1  1
 18 17  1  0
 19 20  1  0
 21 19  2  0
M  END
$$$$
