STP.pdb
     RDKit          3D

 21 21  0  0  1  0  0  0  0  0999 V2000
   24.3353  -20.7135   -8.5634 O   0  0  0  0  0  0  0  0  0  0  0  0
   24.3820  -20.2507   -9.8622 C   0  0  0  0  0  0  0  0  0  0  0  0
   25.2542  -21.1380  -10.7240 C   0  0  2  0  0  0  0  0  0  0  0  0
   26.6014  -21.0867  -10.1888 N   0  0  0  0  0  0  0  0  0  0  0  0
   25.1870  -20.7983  -12.1437 C   0  0  0  0  0  0  0  0  0  0  0  0
   26.0330  -20.0277  -12.6614 O   0  0  0  0  0  0  0  0  0  0  0  0
   25.3618  -23.1030  -14.8277 C   0  0  0  0  0  0  0  0  0  0  0  0
   23.9813  -22.4533  -15.0008 C   0  0  1  0  0  0  0  0  0  0  0  0
   23.1224  -23.1978  -14.1972 O   0  0  0  0  0  0  0  0  0  0  0  0
   24.0362  -21.0379  -14.3922 C   0  0  2  0  0  0  0  0  0  0  0  0
   24.1783  -21.3252  -12.9537 N   0  0  0  0  0  0  0  0  0  0  0  0
   22.7523  -20.3339  -14.6289 C   0  0  0  0  0  0  0  0  0  0  0  0
   21.7124  -20.8483  -14.1227 O   0  0  0  0  0  0  0  0  0  0  0  0
   22.6494  -19.1193  -15.3916 N   0  0  0  0  0  0  0  0  0  0  0  0
   23.7156  -18.3513  -15.9782 C   0  0  0  0  0  0  0  0  0  0  0  0
   23.0925  -17.8939  -17.3014 C   0  0  0  0  0  0  0  0  0  0  0  0
   21.7394  -17.4042  -16.7502 C   0  0  0  0  0  0  0  0  0  0  0  0
   21.4015  -18.4628  -15.6927 C   0  0  1  0  0  0  0  0  0  0  0  0
   20.3666  -19.3852  -16.2354 C   0  0  0  0  0  0  0  0  0  0  0  0
   20.7171  -20.5167  -16.9402 O   0  0  0  0  0  0  0  0  0  0  0  0
   19.1639  -19.1182  -16.0420 O   0  0  0  0  0  0  0  0  0  0  0  0
  1  2  1  0
  2  3  1  0
  3  4  1  1
  5  3  1  0
  6  5  2  0
  8  7  1  1
  8 10  1  0
  9  8  1  0
 10 12  1  0
 10 11  1  1
 11  5  1  0
 12 14  1  0
 13 12  2  0
 14 15  1  0
 14 18  1  0
 15 16  1  0
 16 17  1  0
 18 19  1  6
 18 17  1  0
 19 20  1  0
 21 19  2  0
M  END
$$$$
