STP.pdb
     RDKit          3D

 21 21  0  0  1  0  0  0  0  0999 V2000
   15.8183  -14.5607  -16.3492 O   0  0  0  0  0  0  0  0  0  0  0  0
   17.1203  -14.2165  -16.0498 C   0  0  0  0  0  0  0  0  0  0  0  0
   17.9635  -14.1377  -17.3042 C   0  0  2  0  0  0  0  0  0  0  0  0
   18.1335  -15.4874  -17.8075 N   0  0  0  0  0  0  0  0  0  0  0  0
   19.2298  -13.4382  -17.0972 C   0  0  0  0  0  0  0  0  0  0  0  0
   20.2573  -14.0623  -16.7334 O   0  0  0  0  0  0  0  0  0  0  0  0
   20.9559  -11.5102  -19.6426 C   0  0  0  0  0  0  0  0  0  0  0  0
   20.5970  -10.5187  -18.5264 C   0  0  1  0  0  0  0  0  0  0  0  0
   19.2850  -10.1329  -18.7866 O   0  0  0  0  0  0  0  0  0  0  0  0
   20.5722  -11.2872  -17.1901 C   0  0  2  0  0  0  0  0  0  0  0  0
   19.3218  -12.0593  -17.3006 N   0  0  0  0  0  0  0  0  0  0  0  0
   20.4639  -10.3342  -16.0588 C   0  0  0  0  0  0  0  0  0  0  0  0
   19.4117   -9.6332  -15.9960 O   0  0  0  0  0  0  0  0  0  0  0  0
   21.4836  -10.1828  -15.0564 N   0  0  0  0  0  0  0  0  0  0  0  0
   22.6823  -10.9616  -14.8907 C   0  0  0  0  0  0  0  0  0  0  0  0
   23.6995   -9.8991  -14.4611 C   0  0  0  0  0  0  0  0  0  0  0  0
   22.8462   -9.1991  -13.3858 C   0  0  0  0  0  0  0  0  0  0  0  0
   21.4501   -9.1800  -14.0210 C   0  0  1  0  0  0  0  0  0  0  0  0
   21.1637   -7.8123  -14.5347 C   0  0  0  0  0  0  0  0  0  0  0  0
   20.8047   -6.7899  -13.6828 O   0  0  0  0  0  0  0  0  0  0  0  0
   21.2536   -7.6006  -15.7604 O   0  0  0  0  0  0  0  0  0  0  0  0
  1  2  1  0
  2  3  1  0
  3  4  1  1
  5  3  1  0
  6  5  2  0
  8  7  1  6
  8 10  1  0
  9  8  1  0
 10 12  1  0
 10 11  1  6
 11  5  1  0
 12 14  1  0
 13 12  2  0
 14 15  1  0
 14 18  1  0
 15 16  1  0
 16 17  1  0
 18 19  1  6
 18 17  1  0
 19 20  1  0
 21 19  2  0
M  END
$$$$
