STP.pdb
     RDKit          3D

 21 21  0  0  1  0  0  0  0  0999 V2000
   13.6762  -11.7135  -15.6976 O   0  0  0  0  0  0  0  0  0  0  0  0
   15.0143  -11.5202  -15.4231 C   0  0  0  0  0  0  0  0  0  0  0  0
   15.8767  -12.4655  -16.2314 C   0  0  2  0  0  0  0  0  0  0  0  0
   15.5547  -13.8185  -15.8193 N   0  0  0  0  0  0  0  0  0  0  0  0
   17.3025  -12.1599  -16.1356 C   0  0  0  0  0  0  0  0  0  0  0  0
   18.0601  -12.8475  -15.4070 O   0  0  0  0  0  0  0  0  0  0  0  0
   19.7180  -12.1135  -18.8627 C   0  0  0  0  0  0  0  0  0  0  0  0
   19.6179  -10.6737  -18.3384 C   0  0  1  0  0  0  0  0  0  0  0  0
   18.5065  -10.1283  -18.9749 O   0  0  0  0  0  0  0  0  0  0  0  0
   19.2793  -10.7316  -16.8355 C   0  0  2  0  0  0  0  0  0  0  0  0
   17.8512  -11.0950  -16.8541 N   0  0  0  0  0  0  0  0  0  0  0  0
   19.4373   -9.3878  -16.2278 C   0  0  0  0  0  0  0  0  0  0  0  0
   18.6739   -8.4715  -16.6519 O   0  0  0  0  0  0  0  0  0  0  0  0
   20.4002   -9.0966  -15.2004 N   0  0  0  0  0  0  0  0  0  0  0  0
   21.2834  -10.0147  -14.5313 C   0  0  0  0  0  0  0  0  0  0  0  0
   22.5594   -9.1801  -14.3784 C   0  0  0  0  0  0  0  0  0  0  0  0
   21.9152   -7.8900  -13.8350 C   0  0  0  0  0  0  0  0  0  0  0  0
   20.6302   -7.7777  -14.6653 C   0  0  1  0  0  0  0  0  0  0  0  0
   20.8146   -6.7395  -15.7162 C   0  0  0  0  0  0  0  0  0  0  0  0
   20.7927   -5.3967  -15.4056 O   0  0  0  0  0  0  0  0  0  0  0  0
   20.9911   -7.1042  -16.8957 O   0  0  0  0  0  0  0  0  0  0  0  0
  1  2  1  0
  2  3  1  0
  3  4  1  1
  5  3  1  0
  6  5  2  0
  8  7  1  6
  8 10  1  0
  9  8  1  0
 10 12  1  0
 10 11  1  6
 11  5  1  0
 12 14  1  0
 13 12  2  0
 14 15  1  0
 14 18  1  0
 15 16  1  0
 16 17  1  0
 18 19  1  6
 18 17  1  0
 19 20  1  0
 21 19  2  0
M  END
$$$$
