STP.pdb
     RDKit          3D

 21 21  0  0  1  0  0  0  0  0999 V2000
   15.5639   -7.3287  -15.4510 O   0  0  0  0  0  0  0  0  0  0  0  0
   15.6603   -8.2408  -16.4816 C   0  0  0  0  0  0  0  0  0  0  0  0
   16.2806   -9.5362  -16.0042 C   0  0  2  0  0  0  0  0  0  0  0  0
   15.3671  -10.1386  -15.0519 N   0  0  0  0  0  0  0  0  0  0  0  0
   17.6305   -9.3604  -15.4729 C   0  0  0  0  0  0  0  0  0  0  0  0
   17.8684   -9.5322  -14.2516 O   0  0  0  0  0  0  0  0  0  0  0  0
   22.3572   -9.3856  -16.7376 C   0  0  0  0  0  0  0  0  0  0  0  0
   20.8547   -9.5726  -16.9932 C   0  0  1  0  0  0  0  0  0  0  0  0
   20.6198  -10.9335  -16.8183 O   0  0  0  0  0  0  0  0  0  0  0  0
   20.0824   -8.8458  -15.8743 C   0  0  2  0  0  0  0  0  0  0  0  0
   18.6842   -8.9973  -16.3149 N   0  0  0  0  0  0  0  0  0  0  0  0
   20.4415   -7.4068  -15.8623 C   0  0  0  0  0  0  0  0  0  0  0  0
   20.4003   -6.7945  -16.9694 O   0  0  0  0  0  0  0  0  0  0  0  0
   20.8233   -6.7005  -14.6694 N   0  0  0  0  0  0  0  0  0  0  0  0
   20.7687   -7.1685  -13.3097 C   0  0  0  0  0  0  0  0  0  0  0  0
   22.0427   -6.5641  -12.7099 C   0  0  0  0  0  0  0  0  0  0  0  0
   21.8783   -5.1282  -13.2445 C   0  0  0  0  0  0  0  0  0  0  0  0
   21.3406   -5.3547  -14.6632 C   0  0  1  0  0  0  0  0  0  0  0  0
   22.4401   -5.1418  -15.6442 C   0  0  0  0  0  0  0  0  0  0  0  0
   22.8300   -3.8730  -16.0158 O   0  0  0  0  0  0  0  0  0  0  0  0
   23.0108   -6.1377  -16.1315 O   0  0  0  0  0  0  0  0  0  0  0  0
  1  2  1  0
  2  3  1  0
  3  4  1  1
  5  3  1  0
  6  5  2  0
  8  7  1  1
  8 10  1  0
  9  8  1  0
 10 12  1  0
 10 11  1  6
 11  5  1  0
 12 14  1  0
 13 12  2  0
 14 15  1  0
 14 18  1  0
 15 16  1  0
 16 17  1  0
 18 19  1  6
 18 17  1  0
 19 20  1  0
 21 19  2  0
M  END
$$$$
