STP.pdb
     RDKit          3D

 21 21  0  0  1  0  0  0  0  0999 V2000
   19.8926  -18.9977  -14.3465 O   0  0  0  0  0  0  0  0  0  0  0  0
   20.1381  -20.1768  -15.0193 C   0  0  0  0  0  0  0  0  0  0  0  0
   21.0936  -21.0567  -14.2424 C   0  0  2  0  0  0  0  0  0  0  0  0
   20.4253  -21.4633  -13.0209 N   0  0  0  0  0  0  0  0  0  0  0  0
   22.3883  -20.4220  -14.0047 C   0  0  0  0  0  0  0  0  0  0  0  0
   22.6355  -19.8546  -12.9117 O   0  0  0  0  0  0  0  0  0  0  0  0
   25.8187  -21.7287  -13.6933 C   0  0  0  0  0  0  0  0  0  0  0  0
   25.6492  -21.0174  -15.0436 C   0  0  1  0  0  0  0  0  0  0  0  0
   24.9676  -21.9230  -15.8518 O   0  0  0  0  0  0  0  0  0  0  0  0
   24.7064  -19.8150  -14.8388 C   0  0  2  0  0  0  0  0  0  0  0  0
   23.3778  -20.4344  -14.9906 N   0  0  0  0  0  0  0  0  0  0  0  0
   24.9116  -18.8197  -15.9191 C   0  0  0  0  0  0  0  0  0  0  0  0
   24.5300  -19.1453  -17.0812 O   0  0  0  0  0  0  0  0  0  0  0  0
   25.5116  -17.5315  -15.6993 N   0  0  0  0  0  0  0  0  0  0  0  0
   25.9690  -16.9705  -14.4556 C   0  0  0  0  0  0  0  0  0  0  0  0
   27.2348  -16.2221  -14.8864 C   0  0  0  0  0  0  0  0  0  0  0  0
   26.6550  -15.4985  -16.1172 C   0  0  0  0  0  0  0  0  0  0  0  0
   25.7524  -16.5683  -16.7448 C   0  0  1  0  0  0  0  0  0  0  0  0
   26.4339  -17.1484  -17.9346 C   0  0  0  0  0  0  0  0  0  0  0  0
   26.4726  -16.4729  -19.1355 O   0  0  0  0  0  0  0  0  0  0  0  0
   26.9757  -18.2667  -17.8299 O   0  0  0  0  0  0  0  0  0  0  0  0
  1  2  1  0
  2  3  1  0
  3  4  1  1
  5  3  1  0
  6  5  2  0
  8  7  1  1
  8 10  1  0
  9  8  1  0
 10 12  1  0
 10 11  1  6
 11  5  1  0
 12 14  1  0
 13 12  2  0
 14 15  1  0
 14 18  1  0
 15 16  1  0
 16 17  1  0
 18 19  1  6
 18 17  1  0
 19 20  1  0
 21 19  2  0
M  END
$$$$
