STP.pdb
     RDKit          3D

 21 21  0  0  1  0  0  0  0  0999 V2000
   28.8659  -21.8202  -18.5577 O   0  0  0  0  0  0  0  0  0  0  0  0
   28.4969  -21.2540  -17.3550 C   0  0  0  0  0  0  0  0  0  0  0  0
   27.6691  -20.0060  -17.5734 C   0  0  2  0  0  0  0  0  0  0  0  0
   28.4555  -19.0894  -18.3768 N   0  0  0  0  0  0  0  0  0  0  0  0
   27.1922  -19.4123  -16.3261 C   0  0  0  0  0  0  0  0  0  0  0  0
   27.8453  -18.5038  -15.7552 O   0  0  0  0  0  0  0  0  0  0  0  0
   25.0314  -17.1386  -15.7699 C   0  0  0  0  0  0  0  0  0  0  0  0
   24.3305  -18.3275  -15.0969 C   0  0  1  0  0  0  0  0  0  0  0  0
   23.7140  -19.0238  -16.1327 O   0  0  0  0  0  0  0  0  0  0  0  0
   25.4137  -19.2623  -14.5227 C   0  0  2  0  0  0  0  0  0  0  0  0
   25.9985  -19.8446  -15.7437 N   0  0  0  0  0  0  0  0  0  0  0  0
   24.7823  -20.3367  -13.7186 C   0  0  0  0  0  0  0  0  0  0  0  0
   23.9009  -21.0416  -14.2918 O   0  0  0  0  0  0  0  0  0  0  0  0
   25.1272  -20.6004  -12.3478 N   0  0  0  0  0  0  0  0  0  0  0  0
   26.1239  -19.9424  -11.5452 C   0  0  0  0  0  0  0  0  0  0  0  0
   25.4431  -19.8803  -10.1737 C   0  0  0  0  0  0  0  0  0  0  0  0
   24.9559  -21.3404  -10.1031 C   0  0  0  0  0  0  0  0  0  0  0  0
   24.4934  -21.6128  -11.5402 C   0  0  1  0  0  0  0  0  0  0  0  0
   23.0064  -21.5640  -11.5943 C   0  0  0  0  0  0  0  0  0  0  0  0
   22.3459  -20.4697  -12.1102 O   0  0  0  0  0  0  0  0  0  0  0  0
   22.3579  -22.5374  -11.1618 O   0  0  0  0  0  0  0  0  0  0  0  0
  1  2  1  0
  2  3  1  0
  3  4  1  1
  5  3  1  0
  6  5  2  0
  8  7  1  6
  8 10  1  0
  9  8  1  0
 10 12  1  0
 10 11  1  6
 11  5  1  0
 12 14  1  0
 13 12  2  0
 14 15  1  0
 14 18  1  0
 15 16  1  0
 16 17  1  0
 18 19  1  1
 18 17  1  0
 19 20  1  0
 21 19  2  0
M  END
$$$$
