STP.pdb
     RDKit          3D

 21 21  0  0  1  0  0  0  0  0999 V2000
   15.4716  -10.1802  -16.8990 O   0  0  0  0  0  0  0  0  0  0  0  0
   16.3560   -9.8998  -15.8781 C   0  0  0  0  0  0  0  0  0  0  0  0
   17.6008  -10.7536  -15.9879 C   0  0  2  0  0  0  0  0  0  0  0  0
   17.2643  -12.0865  -15.5250 N   0  0  0  0  0  0  0  0  0  0  0  0
   18.7506  -10.1778  -15.2936 C   0  0  0  0  0  0  0  0  0  0  0  0
   18.8940  -10.3258  -14.0545 O   0  0  0  0  0  0  0  0  0  0  0  0
   22.2631  -10.8827  -15.4705 C   0  0  0  0  0  0  0  0  0  0  0  0
   22.0570   -9.4973  -16.0997 C   0  0  1  0  0  0  0  0  0  0  0  0
   21.6265   -9.7455  -17.4000 O   0  0  0  0  0  0  0  0  0  0  0  0
   20.8850   -8.8084  -15.3727 C   0  0  2  0  0  0  0  0  0  0  0  0
   19.7141   -9.4504  -15.9961 N   0  0  0  0  0  0  0  0  0  0  0  0
   20.8760   -7.3585  -15.6854 C   0  0  0  0  0  0  0  0  0  0  0  0
   20.7164   -7.0327  -16.8982 O   0  0  0  0  0  0  0  0  0  0  0  0
   21.0364   -6.3366  -14.6867 N   0  0  0  0  0  0  0  0  0  0  0  0
   21.1012   -6.4994  -13.2584 C   0  0  0  0  0  0  0  0  0  0  0  0
   22.1525   -5.4570  -12.8631 C   0  0  0  0  0  0  0  0  0  0  0  0
   21.6017   -4.2692  -13.6758 C   0  0  0  0  0  0  0  0  0  0  0  0
   21.1606   -4.9319  -14.9871 C   0  0  1  0  0  0  0  0  0  0  0  0
   22.1669   -4.6426  -16.0454 C   0  0  0  0  0  0  0  0  0  0  0  0
   22.1825   -3.4320  -16.7044 O   0  0  0  0  0  0  0  0  0  0  0  0
   23.0057   -5.5198  -16.3319 O   0  0  0  0  0  0  0  0  0  0  0  0
  1  2  1  0
  2  3  1  0
  3  4  1  1
  5  3  1  0
  6  5  2  0
  8  7  1  1
  8 10  1  0
  9  8  1  0
 10 12  1  0
 10 11  1  6
 11  5  1  0
 12 14  1  0
 13 12  2  0
 14 15  1  0
 14 18  1  0
 15 16  1  0
 16 17  1  0
 18 19  1  6
 18 17  1  0
 19 20  1  0
 21 19  2  0
M  END
$$$$
