STP.pdb
     RDKit          3D

 21 21  0  0  1  0  0  0  0  0999 V2000
   24.7632  -24.9114  -18.5660 O   0  0  0  0  0  0  0  0  0  0  0  0
   24.9864  -23.9659  -17.5865 C   0  0  0  0  0  0  0  0  0  0  0  0
   26.2700  -24.2523  -16.8375 C   0  0  2  0  0  0  0  0  0  0  0  0
   26.3029  -25.6726  -16.5447 N   0  0  0  0  0  0  0  0  0  0  0  0
   26.4359  -23.4172  -15.6497 C   0  0  0  0  0  0  0  0  0  0  0  0
   26.5749  -23.9349  -14.5138 O   0  0  0  0  0  0  0  0  0  0  0  0
   27.2089  -18.7159  -14.2372 C   0  0  0  0  0  0  0  0  0  0  0  0
   26.9826  -19.7842  -15.3168 C   0  0  1  0  0  0  0  0  0  0  0  0
   28.2279  -19.9771  -15.9083 O   0  0  0  0  0  0  0  0  0  0  0  0
   26.6197  -21.1079  -14.6148 C   0  0  2  0  0  0  0  0  0  0  0  0
   26.4429  -22.0244  -15.7553 N   0  0  0  0  0  0  0  0  0  0  0  0
   25.3309  -20.9636  -13.8950 C   0  0  0  0  0  0  0  0  0  0  0  0
   24.3074  -20.7066  -14.5941 O   0  0  0  0  0  0  0  0  0  0  0  0
   25.2054  -21.1029  -12.4694 N   0  0  0  0  0  0  0  0  0  0  0  0
   26.2460  -21.3734  -11.5130 C   0  0  0  0  0  0  0  0  0  0  0  0
   25.8229  -20.5057  -10.3230 C   0  0  0  0  0  0  0  0  0  0  0  0
   24.3366  -20.9095  -10.2732 C   0  0  0  0  0  0  0  0  0  0  0  0
   23.9570  -20.9868  -11.7575 C   0  0  1  0  0  0  0  0  0  0  0  0
   23.1780  -19.7735  -12.1284 C   0  0  0  0  0  0  0  0  0  0  0  0
   21.8797  -19.5994  -11.6992 O   0  0  0  0  0  0  0  0  0  0  0  0
   23.7213  -18.9061  -12.8409 O   0  0  0  0  0  0  0  0  0  0  0  0
  1  2  1  0
  2  3  1  0
  3  4  1  1
  5  3  1  0
  6  5  2  0
  8  7  1  1
  8 10  1  0
  9  8  1  0
 10 12  1  0
 10 11  1  6
 11  5  1  0
 12 14  1  0
 13 12  2  0
 14 15  1  0
 14 18  1  0
 15 16  1  0
 16 17  1  0
 18 19  1  6
 18 17  1  0
 19 20  1  0
 21 19  2  0
M  END
$$$$
