STP.pdb
     RDKit          3D

 21 21  0  0  1  0  0  0  0  0999 V2000
   27.2385  -32.6028   -7.7773 O   0  0  0  0  0  0  0  0  0  0  0  0
   26.2574  -32.2512   -8.6813 C   0  0  0  0  0  0  0  0  0  0  0  0
   25.2742  -33.3838   -8.8838 C   0  0  2  0  0  0  0  0  0  0  0  0
   24.3668  -32.9961   -9.9470 N   0  0  0  0  0  0  0  0  0  0  0  0
   24.5860  -33.7686   -7.6533 C   0  0  0  0  0  0  0  0  0  0  0  0
   23.5044  -33.2219   -7.3234 O   0  0  0  0  0  0  0  0  0  0  0  0
   23.0739  -36.8351   -6.7894 C   0  0  0  0  0  0  0  0  0  0  0  0
   24.2628  -36.6993   -5.8270 C   0  0  1  0  0  0  0  0  0  0  0  0
   25.3675  -37.1514   -6.5432 O   0  0  0  0  0  0  0  0  0  0  0  0
   24.4962  -35.1991   -5.5597 C   0  0  2  0  0  0  0  0  0  0  0  0
   25.1191  -34.7539   -6.8189 N   0  0  0  0  0  0  0  0  0  0  0  0
   25.4601  -35.0263   -4.4458 C   0  0  0  0  0  0  0  0  0  0  0  0
   26.6242  -35.4941   -4.6147 O   0  0  0  0  0  0  0  0  0  0  0  0
   25.1290  -34.3628   -3.2138 N   0  0  0  0  0  0  0  0  0  0  0  0
   23.8859  -33.7326   -2.8561 C   0  0  0  0  0  0  0  0  0  0  0  0
   23.7558  -34.0961   -1.3731 C   0  0  0  0  0  0  0  0  0  0  0  0
   25.1860  -33.7314   -0.9305 C   0  0  0  0  0  0  0  0  0  0  0  0
   26.0402  -34.2258   -2.1048 C   0  0  1  0  0  0  0  0  0  0  0  0
   26.7028  -35.5039   -1.7255 C   0  0  0  0  0  0  0  0  0  0  0  0
   26.2915  -36.7071   -2.2575 O   0  0  0  0  0  0  0  0  0  0  0  0
   27.6461  -35.4720   -0.9104 O   0  0  0  0  0  0  0  0  0  0  0  0
  1  2  1  0
  2  3  1  0
  3  4  1  6
  5  3  1  0
  6  5  2  0
  8  7  1  6
  8 10  1  0
  9  8  1  0
 10 12  1  0
 10 11  1  6
 11  5  1  0
 12 14  1  0
 13 12  2  0
 14 15  1  0
 14 18  1  0
 15 16  1  0
 16 17  1  0
 18 19  1  1
 18 17  1  0
 19 20  1  0
 21 19  2  0
M  END
$$$$
