STP.pdb
     RDKit          3D

 21 21  0  0  1  0  0  0  0  0999 V2000
   25.5662  -24.9243  -16.0613 O   0  0  0  0  0  0  0  0  0  0  0  0
   25.6949  -24.1827  -14.9051 C   0  0  0  0  0  0  0  0  0  0  0  0
   25.5818  -22.7015  -15.1945 C   0  0  2  0  0  0  0  0  0  0  0  0
   26.1443  -22.4644  -16.5103 N   0  0  0  0  0  0  0  0  0  0  0  0
   26.1832  -21.8695  -14.1544 C   0  0  0  0  0  0  0  0  0  0  0  0
   27.2035  -21.1773  -14.3944 O   0  0  0  0  0  0  0  0  0  0  0  0
   25.9061  -19.4121  -14.0023 C   0  0  0  0  0  0  0  0  0  0  0  0
   25.2674  -19.5258  -12.6106 C   0  0  1  0  0  0  0  0  0  0  0  0
   23.9299  -19.8323  -12.8451 O   0  0  0  0  0  0  0  0  0  0  0  0
   25.8801  -20.7483  -11.8986 C   0  0  2  0  0  0  0  0  0  0  0  0
   25.6336  -21.8280  -12.8709 N   0  0  0  0  0  0  0  0  0  0  0  0
   25.1353  -21.0328  -10.6479 C   0  0  0  0  0  0  0  0  0  0  0  0
   23.9879  -21.5538  -10.7676 O   0  0  0  0  0  0  0  0  0  0  0  0
   25.6567  -20.7469   -9.3387 N   0  0  0  0  0  0  0  0  0  0  0  0
   26.9153  -20.1354   -9.0030 C   0  0  0  0  0  0  0  0  0  0  0  0
   26.5393  -19.2649   -7.7993 C   0  0  0  0  0  0  0  0  0  0  0  0
   25.7351  -20.3160   -7.0099 C   0  0  0  0  0  0  0  0  0  0  0  0
   24.9595  -21.0473   -8.1129 C   0  0  1  0  0  0  0  0  0  0  0  0
   23.5457  -20.5812   -8.1099 C   0  0  0  0  0  0  0  0  0  0  0  0
   22.6372  -21.0613   -7.1912 O   0  0  0  0  0  0  0  0  0  0  0  0
   23.1890  -19.7407   -8.9594 O   0  0  0  0  0  0  0  0  0  0  0  0
  1  2  1  0
  2  3  1  0
  3  4  1  6
  5  3  1  0
  6  5  2  0
  8  7  1  6
  8 10  1  0
  9  8  1  0
 10 12  1  0
 10 11  1  6
 11  5  1  0
 12 14  1  0
 13 12  2  0
 14 15  1  0
 14 18  1  0
 15 16  1  0
 16 17  1  0
 18 19  1  6
 18 17  1  0
 19 20  1  0
 21 19  2  0
M  END
$$$$
