STP.pdb
     RDKit          3D

 21 21  0  0  1  0  0  0  0  0999 V2000
   19.0769  -13.8749  -14.9145 O   0  0  0  0  0  0  0  0  0  0  0  0
   19.5347  -12.8519  -15.7190 C   0  0  0  0  0  0  0  0  0  0  0  0
   18.4093  -11.9132  -16.0971 C   0  0  2  0  0  0  0  0  0  0  0  0
   17.5083  -12.6351  -16.9752 N   0  0  0  0  0  0  0  0  0  0  0  0
   18.8838  -10.6552  -16.6696 C   0  0  0  0  0  0  0  0  0  0  0  0
   19.2482  -10.5917  -17.8699 O   0  0  0  0  0  0  0  0  0  0  0  0
   17.4850   -7.2312  -15.0545 C   0  0  0  0  0  0  0  0  0  0  0  0
   18.0162   -7.4239  -16.4823 C   0  0  1  0  0  0  0  0  0  0  0  0
   18.3086   -6.1424  -16.9406 O   0  0  0  0  0  0  0  0  0  0  0  0
   19.3585   -8.1775  -16.3984 C   0  0  2  0  0  0  0  0  0  0  0  0
   18.9412   -9.4968  -15.8911 N   0  0  0  0  0  0  0  0  0  0  0  0
   20.2450   -7.5256  -15.4039 C   0  0  0  0  0  0  0  0  0  0  0  0
   19.8302   -7.4760  -14.2090 O   0  0  0  0  0  0  0  0  0  0  0  0
   21.5255   -6.9640  -15.7391 N   0  0  0  0  0  0  0  0  0  0  0  0
   22.1119   -6.8184  -17.0451 C   0  0  0  0  0  0  0  0  0  0  0  0
   22.8198   -5.4642  -16.9308 C   0  0  0  0  0  0  0  0  0  0  0  0
   23.5203   -5.6951  -15.5779 C   0  0  0  0  0  0  0  0  0  0  0  0
   22.4528   -6.4407  -14.7669 C   0  0  1  0  0  0  0  0  0  0  0  0
   21.8241   -5.4987  -13.8007 C   0  0  0  0  0  0  0  0  0  0  0  0
   22.4235   -5.2074  -12.5941 O   0  0  0  0  0  0  0  0  0  0  0  0
   20.7350   -4.9700  -14.1000 O   0  0  0  0  0  0  0  0  0  0  0  0
  1  2  1  0
  2  3  1  0
  3  4  1  6
  5  3  1  0
  6  5  2  0
  8  7  1  1
  8 10  1  0
  9  8  1  0
 10 12  1  0
 10 11  1  1
 11  5  1  0
 12 14  1  0
 13 12  2  0
 14 15  1  0
 14 18  1  0
 15 16  1  0
 16 17  1  0
 18 19  1  1
 18 17  1  0
 19 20  1  0
 21 19  2  0
M  END
$$$$
