STP.pdb
     RDKit          3D

 21 21  0  0  1  0  0  0  0  0999 V2000
   18.4120   -9.9393  -18.6628 O   0  0  0  0  0  0  0  0  0  0  0  0
   19.4995  -10.5702  -19.2308 C   0  0  0  0  0  0  0  0  0  0  0  0
   20.0242  -11.6660  -18.3283 C   0  0  2  0  0  0  0  0  0  0  0  0
   19.0221  -12.7134  -18.2769 N   0  0  0  0  0  0  0  0  0  0  0  0
   20.4140  -11.1788  -17.0068 C   0  0  0  0  0  0  0  0  0  0  0  0
   19.7329  -11.4621  -15.9902 O   0  0  0  0  0  0  0  0  0  0  0  0
   23.8439  -11.5507  -15.3708 C   0  0  0  0  0  0  0  0  0  0  0  0
   23.5469  -10.0708  -15.6530 C   0  0  1  0  0  0  0  0  0  0  0  0
   23.8899   -9.8762  -16.9880 O   0  0  0  0  0  0  0  0  0  0  0  0
   22.0230   -9.8590  -15.5553 C   0  0  2  0  0  0  0  0  0  0  0  0
   21.5539  -10.3871  -16.8487 N   0  0  0  0  0  0  0  0  0  0  0  0
   21.7164   -8.4101  -15.4749 C   0  0  0  0  0  0  0  0  0  0  0  0
   22.1668   -7.6746  -16.4014 O   0  0  0  0  0  0  0  0  0  0  0  0
   20.9450   -7.8264  -14.4110 N   0  0  0  0  0  0  0  0  0  0  0  0
   20.2691   -8.5028  -13.3357 C   0  0  0  0  0  0  0  0  0  0  0  0
   20.5021   -7.5495  -12.1589 C   0  0  0  0  0  0  0  0  0  0  0  0
   20.1206   -6.2329  -12.8629 C   0  0  0  0  0  0  0  0  0  0  0  0
   20.7259   -6.4092  -14.2614 C   0  0  1  0  0  0  0  0  0  0  0  0
   21.9758   -5.6063  -14.3596 C   0  0  0  0  0  0  0  0  0  0  0  0
   21.9371   -4.2303  -14.4301 O   0  0  0  0  0  0  0  0  0  0  0  0
   23.0715   -6.2014  -14.3775 O   0  0  0  0  0  0  0  0  0  0  0  0
  1  2  1  0
  2  3  1  0
  3  4  1  1
  5  3  1  0
  6  5  2  0
  8  7  1  6
  8 10  1  0
  9  8  1  0
 10 12  1  0
 10 11  1  6
 11  5  1  0
 12 14  1  0
 13 12  2  0
 14 15  1  0
 14 18  1  0
 15 16  1  0
 16 17  1  0
 18 19  1  1
 18 17  1  0
 19 20  1  0
 21 19  2  0
M  END
$$$$
