STP.pdb
     RDKit          3D

 21 21  0  0  1  0  0  0  0  0999 V2000
   17.0218  -11.6341  -21.4391 O   0  0  0  0  0  0  0  0  0  0  0  0
   17.5551  -11.3122  -20.2081 C   0  0  0  0  0  0  0  0  0  0  0  0
   18.2702  -12.4988  -19.5988 C   0  0  2  0  0  0  0  0  0  0  0  0
   17.2763  -13.5177  -19.3197 N   0  0  0  0  0  0  0  0  0  0  0  0
   19.0719  -12.1431  -18.4299 C   0  0  0  0  0  0  0  0  0  0  0  0
   18.8792  -12.7044  -17.3229 O   0  0  0  0  0  0  0  0  0  0  0  0
   22.6753  -12.4981  -18.2785 C   0  0  0  0  0  0  0  0  0  0  0  0
   22.3770  -10.9986  -18.1353 C   0  0  1  0  0  0  0  0  0  0  0  0
   22.2114  -10.5321  -19.4364 O   0  0  0  0  0  0  0  0  0  0  0  0
   21.0118  -10.8444  -17.4360 C   0  0  2  0  0  0  0  0  0  0  0  0
   20.0697  -11.1700  -18.5216 N   0  0  0  0  0  0  0  0  0  0  0  0
   20.8125   -9.4355  -17.0174 C   0  0  0  0  0  0  0  0  0  0  0  0
   20.9833   -8.5439  -17.8995 O   0  0  0  0  0  0  0  0  0  0  0  0
   20.4408   -9.0562  -15.6812 N   0  0  0  0  0  0  0  0  0  0  0  0
   20.1556   -9.9184  -14.5650 C   0  0  0  0  0  0  0  0  0  0  0  0
   20.7710   -9.1441  -13.3946 C   0  0  0  0  0  0  0  0  0  0  0  0
   20.1856   -7.7555  -13.7169 C   0  0  0  0  0  0  0  0  0  0  0  0
   20.2921   -7.6898  -15.2457 C   0  0  1  0  0  0  0  0  0  0  0  0
   21.4435   -6.8236  -15.6204 C   0  0  0  0  0  0  0  0  0  0  0  0
   21.3791   -5.4531  -15.4877 O   0  0  0  0  0  0  0  0  0  0  0  0
   22.4795   -7.3598  -16.0611 O   0  0  0  0  0  0  0  0  0  0  0  0
  1  2  1  0
  2  3  1  0
  3  4  1  1
  5  3  1  0
  6  5  2  0
  8  7  1  6
  8 10  1  0
  9  8  1  0
 10 12  1  0
 10 11  1  6
 11  5  1  0
 12 14  1  0
 13 12  2  0
 14 15  1  0
 14 18  1  0
 15 16  1  0
 16 17  1  0
 18 19  1  1
 18 17  1  0
 19 20  1  0
 21 19  2  0
M  END
$$$$
