HPH.pdb
     RDKit          3D

 28 30  0  0  1  0  0  0  0  0999 V2000
   21.1080  -13.2629  -18.6916 N   0  0  0  0  0  0  0  0  0  0  0  0
   20.2611  -12.1360  -19.0809 C   0  0  1  0  0  0  0  0  0  0  0  0
   18.8553  -12.5469  -18.6775 C   0  0  0  0  0  0  0  0  0  0  0  0
   18.3630  -13.6786  -19.4824 C   0  0  0  0  0  0  0  0  0  0  0  0
   17.7207  -13.5778  -20.6907 C   0  0  0  0  0  0  0  0  0  0  0  0
   17.4298  -14.8115  -21.1095 N   0  0  0  0  0  0  0  0  0  0  0  0
   17.8681  -15.7032  -20.2024 C   0  0  0  0  0  0  0  0  0  0  0  0
   18.4462  -14.9815  -19.1964 N   0  0  0  0  0  0  0  0  0  0  0  0
   20.7455  -10.9251  -18.4296 C   0  0  0  0  0  0  0  0  0  0  0  0
   20.9834  -10.9906  -17.1763 O   0  0  0  0  0  0  0  0  0  0  0  0
   20.9852   -9.6611  -19.0560 N   0  0  0  0  0  0  0  0  0  0  0  0
   20.8659   -9.4833  -20.4821 C   0  0  0  0  0  0  0  0  0  0  0  0
   20.9732   -8.0155  -20.7514 C   0  0  0  0  0  0  0  0  0  0  0  0
   21.8324   -7.5196  -19.5752 C   0  0  0  0  0  0  0  0  0  0  0  0
   21.3434   -8.4144  -18.4614 C   0  0  1  0  0  0  0  0  0  0  0  0
   20.2565   -7.7987  -17.6746 C   0  0  0  0  0  0  0  0  0  0  0  0
   19.0721   -8.0942  -17.9819 O   0  0  0  0  0  0  0  0  0  0  0  0
   20.4431   -6.8966  -16.5938 N   0  0  0  0  0  0  0  0  0  0  0  0
   19.2949   -6.3803  -15.8330 C   0  0  1  0  0  0  0  0  0  0  0  0
   18.7184   -7.5428  -15.0801 C   0  0  0  0  0  0  0  0  0  0  0  0
   19.6296   -8.0996  -14.0525 C   0  0  0  0  0  0  0  0  0  0  0  0
   20.8714   -8.6229  -14.3049 C   0  0  0  0  0  0  0  0  0  0  0  0
   21.4065   -9.0288  -13.1486 N   0  0  0  0  0  0  0  0  0  0  0  0
   20.5138   -8.7655  -12.1754 C   0  0  0  0  0  0  0  0  0  0  0  0
   19.4299   -8.1975  -12.7352 N   0  0  0  0  0  0  0  0  0  0  0  0
   19.7442   -5.3634  -14.8525 C   0  0  0  0  0  0  0  0  0  0  0  0
   21.0831   -5.0834  -14.6201 O   0  0  0  0  0  0  0  0  0  0  0  0
   18.8888   -4.7201  -14.1970 O   0  0  0  0  0  0  0  0  0  0  0  0
  2  9  1  0
  2  1  1  1
  3  2  1  0
  4  3  1  0
  4  5  2  0
  6  5  1  0
  7  6  1  0
  8  7  2  0
  8  4  1  0
  9 10  2  0
 11  9  1  0
 12 11  1  0
 13 12  1  0
 13 14  1  0
 14 15  1  0
 15 11  1  0
 15 16  1  6
 17 16  2  0
 18 16  1  0
 19 18  1  0
 19 26  1  0
 19 20  1  1
 21 20  1  0
 21 22  2  0
 23 22  1  0
 24 23  1  0
 25 24  2  0
 25 21  1  0
 26 27  1  0
 28 26  2  0
M  END
$$$$
