HPH.pdb
     RDKit          3D

 28 30  0  0  1  0  0  0  0  0999 V2000
   24.4290  -15.9314  -19.2318 N   0  0  0  0  0  0  0  0  0  0  0  0
   24.3531  -15.8230  -17.7754 C   0  0  1  0  0  0  0  0  0  0  0  0
   23.0026  -15.1835  -17.5017 C   0  0  0  0  0  0  0  0  0  0  0  0
   22.9492  -13.7904  -17.9788 C   0  0  0  0  0  0  0  0  0  0  0  0
   23.4312  -12.6974  -17.3037 C   0  0  0  0  0  0  0  0  0  0  0  0
   23.2020  -11.6149  -18.0504 N   0  0  0  0  0  0  0  0  0  0  0  0
   22.5853  -11.9828  -19.1881 C   0  0  0  0  0  0  0  0  0  0  0  0
   22.4357  -13.3396  -19.1274 N   0  0  0  0  0  0  0  0  0  0  0  0
   24.5241  -17.1457  -17.1869 C   0  0  0  0  0  0  0  0  0  0  0  0
   23.8483  -18.1033  -17.6947 O   0  0  0  0  0  0  0  0  0  0  0  0
   25.3796  -17.4839  -16.0908 N   0  0  0  0  0  0  0  0  0  0  0  0
   26.2047  -16.4984  -15.4368 C   0  0  0  0  0  0  0  0  0  0  0  0
   26.7879  -17.1508  -14.2232 C   0  0  0  0  0  0  0  0  0  0  0  0
   26.8300  -18.6350  -14.6265 C   0  0  0  0  0  0  0  0  0  0  0  0
   25.5720  -18.7464  -15.4543 C   0  0  1  0  0  0  0  0  0  0  0  0
   24.4094  -19.1945  -14.6625 C   0  0  0  0  0  0  0  0  0  0  0  0
   23.7818  -18.3260  -14.0019 O   0  0  0  0  0  0  0  0  0  0  0  0
   23.9414  -20.5332  -14.5879 N   0  0  0  0  0  0  0  0  0  0  0  0
   22.7739  -20.8812  -13.7636 C   0  0  1  0  0  0  0  0  0  0  0  0
   23.0483  -20.3583  -12.3845 C   0  0  0  0  0  0  0  0  0  0  0  0
   24.3520  -20.7926  -11.8297 C   0  0  0  0  0  0  0  0  0  0  0  0
   25.2524  -21.5975  -12.4785 C   0  0  0  0  0  0  0  0  0  0  0  0
   26.3112  -21.7814  -11.6827 N   0  0  0  0  0  0  0  0  0  0  0  0
   26.0838  -21.1007  -10.5432 C   0  0  0  0  0  0  0  0  0  0  0  0
   24.8843  -20.4986  -10.6400 N   0  0  0  0  0  0  0  0  0  0  0  0
   21.5589  -20.2113  -14.2855 C   0  0  0  0  0  0  0  0  0  0  0  0
   21.5805  -19.3662  -15.3858 O   0  0  0  0  0  0  0  0  0  0  0  0
   20.4564  -20.4070  -13.7188 O   0  0  0  0  0  0  0  0  0  0  0  0
  2  9  1  0
  2  1  1  6
  3  2  1  0
  4  3  1  0
  4  5  2  0
  6  5  1  0
  7  6  1  0
  8  7  2  0
  8  4  1  0
  9 10  2  0
 11  9  1  0
 12 11  1  0
 13 12  1  0
 13 14  1  0
 14 15  1  0
 15 11  1  0
 15 16  1  1
 17 16  2  0
 18 16  1  0
 19 18  1  0
 19 26  1  0
 19 20  1  1
 21 20  1  0
 21 22  2  0
 23 22  1  0
 24 23  1  0
 25 24  2  0
 25 21  1  0
 26 27  1  0
 28 26  2  0
M  END
$$$$
