HPH.pdb
     RDKit          3D

 28 30  0  0  1  0  0  0  0  0999 V2000
   18.1192  -11.4656  -17.6657 N   0  0  0  0  0  0  0  0  0  0  0  0
   17.5711  -10.1210  -17.4919 C   0  0  1  0  0  0  0  0  0  0  0  0
   16.9118  -10.1424  -16.1235 C   0  0  0  0  0  0  0  0  0  0  0  0
   15.6971  -10.9762  -16.1136 C   0  0  0  0  0  0  0  0  0  0  0  0
   15.6353  -12.2905  -15.7243 C   0  0  0  0  0  0  0  0  0  0  0  0
   14.3719  -12.7019  -15.8533 N   0  0  0  0  0  0  0  0  0  0  0  0
   13.6194  -11.6868  -16.3152 C   0  0  0  0  0  0  0  0  0  0  0  0
   14.4595  -10.6206  -16.4717 N   0  0  0  0  0  0  0  0  0  0  0  0
   18.6450   -9.1445  -17.6284 C   0  0  0  0  0  0  0  0  0  0  0  0
   19.7529   -9.4094  -17.0505 O   0  0  0  0  0  0  0  0  0  0  0  0
   18.5847   -7.9107  -18.3508 N   0  0  0  0  0  0  0  0  0  0  0  0
   17.4287   -7.5397  -19.1290 C   0  0  0  0  0  0  0  0  0  0  0  0
   17.6269   -6.1205  -19.5589 C   0  0  0  0  0  0  0  0  0  0  0  0
   19.1596   -5.9925  -19.6009 C   0  0  0  0  0  0  0  0  0  0  0  0
   19.5558   -6.8687  -18.4367 C   0  0  1  0  0  0  0  0  0  0  0  0
   19.7202   -6.1066  -17.1830 C   0  0  0  0  0  0  0  0  0  0  0  0
   18.6889   -5.8765  -16.4988 O   0  0  0  0  0  0  0  0  0  0  0  0
   20.9551   -5.6116  -16.6863 N   0  0  0  0  0  0  0  0  0  0  0  0
   21.0439   -5.0065  -15.3485 C   0  0  1  0  0  0  0  0  0  0  0  0
   22.2313   -5.6262  -14.6727 C   0  0  0  0  0  0  0  0  0  0  0  0
   22.0915   -7.0827  -14.4373 C   0  0  0  0  0  0  0  0  0  0  0  0
   20.9620   -7.6960  -13.9601 C   0  0  0  0  0  0  0  0  0  0  0  0
   21.1940   -9.0102  -13.8741 N   0  0  0  0  0  0  0  0  0  0  0  0
   22.4559   -9.2262  -14.2920 C   0  0  0  0  0  0  0  0  0  0  0  0
   22.9985   -8.0436  -14.6347 N   0  0  0  0  0  0  0  0  0  0  0  0
   21.2771   -3.5469  -15.4598 C   0  0  0  0  0  0  0  0  0  0  0  0
   21.3045   -2.7039  -14.3580 O   0  0  0  0  0  0  0  0  0  0  0  0
   21.4590   -3.0370  -16.5921 O   0  0  0  0  0  0  0  0  0  0  0  0
  2  9  1  0
  2  1  1  1
  3  2  1  0
  4  3  1  0
  4  5  2  0
  6  5  1  0
  7  6  1  0
  8  7  2  0
  8  4  1  0
  9 10  2  0
 11  9  1  0
 12 11  1  0
 13 12  1  0
 13 14  1  0
 14 15  1  0
 15 11  1  0
 15 16  1  1
 17 16  2  0
 18 16  1  0
 19 18  1  0
 19 26  1  0
 19 20  1  1
 21 20  1  0
 21 22  2  0
 23 22  1  0
 24 23  1  0
 25 24  2  0
 25 21  1  0
 26 27  1  0
 28 26  2  0
M  END
$$$$
