HPH.pdb
     RDKit          3D

 28 30  0  0  1  0  0  0  0  0999 V2000
   12.6464  -22.9347    1.3743 N   0  0  0  0  0  0  0  0  0  0  0  0
   14.0454  -22.7585    1.7621 C   0  0  1  0  0  0  0  0  0  0  0  0
   14.6056  -21.7638    0.7599 C   0  0  0  0  0  0  0  0  0  0  0  0
   14.6606  -22.3281   -0.6000 C   0  0  0  0  0  0  0  0  0  0  0  0
   13.8219  -21.9982   -1.6347 C   0  0  0  0  0  0  0  0  0  0  0  0
   14.1806  -22.7135   -2.7031 N   0  0  0  0  0  0  0  0  0  0  0  0
   15.2280  -23.4950   -2.3830 C   0  0  0  0  0  0  0  0  0  0  0  0
   15.5138  -23.2427   -1.0708 N   0  0  0  0  0  0  0  0  0  0  0  0
   14.1058  -22.3153    3.1496 C   0  0  0  0  0  0  0  0  0  0  0  0
   13.2058  -21.4983    3.5420 O   0  0  0  0  0  0  0  0  0  0  0  0
   15.0772  -22.7063    4.1249 N   0  0  0  0  0  0  0  0  0  0  0  0
   16.0998  -23.6803    3.8330 C   0  0  0  0  0  0  0  0  0  0  0  0
   17.0485  -23.6800    4.9900 C   0  0  0  0  0  0  0  0  0  0  0  0
   16.1533  -23.2332    6.1589 C   0  0  0  0  0  0  0  0  0  0  0  0
   15.2418  -22.2486    5.4663 C   0  0  1  0  0  0  0  0  0  0  0  0
   15.7299  -20.8586    5.5629 C   0  0  0  0  0  0  0  0  0  0  0  0
   16.6383  -20.5011    4.7682 O   0  0  0  0  0  0  0  0  0  0  0  0
   15.2527  -19.8895    6.4848 N   0  0  0  0  0  0  0  0  0  0  0  0
   15.7957  -18.5225    6.4935 C   0  0  1  0  0  0  0  0  0  0  0  0
   14.6666  -17.6075    6.1213 C   0  0  0  0  0  0  0  0  0  0  0  0
   13.4995  -17.6991    7.0300 C   0  0  0  0  0  0  0  0  0  0  0  0
   12.4862  -18.6155    6.9165 C   0  0  0  0  0  0  0  0  0  0  0  0
   11.6076  -18.4045    7.9022 N   0  0  0  0  0  0  0  0  0  0  0  0
   12.0595  -17.3664    8.6314 C   0  0  0  0  0  0  0  0  0  0  0  0
   13.2165  -16.9402    8.0924 N   0  0  0  0  0  0  0  0  0  0  0  0
   16.2605  -18.1635    7.8546 C   0  0  0  0  0  0  0  0  0  0  0  0
   16.2358  -19.0556    8.9170 O   0  0  0  0  0  0  0  0  0  0  0  0
   16.6977  -17.0070    8.0708 O   0  0  0  0  0  0  0  0  0  0  0  0
  2  9  1  0
  2  1  1  6
  3  2  1  0
  4  3  1  0
  4  5  2  0
  6  5  1  0
  7  6  1  0
  8  7  2  0
  8  4  1  0
  9 10  2  0
 11  9  1  0
 12 11  1  0
 13 12  1  0
 13 14  1  0
 14 15  1  0
 15 11  1  0
 15 16  1  6
 17 16  2  0
 18 16  1  0
 19 18  1  0
 19 26  1  0
 19 20  1  1
 21 20  1  0
 21 22  2  0
 23 22  1  0
 24 23  1  0
 25 24  2  0
 25 21  1  0
 26 27  1  0
 28 26  2  0
M  END
$$$$
