HPH.pdb
     RDKit          3D

 28 30  0  0  1  0  0  0  0  0999 V2000
   25.9803  -20.0226  -16.8658 N   0  0  0  0  0  0  0  0  0  0  0  0
   26.6820  -19.3359  -15.7820 C   0  0  1  0  0  0  0  0  0  0  0  0
   25.9799  -17.9952  -15.6506 C   0  0  0  0  0  0  0  0  0  0  0  0
   26.2716  -17.1098  -16.7916 C   0  0  0  0  0  0  0  0  0  0  0  0
   25.3384  -16.5664  -17.6381 C   0  0  0  0  0  0  0  0  0  0  0  0
   25.9814  -15.8241  -18.5422 N   0  0  0  0  0  0  0  0  0  0  0  0
   27.3037  -15.8756  -18.2996 C   0  0  0  0  0  0  0  0  0  0  0  0
   27.4669  -16.6798  -17.2070 N   0  0  0  0  0  0  0  0  0  0  0  0
   26.6343  -20.1616  -14.5815 C   0  0  0  0  0  0  0  0  0  0  0  0
   25.5341  -20.7578  -14.3254 O   0  0  0  0  0  0  0  0  0  0  0  0
   27.7031  -20.3753  -13.6543 N   0  0  0  0  0  0  0  0  0  0  0  0
   29.0117  -19.8039  -13.8559 C   0  0  0  0  0  0  0  0  0  0  0  0
   29.7954  -20.0515  -12.6057 C   0  0  0  0  0  0  0  0  0  0  0  0
   29.1473  -21.3315  -12.0502 C   0  0  0  0  0  0  0  0  0  0  0  0
   27.7030  -21.1155  -12.4344 C   0  0  1  0  0  0  0  0  0  0  0  0
   26.9177  -20.4821  -11.3566 C   0  0  0  0  0  0  0  0  0  0  0  0
   27.0035  -19.2330  -11.2269 O   0  0  0  0  0  0  0  0  0  0  0  0
   26.0695  -21.1739  -10.4518 N   0  0  0  0  0  0  0  0  0  0  0  0
   25.4502  -20.4779   -9.3134 C   0  0  1  0  0  0  0  0  0  0  0  0
   24.0907  -21.0837   -9.1253 C   0  0  0  0  0  0  0  0  0  0  0  0
   23.1433  -20.7771  -10.2229 C   0  0  0  0  0  0  0  0  0  0  0  0
   23.4195  -19.9692  -11.2956 C   0  0  0  0  0  0  0  0  0  0  0  0
   22.3389  -19.9195  -12.0817 N   0  0  0  0  0  0  0  0  0  0  0  0
   21.3896  -20.6870  -11.5132 C   0  0  0  0  0  0  0  0  0  0  0  0
   21.8882  -21.2081  -10.3772 N   0  0  0  0  0  0  0  0  0  0  0  0
   26.2401  -20.7073   -8.0802 C   0  0  0  0  0  0  0  0  0  0  0  0
   26.0876  -19.9376   -6.9359 O   0  0  0  0  0  0  0  0  0  0  0  0
   27.0867  -21.6335   -8.0546 O   0  0  0  0  0  0  0  0  0  0  0  0
  2  9  1  0
  2  1  1  6
  3  2  1  0
  4  3  1  0
  4  5  2  0
  6  5  1  0
  7  6  1  0
  8  7  2  0
  8  4  1  0
  9 10  2  0
 11  9  1  0
 12 11  1  0
 13 12  1  0
 13 14  1  0
 14 15  1  0
 15 11  1  0
 15 16  1  1
 17 16  2  0
 18 16  1  0
 19 18  1  0
 19 26  1  0
 19 20  1  1
 21 20  1  0
 21 22  2  0
 23 22  1  0
 24 23  1  0
 25 24  2  0
 25 21  1  0
 26 27  1  0
 28 26  2  0
M  END
$$$$
