HPH.pdb
     RDKit          3D

 28 30  0  0  1  0  0  0  0  0999 V2000
   19.5984  -15.0230  -18.5411 N   0  0  0  0  0  0  0  0  0  0  0  0
   18.7265  -13.9817  -17.9988 C   0  0  1  0  0  0  0  0  0  0  0  0
   18.2989  -14.5012  -16.6368 C   0  0  0  0  0  0  0  0  0  0  0  0
   17.4448  -15.6965  -16.7498 C   0  0  0  0  0  0  0  0  0  0  0  0
   16.1092  -15.6953  -17.0642 C   0  0  0  0  0  0  0  0  0  0  0  0
   15.6840  -16.9606  -17.0711 N   0  0  0  0  0  0  0  0  0  0  0  0
   16.7109  -17.7758  -16.7693 C   0  0  0  0  0  0  0  0  0  0  0  0
   17.7989  -16.9729  -16.5724 N   0  0  0  0  0  0  0  0  0  0  0  0
   19.4544  -12.7191  -17.9610 C   0  0  0  0  0  0  0  0  0  0  0  0
   20.6509  -12.7473  -17.5148 O   0  0  0  0  0  0  0  0  0  0  0  0
   18.9620  -11.4417  -18.3775 N   0  0  0  0  0  0  0  0  0  0  0  0
   17.6914  -11.2958  -19.0436 C   0  0  0  0  0  0  0  0  0  0  0  0
   17.4097   -9.8291  -19.1338 C   0  0  0  0  0  0  0  0  0  0  0  0
   18.8207   -9.2160  -19.1516 C   0  0  0  0  0  0  0  0  0  0  0  0
   19.5560  -10.1534  -18.2238 C   0  0  1  0  0  0  0  0  0  0  0  0
   19.5747   -9.6718  -16.8284 C   0  0  0  0  0  0  0  0  0  0  0  0
   18.5642   -9.9057  -16.1153 O   0  0  0  0  0  0  0  0  0  0  0  0
   20.6476   -8.9634  -16.2252 N   0  0  0  0  0  0  0  0  0  0  0  0
   20.5762   -8.5368  -14.8192 C   0  0  1  0  0  0  0  0  0  0  0  0
   21.2648   -9.5969  -14.0114 C   0  0  0  0  0  0  0  0  0  0  0  0
   22.5579  -10.0388  -14.5847 C   0  0  0  0  0  0  0  0  0  0  0  0
   23.0997   -9.5700  -15.7536 C   0  0  0  0  0  0  0  0  0  0  0  0
   24.2674  -10.1878  -15.9607 N   0  0  0  0  0  0  0  0  0  0  0  0
   24.4626  -11.0380  -14.9348 C   0  0  0  0  0  0  0  0  0  0  0  0
   23.4137  -10.9417  -14.0974 N   0  0  0  0  0  0  0  0  0  0  0  0
   21.3041   -7.2590  -14.6329 C   0  0  0  0  0  0  0  0  0  0  0  0
   21.9927   -6.6296  -15.6600 O   0  0  0  0  0  0  0  0  0  0  0  0
   21.3067   -6.7109  -13.5039 O   0  0  0  0  0  0  0  0  0  0  0  0
  2  9  1  0
  2  1  1  1
  3  2  1  0
  4  3  1  0
  4  5  2  0
  6  5  1  0
  7  6  1  0
  8  7  2  0
  8  4  1  0
  9 10  2  0
 11  9  1  0
 12 11  1  0
 13 12  1  0
 13 14  1  0
 14 15  1  0
 15 11  1  0
 15 16  1  1
 17 16  2  0
 18 16  1  0
 19 18  1  0
 19 26  1  0
 19 20  1  1
 21 20  1  0
 21 22  2  0
 23 22  1  0
 24 23  1  0
 25 24  2  0
 25 21  1  0
 26 27  1  0
 28 26  2  0
M  END
$$$$
