HPH.pdb
     RDKit          3D

 28 30  0  0  1  0  0  0  0  0999 V2000
   23.9070  -15.3066  -18.1617 N   0  0  0  0  0  0  0  0  0  0  0  0
   24.4895  -13.9995  -18.4629 C   0  0  1  0  0  0  0  0  0  0  0  0
   23.8233  -13.5644  -19.7569 C   0  0  0  0  0  0  0  0  0  0  0  0
   24.1380  -14.4780  -20.8693 C   0  0  0  0  0  0  0  0  0  0  0  0
   25.2911  -14.4615  -21.6128 C   0  0  0  0  0  0  0  0  0  0  0  0
   25.2109  -15.4342  -22.5235 N   0  0  0  0  0  0  0  0  0  0  0  0
   24.0365  -16.0759  -22.3855 C   0  0  0  0  0  0  0  0  0  0  0  0
   23.3812  -15.4683  -21.3518 N   0  0  0  0  0  0  0  0  0  0  0  0
   24.2619  -13.1024  -17.3365 C   0  0  0  0  0  0  0  0  0  0  0  0
   23.0902  -13.0880  -16.8282 O   0  0  0  0  0  0  0  0  0  0  0  0
   25.2251  -12.2308  -16.7364 N   0  0  0  0  0  0  0  0  0  0  0  0
   26.6019  -12.2072  -17.1649 C   0  0  0  0  0  0  0  0  0  0  0  0
   27.2542  -11.0477  -16.4804 C   0  0  0  0  0  0  0  0  0  0  0  0
   26.4237  -10.9064  -15.1929 C   0  0  0  0  0  0  0  0  0  0  0  0
   25.0472  -11.2728  -15.6940 C   0  0  1  0  0  0  0  0  0  0  0  0
   24.2589  -10.0928  -16.1013 C   0  0  0  0  0  0  0  0  0  0  0  0
   24.1890   -9.8321  -17.3308 O   0  0  0  0  0  0  0  0  0  0  0  0
   23.5702   -9.2262  -15.2117 N   0  0  0  0  0  0  0  0  0  0  0  0
   22.3431   -8.5318  -15.6310 C   0  0  1  0  0  0  0  0  0  0  0  0
   21.3182   -9.5933  -15.9024 C   0  0  0  0  0  0  0  0  0  0  0  0
   20.0136   -9.0603  -16.3606 C   0  0  0  0  0  0  0  0  0  0  0  0
   19.7061   -7.7292  -16.4761 C   0  0  0  0  0  0  0  0  0  0  0  0
   18.4480   -7.6184  -16.9155 N   0  0  0  0  0  0  0  0  0  0  0  0
   17.9646   -8.8650  -17.0762 C   0  0  0  0  0  0  0  0  0  0  0  0
   18.9270   -9.7414  -16.7352 N   0  0  0  0  0  0  0  0  0  0  0  0
   21.8431   -7.6667  -14.5361 C   0  0  0  0  0  0  0  0  0  0  0  0
   21.3374   -6.3934  -14.7555 O   0  0  0  0  0  0  0  0  0  0  0  0
   21.8720   -8.0901  -13.3549 O   0  0  0  0  0  0  0  0  0  0  0  0
  2  9  1  0
  2  1  1  1
  3  2  1  0
  4  3  1  0
  4  5  2  0
  6  5  1  0
  7  6  1  0
  8  7  2  0
  8  4  1  0
  9 10  2  0
 11  9  1  0
 12 11  1  0
 13 12  1  0
 13 14  1  0
 14 15  1  0
 15 11  1  0
 15 16  1  6
 17 16  2  0
 18 16  1  0
 19 18  1  0
 19 26  1  0
 19 20  1  1
 21 20  1  0
 21 22  2  0
 23 22  1  0
 24 23  1  0
 25 24  2  0
 25 21  1  0
 26 27  1  0
 28 26  2  0
M  END
$$$$
