HPH.pdb
     RDKit          3D

 28 30  0  0  1  0  0  0  0  0999 V2000
   24.8846  -21.8122  -15.0236 N   0  0  0  0  0  0  0  0  0  0  0  0
   25.6172  -20.7522  -14.3321 C   0  0  1  0  0  0  0  0  0  0  0  0
   24.6573  -19.5753  -14.2942 C   0  0  0  0  0  0  0  0  0  0  0  0
   24.3596  -19.0673  -15.6448 C   0  0  0  0  0  0  0  0  0  0  0  0
   25.2914  -18.7524  -16.6016 C   0  0  0  0  0  0  0  0  0  0  0  0
   24.6425  -18.3276  -17.6881 N   0  0  0  0  0  0  0  0  0  0  0  0
   23.3178  -18.3610  -17.4555 C   0  0  0  0  0  0  0  0  0  0  0  0
   23.1592  -18.8236  -16.1796 N   0  0  0  0  0  0  0  0  0  0  0  0
   26.0324  -21.2338  -13.0203 C   0  0  0  0  0  0  0  0  0  0  0  0
   25.1310  -21.7437  -12.2726 O   0  0  0  0  0  0  0  0  0  0  0  0
   27.3573  -21.1951  -12.4812 N   0  0  0  0  0  0  0  0  0  0  0  0
   28.4800  -20.7231  -13.2534 C   0  0  0  0  0  0  0  0  0  0  0  0
   29.6437  -20.6220  -12.3183 C   0  0  0  0  0  0  0  0  0  0  0  0
   29.3147  -21.6848  -11.2556 C   0  0  0  0  0  0  0  0  0  0  0  0
   27.8115  -21.5633  -11.1795 C   0  0  1  0  0  0  0  0  0  0  0  0
   27.3698  -20.6412  -10.1146 C   0  0  0  0  0  0  0  0  0  0  0  0
   27.2243  -19.4275  -10.4150 O   0  0  0  0  0  0  0  0  0  0  0  0
   27.0947  -21.0175   -8.7732 N   0  0  0  0  0  0  0  0  0  0  0  0
   26.6799  -20.0175   -7.7773 C   0  0  1  0  0  0  0  0  0  0  0  0
   25.7334  -20.7085   -6.8406 C   0  0  0  0  0  0  0  0  0  0  0  0
   24.3964  -20.9665   -7.4257 C   0  0  0  0  0  0  0  0  0  0  0  0
   23.9874  -20.5464   -8.6649 C   0  0  0  0  0  0  0  0  0  0  0  0
   22.7296  -20.9559   -8.8607 N   0  0  0  0  0  0  0  0  0  0  0  0
   22.3468  -21.6276   -7.7580 C   0  0  0  0  0  0  0  0  0  0  0  0
   23.3707  -21.6301   -6.8849 N   0  0  0  0  0  0  0  0  0  0  0  0
   27.8522  -19.5512   -6.9990 C   0  0  0  0  0  0  0  0  0  0  0  0
   27.8602  -18.3549   -6.2962 O   0  0  0  0  0  0  0  0  0  0  0  0
   28.8890  -20.2577   -6.9648 O   0  0  0  0  0  0  0  0  0  0  0  0
  2  9  1  0
  2  1  1  1
  3  2  1  0
  4  3  1  0
  4  5  2  0
  6  5  1  0
  7  6  1  0
  8  7  2  0
  8  4  1  0
  9 10  2  0
 11  9  1  0
 12 11  1  0
 13 12  1  0
 13 14  1  0
 14 15  1  0
 15 11  1  0
 15 16  1  1
 17 16  2  0
 18 16  1  0
 19 18  1  0
 19 26  1  0
 19 20  1  1
 21 20  1  0
 21 22  2  0
 23 22  1  0
 24 23  1  0
 25 24  2  0
 25 21  1  0
 26 27  1  0
 28 26  2  0
M  END
$$$$
