HPH.pdb
     RDKit          3D

 28 30  0  0  1  0  0  0  0  0999 V2000
   19.9231  -16.6250  -18.9248 N   0  0  0  0  0  0  0  0  0  0  0  0
   19.0103  -15.5534  -19.3209 C   0  0  1  0  0  0  0  0  0  0  0  0
   17.6199  -16.1181  -19.0849 C   0  0  0  0  0  0  0  0  0  0  0  0
   17.3378  -17.2654  -19.9652 C   0  0  0  0  0  0  0  0  0  0  0  0
   17.1276  -17.1985  -21.3195 C   0  0  0  0  0  0  0  0  0  0  0  0
   16.9044  -18.4367  -21.7659 N   0  0  0  0  0  0  0  0  0  0  0  0
   16.9655  -19.2982  -20.7344 C   0  0  0  0  0  0  0  0  0  0  0  0
   17.2360  -18.5530  -19.6215 N   0  0  0  0  0  0  0  0  0  0  0  0
   19.3135  -14.3554  -18.5475 C   0  0  0  0  0  0  0  0  0  0  0  0
   19.3097  -14.4647  -17.2748 O   0  0  0  0  0  0  0  0  0  0  0  0
   19.6191  -13.0598  -19.0726 N   0  0  0  0  0  0  0  0  0  0  0  0
   19.7606  -12.8261  -20.4885 C   0  0  0  0  0  0  0  0  0  0  0  0
   19.8624  -11.3458  -20.6804 C   0  0  0  0  0  0  0  0  0  0  0  0
   20.4692  -10.8747  -19.3474 C   0  0  0  0  0  0  0  0  0  0  0  0
   19.8147  -11.8292  -18.3774 C   0  0  1  0  0  0  0  0  0  0  0  0
   18.5787  -11.2790  -17.7865 C   0  0  0  0  0  0  0  0  0  0  0  0
   17.5056  -11.4335  -18.4260 O   0  0  0  0  0  0  0  0  0  0  0  0
   18.5052  -10.5873  -16.5484 N   0  0  0  0  0  0  0  0  0  0  0  0
   17.2265  -10.0521  -16.0561 C   0  0  1  0  0  0  0  0  0  0  0  0
   16.9384  -10.7483  -14.7589 C   0  0  0  0  0  0  0  0  0  0  0  0
   16.6248  -12.1886  -14.9110 C   0  0  0  0  0  0  0  0  0  0  0  0
   15.3898  -12.6943  -15.2252 C   0  0  0  0  0  0  0  0  0  0  0  0
   15.4757  -14.0277  -15.2787 N   0  0  0  0  0  0  0  0  0  0  0  0
   16.7504  -14.3623  -15.0016 C   0  0  0  0  0  0  0  0  0  0  0  0
   17.4472  -13.2331  -14.7778 N   0  0  0  0  0  0  0  0  0  0  0  0
   17.3463   -8.5985  -15.7913 C   0  0  0  0  0  0  0  0  0  0  0  0
   16.2578   -7.8011  -15.4681 O   0  0  0  0  0  0  0  0  0  0  0  0
   18.4739   -8.0514  -15.8585 O   0  0  0  0  0  0  0  0  0  0  0  0
  2  9  1  0
  2  1  1  1
  3  2  1  0
  4  3  1  0
  4  5  2  0
  6  5  1  0
  7  6  1  0
  8  7  2  0
  8  4  1  0
  9 10  2  0
 11  9  1  0
 12 11  1  0
 13 12  1  0
 13 14  1  0
 14 15  1  0
 15 11  1  0
 15 16  1  6
 17 16  2  0
 18 16  1  0
 19 18  1  0
 19 26  1  0
 19 20  1  1
 21 20  1  0
 21 22  2  0
 23 22  1  0
 24 23  1  0
 25 24  2  0
 25 21  1  0
 26 27  1  0
 28 26  2  0
M  END
$$$$
