HPH.pdb
     RDKit          3D

 28 30  0  0  1  0  0  0  0  0999 V2000
   22.9774  -12.9376  -17.0749 N   0  0  0  0  0  0  0  0  0  0  0  0
   23.4427  -11.8595  -16.2033 C   0  0  1  0  0  0  0  0  0  0  0  0
   24.7431  -11.3855  -16.8294 C   0  0  0  0  0  0  0  0  0  0  0  0
   25.7407  -12.4672  -16.9059 C   0  0  0  0  0  0  0  0  0  0  0  0
   26.4902  -12.9363  -15.8567 C   0  0  0  0  0  0  0  0  0  0  0  0
   27.2773  -13.9129  -16.3137 N   0  0  0  0  0  0  0  0  0  0  0  0
   27.0538  -14.0843  -17.6293 C   0  0  0  0  0  0  0  0  0  0  0  0
   26.0949  -13.1768  -17.9816 N   0  0  0  0  0  0  0  0  0  0  0  0
   22.4087  -10.8359  -16.1135 C   0  0  0  0  0  0  0  0  0  0  0  0
   21.8246  -10.4983  -17.1982 O   0  0  0  0  0  0  0  0  0  0  0  0
   21.9765  -10.1666  -14.9248 N   0  0  0  0  0  0  0  0  0  0  0  0
   22.5608  -10.4488  -13.6370 C   0  0  0  0  0  0  0  0  0  0  0  0
   22.0266   -9.4298  -12.6805 C   0  0  0  0  0  0  0  0  0  0  0  0
   20.6631   -9.0718  -13.2971 C   0  0  0  0  0  0  0  0  0  0  0  0
   20.9800   -9.1569  -14.7710 C   0  0  1  0  0  0  0  0  0  0  0  0
   21.3643   -7.8522  -15.3451 C   0  0  0  0  0  0  0  0  0  0  0  0
   22.4989   -7.7611  -15.8827 O   0  0  0  0  0  0  0  0  0  0  0  0
   20.5513   -6.6879  -15.3390 N   0  0  0  0  0  0  0  0  0  0  0  0
   20.7655   -5.6109  -16.3178 C   0  0  1  0  0  0  0  0  0  0  0  0
   20.5392   -6.2099  -17.6745 C   0  0  0  0  0  0  0  0  0  0  0  0
   20.7317   -5.2528  -18.7894 C   0  0  0  0  0  0  0  0  0  0  0  0
   19.7528   -4.4460  -19.3095 C   0  0  0  0  0  0  0  0  0  0  0  0
   20.2811   -3.7175  -20.2986 N   0  0  0  0  0  0  0  0  0  0  0  0
   21.5795   -4.0591  -20.4034 C   0  0  0  0  0  0  0  0  0  0  0  0
   21.8481   -4.9981  -19.4778 N   0  0  0  0  0  0  0  0  0  0  0  0
   19.7754   -4.5269  -16.1131 C   0  0  0  0  0  0  0  0  0  0  0  0
   20.0840   -3.1850  -16.2843 O   0  0  0  0  0  0  0  0  0  0  0  0
   18.6041   -4.8195  -15.7702 O   0  0  0  0  0  0  0  0  0  0  0  0
  2  9  1  0
  2  1  1  6
  3  2  1  0
  4  3  1  0
  4  5  2  0
  6  5  1  0
  7  6  1  0
  8  7  2  0
  8  4  1  0
  9 10  2  0
 11  9  1  0
 12 11  1  0
 13 12  1  0
 13 14  1  0
 14 15  1  0
 15 11  1  0
 15 16  1  1
 17 16  2  0
 18 16  1  0
 19 18  1  0
 19 26  1  0
 19 20  1  6
 21 20  1  0
 21 22  2  0
 23 22  1  0
 24 23  1  0
 25 24  2  0
 25 21  1  0
 26 27  1  0
 28 26  2  0
M  END
$$$$
