HPH.pdb
     RDKit          3D

 28 30  0  0  1  0  0  0  0  0999 V2000
   34.4043  -32.5144    1.6195 N   0  0  0  0  0  0  0  0  0  0  0  0
   33.6189  -31.6512    2.5007 C   0  0  1  0  0  0  0  0  0  0  0  0
   32.4740  -32.5251    2.9836 C   0  0  0  0  0  0  0  0  0  0  0  0
   31.4917  -31.7570    3.7686 C   0  0  0  0  0  0  0  0  0  0  0  0
   30.1778  -31.5584    3.4267 C   0  0  0  0  0  0  0  0  0  0  0  0
   29.6092  -30.8167    4.3800 N   0  0  0  0  0  0  0  0  0  0  0  0
   30.5227  -30.5330    5.3260 C   0  0  0  0  0  0  0  0  0  0  0  0
   31.6885  -31.1256    4.9300 N   0  0  0  0  0  0  0  0  0  0  0  0
   34.4779  -31.1420    3.5628 C   0  0  0  0  0  0  0  0  0  0  0  0
   35.2445  -31.9802    4.1470 O   0  0  0  0  0  0  0  0  0  0  0  0
   34.5519  -29.7881    4.0201 N   0  0  0  0  0  0  0  0  0  0  0  0
   33.6817  -28.7611    3.5028 C   0  0  0  0  0  0  0  0  0  0  0  0
   33.8898  -27.5438    4.3475 C   0  0  0  0  0  0  0  0  0  0  0  0
   35.3382  -27.7173    4.8365 C   0  0  0  0  0  0  0  0  0  0  0  0
   35.4093  -29.2160    5.0069 C   0  0  1  0  0  0  0  0  0  0  0  0
   35.0977  -29.6460    6.3844 C   0  0  0  0  0  0  0  0  0  0  0  0
   33.8847  -29.7569    6.7023 O   0  0  0  0  0  0  0  0  0  0  0  0
   36.0624  -29.9461    7.3823 N   0  0  0  0  0  0  0  0  0  0  0  0
   35.6511  -30.4062    8.7176 C   0  0  1  0  0  0  0  0  0  0  0  0
   36.8996  -30.8378    9.4286 C   0  0  0  0  0  0  0  0  0  0  0  0
   36.6483  -31.4764   10.7421 C   0  0  0  0  0  0  0  0  0  0  0  0
   35.5333  -32.2087   11.0584 C   0  0  0  0  0  0  0  0  0  0  0  0
   35.6440  -32.6300   12.3228 N   0  0  0  0  0  0  0  0  0  0  0  0
   36.8157  -32.1696   12.8012 C   0  0  0  0  0  0  0  0  0  0  0  0
   37.4243  -31.4653   11.8295 N   0  0  0  0  0  0  0  0  0  0  0  0
   35.0400  -29.2908    9.4791 C   0  0  0  0  0  0  0  0  0  0  0  0
   34.0059  -29.4771   10.3852 O   0  0  0  0  0  0  0  0  0  0  0  0
   35.4654  -28.1225    9.3077 O   0  0  0  0  0  0  0  0  0  0  0  0
  2  9  1  0
  2  1  1  6
  3  2  1  0
  4  3  1  0
  4  5  2  0
  6  5  1  0
  7  6  1  0
  8  7  2  0
  8  4  1  0
  9 10  2  0
 11  9  1  0
 12 11  1  0
 13 12  1  0
 13 14  1  0
 14 15  1  0
 15 11  1  0
 15 16  1  1
 17 16  2  0
 18 16  1  0
 19 18  1  0
 19 26  1  0
 19 20  1  1
 21 20  1  0
 21 22  2  0
 23 22  1  0
 24 23  1  0
 25 24  2  0
 25 21  1  0
 26 27  1  0
 28 26  2  0
M  END
$$$$
