HPH.pdb
     RDKit          3D

 28 30  0  0  1  0  0  0  0  0999 V2000
   21.4364  -21.3750  -13.8449 N   0  0  0  0  0  0  0  0  0  0  0  0
   21.4901  -20.5961  -12.6085 C   0  0  1  0  0  0  0  0  0  0  0  0
   20.3108  -19.6426  -12.6966 C   0  0  0  0  0  0  0  0  0  0  0  0
   20.4440  -18.7095  -13.8291 C   0  0  0  0  0  0  0  0  0  0  0  0
   21.6267  -18.2243  -14.3276 C   0  0  0  0  0  0  0  0  0  0  0  0
   21.3439  -17.4108  -15.3475 N   0  0  0  0  0  0  0  0  0  0  0  0
   20.0104  -17.3599  -15.5182 C   0  0  0  0  0  0  0  0  0  0  0  0
   19.4656  -18.1736  -14.5653 N   0  0  0  0  0  0  0  0  0  0  0  0
   21.4476  -21.5035  -11.4683 C   0  0  0  0  0  0  0  0  0  0  0  0
   20.7640  -22.5746  -11.5987 O   0  0  0  0  0  0  0  0  0  0  0  0
   22.1001  -21.3162  -10.2085 N   0  0  0  0  0  0  0  0  0  0  0  0
   23.0256  -20.2334   -9.9840 C   0  0  0  0  0  0  0  0  0  0  0  0
   23.3393  -20.2210   -8.5212 C   0  0  0  0  0  0  0  0  0  0  0  0
   23.1363  -21.6927   -8.1211 C   0  0  0  0  0  0  0  0  0  0  0  0
   21.9760  -22.0770   -9.0078 C   0  0  1  0  0  0  0  0  0  0  0  0
   20.6711  -21.9163   -8.3362 C   0  0  0  0  0  0  0  0  0  0  0  0
   20.0045  -20.8799   -8.5935 O   0  0  0  0  0  0  0  0  0  0  0  0
   20.1066  -22.8428   -7.4199 N   0  0  0  0  0  0  0  0  0  0  0  0
   18.7704  -23.4138   -7.6487 C   0  0  1  0  0  0  0  0  0  0  0  0
   18.8292  -24.1365   -8.9620 C   0  0  0  0  0  0  0  0  0  0  0  0
   17.5443  -24.7590   -9.3591 C   0  0  0  0  0  0  0  0  0  0  0  0
   16.4439  -24.8731   -8.5494 C   0  0  0  0  0  0  0  0  0  0  0  0
   15.4716  -25.4844   -9.2344 N   0  0  0  0  0  0  0  0  0  0  0  0
   15.9510  -25.7541  -10.4636 C   0  0  0  0  0  0  0  0  0  0  0  0
   17.2186  -25.3080  -10.5328 N   0  0  0  0  0  0  0  0  0  0  0  0
   18.4433  -24.3959   -6.5877 C   0  0  0  0  0  0  0  0  0  0  0  0
   19.4073  -25.1669   -5.9541 O   0  0  0  0  0  0  0  0  0  0  0  0
   17.2479  -24.5477   -6.2366 O   0  0  0  0  0  0  0  0  0  0  0  0
  2  9  1  0
  2  1  1  6
  3  2  1  0
  4  3  1  0
  4  5  2  0
  6  5  1  0
  7  6  1  0
  8  7  2  0
  8  4  1  0
  9 10  2  0
 11  9  1  0
 12 11  1  0
 13 12  1  0
 13 14  1  0
 14 15  1  0
 15 11  1  0
 15 16  1  1
 17 16  2  0
 18 16  1  0
 19 18  1  0
 19 26  1  0
 19 20  1  6
 21 20  1  0
 21 22  2  0
 23 22  1  0
 24 23  1  0
 25 24  2  0
 25 21  1  0
 26 27  1  0
 28 26  2  0
M  END
$$$$
