HPH.pdb
     RDKit          3D

 28 30  0  0  1  0  0  0  0  0999 V2000
   17.2302  -28.6967    0.5401 N   0  0  0  0  0  0  0  0  0  0  0  0
   17.5583  -27.2736    0.6149 C   0  0  1  0  0  0  0  0  0  0  0  0
   16.2564  -26.5561    0.3017 C   0  0  0  0  0  0  0  0  0  0  0  0
   15.8077  -26.8125   -1.0781 C   0  0  0  0  0  0  0  0  0  0  0  0
   14.7163  -27.5637   -1.4350 C   0  0  0  0  0  0  0  0  0  0  0  0
   14.6325  -27.5658   -2.7673 N   0  0  0  0  0  0  0  0  0  0  0  0
   15.6412  -26.8358   -3.2768 C   0  0  0  0  0  0  0  0  0  0  0  0
   16.3628  -26.3744   -2.2122 N   0  0  0  0  0  0  0  0  0  0  0  0
   18.1082  -26.9771    1.9320 C   0  0  0  0  0  0  0  0  0  0  0  0
   17.5644  -27.5512    2.9352 O   0  0  0  0  0  0  0  0  0  0  0  0
   19.2046  -26.1032    2.2180 N   0  0  0  0  0  0  0  0  0  0  0  0
   20.0067  -25.5202    1.1710 C   0  0  0  0  0  0  0  0  0  0  0  0
   20.9043  -24.5120    1.8163 C   0  0  0  0  0  0  0  0  0  0  0  0
   21.0604  -25.0651    3.2435 C   0  0  0  0  0  0  0  0  0  0  0  0
   19.6872  -25.6468    3.4809 C   0  0  1  0  0  0  0  0  0  0  0  0
   18.7784  -24.6991    4.1557 C   0  0  0  0  0  0  0  0  0  0  0  0
   17.9381  -24.0878    3.4452 O   0  0  0  0  0  0  0  0  0  0  0  0
   18.7773  -24.4225    5.5486 N   0  0  0  0  0  0  0  0  0  0  0  0
   17.8544  -23.4307    6.1218 C   0  0  1  0  0  0  0  0  0  0  0  0
   16.4693  -23.9813    5.9511 C   0  0  0  0  0  0  0  0  0  0  0  0
   16.2984  -25.3480    6.4979 C   0  0  0  0  0  0  0  0  0  0  0  0
   17.3232  -26.1737    6.8822 C   0  0  0  0  0  0  0  0  0  0  0  0
   16.8022  -27.3232    7.3241 N   0  0  0  0  0  0  0  0  0  0  0  0
   15.4630  -27.2263    7.2207 C   0  0  0  0  0  0  0  0  0  0  0  0
   15.1621  -26.0163    6.7150 N   0  0  0  0  0  0  0  0  0  0  0  0
   18.1166  -23.2630    7.5711 C   0  0  0  0  0  0  0  0  0  0  0  0
   17.4185  -22.3617    8.3619 O   0  0  0  0  0  0  0  0  0  0  0  0
   19.0049  -23.9588    8.1206 O   0  0  0  0  0  0  0  0  0  0  0  0
  2  9  1  0
  2  1  1  1
  3  2  1  0
  4  3  1  0
  4  5  2  0
  6  5  1  0
  7  6  1  0
  8  7  2  0
  8  4  1  0
  9 10  2  0
 11  9  1  0
 12 11  1  0
 13 12  1  0
 13 14  1  0
 14 15  1  0
 15 11  1  0
 15 16  1  6
 17 16  2  0
 18 16  1  0
 19 18  1  0
 19 26  1  0
 19 20  1  1
 21 20  1  0
 21 22  2  0
 23 22  1  0
 24 23  1  0
 25 24  2  0
 25 21  1  0
 26 27  1  0
 28 26  2  0
M  END
$$$$
