HPH.pdb
     RDKit          3D

 28 30  0  0  1  0  0  0  0  0999 V2000
   27.5780  -21.2317  -16.3370 N   0  0  0  0  0  0  0  0  0  0  0  0
   27.1303  -20.3711  -15.2427 C   0  0  1  0  0  0  0  0  0  0  0  0
   26.7791  -19.0495  -15.9045 C   0  0  0  0  0  0  0  0  0  0  0  0
   27.9632  -18.4001  -16.4937 C   0  0  0  0  0  0  0  0  0  0  0  0
   29.0078  -17.8566  -15.7894 C   0  0  0  0  0  0  0  0  0  0  0  0
   29.8865  -17.3641  -16.6653 N   0  0  0  0  0  0  0  0  0  0  0  0
   29.4347  -17.5765  -17.9146 C   0  0  0  0  0  0  0  0  0  0  0  0
   28.2369  -18.2222  -17.7897 N   0  0  0  0  0  0  0  0  0  0  0  0
   26.0187  -21.0134  -14.5520 C   0  0  0  0  0  0  0  0  0  0  0  0
   25.1176  -21.5583  -15.2751 O   0  0  0  0  0  0  0  0  0  0  0  0
   25.8334  -21.0981  -13.1356 N   0  0  0  0  0  0  0  0  0  0  0  0
   26.8273  -20.6179  -12.2077 C   0  0  0  0  0  0  0  0  0  0  0  0
   26.2144  -20.6688  -10.8437 C   0  0  0  0  0  0  0  0  0  0  0  0
   25.1881  -21.8072  -10.9784 C   0  0  0  0  0  0  0  0  0  0  0  0
   24.7227  -21.6112  -12.4015 C   0  0  1  0  0  0  0  0  0  0  0  0
   23.5126  -20.7704  -12.4920 C   0  0  0  0  0  0  0  0  0  0  0  0
   23.6094  -19.5660  -12.1390 O   0  0  0  0  0  0  0  0  0  0  0  0
   22.2435  -21.2151  -12.9485 N   0  0  0  0  0  0  0  0  0  0  0  0
   21.0910  -20.3018  -12.9865 C   0  0  1  0  0  0  0  0  0  0  0  0
   20.6785  -20.1876  -14.4244 C   0  0  0  0  0  0  0  0  0  0  0  0
   21.6979  -19.5477  -15.2890 C   0  0  0  0  0  0  0  0  0  0  0  0
   22.5249  -20.2162  -16.1543 C   0  0  0  0  0  0  0  0  0  0  0  0
   23.3117  -19.3251  -16.7668 N   0  0  0  0  0  0  0  0  0  0  0  0
   22.9866  -18.1066  -16.2946 C   0  0  0  0  0  0  0  0  0  0  0  0
   21.9993  -18.2502  -15.3916 N   0  0  0  0  0  0  0  0  0  0  0  0
   19.9588  -20.8718  -12.2181 C   0  0  0  0  0  0  0  0  0  0  0  0
   18.8667  -20.1160  -11.8166 O   0  0  0  0  0  0  0  0  0  0  0  0
   19.9743  -22.0884  -11.9101 O   0  0  0  0  0  0  0  0  0  0  0  0
  2  9  1  0
  2  1  1  6
  3  2  1  0
  4  3  1  0
  4  5  2  0
  6  5  1  0
  7  6  1  0
  8  7  2  0
  8  4  1  0
  9 10  2  0
 11  9  1  0
 12 11  1  0
 13 12  1  0
 13 14  1  0
 14 15  1  0
 15 11  1  0
 15 16  1  1
 17 16  2  0
 18 16  1  0
 19 18  1  0
 19 26  1  0
 19 20  1  6
 21 20  1  0
 21 22  2  0
 23 22  1  0
 24 23  1  0
 25 24  2  0
 25 21  1  0
 26 27  1  0
 28 26  2  0
M  END
$$$$
