RDW.pdb
     RDKit          3D

 34 35  0  0  1  0  0  0  0  0999 V2000
    9.3014  -11.6627   19.0958 N   0  0  0  0  0  0  0  0  0  0  0  0
    8.3299  -12.5790   18.5982 C   0  0  0  0  0  0  0  0  0  0  0  0
    8.6219  -13.3210   17.5966 N   0  0  0  0  0  0  0  0  0  0  0  0
    7.0388  -12.6834   19.1929 N   0  0  0  0  0  0  0  0  0  0  0  0
    6.7276  -13.6940   20.1732 C   0  0  0  0  0  0  0  0  0  0  0  0
    7.5307  -14.9419   19.8722 C   0  0  0  0  0  0  0  0  0  0  0  0
    8.2120  -15.4924   21.0938 C   0  0  0  0  0  0  0  0  0  0  0  0
    8.9513  -16.7880   20.8129 C   0  0  2  0  0  0  0  0  0  0  0  0
    7.9722  -17.6540   20.1719 N   0  0  0  0  0  0  0  0  0  0  0  0
    9.3811  -17.4510   22.0648 C   0  0  0  0  0  0  0  0  0  0  0  0
    8.6491  -18.2238   22.7465 O   0  0  0  0  0  0  0  0  0  0  0  0
    7.9400  -13.9688   17.1714 N   0  0  0  0  0  0  0  0  0  0  0  0
   10.7071  -17.2545   22.6064 C   0  0  1  0  0  0  0  0  0  0  0  0
   11.1076  -17.8081   23.8764 C   0  0  0  0  0  0  0  0  0  0  0  0
   12.5697  -18.2522   23.7025 C   0  0  0  0  0  0  0  0  0  0  0  0
   12.9884  -18.9893   24.8952 O   0  0  0  0  0  0  0  0  0  0  0  0
   12.2758  -19.7002   25.6400 C   0  0  0  0  0  0  0  0  0  0  0  0
   11.1030  -16.8447   24.9795 O   0  0  0  0  0  0  0  0  0  0  0  0
   11.7055  -15.7530   24.9557 O   0  0  0  0  0  0  0  0  0  0  0  0
   14.3412  -18.9161   25.2834 N   0  0  0  0  0  0  0  0  0  0  0  0
   10.3672  -17.1802   26.1431 C   0  0  1  0  0  0  0  0  0  0  0  0
   10.2879  -16.3342   27.3164 C   0  0  0  0  0  0  0  0  0  0  0  0
    8.8819  -16.4404   27.9149 C   0  0  0  0  0  0  0  0  0  0  0  0
    7.9115  -15.8810   26.9423 C   0  0  0  0  0  0  0  0  0  0  0  0
    6.9819  -16.5168   26.1538 N   0  0  0  0  0  0  0  0  0  0  0  0
    6.2989  -15.6608   25.4005 C   0  0  0  0  0  0  0  0  0  0  0  0
    6.7915  -14.4301   25.7012 C   0  0  0  0  0  0  0  0  0  0  0  0
    6.4499  -13.1858   25.2173 C   0  0  0  0  0  0  0  0  0  0  0  0
    7.0979  -12.0813   25.6815 C   0  0  0  0  0  0  0  0  0  0  0  0
    8.0925  -12.1556   26.6252 C   0  0  0  0  0  0  0  0  0  0  0  0
    8.4302  -13.4017   27.1049 C   0  0  0  0  0  0  0  0  0  0  0  0
    7.7857  -14.5323   26.6479 C   0  0  0  0  0  0  0  0  0  0  0  0
   11.2493  -16.7975   28.3346 O   0  0  0  0  0  0  0  0  0  0  0  0
   12.0067  -17.9389   28.0527 O   0  0  0  0  0  0  0  0  0  0  0  0
  2  4  1  0
  2  1  1  0
  3  2  2  0
  5  4  1  0
  6  5  1  0
  7  8  1  0
  7  6  1  0
  8 10  1  0
  8  9  1  1
 10 11  2  0
 12 13  1  0
 12 10  1  0
 14 15  1  0
 13 14  1  1
 15 19  1  0
 16 15  2  0
 17 18  2  0
 17 13  1  0
 20 17  1  0
 21 20  1  0
 21 22  1  1
 22 23  1  0
 23 24  2  0
 23 31  1  0
 24 25  1  0
 25 26  1  0
 26 27  2  0
 27 28  1  0
 29 28  2  0
 30 29  1  0
 31 30  2  0
 31 26  1  0
 32 21  1  0
 33 32  1  0
 34 32  2  0
M  END
$$$$
