RDW.pdb
     RDKit          3D

 34 35  0  0  1  0  0  0  0  0999 V2000
    7.6904  -12.0421   17.4615 N   0  0  0  0  0  0  0  0  0  0  0  0
    8.4484  -13.2381   17.3002 C   0  0  0  0  0  0  0  0  0  0  0  0
    8.8118  -13.5975   16.1264 N   0  0  0  0  0  0  0  0  0  0  0  0
    8.8078  -14.0428   18.4205 N   0  0  0  0  0  0  0  0  0  0  0  0
    8.4107  -15.4246   18.5285 C   0  0  0  0  0  0  0  0  0  0  0  0
    7.0752  -15.5037   19.2378 C   0  0  0  0  0  0  0  0  0  0  0  0
    7.2196  -15.4790   20.7339 C   0  0  0  0  0  0  0  0  0  0  0  0
    8.6551  -15.6833   21.1828 C   0  0  2  0  0  0  0  0  0  0  0  0
    9.2276  -16.6112   20.2181 N   0  0  0  0  0  0  0  0  0  0  0  0
    8.7219  -16.3268   22.5144 C   0  0  0  0  0  0  0  0  0  0  0  0
    7.9676  -16.0311   23.4845 O   0  0  0  0  0  0  0  0  0  0  0  0
    9.2464  -14.5149   15.9391 N   0  0  0  0  0  0  0  0  0  0  0  0
    9.6818  -17.3691   22.8018 C   0  0  2  0  0  0  0  0  0  0  0  0
    9.8663  -17.8976   24.1309 C   0  0  0  0  0  0  0  0  0  0  0  0
   10.9080  -19.0213   23.9988 C   0  0  0  0  0  0  0  0  0  0  0  0
   10.9232  -19.8040   25.2350 O   0  0  0  0  0  0  0  0  0  0  0  0
   10.0111  -19.8984   26.0876 C   0  0  0  0  0  0  0  0  0  0  0  0
   10.4221  -16.9373   25.0869 O   0  0  0  0  0  0  0  0  0  0  0  0
   11.4412  -16.2506   24.8745 O   0  0  0  0  0  0  0  0  0  0  0  0
   12.0795  -20.5511   25.5367 N   0  0  0  0  0  0  0  0  0  0  0  0
    9.7562  -16.7844   26.3284 C   0  0  1  0  0  0  0  0  0  0  0  0
   10.2416  -15.9430   27.4032 C   0  0  0  0  0  0  0  0  0  0  0  0
    9.0453  -15.3220   28.1309 C   0  0  0  0  0  0  0  0  0  0  0  0
    8.0065  -14.9834   27.1275 C   0  0  0  0  0  0  0  0  0  0  0  0
    7.0404  -15.7741   26.5520 N   0  0  0  0  0  0  0  0  0  0  0  0
    6.2970  -15.0983   25.6817 C   0  0  0  0  0  0  0  0  0  0  0  0
    6.7864  -13.8302   25.6849 C   0  0  0  0  0  0  0  0  0  0  0  0
    6.3940  -12.7167   24.9738 C   0  0  0  0  0  0  0  0  0  0  0  0
    7.0508  -11.5371   25.1529 C   0  0  0  0  0  0  0  0  0  0  0  0
    8.1037  -11.4076   26.0248 C   0  0  0  0  0  0  0  0  0  0  0  0
    8.4920  -12.5235   26.7323 C   0  0  0  0  0  0  0  0  0  0  0  0
    7.8395  -13.7273   26.5655 C   0  0  0  0  0  0  0  0  0  0  0  0
   10.9913  -16.7575   28.3780 O   0  0  0  0  0  0  0  0  0  0  0  0
   11.6000  -16.1018   29.4529 O   0  0  0  0  0  0  0  0  0  0  0  0
  2  4  1  0
  2  1  1  0
  3  2  2  0
  5  4  1  0
  6  5  1  0
  7  8  1  0
  7  6  1  0
  8 10  1  0
  8  9  1  6
 10 11  2  0
 12 13  1  0
 12 10  1  0
 14 15  1  0
 13 14  1  1
 15 19  1  0
 16 15  2  0
 17 18  2  0
 17 13  1  0
 20 17  1  0
 21 20  1  0
 21 22  1  6
 22 23  1  0
 23 24  2  0
 23 31  1  0
 24 25  1  0
 25 26  1  0
 26 27  2  0
 27 28  1  0
 29 28  2  0
 30 29  1  0
 31 30  2  0
 31 26  1  0
 32 21  1  0
 33 32  1  0
 34 32  2  0
M  END
$$$$
