RDW.pdb
     RDKit          3D

 34 35  0  0  1  0  0  0  0  0999 V2000
    7.9264  -12.3207   17.6916 N   0  0  0  0  0  0  0  0  0  0  0  0
    8.2936  -13.6793   17.4670 C   0  0  0  0  0  0  0  0  0  0  0  0
    9.0247  -13.9734   16.4581 N   0  0  0  0  0  0  0  0  0  0  0  0
    7.8605  -14.7170   18.3429 N   0  0  0  0  0  0  0  0  0  0  0  0
    6.9062  -14.4794   19.3973 C   0  0  0  0  0  0  0  0  0  0  0  0
    7.6388  -13.9919   20.6296 C   0  0  0  0  0  0  0  0  0  0  0  0
    7.5926  -14.9881   21.7543 C   0  0  0  0  0  0  0  0  0  0  0  0
    8.1746  -16.3342   21.3629 C   0  0  2  0  0  0  0  0  0  0  0  0
    7.0322  -17.2324   21.2759 N   0  0  0  0  0  0  0  0  0  0  0  0
    9.0776  -16.8615   22.4108 C   0  0  0  0  0  0  0  0  0  0  0  0
    8.6866  -17.4958   23.4317 O   0  0  0  0  0  0  0  0  0  0  0  0
    9.3309  -14.9391   16.2602 N   0  0  0  0  0  0  0  0  0  0  0  0
   10.5102  -16.6824   22.3328 C   0  0  2  0  0  0  0  0  0  0  0  0
   11.3964  -17.1144   23.3854 C   0  0  0  0  0  0  0  0  0  0  0  0
   12.8225  -16.8581   22.8701 C   0  0  0  0  0  0  0  0  0  0  0  0
   13.1243  -17.8178   21.8076 O   0  0  0  0  0  0  0  0  0  0  0  0
   12.5830  -18.9293   21.6094 C   0  0  0  0  0  0  0  0  0  0  0  0
   11.2690  -16.3504   24.6285 O   0  0  0  0  0  0  0  0  0  0  0  0
   11.0730  -15.1197   24.6748 O   0  0  0  0  0  0  0  0  0  0  0  0
   14.1342  -17.4903   20.8807 N   0  0  0  0  0  0  0  0  0  0  0  0
   11.3769  -17.0596   25.8506 C   0  0  1  0  0  0  0  0  0  0  0  0
   10.7485  -16.6351   27.0850 C   0  0  0  0  0  0  0  0  0  0  0  0
    9.3139  -16.1882   26.7875 C   0  0  0  0  0  0  0  0  0  0  0  0
    9.2226  -14.7228   26.9997 C   0  0  0  0  0  0  0  0  0  0  0  0
   10.1155  -13.8554   27.5831 N   0  0  0  0  0  0  0  0  0  0  0  0
    9.6622  -12.6060   27.5926 C   0  0  0  0  0  0  0  0  0  0  0  0
    8.4398  -12.6523   26.9999 C   0  0  0  0  0  0  0  0  0  0  0  0
    7.5289  -11.6499   26.7459 C   0  0  0  0  0  0  0  0  0  0  0  0
    6.3524  -11.9494   26.1284 C   0  0  0  0  0  0  0  0  0  0  0  0
    6.0298  -13.2271   25.7425 C   0  0  0  0  0  0  0  0  0  0  0  0
    6.9435  -14.2250   25.9994 C   0  0  0  0  0  0  0  0  0  0  0  0
    8.1408  -13.9422   26.6233 C   0  0  0  0  0  0  0  0  0  0  0  0
   10.6834  -17.7664   28.0293 O   0  0  0  0  0  0  0  0  0  0  0  0
   10.9080  -19.0534   27.5301 O   0  0  0  0  0  0  0  0  0  0  0  0
  2  4  1  0
  2  1  1  0
  3  2  2  0
  5  4  1  0
  6  5  1  0
  7  8  1  0
  7  6  1  0
  8 10  1  0
  8  9  1  1
 10 11  2  0
 12 13  1  0
 12 10  1  0
 14 15  1  0
 13 14  1  6
 15 19  1  0
 16 15  2  0
 17 18  2  0
 17 13  1  0
 20 17  1  0
 21 20  1  0
 21 22  1  1
 22 23  1  0
 23 24  2  0
 23 31  1  0
 24 25  1  0
 25 26  1  0
 26 27  2  0
 27 28  1  0
 29 28  2  0
 30 29  1  0
 31 30  2  0
 31 26  1  0
 32 21  1  0
 33 32  1  0
 34 32  2  0
M  END
$$$$
