RDW.pdb
     RDKit          3D

 34 35  0  0  1  0  0  0  0  0999 V2000
    9.0449  -15.1471   18.0160 N   0  0  0  0  0  0  0  0  0  0  0  0
    8.3982  -13.8814   17.9121 C   0  0  0  0  0  0  0  0  0  0  0  0
    8.7969  -13.0433   17.0301 N   0  0  0  0  0  0  0  0  0  0  0  0
    7.3176  -13.5300   18.7725 N   0  0  0  0  0  0  0  0  0  0  0  0
    7.3616  -13.7715   20.1933 C   0  0  0  0  0  0  0  0  0  0  0  0
    6.5429  -15.0045   20.5131 C   0  0  0  0  0  0  0  0  0  0  0  0
    6.5900  -15.3599   21.9729 C   0  0  0  0  0  0  0  0  0  0  0  0
    7.1948  -16.7302   22.2184 C   0  0  2  0  0  0  0  0  0  0  0  0
    7.2102  -16.8862   23.6658 N   0  0  0  0  0  0  0  0  0  0  0  0
    8.5968  -16.7980   21.7478 C   0  0  0  0  0  0  0  0  0  0  0  0
    8.9913  -17.5283   20.7946 O   0  0  0  0  0  0  0  0  0  0  0  0
    8.4679  -12.0652   17.0088 N   0  0  0  0  0  0  0  0  0  0  0  0
    9.6390  -16.0079   22.3642 C   0  0  2  0  0  0  0  0  0  0  0  0
   10.7424  -16.6100   23.0711 C   0  0  0  0  0  0  0  0  0  0  0  0
   12.0183  -16.0641   22.4085 C   0  0  0  0  0  0  0  0  0  0  0  0
   11.8555  -16.1069   20.9550 O   0  0  0  0  0  0  0  0  0  0  0  0
   11.7206  -17.1215   20.2336 C   0  0  0  0  0  0  0  0  0  0  0  0
   10.8254  -16.2358   24.4847 O   0  0  0  0  0  0  0  0  0  0  0  0
   11.5183  -15.2938   24.9181 O   0  0  0  0  0  0  0  0  0  0  0  0
   11.8443  -14.8871   20.2492 N   0  0  0  0  0  0  0  0  0  0  0  0
   10.0699  -16.9957   25.4120 C   0  0  1  0  0  0  0  0  0  0  0  0
   10.1113  -16.7879   26.8451 C   0  0  0  0  0  0  0  0  0  0  0  0
    8.6990  -16.9526   27.4149 C   0  0  0  0  0  0  0  0  0  0  0  0
    7.7964  -16.0014   26.7212 C   0  0  0  0  0  0  0  0  0  0  0  0
    6.6984  -16.2403   25.9293 N   0  0  0  0  0  0  0  0  0  0  0  0
    6.1543  -15.1141   25.4795 C   0  0  0  0  0  0  0  0  0  0  0  0
    6.9136  -14.1083   25.9889 C   0  0  0  0  0  0  0  0  0  0  0  0
    6.8036  -12.7420   25.8456 C   0  0  0  0  0  0  0  0  0  0  0  0
    7.7004  -11.9253   26.4652 C   0  0  0  0  0  0  0  0  0  0  0  0
    8.7255  -12.4124   27.2381 C   0  0  0  0  0  0  0  0  0  0  0  0
    8.8312  -13.7784   27.3773 C   0  0  0  0  0  0  0  0  0  0  0  0
    7.9327  -14.6225   26.7583 C   0  0  0  0  0  0  0  0  0  0  0  0
   10.9747  -17.8049   27.4744 O   0  0  0  0  0  0  0  0  0  0  0  0
   11.4515  -18.8486   26.6749 O   0  0  0  0  0  0  0  0  0  0  0  0
  2  4  1  0
  2  1  1  0
  3  2  2  0
  5  4  1  0
  6  5  1  0
  7  8  1  0
  7  6  1  0
  8 10  1  0
  8  9  1  1
 10 11  2  0
 12 13  1  0
 12 10  1  0
 14 15  1  0
 13 14  1  6
 15 19  1  0
 16 15  2  0
 17 18  2  0
 17 13  1  0
 20 17  1  0
 21 20  1  0
 21 22  1  1
 22 23  1  0
 23 24  2  0
 23 31  1  0
 24 25  1  0
 25 26  1  0
 26 27  2  0
 27 28  1  0
 29 28  2  0
 30 29  1  0
 31 30  2  0
 31 26  1  0
 32 21  1  0
 33 32  1  0
 34 32  2  0
M  END
$$$$
