RDW.pdb
     RDKit          3D

 34 35  0  0  1  0  0  0  0  0999 V2000
    7.5724  -13.7495   18.0650 N   0  0  0  0  0  0  0  0  0  0  0  0
    7.7422  -12.8157   19.1280 C   0  0  0  0  0  0  0  0  0  0  0  0
    8.5094  -11.8048   18.9590 N   0  0  0  0  0  0  0  0  0  0  0  0
    7.0760  -12.9869   20.3764 N   0  0  0  0  0  0  0  0  0  0  0  0
    6.6801  -14.2861   20.8603 C   0  0  0  0  0  0  0  0  0  0  0  0
    7.7761  -15.2852   20.5545 C   0  0  0  0  0  0  0  0  0  0  0  0
    8.1906  -16.0693   21.7681 C   0  0  0  0  0  0  0  0  0  0  0  0
    9.3539  -17.0030   21.4876 C   0  0  2  0  0  0  0  0  0  0  0  0
    8.9316  -17.8066   20.3495 N   0  0  0  0  0  0  0  0  0  0  0  0
    9.5957  -17.9257   22.6198 C   0  0  0  0  0  0  0  0  0  0  0  0
    9.4975  -19.1835   22.5441 O   0  0  0  0  0  0  0  0  0  0  0  0
    8.6433  -11.0849   19.6865 N   0  0  0  0  0  0  0  0  0  0  0  0
    9.9736  -17.4349   23.9262 C   0  0  2  0  0  0  0  0  0  0  0  0
   11.3473  -17.3940   24.3632 C   0  0  0  0  0  0  0  0  0  0  0  0
   12.0821  -16.4833   23.3653 C   0  0  0  0  0  0  0  0  0  0  0  0
   13.5178  -16.5330   23.6435 O   0  0  0  0  0  0  0  0  0  0  0  0
   14.2455  -17.5498   23.7104 C   0  0  0  0  0  0  0  0  0  0  0  0
   11.5394  -16.7901   25.6836 O   0  0  0  0  0  0  0  0  0  0  0  0
   12.6517  -16.6392   26.2273 O   0  0  0  0  0  0  0  0  0  0  0  0
   14.1958  -15.3180   23.8678 N   0  0  0  0  0  0  0  0  0  0  0  0
   10.3861  -16.3533   26.3815 C   0  0  1  0  0  0  0  0  0  0  0  0
   10.4056  -15.8801   27.7506 C   0  0  0  0  0  0  0  0  0  0  0  0
    8.9724  -15.8535   28.2905 C   0  0  0  0  0  0  0  0  0  0  0  0
    8.0577  -15.4833   27.1828 C   0  0  0  0  0  0  0  0  0  0  0  0
    7.2442  -16.2728   26.4051 N   0  0  0  0  0  0  0  0  0  0  0  0
    6.5767  -15.5622   25.5017 C   0  0  0  0  0  0  0  0  0  0  0  0
    6.9607  -14.2720   25.6899 C   0  0  0  0  0  0  0  0  0  0  0  0
    6.5838  -13.1203   25.0334 C   0  0  0  0  0  0  0  0  0  0  0  0
    7.1159  -11.9248   25.4111 C   0  0  0  0  0  0  0  0  0  0  0  0
    8.0260  -11.8160   26.4335 C   0  0  0  0  0  0  0  0  0  0  0  0
    8.3995  -12.9700   27.0857 C   0  0  0  0  0  0  0  0  0  0  0  0
    7.8719  -14.1905   26.7186 C   0  0  0  0  0  0  0  0  0  0  0  0
   11.1883  -16.8066   28.5902 O   0  0  0  0  0  0  0  0  0  0  0  0
   11.4678  -16.4249   29.9062 O   0  0  0  0  0  0  0  0  0  0  0  0
  2  4  1  0
  2  1  1  0
  3  2  2  0
  5  4  1  0
  6  5  1  0
  7  8  1  0
  7  6  1  0
  8 10  1  0
  8  9  1  6
 10 11  2  0
 12 13  1  0
 12 10  1  0
 14 15  1  0
 13 14  1  6
 15 19  1  0
 16 15  2  0
 17 18  2  0
 17 13  1  0
 20 17  1  0
 21 20  1  0
 21 22  1  1
 22 23  1  0
 23 24  2  0
 23 31  1  0
 24 25  1  0
 25 26  1  0
 26 27  2  0
 27 28  1  0
 29 28  2  0
 30 29  1  0
 31 30  2  0
 31 26  1  0
 32 21  1  0
 33 32  1  0
 34 32  2  0
M  END
$$$$
