RDW.pdb
     RDKit          3D

 34 35  0  0  1  0  0  0  0  0999 V2000
    8.4549  -13.1804   17.1130 N   0  0  0  0  0  0  0  0  0  0  0  0
    8.6142  -12.8525   18.4907 C   0  0  0  0  0  0  0  0  0  0  0  0
    9.4937  -11.9873   18.8325 N   0  0  0  0  0  0  0  0  0  0  0  0
    7.8145  -13.4711   19.4955 N   0  0  0  0  0  0  0  0  0  0  0  0
    7.1560  -14.7352   19.2782 C   0  0  0  0  0  0  0  0  0  0  0  0
    6.3567  -15.0974   20.5123 C   0  0  0  0  0  0  0  0  0  0  0  0
    7.2311  -15.5531   21.6470 C   0  0  0  0  0  0  0  0  0  0  0  0
    7.9341  -16.8648   21.3485 C   0  0  2  0  0  0  0  0  0  0  0  0
    6.8673  -17.8452   21.2066 N   0  0  0  0  0  0  0  0  0  0  0  0
    8.7868  -17.2943   22.4799 C   0  0  0  0  0  0  0  0  0  0  0  0
    8.3644  -17.9352   23.4840 O   0  0  0  0  0  0  0  0  0  0  0  0
    9.6656  -11.7335   19.8182 N   0  0  0  0  0  0  0  0  0  0  0  0
   10.2025  -17.0022   22.5117 C   0  0  2  0  0  0  0  0  0  0  0  0
   11.0219  -17.2983   23.6608 C   0  0  0  0  0  0  0  0  0  0  0  0
   12.4624  -16.9425   23.2567 C   0  0  0  0  0  0  0  0  0  0  0  0
   12.8462  -17.7526   22.1001 O   0  0  0  0  0  0  0  0  0  0  0  0
   12.4088  -18.8821   21.7830 C   0  0  0  0  0  0  0  0  0  0  0  0
   10.7174  -16.4857   24.8407 O   0  0  0  0  0  0  0  0  0  0  0  0
   10.7783  -15.2403   24.8655 O   0  0  0  0  0  0  0  0  0  0  0  0
   13.8171  -17.2373   21.2180 N   0  0  0  0  0  0  0  0  0  0  0  0
   10.3310  -17.1627   26.0241 C   0  0  1  0  0  0  0  0  0  0  0  0
   10.1688  -16.5104   27.3074 C   0  0  0  0  0  0  0  0  0  0  0  0
    8.7203  -16.6816   27.7754 C   0  0  0  0  0  0  0  0  0  0  0  0
    7.8344  -15.9298   26.8531 C   0  0  0  0  0  0  0  0  0  0  0  0
    6.9394  -16.3877   25.9155 N   0  0  0  0  0  0  0  0  0  0  0  0
    6.3350  -15.3917   25.2757 C   0  0  0  0  0  0  0  0  0  0  0  0
    6.8453  -14.2489   25.8061 C   0  0  0  0  0  0  0  0  0  0  0  0
    6.5759  -12.9287   25.5166 C   0  0  0  0  0  0  0  0  0  0  0  0
    7.2265  -11.9438   26.1962 C   0  0  0  0  0  0  0  0  0  0  0  0
    8.1537  -12.2139   27.1722 C   0  0  0  0  0  0  0  0  0  0  0  0
    8.4195  -13.5348   27.4571 C   0  0  0  0  0  0  0  0  0  0  0  0
    7.7711  -14.5470   26.7804 C   0  0  0  0  0  0  0  0  0  0  0  0
   11.0459  -17.1471   28.3079 O   0  0  0  0  0  0  0  0  0  0  0  0
   11.1515  -16.5471   29.5667 O   0  0  0  0  0  0  0  0  0  0  0  0
  2  4  1  0
  2  1  1  0
  3  2  2  0
  5  4  1  0
  6  5  1  0
  7  8  1  0
  7  6  1  0
  8 10  1  0
  8  9  1  1
 10 11  2  0
 12 13  1  0
 12 10  1  0
 14 15  1  0
 13 14  1  6
 15 19  1  0
 16 15  2  0
 17 18  2  0
 17 13  1  0
 20 17  1  0
 21 20  1  0
 21 22  1  1
 22 23  1  0
 23 24  2  0
 23 31  1  0
 24 25  1  0
 25 26  1  0
 26 27  2  0
 27 28  1  0
 29 28  2  0
 30 29  1  0
 31 30  2  0
 31 26  1  0
 32 21  1  0
 33 32  1  0
 34 32  2  0
M  END
$$$$
