RDW.pdb
     RDKit          3D

 34 35  0  0  1  0  0  0  0  0999 V2000
    8.1911  -12.3735   16.6866 N   0  0  0  0  0  0  0  0  0  0  0  0
    7.9205  -13.7644   16.5342 C   0  0  0  0  0  0  0  0  0  0  0  0
    8.2892  -14.3621   15.4638 N   0  0  0  0  0  0  0  0  0  0  0  0
    7.2454  -14.5022   17.5498 N   0  0  0  0  0  0  0  0  0  0  0  0
    6.8109  -13.8887   18.7802 C   0  0  0  0  0  0  0  0  0  0  0  0
    8.0084  -13.6876   19.6849 C   0  0  0  0  0  0  0  0  0  0  0  0
    8.0281  -14.6586   20.8323 C   0  0  0  0  0  0  0  0  0  0  0  0
    9.1070  -15.7155   20.6809 C   0  0  2  0  0  0  0  0  0  0  0  0
    8.5510  -16.6985   19.7622 N   0  0  0  0  0  0  0  0  0  0  0  0
    9.3758  -16.4053   21.9629 C   0  0  0  0  0  0  0  0  0  0  0  0
    8.4863  -16.9514   22.6755 O   0  0  0  0  0  0  0  0  0  0  0  0
    8.1341  -15.3714   15.3129 N   0  0  0  0  0  0  0  0  0  0  0  0
   10.7144  -16.5050   22.5002 C   0  0  1  0  0  0  0  0  0  0  0  0
   10.9975  -17.2000   23.7318 C   0  0  0  0  0  0  0  0  0  0  0  0
   12.4866  -17.5797   23.6710 C   0  0  0  0  0  0  0  0  0  0  0  0
   12.6906  -18.5332   22.5799 O   0  0  0  0  0  0  0  0  0  0  0  0
   12.0904  -19.6161   22.3932 C   0  0  0  0  0  0  0  0  0  0  0  0
   10.8349  -16.3804   24.9346 O   0  0  0  0  0  0  0  0  0  0  0  0
   11.2577  -15.2124   25.0461 O   0  0  0  0  0  0  0  0  0  0  0  0
   13.6658  -18.2346   21.6073 N   0  0  0  0  0  0  0  0  0  0  0  0
   10.1550  -16.9564   26.0364 C   0  0  1  0  0  0  0  0  0  0  0  0
   10.0229  -16.3111   27.3267 C   0  0  0  0  0  0  0  0  0  0  0  0
    8.5558  -16.3639   27.7640 C   0  0  0  0  0  0  0  0  0  0  0  0
    7.7486  -15.5713   26.8044 C   0  0  0  0  0  0  0  0  0  0  0  0
    6.8976  -15.9873   25.8081 N   0  0  0  0  0  0  0  0  0  0  0  0
    6.3617  -14.9635   25.1513 C   0  0  0  0  0  0  0  0  0  0  0  0
    6.8729  -13.8452   25.7305 C   0  0  0  0  0  0  0  0  0  0  0  0
    6.6599  -12.5131   25.4486 C   0  0  0  0  0  0  0  0  0  0  0  0
    7.2976  -11.5590   26.1822 C   0  0  0  0  0  0  0  0  0  0  0  0
    8.1571  -11.8722   27.2063 C   0  0  0  0  0  0  0  0  0  0  0  0
    8.3667  -13.2049   27.4832 C   0  0  0  0  0  0  0  0  0  0  0  0
    7.7302  -14.1862   26.7522 C   0  0  0  0  0  0  0  0  0  0  0  0
   10.8216  -17.0352   28.3334 O   0  0  0  0  0  0  0  0  0  0  0  0
   11.4845  -18.1998   27.9334 O   0  0  0  0  0  0  0  0  0  0  0  0
  2  4  1  0
  2  1  1  0
  3  2  2  0
  5  4  1  0
  6  5  1  0
  7  8  1  0
  7  6  1  0
  8 10  1  0
  8  9  1  6
 10 11  2  0
 12 13  1  0
 12 10  1  0
 14 15  1  0
 13 14  1  1
 15 19  1  0
 16 15  2  0
 17 18  2  0
 17 13  1  0
 20 17  1  0
 21 20  1  0
 21 22  1  1
 22 23  1  0
 23 24  2  0
 23 31  1  0
 24 25  1  0
 25 26  1  0
 26 27  2  0
 27 28  1  0
 29 28  2  0
 30 29  1  0
 31 30  2  0
 31 26  1  0
 32 21  1  0
 33 32  1  0
 34 32  2  0
M  END
$$$$
