RDW.pdb
     RDKit          3D

 34 35  0  0  1  0  0  0  0  0999 V2000
    7.0365  -13.5243   16.8371 N   0  0  0  0  0  0  0  0  0  0  0  0
    7.8438  -12.9241   17.8465 C   0  0  0  0  0  0  0  0  0  0  0  0
    7.5977  -11.7231   18.2155 N   0  0  0  0  0  0  0  0  0  0  0  0
    8.9212  -13.6345   18.4516 N   0  0  0  0  0  0  0  0  0  0  0  0
    8.7061  -14.8171   19.2479 C   0  0  0  0  0  0  0  0  0  0  0  0
    7.6584  -14.5231   20.3009 C   0  0  0  0  0  0  0  0  0  0  0  0
    7.4612  -15.6730   21.2487 C   0  0  0  0  0  0  0  0  0  0  0  0
    8.4897  -16.7718   21.0515 C   0  0  2  0  0  0  0  0  0  0  0  0
    7.7488  -17.8903   20.4864 N   0  0  0  0  0  0  0  0  0  0  0  0
    9.0596  -17.2209   22.3419 C   0  0  0  0  0  0  0  0  0  0  0  0
    8.3756  -17.6922   23.2945 O   0  0  0  0  0  0  0  0  0  0  0  0
    8.1623  -11.2379   18.9305 N   0  0  0  0  0  0  0  0  0  0  0  0
   10.4794  -17.1500   22.6056 C   0  0  2  0  0  0  0  0  0  0  0  0
   11.0572  -17.6356   23.8345 C   0  0  0  0  0  0  0  0  0  0  0  0
   12.5762  -17.6828   23.5985 C   0  0  0  0  0  0  0  0  0  0  0  0
   12.8500  -18.5126   22.4248 O   0  0  0  0  0  0  0  0  0  0  0  0
   13.3682  -18.1537   21.3429 C   0  0  0  0  0  0  0  0  0  0  0  0
   10.8510  -16.7527   24.9848 O   0  0  0  0  0  0  0  0  0  0  0  0
   11.2234  -15.5632   25.0277 O   0  0  0  0  0  0  0  0  0  0  0  0
   12.5051  -19.8780   22.4786 N   0  0  0  0  0  0  0  0  0  0  0  0
   10.1873  -17.2897   26.1158 C   0  0  1  0  0  0  0  0  0  0  0  0
   10.0667  -16.5962   27.3819 C   0  0  0  0  0  0  0  0  0  0  0  0
    8.6010  -16.6191   27.8266 C   0  0  0  0  0  0  0  0  0  0  0  0
    7.8027  -15.8243   26.8613 C   0  0  0  0  0  0  0  0  0  0  0  0
    6.9290  -16.2371   25.8834 N   0  0  0  0  0  0  0  0  0  0  0  0
    6.4116  -15.2125   25.2132 C   0  0  0  0  0  0  0  0  0  0  0  0
    6.9587  -14.0969   25.7643 C   0  0  0  0  0  0  0  0  0  0  0  0
    6.7767  -12.7654   25.4590 C   0  0  0  0  0  0  0  0  0  0  0  0
    7.4478  -11.8143   26.1663 C   0  0  0  0  0  0  0  0  0  0  0  0
    8.3114  -12.1300   27.1859 C   0  0  0  0  0  0  0  0  0  0  0  0
    8.4900  -13.4622   27.4864 C   0  0  0  0  0  0  0  0  0  0  0  0
    7.8194  -14.4405   26.7823 C   0  0  0  0  0  0  0  0  0  0  0  0
   10.8628  -17.2904   28.4116 O   0  0  0  0  0  0  0  0  0  0  0  0
   11.5263  -18.4665   28.0478 O   0  0  0  0  0  0  0  0  0  0  0  0
  2  4  1  0
  2  1  1  0
  3  2  2  0
  5  4  1  0
  6  5  1  0
  7  8  1  0
  7  6  1  0
  8 10  1  0
  8  9  1  1
 10 11  2  0
 12 13  1  0
 12 10  1  0
 14 15  1  0
 13 14  1  6
 15 19  1  0
 16 15  2  0
 17 18  2  0
 17 13  1  0
 20 17  1  0
 21 20  1  0
 21 22  1  1
 22 23  1  0
 23 24  2  0
 23 31  1  0
 24 25  1  0
 25 26  1  0
 26 27  2  0
 27 28  1  0
 29 28  2  0
 30 29  1  0
 31 30  2  0
 31 26  1  0
 32 21  1  0
 33 32  1  0
 34 32  2  0
M  END
$$$$
