RDW.pdb
     RDKit          3D

 34 35  0  0  1  0  0  0  0  0999 V2000
    6.8195  -12.4693   17.3162 N   0  0  0  0  0  0  0  0  0  0  0  0
    7.8345  -12.9685   16.4493 C   0  0  0  0  0  0  0  0  0  0  0  0
    8.0486  -12.3833   15.3310 N   0  0  0  0  0  0  0  0  0  0  0  0
    8.6143  -14.1081   16.8026 N   0  0  0  0  0  0  0  0  0  0  0  0
    8.3707  -14.8570   18.0105 C   0  0  0  0  0  0  0  0  0  0  0  0
    8.3730  -13.9093   19.1914 C   0  0  0  0  0  0  0  0  0  0  0  0
    8.1288  -14.6181   20.4944 C   0  0  0  0  0  0  0  0  0  0  0  0
    8.9330  -15.8994   20.6187 C   0  0  2  0  0  0  0  0  0  0  0  0
    8.1810  -16.8955   19.8693 N   0  0  0  0  0  0  0  0  0  0  0  0
    9.0070  -16.3606   22.0235 C   0  0  0  0  0  0  0  0  0  0  0  0
    8.0023  -16.5105   22.7755 O   0  0  0  0  0  0  0  0  0  0  0  0
    8.7880  -12.6901   14.6793 N   0  0  0  0  0  0  0  0  0  0  0  0
   10.2714  -16.6818   22.6470 C   0  0  1  0  0  0  0  0  0  0  0  0
   10.3522  -17.2573   23.9669 C   0  0  0  0  0  0  0  0  0  0  0  0
   11.5085  -18.2701   23.9170 C   0  0  0  0  0  0  0  0  0  0  0  0
   11.1545  -19.3518   22.9974 O   0  0  0  0  0  0  0  0  0  0  0  0
   11.5571  -19.5150   21.8231 C   0  0  0  0  0  0  0  0  0  0  0  0
   10.6955  -16.2987   25.0197 O   0  0  0  0  0  0  0  0  0  0  0  0
   11.5457  -15.3954   24.8914 O   0  0  0  0  0  0  0  0  0  0  0  0
   10.2601  -20.3436   23.4476 N   0  0  0  0  0  0  0  0  0  0  0  0
   10.0164  -16.4106   26.2583 C   0  0  2  0  0  0  0  0  0  0  0  0
   10.5272  -15.8811   27.5063 C   0  0  0  0  0  0  0  0  0  0  0  0
    9.6808  -14.6735   27.9205 C   0  0  0  0  0  0  0  0  0  0  0  0
    8.4125  -14.7001   27.1514 C   0  0  0  0  0  0  0  0  0  0  0  0
    7.4916  -15.7091   26.9973 N   0  0  0  0  0  0  0  0  0  0  0  0
    6.4802  -15.3450   26.2155 C   0  0  0  0  0  0  0  0  0  0  0  0
    6.7422  -14.0635   25.8458 C   0  0  0  0  0  0  0  0  0  0  0  0
    6.0300  -13.1995   25.0424 C   0  0  0  0  0  0  0  0  0  0  0  0
    6.5051  -11.9431   24.8169 C   0  0  0  0  0  0  0  0  0  0  0  0
    7.6816  -11.4935   25.3638 C   0  0  0  0  0  0  0  0  0  0  0  0
    8.3896  -12.3613   26.1653 C   0  0  0  0  0  0  0  0  0  0  0  0
    7.9252  -13.6376   26.4063 C   0  0  0  0  0  0  0  0  0  0  0  0
   10.4124  -16.8995   28.5673 O   0  0  0  0  0  0  0  0  0  0  0  0
   11.0058  -16.6298   29.8046 O   0  0  0  0  0  0  0  0  0  0  0  0
  2  4  1  0
  2  1  1  0
  3  2  2  0
  5  4  1  0
  6  5  1  0
  7  8  1  0
  7  6  1  0
  8 10  1  0
  8  9  1  6
 10 11  2  0
 12 13  1  0
 12 10  1  0
 14 15  1  0
 13 14  1  6
 15 19  1  0
 16 15  2  0
 17 18  2  0
 17 13  1  0
 20 17  1  0
 21 20  1  0
 21 22  1  6
 22 23  1  0
 23 24  2  0
 23 31  1  0
 24 25  1  0
 25 26  1  0
 26 27  2  0
 27 28  1  0
 29 28  2  0
 30 29  1  0
 31 30  2  0
 31 26  1  0
 32 21  1  0
 33 32  1  0
 34 32  2  0
M  END
$$$$
