RDW.pdb
     RDKit          3D

 34 35  0  0  1  0  0  0  0  0999 V2000
    9.6456  -12.8540   19.4562 N   0  0  0  0  0  0  0  0  0  0  0  0
    8.6094  -12.9286   18.4807 C   0  0  0  0  0  0  0  0  0  0  0  0
    8.8939  -12.7386   17.2469 N   0  0  0  0  0  0  0  0  0  0  0  0
    7.2622  -13.2084   18.8525 N   0  0  0  0  0  0  0  0  0  0  0  0
    6.9098  -13.6418   20.1817 C   0  0  0  0  0  0  0  0  0  0  0  0
    7.1360  -15.1349   20.2936 C   0  0  0  0  0  0  0  0  0  0  0  0
    8.4710  -15.4676   20.8991 C   0  0  0  0  0  0  0  0  0  0  0  0
    8.7505  -16.9595   20.9063 C   0  0  2  0  0  0  0  0  0  0  0  0
    7.4776  -17.5871   20.5821 N   0  0  0  0  0  0  0  0  0  0  0  0
    9.1505  -17.4312   22.2513 C   0  0  0  0  0  0  0  0  0  0  0  0
    8.3370  -17.8043   23.1439 O   0  0  0  0  0  0  0  0  0  0  0  0
    8.1724  -12.7270   16.5089 N   0  0  0  0  0  0  0  0  0  0  0  0
   10.5400  -17.5005   22.6447 C   0  0  2  0  0  0  0  0  0  0  0  0
   10.9434  -17.8940   23.9722 C   0  0  0  0  0  0  0  0  0  0  0  0
   12.4548  -18.1670   23.8919 C   0  0  0  0  0  0  0  0  0  0  0  0
   12.6846  -19.3195   23.0201 O   0  0  0  0  0  0  0  0  0  0  0  0
   11.9660  -20.3377   22.8990 C   0  0  0  0  0  0  0  0  0  0  0  0
   10.7713  -16.8509   24.9858 O   0  0  0  0  0  0  0  0  0  0  0  0
   11.0582  -15.6503   24.8081 O   0  0  0  0  0  0  0  0  0  0  0  0
   13.8364  -19.3217   22.2079 N   0  0  0  0  0  0  0  0  0  0  0  0
   10.2464  -17.2365   26.2443 C   0  0  1  0  0  0  0  0  0  0  0  0
   10.2149  -16.3677   27.4031 C   0  0  0  0  0  0  0  0  0  0  0  0
    8.8113  -16.4020   28.0155 C   0  0  0  0  0  0  0  0  0  0  0  0
    7.8438  -15.9068   27.0059 C   0  0  0  0  0  0  0  0  0  0  0  0
    6.9427  -16.5968   26.2302 N   0  0  0  0  0  0  0  0  0  0  0  0
    6.2517  -15.7893   25.4319 C   0  0  0  0  0  0  0  0  0  0  0  0
    6.7098  -14.5357   25.6892 C   0  0  0  0  0  0  0  0  0  0  0  0
    6.3464  -13.3208   25.1493 C   0  0  0  0  0  0  0  0  0  0  0  0
    6.9602  -12.1828   25.5775 C   0  0  0  0  0  0  0  0  0  0  0  0
    7.9408  -12.1941   26.5386 C   0  0  0  0  0  0  0  0  0  0  0  0
    8.3004  -13.4109   27.0743 C   0  0  0  0  0  0  0  0  0  0  0  0
    7.6906  -14.5747   26.6544 C   0  0  0  0  0  0  0  0  0  0  0  0
   11.1648  -16.8549   28.4210 O   0  0  0  0  0  0  0  0  0  0  0  0
   11.3538  -16.0789   29.5690 O   0  0  0  0  0  0  0  0  0  0  0  0
  2  4  1  0
  2  1  1  0
  3  2  2  0
  5  4  1  0
  6  5  1  0
  7  8  1  0
  7  6  1  0
  8 10  1  0
  8  9  1  1
 10 11  2  0
 12 13  1  0
 12 10  1  0
 14 15  1  0
 13 14  1  6
 15 19  1  0
 16 15  2  0
 17 18  2  0
 17 13  1  0
 20 17  1  0
 21 20  1  0
 21 22  1  1
 22 23  1  0
 23 24  2  0
 23 31  1  0
 24 25  1  0
 25 26  1  0
 26 27  2  0
 27 28  1  0
 29 28  2  0
 30 29  1  0
 31 30  2  0
 31 26  1  0
 32 21  1  0
 33 32  1  0
 34 32  2  0
M  END
$$$$
