RDW.pdb
     RDKit          3D

 34 35  0  0  1  0  0  0  0  0999 V2000
    9.6369  -13.3083   17.7829 N   0  0  0  0  0  0  0  0  0  0  0  0
    8.5550  -12.9962   18.6564 C   0  0  0  0  0  0  0  0  0  0  0  0
    8.6164  -11.9418   19.3799 N   0  0  0  0  0  0  0  0  0  0  0  0
    7.4070  -13.8367   18.7414 N   0  0  0  0  0  0  0  0  0  0  0  0
    7.3438  -15.1148   18.0771 C   0  0  0  0  0  0  0  0  0  0  0  0
    6.7624  -16.1403   19.0275 C   0  0  0  0  0  0  0  0  0  0  0  0
    7.6783  -16.4340   20.1826 C   0  0  0  0  0  0  0  0  0  0  0  0
    8.7189  -17.4866   19.8463 C   0  0  2  0  0  0  0  0  0  0  0  0
    7.9858  -18.7431   19.7910 N   0  0  0  0  0  0  0  0  0  0  0  0
    9.7338  -17.6093   20.9170 C   0  0  0  0  0  0  0  0  0  0  0  0
    9.5928  -18.3229   21.9506 O   0  0  0  0  0  0  0  0  0  0  0  0
    7.8813  -11.6956   20.0614 N   0  0  0  0  0  0  0  0  0  0  0  0
   10.9927  -16.9014   20.8487 C   0  0  2  0  0  0  0  0  0  0  0  0
   11.8639  -16.7723   21.9907 C   0  0  0  0  0  0  0  0  0  0  0  0
   13.1240  -16.0519   21.4825 C   0  0  0  0  0  0  0  0  0  0  0  0
   13.7433  -16.8603   20.4318 O   0  0  0  0  0  0  0  0  0  0  0  0
   13.8161  -16.5947   19.2103 C   0  0  0  0  0  0  0  0  0  0  0  0
   11.3237  -15.9381   23.0665 O   0  0  0  0  0  0  0  0  0  0  0  0
   11.2527  -14.6939   23.0168 O   0  0  0  0  0  0  0  0  0  0  0  0
   14.3369  -18.0856   20.7959 N   0  0  0  0  0  0  0  0  0  0  0  0
   10.8552  -16.5912   24.2335 C   0  0  1  0  0  0  0  0  0  0  0  0
    9.8414  -16.0419   25.1105 C   0  0  0  0  0  0  0  0  0  0  0  0
    8.5562  -15.8154   24.3085 C   0  0  0  0  0  0  0  0  0  0  0  0
    7.5460  -15.1961   25.2010 C   0  0  0  0  0  0  0  0  0  0  0  0
    6.4741  -15.7606   25.8509 N   0  0  0  0  0  0  0  0  0  0  0  0
    5.7925  -14.8650   26.5580 C   0  0  0  0  0  0  0  0  0  0  0  0
    6.4324  -13.6808   26.3687 C   0  0  0  0  0  0  0  0  0  0  0  0
    6.1571  -12.4245   26.8639 C   0  0  0  0  0  0  0  0  0  0  0  0
    6.9586  -11.3765   26.5258 C   0  0  0  0  0  0  0  0  0  0  0  0
    8.0459  -11.5201   25.6996 C   0  0  0  0  0  0  0  0  0  0  0  0
    8.3161  -12.7775   25.2071 C   0  0  0  0  0  0  0  0  0  0  0  0
    7.5167  -13.8519   25.5379 C   0  0  0  0  0  0  0  0  0  0  0  0
    9.5385  -17.0012   26.1893 O   0  0  0  0  0  0  0  0  0  0  0  0
    9.2087  -16.4914   27.4492 O   0  0  0  0  0  0  0  0  0  0  0  0
  2  4  1  0
  2  1  1  0
  3  2  2  0
  5  4  1  0
  6  5  1  0
  7  8  1  0
  7  6  1  0
  8 10  1  0
  8  9  1  1
 10 11  2  0
 12 13  1  0
 12 10  1  0
 14 15  1  0
 13 14  1  6
 15 19  1  0
 16 15  2  0
 17 18  2  0
 17 13  1  0
 20 17  1  0
 21 20  1  0
 21 22  1  1
 22 23  1  0
 23 24  2  0
 23 31  1  0
 24 25  1  0
 25 26  1  0
 26 27  2  0
 27 28  1  0
 29 28  2  0
 30 29  1  0
 31 30  2  0
 31 26  1  0
 32 21  1  0
 33 32  1  0
 34 32  2  0
M  END
$$$$
