WCG.pdb
     RDKit          3D

 25 26  0  0  1  0  0  0  0  0999 V2000
   25.4886  -21.3212  -17.1281 N   0  0  0  0  0  0  0  0  0  0  0  0
   25.2787  -20.5821  -15.9289 C   0  0  1  0  0  0  0  0  0  0  0  0
   23.8374  -20.5472  -15.4680 C   0  0  0  0  0  0  0  0  0  0  0  0
   22.9922  -19.8110  -16.4186 C   0  0  0  0  0  0  0  0  0  0  0  0
   22.3151  -20.3540  -17.4985 C   0  0  0  0  0  0  0  0  0  0  0  0
   21.6829  -19.3781  -18.1524 N   0  0  0  0  0  0  0  0  0  0  0  0
   21.9385  -18.2231  -17.5166 C   0  0  0  0  0  0  0  0  0  0  0  0
   21.5230  -16.9527  -17.7855 C   0  0  0  0  0  0  0  0  0  0  0  0
   21.9150  -15.9163  -16.9736 C   0  0  0  0  0  0  0  0  0  0  0  0
   22.7277  -16.1477  -15.8847 C   0  0  0  0  0  0  0  0  0  0  0  0
   23.1569  -17.4171  -15.5970 C   0  0  0  0  0  0  0  0  0  0  0  0
   22.7603  -18.4562  -16.4178 C   0  0  0  0  0  0  0  0  0  0  0  0
   26.0907  -21.0895  -14.7871 C   0  0  0  0  0  0  0  0  0  0  0  0
   26.1083  -22.3455  -14.5437 O   0  0  0  0  0  0  0  0  0  0  0  0
   26.8656  -20.2764  -13.9269 N   0  0  0  0  0  0  0  0  0  0  0  0
   27.3888  -20.7842  -12.6575 C   0  0  1  0  0  0  0  0  0  0  0  0
   28.7962  -20.2424  -12.5045 C   0  0  0  0  0  0  0  0  0  0  0  0
   29.3983  -19.4500  -13.9829 S   0  0  0  0  0  0  0  0  0  0  0  0
   26.4912  -20.4629  -11.5441 C   0  0  0  0  0  0  0  0  0  0  0  0
   25.8078  -19.3833  -11.6224 O   0  0  0  0  0  0  0  0  0  0  0  0
   26.2936  -21.2222  -10.3813 N   0  0  0  0  0  0  0  0  0  0  0  0
   25.3641  -20.8541   -9.3278 C   0  0  0  0  0  0  0  0  0  0  0  0
   23.9611  -21.1892   -9.7410 C   0  0  0  0  0  0  0  0  0  0  0  0
   22.9039  -20.8660   -8.9034 O   0  0  0  0  0  0  0  0  0  0  0  0
   23.7939  -21.7602  -10.8508 O   0  0  0  0  0  0  0  0  0  0  0  0
  2  1  1  6
  2 13  1  0
  3  2  1  0
  4  3  1  0
  5  4  2  0
  6  7  1  0
  6  5  1  0
  7 12  2  0
  8  9  2  0
  8  7  1  0
  9 10  1  0
 10 11  2  0
 12  4  1  0
 12 11  1  0
 13 14  2  0
 15 16  1  0
 15 13  1  0
 16 17  1  1
 17 18  1  0
 19 16  1  0
 19 20  2  0
 21 19  1  0
 22 21  1  0
 23 22  1  0
 24 23  1  0
 25 23  2  0
M  END
$$$$
