WCG.pdb
     RDKit          3D

 25 26  0  0  1  0  0  0  0  0999 V2000
   24.4600  -19.5364  -11.7816 N   0  0  0  0  0  0  0  0  0  0  0  0
   25.6691  -20.2618  -11.9818 C   0  0  1  0  0  0  0  0  0  0  0  0
   25.8113  -21.4831  -11.0990 C   0  0  0  0  0  0  0  0  0  0  0  0
   26.0814  -21.1038   -9.7050 C   0  0  0  0  0  0  0  0  0  0  0  0
   25.1361  -20.7326   -8.7627 C   0  0  0  0  0  0  0  0  0  0  0  0
   25.7551  -20.4246   -7.6217 N   0  0  0  0  0  0  0  0  0  0  0  0
   27.0743  -20.5903   -7.8109 C   0  0  0  0  0  0  0  0  0  0  0  0
   28.1214  -20.4126   -6.9559 C   0  0  0  0  0  0  0  0  0  0  0  0
   29.4041  -20.6574   -7.3818 C   0  0  0  0  0  0  0  0  0  0  0  0
   29.6457  -21.0829   -8.6703 C   0  0  0  0  0  0  0  0  0  0  0  0
   28.6074  -21.2674   -9.5458 C   0  0  0  0  0  0  0  0  0  0  0  0
   27.3187  -21.0186   -9.1124 C   0  0  0  0  0  0  0  0  0  0  0  0
   25.8439  -20.7174  -13.3898 C   0  0  0  0  0  0  0  0  0  0  0  0
   24.8253  -21.1372  -14.0406 O   0  0  0  0  0  0  0  0  0  0  0  0
   27.0752  -20.7238  -14.0864 N   0  0  0  0  0  0  0  0  0  0  0  0
   27.1584  -21.1212  -15.4929 C   0  0  1  0  0  0  0  0  0  0  0  0
   28.4402  -20.5337  -16.0491 C   0  0  0  0  0  0  0  0  0  0  0  0
   28.4705  -18.7529  -15.9873 S   0  0  0  0  0  0  0  0  0  0  0  0
   27.0418  -22.5744  -15.6442 C   0  0  0  0  0  0  0  0  0  0  0  0
   27.5192  -23.3106  -14.7120 O   0  0  0  0  0  0  0  0  0  0  0  0
   26.4532  -23.2606  -16.7168 N   0  0  0  0  0  0  0  0  0  0  0  0
   26.3975  -24.7087  -16.8126 C   0  0  0  0  0  0  0  0  0  0  0  0
   25.0689  -25.2048  -16.3227 C   0  0  0  0  0  0  0  0  0  0  0  0
   24.1433  -24.3028  -15.8193 O   0  0  0  0  0  0  0  0  0  0  0  0
   24.8407  -26.4414  -16.3885 O   0  0  0  0  0  0  0  0  0  0  0  0
  2  1  1  6
  2 13  1  0
  3  2  1  0
  4  3  1  0
  5  4  2  0
  6  7  1  0
  6  5  1  0
  7 12  2  0
  8  9  2  0
  8  7  1  0
  9 10  1  0
 10 11  2  0
 12  4  1  0
 12 11  1  0
 13 14  2  0
 15 16  1  0
 15 13  1  0
 16 17  1  1
 17 18  1  0
 19 16  1  0
 19 20  2  0
 21 19  1  0
 22 21  1  0
 23 22  1  0
 24 23  1  0
 25 23  2  0
M  END
$$$$
