WCG.pdb
     RDKit          3D

 25 26  0  0  1  0  0  0  0  0999 V2000
   28.0994  -21.2538  -15.9717 N   0  0  0  0  0  0  0  0  0  0  0  0
   27.5077  -20.3647  -15.0295 C   0  0  1  0  0  0  0  0  0  0  0  0
   26.3091  -19.6084  -15.5608 C   0  0  0  0  0  0  0  0  0  0  0  0
   26.7219  -18.5134  -16.4500 C   0  0  0  0  0  0  0  0  0  0  0  0
   27.0283  -18.6272  -17.7963 C   0  0  0  0  0  0  0  0  0  0  0  0
   27.3944  -17.4322  -18.2629 N   0  0  0  0  0  0  0  0  0  0  0  0
   27.3291  -16.5558  -17.2474 C   0  0  0  0  0  0  0  0  0  0  0  0
   27.5955  -15.2191  -17.2121 C   0  0  0  0  0  0  0  0  0  0  0  0
   27.4461  -14.5205  -16.0388 C   0  0  0  0  0  0  0  0  0  0  0  0
   27.0278  -15.1592  -14.8912 C   0  0  0  0  0  0  0  0  0  0  0  0
   26.7551  -16.5022  -14.9051 C   0  0  0  0  0  0  0  0  0  0  0  0
   26.9081  -17.2006  -16.0881 C   0  0  0  0  0  0  0  0  0  0  0  0
   27.0730  -21.0513  -13.7804 C   0  0  0  0  0  0  0  0  0  0  0  0
   26.4210  -22.1489  -13.8665 O   0  0  0  0  0  0  0  0  0  0  0  0
   27.3286  -20.5785  -12.4718 N   0  0  0  0  0  0  0  0  0  0  0  0
   26.7835  -21.2535  -11.2927 C   0  0  1  0  0  0  0  0  0  0  0  0
   27.7867  -21.0746  -10.1706 C   0  0  0  0  0  0  0  0  0  0  0  0
   29.4085  -21.6849  -10.5870 S   0  0  0  0  0  0  0  0  0  0  0  0
   25.4335  -20.7751  -10.9809 C   0  0  0  0  0  0  0  0  0  0  0  0
   25.1104  -19.6022  -11.3792 O   0  0  0  0  0  0  0  0  0  0  0  0
   24.4375  -21.4737  -10.2824 N   0  0  0  0  0  0  0  0  0  0  0  0
   23.1537  -20.8987   -9.9215 C   0  0  0  0  0  0  0  0  0  0  0  0
   22.1292  -21.2345  -10.9651 C   0  0  0  0  0  0  0  0  0  0  0  0
   20.8161  -20.8216  -10.7947 O   0  0  0  0  0  0  0  0  0  0  0  0
   22.5067  -21.8887  -11.9726 O   0  0  0  0  0  0  0  0  0  0  0  0
  2  1  1  6
  2 13  1  0
  3  2  1  0
  4  3  1  0
  5  4  2  0
  6  7  1  0
  6  5  1  0
  7 12  2  0
  8  9  2  0
  8  7  1  0
  9 10  1  0
 10 11  2  0
 12  4  1  0
 12 11  1  0
 13 14  2  0
 15 16  1  0
 15 13  1  0
 16 17  1  1
 17 18  1  0
 19 16  1  0
 19 20  2  0
 21 19  1  0
 22 21  1  0
 23 22  1  0
 24 23  1  0
 25 23  2  0
M  END
$$$$
