WCG.pdb
     RDKit          3D

 25 26  0  0  1  0  0  0  0  0999 V2000
   16.2210  -18.0977    3.9033 N   0  0  0  0  0  0  0  0  0  0  0  0
   17.5578  -18.3301    4.3360 C   0  0  1  0  0  0  0  0  0  0  0  0
   18.5898  -17.4599    3.6512 C   0  0  0  0  0  0  0  0  0  0  0  0
   18.9225  -17.9785    2.3169 C   0  0  0  0  0  0  0  0  0  0  0  0
   18.0846  -18.7153    1.4957 C   0  0  0  0  0  0  0  0  0  0  0  0
   18.7414  -19.0398    0.3808 N   0  0  0  0  0  0  0  0  0  0  0  0
   19.9797  -18.5278    0.4683 C   0  0  0  0  0  0  0  0  0  0  0  0
   21.0231  -18.5772   -0.4081 C   0  0  0  0  0  0  0  0  0  0  0  0
   22.2105  -17.9607   -0.0968 C   0  0  0  0  0  0  0  0  0  0  0  0
   22.3595  -17.2893    1.0977 C   0  0  0  0  0  0  0  0  0  0  0  0
   21.3234  -17.2280    1.9928 C   0  0  0  0  0  0  0  0  0  0  0  0
   20.1311  -17.8510    1.6750 C   0  0  0  0  0  0  0  0  0  0  0  0
   17.7316  -18.1416    5.8039 C   0  0  0  0  0  0  0  0  0  0  0  0
   17.0128  -17.2743    6.4109 O   0  0  0  0  0  0  0  0  0  0  0  0
   18.6491  -18.8617    6.6045 N   0  0  0  0  0  0  0  0  0  0  0  0
   18.7727  -18.6126    8.0417 C   0  0  1  0  0  0  0  0  0  0  0  0
   18.0537  -19.7403    8.7550 C   0  0  0  0  0  0  0  0  0  0  0  0
   18.5562  -21.3525    8.1856 S   0  0  0  0  0  0  0  0  0  0  0  0
   20.1745  -18.4428    8.4349 C   0  0  0  0  0  0  0  0  0  0  0  0
   21.0689  -18.9985    7.7067 O   0  0  0  0  0  0  0  0  0  0  0  0
   20.6535  -17.7246    9.5405 N   0  0  0  0  0  0  0  0  0  0  0  0
   22.0628  -17.5935    9.8661 C   0  0  0  0  0  0  0  0  0  0  0  0
   22.4851  -18.7087   10.7767 C   0  0  0  0  0  0  0  0  0  0  0  0
   23.8097  -18.8024   11.1775 O   0  0  0  0  0  0  0  0  0  0  0  0
   21.6067  -19.5305   11.1489 O   0  0  0  0  0  0  0  0  0  0  0  0
  2  1  1  6
  2 13  1  0
  3  2  1  0
  4  3  1  0
  5  4  2  0
  6  7  1  0
  6  5  1  0
  7 12  2  0
  8  9  2  0
  8  7  1  0
  9 10  1  0
 10 11  2  0
 12  4  1  0
 12 11  1  0
 13 14  2  0
 15 16  1  0
 15 13  1  0
 16 17  1  1
 17 18  1  0
 19 16  1  0
 19 20  2  0
 21 19  1  0
 22 21  1  0
 23 22  1  0
 24 23  1  0
 25 23  2  0
M  END
$$$$
