WCG.pdb
     RDKit          3D

 25 26  0  0  1  0  0  0  0  0999 V2000
   26.4904  -22.6279  -13.4423 N   0  0  0  0  0  0  0  0  0  0  0  0
   25.7382  -21.6689  -12.7054 C   0  0  1  0  0  0  0  0  0  0  0  0
   26.4558  -20.3540  -12.4883 C   0  0  0  0  0  0  0  0  0  0  0  0
   27.5085  -20.4838  -11.4709 C   0  0  0  0  0  0  0  0  0  0  0  0
   28.8525  -20.7173  -11.7127 C   0  0  0  0  0  0  0  0  0  0  0  0
   29.4958  -20.8095  -10.5476 N   0  0  0  0  0  0  0  0  0  0  0  0
   28.5957  -20.6400   -9.5655 C   0  0  0  0  0  0  0  0  0  0  0  0
   28.7515  -20.6399   -8.2110 C   0  0  0  0  0  0  0  0  0  0  0  0
   27.6656  -20.4336   -7.3954 C   0  0  0  0  0  0  0  0  0  0  0  0
   26.4140  -20.2257   -7.9339 C   0  0  0  0  0  0  0  0  0  0  0  0
   26.2356  -20.2223   -9.2928 C   0  0  0  0  0  0  0  0  0  0  0  0
   27.3314  -20.4315  -10.1089 C   0  0  0  0  0  0  0  0  0  0  0  0
   24.4269  -21.3521  -13.3385 C   0  0  0  0  0  0  0  0  0  0  0  0
   24.3277  -21.3773  -14.6139 O   0  0  0  0  0  0  0  0  0  0  0  0
   23.2504  -21.0174  -12.6278 N   0  0  0  0  0  0  0  0  0  0  0  0
   21.9732  -20.8114  -13.3130 C   0  0  1  0  0  0  0  0  0  0  0  0
   20.8749  -21.0925  -12.3069 C   0  0  0  0  0  0  0  0  0  0  0  0
   19.2981  -20.4217  -12.7965 S   0  0  0  0  0  0  0  0  0  0  0  0
   21.9064  -19.4826  -13.9280 C   0  0  0  0  0  0  0  0  0  0  0  0
   22.3162  -18.4854  -13.2377 O   0  0  0  0  0  0  0  0  0  0  0  0
   21.4353  -19.1770  -15.2135 N   0  0  0  0  0  0  0  0  0  0  0  0
   21.4028  -17.8319  -15.7603 C   0  0  0  0  0  0  0  0  0  0  0  0
   20.0121  -17.2757  -15.6727 C   0  0  0  0  0  0  0  0  0  0  0  0
   19.8152  -15.9970  -15.1729 O   0  0  0  0  0  0  0  0  0  0  0  0
   19.0608  -18.0026  -16.0629 O   0  0  0  0  0  0  0  0  0  0  0  0
  2  1  1  6
  2 13  1  0
  3  2  1  0
  4  3  1  0
  5  4  2  0
  6  7  1  0
  6  5  1  0
  7 12  2  0
  8  9  2  0
  8  7  1  0
  9 10  1  0
 10 11  2  0
 12  4  1  0
 12 11  1  0
 13 14  2  0
 15 16  1  0
 15 13  1  0
 16 17  1  1
 17 18  1  0
 19 16  1  0
 19 20  2  0
 21 19  1  0
 22 21  1  0
 23 22  1  0
 24 23  1  0
 25 23  2  0
M  END
$$$$
