WCG.pdb
     RDKit          3D

 25 26  0  0  1  0  0  0  0  0999 V2000
   22.6989  -16.9204  -16.2688 N   0  0  0  0  0  0  0  0  0  0  0  0
   23.2279  -18.0282  -15.5468 C   0  0  1  0  0  0  0  0  0  0  0  0
   24.2986  -17.6581  -14.5430 C   0  0  0  0  0  0  0  0  0  0  0  0
   25.4022  -16.9308  -15.1858 C   0  0  0  0  0  0  0  0  0  0  0  0
   25.5219  -15.5543  -15.2881 C   0  0  0  0  0  0  0  0  0  0  0  0
   26.6332  -15.2623  -15.9660 N   0  0  0  0  0  0  0  0  0  0  0  0
   27.2282  -16.4191  -16.2997 C   0  0  0  0  0  0  0  0  0  0  0  0
   28.3827  -16.6563  -16.9852 C   0  0  0  0  0  0  0  0  0  0  0  0
   28.8002  -17.9472  -17.2000 C   0  0  0  0  0  0  0  0  0  0  0  0
   28.0614  -19.0106  -16.7278 C   0  0  0  0  0  0  0  0  0  0  0  0
   26.8978  -18.7941  -16.0368 C   0  0  0  0  0  0  0  0  0  0  0  0
   26.4816  -17.4932  -15.8244 C   0  0  0  0  0  0  0  0  0  0  0  0
   22.1814  -18.7904  -14.8088 C   0  0  0  0  0  0  0  0  0  0  0  0
   22.5315  -19.7724  -14.0669 O   0  0  0  0  0  0  0  0  0  0  0  0
   20.7956  -18.5108  -14.8606 N   0  0  0  0  0  0  0  0  0  0  0  0
   19.8201  -19.3337  -14.1434 C   0  0  1  0  0  0  0  0  0  0  0  0
   18.7591  -18.3981  -13.5990 C   0  0  0  0  0  0  0  0  0  0  0  0
   19.2270  -17.6437  -12.0537 S   0  0  0  0  0  0  0  0  0  0  0  0
   19.3016  -20.4089  -14.9940 C   0  0  0  0  0  0  0  0  0  0  0  0
   18.9839  -20.1146  -16.1988 O   0  0  0  0  0  0  0  0  0  0  0  0
   19.1125  -21.7497  -14.6278 N   0  0  0  0  0  0  0  0  0  0  0  0
   18.5989  -22.7658  -15.5295 C   0  0  0  0  0  0  0  0  0  0  0  0
   18.5258  -24.0882  -14.8245 C   0  0  0  0  0  0  0  0  0  0  0  0
   18.9625  -24.1906  -13.5120 O   0  0  0  0  0  0  0  0  0  0  0  0
   18.0629  -25.0710  -15.4613 O   0  0  0  0  0  0  0  0  0  0  0  0
  2  1  1  1
  2 13  1  0
  3  2  1  0
  4  3  1  0
  5  4  2  0
  6  7  1  0
  6  5  1  0
  7 12  2  0
  8  9  2  0
  8  7  1  0
  9 10  1  0
 10 11  2  0
 12  4  1  0
 12 11  1  0
 13 14  2  0
 15 16  1  0
 15 13  1  0
 16 17  1  6
 17 18  1  0
 19 16  1  0
 19 20  2  0
 21 19  1  0
 22 21  1  0
 23 22  1  0
 24 23  1  0
 25 23  2  0
M  END
$$$$
