WCG.pdb
     RDKit          3D

 25 26  0  0  1  0  0  0  0  0999 V2000
   28.2800  -21.7201  -10.7320 N   0  0  0  0  0  0  0  0  0  0  0  0
   27.1352  -21.1000  -10.1547 C   0  0  1  0  0  0  0  0  0  0  0  0
   27.4284  -19.7915   -9.4526 C   0  0  0  0  0  0  0  0  0  0  0  0
   28.4448  -19.9654   -8.4054 C   0  0  0  0  0  0  0  0  0  0  0  0
   29.8071  -20.1155   -8.6076 C   0  0  0  0  0  0  0  0  0  0  0  0
   30.4073  -20.2838   -7.4280 N   0  0  0  0  0  0  0  0  0  0  0  0
   29.4617  -20.2444   -6.4753 C   0  0  0  0  0  0  0  0  0  0  0  0
   29.5633  -20.3596   -5.1205 C   0  0  0  0  0  0  0  0  0  0  0  0
   28.4371  -20.2768   -4.3384 C   0  0  0  0  0  0  0  0  0  0  0  0
   27.1993  -20.0774   -4.9110 C   0  0  0  0  0  0  0  0  0  0  0  0
   27.0751  -19.9592   -6.2708 C   0  0  0  0  0  0  0  0  0  0  0  0
   28.2114  -20.0444   -7.0532 C   0  0  0  0  0  0  0  0  0  0  0  0
   26.0596  -20.8306  -11.1503 C   0  0  0  0  0  0  0  0  0  0  0  0
   26.3005  -20.0459  -12.1319 O   0  0  0  0  0  0  0  0  0  0  0  0
   24.7594  -21.3858  -11.0999 N   0  0  0  0  0  0  0  0  0  0  0  0
   23.8173  -21.2336  -12.2100 C   0  0  1  0  0  0  0  0  0  0  0  0
   23.2122  -22.5980  -12.4739 C   0  0  0  0  0  0  0  0  0  0  0  0
   24.3128  -23.6849  -13.3590 S   0  0  0  0  0  0  0  0  0  0  0  0
   22.8373  -20.1784  -11.9367 C   0  0  0  0  0  0  0  0  0  0  0  0
   22.2146  -20.2187  -10.8189 O   0  0  0  0  0  0  0  0  0  0  0  0
   22.5007  -19.1088  -12.7796 N   0  0  0  0  0  0  0  0  0  0  0  0
   21.7204  -19.2568  -13.9955 C   0  0  0  0  0  0  0  0  0  0  0  0
   20.2581  -19.3100  -13.6637 C   0  0  0  0  0  0  0  0  0  0  0  0
   19.6522  -20.5355  -13.4301 O   0  0  0  0  0  0  0  0  0  0  0  0
   19.6262  -18.2222  -13.6087 O   0  0  0  0  0  0  0  0  0  0  0  0
  2  1  1  6
  2 13  1  0
  3  2  1  0
  4  3  1  0
  5  4  2  0
  6  7  1  0
  6  5  1  0
  7 12  2  0
  8  9  2  0
  8  7  1  0
  9 10  1  0
 10 11  2  0
 12  4  1  0
 12 11  1  0
 13 14  2  0
 15 16  1  0
 15 13  1  0
 16 17  1  1
 17 18  1  0
 19 16  1  0
 19 20  2  0
 21 19  1  0
 22 21  1  0
 23 22  1  0
 24 23  1  0
 25 23  2  0
M  END
$$$$
