WCG.pdb
     RDKit          3D

 25 26  0  0  1  0  0  0  0  0999 V2000
   28.9463  -21.5963  -11.0132 N   0  0  0  0  0  0  0  0  0  0  0  0
   27.6845  -21.3586  -10.3970 C   0  0  1  0  0  0  0  0  0  0  0  0
   27.6809  -20.2020   -9.4206 C   0  0  0  0  0  0  0  0  0  0  0  0
   28.6080  -20.4434   -8.3060 C   0  0  0  0  0  0  0  0  0  0  0  0
   29.9056  -20.9170   -8.4121 C   0  0  0  0  0  0  0  0  0  0  0  0
   30.4255  -21.0425   -7.1899 N   0  0  0  0  0  0  0  0  0  0  0  0
   29.4918  -20.6599   -6.3038 C   0  0  0  0  0  0  0  0  0  0  0  0
   29.5341  -20.5996   -4.9423 C   0  0  0  0  0  0  0  0  0  0  0  0
   28.4381  -20.1599   -4.2406 C   0  0  0  0  0  0  0  0  0  0  0  0
   27.2905  -19.7771   -4.9009 C   0  0  0  0  0  0  0  0  0  0  0  0
   27.2269  -19.8304   -6.2689 C   0  0  0  0  0  0  0  0  0  0  0  0
   28.3322  -20.2747   -6.9701 C   0  0  0  0  0  0  0  0  0  0  0  0
   26.5983  -21.1009  -11.3841 C   0  0  0  0  0  0  0  0  0  0  0  0
   26.8139  -20.2921  -12.3519 O   0  0  0  0  0  0  0  0  0  0  0  0
   25.3140  -21.6924  -11.3398 N   0  0  0  0  0  0  0  0  0  0  0  0
   24.3451  -21.5034  -12.4208 C   0  0  1  0  0  0  0  0  0  0  0  0
   23.8608  -22.8791  -12.8336 C   0  0  0  0  0  0  0  0  0  0  0  0
   22.4258  -22.8209  -13.8889 S   0  0  0  0  0  0  0  0  0  0  0  0
   23.2788  -20.5787  -12.0255 C   0  0  0  0  0  0  0  0  0  0  0  0
   22.8460  -20.6478  -10.8227 O   0  0  0  0  0  0  0  0  0  0  0  0
   22.6696  -19.6075  -12.8339 N   0  0  0  0  0  0  0  0  0  0  0  0
   21.4822  -18.8667  -12.4459 C   0  0  0  0  0  0  0  0  0  0  0  0
   20.2602  -19.7141  -12.6466 C   0  0  0  0  0  0  0  0  0  0  0  0
   20.3857  -20.9762  -13.2078 O   0  0  0  0  0  0  0  0  0  0  0  0
   19.1491  -19.2395  -12.2920 O   0  0  0  0  0  0  0  0  0  0  0  0
  2  1  1  6
  2 13  1  0
  3  2  1  0
  4  3  1  0
  5  4  2  0
  6  7  1  0
  6  5  1  0
  7 12  2  0
  8  9  2  0
  8  7  1  0
  9 10  1  0
 10 11  2  0
 12  4  1  0
 12 11  1  0
 13 14  2  0
 15 16  1  0
 15 13  1  0
 16 17  1  1
 17 18  1  0
 19 16  1  0
 19 20  2  0
 21 19  1  0
 22 21  1  0
 23 22  1  0
 24 23  1  0
 25 23  2  0
M  END
$$$$
