WCG.pdb
     RDKit          3D

 25 26  0  0  1  0  0  0  0  0999 V2000
   28.2705  -20.8357  -14.1136 N   0  0  0  0  0  0  0  0  0  0  0  0
   27.1245  -21.2286  -13.3647 C   0  0  1  0  0  0  0  0  0  0  0  0
   26.6404  -20.1847  -12.3814 C   0  0  0  0  0  0  0  0  0  0  0  0
   27.6559  -19.9081  -11.3556 C   0  0  0  0  0  0  0  0  0  0  0  0
   28.9180  -19.3818  -11.5781 C   0  0  0  0  0  0  0  0  0  0  0  0
   29.5696  -19.3050  -10.4165 N   0  0  0  0  0  0  0  0  0  0  0  0
   28.7545  -19.7690   -9.4554 C   0  0  0  0  0  0  0  0  0  0  0  0
   28.9490  -19.8918   -8.1115 C   0  0  0  0  0  0  0  0  0  0  0  0
   27.9481  -20.3948   -7.3165 C   0  0  0  0  0  0  0  0  0  0  0  0
   26.7433  -20.7786   -7.8651 C   0  0  0  0  0  0  0  0  0  0  0  0
   26.5274  -20.6639   -9.2136 C   0  0  0  0  0  0  0  0  0  0  0  0
   27.5384  -20.1581  -10.0092 C   0  0  0  0  0  0  0  0  0  0  0  0
   25.9643  -21.5872  -14.2284 C   0  0  0  0  0  0  0  0  0  0  0  0
   25.7519  -20.9171  -15.2975 O   0  0  0  0  0  0  0  0  0  0  0  0
   25.0538  -22.6356  -13.9580 N   0  0  0  0  0  0  0  0  0  0  0  0
   23.9093  -22.9014  -14.8313 C   0  0  1  0  0  0  0  0  0  0  0  0
   23.8832  -24.3941  -15.0933 C   0  0  0  0  0  0  0  0  0  0  0  0
   25.4163  -25.0071  -15.7640 S   0  0  0  0  0  0  0  0  0  0  0  0
   22.6695  -22.3637  -14.2639 C   0  0  0  0  0  0  0  0  0  0  0  0
   22.5805  -22.2904  -12.9889 O   0  0  0  0  0  0  0  0  0  0  0  0
   21.5491  -21.9110  -14.9765 N   0  0  0  0  0  0  0  0  0  0  0  0
   20.3890  -21.3019  -14.3502 C   0  0  0  0  0  0  0  0  0  0  0  0
   19.3613  -22.3512  -14.0431 C   0  0  0  0  0  0  0  0  0  0  0  0
   18.1492  -21.9799  -13.4804 O   0  0  0  0  0  0  0  0  0  0  0  0
   19.6427  -23.5486  -14.3127 O   0  0  0  0  0  0  0  0  0  0  0  0
  2  1  1  6
  2 13  1  0
  3  2  1  0
  4  3  1  0
  5  4  2  0
  6  7  1  0
  6  5  1  0
  7 12  2  0
  8  9  2  0
  8  7  1  0
  9 10  1  0
 10 11  2  0
 12  4  1  0
 12 11  1  0
 13 14  2  0
 15 16  1  0
 15 13  1  0
 16 17  1  1
 17 18  1  0
 19 16  1  0
 19 20  2  0
 21 19  1  0
 22 21  1  0
 23 22  1  0
 24 23  1  0
 25 23  2  0
M  END
$$$$
