WCG.pdb
     RDKit          3D

 25 26  0  0  1  0  0  0  0  0999 V2000
   15.4037  -15.7678    5.7461 N   0  0  0  0  0  0  0  0  0  0  0  0
   16.7269  -16.0719    6.1764 C   0  0  1  0  0  0  0  0  0  0  0  0
   17.3186  -15.0518    7.1252 C   0  0  0  0  0  0  0  0  0  0  0  0
   17.8819  -13.9083    6.3937 C   0  0  0  0  0  0  0  0  0  0  0  0
   17.2381  -13.1686    5.4150 C   0  0  0  0  0  0  0  0  0  0  0  0
   18.0724  -12.2354    4.9539 N   0  0  0  0  0  0  0  0  0  0  0  0
   19.2350  -12.3594    5.6146 C   0  0  0  0  0  0  0  0  0  0  0  0
   20.3920  -11.6450    5.5140 C   0  0  0  0  0  0  0  0  0  0  0  0
   21.4633  -11.9578    6.3150 C   0  0  0  0  0  0  0  0  0  0  0  0
   21.3810  -12.9908    7.2237 C   0  0  0  0  0  0  0  0  0  0  0  0
   20.2274  -13.7216    7.3404 C   0  0  0  0  0  0  0  0  0  0  0  0
   19.1528  -13.4034    6.5313 C   0  0  0  0  0  0  0  0  0  0  0  0
   16.8269  -17.4001    6.8445 C   0  0  0  0  0  0  0  0  0  0  0  0
   15.9246  -17.7460    7.6832 O   0  0  0  0  0  0  0  0  0  0  0  0
   17.8638  -18.3364    6.6222 N   0  0  0  0  0  0  0  0  0  0  0  0
   17.9323  -19.5954    7.3660 C   0  0  1  0  0  0  0  0  0  0  0  0
   17.4492  -20.6913    6.4368 C   0  0  0  0  0  0  0  0  0  0  0  0
   18.3665  -20.7601    4.9104 S   0  0  0  0  0  0  0  0  0  0  0  0
   19.2719  -19.8160    7.9186 C   0  0  0  0  0  0  0  0  0  0  0  0
   20.2701  -19.3550    7.2630 O   0  0  0  0  0  0  0  0  0  0  0  0
   19.5870  -20.4878    9.1091 N   0  0  0  0  0  0  0  0  0  0  0  0
   20.9432  -20.8094    9.5171 C   0  0  0  0  0  0  0  0  0  0  0  0
   21.4213  -19.8177   10.5366 C   0  0  0  0  0  0  0  0  0  0  0  0
   22.6496  -20.0059   11.1527 O   0  0  0  0  0  0  0  0  0  0  0  0
   20.6774  -18.8361   10.7981 O   0  0  0  0  0  0  0  0  0  0  0  0
  2  1  1  1
  2 13  1  0
  3  2  1  0
  4  3  1  0
  5  4  2  0
  6  7  1  0
  6  5  1  0
  7 12  2  0
  8  9  2  0
  8  7  1  0
  9 10  1  0
 10 11  2  0
 12  4  1  0
 12 11  1  0
 13 14  2  0
 15 16  1  0
 15 13  1  0
 16 17  1  6
 17 18  1  0
 19 16  1  0
 19 20  2  0
 21 19  1  0
 22 21  1  0
 23 22  1  0
 24 23  1  0
 25 23  2  0
M  END
$$$$
