WCG.pdb
     RDKit          3D

 25 26  0  0  1  0  0  0  0  0999 V2000
   25.7951  -21.3508  -13.9505 N   0  0  0  0  0  0  0  0  0  0  0  0
   24.9961  -20.8131  -12.9013 C   0  0  1  0  0  0  0  0  0  0  0  0
   23.5556  -21.2774  -12.9207 C   0  0  0  0  0  0  0  0  0  0  0  0
   22.8730  -20.8438  -14.1479 C   0  0  0  0  0  0  0  0  0  0  0  0
   23.0140  -21.4113  -15.4039 C   0  0  0  0  0  0  0  0  0  0  0  0
   22.2681  -20.7311  -16.2761 N   0  0  0  0  0  0  0  0  0  0  0  0
   21.6523  -19.7420  -15.6084 C   0  0  0  0  0  0  0  0  0  0  0  0
   20.7860  -18.7838  -16.0446 C   0  0  0  0  0  0  0  0  0  0  0  0
   20.2718  -17.8689  -15.1583 C   0  0  0  0  0  0  0  0  0  0  0  0
   20.6238  -17.9091  -13.8263 C   0  0  0  0  0  0  0  0  0  0  0  0
   21.4934  -18.8638  -13.3673 C   0  0  0  0  0  0  0  0  0  0  0  0
   22.0086  -19.7814  -14.2636 C   0  0  0  0  0  0  0  0  0  0  0  0
   25.5365  -21.1206  -11.5471 C   0  0  0  0  0  0  0  0  0  0  0  0
   25.7825  -22.3370  -11.2351 O   0  0  0  0  0  0  0  0  0  0  0  0
   25.8084  -20.1538  -10.5508 N   0  0  0  0  0  0  0  0  0  0  0  0
   26.0046  -20.5308   -9.1499 C   0  0  1  0  0  0  0  0  0  0  0  0
   26.7621  -19.3994   -8.4837 C   0  0  0  0  0  0  0  0  0  0  0  0
   26.7732  -19.5251   -6.7060 S   0  0  0  0  0  0  0  0  0  0  0  0
   24.7324  -20.8704   -8.5060 C   0  0  0  0  0  0  0  0  0  0  0  0
   23.6942  -20.2054   -8.8505 O   0  0  0  0  0  0  0  0  0  0  0  0
   24.5225  -21.8626   -7.5368 N   0  0  0  0  0  0  0  0  0  0  0  0
   23.2441  -22.0973   -6.8889 C   0  0  0  0  0  0  0  0  0  0  0  0
   23.1346  -21.2575   -5.6503 C   0  0  0  0  0  0  0  0  0  0  0  0
   22.0292  -21.3953   -4.8240 O   0  0  0  0  0  0  0  0  0  0  0  0
   24.0657  -20.4464   -5.4038 O   0  0  0  0  0  0  0  0  0  0  0  0
  2  1  1  6
  2 13  1  0
  3  2  1  0
  4  3  1  0
  5  4  2  0
  6  7  1  0
  6  5  1  0
  7 12  2  0
  8  9  2  0
  8  7  1  0
  9 10  1  0
 10 11  2  0
 12  4  1  0
 12 11  1  0
 13 14  2  0
 15 16  1  0
 15 13  1  0
 16 17  1  1
 17 18  1  0
 19 16  1  0
 19 20  2  0
 21 19  1  0
 22 21  1  0
 23 22  1  0
 24 23  1  0
 25 23  2  0
M  END
$$$$
