WCG.pdb
     RDKit          3D

 25 26  0  0  1  0  0  0  0  0999 V2000
   28.0268  -19.8929  -10.7170 N   0  0  0  0  0  0  0  0  0  0  0  0
   27.0620  -20.8860  -10.3833 C   0  0  1  0  0  0  0  0  0  0  0  0
   26.6048  -20.8444   -8.9410 C   0  0  0  0  0  0  0  0  0  0  0  0
   27.6785  -20.3716   -8.0557 C   0  0  0  0  0  0  0  0  0  0  0  0
   29.0054  -20.1874   -8.4088 C   0  0  0  0  0  0  0  0  0  0  0  0
   29.6901  -19.7841   -7.3373 N   0  0  0  0  0  0  0  0  0  0  0  0
   28.8330  -19.7050   -6.3065 C   0  0  0  0  0  0  0  0  0  0  0  0
   29.0381  -19.3377   -5.0095 C   0  0  0  0  0  0  0  0  0  0  0  0
   27.9871  -19.3264   -4.1251 C   0  0  0  0  0  0  0  0  0  0  0  0
   26.7211  -19.6839   -4.5364 C   0  0  0  0  0  0  0  0  0  0  0  0
   26.4934  -20.0565   -5.8355 C   0  0  0  0  0  0  0  0  0  0  0  0
   27.5547  -20.0672   -6.7210 C   0  0  0  0  0  0  0  0  0  0  0  0
   25.8392  -20.8125  -11.2318 C   0  0  0  0  0  0  0  0  0  0  0  0
   25.2503  -19.6864  -11.3812 O   0  0  0  0  0  0  0  0  0  0  0  0
   25.2598  -21.9137  -11.9050 N   0  0  0  0  0  0  0  0  0  0  0  0
   24.1741  -21.7368  -12.8710 C   0  0  1  0  0  0  0  0  0  0  0  0
   24.1824  -22.9492  -13.7807 C   0  0  0  0  0  0  0  0  0  0  0  0
   22.7856  -22.9954  -14.8866 S   0  0  0  0  0  0  0  0  0  0  0  0
   22.8954  -21.4932  -12.1972 C   0  0  0  0  0  0  0  0  0  0  0  0
   22.6312  -22.1846  -11.1527 O   0  0  0  0  0  0  0  0  0  0  0  0
   21.9113  -20.5682  -12.5765 N   0  0  0  0  0  0  0  0  0  0  0  0
   20.6676  -20.3736  -11.8523 C   0  0  0  0  0  0  0  0  0  0  0  0
   19.6255  -21.3283  -12.3561 C   0  0  0  0  0  0  0  0  0  0  0  0
   18.3456  -21.2900  -11.8231 O   0  0  0  0  0  0  0  0  0  0  0  0
   19.9576  -22.1410  -13.2587 O   0  0  0  0  0  0  0  0  0  0  0  0
  2  1  1  6
  2 13  1  0
  3  2  1  0
  4  3  1  0
  5  4  2  0
  6  7  1  0
  6  5  1  0
  7 12  2  0
  8  9  2  0
  8  7  1  0
  9 10  1  0
 10 11  2  0
 12  4  1  0
 12 11  1  0
 13 14  2  0
 15 16  1  0
 15 13  1  0
 16 17  1  1
 17 18  1  0
 19 16  1  0
 19 20  2  0
 21 19  1  0
 22 21  1  0
 23 22  1  0
 24 23  1  0
 25 23  2  0
M  END
$$$$
