WCG.pdb
     RDKit          3D

 25 26  0  0  1  0  0  0  0  0999 V2000
   25.3468  -32.8451  -17.8779 N   0  0  0  0  0  0  0  0  0  0  0  0
   24.8672  -32.5114  -16.5791 C   0  0  1  0  0  0  0  0  0  0  0  0
   23.3582  -32.4873  -16.4641 C   0  0  0  0  0  0  0  0  0  0  0  0
   22.7892  -31.3293  -17.1678 C   0  0  0  0  0  0  0  0  0  0  0  0
   23.2259  -30.8144  -18.3776 C   0  0  0  0  0  0  0  0  0  0  0  0
   22.4932  -29.7430  -18.6857 N   0  0  0  0  0  0  0  0  0  0  0  0
   21.5972  -29.5599  -17.7022 C   0  0  0  0  0  0  0  0  0  0  0  0
   20.6271  -28.6137  -17.5520 C   0  0  0  0  0  0  0  0  0  0  0  0
   19.8127  -28.6355  -16.4461 C   0  0  0  0  0  0  0  0  0  0  0  0
   19.9660  -29.6083  -15.4818 C   0  0  0  0  0  0  0  0  0  0  0  0
   20.9352  -30.5684  -15.6133 C   0  0  0  0  0  0  0  0  0  0  0  0
   21.7527  -30.5412  -16.7275 C   0  0  0  0  0  0  0  0  0  0  0  0
   25.3716  -33.4327  -15.5220 C   0  0  0  0  0  0  0  0  0  0  0  0
   25.4916  -34.6790  -15.7860 O   0  0  0  0  0  0  0  0  0  0  0  0
   25.7397  -33.0336  -14.2157 N   0  0  0  0  0  0  0  0  0  0  0  0
   26.2548  -33.9931  -13.2374 C   0  0  1  0  0  0  0  0  0  0  0  0
   27.6208  -33.5001  -12.8030 C   0  0  0  0  0  0  0  0  0  0  0  0
   28.7509  -33.2992  -14.1662 S   0  0  0  0  0  0  0  0  0  0  0  0
   25.3060  -34.1959  -12.1388 C   0  0  0  0  0  0  0  0  0  0  0  0
   24.6923  -33.1683  -11.6844 O   0  0  0  0  0  0  0  0  0  0  0  0
   24.9890  -35.4140  -11.5195 N   0  0  0  0  0  0  0  0  0  0  0  0
   24.0743  -35.5326  -10.3976 C   0  0  0  0  0  0  0  0  0  0  0  0
   24.7850  -35.2005   -9.1186 C   0  0  0  0  0  0  0  0  0  0  0  0
   24.1210  -35.3407   -7.9090 O   0  0  0  0  0  0  0  0  0  0  0  0
   25.9768  -34.8011   -9.1930 O   0  0  0  0  0  0  0  0  0  0  0  0
  2  1  1  6
  2 13  1  0
  3  2  1  0
  4  3  1  0
  5  4  2  0
  6  7  1  0
  6  5  1  0
  7 12  2  0
  8  9  2  0
  8  7  1  0
  9 10  1  0
 10 11  2  0
 12  4  1  0
 12 11  1  0
 13 14  2  0
 15 16  1  0
 15 13  1  0
 16 17  1  1
 17 18  1  0
 19 16  1  0
 19 20  2  0
 21 19  1  0
 22 21  1  0
 23 22  1  0
 24 23  1  0
 25 23  2  0
M  END
$$$$
