PGY.pdb
     RDKit          3D

 24 25  0  0  1  0  0  0  0  0999 V2000
   26.4187  -10.1685  -17.1196 N   0  0  0  0  0  0  0  0  0  0  0  0
   27.5211  -10.3216  -16.2209 C   0  0  0  0  0  0  0  0  0  0  0  0
   27.5431  -11.7887  -15.7916 C   0  0  0  0  0  0  0  0  0  0  0  0
   26.0654  -12.1450  -16.0041 C   0  0  0  0  0  0  0  0  0  0  0  0
   25.8343  -11.4710  -17.3481 C   0  0  1  0  0  0  0  0  0  0  0  0
   24.4248  -11.4146  -17.7182 C   0  0  0  0  0  0  0  0  0  0  0  0
   23.7844  -12.4763  -17.9000 O   0  0  0  0  0  0  0  0  0  0  0  0
   23.7651  -10.1818  -17.8764 N   0  0  0  0  0  0  0  0  0  0  0  0
   22.3481  -10.0876  -18.1703 C   0  0  0  0  0  0  0  0  0  0  0  0
   21.6136   -9.9682  -16.8917 C   0  0  0  0  0  0  0  0  0  0  0  0
   20.8233  -10.8645  -16.5047 O   0  0  0  0  0  0  0  0  0  0  0  0
   24.4125   -3.3428  -15.7929 O   0  0  0  0  0  0  0  0  0  0  0  0
   23.8349   -4.5054  -15.2923 C   0  0  0  0  0  0  0  0  0  0  0  0
   24.4184   -5.7212  -15.6064 C   0  0  0  0  0  0  0  0  0  0  0  0
   23.8680   -6.8863  -15.1248 C   0  0  0  0  0  0  0  0  0  0  0  0
   22.7429   -6.8481  -14.3343 C   0  0  0  0  0  0  0  0  0  0  0  0
   22.1766   -8.1274  -13.8311 C   0  0  0  0  0  0  0  0  0  0  0  0
   21.1560   -8.6810  -14.8153 C   0  0  2  0  0  0  0  0  0  0  0  0
   21.8192   -8.8083  -16.0983 N   0  0  0  0  0  0  0  0  0  0  0  0
   19.9804   -7.7786  -14.9194 C   0  0  0  0  0  0  0  0  0  0  0  0
   19.1994   -7.6750  -13.9397 O   0  0  0  0  0  0  0  0  0  0  0  0
   22.1675   -5.6356  -14.0255 C   0  0  0  0  0  0  0  0  0  0  0  0
   22.7143   -4.4681  -14.5048 C   0  0  0  0  0  0  0  0  0  0  0  0
   19.6887   -7.0317  -16.0516 O   0  0  0  0  0  0  0  0  0  0  0  0
  1  5  1  0
  2  1  1  0
  3  4  1  0
  3  2  1  0
  4  5  1  0
  5  6  1  1
  6  7  2  0
  8  6  1  0
  8  9  1  0
  9 10  1  0
 10 19  1  0
 10 11  2  0
 12 13  1  0
 13 14  2  0
 14 15  1  0
 16 17  1  0
 16 15  2  0
 18 17  1  1
 18 20  1  0
 19 18  1  0
 20 24  1  0
 21 20  2  0
 22 16  1  0
 23 22  2  0
 23 13  1  0
M  END
$$$$
