PGY.pdb
     RDKit          3D

 24 25  0  0  1  0  0  0  0  0999 V2000
   29.3738  -22.1955  -16.4440 N   0  0  0  0  0  0  0  0  0  0  0  0
   29.7378  -23.3842  -17.1518 C   0  0  0  0  0  0  0  0  0  0  0  0
   28.6508  -23.6274  -18.1990 C   0  0  0  0  0  0  0  0  0  0  0  0
   27.4764  -22.9002  -17.5298 C   0  0  0  0  0  0  0  0  0  0  0  0
   28.1918  -21.6408  -17.0647 C   0  0  1  0  0  0  0  0  0  0  0  0
   27.3857  -20.8352  -16.1547 C   0  0  0  0  0  0  0  0  0  0  0  0
   26.2891  -20.3672  -16.5403 O   0  0  0  0  0  0  0  0  0  0  0  0
   27.8188  -20.5713  -14.8422 N   0  0  0  0  0  0  0  0  0  0  0  0
   27.0496  -19.7645  -13.9144 C   0  0  0  0  0  0  0  0  0  0  0  0
   26.0034  -20.6183  -13.3105 C   0  0  0  0  0  0  0  0  0  0  0  0
   25.6864  -21.7228  -13.8178 O   0  0  0  0  0  0  0  0  0  0  0  0
   29.3750  -20.1923   -7.6320 O   0  0  0  0  0  0  0  0  0  0  0  0
   28.1278  -20.3085   -8.2377 C   0  0  0  0  0  0  0  0  0  0  0  0
   27.1866  -19.3194   -8.0070 C   0  0  0  0  0  0  0  0  0  0  0  0
   25.9454  -19.4092   -8.5932 C   0  0  0  0  0  0  0  0  0  0  0  0
   25.6365  -20.4753   -9.4058 C   0  0  0  0  0  0  0  0  0  0  0  0
   24.2854  -20.5384  -10.0230 C   0  0  0  0  0  0  0  0  0  0  0  0
   24.3818  -21.0084  -11.4675 C   0  0  2  0  0  0  0  0  0  0  0  0
   25.3545  -20.1630  -12.1320 N   0  0  0  0  0  0  0  0  0  0  0  0
   23.0608  -20.9179  -12.1409 C   0  0  0  0  0  0  0  0  0  0  0  0
   22.1294  -21.6747  -11.7662 O   0  0  0  0  0  0  0  0  0  0  0  0
   26.5771  -21.4557   -9.6313 C   0  0  0  0  0  0  0  0  0  0  0  0
   27.8194  -21.3701   -9.0472 C   0  0  0  0  0  0  0  0  0  0  0  0
   22.7896  -20.0338  -13.1752 O   0  0  0  0  0  0  0  0  0  0  0  0
  1  5  1  0
  2  1  1  0
  3  4  1  0
  3  2  1  0
  4  5  1  0
  5  6  1  1
  6  7  2  0
  8  6  1  0
  8  9  1  0
  9 10  1  0
 10 19  1  0
 10 11  2  0
 12 13  1  0
 13 14  2  0
 14 15  1  0
 16 17  1  0
 16 15  2  0
 18 17  1  1
 18 20  1  0
 19 18  1  0
 20 24  1  0
 21 20  2  0
 22 16  1  0
 23 22  2  0
 23 13  1  0
M  END
$$$$
