PGY.pdb
     RDKit          3D

 24 25  0  0  1  0  0  0  0  0999 V2000
   23.4081  -20.0325  -17.6344 N   0  0  0  0  0  0  0  0  0  0  0  0
   22.7229  -19.5333  -18.7867 C   0  0  0  0  0  0  0  0  0  0  0  0
   22.4668  -20.7296  -19.7035 C   0  0  0  0  0  0  0  0  0  0  0  0
   23.6032  -21.6554  -19.2482 C   0  0  0  0  0  0  0  0  0  0  0  0
   23.4898  -21.4720  -17.7423 C   0  0  1  0  0  0  0  0  0  0  0  0
   24.6184  -22.0423  -17.0160 C   0  0  0  0  0  0  0  0  0  0  0  0
   24.7224  -23.2859  -16.9011 O   0  0  0  0  0  0  0  0  0  0  0  0
   25.6003  -21.2172  -16.4373 N   0  0  0  0  0  0  0  0  0  0  0  0
   26.7248  -21.7484  -15.6911 C   0  0  0  0  0  0  0  0  0  0  0  0
   26.3296  -21.8616  -14.2700 C   0  0  0  0  0  0  0  0  0  0  0  0
   25.6967  -22.8594  -13.8440 O   0  0  0  0  0  0  0  0  0  0  0  0
   26.1406  -20.2322   -5.7136 O   0  0  0  0  0  0  0  0  0  0  0  0
   26.3907  -20.0975   -7.0756 C   0  0  0  0  0  0  0  0  0  0  0  0
   26.2971  -21.2215   -7.8789 C   0  0  0  0  0  0  0  0  0  0  0  0
   26.5392  -21.1168   -9.2289 C   0  0  0  0  0  0  0  0  0  0  0  0
   26.8733  -19.9027   -9.7826 C   0  0  0  0  0  0  0  0  0  0  0  0
   27.1270  -19.8276  -11.2457 C   0  0  0  0  0  0  0  0  0  0  0  0
   26.3296  -20.8964  -11.9795 C   0  0  2  0  0  0  0  0  0  0  0  0
   26.6821  -20.8097  -13.3832 N   0  0  0  0  0  0  0  0  0  0  0  0
   24.8708  -20.6887  -11.7908 C   0  0  0  0  0  0  0  0  0  0  0  0
   24.2757  -19.8413  -12.5039 O   0  0  0  0  0  0  0  0  0  0  0  0
   26.9646  -18.7886   -8.9783 C   0  0  0  0  0  0  0  0  0  0  0  0
   26.7234  -18.8884   -7.6279 C   0  0  0  0  0  0  0  0  0  0  0  0
   24.1141  -21.3855  -10.8598 O   0  0  0  0  0  0  0  0  0  0  0  0
  1  5  1  0
  2  1  1  0
  3  4  1  0
  3  2  1  0
  4  5  1  0
  5  6  1  1
  6  7  2  0
  8  6  1  0
  8  9  1  0
  9 10  1  0
 10 19  1  0
 10 11  2  0
 12 13  1  0
 13 14  2  0
 14 15  1  0
 16 17  1  0
 16 15  2  0
 18 17  1  1
 18 20  1  0
 19 18  1  0
 20 24  1  0
 21 20  2  0
 22 16  1  0
 23 22  2  0
 23 13  1  0
M  END
$$$$
