PGY.pdb
     RDKit          3D

 24 25  0  0  1  0  0  0  0  0999 V2000
   27.3660  -34.2006   -3.8092 N   0  0  0  0  0  0  0  0  0  0  0  0
   27.9736  -33.6086   -4.9610 C   0  0  0  0  0  0  0  0  0  0  0  0
   29.2095  -34.4460   -5.2905 C   0  0  0  0  0  0  0  0  0  0  0  0
   29.5050  -35.0322   -3.9032 C   0  0  0  0  0  0  0  0  0  0  0  0
   28.0922  -35.4071   -3.4817 C   0  0  1  0  0  0  0  0  0  0  0  0
   27.9999  -35.7722   -2.0729 C   0  0  0  0  0  0  0  0  0  0  0  0
   28.6502  -36.7512   -1.6380 O   0  0  0  0  0  0  0  0  0  0  0  0
   27.1886  -35.0411   -1.1856 N   0  0  0  0  0  0  0  0  0  0  0  0
   26.9622  -35.4553    0.1857 C   0  0  0  0  0  0  0  0  0  0  0  0
   27.7081  -34.5410    1.0781 C   0  0  0  0  0  0  0  0  0  0  0  0
   28.4605  -33.6466    0.6180 O   0  0  0  0  0  0  0  0  0  0  0  0
   23.1814  -30.1367    2.6082 O   0  0  0  0  0  0  0  0  0  0  0  0
   24.1795  -30.9842    3.0789 C   0  0  0  0  0  0  0  0  0  0  0  0
   25.4331  -30.4528    3.3304 C   0  0  0  0  0  0  0  0  0  0  0  0
   26.4384  -31.2680    3.7963 C   0  0  0  0  0  0  0  0  0  0  0  0
   26.2034  -32.6060    4.0127 C   0  0  0  0  0  0  0  0  0  0  0  0
   27.3136  -33.4563    4.5176 C   0  0  0  0  0  0  0  0  0  0  0  0
   28.2688  -33.8108    3.3868 C   0  0  2  0  0  0  0  0  0  0  0  0
   27.5576  -34.6928    2.4821 N   0  0  0  0  0  0  0  0  0  0  0  0
   29.4888  -34.4738    3.9152 C   0  0  0  0  0  0  0  0  0  0  0  0
   29.5162  -35.7278    3.9999 O   0  0  0  0  0  0  0  0  0  0  0  0
   24.9543  -33.1284    3.7607 C   0  0  0  0  0  0  0  0  0  0  0  0
   23.9461  -32.3170    3.2948 C   0  0  0  0  0  0  0  0  0  0  0  0
   30.6175  -33.7801    4.3273 O   0  0  0  0  0  0  0  0  0  0  0  0
  1  5  1  0
  2  1  1  0
  3  4  1  0
  3  2  1  0
  4  5  1  0
  5  6  1  1
  6  7  2  0
  8  6  1  0
  8  9  1  0
  9 10  1  0
 10 19  1  0
 10 11  2  0
 12 13  1  0
 13 14  2  0
 14 15  1  0
 16 17  1  0
 16 15  2  0
 18 17  1  1
 18 20  1  0
 19 18  1  0
 20 24  1  0
 21 20  2  0
 22 16  1  0
 23 22  2  0
 23 13  1  0
M  END
$$$$
