PGY.pdb
     RDKit          3D

 24 25  0  0  1  0  0  0  0  0999 V2000
   22.8678  -12.5727  -18.5432 N   0  0  0  0  0  0  0  0  0  0  0  0
   23.8709  -12.9060  -19.5071 C   0  0  0  0  0  0  0  0  0  0  0  0
   24.2244  -11.6143  -20.2445 C   0  0  0  0  0  0  0  0  0  0  0  0
   22.9193  -10.8324  -20.0415 C   0  0  0  0  0  0  0  0  0  0  0  0
   22.6660  -11.1414  -18.5736 C   0  0  1  0  0  0  0  0  0  0  0  0
   21.3369  -10.7361  -18.1310 C   0  0  0  0  0  0  0  0  0  0  0  0
   21.0170   -9.5245  -18.1448 O   0  0  0  0  0  0  0  0  0  0  0  0
   20.3996  -11.6862  -17.6855 N   0  0  0  0  0  0  0  0  0  0  0  0
   19.0383  -11.3326  -17.3316 C   0  0  0  0  0  0  0  0  0  0  0  0
   18.1460  -12.4357  -17.7507 C   0  0  0  0  0  0  0  0  0  0  0  0
   17.6700  -12.4874  -18.9119 O   0  0  0  0  0  0  0  0  0  0  0  0
   21.9681  -18.0604  -15.3828 O   0  0  0  0  0  0  0  0  0  0  0  0
   20.9717  -17.3847  -16.0803 C   0  0  0  0  0  0  0  0  0  0  0  0
   19.6823  -17.8881  -16.0438 C   0  0  0  0  0  0  0  0  0  0  0  0
   18.6778  -17.2399  -16.7244 C   0  0  0  0  0  0  0  0  0  0  0  0
   18.9488  -16.0964  -17.4393 C   0  0  0  0  0  0  0  0  0  0  0  0
   17.8378  -15.4224  -18.1616 C   0  0  0  0  0  0  0  0  0  0  0  0
   17.0130  -14.5784  -17.2003 C   0  0  2  0  0  0  0  0  0  0  0  0
   17.8322  -13.4489  -16.8062 N   0  0  0  0  0  0  0  0  0  0  0  0
   16.6099  -15.3742  -16.0123 C   0  0  0  0  0  0  0  0  0  0  0  0
   15.7465  -16.2783  -16.1452 O   0  0  0  0  0  0  0  0  0  0  0  0
   20.2333  -15.6009  -17.4714 C   0  0  0  0  0  0  0  0  0  0  0  0
   21.2409  -16.2455  -16.7925 C   0  0  0  0  0  0  0  0  0  0  0  0
   17.1383  -15.1757  -14.7449 O   0  0  0  0  0  0  0  0  0  0  0  0
  1  5  1  0
  2  1  1  0
  3  4  1  0
  3  2  1  0
  4  5  1  0
  5  6  1  6
  6  7  2  0
  8  6  1  0
  8  9  1  0
  9 10  1  0
 10 19  1  0
 10 11  2  0
 12 13  1  0
 13 14  2  0
 14 15  1  0
 16 17  1  0
 16 15  2  0
 18 17  1  6
 18 20  1  0
 19 18  1  0
 20 24  1  0
 21 20  2  0
 22 16  1  0
 23 22  2  0
 23 13  1  0
M  END
$$$$
