PGY.pdb
     RDKit          3D

 24 25  0  0  1  0  0  0  0  0999 V2000
   28.0164  -22.7997  -16.7153 N   0  0  0  0  0  0  0  0  0  0  0  0
   27.1387  -23.4585  -17.6330 C   0  0  0  0  0  0  0  0  0  0  0  0
   26.5920  -22.3841  -18.5732 C   0  0  0  0  0  0  0  0  0  0  0  0
   26.7344  -21.1507  -17.6709 C   0  0  0  0  0  0  0  0  0  0  0  0
   28.1220  -21.4114  -17.1046 C   0  0  1  0  0  0  0  0  0  0  0  0
   28.4567  -20.5248  -15.9961 C   0  0  0  0  0  0  0  0  0  0  0  0
   28.5273  -19.2880  -16.1856 O   0  0  0  0  0  0  0  0  0  0  0  0
   28.7039  -21.0350  -14.7083 N   0  0  0  0  0  0  0  0  0  0  0  0
   28.9496  -20.1786  -13.5639 C   0  0  0  0  0  0  0  0  0  0  0  0
   27.6469  -19.8199  -12.9617 C   0  0  0  0  0  0  0  0  0  0  0  0
   27.0682  -18.7423  -13.2473 O   0  0  0  0  0  0  0  0  0  0  0  0
   19.6797  -19.9004   -9.8802 O   0  0  0  0  0  0  0  0  0  0  0  0
   20.9155  -20.2041  -10.4428 C   0  0  0  0  0  0  0  0  0  0  0  0
   21.7436  -21.0927   -9.7781 C   0  0  0  0  0  0  0  0  0  0  0  0
   22.9709  -21.4107  -10.3118 C   0  0  0  0  0  0  0  0  0  0  0  0
   23.3776  -20.8505  -11.5005 C   0  0  0  0  0  0  0  0  0  0  0  0
   24.7102  -21.2185  -12.0476 C   0  0  0  0  0  0  0  0  0  0  0  0
   25.8025  -20.3840  -11.3939 C   0  0  2  0  0  0  0  0  0  0  0  0
   27.0530  -20.7258  -12.0431 N   0  0  0  0  0  0  0  0  0  0  0  0
   25.8756  -20.6596   -9.9359 C   0  0  0  0  0  0  0  0  0  0  0  0
   25.3514  -19.8473   -9.1322 O   0  0  0  0  0  0  0  0  0  0  0  0
   22.5492  -19.9674  -12.1568 C   0  0  0  0  0  0  0  0  0  0  0  0
   21.3212  -19.6465  -11.6269 C   0  0  0  0  0  0  0  0  0  0  0  0
   26.4977  -21.7780   -9.4002 O   0  0  0  0  0  0  0  0  0  0  0  0
  1  5  1  0
  2  1  1  0
  3  4  1  0
  3  2  1  0
  4  5  1  0
  5  6  1  1
  6  7  2  0
  8  6  1  0
  8  9  1  0
  9 10  1  0
 10 19  1  0
 10 11  2  0
 12 13  1  0
 13 14  2  0
 14 15  1  0
 16 17  1  0
 16 15  2  0
 18 17  1  6
 18 20  1  0
 19 18  1  0
 20 24  1  0
 21 20  2  0
 22 16  1  0
 23 22  2  0
 23 13  1  0
M  END
$$$$
