PGY.pdb
     RDKit          3D

 24 25  0  0  1  0  0  0  0  0999 V2000
   25.7395  -21.5929  -13.9245 N   0  0  0  0  0  0  0  0  0  0  0  0
   24.3994  -21.5581  -14.4239 C   0  0  0  0  0  0  0  0  0  0  0  0
   24.1102  -20.1096  -14.8180 C   0  0  0  0  0  0  0  0  0  0  0  0
   25.1040  -19.3858  -13.8993 C   0  0  0  0  0  0  0  0  0  0  0  0
   26.3203  -20.2793  -14.0898 C   0  0  1  0  0  0  0  0  0  0  0  0
   27.3864  -19.9952  -13.1361 C   0  0  0  0  0  0  0  0  0  0  0  0
   27.7402  -18.8108  -12.9302 O   0  0  0  0  0  0  0  0  0  0  0  0
   28.0304  -21.0330  -12.4375 N   0  0  0  0  0  0  0  0  0  0  0  0
   28.9112  -20.7864  -11.3120 C   0  0  0  0  0  0  0  0  0  0  0  0
   28.1473  -21.0086  -10.0647 C   0  0  0  0  0  0  0  0  0  0  0  0
   28.5090  -21.8643   -9.2193 O   0  0  0  0  0  0  0  0  0  0  0  0
   30.0031  -20.0543   -3.8145 O   0  0  0  0  0  0  0  0  0  0  0  0
   29.0512  -19.8635   -4.8113 C   0  0  0  0  0  0  0  0  0  0  0  0
   27.9095  -20.6469   -4.7932 C   0  0  0  0  0  0  0  0  0  0  0  0
   26.9521  -20.4793   -5.7666 C   0  0  0  0  0  0  0  0  0  0  0  0
   27.1243  -19.5387   -6.7555 C   0  0  0  0  0  0  0  0  0  0  0  0
   26.0679  -19.3850   -7.7903 C   0  0  0  0  0  0  0  0  0  0  0  0
   26.0856  -20.5676   -8.7484 C   0  0  2  0  0  0  0  0  0  0  0  0
   26.9830  -20.2284   -9.8356 N   0  0  0  0  0  0  0  0  0  0  0  0
   24.7209  -20.8500   -9.2630 C   0  0  0  0  0  0  0  0  0  0  0  0
   24.4585  -20.6067  -10.4682 O   0  0  0  0  0  0  0  0  0  0  0  0
   28.2619  -18.7627   -6.7678 C   0  0  0  0  0  0  0  0  0  0  0  0
   29.2219  -18.9267   -5.7965 C   0  0  0  0  0  0  0  0  0  0  0  0
   23.7027  -21.3747   -8.4801 O   0  0  0  0  0  0  0  0  0  0  0  0
  1  5  1  0
  2  1  1  0
  3  4  1  0
  3  2  1  0
  4  5  1  0
  5  6  1  1
  6  7  2  0
  8  6  1  0
  8  9  1  0
  9 10  1  0
 10 19  1  0
 10 11  2  0
 12 13  1  0
 13 14  2  0
 14 15  1  0
 16 17  1  0
 16 15  2  0
 18 17  1  1
 18 20  1  0
 19 18  1  0
 20 24  1  0
 21 20  2  0
 22 16  1  0
 23 22  2  0
 23 13  1  0
M  END
$$$$
