INI.pdb
     RDKit          3D

 25 24  0  0  1  0  0  0  0  0999 V2000
   20.5193  -17.4825  -18.5570 C   0  0  0  0  0  0  0  0  0  0  0  0
   19.3615  -16.6505  -18.1381 C   0  0  0  0  0  0  0  0  0  0  0  0
   19.3538  -15.2334  -18.5840 C   0  0  2  0  0  0  0  0  0  0  0  0
   20.5528  -14.5259  -17.9390 C   0  0  0  0  0  0  0  0  0  0  0  0
   18.1394  -14.4555  -18.2165 C   0  0  2  0  0  0  0  0  0  0  0  0
   16.9572  -15.1208  -18.6260 N   0  0  0  0  0  0  0  0  0  0  0  0
   18.2178  -13.0048  -18.5733 C   0  0  0  0  0  0  0  0  0  0  0  0
   17.8164  -12.6880  -19.7239 O   0  0  0  0  0  0  0  0  0  0  0  0
   17.5977   -8.2534  -20.5623 N   0  0  0  0  0  0  0  0  0  0  0  0
   18.1928   -9.4041  -19.9955 C   0  0  0  0  0  0  0  0  0  0  0  0
   19.1279   -9.9756  -20.6021 O   0  0  0  0  0  0  0  0  0  0  0  0
   17.7210   -9.9331  -18.6992 C   0  0  0  0  0  0  0  0  0  0  0  0
   18.8207  -10.5944  -17.9112 C   0  0  2  0  0  0  0  0  0  0  0  0
   18.7040  -12.0084  -17.7126 N   0  0  0  0  0  0  0  0  0  0  0  0
   19.2822   -9.9127  -16.7240 C   0  0  0  0  0  0  0  0  0  0  0  0
   18.5603  -10.0568  -15.6691 O   0  0  0  0  0  0  0  0  0  0  0  0
   23.5404  -11.0249  -14.3239 C   0  0  0  0  0  0  0  0  0  0  0  0
   22.1615  -10.5488  -14.7567 C   0  0  0  0  0  0  0  0  0  0  0  0
   22.1026   -9.0481  -14.8375 C   0  0  2  0  0  0  0  0  0  0  0  0
   22.5224   -8.4945  -13.4946 C   0  0  0  0  0  0  0  0  0  0  0  0
   20.7865   -8.5220  -15.3163 C   0  0  2  0  0  0  0  0  0  0  0  0
   20.4227   -9.1177  -16.5995 N   0  0  0  0  0  0  0  0  0  0  0  0
   20.6836   -7.0470  -15.3796 C   0  0  0  0  0  0  0  0  0  0  0  0
   20.1978   -6.2718  -14.3248 O   0  0  0  0  0  0  0  0  0  0  0  0
   21.0377   -6.4346  -16.4048 O   0  0  0  0  0  0  0  0  0  0  0  0
  2  1  1  0
  2  3  1  0
  3  5  1  0
  3  4  1  1
  5  6  1  6
  7  5  1  0
  7  8  2  0
 10 12  1  0
 10  9  1  0
 11 10  2  0
 13 12  1  1
 13 14  1  0
 14  7  1  0
 15 13  1  0
 16 15  2  0
 18 17  1  0
 18 19  1  0
 19 21  1  0
 19 20  1  1
 21 22  1  6
 21 23  1  0
 22 15  1  0
 23 25  2  0
 23 24  1  0
M  END
$$$$
