INI.pdb
     RDKit          3D

 25 24  0  0  1  0  0  0  0  0999 V2000
   29.0925  -21.3091  -19.6427 C   0  0  0  0  0  0  0  0  0  0  0  0
   28.8813  -21.4423  -18.1779 C   0  0  0  0  0  0  0  0  0  0  0  0
   27.8982  -20.5207  -17.5523 C   0  0  2  0  0  0  0  0  0  0  0  0
   28.3649  -19.0820  -17.8104 C   0  0  0  0  0  0  0  0  0  0  0  0
   27.7327  -20.6678  -16.0807 C   0  0  2  0  0  0  0  0  0  0  0  0
   27.6069  -22.0294  -15.7092 N   0  0  0  0  0  0  0  0  0  0  0  0
   26.7158  -19.7432  -15.4897 C   0  0  0  0  0  0  0  0  0  0  0  0
   26.9412  -18.5104  -15.6111 O   0  0  0  0  0  0  0  0  0  0  0  0
   22.0440  -17.8055  -16.9547 N   0  0  0  0  0  0  0  0  0  0  0  0
   22.3334  -19.1178  -16.5145 C   0  0  0  0  0  0  0  0  0  0  0  0
   21.3932  -19.8812  -16.1951 O   0  0  0  0  0  0  0  0  0  0  0  0
   23.7305  -19.5910  -16.4297 C   0  0  0  0  0  0  0  0  0  0  0  0
   24.1902  -19.7808  -15.0082 C   0  0  2  0  0  0  0  0  0  0  0  0
   25.5563  -20.1713  -14.8246 N   0  0  0  0  0  0  0  0  0  0  0  0
   23.2972  -20.4820  -14.1150 C   0  0  0  0  0  0  0  0  0  0  0  0
   23.1272  -21.7353  -14.3497 O   0  0  0  0  0  0  0  0  0  0  0  0
   25.1718  -20.3555   -9.5274 C   0  0  0  0  0  0  0  0  0  0  0  0
   24.4107  -20.8425  -10.7517 C   0  0  0  0  0  0  0  0  0  0  0  0
   22.9566  -20.4657  -10.6761 C   0  0  2  0  0  0  0  0  0  0  0  0
   22.3815  -21.0860   -9.4228 C   0  0  0  0  0  0  0  0  0  0  0  0
   22.1841  -20.7941  -11.9145 C   0  0  2  0  0  0  0  0  0  0  0  0
   22.6018  -19.9474  -13.0291 N   0  0  0  0  0  0  0  0  0  0  0  0
   20.7121  -20.7672  -11.7639 C   0  0  0  0  0  0  0  0  0  0  0  0
   19.9602  -21.8957  -11.4310 O   0  0  0  0  0  0  0  0  0  0  0  0
   20.0810  -19.7069  -11.9340 O   0  0  0  0  0  0  0  0  0  0  0  0
  2  1  1  0
  2  3  1  0
  3  5  1  0
  3  4  1  1
  5  6  1  6
  7  5  1  0
  7  8  2  0
 10 12  1  0
 10  9  1  0
 11 10  2  0
 13 12  1  6
 13 14  1  0
 14  7  1  0
 15 13  1  0
 16 15  2  0
 18 17  1  0
 18 19  1  0
 19 21  1  0
 19 20  1  1
 21 22  1  6
 21 23  1  0
 22 15  1  0
 23 25  2  0
 23 24  1  0
M  END
$$$$
