INI.pdb
     RDKit          3D

 25 24  0  0  1  0  0  0  0  0999 V2000
   13.0821  -14.7775  -12.8069 C   0  0  0  0  0  0  0  0  0  0  0  0
   13.0035  -14.0890  -11.4924 C   0  0  0  0  0  0  0  0  0  0  0  0
   13.1478  -12.6105  -11.4965 C   0  0  2  0  0  0  0  0  0  0  0  0
   14.5571  -12.2721  -11.9999 C   0  0  0  0  0  0  0  0  0  0  0  0
   12.9878  -11.9501  -10.1724 C   0  0  2  0  0  0  0  0  0  0  0  0
   11.7996  -12.3720   -9.5257 N   0  0  0  0  0  0  0  0  0  0  0  0
   13.2145  -10.4717  -10.2009 C   0  0  0  0  0  0  0  0  0  0  0  0
   12.2741   -9.7689  -10.6560 O   0  0  0  0  0  0  0  0  0  0  0  0
   16.3912   -5.8538   -8.0529 N   0  0  0  0  0  0  0  0  0  0  0  0
   15.1933   -6.3157   -8.6455 C   0  0  0  0  0  0  0  0  0  0  0  0
   14.4839   -5.5188   -9.3016 O   0  0  0  0  0  0  0  0  0  0  0  0
   14.7760   -7.7252   -8.4964 C   0  0  0  0  0  0  0  0  0  0  0  0
   14.7786   -8.4694   -9.8056 C   0  0  2  0  0  0  0  0  0  0  0  0
   14.3915   -9.8479   -9.7585 N   0  0  0  0  0  0  0  0  0  0  0  0
   15.9012   -8.2474  -10.6873 C   0  0  0  0  0  0  0  0  0  0  0  0
   17.0312   -8.7247  -10.2998 O   0  0  0  0  0  0  0  0  0  0  0  0
   17.0535  -10.0911  -15.2221 C   0  0  0  0  0  0  0  0  0  0  0  0
   17.1065   -9.4541  -13.8413 C   0  0  0  0  0  0  0  0  0  0  0  0
   17.1898   -7.9553  -13.9343 C   0  0  2  0  0  0  0  0  0  0  0  0
   18.4165   -7.6085  -14.7472 C   0  0  0  0  0  0  0  0  0  0  0  0
   17.1370   -7.2657  -12.6077 C   0  0  2  0  0  0  0  0  0  0  0  0
   15.8913   -7.5734  -11.9096 N   0  0  0  0  0  0  0  0  0  0  0  0
   17.3628   -5.8037  -12.6488 C   0  0  0  0  0  0  0  0  0  0  0  0
   18.6242   -5.2238  -12.5000 O   0  0  0  0  0  0  0  0  0  0  0  0
   16.4075   -5.0236  -12.8228 O   0  0  0  0  0  0  0  0  0  0  0  0
  2  1  1  0
  2  3  1  0
  3  5  1  0
  3  4  1  1
  5  6  1  6
  7  5  1  0
  7  8  2  0
 10 12  1  0
 10  9  1  0
 11 10  2  0
 13 12  1  1
 13 14  1  0
 14  7  1  0
 15 13  1  0
 16 15  2  0
 18 17  1  0
 18 19  1  0
 19 21  1  0
 19 20  1  1
 21 22  1  6
 21 23  1  0
 22 15  1  0
 23 25  2  0
 23 24  1  0
M  END
$$$$
