INI.pdb
     RDKit          3D

 25 24  0  0  1  0  0  0  0  0999 V2000
   24.6656  -18.2995  -18.9259 C   0  0  0  0  0  0  0  0  0  0  0  0
   23.9552  -17.1564  -18.2960 C   0  0  0  0  0  0  0  0  0  0  0  0
   23.7603  -17.2126  -16.8243 C   0  0  2  0  0  0  0  0  0  0  0  0
   25.1343  -17.4091  -16.1704 C   0  0  0  0  0  0  0  0  0  0  0  0
   22.8848  -18.3135  -16.3382 C   0  0  2  0  0  0  0  0  0  0  0  0
   21.6175  -18.2826  -16.9715 N   0  0  0  0  0  0  0  0  0  0  0  0
   22.8565  -18.4529  -14.8490 C   0  0  0  0  0  0  0  0  0  0  0  0
   22.1373  -17.6310  -14.2225 O   0  0  0  0  0  0  0  0  0  0  0  0
   21.6788  -20.0990   -9.9882 N   0  0  0  0  0  0  0  0  0  0  0  0
   22.2689  -20.9714  -10.9317 C   0  0  0  0  0  0  0  0  0  0  0  0
   22.7866  -22.0426  -10.5399 O   0  0  0  0  0  0  0  0  0  0  0  0
   22.2781  -20.6291  -12.3689 C   0  0  0  0  0  0  0  0  0  0  0  0
   23.4835  -19.8160  -12.7607 C   0  0  2  0  0  0  0  0  0  0  0  0
   23.5731  -19.4272  -14.1367 N   0  0  0  0  0  0  0  0  0  0  0  0
   24.7600  -20.2307  -12.2264 C   0  0  0  0  0  0  0  0  0  0  0  0
   25.6295  -20.6374  -13.0828 O   0  0  0  0  0  0  0  0  0  0  0  0
   26.6699  -18.3236   -7.4328 C   0  0  0  0  0  0  0  0  0  0  0  0
   26.7001  -18.6859   -8.9103 C   0  0  0  0  0  0  0  0  0  0  0  0
   26.8099  -20.1732   -9.1055 C   0  0  2  0  0  0  0  0  0  0  0  0
   28.1737  -20.6056   -8.6163 C   0  0  0  0  0  0  0  0  0  0  0  0
   26.5048  -20.6218  -10.4997 C   0  0  2  0  0  0  0  0  0  0  0  0
   25.1495  -20.2373  -10.8860 N   0  0  0  0  0  0  0  0  0  0  0  0
   26.7321  -22.0604  -10.7620 C   0  0  0  0  0  0  0  0  0  0  0  0
   27.9983  -22.6009  -10.9949 O   0  0  0  0  0  0  0  0  0  0  0  0
   25.7738  -22.8558  -10.7833 O   0  0  0  0  0  0  0  0  0  0  0  0
  2  1  1  0
  2  3  1  0
  3  5  1  0
  3  4  1  1
  5  6  1  1
  7  5  1  0
  7  8  2  0
 10 12  1  0
 10  9  1  0
 11 10  2  0
 13 12  1  6
 13 14  1  0
 14  7  1  0
 15 13  1  0
 16 15  2  0
 18 17  1  0
 18 19  1  0
 19 21  1  0
 19 20  1  6
 21 22  1  1
 21 23  1  0
 22 15  1  0
 23 25  2  0
 23 24  1  0
M  END
$$$$
