INI.pdb
     RDKit          3D

 25 24  0  0  1  0  0  0  0  0999 V2000
   28.7336  -15.3374  -18.5382 C   0  0  0  0  0  0  0  0  0  0  0  0
   27.6267  -16.3271  -18.5963 C   0  0  0  0  0  0  0  0  0  0  0  0
   26.8444  -16.5370  -17.3509 C   0  0  2  0  0  0  0  0  0  0  0  0
   27.7700  -17.1832  -16.3117 C   0  0  0  0  0  0  0  0  0  0  0  0
   25.6556  -17.4220  -17.4858 C   0  0  2  0  0  0  0  0  0  0  0  0
   24.8513  -17.0411  -18.5885 N   0  0  0  0  0  0  0  0  0  0  0  0
   24.9213  -17.6505  -16.2026 C   0  0  0  0  0  0  0  0  0  0  0  0
   24.1413  -16.7341  -15.8320 O   0  0  0  0  0  0  0  0  0  0  0  0
   21.6706  -21.7197  -13.6535 N   0  0  0  0  0  0  0  0  0  0  0  0
   22.0202  -20.3538  -13.7606 C   0  0  0  0  0  0  0  0  0  0  0  0
   21.6069  -19.5433  -12.8997 O   0  0  0  0  0  0  0  0  0  0  0  0
   22.8657  -19.8796  -14.8756 C   0  0  0  0  0  0  0  0  0  0  0  0
   24.1902  -19.3385  -14.4058 C   0  0  2  0  0  0  0  0  0  0  0  0
   25.0565  -18.8036  -15.4138 N   0  0  0  0  0  0  0  0  0  0  0  0
   24.9098  -20.1178  -13.4250 C   0  0  0  0  0  0  0  0  0  0  0  0
   25.7749  -20.9513  -13.8850 O   0  0  0  0  0  0  0  0  0  0  0  0
   27.1969  -18.2110   -9.0018 C   0  0  0  0  0  0  0  0  0  0  0  0
   26.8884  -19.0104  -10.2592 C   0  0  0  0  0  0  0  0  0  0  0  0
   26.0171  -20.1971   -9.9515 C   0  0  2  0  0  0  0  0  0  0  0  0
   26.7543  -21.0690   -8.9602 C   0  0  0  0  0  0  0  0  0  0  0  0
   25.5530  -20.9350  -11.1674 C   0  0  2  0  0  0  0  0  0  0  0  0
   24.7674  -20.0635  -12.0375 N   0  0  0  0  0  0  0  0  0  0  0  0
   24.8252  -22.1953  -10.8992 C   0  0  0  0  0  0  0  0  0  0  0  0
   25.4400  -23.4488  -10.9206 O   0  0  0  0  0  0  0  0  0  0  0  0
   23.6073  -22.1760  -10.6385 O   0  0  0  0  0  0  0  0  0  0  0  0
  2  1  1  0
  2  3  1  0
  3  5  1  0
  3  4  1  1
  5  6  1  6
  7  5  1  0
  7  8  2  0
 10 12  1  0
 10  9  1  0
 11 10  2  0
 13 12  1  6
 13 14  1  0
 14  7  1  0
 15 13  1  0
 16 15  2  0
 18 17  1  0
 18 19  1  0
 19 21  1  0
 19 20  1  1
 21 22  1  1
 21 23  1  0
 22 15  1  0
 23 25  2  0
 23 24  1  0
M  END
$$$$
