INI.pdb
     RDKit          3D

 25 24  0  0  1  0  0  0  0  0999 V2000
   19.4202  -25.9980  -10.5974 C   0  0  0  0  0  0  0  0  0  0  0  0
   20.1645  -27.1206  -11.2250 C   0  0  0  0  0  0  0  0  0  0  0  0
   19.9981  -28.4644  -10.6139 C   0  0  2  0  0  0  0  0  0  0  0  0
   20.6060  -28.4244   -9.2058 C   0  0  0  0  0  0  0  0  0  0  0  0
   20.6578  -29.5824  -11.3418 C   0  0  2  0  0  0  0  0  0  0  0  0
   20.2782  -29.6044  -12.7068 N   0  0  0  0  0  0  0  0  0  0  0  0
   20.5814  -30.8968  -10.6316 C   0  0  0  0  0  0  0  0  0  0  0  0
   19.4497  -31.4474  -10.5912 O   0  0  0  0  0  0  0  0  0  0  0  0
   23.2776  -34.2504  -12.3360 N   0  0  0  0  0  0  0  0  0  0  0  0
   22.3069  -34.1961  -11.3093 C   0  0  0  0  0  0  0  0  0  0  0  0
   21.1151  -34.4769  -11.5735 O   0  0  0  0  0  0  0  0  0  0  0  0
   22.6879  -33.8124   -9.9343 C   0  0  0  0  0  0  0  0  0  0  0  0
   21.7586  -32.7854   -9.3433 C   0  0  2  0  0  0  0  0  0  0  0  0
   21.6786  -31.5277  -10.0247 N   0  0  0  0  0  0  0  0  0  0  0  0
   21.7781  -32.6279   -7.9074 C   0  0  0  0  0  0  0  0  0  0  0  0
   22.6734  -31.8341   -7.4349 O   0  0  0  0  0  0  0  0  0  0  0  0
   18.6625  -31.1150   -3.1552 C   0  0  0  0  0  0  0  0  0  0  0  0
   19.8827  -31.9151   -3.5869 C   0  0  0  0  0  0  0  0  0  0  0  0
   19.8643  -32.1828   -5.0668 C   0  0  2  0  0  0  0  0  0  0  0  0
   18.5400  -32.8296   -5.4046 C   0  0  0  0  0  0  0  0  0  0  0  0
   21.0489  -32.9559   -5.5538 C   0  0  2  0  0  0  0  0  0  0  0  0
   20.9332  -33.2422   -6.9815 N   0  0  0  0  0  0  0  0  0  0  0  0
   21.3476  -34.1926   -4.7978 C   0  0  0  0  0  0  0  0  0  0  0  0
   21.9327  -34.1872   -3.5300 O   0  0  0  0  0  0  0  0  0  0  0  0
   21.0781  -35.3078   -5.2828 O   0  0  0  0  0  0  0  0  0  0  0  0
  2  1  1  0
  2  3  1  0
  3  5  1  0
  3  4  1  1
  5  6  1  6
  7  5  1  0
  7  8  2  0
 10 12  1  0
 10  9  1  0
 11 10  2  0
 13 12  1  6
 13 14  1  0
 14  7  1  0
 15 13  1  0
 16 15  2  0
 18 17  1  0
 18 19  1  0
 19 21  1  0
 19 20  1  1
 21 22  1  6
 21 23  1  0
 22 15  1  0
 23 25  2  0
 23 24  1  0
M  END
$$$$
