INI.pdb
     RDKit          3D

 25 24  0  0  1  0  0  0  0  0999 V2000
   28.2840  -18.6190  -19.0277 C   0  0  0  0  0  0  0  0  0  0  0  0
   28.7005  -19.5137  -17.9167 C   0  0  0  0  0  0  0  0  0  0  0  0
   27.6379  -19.9690  -16.9837 C   0  0  2  0  0  0  0  0  0  0  0  0
   27.0428  -18.7306  -16.3008 C   0  0  0  0  0  0  0  0  0  0  0  0
   28.0883  -20.8882  -15.9034 C   0  0  2  0  0  0  0  0  0  0  0  0
   28.8049  -21.9913  -16.4302 N   0  0  0  0  0  0  0  0  0  0  0  0
   27.0203  -21.2287  -14.9127 C   0  0  0  0  0  0  0  0  0  0  0  0
   26.2165  -22.1389  -15.2454 O   0  0  0  0  0  0  0  0  0  0  0  0
   25.3835  -21.6841   -9.2565 N   0  0  0  0  0  0  0  0  0  0  0  0
   25.3137  -20.6484  -10.2166 C   0  0  0  0  0  0  0  0  0  0  0  0
   24.3315  -19.8711  -10.2132 O   0  0  0  0  0  0  0  0  0  0  0  0
   26.3866  -20.4784  -11.2181 C   0  0  0  0  0  0  0  0  0  0  0  0
   25.9443  -20.8557  -12.6073 C   0  0  2  0  0  0  0  0  0  0  0  0
   26.8746  -20.5999  -13.6663 N   0  0  0  0  0  0  0  0  0  0  0  0
   24.5885  -20.5244  -12.9799 C   0  0  0  0  0  0  0  0  0  0  0  0
   24.3915  -19.3244  -13.3994 O   0  0  0  0  0  0  0  0  0  0  0  0
   20.2673  -21.8164  -16.6515 C   0  0  0  0  0  0  0  0  0  0  0  0
   20.5224  -21.1503  -15.3075 C   0  0  0  0  0  0  0  0  0  0  0  0
   21.8311  -21.5972  -14.7163 C   0  0  2  0  0  0  0  0  0  0  0  0
   21.8016  -23.1053  -14.6114 C   0  0  0  0  0  0  0  0  0  0  0  0
   22.1753  -20.9150  -13.4301 C   0  0  2  0  0  0  0  0  0  0  0  0
   23.4738  -21.3634  -12.9336 N   0  0  0  0  0  0  0  0  0  0  0  0
   21.1489  -21.0175  -12.3689 C   0  0  0  0  0  0  0  0  0  0  0  0
   20.0126  -20.2070  -12.3280 O   0  0  0  0  0  0  0  0  0  0  0  0
   21.2705  -21.8538  -11.4539 O   0  0  0  0  0  0  0  0  0  0  0  0
  2  1  1  0
  2  3  1  0
  3  5  1  0
  3  4  1  1
  5  6  1  6
  7  5  1  0
  7  8  2  0
 10 12  1  0
 10  9  1  0
 11 10  2  0
 13 12  1  1
 13 14  1  0
 14  7  1  0
 15 13  1  0
 16 15  2  0
 18 17  1  0
 18 19  1  0
 19 21  1  0
 19 20  1  1
 21 22  1  1
 21 23  1  0
 22 15  1  0
 23 25  2  0
 23 24  1  0
M  END
$$$$
