INI.pdb
     RDKit          3D

 25 24  0  0  1  0  0  0  0  0999 V2000
   26.4813  -14.7600  -17.9767 C   0  0  0  0  0  0  0  0  0  0  0  0
   27.0346  -16.0997  -17.6493 C   0  0  0  0  0  0  0  0  0  0  0  0
   26.0985  -17.0883  -17.0548 C   0  0  2  0  0  0  0  0  0  0  0  0
   25.6887  -16.5792  -15.6666 C   0  0  0  0  0  0  0  0  0  0  0  0
   26.6496  -18.4585  -16.8713 C   0  0  2  0  0  0  0  0  0  0  0  0
   27.2038  -18.9572  -18.0763 N   0  0  0  0  0  0  0  0  0  0  0  0
   25.7270  -19.3917  -16.1529 C   0  0  0  0  0  0  0  0  0  0  0  0
   24.7291  -19.8032  -16.8012 O   0  0  0  0  0  0  0  0  0  0  0  0
   24.8511  -23.5965  -12.3384 N   0  0  0  0  0  0  0  0  0  0  0  0
   24.8555  -22.2054  -12.0845 C   0  0  0  0  0  0  0  0  0  0  0  0
   24.0804  -21.7351  -11.2203 O   0  0  0  0  0  0  0  0  0  0  0  0
   25.7641  -21.3086  -12.8282 C   0  0  0  0  0  0  0  0  0  0  0  0
   25.0900  -20.6481  -14.0017 C   0  0  2  0  0  0  0  0  0  0  0  0
   25.9142  -19.8180  -14.8288 N   0  0  0  0  0  0  0  0  0  0  0  0
   23.7870  -20.0679  -13.7723 C   0  0  0  0  0  0  0  0  0  0  0  0
   23.7614  -18.9849  -13.0787 O   0  0  0  0  0  0  0  0  0  0  0  0
   19.7454  -16.8223  -15.7933 C   0  0  0  0  0  0  0  0  0  0  0  0
   19.8619  -17.9428  -14.7704 C   0  0  0  0  0  0  0  0  0  0  0  0
   21.1094  -18.7540  -14.9890 C   0  0  2  0  0  0  0  0  0  0  0  0
   21.0802  -19.2763  -16.4076 C   0  0  0  0  0  0  0  0  0  0  0  0
   21.3209  -19.8219  -13.9628 C   0  0  2  0  0  0  0  0  0  0  0  0
   22.5580  -20.5546  -14.2206 N   0  0  0  0  0  0  0  0  0  0  0  0
   20.1887  -20.7584  -13.7863 C   0  0  0  0  0  0  0  0  0  0  0  0
   19.0231  -20.4219  -13.0952 O   0  0  0  0  0  0  0  0  0  0  0  0
   20.2422  -21.9080  -14.2627 O   0  0  0  0  0  0  0  0  0  0  0  0
  2  1  1  0
  2  3  1  0
  3  5  1  0
  3  4  1  1
  5  6  1  6
  7  5  1  0
  7  8  2  0
 10 12  1  0
 10  9  1  0
 11 10  2  0
 13 12  1  1
 13 14  1  0
 14  7  1  0
 15 13  1  0
 16 15  2  0
 18 17  1  0
 18 19  1  0
 19 21  1  0
 19 20  1  6
 21 22  1  6
 21 23  1  0
 22 15  1  0
 23 25  2  0
 23 24  1  0
M  END
$$$$
