INI.pdb
     RDKit          3D

 25 24  0  0  1  0  0  0  0  0999 V2000
   26.0977  -20.4166   -7.3826 C   0  0  0  0  0  0  0  0  0  0  0  0
   25.8410  -21.1719   -8.6363 C   0  0  0  0  0  0  0  0  0  0  0  0
   25.4743  -20.3786   -9.8377 C   0  0  2  0  0  0  0  0  0  0  0  0
   24.1371  -19.6810   -9.5563 C   0  0  0  0  0  0  0  0  0  0  0  0
   25.3019  -21.1620  -11.0912 C   0  0  2  0  0  0  0  0  0  0  0  0
   26.1193  -22.3195  -11.0927 N   0  0  0  0  0  0  0  0  0  0  0  0
   25.3571  -20.3339  -12.3359 C   0  0  0  0  0  0  0  0  0  0  0  0
   24.5037  -19.4134  -12.4353 O   0  0  0  0  0  0  0  0  0  0  0  0
   29.5076  -18.5363  -13.6648 N   0  0  0  0  0  0  0  0  0  0  0  0
   28.9833  -19.7793  -14.0886 C   0  0  0  0  0  0  0  0  0  0  0  0
   29.4201  -20.8372  -13.5799 O   0  0  0  0  0  0  0  0  0  0  0  0
   27.9290  -19.8371  -15.1221 C   0  0  0  0  0  0  0  0  0  0  0  0
   26.5437  -19.7423  -14.5391 C   0  0  2  0  0  0  0  0  0  0  0  0
   26.2869  -20.5284  -13.3692 N   0  0  0  0  0  0  0  0  0  0  0  0
   25.4359  -19.7649  -15.4660 C   0  0  0  0  0  0  0  0  0  0  0  0
   24.9408  -20.9221  -15.7318 O   0  0  0  0  0  0  0  0  0  0  0  0
   20.1625  -17.4084  -16.9868 C   0  0  0  0  0  0  0  0  0  0  0  0
   21.3739  -18.1489  -17.5340 C   0  0  0  0  0  0  0  0  0  0  0  0
   22.5407  -18.0602  -16.5892 C   0  0  2  0  0  0  0  0  0  0  0  0
   22.8381  -16.5962  -16.3558 C   0  0  0  0  0  0  0  0  0  0  0  0
   23.7330  -18.8499  -17.0285 C   0  0  2  0  0  0  0  0  0  0  0  0
   24.8475  -18.6702  -16.1015 N   0  0  0  0  0  0  0  0  0  0  0  0
   24.1705  -18.6070  -18.4213 C   0  0  0  0  0  0  0  0  0  0  0  0
   25.3967  -18.0218  -18.7430 O   0  0  0  0  0  0  0  0  0  0  0  0
   23.4375  -18.9266  -19.3763 O   0  0  0  0  0  0  0  0  0  0  0  0
  2  1  1  0
  2  3  1  0
  3  5  1  0
  3  4  1  1
  5  6  1  6
  7  5  1  0
  7  8  2  0
 10 12  1  0
 10  9  1  0
 11 10  2  0
 13 12  1  6
 13 14  1  0
 14  7  1  0
 15 13  1  0
 16 15  2  0
 18 17  1  0
 18 19  1  0
 19 21  1  0
 19 20  1  6
 21 22  1  1
 21 23  1  0
 22 15  1  0
 23 25  2  0
 23 24  1  0
M  END
$$$$
