INI.pdb
     RDKit          3D

 25 24  0  0  1  0  0  0  0  0999 V2000
   26.7137  -14.1343  -16.2226 C   0  0  0  0  0  0  0  0  0  0  0  0
   27.0103  -15.5575  -16.5303 C   0  0  0  0  0  0  0  0  0  0  0  0
   26.2292  -16.5834  -15.7923 C   0  0  2  0  0  0  0  0  0  0  0  0
   26.7037  -16.5829  -14.3332 C   0  0  0  0  0  0  0  0  0  0  0  0
   26.3699  -17.9767  -16.2959 C   0  0  2  0  0  0  0  0  0  0  0  0
   26.2233  -18.0335  -17.7042 N   0  0  0  0  0  0  0  0  0  0  0  0
   25.5751  -18.9830  -15.5253 C   0  0  0  0  0  0  0  0  0  0  0  0
   24.3273  -18.9584  -15.6917 O   0  0  0  0  0  0  0  0  0  0  0  0
   25.2295  -24.7066  -14.0712 N   0  0  0  0  0  0  0  0  0  0  0  0
   24.7105  -23.3916  -14.1015 C   0  0  0  0  0  0  0  0  0  0  0  0
   23.6325  -23.1416  -13.5148 O   0  0  0  0  0  0  0  0  0  0  0  0
   25.4284  -22.3166  -14.8171 C   0  0  0  0  0  0  0  0  0  0  0  0
   25.5383  -21.0547  -14.0026 C   0  0  2  0  0  0  0  0  0  0  0  0
   26.1369  -19.9256  -14.6501 N   0  0  0  0  0  0  0  0  0  0  0  0
   25.9723  -21.1911  -12.6315 C   0  0  0  0  0  0  0  0  0  0  0  0
   27.0777  -20.6089  -12.3247 O   0  0  0  0  0  0  0  0  0  0  0  0
   28.3064  -20.0234   -8.3935 C   0  0  0  0  0  0  0  0  0  0  0  0
   26.8063  -20.0393   -8.6480 C   0  0  0  0  0  0  0  0  0  0  0  0
   26.4985  -20.4007  -10.0751 C   0  0  2  0  0  0  0  0  0  0  0  0
   26.1665  -19.1248  -10.8153 C   0  0  0  0  0  0  0  0  0  0  0  0
   25.4541  -21.4627  -10.2156 C   0  0  2  0  0  0  0  0  0  0  0  0
   25.3236  -21.8842  -11.6082 N   0  0  0  0  0  0  0  0  0  0  0  0
   24.1301  -21.1223   -9.6489 C   0  0  0  0  0  0  0  0  0  0  0  0
   23.7994  -21.3309   -8.3085 O   0  0  0  0  0  0  0  0  0  0  0  0
   23.2451  -20.6249  -10.3707 O   0  0  0  0  0  0  0  0  0  0  0  0
  2  1  1  0
  2  3  1  0
  3  5  1  0
  3  4  1  1
  5  6  1  6
  7  5  1  0
  7  8  2  0
 10 12  1  0
 10  9  1  0
 11 10  2  0
 13 12  1  6
 13 14  1  0
 14  7  1  0
 15 13  1  0
 16 15  2  0
 18 17  1  0
 18 19  1  0
 19 21  1  0
 19 20  1  6
 21 22  1  6
 21 23  1  0
 22 15  1  0
 23 25  2  0
 23 24  1  0
M  END
$$$$
