REF.pdb
     RDKit          3D

 32 32  0  0  1  0  0  0  0  0999 V2000
    8.7112  -15.4174   16.5631 N   0  0  0  0  0  0  0  0  0  0  0  0
    8.2971  -14.0881   16.2746 C   0  0  0  0  0  0  0  0  0  0  0  0
    8.0075  -13.7927   15.0655 N   0  0  0  0  0  0  0  0  0  0  0  0
    8.2104  -13.1206   17.3054 N   0  0  0  0  0  0  0  0  0  0  0  0
    8.4713  -13.4846   18.6650 C   0  0  0  0  0  0  0  0  0  0  0  0
    7.2824  -14.1429   19.3394 C   0  0  0  0  0  0  0  0  0  0  0  0
    7.6330  -14.5161   20.7651 C   0  0  0  0  0  0  0  0  0  0  0  0
    8.8933  -15.3574   20.7376 C   0  0  2  0  0  0  0  0  0  0  0  0
    8.6731  -16.4223   19.7824 N   0  0  0  0  0  0  0  0  0  0  0  0
    9.0850  -15.8930   22.1227 C   0  0  0  0  0  0  0  0  0  0  0  0
    8.3028  -15.5889   23.0596 O   0  0  0  0  0  0  0  0  0  0  0  0
    7.8446  -12.8531   14.6774 N   0  0  0  0  0  0  0  0  0  0  0  0
   10.1599  -16.7765   22.4698 C   0  0  1  0  0  0  0  0  0  0  0  0
   10.2487  -17.3428   23.7914 C   0  0  0  0  0  0  0  0  0  0  0  0
   11.0111  -18.6417   23.7159 C   0  0  0  0  0  0  0  0  0  0  0  0
   10.4567  -19.4745   22.5939 C   0  0  0  0  0  0  0  0  0  0  0  0
   11.2837  -20.7137   22.4073 O   0  0  0  0  0  0  0  0  0  0  0  0
   12.2302  -20.9258   23.2021 C   0  0  0  0  0  0  0  0  0  0  0  0
   10.9360  -16.4598   24.7725 O   0  0  0  0  0  0  0  0  0  0  0  0
   12.0323  -15.9003   24.5665 O   0  0  0  0  0  0  0  0  0  0  0  0
   11.0031  -21.5984   21.3846 N   0  0  0  0  0  0  0  0  0  0  0  0
   10.2630  -16.2703   26.0100 C   0  0  1  0  0  0  0  0  0  0  0  0
   10.8987  -15.5292   27.1073 C   0  0  0  0  0  0  0  0  0  0  0  0
   10.6325  -14.0638   26.8394 C   0  0  0  0  0  0  0  0  0  0  0  0
    9.2006  -13.7181   26.7622 C   0  0  0  0  0  0  0  0  0  0  0  0
    8.5353  -13.1148   27.8047 C   0  0  0  0  0  0  0  0  0  0  0  0
    7.1985  -12.7987   27.7113 C   0  0  0  0  0  0  0  0  0  0  0  0
    6.4711  -13.0772   26.5624 C   0  0  0  0  0  0  0  0  0  0  0  0
    7.1420  -13.6791   25.5262 C   0  0  0  0  0  0  0  0  0  0  0  0
    8.4769  -13.9966   25.6139 C   0  0  0  0  0  0  0  0  0  0  0  0
   10.3259  -15.8896   28.4061 O   0  0  0  0  0  0  0  0  0  0  0  0
    9.3902  -16.7082   28.4755 O   0  0  0  0  0  0  0  0  0  0  0  0
  1  2  1  0
  2  3  2  0
  4  2  1  0
  5  4  1  0
  6  5  1  0
  7  6  1  0
  8  7  1  0
  8  9  1  6
 10  8  1  0
 11 10  2  0
 12 10  1  0
 13 12  1  0
 14 15  1  0
 13 14  1  1
 15 16  1  0
 16 17  2  0
 18 13  1  0
 18 21  1  0
 19 18  2  0
 20 16  1  0
 22 21  1  0
 22 30  1  0
 22 23  1  6
 23 24  1  0
 24 29  2  0
 24 25  1  0
 25 26  2  0
 27 26  1  0
 28 27  2  0
 29 28  1  0
 30 32  1  0
 31 30  2  0
M  END
$$$$
