REF.pdb
     RDKit          3D

 32 32  0  0  1  0  0  0  0  0999 V2000
    8.8536  -14.9464   17.6812 N   0  0  0  0  0  0  0  0  0  0  0  0
    8.5209  -13.6173   17.3009 C   0  0  0  0  0  0  0  0  0  0  0  0
    8.5124  -13.3275   16.0563 N   0  0  0  0  0  0  0  0  0  0  0  0
    8.2085  -12.6441   18.2813 N   0  0  0  0  0  0  0  0  0  0  0  0
    8.2722  -12.9712   19.6735 C   0  0  0  0  0  0  0  0  0  0  0  0
    7.0062  -13.6336   20.1837 C   0  0  0  0  0  0  0  0  0  0  0  0
    7.2805  -14.3411   21.4948 C   0  0  0  0  0  0  0  0  0  0  0  0
    7.6712  -15.7727   21.1870 C   0  0  2  0  0  0  0  0  0  0  0  0
    6.4912  -16.4345   20.6729 N   0  0  0  0  0  0  0  0  0  0  0  0
    8.1251  -16.3830   22.4769 C   0  0  0  0  0  0  0  0  0  0  0  0
    7.3047  -16.8487   23.3088 O   0  0  0  0  0  0  0  0  0  0  0  0
    8.3451  -12.4032   15.6348 N   0  0  0  0  0  0  0  0  0  0  0  0
    9.5077  -16.4754   22.8461 C   0  0  2  0  0  0  0  0  0  0  0  0
    9.8984  -17.1045   24.0817 C   0  0  0  0  0  0  0  0  0  0  0  0
   11.0529  -18.0363   23.8115 C   0  0  0  0  0  0  0  0  0  0  0  0
   11.3797  -18.7940   25.0681 C   0  0  0  0  0  0  0  0  0  0  0  0
   10.4451  -19.9575   25.2327 O   0  0  0  0  0  0  0  0  0  0  0  0
   10.1571  -20.3330   26.3939 C   0  0  0  0  0  0  0  0  0  0  0  0
   10.3194  -16.1398   25.1337 O   0  0  0  0  0  0  0  0  0  0  0  0
   11.1711  -15.2434   24.9646 O   0  0  0  0  0  0  0  0  0  0  0  0
    9.9147  -20.5945   24.1281 N   0  0  0  0  0  0  0  0  0  0  0  0
    9.6837  -16.2867   26.3963 C   0  0  2  0  0  0  0  0  0  0  0  0
   10.0927  -15.4683   27.5454 C   0  0  0  0  0  0  0  0  0  0  0  0
    8.8256  -14.8575   28.1035 C   0  0  0  0  0  0  0  0  0  0  0  0
    8.1579  -13.9161   27.1849 C   0  0  0  0  0  0  0  0  0  0  0  0
    8.6850  -12.6788   26.8933 C   0  0  0  0  0  0  0  0  0  0  0  0
    8.0465  -11.8156   26.0315 C   0  0  0  0  0  0  0  0  0  0  0  0
    6.8466  -12.1603   25.4247 C   0  0  0  0  0  0  0  0  0  0  0  0
    6.3269  -13.3966   25.7204 C   0  0  0  0  0  0  0  0  0  0  0  0
    6.9605  -14.2627   26.5801 C   0  0  0  0  0  0  0  0  0  0  0  0
   10.7317  -16.2776   28.5854 O   0  0  0  0  0  0  0  0  0  0  0  0
   11.1587  -15.7422   29.6254 O   0  0  0  0  0  0  0  0  0  0  0  0
  1  2  1  0
  2  3  2  0
  4  2  1  0
  5  4  1  0
  6  5  1  0
  7  6  1  0
  8  7  1  0
  8  9  1  1
 10  8  1  0
 11 10  2  0
 12 10  1  0
 13 12  1  0
 14 15  1  0
 13 14  1  1
 15 16  1  0
 16 17  2  0
 18 13  1  0
 18 21  1  0
 19 18  2  0
 20 16  1  0
 22 21  1  0
 22 30  1  0
 22 23  1  6
 23 24  1  0
 24 29  2  0
 24 25  1  0
 25 26  2  0
 27 26  1  0
 28 27  2  0
 29 28  1  0
 30 32  1  0
 31 30  2  0
M  END
$$$$
