REF.pdb
     RDKit          3D

 32 32  0  0  1  0  0  0  0  0999 V2000
    6.1150  -20.4637   19.0708 N   0  0  0  0  0  0  0  0  0  0  0  0
    6.0919  -19.4239   18.1013 C   0  0  0  0  0  0  0  0  0  0  0  0
    6.6043  -19.6544   16.9536 N   0  0  0  0  0  0  0  0  0  0  0  0
    5.5150  -18.1669   18.4065 N   0  0  0  0  0  0  0  0  0  0  0  0
    6.3460  -17.0474   18.7308 C   0  0  0  0  0  0  0  0  0  0  0  0
    6.3911  -16.7560   20.2190 C   0  0  0  0  0  0  0  0  0  0  0  0
    7.1011  -15.4418   20.4713 C   0  0  0  0  0  0  0  0  0  0  0  0
    8.5832  -15.6518   20.2341 C   0  0  2  0  0  0  0  0  0  0  0  0
    8.7113  -16.5035   19.0709 N   0  0  0  0  0  0  0  0  0  0  0  0
    9.1272  -16.3139   21.4620 C   0  0  0  0  0  0  0  0  0  0  0  0
    8.7015  -17.4321   21.8498 O   0  0  0  0  0  0  0  0  0  0  0  0
    6.6966  -18.9926   16.1702 N   0  0  0  0  0  0  0  0  0  0  0  0
   10.1561  -15.7247   22.2686 C   0  0  1  0  0  0  0  0  0  0  0  0
   10.7933  -16.4812   23.3159 C   0  0  0  0  0  0  0  0  0  0  0  0
   12.2809  -16.4996   23.0693 C   0  0  0  0  0  0  0  0  0  0  0  0
   12.9308  -17.4423   24.0433 C   0  0  0  0  0  0  0  0  0  0  0  0
   14.4143  -17.4853   23.8157 O   0  0  0  0  0  0  0  0  0  0  0  0
   15.0073  -18.5825   23.9463 C   0  0  0  0  0  0  0  0  0  0  0  0
   10.5573  -15.9288   24.6774 O   0  0  0  0  0  0  0  0  0  0  0  0
   10.8950  -14.7830   25.0388 O   0  0  0  0  0  0  0  0  0  0  0  0
   15.1053  -16.3413   23.4679 N   0  0  0  0  0  0  0  0  0  0  0  0
    9.9017  -16.7978   25.5912 C   0  0  1  0  0  0  0  0  0  0  0  0
    9.6664  -16.3893   26.9824 C   0  0  0  0  0  0  0  0  0  0  0  0
    8.1791  -16.1379   27.1047 C   0  0  0  0  0  0  0  0  0  0  0  0
    7.7496  -14.8198   26.6009 C   0  0  0  0  0  0  0  0  0  0  0  0
    8.1297  -13.6443   27.2070 C   0  0  0  0  0  0  0  0  0  0  0  0
    7.7190  -12.4241   26.7194 C   0  0  0  0  0  0  0  0  0  0  0  0
    6.9055  -12.3332   25.5984 C   0  0  0  0  0  0  0  0  0  0  0  0
    6.5305  -13.5105   24.9988 C   0  0  0  0  0  0  0  0  0  0  0  0
    6.9380  -14.7318   25.4813 C   0  0  0  0  0  0  0  0  0  0  0  0
   10.0532  -17.4394   27.9270 O   0  0  0  0  0  0  0  0  0  0  0  0
   10.4269  -18.5523   27.5118 O   0  0  0  0  0  0  0  0  0  0  0  0
  1  2  1  0
  2  3  2  0
  4  2  1  0
  5  4  1  0
  6  5  1  0
  7  6  1  0
  8  7  1  0
  8  9  1  6
 10  8  1  0
 11 10  2  0
 12 10  1  0
 13 12  1  0
 14 15  1  0
 13 14  1  1
 15 16  1  0
 16 17  2  0
 18 13  1  0
 18 21  1  0
 19 18  2  0
 20 16  1  0
 22 21  1  0
 22 30  1  0
 22 23  1  1
 23 24  1  0
 24 29  2  0
 24 25  1  0
 25 26  2  0
 27 26  1  0
 28 27  2  0
 29 28  1  0
 30 32  1  0
 31 30  2  0
M  END
$$$$
