REF.pdb
     RDKit          3D

 32 32  0  0  1  0  0  0  0  0999 V2000
    8.1995  -12.0409   18.6612 N   0  0  0  0  0  0  0  0  0  0  0  0
    8.9171  -13.2507   18.4532 C   0  0  0  0  0  0  0  0  0  0  0  0
   10.1554  -13.2821   18.7673 N   0  0  0  0  0  0  0  0  0  0  0  0
    8.2703  -14.3880   17.9108 N   0  0  0  0  0  0  0  0  0  0  0  0
    7.2012  -15.0216   18.6212 C   0  0  0  0  0  0  0  0  0  0  0  0
    7.5736  -16.3943   19.1488 C   0  0  0  0  0  0  0  0  0  0  0  0
    6.6106  -16.8115   20.2412 C   0  0  0  0  0  0  0  0  0  0  0  0
    6.8553  -15.9300   21.4495 C   0  0  2  0  0  0  0  0  0  0  0  0
    7.1515  -14.6026   20.9546 N   0  0  0  0  0  0  0  0  0  0  0  0
    8.0225  -16.5161   22.1820 C   0  0  0  0  0  0  0  0  0  0  0  0
    7.9772  -17.6732   22.6728 O   0  0  0  0  0  0  0  0  0  0  0  0
   10.8201  -14.0498   18.5973 N   0  0  0  0  0  0  0  0  0  0  0  0
    9.2539  -15.8061   22.3715 C   0  0  1  0  0  0  0  0  0  0  0  0
   10.3040  -16.3600   23.1875 C   0  0  0  0  0  0  0  0  0  0  0  0
   11.6366  -15.9491   22.6135 C   0  0  0  0  0  0  0  0  0  0  0  0
   11.6045  -16.1202   21.1204 C   0  0  0  0  0  0  0  0  0  0  0  0
   12.9064  -15.6778   20.5173 O   0  0  0  0  0  0  0  0  0  0  0  0
   13.7762  -15.1812   21.2717 C   0  0  0  0  0  0  0  0  0  0  0  0
   10.2541  -15.9132   24.6061 O   0  0  0  0  0  0  0  0  0  0  0  0
   10.8092  -14.8822   25.0377 O   0  0  0  0  0  0  0  0  0  0  0  0
   13.1375  -15.8191   19.1631 N   0  0  0  0  0  0  0  0  0  0  0  0
    9.5151  -16.7454   25.4900 C   0  0  1  0  0  0  0  0  0  0  0  0
    9.4130  -16.4230   26.9193 C   0  0  0  0  0  0  0  0  0  0  0  0
    7.9705  -16.0372   27.1650 C   0  0  0  0  0  0  0  0  0  0  0  0
    7.6219  -14.6844   26.6914 C   0  0  0  0  0  0  0  0  0  0  0  0
    6.5793  -14.4584   25.8222 C   0  0  0  0  0  0  0  0  0  0  0  0
    6.2694  -13.1873   25.3937 C   0  0  0  0  0  0  0  0  0  0  0  0
    6.9973  -12.0856   25.8215 C   0  0  0  0  0  0  0  0  0  0  0  0
    8.0362  -12.3189   26.6890 C   0  0  0  0  0  0  0  0  0  0  0  0
    8.3498  -13.5862   27.1203 C   0  0  0  0  0  0  0  0  0  0  0  0
    9.7494  -17.5750   27.7587 O   0  0  0  0  0  0  0  0  0  0  0  0
    9.9635  -18.6879   27.2429 O   0  0  0  0  0  0  0  0  0  0  0  0
  1  2  1  0
  2  3  2  0
  4  2  1  0
  5  4  1  0
  6  5  1  0
  7  6  1  0
  8  7  1  0
  8  9  1  6
 10  8  1  0
 11 10  2  0
 12 10  1  0
 13 12  1  0
 14 15  1  0
 13 14  1  6
 15 16  1  0
 16 17  2  0
 18 13  1  0
 18 21  1  0
 19 18  2  0
 20 16  1  0
 22 21  1  0
 22 30  1  0
 22 23  1  1
 23 24  1  0
 24 29  2  0
 24 25  1  0
 25 26  2  0
 27 26  1  0
 28 27  2  0
 29 28  1  0
 30 32  1  0
 31 30  2  0
M  END
$$$$
