REF.pdb
     RDKit          3D

 32 32  0  0  1  0  0  0  0  0999 V2000
    8.4388  -12.4431   17.3224 N   0  0  0  0  0  0  0  0  0  0  0  0
    8.3930  -13.2149   18.5157 C   0  0  0  0  0  0  0  0  0  0  0  0
    9.1325  -12.8598   19.4955 N   0  0  0  0  0  0  0  0  0  0  0  0
    7.5477  -14.3474   18.6094 N   0  0  0  0  0  0  0  0  0  0  0  0
    7.6475  -15.2360   19.7272 C   0  0  0  0  0  0  0  0  0  0  0  0
    6.5218  -15.0557   20.7282 C   0  0  0  0  0  0  0  0  0  0  0  0
    6.9793  -15.4800   22.1086 C   0  0  0  0  0  0  0  0  0  0  0  0
    7.4305  -16.9249   22.0341 C   0  0  2  0  0  0  0  0  0  0  0  0
    6.2443  -17.7471   22.1416 N   0  0  0  0  0  0  0  0  0  0  0  0
    8.3591  -17.1471   23.1876 C   0  0  0  0  0  0  0  0  0  0  0  0
    7.9579  -17.6532   24.2668 O   0  0  0  0  0  0  0  0  0  0  0  0
    9.2653  -13.3586   20.3863 N   0  0  0  0  0  0  0  0  0  0  0  0
    9.7500  -16.8013   23.1402 C   0  0  2  0  0  0  0  0  0  0  0  0
   10.6329  -17.1548   24.2222 C   0  0  0  0  0  0  0  0  0  0  0  0
   12.0531  -17.1500   23.7151 C   0  0  0  0  0  0  0  0  0  0  0  0
   12.9579  -17.7101   24.7769 C   0  0  0  0  0  0  0  0  0  0  0  0
   14.3786  -17.7325   24.2918 O   0  0  0  0  0  0  0  0  0  0  0  0
   15.2306  -17.0473   24.9059 C   0  0  0  0  0  0  0  0  0  0  0  0
   10.5534  -16.2268   25.3829 O   0  0  0  0  0  0  0  0  0  0  0  0
   11.1006  -15.1059   25.4248 O   0  0  0  0  0  0  0  0  0  0  0  0
   14.7351  -18.4938   23.1961 N   0  0  0  0  0  0  0  0  0  0  0  0
    9.7945  -16.6889   26.4921 C   0  0  1  0  0  0  0  0  0  0  0  0
    9.9201  -16.0507   27.8091 C   0  0  0  0  0  0  0  0  0  0  0  0
    8.5901  -15.3840   28.0858 C   0  0  0  0  0  0  0  0  0  0  0  0
    8.3594  -14.1562   27.3016 C   0  0  0  0  0  0  0  0  0  0  0  0
    8.9842  -12.9673   27.6011 C   0  0  0  0  0  0  0  0  0  0  0  0
    8.7562  -11.8329   26.8549 C   0  0  0  0  0  0  0  0  0  0  0  0
    7.8869  -11.8452   25.7728 C   0  0  0  0  0  0  0  0  0  0  0  0
    7.2673  -13.0354   25.4800 C   0  0  0  0  0  0  0  0  0  0  0  0
    7.4915  -14.1713   26.2215 C   0  0  0  0  0  0  0  0  0  0  0  0
   10.1913  -17.0320   28.8618 O   0  0  0  0  0  0  0  0  0  0  0  0
   10.3556  -16.6621   30.0394 O   0  0  0  0  0  0  0  0  0  0  0  0
  1  2  1  0
  2  3  2  0
  4  2  1  0
  5  4  1  0
  6  5  1  0
  7  6  1  0
  8  7  1  0
  8  9  1  1
 10  8  1  0
 11 10  2  0
 12 10  1  0
 13 12  1  0
 14 15  1  0
 13 14  1  6
 15 16  1  0
 16 17  2  0
 18 13  1  0
 18 21  1  0
 19 18  2  0
 20 16  1  0
 22 21  1  0
 22 30  1  0
 22 23  1  1
 23 24  1  0
 24 29  2  0
 24 25  1  0
 25 26  2  0
 27 26  1  0
 28 27  2  0
 29 28  1  0
 30 32  1  0
 31 30  2  0
M  END
$$$$
