REF.pdb
     RDKit          3D

 32 32  0  0  1  0  0  0  0  0999 V2000
    8.5866  -12.7463   15.8496 N   0  0  0  0  0  0  0  0  0  0  0  0
    7.7556  -13.8968   15.9364 C   0  0  0  0  0  0  0  0  0  0  0  0
    7.8447  -14.7792   15.0164 N   0  0  0  0  0  0  0  0  0  0  0  0
    6.8539  -14.0545   17.0172 N   0  0  0  0  0  0  0  0  0  0  0  0
    7.2583  -13.7312   18.3517 C   0  0  0  0  0  0  0  0  0  0  0  0
    8.6017  -14.3299   18.7239 C   0  0  0  0  0  0  0  0  0  0  0  0
    8.4713  -15.1585   19.9854 C   0  0  0  0  0  0  0  0  0  0  0  0
    9.4054  -14.5806   21.0295 C   0  0  2  0  0  0  0  0  0  0  0  0
   10.7332  -14.5707   20.4535 N   0  0  0  0  0  0  0  0  0  0  0  0
    9.3309  -15.4830   22.2221 C   0  0  0  0  0  0  0  0  0  0  0  0
    8.2577  -15.6464   22.8572 O   0  0  0  0  0  0  0  0  0  0  0  0
    7.2539  -15.6139   14.8969 N   0  0  0  0  0  0  0  0  0  0  0  0
   10.4638  -16.2113   22.7145 C   0  0  1  0  0  0  0  0  0  0  0  0
   10.3559  -17.0281   23.8962 C   0  0  0  0  0  0  0  0  0  0  0  0
   11.3979  -18.1165   23.8344 C   0  0  0  0  0  0  0  0  0  0  0  0
   11.1159  -19.0028   22.6534 C   0  0  0  0  0  0  0  0  0  0  0  0
   12.1801  -20.0542   22.5254 O   0  0  0  0  0  0  0  0  0  0  0  0
   13.3428  -19.6940   22.2241 C   0  0  0  0  0  0  0  0  0  0  0  0
   10.5522  -16.2717   25.1627 O   0  0  0  0  0  0  0  0  0  0  0  0
   11.3984  -15.3675   25.3169 O   0  0  0  0  0  0  0  0  0  0  0  0
   11.8817  -21.3857   22.7383 N   0  0  0  0  0  0  0  0  0  0  0  0
    9.6983  -16.6367   26.2386 C   0  0  1  0  0  0  0  0  0  0  0  0
    9.7647  -15.9318   27.5255 C   0  0  0  0  0  0  0  0  0  0  0  0
    8.3477  -15.5149   27.8543 C   0  0  0  0  0  0  0  0  0  0  0  0
    7.8462  -14.3949   27.0358 C   0  0  0  0  0  0  0  0  0  0  0  0
    6.9085  -14.5741   26.0448 C   0  0  0  0  0  0  0  0  0  0  0  0
    6.4522  -13.5145   25.2933 C   0  0  0  0  0  0  0  0  0  0  0  0
    6.9213  -12.2256   25.5063 C   0  0  0  0  0  0  0  0  0  0  0  0
    7.8568  -12.0547   26.4971 C   0  0  0  0  0  0  0  0  0  0  0  0
    8.3157  -13.1091   27.2508 C   0  0  0  0  0  0  0  0  0  0  0  0
   10.2674  -16.8002   28.5922 O   0  0  0  0  0  0  0  0  0  0  0  0
   10.4271  -18.0183   28.3888 O   0  0  0  0  0  0  0  0  0  0  0  0
  1  2  1  0
  2  3  2  0
  4  2  1  0
  5  4  1  0
  6  5  1  0
  7  6  1  0
  8  7  1  0
  8  9  1  6
 10  8  1  0
 11 10  2  0
 12 10  1  0
 13 12  1  0
 14 15  1  0
 13 14  1  1
 15 16  1  0
 16 17  2  0
 18 13  1  0
 18 21  1  0
 19 18  2  0
 20 16  1  0
 22 21  1  0
 22 30  1  0
 22 23  1  1
 23 24  1  0
 24 29  2  0
 24 25  1  0
 25 26  2  0
 27 26  1  0
 28 27  2  0
 29 28  1  0
 30 32  1  0
 31 30  2  0
M  END
$$$$
