REF.pdb
     RDKit          3D

 32 32  0  0  1  0  0  0  0  0999 V2000
    8.3683  -12.9947   15.0142 N   0  0  0  0  0  0  0  0  0  0  0  0
    8.6413  -14.3747   15.2211 C   0  0  0  0  0  0  0  0  0  0  0  0
    9.5158  -14.9372   14.4782 N   0  0  0  0  0  0  0  0  0  0  0  0
    7.9575  -15.1018   16.2260 N   0  0  0  0  0  0  0  0  0  0  0  0
    7.0675  -14.4331   17.1259 C   0  0  0  0  0  0  0  0  0  0  0  0
    7.7943  -13.6322   18.1899 C   0  0  0  0  0  0  0  0  0  0  0  0
    7.3401  -14.0650   19.5688 C   0  0  0  0  0  0  0  0  0  0  0  0
    8.3988  -13.6455   20.5688 C   0  0  2  0  0  0  0  0  0  0  0  0
    9.6267  -13.4447   19.8293 N   0  0  0  0  0  0  0  0  0  0  0  0
    8.5285  -14.7647   21.5551 C   0  0  0  0  0  0  0  0  0  0  0  0
    7.5628  -15.1186   22.2790 O   0  0  0  0  0  0  0  0  0  0  0  0
    9.7778  -15.9329   14.4718 N   0  0  0  0  0  0  0  0  0  0  0  0
    9.7471  -15.4980   21.7390 C   0  0  1  0  0  0  0  0  0  0  0  0
    9.8532  -16.5020   22.7665 C   0  0  0  0  0  0  0  0  0  0  0  0
   10.7306  -17.6219   22.2662 C   0  0  0  0  0  0  0  0  0  0  0  0
   10.0985  -18.2375   21.0491 C   0  0  0  0  0  0  0  0  0  0  0  0
   10.9679  -19.3367   20.5103 O   0  0  0  0  0  0  0  0  0  0  0  0
   11.6868  -19.9780   21.3132 C   0  0  0  0  0  0  0  0  0  0  0  0
   10.4340  -15.9930   24.0386 O   0  0  0  0  0  0  0  0  0  0  0  0
   11.4454  -15.2651   24.1074 O   0  0  0  0  0  0  0  0  0  0  0  0
   10.9706  -19.6333   19.1615 N   0  0  0  0  0  0  0  0  0  0  0  0
    9.7597  -16.3865   25.2262 C   0  0  1  0  0  0  0  0  0  0  0  0
   10.2823  -16.0146   26.5476 C   0  0  0  0  0  0  0  0  0  0  0  0
   10.1159  -14.5149   26.6627 C   0  0  0  0  0  0  0  0  0  0  0  0
    8.7108  -14.0688   26.7116 C   0  0  0  0  0  0  0  0  0  0  0  0
    8.2840  -13.0851   27.5740 C   0  0  0  0  0  0  0  0  0  0  0  0
    6.9679  -12.6820   27.6025 C   0  0  0  0  0  0  0  0  0  0  0  0
    6.0214  -13.2530   26.7629 C   0  0  0  0  0  0  0  0  0  0  0  0
    6.4549  -14.2339   25.9050 C   0  0  0  0  0  0  0  0  0  0  0  0
    7.7680  -14.6401   25.8721 C   0  0  0  0  0  0  0  0  0  0  0  0
    9.5342  -16.6629   27.6269 O   0  0  0  0  0  0  0  0  0  0  0  0
    8.5395  -17.3660   27.3685 O   0  0  0  0  0  0  0  0  0  0  0  0
  1  2  1  0
  2  3  2  0
  4  2  1  0
  5  4  1  0
  6  5  1  0
  7  6  1  0
  8  7  1  0
  8  9  1  6
 10  8  1  0
 11 10  2  0
 12 10  1  0
 13 12  1  0
 14 15  1  0
 13 14  1  1
 15 16  1  0
 16 17  2  0
 18 13  1  0
 18 21  1  0
 19 18  2  0
 20 16  1  0
 22 21  1  0
 22 30  1  0
 22 23  1  6
 23 24  1  0
 24 29  2  0
 24 25  1  0
 25 26  2  0
 27 26  1  0
 28 27  2  0
 29 28  1  0
 30 32  1  0
 31 30  2  0
M  END
$$$$
