REF.pdb
     RDKit          3D

 32 32  0  0  1  0  0  0  0  0999 V2000
    7.5813  -14.4031   16.3836 N   0  0  0  0  0  0  0  0  0  0  0  0
    7.6270  -12.9824   16.4187 C   0  0  0  0  0  0  0  0  0  0  0  0
    7.5961  -12.3477   15.3100 N   0  0  0  0  0  0  0  0  0  0  0  0
    7.7053  -12.2943   17.6542 N   0  0  0  0  0  0  0  0  0  0  0  0
    7.7128  -13.0193   18.8885 C   0  0  0  0  0  0  0  0  0  0  0  0
    8.5939  -14.2535   18.8439 C   0  0  0  0  0  0  0  0  0  0  0  0
    8.6222  -14.9227   20.2026 C   0  0  0  0  0  0  0  0  0  0  0  0
    9.4678  -16.1759   20.0951 C   0  0  2  0  0  0  0  0  0  0  0  0
    8.7570  -17.0959   19.2330 N   0  0  0  0  0  0  0  0  0  0  0  0
    9.6094  -16.7213   21.4824 C   0  0  0  0  0  0  0  0  0  0  0  0
    8.6383  -17.2464   22.0850 O   0  0  0  0  0  0  0  0  0  0  0  0
    7.6655  -11.3294   15.1749 N   0  0  0  0  0  0  0  0  0  0  0  0
   10.8455  -16.6812   22.2082 C   0  0  2  0  0  0  0  0  0  0  0  0
   10.9765  -17.3540   23.4752 C   0  0  0  0  0  0  0  0  0  0  0  0
   12.3704  -17.9190   23.5862 C   0  0  0  0  0  0  0  0  0  0  0  0
   12.4896  -18.6887   24.8719 C   0  0  0  0  0  0  0  0  0  0  0  0
   13.8828  -19.2258   25.0301 O   0  0  0  0  0  0  0  0  0  0  0  0
   14.8128  -18.4164   25.2593 C   0  0  0  0  0  0  0  0  0  0  0  0
   10.7425  -16.4674   24.6472 O   0  0  0  0  0  0  0  0  0  0  0  0
   11.2189  -15.3201   24.7663 O   0  0  0  0  0  0  0  0  0  0  0  0
   14.1294  -20.5807   24.9278 N   0  0  0  0  0  0  0  0  0  0  0  0
    9.9166  -17.0037   25.6720 C   0  0  1  0  0  0  0  0  0  0  0  0
    9.6281  -16.2320   26.8880 C   0  0  0  0  0  0  0  0  0  0  0  0
    8.1236  -16.0796   26.9465 C   0  0  0  0  0  0  0  0  0  0  0  0
    7.6273  -14.8056   26.3930 C   0  0  0  0  0  0  0  0  0  0  0  0
    6.8639  -14.7515   25.2494 C   0  0  0  0  0  0  0  0  0  0  0  0
    6.4090  -13.5517   24.7505 C   0  0  0  0  0  0  0  0  0  0  0  0
    6.7039  -12.3510   25.3815 C   0  0  0  0  0  0  0  0  0  0  0  0
    7.4661  -12.4130   26.5223 C   0  0  0  0  0  0  0  0  0  0  0  0
    7.9227  -13.6084   27.0252 C   0  0  0  0  0  0  0  0  0  0  0  0
   10.0853  -16.9292   28.0920 O   0  0  0  0  0  0  0  0  0  0  0  0
    9.9911  -16.3849   29.2080 O   0  0  0  0  0  0  0  0  0  0  0  0
  1  2  1  0
  2  3  2  0
  4  2  1  0
  5  4  1  0
  6  5  1  0
  7  6  1  0
  8  7  1  0
  8  9  1  6
 10  8  1  0
 11 10  2  0
 12 10  1  0
 13 12  1  0
 14 15  1  0
 13 14  1  6
 15 16  1  0
 16 17  2  0
 18 13  1  0
 18 21  1  0
 19 18  2  0
 20 16  1  0
 22 21  1  0
 22 30  1  0
 22 23  1  1
 23 24  1  0
 24 29  2  0
 24 25  1  0
 25 26  2  0
 27 26  1  0
 28 27  2  0
 29 28  1  0
 30 32  1  0
 31 30  2  0
M  END
$$$$
