REF.pdb
     RDKit          3D

 32 32  0  0  1  0  0  0  0  0999 V2000
    9.4913  -14.2359   15.9136 N   0  0  0  0  0  0  0  0  0  0  0  0
    8.2397  -13.7031   15.4996 C   0  0  0  0  0  0  0  0  0  0  0  0
    8.1105  -13.3359   14.2824 N   0  0  0  0  0  0  0  0  0  0  0  0
    7.1679  -13.5845   16.4178 N   0  0  0  0  0  0  0  0  0  0  0  0
    7.3317  -13.9930   17.7799 C   0  0  0  0  0  0  0  0  0  0  0  0
    7.7483  -15.4455   17.9156 C   0  0  0  0  0  0  0  0  0  0  0  0
    7.7834  -15.8430   19.3770 C   0  0  0  0  0  0  0  0  0  0  0  0
    8.1667  -17.3070   19.4598 C   0  0  2  0  0  0  0  0  0  0  0  0
    6.9773  -18.0756   19.1608 N   0  0  0  0  0  0  0  0  0  0  0  0
    8.6406  -17.5506   20.8592 C   0  0  0  0  0  0  0  0  0  0  0  0
    7.8448  -17.5471   21.8331 O   0  0  0  0  0  0  0  0  0  0  0  0
    7.3023  -12.8577   13.8602 N   0  0  0  0  0  0  0  0  0  0  0  0
   10.0162  -17.7998   21.1788 C   0  0  2  0  0  0  0  0  0  0  0  0
   10.4738  -17.7542   22.5440 C   0  0  0  0  0  0  0  0  0  0  0  0
   11.9458  -18.0801   22.5767 C   0  0  0  0  0  0  0  0  0  0  0  0
   12.3841  -18.2392   24.0058 C   0  0  0  0  0  0  0  0  0  0  0  0
   13.8571  -18.5232   24.0703 O   0  0  0  0  0  0  0  0  0  0  0  0
   14.5882  -18.1009   23.1432 C   0  0  0  0  0  0  0  0  0  0  0  0
   10.2791  -16.4293   23.1932 O   0  0  0  0  0  0  0  0  0  0  0  0
   10.6597  -15.3454   22.7056 O   0  0  0  0  0  0  0  0  0  0  0  0
   14.3905  -19.2309   25.1295 N   0  0  0  0  0  0  0  0  0  0  0  0
    9.6117  -16.4486   24.4478 C   0  0  1  0  0  0  0  0  0  0  0  0
    9.3053  -15.1995   25.1573 C   0  0  0  0  0  0  0  0  0  0  0  0
    7.8760  -14.8505   24.8034 C   0  0  0  0  0  0  0  0  0  0  0  0
    7.3280  -13.7150   25.5691 C   0  0  0  0  0  0  0  0  0  0  0  0
    6.9031  -13.8464   26.8714 C   0  0  0  0  0  0  0  0  0  0  0  0
    6.3964  -12.7731   27.5690 C   0  0  0  0  0  0  0  0  0  0  0  0
    6.2942  -11.5180   26.9851 C   0  0  0  0  0  0  0  0  0  0  0  0
    6.7204  -11.3946   25.6854 C   0  0  0  0  0  0  0  0  0  0  0  0
    7.2275  -12.4630   24.9841 C   0  0  0  0  0  0  0  0  0  0  0  0
    9.4126  -15.3619   26.6088 O   0  0  0  0  0  0  0  0  0  0  0  0
    9.8245  -14.4248   27.3178 O   0  0  0  0  0  0  0  0  0  0  0  0
  1  2  1  0
  2  3  2  0
  4  2  1  0
  5  4  1  0
  6  5  1  0
  7  6  1  0
  8  7  1  0
  8  9  1  1
 10  8  1  0
 11 10  2  0
 12 10  1  0
 13 12  1  0
 14 15  1  0
 13 14  1  6
 15 16  1  0
 16 17  2  0
 18 13  1  0
 18 21  1  0
 19 18  2  0
 20 16  1  0
 22 21  1  0
 22 30  1  0
 22 23  1  1
 23 24  1  0
 24 29  2  0
 24 25  1  0
 25 26  2  0
 27 26  1  0
 28 27  2  0
 29 28  1  0
 30 32  1  0
 31 30  2  0
M  END
$$$$
