REF.pdb
     RDKit          3D

 32 32  0  0  1  0  0  0  0  0999 V2000
    8.9316  -13.9555   16.8400 N   0  0  0  0  0  0  0  0  0  0  0  0
    7.7777  -13.1388   16.6873 C   0  0  0  0  0  0  0  0  0  0  0  0
    7.4272  -12.8002   15.5060 N   0  0  0  0  0  0  0  0  0  0  0  0
    7.0404  -12.7143   17.8197 N   0  0  0  0  0  0  0  0  0  0  0  0
    7.3444  -13.2331   19.1188 C   0  0  0  0  0  0  0  0  0  0  0  0
    8.0611  -14.5693   19.0690 C   0  0  0  0  0  0  0  0  0  0  0  0
    8.3027  -15.0835   20.4733 C   0  0  0  0  0  0  0  0  0  0  0  0
    9.0772  -16.3824   20.3746 C   0  0  2  0  0  0  0  0  0  0  0  0
    8.3020  -17.2778   19.5427 N   0  0  0  0  0  0  0  0  0  0  0  0
    9.2150  -16.9098   21.7693 C   0  0  0  0  0  0  0  0  0  0  0  0
    8.2246  -17.3523   22.4059 O   0  0  0  0  0  0  0  0  0  0  0  0
    6.6481  -12.1808   15.2427 N   0  0  0  0  0  0  0  0  0  0  0  0
   10.4689  -16.9445   22.4641 C   0  0  1  0  0  0  0  0  0  0  0  0
   10.5692  -17.5423   23.7709 C   0  0  0  0  0  0  0  0  0  0  0  0
   11.8132  -18.3931   23.8246 C   0  0  0  0  0  0  0  0  0  0  0  0
   11.7029  -19.4929   22.8057 C   0  0  0  0  0  0  0  0  0  0  0  0
   11.0007  -20.6814   23.3963 O   0  0  0  0  0  0  0  0  0  0  0  0
   10.7596  -20.6824   24.6269 C   0  0  0  0  0  0  0  0  0  0  0  0
   10.6409  -16.5485   24.8763 O   0  0  0  0  0  0  0  0  0  0  0  0
   11.3309  -15.5092   24.8429 O   0  0  0  0  0  0  0  0  0  0  0  0
   10.6282  -21.7454   22.5986 N   0  0  0  0  0  0  0  0  0  0  0  0
    9.8559  -16.8437   26.0238 C   0  0  2  0  0  0  0  0  0  0  0  0
    9.9283  -15.9993   27.2235 C   0  0  0  0  0  0  0  0  0  0  0  0
    8.5104  -15.5617   27.5203 C   0  0  0  0  0  0  0  0  0  0  0  0
    8.0816  -14.3661   26.7703 C   0  0  0  0  0  0  0  0  0  0  0  0
    8.7216  -13.1544   26.8951 C   0  0  0  0  0  0  0  0  0  0  0  0
    8.3064  -12.0508   26.1842 C   0  0  0  0  0  0  0  0  0  0  0  0
    7.2260  -12.1185   25.3154 C   0  0  0  0  0  0  0  0  0  0  0  0
    6.5925  -13.3312   25.1960 C   0  0  0  0  0  0  0  0  0  0  0  0
    7.0032  -14.4365   25.9031 C   0  0  0  0  0  0  0  0  0  0  0  0
   10.4514  -16.7387   28.3743 O   0  0  0  0  0  0  0  0  0  0  0  0
   10.6775  -16.1519   29.4491 O   0  0  0  0  0  0  0  0  0  0  0  0
  1  2  1  0
  2  3  2  0
  4  2  1  0
  5  4  1  0
  6  5  1  0
  7  6  1  0
  8  7  1  0
  8  9  1  6
 10  8  1  0
 11 10  2  0
 12 10  1  0
 13 12  1  0
 14 15  1  0
 13 14  1  1
 15 16  1  0
 16 17  2  0
 18 13  1  0
 18 21  1  0
 19 18  2  0
 20 16  1  0
 22 21  1  0
 22 30  1  0
 22 23  1  6
 23 24  1  0
 24 29  2  0
 24 25  1  0
 25 26  2  0
 27 26  1  0
 28 27  2  0
 29 28  1  0
 30 32  1  0
 31 30  2  0
M  END
$$$$
