REF.pdb
     RDKit          3D

 32 32  0  0  1  0  0  0  0  0999 V2000
    8.9374  -13.6954   17.5337 N   0  0  0  0  0  0  0  0  0  0  0  0
    8.7248  -13.2905   18.8800 C   0  0  0  0  0  0  0  0  0  0  0  0
    8.4554  -12.0622   19.1079 N   0  0  0  0  0  0  0  0  0  0  0  0
    8.8114  -14.2292   19.9370 N   0  0  0  0  0  0  0  0  0  0  0  0
    7.7299  -15.1305   20.1965 C   0  0  0  0  0  0  0  0  0  0  0  0
    6.7534  -14.6005   21.2295 C   0  0  0  0  0  0  0  0  0  0  0  0
    5.7066  -15.6495   21.5433 C   0  0  0  0  0  0  0  0  0  0  0  0
    6.4151  -16.9672   21.7852 C   0  0  2  0  0  0  0  0  0  0  0  0
    5.5965  -18.0049   21.1955 N   0  0  0  0  0  0  0  0  0  0  0  0
    6.5255  -17.1318   23.2695 C   0  0  0  0  0  0  0  0  0  0  0  0
    5.6629  -16.6541   24.0501 O   0  0  0  0  0  0  0  0  0  0  0  0
    8.3721  -11.6045   20.0264 N   0  0  0  0  0  0  0  0  0  0  0  0
    7.6088  -17.8352   23.8925 C   0  0  2  0  0  0  0  0  0  0  0  0
    7.7613  -17.8308   25.3249 C   0  0  0  0  0  0  0  0  0  0  0  0
    8.0655  -19.2334   25.7880 C   0  0  0  0  0  0  0  0  0  0  0  0
    8.0521  -19.2705   27.2907 C   0  0  0  0  0  0  0  0  0  0  0  0
    8.4457  -20.6338   27.7815 O   0  0  0  0  0  0  0  0  0  0  0  0
    9.4537  -20.7348   28.5206 C   0  0  0  0  0  0  0  0  0  0  0  0
    8.8516  -16.9389   25.8048 O   0  0  0  0  0  0  0  0  0  0  0  0
    9.9734  -16.8482   25.2655 O   0  0  0  0  0  0  0  0  0  0  0  0
    7.7101  -21.7477   27.4273 N   0  0  0  0  0  0  0  0  0  0  0  0
    8.5505  -16.1589   26.9540 C   0  0  2  0  0  0  0  0  0  0  0  0
    9.5411  -15.2307   27.5152 C   0  0  0  0  0  0  0  0  0  0  0  0
    8.7633  -14.0347   28.0199 C   0  0  0  0  0  0  0  0  0  0  0  0
    8.0127  -13.3202   26.9702 C   0  0  0  0  0  0  0  0  0  0  0  0
    8.6185  -12.8499   25.8277 C   0  0  0  0  0  0  0  0  0  0  0  0
    7.8990  -12.1869   24.8590 C   0  0  0  0  0  0  0  0  0  0  0  0
    6.5356  -11.9670   24.9986 C   0  0  0  0  0  0  0  0  0  0  0  0
    5.9381  -12.4394   26.1413 C   0  0  0  0  0  0  0  0  0  0  0  0
    6.6517  -13.1025   27.1117 C   0  0  0  0  0  0  0  0  0  0  0  0
   10.2728  -15.8316   28.6324 O   0  0  0  0  0  0  0  0  0  0  0  0
   11.1652  -15.1898   29.2175 O   0  0  0  0  0  0  0  0  0  0  0  0
  1  2  1  0
  2  3  2  0
  4  2  1  0
  5  4  1  0
  6  5  1  0
  7  6  1  0
  8  7  1  0
  8  9  1  1
 10  8  1  0
 11 10  2  0
 12 10  1  0
 13 12  1  0
 14 15  1  0
 13 14  1  6
 15 16  1  0
 16 17  2  0
 18 13  1  0
 18 21  1  0
 19 18  2  0
 20 16  1  0
 22 21  1  0
 22 30  1  0
 22 23  1  6
 23 24  1  0
 24 29  2  0
 24 25  1  0
 25 26  2  0
 27 26  1  0
 28 27  2  0
 29 28  1  0
 30 32  1  0
 31 30  2  0
M  END
$$$$
