REF.pdb
     RDKit          3D

 32 32  0  0  1  0  0  0  0  0999 V2000
    7.4437  -12.3884   15.0674 N   0  0  0  0  0  0  0  0  0  0  0  0
    7.7790  -13.6538   14.5125 C   0  0  0  0  0  0  0  0  0  0  0  0
    8.2321  -13.6907   13.3182 N   0  0  0  0  0  0  0  0  0  0  0  0
    7.6120  -14.8394   15.2691 N   0  0  0  0  0  0  0  0  0  0  0  0
    7.2284  -14.7723   16.6466 C   0  0  0  0  0  0  0  0  0  0  0  0
    8.3983  -14.5006   17.5735 C   0  0  0  0  0  0  0  0  0  0  0  0
    7.9711  -14.6744   19.0165 C   0  0  0  0  0  0  0  0  0  0  0  0
    9.1932  -14.5012   19.8958 C   0  0  2  0  0  0  0  0  0  0  0  0
   10.3446  -14.8747   19.1022 N   0  0  0  0  0  0  0  0  0  0  0  0
    9.0145  -15.4154   21.0682 C   0  0  0  0  0  0  0  0  0  0  0  0
    8.0360  -15.2989   21.8498 O   0  0  0  0  0  0  0  0  0  0  0  0
    8.5017  -14.5270   12.7816 N   0  0  0  0  0  0  0  0  0  0  0  0
    9.9355  -16.4708   21.3752 C   0  0  1  0  0  0  0  0  0  0  0  0
    9.7255  -17.3204   22.5194 C   0  0  0  0  0  0  0  0  0  0  0  0
   10.7197  -18.4535   22.4753 C   0  0  0  0  0  0  0  0  0  0  0  0
   10.4105  -19.4242   23.5807 C   0  0  0  0  0  0  0  0  0  0  0  0
   11.4078  -20.5467   23.5822 O   0  0  0  0  0  0  0  0  0  0  0  0
   12.0826  -20.7451   24.6204 C   0  0  0  0  0  0  0  0  0  0  0  0
    9.8844  -16.6164   23.8208 O   0  0  0  0  0  0  0  0  0  0  0  0
   10.7894  -15.7935   24.0684 O   0  0  0  0  0  0  0  0  0  0  0  0
   11.5727  -21.3416   22.4650 N   0  0  0  0  0  0  0  0  0  0  0  0
    8.9201  -16.9328   24.8158 C   0  0  1  0  0  0  0  0  0  0  0  0
    8.9633  -16.2928   26.1372 C   0  0  0  0  0  0  0  0  0  0  0  0
    7.5766  -15.7404   26.3864 C   0  0  0  0  0  0  0  0  0  0  0  0
    7.5120  -14.2669   26.4058 C   0  0  0  0  0  0  0  0  0  0  0  0
    8.0423  -13.5238   27.4355 C   0  0  0  0  0  0  0  0  0  0  0  0
    7.9730  -12.1488   27.4333 C   0  0  0  0  0  0  0  0  0  0  0  0
    7.3648  -11.4600   26.3929 C   0  0  0  0  0  0  0  0  0  0  0  0
    6.8381  -12.2083   25.3689 C   0  0  0  0  0  0  0  0  0  0  0  0
    6.9049  -13.5816   25.3658 C   0  0  0  0  0  0  0  0  0  0  0  0
    9.2921  -17.2534   27.1926 O   0  0  0  0  0  0  0  0  0  0  0  0
    9.2481  -18.4770   26.9654 O   0  0  0  0  0  0  0  0  0  0  0  0
  1  2  1  0
  2  3  2  0
  4  2  1  0
  5  4  1  0
  6  5  1  0
  7  6  1  0
  8  7  1  0
  8  9  1  6
 10  8  1  0
 11 10  2  0
 12 10  1  0
 13 12  1  0
 14 15  1  0
 13 14  1  1
 15 16  1  0
 16 17  2  0
 18 13  1  0
 18 21  1  0
 19 18  2  0
 20 16  1  0
 22 21  1  0
 22 30  1  0
 22 23  1  1
 23 24  1  0
 24 29  2  0
 24 25  1  0
 25 26  2  0
 27 26  1  0
 28 27  2  0
 29 28  1  0
 30 32  1  0
 31 30  2  0
M  END
$$$$
