REF.pdb
     RDKit          3D

 32 32  0  0  1  0  0  0  0  0999 V2000
    8.8099  -12.9970   17.2030 N   0  0  0  0  0  0  0  0  0  0  0  0
    8.5167  -13.2030   18.5790 C   0  0  0  0  0  0  0  0  0  0  0  0
    9.4927  -13.3053   19.3976 N   0  0  0  0  0  0  0  0  0  0  0  0
    7.1752  -13.2924   19.0243 N   0  0  0  0  0  0  0  0  0  0  0  0
    6.8837  -13.4899   20.4118 C   0  0  0  0  0  0  0  0  0  0  0  0
    6.4418  -14.9065   20.7274 C   0  0  0  0  0  0  0  0  0  0  0  0
    7.1977  -15.4323   21.9303 C   0  0  0  0  0  0  0  0  0  0  0  0
    7.8287  -16.7569   21.5504 C   0  0  2  0  0  0  0  0  0  0  0  0
    6.7480  -17.6819   21.2836 N   0  0  0  0  0  0  0  0  0  0  0  0
    8.6503  -17.1956   22.7229 C   0  0  0  0  0  0  0  0  0  0  0  0
    8.1347  -17.8001   23.6979 O   0  0  0  0  0  0  0  0  0  0  0  0
    9.4392  -13.5041   20.4063 N   0  0  0  0  0  0  0  0  0  0  0  0
   10.0616  -16.9580   22.8122 C   0  0  2  0  0  0  0  0  0  0  0  0
   10.8147  -17.4209   23.9497 C   0  0  0  0  0  0  0  0  0  0  0  0
   12.2755  -17.4748   23.5790 C   0  0  0  0  0  0  0  0  0  0  0  0
   13.0384  -18.1597   24.6785 C   0  0  0  0  0  0  0  0  0  0  0  0
   14.4899  -18.2746   24.3119 O   0  0  0  0  0  0  0  0  0  0  0  0
   14.7932  -18.8761   23.2542 C   0  0  0  0  0  0  0  0  0  0  0  0
   10.6742  -16.5526   25.1500 O   0  0  0  0  0  0  0  0  0  0  0  0
   10.9690  -15.3403   25.1785 O   0  0  0  0  0  0  0  0  0  0  0  0
   15.4648  -17.7265   25.1220 N   0  0  0  0  0  0  0  0  0  0  0  0
   10.1673  -17.1881   26.3159 C   0  0  1  0  0  0  0  0  0  0  0  0
   10.1777  -16.5003   27.6137 C   0  0  0  0  0  0  0  0  0  0  0  0
    8.7450  -16.1018   27.8940 C   0  0  0  0  0  0  0  0  0  0  0  0
    8.3216  -14.8645   27.2117 C   0  0  0  0  0  0  0  0  0  0  0  0
    8.7267  -13.6192   27.6345 C   0  0  0  0  0  0  0  0  0  0  0  0
    8.3212  -12.4767   26.9821 C   0  0  0  0  0  0  0  0  0  0  0  0
    7.4879  -12.5374   25.8737 C   0  0  0  0  0  0  0  0  0  0  0  0
    7.0880  -13.7836   25.4575 C   0  0  0  0  0  0  0  0  0  0  0  0
    7.4901  -14.9279   26.1051 C   0  0  0  0  0  0  0  0  0  0  0  0
   10.6487  -17.3783   28.6871 O   0  0  0  0  0  0  0  0  0  0  0  0
   10.9360  -18.5660   28.4477 O   0  0  0  0  0  0  0  0  0  0  0  0
  1  2  1  0
  2  3  2  0
  4  2  1  0
  5  4  1  0
  6  5  1  0
  7  6  1  0
  8  7  1  0
  8  9  1  1
 10  8  1  0
 11 10  2  0
 12 10  1  0
 13 12  1  0
 14 15  1  0
 13 14  1  6
 15 16  1  0
 16 17  2  0
 18 13  1  0
 18 21  1  0
 19 18  2  0
 20 16  1  0
 22 21  1  0
 22 30  1  0
 22 23  1  1
 23 24  1  0
 24 29  2  0
 24 25  1  0
 25 26  2  0
 27 26  1  0
 28 27  2  0
 29 28  1  0
 30 32  1  0
 31 30  2  0
M  END
$$$$
