YHA.pdb
     RDKit          3D

 28 29  0  0  1  0  0  0  0  0999 V2000
    5.8784  -11.9163   19.3647 O   0  0  0  0  0  0  0  0  0  0  0  0
    7.1062  -12.5760   19.4700 C   0  0  0  0  0  0  0  0  0  0  0  0
    7.1789  -13.8729   19.9141 C   0  0  0  0  0  0  0  0  0  0  0  0
    8.4005  -14.5361   20.0211 C   0  0  0  0  0  0  0  0  0  0  0  0
    9.5828  -13.9086   19.6829 C   0  0  0  0  0  0  0  0  0  0  0  0
   10.9045  -14.6015   19.7939 C   0  0  0  0  0  0  0  0  0  0  0  0
   11.5144  -14.7757   18.3965 C   0  0  2  0  0  0  0  0  0  0  0  0
   10.5874  -15.6543   17.6679 N   0  0  0  0  0  0  0  0  0  0  0  0
   12.7858  -15.4865   18.5462 C   0  0  0  0  0  0  0  0  0  0  0  0
   12.8345  -16.7517   18.5042 O   0  0  0  0  0  0  0  0  0  0  0  0
    9.4924  -12.6068   19.2389 C   0  0  0  0  0  0  0  0  0  0  0  0
    8.2861  -11.9439   19.1304 C   0  0  0  0  0  0  0  0  0  0  0  0
   14.0042  -14.7386   18.7440 N   0  0  0  0  0  0  0  0  0  0  0  0
   15.2742  -15.4121   18.8968 C   0  0  1  0  0  0  0  0  0  0  0  0
   16.4285  -14.5068   18.4897 C   0  0  0  0  0  0  0  0  0  0  0  0
   16.6177  -14.4858   17.0163 C   0  0  0  0  0  0  0  0  0  0  0  0
   16.3372  -13.4666   16.1300 C   0  0  0  0  0  0  0  0  0  0  0  0
   16.6543  -13.8472   14.8734 N   0  0  0  0  0  0  0  0  0  0  0  0
   17.1329  -15.1045   14.9754 C   0  0  0  0  0  0  0  0  0  0  0  0
   17.1108  -15.4853   16.2547 N   0  0  0  0  0  0  0  0  0  0  0  0
   15.5097  -15.8825   20.2869 C   0  0  0  0  0  0  0  0  0  0  0  0
   15.5585  -15.0794   21.2606 O   0  0  0  0  0  0  0  0  0  0  0  0
   15.6304  -19.1986   22.1345 C   0  0  0  0  0  0  0  0  0  0  0  0
   15.8456  -17.7045   22.0005 C   0  0  2  0  0  0  0  0  0  0  0  0
   15.6967  -17.2608   20.6336 N   0  0  0  0  0  0  0  0  0  0  0  0
   17.0981  -17.2696   22.6392 C   0  0  0  0  0  0  0  0  0  0  0  0
   17.1867  -17.1794   24.0170 O   0  0  0  0  0  0  0  0  0  0  0  0
   18.1096  -16.9713   21.9634 O   0  0  0  0  0  0  0  0  0  0  0  0
  2  3  2  0
  2  1  1  0
  4  3  1  0
  5  4  2  0
  6  5  1  0
  7  9  1  0
  7  6  1  0
  7  8  1  6
  9 10  2  0
 11  5  1  0
 11 12  2  0
 12  2  1  0
 13 14  1  0
 13  9  1  0
 14 15  1  1
 15 16  1  0
 16 17  2  0
 18 17  1  0
 19 18  1  0
 20 19  2  0
 20 16  1  0
 21 14  1  0
 22 21  2  0
 24 23  1  6
 24 25  1  0
 25 21  1  0
 26 24  1  0
 26 27  1  0
 28 26  2  0
M  END
$$$$
