YHA.pdb
     RDKit          3D

 28 29  0  0  1  0  0  0  0  0999 V2000
   11.5600  -14.7504   28.5252 O   0  0  0  0  0  0  0  0  0  0  0  0
   10.3078  -14.9273   27.9302 C   0  0  0  0  0  0  0  0  0  0  0  0
    9.6824  -16.1493   27.9431 C   0  0  0  0  0  0  0  0  0  0  0  0
    8.4334  -16.3318   27.3513 C   0  0  0  0  0  0  0  0  0  0  0  0
    7.7808  -15.2859   26.7298 C   0  0  0  0  0  0  0  0  0  0  0  0
    6.4415  -15.4617   26.0857 C   0  0  0  0  0  0  0  0  0  0  0  0
    6.3957  -16.8081   25.3507 C   0  0  2  0  0  0  0  0  0  0  0  0
    7.1397  -17.7482   26.2021 N   0  0  0  0  0  0  0  0  0  0  0  0
    7.1313  -16.6592   24.0934 C   0  0  0  0  0  0  0  0  0  0  0  0
    7.8722  -17.5896   23.6571 O   0  0  0  0  0  0  0  0  0  0  0  0
    8.4222  -14.0659   26.7255 C   0  0  0  0  0  0  0  0  0  0  0  0
    9.6591  -13.8779   27.3097 C   0  0  0  0  0  0  0  0  0  0  0  0
    7.0128  -15.4363   23.3361 N   0  0  0  0  0  0  0  0  0  0  0  0
    7.6269  -15.3050   22.0340 C   0  0  1  0  0  0  0  0  0  0  0  0
    7.2158  -14.0025   21.3616 C   0  0  0  0  0  0  0  0  0  0  0  0
    7.7743  -13.8919   19.9893 C   0  0  0  0  0  0  0  0  0  0  0  0
    8.5933  -12.9092   19.4733 C   0  0  0  0  0  0  0  0  0  0  0  0
    8.8782  -13.1774   18.1805 N   0  0  0  0  0  0  0  0  0  0  0  0
    8.2366  -14.3281   17.8895 C   0  0  0  0  0  0  0  0  0  0  0  0
    7.5778  -14.7543   18.9696 N   0  0  0  0  0  0  0  0  0  0  0  0
    9.1112  -15.3589   22.0925 C   0  0  0  0  0  0  0  0  0  0  0  0
    9.8201  -15.2815   21.0500 O   0  0  0  0  0  0  0  0  0  0  0  0
   11.8138  -14.7711   24.5868 C   0  0  0  0  0  0  0  0  0  0  0  0
   11.2934  -15.4824   23.3541 C   0  0  2  0  0  0  0  0  0  0  0  0
    9.8492  -15.4996   23.3132 N   0  0  0  0  0  0  0  0  0  0  0  0
   11.9140  -16.8053   23.1791 C   0  0  0  0  0  0  0  0  0  0  0  0
   11.1269  -17.9322   23.0201 O   0  0  0  0  0  0  0  0  0  0  0  0
   13.1580  -16.9499   23.1690 O   0  0  0  0  0  0  0  0  0  0  0  0
  2  3  2  0
  2  1  1  0
  4  3  1  0
  5  4  2  0
  6  5  1  0
  7  9  1  0
  7  6  1  0
  7  8  1  1
  9 10  2  0
 11  5  1  0
 11 12  2  0
 12  2  1  0
 13 14  1  0
 13  9  1  0
 14 15  1  1
 15 16  1  0
 16 17  2  0
 18 17  1  0
 19 18  1  0
 20 19  2  0
 20 16  1  0
 21 14  1  0
 22 21  2  0
 24 23  1  1
 24 25  1  0
 25 21  1  0
 26 24  1  0
 26 27  1  0
 28 26  2  0
M  END
$$$$
