YHA.pdb
     RDKit          3D

 28 29  0  0  1  0  0  0  0  0999 V2000
    5.2324  -10.7869   26.5309 O   0  0  0  0  0  0  0  0  0  0  0  0
    6.0290  -11.8948   26.2283 C   0  0  0  0  0  0  0  0  0  0  0  0
    5.9885  -13.0296   26.9996 C   0  0  0  0  0  0  0  0  0  0  0  0
    6.7807  -14.1378   26.7027 C   0  0  0  0  0  0  0  0  0  0  0  0
    7.6359  -14.1312   25.6189 C   0  0  0  0  0  0  0  0  0  0  0  0
    8.4970  -15.3087   25.2853 C   0  0  0  0  0  0  0  0  0  0  0  0
    7.9996  -15.9601   23.9878 C   0  0  2  0  0  0  0  0  0  0  0  0
    6.7771  -16.6897   24.3559 N   0  0  0  0  0  0  0  0  0  0  0  0
    9.0005  -16.9418   23.5651 C   0  0  0  0  0  0  0  0  0  0  0  0
    9.0211  -18.1072   24.0613 O   0  0  0  0  0  0  0  0  0  0  0  0
    7.6647  -12.9843   24.8549 C   0  0  0  0  0  0  0  0  0  0  0  0
    6.8829  -11.8833   25.1430 C   0  0  0  0  0  0  0  0  0  0  0  0
    9.9796  -16.5808   22.5681 N   0  0  0  0  0  0  0  0  0  0  0  0
   11.0136  -17.5094   22.1702 C   0  0  1  0  0  0  0  0  0  0  0  0
   11.6282  -17.1086   20.8363 C   0  0  0  0  0  0  0  0  0  0  0  0
   10.6648  -17.2687   19.7167 C   0  0  0  0  0  0  0  0  0  0  0  0
    9.7578  -18.2861   19.5045 C   0  0  0  0  0  0  0  0  0  0  0  0
    9.0660  -18.0582   18.3670 N   0  0  0  0  0  0  0  0  0  0  0  0
    9.5416  -16.8979   17.8689 C   0  0  0  0  0  0  0  0  0  0  0  0
   10.4959  -16.4270   18.6749 N   0  0  0  0  0  0  0  0  0  0  0  0
   12.1011  -17.6220   23.1771 C   0  0  0  0  0  0  0  0  0  0  0  0
   12.7767  -16.6185   23.5400 O   0  0  0  0  0  0  0  0  0  0  0  0
   12.6359  -17.9904   26.0983 C   0  0  0  0  0  0  0  0  0  0  0  0
   13.2239  -18.9019   25.0400 C   0  0  2  0  0  0  0  0  0  0  0  0
   12.4673  -18.8550   23.8100 N   0  0  0  0  0  0  0  0  0  0  0  0
   13.4531  -20.2626   25.5515 C   0  0  0  0  0  0  0  0  0  0  0  0
   14.2618  -20.4685   26.6552 O   0  0  0  0  0  0  0  0  0  0  0  0
   12.9299  -21.2635   25.0101 O   0  0  0  0  0  0  0  0  0  0  0  0
  2  3  2  0
  2  1  1  0
  4  3  1  0
  5  4  2  0
  6  5  1  0
  7  9  1  0
  7  6  1  0
  7  8  1  1
  9 10  2  0
 11  5  1  0
 11 12  2  0
 12  2  1  0
 13 14  1  0
 13  9  1  0
 14 15  1  6
 15 16  1  0
 16 17  2  0
 18 17  1  0
 19 18  1  0
 20 19  2  0
 20 16  1  0
 21 14  1  0
 22 21  2  0
 24 23  1  1
 24 25  1  0
 25 21  1  0
 26 24  1  0
 26 27  1  0
 28 26  2  0
M  END
$$$$
