YHA.pdb
     RDKit          3D

 28 29  0  0  1  0  0  0  0  0999 V2000
    8.1161  -13.4164   15.6502 O   0  0  0  0  0  0  0  0  0  0  0  0
    7.8599  -13.6950   16.9957 C   0  0  0  0  0  0  0  0  0  0  0  0
    8.2126  -12.8091   17.9832 C   0  0  0  0  0  0  0  0  0  0  0  0
    7.9597  -13.0814   19.3269 C   0  0  0  0  0  0  0  0  0  0  0  0
    7.3438  -14.2557   19.7113 C   0  0  0  0  0  0  0  0  0  0  0  0
    7.0667  -14.5685   21.1482 C   0  0  0  0  0  0  0  0  0  0  0  0
    8.3910  -14.6924   21.9136 C   0  0  2  0  0  0  0  0  0  0  0  0
    9.1492  -15.7460   21.2227 N   0  0  0  0  0  0  0  0  0  0  0  0
    8.0866  -15.1681   23.2646 C   0  0  0  0  0  0  0  0  0  0  0  0
    7.2847  -14.5351   24.0137 O   0  0  0  0  0  0  0  0  0  0  0  0
    6.9963  -15.1343   18.7077 C   0  0  0  0  0  0  0  0  0  0  0  0
    7.2436  -14.8712   17.3750 C   0  0  0  0  0  0  0  0  0  0  0  0
    8.7066  -16.3761   23.7539 N   0  0  0  0  0  0  0  0  0  0  0  0
    8.4926  -16.8250   25.1113 C   0  0  1  0  0  0  0  0  0  0  0  0
    8.6727  -18.3323   25.2262 C   0  0  0  0  0  0  0  0  0  0  0  0
    7.6397  -19.0699   24.4541 C   0  0  0  0  0  0  0  0  0  0  0  0
    6.2825  -19.1435   24.6898 C   0  0  0  0  0  0  0  0  0  0  0  0
    5.6929  -19.9193   23.7544 N   0  0  0  0  0  0  0  0  0  0  0  0
    6.6825  -20.3302   22.9346 C   0  0  0  0  0  0  0  0  0  0  0  0
    7.8445  -19.8229   23.3527 N   0  0  0  0  0  0  0  0  0  0  0  0
    9.4027  -16.1646   26.0834 C   0  0  0  0  0  0  0  0  0  0  0  0
   10.6536  -16.3349   26.0435 O   0  0  0  0  0  0  0  0  0  0  0  0
    9.3855  -13.3456   28.5490 C   0  0  0  0  0  0  0  0  0  0  0  0
    9.8410  -14.7217   28.1070 C   0  0  2  0  0  0  0  0  0  0  0  0
    8.9467  -15.2948   27.1275 N   0  0  0  0  0  0  0  0  0  0  0  0
   10.1204  -15.6029   29.2521 C   0  0  0  0  0  0  0  0  0  0  0  0
   11.1480  -15.3057   30.1297 O   0  0  0  0  0  0  0  0  0  0  0  0
    9.4451  -16.6361   29.4645 O   0  0  0  0  0  0  0  0  0  0  0  0
  2  3  2  0
  2  1  1  0
  4  3  1  0
  5  4  2  0
  6  5  1  0
  7  9  1  0
  7  6  1  0
  7  8  1  6
  9 10  2  0
 11  5  1  0
 11 12  2  0
 12  2  1  0
 13 14  1  0
 13  9  1  0
 14 15  1  6
 15 16  1  0
 16 17  2  0
 18 17  1  0
 19 18  1  0
 20 19  2  0
 20 16  1  0
 21 14  1  0
 22 21  2  0
 24 23  1  1
 24 25  1  0
 25 21  1  0
 26 24  1  0
 26 27  1  0
 28 26  2  0
M  END
$$$$
