YHA.pdb
     RDKit          3D

 28 29  0  0  1  0  0  0  0  0999 V2000
    8.0888  -11.2390   27.4750 O   0  0  0  0  0  0  0  0  0  0  0  0
    7.7308  -12.4975   26.9835 C   0  0  0  0  0  0  0  0  0  0  0  0
    8.6371  -13.2818   26.3141 C   0  0  0  0  0  0  0  0  0  0  0  0
    8.2858  -14.5378   25.8215 C   0  0  0  0  0  0  0  0  0  0  0  0
    7.0100  -15.0373   25.9910 C   0  0  0  0  0  0  0  0  0  0  0  0
    6.6119  -16.3813   25.4670 C   0  0  0  0  0  0  0  0  0  0  0  0
    6.2557  -16.2696   23.9785 C   0  0  2  0  0  0  0  0  0  0  0  0
    5.3680  -17.4080   23.6986 N   0  0  0  0  0  0  0  0  0  0  0  0
    7.4859  -16.4566   23.2066 C   0  0  0  0  0  0  0  0  0  0  0  0
    7.9538  -17.6148   22.9956 O   0  0  0  0  0  0  0  0  0  0  0  0
    6.1123  -14.2375   26.6651 C   0  0  0  0  0  0  0  0  0  0  0  0
    6.4531  -12.9926   27.1556 C   0  0  0  0  0  0  0  0  0  0  0  0
    8.1785  -15.3071   22.6756 N   0  0  0  0  0  0  0  0  0  0  0  0
    9.3772  -15.4616   21.8824 C   0  0  1  0  0  0  0  0  0  0  0  0
    9.6222  -14.2361   21.0130 C   0  0  0  0  0  0  0  0  0  0  0  0
    8.7103  -14.2024   19.8405 C   0  0  0  0  0  0  0  0  0  0  0  0
    7.7382  -13.2721   19.5366 C   0  0  0  0  0  0  0  0  0  0  0  0
    7.1280  -13.6037   18.3780 N   0  0  0  0  0  0  0  0  0  0  0  0
    7.7196  -14.7415   17.9587 C   0  0  0  0  0  0  0  0  0  0  0  0
    8.6641  -15.0985   18.8320 N   0  0  0  0  0  0  0  0  0  0  0  0
   10.5865  -15.7020   22.7124 C   0  0  0  0  0  0  0  0  0  0  0  0
   11.0318  -14.8265   23.5066 O   0  0  0  0  0  0  0  0  0  0  0  0
   12.7554  -18.6458   23.6981 C   0  0  0  0  0  0  0  0  0  0  0  0
   12.4618  -17.1661   23.5541 C   0  0  2  0  0  0  0  0  0  0  0  0
   11.3347  -16.9243   22.6831 N   0  0  0  0  0  0  0  0  0  0  0  0
   13.6668  -16.3977   23.2030 C   0  0  0  0  0  0  0  0  0  0  0  0
   13.8654  -15.9619   21.9048 O   0  0  0  0  0  0  0  0  0  0  0  0
   14.5386  -16.1183   24.0577 O   0  0  0  0  0  0  0  0  0  0  0  0
  2  3  2  0
  2  1  1  0
  4  3  1  0
  5  4  2  0
  6  5  1  0
  7  9  1  0
  7  6  1  0
  7  8  1  6
  9 10  2  0
 11  5  1  0
 11 12  2  0
 12  2  1  0
 13 14  1  0
 13  9  1  0
 14 15  1  1
 15 16  1  0
 16 17  2  0
 18 17  1  0
 19 18  1  0
 20 19  2  0
 20 16  1  0
 21 14  1  0
 22 21  2  0
 24 23  1  6
 24 25  1  0
 25 21  1  0
 26 24  1  0
 26 27  1  0
 28 26  2  0
M  END
$$$$
