YHA.pdb
     RDKit          3D

 28 29  0  0  1  0  0  0  0  0999 V2000
    6.0217  -10.6331   28.6270 O   0  0  0  0  0  0  0  0  0  0  0  0
    6.4902  -11.6991   27.8539 C   0  0  0  0  0  0  0  0  0  0  0  0
    5.8319  -12.0930   26.7155 C   0  0  0  0  0  0  0  0  0  0  0  0
    6.2944  -13.1555   25.9403 C   0  0  0  0  0  0  0  0  0  0  0  0
    7.4343  -13.8501   26.2927 C   0  0  0  0  0  0  0  0  0  0  0  0
    7.9453  -14.9954   25.4765 C   0  0  0  0  0  0  0  0  0  0  0  0
    6.7763  -15.6704   24.7465 C   0  0  2  0  0  0  0  0  0  0  0  0
    6.5776  -16.9591   25.4264 N   0  0  0  0  0  0  0  0  0  0  0  0
    7.2029  -15.9462   23.3732 C   0  0  0  0  0  0  0  0  0  0  0  0
    7.6066  -17.0983   23.0345 O   0  0  0  0  0  0  0  0  0  0  0  0
    8.0833  -13.4421   27.4383 C   0  0  0  0  0  0  0  0  0  0  0  0
    7.6310  -12.3908   28.2107 C   0  0  0  0  0  0  0  0  0  0  0  0
    7.1636  -14.8930   22.3871 N   0  0  0  0  0  0  0  0  0  0  0  0
    7.6651  -15.1081   21.0484 C   0  0  1  0  0  0  0  0  0  0  0  0
    7.3828  -13.9070   20.1566 C   0  0  0  0  0  0  0  0  0  0  0  0
    7.8853  -14.1183   18.7745 C   0  0  0  0  0  0  0  0  0  0  0  0
    8.6839  -13.2878   18.0159 C   0  0  0  0  0  0  0  0  0  0  0  0
    8.9157  -13.8468   16.8083 N   0  0  0  0  0  0  0  0  0  0  0  0
    8.2614  -15.0268   16.8132 C   0  0  0  0  0  0  0  0  0  0  0  0
    7.6465  -15.1884   17.9870 N   0  0  0  0  0  0  0  0  0  0  0  0
    9.1252  -15.3846   21.0210 C   0  0  0  0  0  0  0  0  0  0  0  0
    9.9631  -14.5796   21.5164 O   0  0  0  0  0  0  0  0  0  0  0  0
   11.4528  -18.2029   20.9342 C   0  0  0  0  0  0  0  0  0  0  0  0
   11.1182  -16.8146   20.4273 C   0  0  2  0  0  0  0  0  0  0  0  0
    9.6950  -16.5658   20.4422 N   0  0  0  0  0  0  0  0  0  0  0  0
   11.7631  -16.5303   19.1354 C   0  0  0  0  0  0  0  0  0  0  0  0
   11.0158  -16.5019   17.9712 O   0  0  0  0  0  0  0  0  0  0  0  0
   12.9928  -16.3082   19.0512 O   0  0  0  0  0  0  0  0  0  0  0  0
  2  3  2  0
  2  1  1  0
  4  3  1  0
  5  4  2  0
  6  5  1  0
  7  9  1  0
  7  6  1  0
  7  8  1  1
  9 10  2  0
 11  5  1  0
 11 12  2  0
 12  2  1  0
 13 14  1  0
 13  9  1  0
 14 15  1  6
 15 16  1  0
 16 17  2  0
 18 17  1  0
 19 18  1  0
 20 19  2  0
 20 16  1  0
 21 14  1  0
 22 21  2  0
 24 23  1  6
 24 25  1  0
 25 21  1  0
 26 24  1  0
 26 27  1  0
 28 26  2  0
M  END
$$$$
