YHA.pdb
     RDKit          3D

 28 29  0  0  1  0  0  0  0  0999 V2000
    8.1242  -12.5254   16.3396 O   0  0  0  0  0  0  0  0  0  0  0  0
    8.0782  -13.0512   17.6338 C   0  0  0  0  0  0  0  0  0  0  0  0
    8.5936  -14.2923   17.9140 C   0  0  0  0  0  0  0  0  0  0  0  0
    8.5506  -14.8220   19.2029 C   0  0  0  0  0  0  0  0  0  0  0  0
    7.9863  -14.1137   20.2449 C   0  0  0  0  0  0  0  0  0  0  0  0
    7.9271  -14.6657   21.6345 C   0  0  0  0  0  0  0  0  0  0  0  0
    8.3167  -16.1499   21.6168 C   0  0  2  0  0  0  0  0  0  0  0  0
    7.1597  -16.8550   21.0453 N   0  0  0  0  0  0  0  0  0  0  0  0
    8.4729  -16.5904   23.0045 C   0  0  0  0  0  0  0  0  0  0  0  0
    7.4664  -16.7355   23.7598 O   0  0  0  0  0  0  0  0  0  0  0  0
    7.4734  -12.8695   19.9467 C   0  0  0  0  0  0  0  0  0  0  0  0
    7.5125  -12.3386   18.6727 C   0  0  0  0  0  0  0  0  0  0  0  0
    9.7914  -16.8653   23.5233 N   0  0  0  0  0  0  0  0  0  0  0  0
    9.9776  -17.3000   24.8894 C   0  0  1  0  0  0  0  0  0  0  0  0
   11.0267  -18.3997   24.9777 C   0  0  0  0  0  0  0  0  0  0  0  0
   10.5314  -19.6791   24.4076 C   0  0  0  0  0  0  0  0  0  0  0  0
    9.4920  -20.4703   24.8510 C   0  0  0  0  0  0  0  0  0  0  0  0
    9.3633  -21.5530   24.0538 N   0  0  0  0  0  0  0  0  0  0  0  0
   10.3230  -21.4376   23.1124 C   0  0  0  0  0  0  0  0  0  0  0  0
   11.0200  -20.3189   23.3240 N   0  0  0  0  0  0  0  0  0  0  0  0
   10.3780  -16.1908   25.7942 C   0  0  0  0  0  0  0  0  0  0  0  0
   11.4335  -15.5244   25.6012 O   0  0  0  0  0  0  0  0  0  0  0  0
    9.0680  -13.6547   28.0126 C   0  0  0  0  0  0  0  0  0  0  0  0
   10.0729  -14.7792   27.8638 C   0  0  2  0  0  0  0  0  0  0  0  0
    9.6145  -15.7906   26.9394 N   0  0  0  0  0  0  0  0  0  0  0  0
   10.5028  -15.3091   29.1677 C   0  0  0  0  0  0  0  0  0  0  0  0
   11.1381  -14.4877   30.0821 O   0  0  0  0  0  0  0  0  0  0  0  0
   10.3093  -16.5050   29.4856 O   0  0  0  0  0  0  0  0  0  0  0  0
  2  3  2  0
  2  1  1  0
  4  3  1  0
  5  4  2  0
  6  5  1  0
  7  9  1  0
  7  6  1  0
  7  8  1  1
  9 10  2  0
 11  5  1  0
 11 12  2  0
 12  2  1  0
 13 14  1  0
 13  9  1  0
 14 15  1  6
 15 16  1  0
 16 17  2  0
 18 17  1  0
 19 18  1  0
 20 19  2  0
 20 16  1  0
 21 14  1  0
 22 21  2  0
 24 23  1  1
 24 25  1  0
 25 21  1  0
 26 24  1  0
 26 27  1  0
 28 26  2  0
M  END
$$$$
