YHA.pdb
     RDKit          3D

 28 29  0  0  1  0  0  0  0  0999 V2000
    8.0119  -12.3012   23.1739 O   0  0  0  0  0  0  0  0  0  0  0  0
    8.0939  -12.9765   21.9529 C   0  0  0  0  0  0  0  0  0  0  0  0
    8.3025  -12.2965   20.7788 C   0  0  0  0  0  0  0  0  0  0  0  0
    8.3853  -12.9644   19.5579 C   0  0  0  0  0  0  0  0  0  0  0  0
    8.2598  -14.3376   19.4881 C   0  0  0  0  0  0  0  0  0  0  0  0
    8.3420  -15.0731   18.1875 C   0  0  0  0  0  0  0  0  0  0  0  0
    8.9177  -16.4758   18.4239 C   0  0  2  0  0  0  0  0  0  0  0  0
    9.6160  -16.4033   19.7160 N   0  0  0  0  0  0  0  0  0  0  0  0
    9.9171  -16.7326   17.3850 C   0  0  0  0  0  0  0  0  0  0  0  0
    9.5834  -16.8184   16.1660 O   0  0  0  0  0  0  0  0  0  0  0  0
    8.0507  -15.0052   20.6758 C   0  0  0  0  0  0  0  0  0  0  0  0
    7.9677  -14.3502   21.8884 C   0  0  0  0  0  0  0  0  0  0  0  0
   11.3044  -16.8903   17.7507 N   0  0  0  0  0  0  0  0  0  0  0  0
   12.3266  -17.0488   16.7409 C   0  0  1  0  0  0  0  0  0  0  0  0
   12.3335  -15.8709   15.7766 C   0  0  0  0  0  0  0  0  0  0  0  0
   11.6588  -16.2048   14.4957 C   0  0  0  0  0  0  0  0  0  0  0  0
   10.4940  -15.6783   13.9772 C   0  0  0  0  0  0  0  0  0  0  0  0
   10.2188  -16.2512   12.7853 N   0  0  0  0  0  0  0  0  0  0  0  0
   11.2123  -17.1358   12.5599 C   0  0  0  0  0  0  0  0  0  0  0  0
   12.0716  -17.1077   13.5812 N   0  0  0  0  0  0  0  0  0  0  0  0
   13.6875  -17.1930   17.3209 C   0  0  0  0  0  0  0  0  0  0  0  0
   13.8699  -17.3154   18.5647 O   0  0  0  0  0  0  0  0  0  0  0  0
   16.2518  -18.6265   17.9911 C   0  0  0  0  0  0  0  0  0  0  0  0
   16.1948  -17.3924   17.1135 C   0  0  2  0  0  0  0  0  0  0  0  0
   14.8849  -17.2062   16.5329 N   0  0  0  0  0  0  0  0  0  0  0  0
   17.2941  -17.3614   16.1355 C   0  0  0  0  0  0  0  0  0  0  0  0
   18.5045  -16.7755   16.4614 O   0  0  0  0  0  0  0  0  0  0  0  0
   17.1692  -17.8581   14.9926 O   0  0  0  0  0  0  0  0  0  0  0  0
  2  3  2  0
  2  1  1  0
  4  3  1  0
  5  4  2  0
  6  5  1  0
  7  9  1  0
  7  6  1  0
  7  8  1  1
  9 10  2  0
 11  5  1  0
 11 12  2  0
 12  2  1  0
 13 14  1  0
 13  9  1  0
 14 15  1  6
 15 16  1  0
 16 17  2  0
 18 17  1  0
 19 18  1  0
 20 19  2  0
 20 16  1  0
 21 14  1  0
 22 21  2  0
 24 23  1  6
 24 25  1  0
 25 21  1  0
 26 24  1  0
 26 27  1  0
 28 26  2  0
M  END
$$$$
