YHA.pdb
     RDKit          3D

 28 29  0  0  1  0  0  0  0  0999 V2000
    5.4900  -27.0306   18.6070 O   0  0  0  0  0  0  0  0  0  0  0  0
    6.7577  -26.4864   18.8312 C   0  0  0  0  0  0  0  0  0  0  0  0
    7.7729  -27.2459   19.3575 C   0  0  0  0  0  0  0  0  0  0  0  0
    9.0394  -26.7086   19.5833 C   0  0  0  0  0  0  0  0  0  0  0  0
    9.3164  -25.3896   19.2841 C   0  0  0  0  0  0  0  0  0  0  0  0
   10.6679  -24.7929   19.5222 C   0  0  0  0  0  0  0  0  0  0  0  0
   11.3447  -24.4961   18.1772 C   0  0  2  0  0  0  0  0  0  0  0  0
   11.6831  -25.8088   17.6074 N   0  0  0  0  0  0  0  0  0  0  0  0
   12.5963  -23.7869   18.4505 C   0  0  0  0  0  0  0  0  0  0  0  0
   13.6641  -24.4211   18.7001 O   0  0  0  0  0  0  0  0  0  0  0  0
    8.2864  -24.6408   18.7566 C   0  0  0  0  0  0  0  0  0  0  0  0
    7.0298  -25.1663   18.5303 C   0  0  0  0  0  0  0  0  0  0  0  0
   12.6185  -22.3439   18.4354 N   0  0  0  0  0  0  0  0  0  0  0  0
   13.8406  -21.6158   18.6923 C   0  0  1  0  0  0  0  0  0  0  0  0
   14.0164  -20.4714   17.7038 C   0  0  0  0  0  0  0  0  0  0  0  0
   14.3180  -20.9674   16.3363 C   0  0  0  0  0  0  0  0  0  0  0  0
   15.4369  -21.6440   15.8967 C   0  0  0  0  0  0  0  0  0  0  0  0
   15.3232  -21.9171   14.5787 N   0  0  0  0  0  0  0  0  0  0  0  0
   14.1328  -21.4107   14.1956 C   0  0  0  0  0  0  0  0  0  0  0  0
   13.5331  -20.8439   15.2450 N   0  0  0  0  0  0  0  0  0  0  0  0
   13.8995  -21.0632   20.0708 C   0  0  0  0  0  0  0  0  0  0  0  0
   13.3558  -19.9628   20.3690 O   0  0  0  0  0  0  0  0  0  0  0  0
   13.8044  -22.1359   23.4515 C   0  0  0  0  0  0  0  0  0  0  0  0
   14.5398  -21.2059   22.5078 C   0  0  2  0  0  0  0  0  0  0  0  0
   14.5644  -21.7200   21.1577 N   0  0  0  0  0  0  0  0  0  0  0  0
   15.8627  -20.8264   23.0291 C   0  0  0  0  0  0  0  0  0  0  0  0
   15.9787  -19.8398   23.9923 O   0  0  0  0  0  0  0  0  0  0  0  0
   16.9108  -21.3779   22.6219 O   0  0  0  0  0  0  0  0  0  0  0  0
  2  3  2  0
  2  1  1  0
  4  3  1  0
  5  4  2  0
  6  5  1  0
  7  9  1  0
  7  6  1  0
  7  8  1  1
  9 10  2  0
 11  5  1  0
 11 12  2  0
 12  2  1  0
 13 14  1  0
 13  9  1  0
 14 15  1  6
 15 16  1  0
 16 17  2  0
 18 17  1  0
 19 18  1  0
 20 19  2  0
 20 16  1  0
 21 14  1  0
 22 21  2  0
 24 23  1  1
 24 25  1  0
 25 21  1  0
 26 24  1  0
 26 27  1  0
 28 26  2  0
M  END
$$$$
