YHA.pdb
     RDKit          3D

 28 29  0  0  1  0  0  0  0  0999 V2000
    8.4716  -13.5561   22.9743 O   0  0  0  0  0  0  0  0  0  0  0  0
    8.4720  -13.7704   21.5931 C   0  0  0  0  0  0  0  0  0  0  0  0
    8.5366  -15.0388   21.0720 C   0  0  0  0  0  0  0  0  0  0  0  0
    8.5374  -15.2588   19.6953 C   0  0  0  0  0  0  0  0  0  0  0  0
    8.4730  -14.2046   18.8062 C   0  0  0  0  0  0  0  0  0  0  0  0
    8.4762  -14.4191   17.3252 C   0  0  0  0  0  0  0  0  0  0  0  0
    9.8849  -14.1679   16.7709 C   0  0  2  0  0  0  0  0  0  0  0  0
    9.8518  -14.6419   15.3793 N   0  0  0  0  0  0  0  0  0  0  0  0
   10.8185  -15.0164   17.5143 C   0  0  0  0  0  0  0  0  0  0  0  0
   10.8774  -16.2638   17.3011 O   0  0  0  0  0  0  0  0  0  0  0  0
    8.4087  -12.9377   19.3456 C   0  0  0  0  0  0  0  0  0  0  0  0
    8.4075  -12.7124   20.7079 C   0  0  0  0  0  0  0  0  0  0  0  0
   11.6870  -14.4269   18.5049 N   0  0  0  0  0  0  0  0  0  0  0  0
   12.6032  -15.2419   19.2706 C   0  0  1  0  0  0  0  0  0  0  0  0
   14.0268  -14.7123   19.1678 C   0  0  0  0  0  0  0  0  0  0  0  0
   14.6727  -15.1157   17.8921 C   0  0  0  0  0  0  0  0  0  0  0  0
   15.1534  -14.3091   16.8816 C   0  0  0  0  0  0  0  0  0  0  0  0
   15.6676  -15.0684   15.8898 N   0  0  0  0  0  0  0  0  0  0  0  0
   15.5077  -16.3496   16.2816 C   0  0  0  0  0  0  0  0  0  0  0  0
   14.9138  -16.3773   17.4769 N   0  0  0  0  0  0  0  0  0  0  0  0
   12.2323  -15.3252   20.7075 C   0  0  0  0  0  0  0  0  0  0  0  0
   12.3692  -14.3408   21.4870 O   0  0  0  0  0  0  0  0  0  0  0  0
   10.3769  -17.6681   23.0269 C   0  0  0  0  0  0  0  0  0  0  0  0
   11.3893  -16.5808   22.7279 C   0  0  2  0  0  0  0  0  0  0  0  0
   11.6973  -16.5066   21.3182 N   0  0  0  0  0  0  0  0  0  0  0  0
   12.5735  -16.6777   23.5962 C   0  0  0  0  0  0  0  0  0  0  0  0
   12.4521  -16.5206   24.9655 O   0  0  0  0  0  0  0  0  0  0  0  0
   13.7132  -16.9024   23.1281 O   0  0  0  0  0  0  0  0  0  0  0  0
  2  3  2  0
  2  1  1  0
  4  3  1  0
  5  4  2  0
  6  5  1  0
  7  9  1  0
  7  6  1  0
  7  8  1  6
  9 10  2  0
 11  5  1  0
 11 12  2  0
 12  2  1  0
 13 14  1  0
 13  9  1  0
 14 15  1  1
 15 16  1  0
 16 17  2  0
 18 17  1  0
 19 18  1  0
 20 19  2  0
 20 16  1  0
 21 14  1  0
 22 21  2  0
 24 23  1  6
 24 25  1  0
 25 21  1  0
 26 24  1  0
 26 27  1  0
 28 26  2  0
M  END
$$$$
