YHA.pdb
     RDKit          3D

 28 29  0  0  1  0  0  0  0  0999 V2000
    7.9951  -12.5489   16.8646 O   0  0  0  0  0  0  0  0  0  0  0  0
    7.9988  -13.0287   18.1773 C   0  0  0  0  0  0  0  0  0  0  0  0
    6.8377  -13.1143   18.9046 C   0  0  0  0  0  0  0  0  0  0  0  0
    6.8351  -13.5920   20.2144 C   0  0  0  0  0  0  0  0  0  0  0  0
    8.0045  -13.9967   20.8265 C   0  0  0  0  0  0  0  0  0  0  0  0
    8.0237  -14.5091   22.2323 C   0  0  0  0  0  0  0  0  0  0  0  0
    8.0821  -16.0425   22.2215 C   0  0  2  0  0  0  0  0  0  0  0  0
    6.7279  -16.4866   21.8592 N   0  0  0  0  0  0  0  0  0  0  0  0
    8.3534  -16.4918   23.5885 C   0  0  0  0  0  0  0  0  0  0  0  0
    7.5140  -16.2982   24.5173 O   0  0  0  0  0  0  0  0  0  0  0  0
    9.1613  -13.9043   20.0827 C   0  0  0  0  0  0  0  0  0  0  0  0
    9.1713  -13.4322   18.7852 C   0  0  0  0  0  0  0  0  0  0  0  0
    9.5941  -17.1664   23.8865 N   0  0  0  0  0  0  0  0  0  0  0  0
    9.9146  -17.5723   25.2364 C   0  0  1  0  0  0  0  0  0  0  0  0
   10.9883  -18.6516   25.2451 C   0  0  0  0  0  0  0  0  0  0  0  0
   11.2606  -19.1452   26.6197 C   0  0  0  0  0  0  0  0  0  0  0  0
   10.8434  -18.6111   27.8212 C   0  0  0  0  0  0  0  0  0  0  0  0
   11.3058  -19.3608   28.8452 N   0  0  0  0  0  0  0  0  0  0  0  0
   12.0119  -20.3634   28.2825 C   0  0  0  0  0  0  0  0  0  0  0  0
   11.9847  -20.2343   26.9541 N   0  0  0  0  0  0  0  0  0  0  0  0
   10.3759  -16.4397   26.0812 C   0  0  0  0  0  0  0  0  0  0  0  0
   11.4699  -15.8485   25.8597 O   0  0  0  0  0  0  0  0  0  0  0  0
    9.1293  -13.6968   28.0710 C   0  0  0  0  0  0  0  0  0  0  0  0
   10.1135  -14.8481   28.0221 C   0  0  2  0  0  0  0  0  0  0  0  0
    9.6321  -15.9316   27.1963 N   0  0  0  0  0  0  0  0  0  0  0  0
   10.5412  -15.2639   29.3674 C   0  0  0  0  0  0  0  0  0  0  0  0
   10.4285  -16.5857   29.7605 O   0  0  0  0  0  0  0  0  0  0  0  0
   11.0144  -14.4441   30.1876 O   0  0  0  0  0  0  0  0  0  0  0  0
  2  3  2  0
  2  1  1  0
  4  3  1  0
  5  4  2  0
  6  5  1  0
  7  9  1  0
  7  6  1  0
  7  8  1  1
  9 10  2  0
 11  5  1  0
 11 12  2  0
 12  2  1  0
 13 14  1  0
 13  9  1  0
 14 15  1  6
 15 16  1  0
 16 17  2  0
 18 17  1  0
 19 18  1  0
 20 19  2  0
 20 16  1  0
 21 14  1  0
 22 21  2  0
 24 23  1  1
 24 25  1  0
 25 21  1  0
 26 24  1  0
 26 27  1  0
 28 26  2  0
M  END
$$$$
