RTQ.pdb
     RDKit          3D

 28 27  0  0  1  0  0  0  0  0999 V2000
   30.1255  -21.2129   -9.1155 N   0  0  0  0  0  0  0  0  0  0  0  0
   30.6317  -22.0095  -10.1896 C   0  0  0  0  0  0  0  0  0  0  0  0
   31.8990  -22.3081  -10.1279 N   0  0  0  0  0  0  0  0  0  0  0  0
   29.8255  -22.4549  -11.2599 N   0  0  0  0  0  0  0  0  0  0  0  0
   28.4075  -22.1863  -11.2195 C   0  0  0  0  0  0  0  0  0  0  0  0
   28.0245  -20.9702  -11.9902 C   0  0  0  0  0  0  0  0  0  0  0  0
   26.5603  -20.7157  -11.8606 C   0  0  0  0  0  0  0  0  0  0  0  0
   25.7410  -21.3519  -12.9568 C   0  0  2  0  0  0  0  0  0  0  0  0
   26.3176  -20.9396  -14.2172 N   0  0  0  0  0  0  0  0  0  0  0  0
   24.3588  -20.8094  -12.7865 C   0  0  0  0  0  0  0  0  0  0  0  0
   24.2321  -19.5594  -12.7979 O   0  0  0  0  0  0  0  0  0  0  0  0
   32.3604  -22.8267  -10.9031 C   0  0  0  0  0  0  0  0  0  0  0  0
   22.7049  -19.0419  -13.7277 C   0  0  2  0  0  0  0  0  0  0  0  0
   21.6606  -20.1314  -13.6980 O   0  0  0  0  0  0  0  0  0  0  0  0
   21.6704  -20.7889  -14.9209 C   0  0  2  0  0  0  0  0  0  0  0  0
   21.8581  -21.0843  -12.5445 N   0  0  0  0  0  0  0  0  0  0  0  0
   23.2187  -21.6404  -12.6173 C   0  0  0  0  0  0  0  0  0  0  0  0
   20.8540  -22.1594  -12.4735 O   0  0  0  0  0  0  0  0  0  0  0  0
   20.9903  -23.2317  -13.1468 N   0  0  0  0  0  0  0  0  0  0  0  0
   17.4664  -23.8403   -7.6767 C   0  0  0  0  0  0  0  0  0  0  0  0
   18.2497  -24.8715   -8.2547 O   0  0  0  0  0  0  0  0  0  0  0  0
   18.5605  -25.8631   -7.5467 C   0  0  0  0  0  0  0  0  0  0  0  0
   18.6586  -24.7172   -9.6703 C   0  0  0  0  0  0  0  0  0  0  0  0
   18.2267  -23.3664  -10.1981 C   0  0  2  0  0  0  0  0  0  0  0  0
   18.6888  -23.1518  -11.6232 N   0  0  0  0  0  0  0  0  0  0  0  0
   19.6873  -22.0945  -11.6743 C   0  0  0  0  0  0  0  0  0  0  0  0
   17.4643  -22.7268  -12.3920 O   0  0  0  0  0  0  0  0  0  0  0  0
   16.5353  -23.6265  -12.8330 O   0  0  0  0  0  0  0  0  0  0  0  0
  2  4  1  0
  2  1  1  0
  3  2  2  0
  5  4  1  0
  6  5  1  0
  7  8  1  0
  7  6  1  0
  8  9  1  6
  8 10  1  0
 10 11  2  0
 13 12  1  6
 13 15  1  0
 14 13  1  0
 16 10  1  0
 15 16  1  1
 17 15  1  0
 17 18  2  0
 19 20  1  0
 20 22  1  0
 20 21  2  0
 22 23  1  0
 24 23  1  1
 24 26  1  0
 24 25  1  0
 25 17  1  0
 26 27  1  0
 28 26  2  0
M  END
$$$$
