RTQ.pdb
     RDKit          3D

 28 27  0  0  1  0  0  0  0  0999 V2000
   24.3315  -15.9787  -16.7275 N   0  0  0  0  0  0  0  0  0  0  0  0
   24.3177  -16.3680  -15.3518 C   0  0  0  0  0  0  0  0  0  0  0  0
   25.2169  -15.8071  -14.5930 N   0  0  0  0  0  0  0  0  0  0  0  0
   23.3958  -17.3006  -14.8280 N   0  0  0  0  0  0  0  0  0  0  0  0
   22.4725  -17.9462  -15.7308 C   0  0  0  0  0  0  0  0  0  0  0  0
   21.2113  -17.1761  -15.9206 C   0  0  0  0  0  0  0  0  0  0  0  0
   21.1682  -16.5834  -17.2889 C   0  0  0  0  0  0  0  0  0  0  0  0
   19.8936  -15.8280  -17.5761 C   0  0  2  0  0  0  0  0  0  0  0  0
   19.9360  -15.4283  -18.9652 N   0  0  0  0  0  0  0  0  0  0  0  0
   19.9204  -14.6421  -16.6669 C   0  0  0  0  0  0  0  0  0  0  0  0
   19.7248  -14.8570  -15.4445 O   0  0  0  0  0  0  0  0  0  0  0  0
   25.2851  -16.0490  -13.5832 C   0  0  0  0  0  0  0  0  0  0  0  0
   22.5181  -12.2673  -15.6522 C   0  0  2  0  0  0  0  0  0  0  0  0
   21.4075  -11.4402  -16.2530 O   0  0  0  0  0  0  0  0  0  0  0  0
   21.7747  -11.0726  -17.5406 C   0  0  2  0  0  0  0  0  0  0  0  0
   20.0802  -12.1581  -16.2290 N   0  0  0  0  0  0  0  0  0  0  0  0
   20.1534  -13.3192  -17.1303 C   0  0  0  0  0  0  0  0  0  0  0  0
   18.9281  -11.3040  -16.5647 O   0  0  0  0  0  0  0  0  0  0  0  0
   18.5393  -11.1685  -17.7698 N   0  0  0  0  0  0  0  0  0  0  0  0
   13.9582   -9.9107  -13.1754 C   0  0  0  0  0  0  0  0  0  0  0  0
   13.6832   -9.1295  -14.3265 O   0  0  0  0  0  0  0  0  0  0  0  0
   12.5647   -8.5625  -14.4188 C   0  0  0  0  0  0  0  0  0  0  0  0
   14.7394   -9.0276  -15.3604 C   0  0  0  0  0  0  0  0  0  0  0  0
   15.9347   -9.8724  -14.9762 C   0  0  2  0  0  0  0  0  0  0  0  0
   17.0801   -9.6913  -15.9486 N   0  0  0  0  0  0  0  0  0  0  0  0
   18.1773  -10.5833  -15.6051 C   0  0  0  0  0  0  0  0  0  0  0  0
   17.5265   -8.2601  -15.7947 O   0  0  0  0  0  0  0  0  0  0  0  0
   16.9446   -7.2390  -16.4917 O   0  0  0  0  0  0  0  0  0  0  0  0
  2  4  1  0
  2  1  1  0
  3  2  2  0
  5  4  1  0
  6  5  1  0
  7  8  1  0
  7  6  1  0
  8  9  1  6
  8 10  1  0
 10 11  2  0
 13 12  1  1
 13 15  1  0
 14 13  1  0
 16 10  1  0
 15 16  1  1
 17 15  1  0
 17 18  2  0
 19 20  1  0
 20 22  1  0
 20 21  2  0
 22 23  1  0
 24 23  1  6
 24 26  1  0
 24 25  1  0
 25 17  1  0
 26 27  1  0
 28 26  2  0
M  END
$$$$
