RTQ.pdb
     RDKit          3D

 28 27  0  0  1  0  0  0  0  0999 V2000
   17.8320  -24.6126   -9.6317 N   0  0  0  0  0  0  0  0  0  0  0  0
   17.5107  -25.1731   -8.3561 C   0  0  0  0  0  0  0  0  0  0  0  0
   16.7168  -24.4617   -7.6061 N   0  0  0  0  0  0  0  0  0  0  0  0
   18.0118  -26.4183   -7.9176 N   0  0  0  0  0  0  0  0  0  0  0  0
   19.1410  -26.9945   -8.6084 C   0  0  0  0  0  0  0  0  0  0  0  0
   18.7449  -28.0172   -9.6168 C   0  0  0  0  0  0  0  0  0  0  0  0
   19.3846  -27.7216  -10.9317 C   0  0  0  0  0  0  0  0  0  0  0  0
   20.2577  -28.8429  -11.4401 C   0  0  2  0  0  0  0  0  0  0  0  0
   21.0917  -29.2697  -10.3386 N   0  0  0  0  0  0  0  0  0  0  0  0
   21.0728  -28.2448  -12.5408 C   0  0  0  0  0  0  0  0  0  0  0  0
   22.3216  -28.3437  -12.4433 O   0  0  0  0  0  0  0  0  0  0  0  0
   16.5140  -24.7483   -6.6265 C   0  0  0  0  0  0  0  0  0  0  0  0
   22.6332  -29.3655  -14.3286 C   0  0  2  0  0  0  0  0  0  0  0  0
   21.8147  -28.6630  -15.3846 O   0  0  0  0  0  0  0  0  0  0  0  0
   20.8143  -29.5238  -15.8160 C   0  0  2  0  0  0  0  0  0  0  0  0
   21.2555  -27.3488  -14.8969 N   0  0  0  0  0  0  0  0  0  0  0  0
   20.4946  -27.5876  -13.6601 C   0  0  0  0  0  0  0  0  0  0  0  0
   20.4330  -26.6390  -15.8913 O   0  0  0  0  0  0  0  0  0  0  0  0
   19.2034  -26.9280  -16.0542 N   0  0  0  0  0  0  0  0  0  0  0  0
   21.8544  -21.8398  -16.1972 C   0  0  0  0  0  0  0  0  0  0  0  0
   20.4652  -21.5991  -16.3493 O   0  0  0  0  0  0  0  0  0  0  0  0
   19.9350  -20.6763  -15.6796 C   0  0  0  0  0  0  0  0  0  0  0  0
   19.7153  -22.4568  -17.2964 C   0  0  0  0  0  0  0  0  0  0  0  0
   20.6325  -23.4953  -17.9047 C   0  0  2  0  0  0  0  0  0  0  0  0
   20.1027  -24.8974  -17.6951 N   0  0  0  0  0  0  0  0  0  0  0  0
   20.9241  -25.6057  -16.7251 C   0  0  0  0  0  0  0  0  0  0  0  0
   20.2040  -25.5790  -19.0353 O   0  0  0  0  0  0  0  0  0  0  0  0
   19.4781  -25.1659  -20.1169 O   0  0  0  0  0  0  0  0  0  0  0  0
  2  4  1  0
  2  1  1  0
  3  2  2  0
  5  4  1  0
  6  5  1  0
  7  8  1  0
  7  6  1  0
  8  9  1  1
  8 10  1  0
 10 11  2  0
 13 12  1  6
 13 15  1  0
 14 13  1  0
 16 10  1  0
 15 16  1  6
 17 15  1  0
 17 18  2  0
 19 20  1  0
 20 22  1  0
 20 21  2  0
 22 23  1  0
 24 23  1  1
 24 26  1  0
 24 25  1  0
 25 17  1  0
 26 27  1  0
 28 26  2  0
M  END
$$$$
