RTQ.pdb
     RDKit          3D

 28 27  0  0  1  0  0  0  0  0999 V2000
   30.6231  -21.7758   -8.8338 N   0  0  0  0  0  0  0  0  0  0  0  0
   31.4568  -21.9224   -9.9861 C   0  0  0  0  0  0  0  0  0  0  0  0
   32.4634  -22.7407   -9.8593 N   0  0  0  0  0  0  0  0  0  0  0  0
   31.2214  -21.2326  -11.1956 N   0  0  0  0  0  0  0  0  0  0  0  0
   29.9133  -20.6684  -11.4299 C   0  0  0  0  0  0  0  0  0  0  0  0
   28.8394  -21.6990  -11.4949 C   0  0  0  0  0  0  0  0  0  0  0  0
   27.5301  -21.0617  -11.8190 C   0  0  0  0  0  0  0  0  0  0  0  0
   27.1042  -21.2605  -13.2532 C   0  0  2  0  0  0  0  0  0  0  0  0
   28.1428  -20.7017  -14.0900 N   0  0  0  0  0  0  0  0  0  0  0  0
   25.8232  -20.5041  -13.3965 C   0  0  0  0  0  0  0  0  0  0  0  0
   25.9098  -19.2934  -13.7211 O   0  0  0  0  0  0  0  0  0  0  0  0
   33.1251  -22.8943  -10.6476 C   0  0  0  0  0  0  0  0  0  0  0  0
   24.6349  -18.9624  -15.1063 C   0  0  2  0  0  0  0  0  0  0  0  0
   23.4362  -19.8664  -14.9498 O   0  0  0  0  0  0  0  0  0  0  0  0
   23.5234  -20.8854  -15.8888 C   0  0  2  0  0  0  0  0  0  0  0  0
   23.3023  -20.4037  -13.5459 N   0  0  0  0  0  0  0  0  0  0  0  0
   24.5492  -21.0959  -13.1828 C   0  0  0  0  0  0  0  0  0  0  0  0
   22.1366  -21.2816  -13.3464 O   0  0  0  0  0  0  0  0  0  0  0  0
   22.2351  -22.5447  -13.4755 N   0  0  0  0  0  0  0  0  0  0  0  0
   18.8977  -22.5046   -9.6753 C   0  0  0  0  0  0  0  0  0  0  0  0
   17.6998  -22.7128  -10.4051 O   0  0  0  0  0  0  0  0  0  0  0  0
   16.8687  -23.5527   -9.9751 C   0  0  0  0  0  0  0  0  0  0  0  0
   17.4976  -21.9213  -11.6410 C   0  0  0  0  0  0  0  0  0  0  0  0
   18.6903  -21.0246  -11.8923 C   0  0  2  0  0  0  0  0  0  0  0  0
   19.6977  -21.6823  -12.8104 N   0  0  0  0  0  0  0  0  0  0  0  0
   20.8464  -20.8102  -13.0038 C   0  0  0  0  0  0  0  0  0  0  0  0
   18.9873  -21.8796  -14.1248 O   0  0  0  0  0  0  0  0  0  0  0  0
   19.1918  -21.0516  -15.1923 O   0  0  0  0  0  0  0  0  0  0  0  0
  2  4  1  0
  2  1  1  0
  3  2  2  0
  5  4  1  0
  6  5  1  0
  7  8  1  0
  7  6  1  0
  8  9  1  6
  8 10  1  0
 10 11  2  0
 13 12  1  6
 13 15  1  0
 14 13  1  0
 16 10  1  0
 15 16  1  1
 17 15  1  0
 17 18  2  0
 19 20  1  0
 20 22  1  0
 20 21  2  0
 22 23  1  0
 24 23  1  1
 24 26  1  0
 24 25  1  0
 25 17  1  0
 26 27  1  0
 28 26  2  0
M  END
$$$$
