RTQ.pdb
     RDKit          3D

 28 27  0  0  1  0  0  0  0  0999 V2000
   35.0826  -26.0410  -15.0664 N   0  0  0  0  0  0  0  0  0  0  0  0
   34.1004  -25.8910  -16.0946 C   0  0  0  0  0  0  0  0  0  0  0  0
   34.4939  -26.1793  -17.3033 N   0  0  0  0  0  0  0  0  0  0  0  0
   32.7809  -25.4588  -15.8374 N   0  0  0  0  0  0  0  0  0  0  0  0
   31.8400  -25.4119  -16.9314 C   0  0  0  0  0  0  0  0  0  0  0  0
   31.4095  -24.0260  -17.2682 C   0  0  0  0  0  0  0  0  0  0  0  0
   30.6743  -23.4195  -16.1205 C   0  0  0  0  0  0  0  0  0  0  0  0
   29.1840  -23.6519  -16.1720 C   0  0  2  0  0  0  0  0  0  0  0  0
   28.8820  -24.2106  -17.4711 N   0  0  0  0  0  0  0  0  0  0  0  0
   28.5647  -22.3023  -16.0020 C   0  0  0  0  0  0  0  0  0  0  0  0
   28.8280  -21.6844  -14.9400 O   0  0  0  0  0  0  0  0  0  0  0  0
   33.8273  -26.1422  -18.1015 C   0  0  0  0  0  0  0  0  0  0  0  0
   28.9383  -19.1074  -17.7559 C   0  0  2  0  0  0  0  0  0  0  0  0
   27.4738  -19.4635  -17.8388 O   0  0  0  0  0  0  0  0  0  0  0  0
   27.2116  -19.9716  -19.1041 C   0  0  2  0  0  0  0  0  0  0  0  0
   27.0533  -20.4196  -16.7495 N   0  0  0  0  0  0  0  0  0  0  0  0
   27.7129  -21.7155  -16.9762 C   0  0  0  0  0  0  0  0  0  0  0  0
   25.5952  -20.5866  -16.6254 O   0  0  0  0  0  0  0  0  0  0  0  0
   25.0069  -21.6070  -17.1097 N   0  0  0  0  0  0  0  0  0  0  0  0
   21.8955  -20.8951  -12.7830 C   0  0  0  0  0  0  0  0  0  0  0  0
   20.8637  -20.3269  -13.5726 O   0  0  0  0  0  0  0  0  0  0  0  0
   19.6789  -20.7005  -13.3783 C   0  0  0  0  0  0  0  0  0  0  0  0
   21.2470  -19.3184  -14.5880 C   0  0  0  0  0  0  0  0  0  0  0  0
   22.7531  -19.1916  -14.6608 C   0  0  2  0  0  0  0  0  0  0  0  0
   23.2991  -19.7718  -15.9476 N   0  0  0  0  0  0  0  0  0  0  0  0
   24.7493  -19.6555  -15.9762 C   0  0  0  0  0  0  0  0  0  0  0  0
   22.7046  -18.9422  -17.0564 O   0  0  0  0  0  0  0  0  0  0  0  0
   21.4468  -19.1701  -17.5395 O   0  0  0  0  0  0  0  0  0  0  0  0
  2  4  1  0
  2  1  1  0
  3  2  2  0
  5  4  1  0
  6  5  1  0
  7  8  1  0
  7  6  1  0
  8  9  1  6
  8 10  1  0
 10 11  2  0
 13 12  1  6
 13 15  1  0
 14 13  1  0
 16 10  1  0
 15 16  1  1
 17 15  1  0
 17 18  2  0
 19 20  1  0
 20 22  1  0
 20 21  2  0
 22 23  1  0
 24 23  1  1
 24 26  1  0
 24 25  1  0
 25 17  1  0
 26 27  1  0
 28 26  2  0
M  END
$$$$
