RTQ.pdb
     RDKit          3D

 28 27  0  0  1  0  0  0  0  0999 V2000
   19.7797  -23.8053   -6.6032 N   0  0  0  0  0  0  0  0  0  0  0  0
   19.2974  -23.3201   -7.8587 C   0  0  0  0  0  0  0  0  0  0  0  0
   18.0580  -23.6080   -8.1415 N   0  0  0  0  0  0  0  0  0  0  0  0
   20.0978  -22.5737   -8.7510 N   0  0  0  0  0  0  0  0  0  0  0  0
   21.4652  -22.2894   -8.3853 C   0  0  0  0  0  0  0  0  0  0  0  0
   21.6856  -20.8603   -8.0268 C   0  0  0  0  0  0  0  0  0  0  0  0
   22.6304  -20.2251   -8.9908 C   0  0  0  0  0  0  0  0  0  0  0  0
   23.8435  -21.0720   -9.2889 C   0  0  2  0  0  0  0  0  0  0  0  0
   24.7461  -20.9378   -8.1671 N   0  0  0  0  0  0  0  0  0  0  0  0
   24.4342  -20.4963  -10.5353 C   0  0  0  0  0  0  0  0  0  0  0  0
   25.2512  -19.5520  -10.3950 O   0  0  0  0  0  0  0  0  0  0  0  0
   17.6587  -23.3763   -9.0740 C   0  0  0  0  0  0  0  0  0  0  0  0
   26.7653  -21.7700  -12.6663 C   0  0  2  0  0  0  0  0  0  0  0  0
   25.6758  -21.3830  -13.6367 O   0  0  0  0  0  0  0  0  0  0  0  0
   25.0344  -22.5369  -14.0669 C   0  0  2  0  0  0  0  0  0  0  0  0
   24.7079  -20.3874  -13.0454 N   0  0  0  0  0  0  0  0  0  0  0  0
   24.1090  -20.9711  -11.8345 C   0  0  0  0  0  0  0  0  0  0  0  0
   23.6650  -19.9336  -13.9812 O   0  0  0  0  0  0  0  0  0  0  0  0
   22.5088  -20.4675  -13.9863 N   0  0  0  0  0  0  0  0  0  0  0  0
   24.2733  -15.5542  -18.4874 C   0  0  0  0  0  0  0  0  0  0  0  0
   22.8776  -15.7913  -18.5688 O   0  0  0  0  0  0  0  0  0  0  0  0
   22.2017  -15.1389  -19.4047 C   0  0  0  0  0  0  0  0  0  0  0  0
   22.2944  -16.8022  -17.6562 C   0  0  0  0  0  0  0  0  0  0  0  0
   23.3822  -17.4575  -16.8333 C   0  0  2  0  0  0  0  0  0  0  0  0
   22.8083  -18.4281  -15.8238 N   0  0  0  0  0  0  0  0  0  0  0  0
   23.8532  -18.8961  -14.9258 C   0  0  0  0  0  0  0  0  0  0  0  0
   22.2760  -19.5875  -16.6260 O   0  0  0  0  0  0  0  0  0  0  0  0
   20.9467  -19.7232  -16.9119 O   0  0  0  0  0  0  0  0  0  0  0  0
  2  4  1  0
  2  1  1  0
  3  2  2  0
  5  4  1  0
  6  5  1  0
  7  8  1  0
  7  6  1  0
  8  9  1  1
  8 10  1  0
 10 11  2  0
 13 12  1  6
 13 15  1  0
 14 13  1  0
 16 10  1  0
 15 16  1  6
 17 15  1  0
 17 18  2  0
 19 20  1  0
 20 22  1  0
 20 21  2  0
 22 23  1  0
 24 23  1  1
 24 26  1  0
 24 25  1  0
 25 17  1  0
 26 27  1  0
 28 26  2  0
M  END
$$$$
