RTQ.pdb
     RDKit          3D

 28 27  0  0  1  0  0  0  0  0999 V2000
   23.0410  -20.3383   -8.2341 N   0  0  0  0  0  0  0  0  0  0  0  0
   24.0651  -21.2259   -7.7782 C   0  0  0  0  0  0  0  0  0  0  0  0
   23.9744  -21.6083   -6.5355 N   0  0  0  0  0  0  0  0  0  0  0  0
   25.1179  -21.6720   -8.6069 N   0  0  0  0  0  0  0  0  0  0  0  0
   25.9050  -20.6924   -9.3175 C   0  0  0  0  0  0  0  0  0  0  0  0
   25.0838  -19.8163  -10.1994 C   0  0  0  0  0  0  0  0  0  0  0  0
   25.4525  -20.0305  -11.6290 C   0  0  0  0  0  0  0  0  0  0  0  0
   24.9312  -21.3286  -12.1955 C   0  0  2  0  0  0  0  0  0  0  0  0
   25.6252  -22.4012  -11.5181 N   0  0  0  0  0  0  0  0  0  0  0  0
   25.2712  -21.2929  -13.6504 C   0  0  0  0  0  0  0  0  0  0  0  0
   25.5875  -22.3835  -14.1884 O   0  0  0  0  0  0  0  0  0  0  0  0
   24.6667  -22.2726   -6.1326 C   0  0  0  0  0  0  0  0  0  0  0  0
   24.2469  -22.3836  -15.8727 C   0  0  2  0  0  0  0  0  0  0  0  0
   24.2065  -20.9786  -16.4228 O   0  0  0  0  0  0  0  0  0  0  0  0
   22.9600  -20.4310  -16.1503 C   0  0  2  0  0  0  0  0  0  0  0  0
   25.3276  -20.1209  -15.8889 N   0  0  0  0  0  0  0  0  0  0  0  0
   25.2480  -20.0984  -14.4196 C   0  0  0  0  0  0  0  0  0  0  0  0
   25.3512  -18.7533  -16.4350 O   0  0  0  0  0  0  0  0  0  0  0  0
   24.6415  -17.8284  -15.9224 N   0  0  0  0  0  0  0  0  0  0  0  0
   29.6376  -16.3030  -20.3222 C   0  0  0  0  0  0  0  0  0  0  0  0
   28.8423  -15.1573  -20.0653 O   0  0  0  0  0  0  0  0  0  0  0  0
   29.2417  -14.0393  -20.4797 C   0  0  0  0  0  0  0  0  0  0  0  0
   27.5776  -15.3481  -19.3175 C   0  0  0  0  0  0  0  0  0  0  0  0
   27.4535  -16.7825  -18.8516 C   0  0  2  0  0  0  0  0  0  0  0  0
   26.1827  -17.0026  -18.0597 N   0  0  0  0  0  0  0  0  0  0  0  0
   26.1415  -18.3621  -17.5424 C   0  0  0  0  0  0  0  0  0  0  0  0
   25.0515  -16.7992  -19.0344 O   0  0  0  0  0  0  0  0  0  0  0  0
   23.7652  -17.1527  -18.7382 O   0  0  0  0  0  0  0  0  0  0  0  0
  2  4  1  0
  2  1  1  0
  3  2  2  0
  5  4  1  0
  6  5  1  0
  7  8  1  0
  7  6  1  0
  8  9  1  1
  8 10  1  0
 10 11  2  0
 13 12  1  6
 13 15  1  0
 14 13  1  0
 16 10  1  0
 15 16  1  6
 17 15  1  0
 17 18  2  0
 19 20  1  0
 20 22  1  0
 20 21  2  0
 22 23  1  0
 24 23  1  1
 24 26  1  0
 24 25  1  0
 25 17  1  0
 26 27  1  0
 28 26  2  0
M  END
$$$$
